[H]N=C(N([H])[H])N([H])C([H])([H])C([H])([H])C([H])([H])[C@@]([H])(C(=O)c1nc2c([H])c([H])c([H])c([H])c2s1)N([H])C(=O)[C@@]1([H])N(C(=O)[C@@]([H])(N([H])[H])C([H])([H])c2c([H])c([H])c([H])c([H])c2[H])C([H])([H])C([H])([H])C1([H])[H]


 45 48  0  0  0  0  0  0  0  0999 V2000
   56.5023   -5.4460   -7.5011 C   0  0  0  0  0  0  0  0  0  0  0  0
   56.6038   -6.5643   -5.2232 C   0  0  0  0  0  0  0  0  0  0  0  0
   55.6416   -7.3311   -5.5698 O   0  0  0  0  0  0  0  0  0  0  0  0
   57.0523   -5.6331   -6.1812 N   0  0  0  0  0  0  0  0  0  0  0  0
   57.8685   -5.0289   -5.8784 H   0  0  0  0  0  0  0  0  0  0  0  0
   55.1697   -5.7837   -2.5815 C   0  0  0  0  0  0  0  0  0  0  0  0
   55.3993   -4.6653   -3.1737 O   0  0  0  0  0  0  0  0  0  0  0  0
   56.0359   -6.8540   -2.8644 N   0  0  0  0  0  0  0  0  0  0  0  0
   56.1403   -8.2096   -2.3880 C   0  0  0  0  0  0  0  0  0  0  0  0
   57.6730   -8.3878   -2.3035 C   0  0  0  0  0  0  0  0  0  0  0  0
   57.9999   -7.9172   -3.7378 C   0  0  0  0  0  0  0  0  0  0  0  0
   57.1226   -6.7405   -3.8653 C   0  0  0  0  0  0  0  0  0  0  0  0
   53.5922   -4.5442   -1.2423 N   0  0  0  0  0  0  0  0  0  0  0  0
   54.0407   -5.8147   -1.6880 C   0  0  0  0  0  0  0  0  0  0  0  0
   53.6913   -4.3600   -0.2180 H   0  0  0  0  0  0  0  0  0  0  0  0
   52.7376   -4.1643   -1.6513 H   0  0  0  0  0  0  0  0  0  0  0  0
   52.9220   -6.7248   -2.1425 C   0  0  0  0  0  0  0  0  0  0  0  0
   51.9088   -6.1176   -2.9885 C   0  0  0  0  0  0  0  0  0  0  0  0
   52.0532   -6.1143   -4.3575 C   0  0  0  0  0  0  0  0  0  0  0  0
   51.1122   -5.5552   -5.2063 C   0  0  0  0  0  0  0  0  0  0  0  0
   49.9807   -4.9748   -4.6854 C   0  0  0  0  0  0  0  0  0  0  0  0
   49.8224   -4.9704   -3.3184 C   0  0  0  0  0  0  0  0  0  0  0  0
   50.7688   -5.5319   -2.4794 C   0  0  0  0  0  0  0  0  0  0  0  0
   57.6170   -5.1752   -8.4381 C   0  0  0  0  0  0  0  0  0  0  0  0
   58.8351   -5.2849   -8.0529 O   0  0  0  0  0  0  0  0  0  0  0  0
   57.4534   -4.7774   -9.8341 C   0  0  0  0  0  0  0  0  0  0  0  0
   58.3370   -4.5486  -10.7821 N   0  0  0  0  0  0  0  0  0  0  0  0
   57.9694   -4.1984  -11.9764 C   0  0  0  0  0  0  0  0  0  0  0  0
   58.8275   -3.9303  -13.0612 C   0  0  0  0  0  0  0  0  0  0  0  0
   58.3365   -3.5703  -14.2723 C   0  0  0  0  0  0  0  0  0  0  0  0
   56.9918   -3.4445  -14.5199 C   0  0  0  0  0  0  0  0  0  0  0  0
   56.1345   -3.7007  -13.4775 C   0  0  0  0  0  0  0  0  0  0  0  0
   56.6280   -4.0749  -12.2164 C   0  0  0  0  0  0  0  0  0  0  0  0
   55.9730   -4.4750  -10.6913 S   0  0  0  0  0  0  0  0  0  0  0  0
   55.4438   -4.4295   -7.6479 C   0  0  0  0  0  0  0  0  0  0  0  0
   54.0434   -4.9059   -7.4452 C   0  0  0  0  0  0  0  0  0  0  0  0
   52.9803   -4.3870   -8.3223 C   0  0  0  0  0  0  0  0  0  0  0  0
   52.0250   -3.6755   -7.4520 N   0  0  0  0  0  0  0  0  0  0  0  0
   51.8906   -3.9757   -6.4853 H   0  0  0  0  0  0  0  0  0  0  0  0
   51.3078   -2.5730   -8.0019 C   0  0  0  0  0  0  0  0  0  0  0  0
   50.1499   -2.1075   -7.3360 N   0  0  0  0  0  0  0  0  0  0  0  0
   51.6694   -1.9798   -9.0824 N   0  0  0  0  0  0  0  0  0  0  0  0
   50.1102   -2.0757   -6.2895 H   0  0  0  0  0  0  0  0  0  0  0  0
   49.3272   -1.7925   -7.8760 H   0  0  0  0  0  0  0  0  0  0  0  0
   52.5293   -2.3377   -9.5620 H   0  0  0  0  0  0  0  0  0  0  0  0
 13 14  1  0  0  0
 14 17  1  0  0  0
 17 18  1  0  0  0
 18 19  2  0  0  0
 19 20  1  0  0  0
 20 21  2  0  0  0
 21 22  1  0  0  0
 22 23  2  0  0  0
 14  6  1  0  0  0
  6  7  2  0  0  0
  6  8  1  0  0  0
  8  9  1  0  0  0
  9 10  1  0  0  0
 10 11  1  0  0  0
 11 12  1  0  0  0
 12  2  1  0  0  0
  2  3  2  0  0  0
  2  4  1  0  0  0
  4  1  1  0  0  0
  1 35  1  0  0  0
 35 36  1  0  0  0
 36 37  1  0  0  0
 37 38  1  0  0  0
 38 40  1  0  0  0
 40 41  1  0  0  0
 40 42  2  0  0  0
  1 24  1  0  0  0
 24 25  2  0  0  0
 24 26  1  0  0  0
 26 27  2  0  0  0
 27 28  1  0  0  0
 28 29  2  0  0  0
 29 30  1  0  0  0
 30 31  2  0  0  0
 31 32  1  0  0  0
 32 33  2  0  0  0
 33 34  1  0  0  0
 23 18  1  0  0  0
 12  8  1  0  0  0
 34 26  1  0  0  0
 33 28  1  0  0  0
 13 15  1  0  0  0
 13 16  1  0  0  0
  4  5  1  0  0  0
 38 39  1  0  0  0
 41 43  1  0  0  0
 41 44  1  0  0  0
 42 45  1  0  0  0
M  END
> <minimizedAffinity>
-9.06882

> <CNNscore>
0.3367571831

> <CNNaffinity>
7.0722656250

> <CNN_VS>
2.3816361427

> <CNNaffinity_variance>
0.3214388490

$$$$
[H]N=C(N([H])[H])N([H])C([H])([H])C([H])([H])C([H])([H])[C@@]([H])(C(=O)c1nc2c([H])c([H])c([H])c([H])c2s1)N([H])C(=O)[C@@]1([H])N(C(=O)[C@@]([H])(N([H])[H])C([H])([H])c2c([H])c([H])c([H])c([H])c2[H])C([H])([H])C([H])([H])C1([H])[H]


 45 48  0  0  0  0  0  0  0  0999 V2000
   50.6397   -5.7446   -4.9496 C   0  0  0  0  0  0  0  0  0  0  0  0
   51.5392   -6.9393   -2.8971 C   0  0  0  0  0  0  0  0  0  0  0  0
   50.5958   -6.4295   -2.2013 O   0  0  0  0  0  0  0  0  0  0  0  0
   51.5624   -6.6194   -4.2693 N   0  0  0  0  0  0  0  0  0  0  0  0
   52.3377   -7.0769   -4.8283 H   0  0  0  0  0  0  0  0  0  0  0  0
   54.6212   -6.5754   -2.7800 C   0  0  0  0  0  0  0  0  0  0  0  0
   54.3696   -6.8535   -4.0102 O   0  0  0  0  0  0  0  0  0  0  0  0
   53.7251   -7.0608   -1.8119 N   0  0  0  0  0  0  0  0  0  0  0  0
   53.6803   -7.0060   -0.3729 C   0  0  0  0  0  0  0  0  0  0  0  0
   53.1478   -8.4152   -0.0287 C   0  0  0  0  0  0  0  0  0  0  0  0
   51.9177   -8.3884   -0.9625 C   0  0  0  0  0  0  0  0  0  0  0  0
   52.4907   -7.7921   -2.1818 C   0  0  0  0  0  0  0  0  0  0  0  0
   55.6114   -4.3850   -2.5798 N   0  0  0  0  0  0  0  0  0  0  0  0
   55.8023   -5.7904   -2.5301 C   0  0  0  0  0  0  0  0  0  0  0  0
   56.1158   -3.8839   -3.3463 H   0  0  0  0  0  0  0  0  0  0  0  0
   55.5809   -3.8714   -1.6982 H   0  0  0  0  0  0  0  0  0  0  0  0
   56.6030   -6.2490   -1.3322 C   0  0  0  0  0  0  0  0  0  0  0  0
   57.4277   -7.4289   -1.5293 C   0  0  0  0  0  0  0  0  0  0  0  0
   58.4608   -7.4141   -2.4391 C   0  0  0  0  0  0  0  0  0  0  0  0
   59.2792   -8.5101   -2.6573 C   0  0  0  0  0  0  0  0  0  0  0  0
   59.0722   -9.6698   -1.9499 C   0  0  0  0  0  0  0  0  0  0  0  0
   58.0431   -9.6997   -1.0367 C   0  0  0  0  0  0  0  0  0  0  0  0
   57.2313   -8.5990   -0.8263 C   0  0  0  0  0  0  0  0  0  0  0  0
   50.9781   -5.7380   -6.3916 C   0  0  0  0  0  0  0  0  0  0  0  0
   50.0943   -6.0366   -7.2711 O   0  0  0  0  0  0  0  0  0  0  0  0
   52.2911   -5.4028   -6.9373 C   0  0  0  0  0  0  0  0  0  0  0  0
   53.5027   -5.7609   -6.5692 N   0  0  0  0  0  0  0  0  0  0  0  0
   54.5528   -5.3399   -7.2048 C   0  0  0  0  0  0  0  0  0  0  0  0
   55.8900   -5.6596   -6.8972 C   0  0  0  0  0  0  0  0  0  0  0  0
   56.9169   -5.1630   -7.6296 C   0  0  0  0  0  0  0  0  0  0  0  0
   56.7266   -4.3285   -8.7032 C   0  0  0  0  0  0  0  0  0  0  0  0
   55.4311   -4.0019   -9.0231 C   0  0  0  0  0  0  0  0  0  0  0  0
   54.3561   -4.5085   -8.2736 C   0  0  0  0  0  0  0  0  0  0  0  0
   52.6535   -4.3839   -8.2968 S   0  0  0  0  0  0  0  0  0  0  0  0
   50.5230   -4.3660   -4.4387 C   0  0  0  0  0  0  0  0  0  0  0  0
   49.1386   -3.8884   -4.1479 C   0  0  0  0  0  0  0  0  0  0  0  0
   48.5190   -2.9061   -5.0534 C   0  0  0  0  0  0  0  0  0  0  0  0
   49.6231   -2.2216   -5.7526 N   0  0  0  0  0  0  0  0  0  0  0  0
   50.3088   -1.6816   -5.2227 H   0  0  0  0  0  0  0  0  0  0  0  0
   49.6949   -2.3393   -7.1716 C   0  0  0  0  0  0  0  0  0  0  0  0
   50.4970   -1.4263   -7.8955 N   0  0  0  0  0  0  0  0  0  0  0  0
   49.0593   -3.2438   -7.8257 N   0  0  0  0  0  0  0  0  0  0  0  0
   51.4184   -1.1041   -7.5147 H   0  0  0  0  0  0  0  0  0  0  0  0
   50.1822   -1.0657   -8.8112 H   0  0  0  0  0  0  0  0  0  0  0  0
   48.4704   -3.9114   -7.2733 H   0  0  0  0  0  0  0  0  0  0  0  0
 13 14  1  0  0  0
 14 17  1  0  0  0
 17 18  1  0  0  0
 18 19  2  0  0  0
 19 20  1  0  0  0
 20 21  2  0  0  0
 21 22  1  0  0  0
 22 23  2  0  0  0
 14  6  1  0  0  0
  6  7  2  0  0  0
  6  8  1  0  0  0
  8  9  1  0  0  0
  9 10  1  0  0  0
 10 11  1  0  0  0
 11 12  1  0  0  0
 12  2  1  0  0  0
  2  3  2  0  0  0
  2  4  1  0  0  0
  4  1  1  0  0  0
  1 35  1  0  0  0
 35 36  1  0  0  0
 36 37  1  0  0  0
 37 38  1  0  0  0
 38 40  1  0  0  0
 40 41  1  0  0  0
 40 42  2  0  0  0
  1 24  1  0  0  0
 24 25  2  0  0  0
 24 26  1  0  0  0
 26 27  2  0  0  0
 27 28  1  0  0  0
 28 29  2  0  0  0
 29 30  1  0  0  0
 30 31  2  0  0  0
 31 32  1  0  0  0
 32 33  2  0  0  0
 33 34  1  0  0  0
 23 18  1  0  0  0
 12  8  1  0  0  0
 34 26  1  0  0  0
 33 28  1  0  0  0
 13 15  1  0  0  0
 13 16  1  0  0  0
  4  5  1  0  0  0
 38 39  1  0  0  0
 41 43  1  0  0  0
 41 44  1  0  0  0
 42 45  1  0  0  0
M  END
> <minimizedAffinity>
-7.79130

> <CNNscore>
0.3309534788

> <CNNaffinity>
7.2158226967

> <CNN_VS>
2.3881015778

> <CNNaffinity_variance>
0.6352152228

$$$$
[H]N=C(N([H])[H])N([H])C([H])([H])C([H])([H])C([H])([H])[C@@]([H])(C(=O)c1nc2c([H])c([H])c([H])c([H])c2s1)N([H])C(=O)[C@@]1([H])N(C(=O)[C@@]([H])(N([H])[H])C([H])([H])c2c([H])c([H])c([H])c([H])c2[H])C([H])([H])C([H])([H])C1([H])[H]


 45 48  0  0  0  0  0  0  0  0999 V2000
   57.4022   -5.5747   -7.9699 C   0  0  0  0  0  0  0  0  0  0  0  0
   59.4975   -6.2023   -9.2605 C   0  0  0  0  0  0  0  0  0  0  0  0
   58.8061   -7.0144   -9.9651 O   0  0  0  0  0  0  0  0  0  0  0  0
   58.8075   -5.4677   -8.2754 N   0  0  0  0  0  0  0  0  0  0  0  0
   59.3984   -4.7820   -7.7246 H   0  0  0  0  0  0  0  0  0  0  0  0
   61.7644   -7.7108   -7.7671 C   0  0  0  0  0  0  0  0  0  0  0  0
   61.2905   -6.8878   -6.8998 O   0  0  0  0  0  0  0  0  0  0  0  0
   61.6449   -7.3599   -9.1230 N   0  0  0  0  0  0  0  0  0  0  0  0
   62.0738   -7.9695  -10.3559 C   0  0  0  0  0  0  0  0  0  0  0  0
   62.5046   -6.7326  -11.1760 C   0  0  0  0  0  0  0  0  0  0  0  0
   61.2072   -5.9161  -10.9870 C   0  0  0  0  0  0  0  0  0  0  0  0
   60.9299   -6.1368   -9.5570 C   0  0  0  0  0  0  0  0  0  0  0  0
   63.7268   -9.1044   -7.6104 N   0  0  0  0  0  0  0  0  0  0  0  0
   62.3687   -8.9102   -7.2476 C   0  0  0  0  0  0  0  0  0  0  0  0
   63.9220   -9.9336   -8.2166 H   0  0  0  0  0  0  0  0  0  0  0  0
   64.4439   -8.9278   -6.9057 H   0  0  0  0  0  0  0  0  0  0  0  0
   62.0956   -9.1501   -5.7799 C   0  0  0  0  0  0  0  0  0  0  0  0
   61.4246  -10.3960   -5.4505 C   0  0  0  0  0  0  0  0  0  0  0  0
   61.1526  -11.3225   -6.4317 C   0  0  0  0  0  0  0  0  0  0  0  0
   60.5222  -12.5272   -6.1670 C   0  0  0  0  0  0  0  0  0  0  0  0
   60.1437  -12.8330   -4.8819 C   0  0  0  0  0  0  0  0  0  0  0  0
   60.4090  -11.9164   -3.8902 C   0  0  0  0  0  0  0  0  0  0  0  0
   61.0393  -10.7158   -4.1656 C   0  0  0  0  0  0  0  0  0  0  0  0
   56.6583   -4.6569   -8.8634 C   0  0  0  0  0  0  0  0  0  0  0  0
   57.1902   -4.2280   -9.9483 O   0  0  0  0  0  0  0  0  0  0  0  0
   55.3033   -4.1703   -8.6158 C   0  0  0  0  0  0  0  0  0  0  0  0
   54.3213   -4.6633   -7.8917 N   0  0  0  0  0  0  0  0  0  0  0  0
   53.1762   -4.0587   -7.8074 C   0  0  0  0  0  0  0  0  0  0  0  0
   52.0620   -4.4962   -7.0642 C   0  0  0  0  0  0  0  0  0  0  0  0
   50.9080   -3.7852   -7.0449 C   0  0  0  0  0  0  0  0  0  0  0  0
   50.7494   -2.6099   -7.7368 C   0  0  0  0  0  0  0  0  0  0  0  0
   51.8219   -2.1624   -8.4692 C   0  0  0  0  0  0  0  0  0  0  0  0
   53.0247   -2.8881   -8.4993 C   0  0  0  0  0  0  0  0  0  0  0  0
   54.5569   -2.7293   -9.2357 S   0  0  0  0  0  0  0  0  0  0  0  0
   57.0042   -5.3658   -6.5652 C   0  0  0  0  0  0  0  0  0  0  0  0
   56.4897   -6.5669   -5.8430 C   0  0  0  0  0  0  0  0  0  0  0  0
   57.1459   -6.9808   -4.5912 C   0  0  0  0  0  0  0  0  0  0  0  0
   56.1358   -6.8540   -3.5235 N   0  0  0  0  0  0  0  0  0  0  0  0
   55.7801   -5.9335   -3.2611 H   0  0  0  0  0  0  0  0  0  0  0  0
   55.6838   -8.0440   -2.8817 C   0  0  0  0  0  0  0  0  0  0  0  0
   56.2281   -8.3937   -1.6238 N   0  0  0  0  0  0  0  0  0  0  0  0
   54.7981   -8.8174   -3.3988 N   0  0  0  0  0  0  0  0  0  0  0  0
   56.4394   -7.6580   -0.9084 H   0  0  0  0  0  0  0  0  0  0  0  0
   56.4240   -9.3822   -1.3954 H   0  0  0  0  0  0  0  0  0  0  0  0
   54.4059   -8.5427   -4.3306 H   0  0  0  0  0  0  0  0  0  0  0  0
 13 14  1  0  0  0
 14 17  1  0  0  0
 17 18  1  0  0  0
 18 19  2  0  0  0
 19 20  1  0  0  0
 20 21  2  0  0  0
 21 22  1  0  0  0
 22 23  2  0  0  0
 14  6  1  0  0  0
  6  7  2  0  0  0
  6  8  1  0  0  0
  8  9  1  0  0  0
  9 10  1  0  0  0
 10 11  1  0  0  0
 11 12  1  0  0  0
 12  2  1  0  0  0
  2  3  2  0  0  0
  2  4  1  0  0  0
  4  1  1  0  0  0
  1 35  1  0  0  0
 35 36  1  0  0  0
 36 37  1  0  0  0
 37 38  1  0  0  0
 38 40  1  0  0  0
 40 41  1  0  0  0
 40 42  2  0  0  0
  1 24  1  0  0  0
 24 25  2  0  0  0
 24 26  1  0  0  0
 26 27  2  0  0  0
 27 28  1  0  0  0
 28 29  2  0  0  0
 29 30  1  0  0  0
 30 31  2  0  0  0
 31 32  1  0  0  0
 32 33  2  0  0  0
 33 34  1  0  0  0
 23 18  1  0  0  0
 12  8  1  0  0  0
 34 26  1  0  0  0
 33 28  1  0  0  0
 13 15  1  0  0  0
 13 16  1  0  0  0
  4  5  1  0  0  0
 38 39  1  0  0  0
 41 43  1  0  0  0
 41 44  1  0  0  0
 42 45  1  0  0  0
M  END
> <minimizedAffinity>
-6.38005

> <CNNscore>
0.3146034479

> <CNNaffinity>
6.6921949387

> <CNN_VS>
2.1053876877

> <CNNaffinity_variance>
0.1199572533

$$$$
[H]N=C(N([H])[H])N([H])C([H])([H])C([H])([H])C([H])([H])[C@@]([H])(C(=O)c1nc2c([H])c([H])c([H])c([H])c2s1)N([H])C(=O)[C@@]1([H])N(C(=O)[C@@]([H])(N([H])[H])C([H])([H])c2c([H])c([H])c([H])c([H])c2[H])C([H])([H])C([H])([H])C1([H])[H]


 45 48  0  0  0  0  0  0  0  0999 V2000
   55.5319   -6.0273   -6.0495 C   0  0  0  0  0  0  0  0  0  0  0  0
   56.7533   -6.5356   -3.8817 C   0  0  0  0  0  0  0  0  0  0  0  0
   57.6162   -7.2111   -4.5400 O   0  0  0  0  0  0  0  0  0  0  0  0
   55.7205   -5.9279   -4.6233 N   0  0  0  0  0  0  0  0  0  0  0  0
   55.0350   -5.3514   -4.0571 H   0  0  0  0  0  0  0  0  0  0  0  0
   54.5909   -5.8178   -1.7715 C   0  0  0  0  0  0  0  0  0  0  0  0
   54.7665   -4.7353   -2.4433 O   0  0  0  0  0  0  0  0  0  0  0  0
   55.6705   -6.7151   -1.6987 N   0  0  0  0  0  0  0  0  0  0  0  0
   55.8827   -7.9731   -1.0294 C   0  0  0  0  0  0  0  0  0  0  0  0
   57.3524   -7.8334   -0.5726 C   0  0  0  0  0  0  0  0  0  0  0  0
   57.9428   -7.4407   -1.9448 C   0  0  0  0  0  0  0  0  0  0  0  0
   56.9373   -6.4794   -2.4302 C   0  0  0  0  0  0  0  0  0  0  0  0
   52.7384   -4.8179   -0.5939 N   0  0  0  0  0  0  0  0  0  0  0  0
   53.2966   -5.9913   -1.1645 C   0  0  0  0  0  0  0  0  0  0  0  0
   52.6107   -4.8327    0.4437 H   0  0  0  0  0  0  0  0  0  0  0  0
   51.9852   -4.3484   -1.0979 H   0  0  0  0  0  0  0  0  0  0  0  0
   52.3197   -6.7737   -2.0130 C   0  0  0  0  0  0  0  0  0  0  0  0
   51.6236   -7.8611   -1.3467 C   0  0  0  0  0  0  0  0  0  0  0  0
   52.1687   -9.1249   -1.3183 C   0  0  0  0  0  0  0  0  0  0  0  0
   51.5479  -10.1919   -0.6900 C   0  0  0  0  0  0  0  0  0  0  0  0
   50.3393  -10.0071   -0.0627 C   0  0  0  0  0  0  0  0  0  0  0  0
   49.7819   -8.7490   -0.0827 C   0  0  0  0  0  0  0  0  0  0  0  0
   50.4106   -7.6899   -0.7134 C   0  0  0  0  0  0  0  0  0  0  0  0
   56.0619   -4.7954   -6.6784 C   0  0  0  0  0  0  0  0  0  0  0  0
   56.1856   -3.7160   -5.9976 O   0  0  0  0  0  0  0  0  0  0  0  0
   56.4829   -4.6873   -8.0730 C   0  0  0  0  0  0  0  0  0  0  0  0
   55.8433   -4.2688   -9.1442 N   0  0  0  0  0  0  0  0  0  0  0  0
   56.4152   -4.2555  -10.3090 C   0  0  0  0  0  0  0  0  0  0  0  0
   55.8256   -3.8296  -11.5157 C   0  0  0  0  0  0  0  0  0  0  0  0
   56.5155   -3.8572  -12.6822 C   0  0  0  0  0  0  0  0  0  0  0  0
   57.8143   -4.2947  -12.7655 C   0  0  0  0  0  0  0  0  0  0  0  0
   58.4113   -4.7154  -11.6020 C   0  0  0  0  0  0  0  0  0  0  0  0
   57.7094   -4.6929  -10.3851 C   0  0  0  0  0  0  0  0  0  0  0  0
   58.0254   -5.1001   -8.7574 S   0  0  0  0  0  0  0  0  0  0  0  0
   54.1643   -6.3052   -6.5266 C   0  0  0  0  0  0  0  0  0  0  0  0
   53.0757   -5.4897   -5.9110 C   0  0  0  0  0  0  0  0  0  0  0  0
   52.1167   -4.8010   -6.7913 C   0  0  0  0  0  0  0  0  0  0  0  0
   52.8778   -4.3455   -7.9701 N   0  0  0  0  0  0  0  0  0  0  0  0
   53.6450   -4.9119   -8.3351 H   0  0  0  0  0  0  0  0  0  0  0  0
   52.5094   -3.1056   -8.5694 C   0  0  0  0  0  0  0  0  0  0  0  0
   51.2756   -2.5121   -8.2137 N   0  0  0  0  0  0  0  0  0  0  0  0
   53.2533   -2.4998   -9.4235 N   0  0  0  0  0  0  0  0  0  0  0  0
   50.9274   -2.5512   -7.2263 H   0  0  0  0  0  0  0  0  0  0  0  0
   50.7019   -2.0314   -8.9262 H   0  0  0  0  0  0  0  0  0  0  0  0
   54.1634   -2.9538   -9.6749 H   0  0  0  0  0  0  0  0  0  0  0  0
 13 14  1  0  0  0
 14 17  1  0  0  0
 17 18  1  0  0  0
 18 19  2  0  0  0
 19 20  1  0  0  0
 20 21  2  0  0  0
 21 22  1  0  0  0
 22 23  2  0  0  0
 14  6  1  0  0  0
  6  7  2  0  0  0
  6  8  1  0  0  0
  8  9  1  0  0  0
  9 10  1  0  0  0
 10 11  1  0  0  0
 11 12  1  0  0  0
 12  2  1  0  0  0
  2  3  2  0  0  0
  2  4  1  0  0  0
  4  1  1  0  0  0
  1 35  1  0  0  0
 35 36  1  0  0  0
 36 37  1  0  0  0
 37 38  1  0  0  0
 38 40  1  0  0  0
 40 41  1  0  0  0
 40 42  2  0  0  0
  1 24  1  0  0  0
 24 25  2  0  0  0
 24 26  1  0  0  0
 26 27  2  0  0  0
 27 28  1  0  0  0
 28 29  2  0  0  0
 29 30  1  0  0  0
 30 31  2  0  0  0
 31 32  1  0  0  0
 32 33  2  0  0  0
 33 34  1  0  0  0
 23 18  1  0  0  0
 12  8  1  0  0  0
 34 26  1  0  0  0
 33 28  1  0  0  0
 13 15  1  0  0  0
 13 16  1  0  0  0
  4  5  1  0  0  0
 38 39  1  0  0  0
 41 43  1  0  0  0
 41 44  1  0  0  0
 42 45  1  0  0  0
M  END
> <minimizedAffinity>
-8.54823

> <CNNscore>
0.3010931909

> <CNNaffinity>
6.8528785706

> <CNN_VS>
2.0633549690

> <CNNaffinity_variance>
0.3937687278

$$$$
[H]N=C(N([H])[H])N([H])C([H])([H])C([H])([H])C([H])([H])[C@@]([H])(C(=O)c1nc2c([H])c([H])c([H])c([H])c2s1)N([H])C(=O)[C@@]1([H])N(C(=O)[C@@]([H])(N([H])[H])C([H])([H])c2c([H])c([H])c([H])c([H])c2[H])C([H])([H])C([H])([H])C1([H])[H]


 45 48  0  0  0  0  0  0  0  0999 V2000
   57.3028   -5.6378   -7.9343 C   0  0  0  0  0  0  0  0  0  0  0  0
   59.4364   -6.2045   -9.1897 C   0  0  0  0  0  0  0  0  0  0  0  0
   58.7607   -6.9501   -9.9780 O   0  0  0  0  0  0  0  0  0  0  0  0
   58.7201   -5.5330   -8.1788 N   0  0  0  0  0  0  0  0  0  0  0  0
   59.2995   -4.9003   -7.5568 H   0  0  0  0  0  0  0  0  0  0  0  0
   61.6286   -7.8023   -7.6778 C   0  0  0  0  0  0  0  0  0  0  0  0
   61.1289   -7.0129   -6.7939 O   0  0  0  0  0  0  0  0  0  0  0  0
   61.5658   -7.3910   -9.0204 N   0  0  0  0  0  0  0  0  0  0  0  0
   62.0368   -7.9507  -10.2616 C   0  0  0  0  0  0  0  0  0  0  0  0
   62.5112   -6.6840  -11.0088 C   0  0  0  0  0  0  0  0  0  0  0  0
   61.2151   -5.8621  -10.8343 C   0  0  0  0  0  0  0  0  0  0  0  0
   60.8800   -6.1421   -9.4272 C   0  0  0  0  0  0  0  0  0  0  0  0
   61.6109  -10.2142   -7.7025 N   0  0  0  0  0  0  0  0  0  0  0  0
   62.2007   -9.0300   -7.1888 C   0  0  0  0  0  0  0  0  0  0  0  0
   61.1169  -10.8163   -7.0050 H   0  0  0  0  0  0  0  0  0  0  0  0
   62.1224  -10.7377   -8.4140 H   0  0  0  0  0  0  0  0  0  0  0  0
   63.7125   -9.0526   -7.2042 C   0  0  0  0  0  0  0  0  0  0  0  0
   64.3745   -8.0003   -6.4523 C   0  0  0  0  0  0  0  0  0  0  0  0
   65.1038   -7.0308   -7.1029 C   0  0  0  0  0  0  0  0  0  0  0  0
   65.7464   -6.0036   -6.4317 C   0  0  0  0  0  0  0  0  0  0  0  0
   65.6678   -5.9273   -5.0619 C   0  0  0  0  0  0  0  0  0  0  0  0
   64.9423   -6.8896   -4.3976 C   0  0  0  0  0  0  0  0  0  0  0  0
   64.3040   -7.9117   -5.0779 C   0  0  0  0  0  0  0  0  0  0  0  0
   56.6046   -4.6650   -8.8062 C   0  0  0  0  0  0  0  0  0  0  0  0
   57.1758   -4.2024   -9.8567 O   0  0  0  0  0  0  0  0  0  0  0  0
   55.2547   -4.1576   -8.5737 C   0  0  0  0  0  0  0  0  0  0  0  0
   54.2509   -4.6449   -7.8759 N   0  0  0  0  0  0  0  0  0  0  0  0
   53.1158   -4.0206   -7.8008 C   0  0  0  0  0  0  0  0  0  0  0  0
   51.9806   -4.4502   -7.0853 C   0  0  0  0  0  0  0  0  0  0  0  0
   50.8398   -3.7183   -7.0734 C   0  0  0  0  0  0  0  0  0  0  0  0
   50.7152   -2.5281   -7.7466 C   0  0  0  0  0  0  0  0  0  0  0  0
   51.8087   -2.0878   -8.4519 C   0  0  0  0  0  0  0  0  0  0  0  0
   52.9983   -2.8352   -8.4740 C   0  0  0  0  0  0  0  0  0  0  0  0
   54.5460   -2.6921   -9.1804 S   0  0  0  0  0  0  0  0  0  0  0  0
   56.8518   -5.4979   -6.5371 C   0  0  0  0  0  0  0  0  0  0  0  0
   56.9836   -6.7131   -5.6797 C   0  0  0  0  0  0  0  0  0  0  0  0
   56.9499   -6.5590   -4.2155 C   0  0  0  0  0  0  0  0  0  0  0  0
   55.6375   -5.9731   -3.8829 N   0  0  0  0  0  0  0  0  0  0  0  0
   54.7836   -6.3726   -4.2751 H   0  0  0  0  0  0  0  0  0  0  0  0
   55.6067   -4.8467   -3.0095 C   0  0  0  0  0  0  0  0  0  0  0  0
   54.5937   -4.7700   -2.0253 N   0  0  0  0  0  0  0  0  0  0  0  0
   56.4641   -3.8926   -3.0774 N   0  0  0  0  0  0  0  0  0  0  0  0
   54.2759   -5.6285   -1.5156 H   0  0  0  0  0  0  0  0  0  0  0  0
   54.1541   -3.8631   -1.7970 H   0  0  0  0  0  0  0  0  0  0  0  0
   57.2073   -3.9663   -3.8121 H   0  0  0  0  0  0  0  0  0  0  0  0
 13 14  1  0  0  0
 14 17  1  0  0  0
 17 18  1  0  0  0
 18 19  2  0  0  0
 19 20  1  0  0  0
 20 21  2  0  0  0
 21 22  1  0  0  0
 22 23  2  0  0  0
 14  6  1  0  0  0
  6  7  2  0  0  0
  6  8  1  0  0  0
  8  9  1  0  0  0
  9 10  1  0  0  0
 10 11  1  0  0  0
 11 12  1  0  0  0
 12  2  1  0  0  0
  2  3  2  0  0  0
  2  4  1  0  0  0
  4  1  1  0  0  0
  1 35  1  0  0  0
 35 36  1  0  0  0
 36 37  1  0  0  0
 37 38  1  0  0  0
 38 40  1  0  0  0
 40 41  1  0  0  0
 40 42  2  0  0  0
  1 24  1  0  0  0
 24 25  2  0  0  0
 24 26  1  0  0  0
 26 27  2  0  0  0
 27 28  1  0  0  0
 28 29  2  0  0  0
 29 30  1  0  0  0
 30 31  2  0  0  0
 31 32  1  0  0  0
 32 33  2  0  0  0
 33 34  1  0  0  0
 23 18  1  0  0  0
 12  8  1  0  0  0
 34 26  1  0  0  0
 33 28  1  0  0  0
 13 15  1  0  0  0
 13 16  1  0  0  0
  4  5  1  0  0  0
 38 39  1  0  0  0
 41 43  1  0  0  0
 41 44  1  0  0  0
 42 45  1  0  0  0
M  END
> <minimizedAffinity>
-6.10830

> <CNNscore>
0.2589131296

> <CNNaffinity>
6.3669710159

> <CNN_VS>
1.6484923363

> <CNNaffinity_variance>
0.1438218951

$$$$
[H]N=C(N([H])[H])N([H])C([H])([H])C([H])([H])C([H])([H])[C@@]([H])(C(=O)c1nc2c([H])c([H])c([H])c([H])c2s1)N([H])C(=O)[C@@]1([H])N(C(=O)[C@@]([H])(N([H])[H])C([H])([H])c2c([H])c([H])c([H])c([H])c2[H])C([H])([H])C([H])([H])C1([H])[H]


 45 48  0  0  0  0  0  0  0  0999 V2000
   56.1789   -4.2433   -7.9193 C   0  0  0  0  0  0  0  0  0  0  0  0
   56.0186   -4.9395   -5.4823 C   0  0  0  0  0  0  0  0  0  0  0  0
   56.4983   -6.0838   -5.7897 O   0  0  0  0  0  0  0  0  0  0  0  0
   55.8702   -4.0091   -6.5303 N   0  0  0  0  0  0  0  0  0  0  0  0
   55.4967   -3.0597   -6.2439 H   0  0  0  0  0  0  0  0  0  0  0  0
   54.3477   -6.8490   -3.6915 C   0  0  0  0  0  0  0  0  0  0  0  0
   53.5218   -6.4276   -4.5827 O   0  0  0  0  0  0  0  0  0  0  0  0
   55.4303   -6.0129   -3.3675 N   0  0  0  0  0  0  0  0  0  0  0  0
   56.5131   -6.0992   -2.4211 C   0  0  0  0  0  0  0  0  0  0  0  0
   56.6185   -4.6342   -1.9411 C   0  0  0  0  0  0  0  0  0  0  0  0
   56.7028   -3.9805   -3.3380 C   0  0  0  0  0  0  0  0  0  0  0  0
   55.6726   -4.7334   -4.0745 C   0  0  0  0  0  0  0  0  0  0  0  0
   54.9182   -9.1891   -3.5633 N   0  0  0  0  0  0  0  0  0  0  0  0
   54.0691   -8.1415   -3.1211 C   0  0  0  0  0  0  0  0  0  0  0  0
   54.4555   -9.9489   -4.1127 H   0  0  0  0  0  0  0  0  0  0  0  0
   55.6456   -9.5203   -2.9284 H   0  0  0  0  0  0  0  0  0  0  0  0
   53.8652   -8.1212   -1.6230 C   0  0  0  0  0  0  0  0  0  0  0  0
   52.5236   -8.4278   -1.1570 C   0  0  0  0  0  0  0  0  0  0  0  0
   51.5247   -7.4839   -1.2363 C   0  0  0  0  0  0  0  0  0  0  0  0
   50.2292   -7.7303   -0.8125 C   0  0  0  0  0  0  0  0  0  0  0  0
   49.9030   -8.9581   -0.2886 C   0  0  0  0  0  0  0  0  0  0  0  0
   50.8912   -9.9120   -0.2030 C   0  0  0  0  0  0  0  0  0  0  0  0
   52.1824   -9.6553   -0.6293 C   0  0  0  0  0  0  0  0  0  0  0  0
   54.9247   -4.1413   -8.7007 C   0  0  0  0  0  0  0  0  0  0  0  0
   54.9289   -4.3270   -9.9694 O   0  0  0  0  0  0  0  0  0  0  0  0
   53.6131   -3.8368   -8.1343 C   0  0  0  0  0  0  0  0  0  0  0  0
   52.9201   -4.4233   -7.1816 N   0  0  0  0  0  0  0  0  0  0  0  0
   51.7526   -3.9814   -6.8272 C   0  0  0  0  0  0  0  0  0  0  0  0
   50.9292   -4.5305   -5.8244 C   0  0  0  0  0  0  0  0  0  0  0  0
   49.7217   -3.9880   -5.5325 C   0  0  0  0  0  0  0  0  0  0  0  0
   49.2273   -2.8849   -6.1836 C   0  0  0  0  0  0  0  0  0  0  0  0
   50.0119   -2.3311   -7.1659 C   0  0  0  0  0  0  0  0  0  0  0  0
   51.2658   -2.8818   -7.4800 C   0  0  0  0  0  0  0  0  0  0  0  0
   52.5330   -2.5494   -8.5748 S   0  0  0  0  0  0  0  0  0  0  0  0
   56.8924   -5.4922   -8.2458 C   0  0  0  0  0  0  0  0  0  0  0  0
   58.3583   -5.3640   -8.4984 C   0  0  0  0  0  0  0  0  0  0  0  0
   58.8583   -5.5017   -9.8768 C   0  0  0  0  0  0  0  0  0  0  0  0
   57.7334   -5.1637  -10.7695 N   0  0  0  0  0  0  0  0  0  0  0  0
   56.8318   -5.6294  -10.6566 H   0  0  0  0  0  0  0  0  0  0  0  0
   57.9491   -4.1805  -11.7789 C   0  0  0  0  0  0  0  0  0  0  0  0
   57.1242   -3.0316  -11.8043 N   0  0  0  0  0  0  0  0  0  0  0  0
   58.8656   -4.2926  -12.6720 N   0  0  0  0  0  0  0  0  0  0  0  0
   56.8194   -2.5713  -10.9138 H   0  0  0  0  0  0  0  0  0  0  0  0
   56.8118   -2.6320  -12.7045 H   0  0  0  0  0  0  0  0  0  0  0  0
   59.4671   -5.1496  -12.6377 H   0  0  0  0  0  0  0  0  0  0  0  0
 13 14  1  0  0  0
 14 17  1  0  0  0
 17 18  1  0  0  0
 18 19  2  0  0  0
 19 20  1  0  0  0
 20 21  2  0  0  0
 21 22  1  0  0  0
 22 23  2  0  0  0
 14  6  1  0  0  0
  6  7  2  0  0  0
  6  8  1  0  0  0
  8  9  1  0  0  0
  9 10  1  0  0  0
 10 11  1  0  0  0
 11 12  1  0  0  0
 12  2  1  0  0  0
  2  3  2  0  0  0
  2  4  1  0  0  0
  4  1  1  0  0  0
  1 35  1  0  0  0
 35 36  1  0  0  0
 36 37  1  0  0  0
 37 38  1  0  0  0
 38 40  1  0  0  0
 40 41  1  0  0  0
 40 42  2  0  0  0
  1 24  1  0  0  0
 24 25  2  0  0  0
 24 26  1  0  0  0
 26 27  2  0  0  0
 27 28  1  0  0  0
 28 29  2  0  0  0
 29 30  1  0  0  0
 30 31  2  0  0  0
 31 32  1  0  0  0
 32 33  2  0  0  0
 33 34  1  0  0  0
 23 18  1  0  0  0
 12  8  1  0  0  0
 34 26  1  0  0  0
 33 28  1  0  0  0
 13 15  1  0  0  0
 13 16  1  0  0  0
  4  5  1  0  0  0
 38 39  1  0  0  0
 41 43  1  0  0  0
 41 44  1  0  0  0
 42 45  1  0  0  0
M  END
> <minimizedAffinity>
-9.12289

> <CNNscore>
0.2519394159

> <CNNaffinity>
7.2925796509

> <CNN_VS>
1.8372882605

> <CNNaffinity_variance>
0.0374643914

$$$$
[H]N=C(N([H])[H])N([H])C([H])([H])C([H])([H])C([H])([H])[C@@]([H])(C(=O)c1nc2c([H])c([H])c([H])c([H])c2s1)N([H])C(=O)[C@@]1([H])N(C(=O)[C@@]([H])(N([H])[H])C([H])([H])c2c([H])c([H])c([H])c([H])c2[H])C([H])([H])C([H])([H])C1([H])[H]


 45 48  0  0  0  0  0  0  0  0999 V2000
   54.1613   -4.9200   -8.0708 C   0  0  0  0  0  0  0  0  0  0  0  0
   55.8949   -4.3726   -9.8440 C   0  0  0  0  0  0  0  0  0  0  0  0
   55.1677   -4.9561  -10.7185 O   0  0  0  0  0  0  0  0  0  0  0  0
   55.3975   -4.3334   -8.5261 N   0  0  0  0  0  0  0  0  0  0  0  0
   56.0063   -3.8200   -7.8271 H   0  0  0  0  0  0  0  0  0  0  0  0
   58.7382   -5.3707   -9.0931 C   0  0  0  0  0  0  0  0  0  0  0  0
   58.2510   -4.9103   -7.9954 O   0  0  0  0  0  0  0  0  0  0  0  0
   58.2537   -4.8242  -10.2941 N   0  0  0  0  0  0  0  0  0  0  0  0
   58.5666   -5.0302  -11.6852 C   0  0  0  0  0  0  0  0  0  0  0  0
   58.4746   -3.5897  -12.2369 C   0  0  0  0  0  0  0  0  0  0  0  0
   57.0741   -3.2588  -11.6756 C   0  0  0  0  0  0  0  0  0  0  0  0
   57.1656   -3.8187  -10.3160 C   0  0  0  0  0  0  0  0  0  0  0  0
   59.6063   -7.4756   -9.8893 N   0  0  0  0  0  0  0  0  0  0  0  0
   59.7334   -6.4040   -8.9677 C   0  0  0  0  0  0  0  0  0  0  0  0
   59.3859   -8.4095   -9.4740 H   0  0  0  0  0  0  0  0  0  0  0  0
   60.2557   -7.5142  -10.6759 H   0  0  0  0  0  0  0  0  0  0  0  0
   61.1471   -5.8833   -8.8382 C   0  0  0  0  0  0  0  0  0  0  0  0
   62.1458   -6.8474   -8.4092 C   0  0  0  0  0  0  0  0  0  0  0  0
   62.0571   -7.4392   -7.1694 C   0  0  0  0  0  0  0  0  0  0  0  0
   62.9794   -8.3689   -6.7181 C   0  0  0  0  0  0  0  0  0  0  0  0
   64.0337   -8.7316   -7.5213 C   0  0  0  0  0  0  0  0  0  0  0  0
   64.1357   -8.1484   -8.7636 C   0  0  0  0  0  0  0  0  0  0  0  0
   63.2087   -7.2206   -9.2047 C   0  0  0  0  0  0  0  0  0  0  0  0
   53.0942   -3.8976   -8.1697 C   0  0  0  0  0  0  0  0  0  0  0  0
   53.1114   -3.0244   -9.1084 O   0  0  0  0  0  0  0  0  0  0  0  0
   51.9618   -3.7845   -7.2538 C   0  0  0  0  0  0  0  0  0  0  0  0
   51.6124   -4.5059   -6.2101 N   0  0  0  0  0  0  0  0  0  0  0  0
   50.5475   -4.2267   -5.5232 C   0  0  0  0  0  0  0  0  0  0  0  0
   50.0832   -4.9294   -4.3937 C   0  0  0  0  0  0  0  0  0  0  0  0
   48.9533   -4.5514   -3.7473 C   0  0  0  0  0  0  0  0  0  0  0  0
   48.1971   -3.4758   -4.1428 C   0  0  0  0  0  0  0  0  0  0  0  0
   48.6293   -2.7743   -5.2420 C   0  0  0  0  0  0  0  0  0  0  0  0
   49.7984   -3.1537   -5.9227 C   0  0  0  0  0  0  0  0  0  0  0  0
   50.6838   -2.6080   -7.2767 S   0  0  0  0  0  0  0  0  0  0  0  0
   54.1657   -5.5361   -6.7308 C   0  0  0  0  0  0  0  0  0  0  0  0
   55.3733   -6.3422   -6.3827 C   0  0  0  0  0  0  0  0  0  0  0  0
   56.0756   -6.0636   -5.1186 C   0  0  0  0  0  0  0  0  0  0  0  0
   55.0409   -5.6982   -4.1326 N   0  0  0  0  0  0  0  0  0  0  0  0
   54.0978   -6.0811   -4.2136 H   0  0  0  0  0  0  0  0  0  0  0  0
   55.4005   -4.8050   -3.0813 C   0  0  0  0  0  0  0  0  0  0  0  0
   54.7067   -4.8797   -1.8509 N   0  0  0  0  0  0  0  0  0  0  0  0
   56.3329   -3.9299   -3.2031 N   0  0  0  0  0  0  0  0  0  0  0  0
   54.4198   -5.8056   -1.4531 H   0  0  0  0  0  0  0  0  0  0  0  0
   54.4742   -4.0190   -1.3286 H   0  0  0  0  0  0  0  0  0  0  0  0
   56.8361   -3.8890   -4.1211 H   0  0  0  0  0  0  0  0  0  0  0  0
 13 14  1  0  0  0
 14 17  1  0  0  0
 17 18  1  0  0  0
 18 19  2  0  0  0
 19 20  1  0  0  0
 20 21  2  0  0  0
 21 22  1  0  0  0
 22 23  2  0  0  0
 14  6  1  0  0  0
  6  7  2  0  0  0
  6  8  1  0  0  0
  8  9  1  0  0  0
  9 10  1  0  0  0
 10 11  1  0  0  0
 11 12  1  0  0  0
 12  2  1  0  0  0
  2  3  2  0  0  0
  2  4  1  0  0  0
  4  1  1  0  0  0
  1 35  1  0  0  0
 35 36  1  0  0  0
 36 37  1  0  0  0
 37 38  1  0  0  0
 38 40  1  0  0  0
 40 41  1  0  0  0
 40 42  2  0  0  0
  1 24  1  0  0  0
 24 25  2  0  0  0
 24 26  1  0  0  0
 26 27  2  0  0  0
 27 28  1  0  0  0
 28 29  2  0  0  0
 29 30  1  0  0  0
 30 31  2  0  0  0
 31 32  1  0  0  0
 32 33  2  0  0  0
 33 34  1  0  0  0
 23 18  1  0  0  0
 12  8  1  0  0  0
 34 26  1  0  0  0
 33 28  1  0  0  0
 13 15  1  0  0  0
 13 16  1  0  0  0
  4  5  1  0  0  0
 38 39  1  0  0  0
 41 43  1  0  0  0
 41 44  1  0  0  0
 42 45  1  0  0  0
M  END
> <minimizedAffinity>
-7.64719

> <CNNscore>
0.2102190107

> <CNNaffinity>
7.0216550827

> <CNN_VS>
1.4760854244

> <CNNaffinity_variance>
0.0624704249

$$$$
[H]N=C(N([H])[H])N([H])C([H])([H])C([H])([H])C([H])([H])[C@@]([H])(C(=O)c1nc2c([H])c([H])c([H])c([H])c2s1)N([H])C(=O)[C@@]1([H])N(C(=O)[C@@]([H])(N([H])[H])C([H])([H])c2c([H])c([H])c([H])c([H])c2[H])C([H])([H])C([H])([H])C1([H])[H]


 45 48  0  0  0  0  0  0  0  0999 V2000
   57.2604   -4.7381   -9.3448 C   0  0  0  0  0  0  0  0  0  0  0  0
   56.2615   -4.6246   -7.0127 C   0  0  0  0  0  0  0  0  0  0  0  0
   56.7023   -3.4306   -6.8947 O   0  0  0  0  0  0  0  0  0  0  0  0
   56.5184   -5.2801   -8.2335 N   0  0  0  0  0  0  0  0  0  0  0  0
   56.1184   -6.2580   -8.3157 H   0  0  0  0  0  0  0  0  0  0  0  0
   53.2301   -5.2822   -6.8605 C   0  0  0  0  0  0  0  0  0  0  0  0
   53.2832   -4.0031   -6.9837 O   0  0  0  0  0  0  0  0  0  0  0  0
   54.3304   -5.9194   -6.2611 N   0  0  0  0  0  0  0  0  0  0  0  0
   54.6276   -7.2852   -5.9118 C   0  0  0  0  0  0  0  0  0  0  0  0
   55.3537   -7.1049   -4.5597 C   0  0  0  0  0  0  0  0  0  0  0  0
   56.3864   -6.0593   -5.0348 C   0  0  0  0  0  0  0  0  0  0  0  0
   55.5459   -5.1735   -5.8591 C   0  0  0  0  0  0  0  0  0  0  0  0
   52.2661   -7.0604   -8.1747 N   0  0  0  0  0  0  0  0  0  0  0  0
   52.0397   -5.9239   -7.3554 C   0  0  0  0  0  0  0  0  0  0  0  0
   51.9622   -6.9711   -9.1710 H   0  0  0  0  0  0  0  0  0  0  0  0
   52.1035   -7.9844   -7.7725 H   0  0  0  0  0  0  0  0  0  0  0  0
   50.9755   -6.1402   -6.3034 C   0  0  0  0  0  0  0  0  0  0  0  0
   50.2529   -4.9555   -5.8731 C   0  0  0  0  0  0  0  0  0  0  0  0
   49.8542   -4.8189   -4.5625 C   0  0  0  0  0  0  0  0  0  0  0  0
   49.1701   -3.7059   -4.1023 C   0  0  0  0  0  0  0  0  0  0  0  0
   48.8655   -2.6837   -4.9687 C   0  0  0  0  0  0  0  0  0  0  0  0
   49.2576   -2.8060   -6.2822 C   0  0  0  0  0  0  0  0  0  0  0  0
   49.9408   -3.9223   -6.7316 C   0  0  0  0  0  0  0  0  0  0  0  0
   56.3055   -4.4056  -10.4272 C   0  0  0  0  0  0  0  0  0  0  0  0
   55.0534   -4.2845  -10.1788 O   0  0  0  0  0  0  0  0  0  0  0  0
   56.6730   -4.1875  -11.8240 C   0  0  0  0  0  0  0  0  0  0  0  0
   56.0199   -4.4235  -12.9419 N   0  0  0  0  0  0  0  0  0  0  0  0
   56.5410   -4.1492  -14.0982 C   0  0  0  0  0  0  0  0  0  0  0  0
   55.9324   -4.3601  -15.3513 C   0  0  0  0  0  0  0  0  0  0  0  0
   56.5682   -4.0364  -16.5039 C   0  0  0  0  0  0  0  0  0  0  0  0
   57.8276   -3.4900  -16.5279 C   0  0  0  0  0  0  0  0  0  0  0  0
   58.4422   -3.2748  -15.3184 C   0  0  0  0  0  0  0  0  0  0  0  0
   57.7962   -3.6050  -14.1151 C   0  0  0  0  0  0  0  0  0  0  0  0
   58.1514   -3.5212  -12.4472 S   0  0  0  0  0  0  0  0  0  0  0  0
   58.3734   -5.5523   -9.8681 C   0  0  0  0  0  0  0  0  0  0  0  0
   59.4503   -5.8963   -8.8929 C   0  0  0  0  0  0  0  0  0  0  0  0
   60.7656   -6.3184   -9.4036 C   0  0  0  0  0  0  0  0  0  0  0  0
   61.1631   -7.5023   -8.6182 N   0  0  0  0  0  0  0  0  0  0  0  0
   61.5209   -7.3908   -7.6685 H   0  0  0  0  0  0  0  0  0  0  0  0
   61.0323   -8.7857   -9.2250 C   0  0  0  0  0  0  0  0  0  0  0  0
   61.0273   -9.9359   -8.4017 N   0  0  0  0  0  0  0  0  0  0  0  0
   60.9178   -8.9444  -10.4945 N   0  0  0  0  0  0  0  0  0  0  0  0
   60.5440   -9.9272   -7.4721 H   0  0  0  0  0  0  0  0  0  0  0  0
   61.5019  -10.8008   -8.7089 H   0  0  0  0  0  0  0  0  0  0  0  0
   60.9231   -8.0815  -11.0887 H   0  0  0  0  0  0  0  0  0  0  0  0
 13 14  1  0  0  0
 14 17  1  0  0  0
 17 18  1  0  0  0
 18 19  2  0  0  0
 19 20  1  0  0  0
 20 21  2  0  0  0
 21 22  1  0  0  0
 22 23  2  0  0  0
 14  6  1  0  0  0
  6  7  2  0  0  0
  6  8  1  0  0  0
  8  9  1  0  0  0
  9 10  1  0  0  0
 10 11  1  0  0  0
 11 12  1  0  0  0
 12  2  1  0  0  0
  2  3  2  0  0  0
  2  4  1  0  0  0
  4  1  1  0  0  0
  1 35  1  0  0  0
 35 36  1  0  0  0
 36 37  1  0  0  0
 37 38  1  0  0  0
 38 40  1  0  0  0
 40 41  1  0  0  0
 40 42  2  0  0  0
  1 24  1  0  0  0
 24 25  2  0  0  0
 24 26  1  0  0  0
 26 27  2  0  0  0
 27 28  1  0  0  0
 28 29  2  0  0  0
 29 30  1  0  0  0
 30 31  2  0  0  0
 31 32  1  0  0  0
 32 33  2  0  0  0
 33 34  1  0  0  0
 23 18  1  0  0  0
 12  8  1  0  0  0
 34 26  1  0  0  0
 33 28  1  0  0  0
 13 15  1  0  0  0
 13 16  1  0  0  0
  4  5  1  0  0  0
 38 39  1  0  0  0
 41 43  1  0  0  0
 41 44  1  0  0  0
 42 45  1  0  0  0
M  END
> <minimizedAffinity>
-9.22427

> <CNNscore>
0.1979955882

> <CNNaffinity>
6.4511146545

> <CNN_VS>
1.2772922516

> <CNNaffinity_variance>
0.7506750226

$$$$
[H]N=C(N([H])[H])N([H])C([H])([H])C([H])([H])C([H])([H])[C@@]([H])(C(=O)c1nc2c([H])c([H])c([H])c([H])c2s1)N([H])C(=O)[C@@]1([H])N(C(=O)[C@@]([H])(N([H])[H])C([H])([H])c2c([H])c([H])c([H])c([H])c2[H])C([H])([H])C([H])([H])C1([H])[H]


 45 48  0  0  0  0  0  0  0  0999 V2000
   55.5638   -4.5692   -7.5075 C   0  0  0  0  0  0  0  0  0  0  0  0
   54.9094   -6.2711   -5.7398 C   0  0  0  0  0  0  0  0  0  0  0  0
   55.0616   -7.2050   -6.5993 O   0  0  0  0  0  0  0  0  0  0  0  0
   55.1723   -4.9567   -6.1748 N   0  0  0  0  0  0  0  0  0  0  0  0
   55.0654   -4.2049   -5.4357 H   0  0  0  0  0  0  0  0  0  0  0  0
   56.5511   -6.0559   -3.1124 C   0  0  0  0  0  0  0  0  0  0  0  0
   57.1860   -6.9163   -3.8270 O   0  0  0  0  0  0  0  0  0  0  0  0
   55.1693   -5.9253   -3.3349 N   0  0  0  0  0  0  0  0  0  0  0  0
   54.1289   -5.1329   -2.7306 C   0  0  0  0  0  0  0  0  0  0  0  0
   52.9506   -6.1326   -2.7170 C   0  0  0  0  0  0  0  0  0  0  0  0
   53.0192   -6.5297   -4.2081 C   0  0  0  0  0  0  0  0  0  0  0  0
   54.4719   -6.6788   -4.4032 C   0  0  0  0  0  0  0  0  0  0  0  0
   57.1606   -3.9078   -2.2000 N   0  0  0  0  0  0  0  0  0  0  0  0
   57.3337   -5.3157   -2.1567 C   0  0  0  0  0  0  0  0  0  0  0  0
   58.0012   -3.3542   -2.4826 H   0  0  0  0  0  0  0  0  0  0  0  0
   56.6015   -3.4684   -1.4676 H   0  0  0  0  0  0  0  0  0  0  0  0
   57.2949   -5.8862   -0.7570 C   0  0  0  0  0  0  0  0  0  0  0  0
   58.0068   -7.1369   -0.5572 C   0  0  0  0  0  0  0  0  0  0  0  0
   57.3192   -8.2905   -0.2546 C   0  0  0  0  0  0  0  0  0  0  0  0
   57.9514   -9.5079   -0.0626 C   0  0  0  0  0  0  0  0  0  0  0  0
   59.3184   -9.5936   -0.1732 C   0  0  0  0  0  0  0  0  0  0  0  0
   60.0195   -8.4486   -0.4754 C   0  0  0  0  0  0  0  0  0  0  0  0
   59.3780   -7.2373   -0.6653 C   0  0  0  0  0  0  0  0  0  0  0  0
   54.3382   -4.3282   -8.3036 C   0  0  0  0  0  0  0  0  0  0  0  0
   54.3511   -4.4619   -9.5787 O   0  0  0  0  0  0  0  0  0  0  0  0
   53.0466   -3.9354   -7.7456 C   0  0  0  0  0  0  0  0  0  0  0  0
   52.3671   -4.3972   -6.7176 N   0  0  0  0  0  0  0  0  0  0  0  0
   51.2167   -3.8946   -6.3889 C   0  0  0  0  0  0  0  0  0  0  0  0
   50.4088   -4.3109   -5.3123 C   0  0  0  0  0  0  0  0  0  0  0  0
   49.2186   -3.7147   -5.0562 C   0  0  0  0  0  0  0  0  0  0  0  0
   48.7279   -2.6817   -5.8160 C   0  0  0  0  0  0  0  0  0  0  0  0
   49.4977   -2.2577   -6.8719 C   0  0  0  0  0  0  0  0  0  0  0  0
   50.7334   -2.8655   -7.1502 C   0  0  0  0  0  0  0  0  0  0  0  0
   51.9789   -2.6838   -8.3038 S   0  0  0  0  0  0  0  0  0  0  0  0
   56.4790   -5.4748   -8.2269 C   0  0  0  0  0  0  0  0  0  0  0  0
   57.6556   -4.8326   -8.8844 C   0  0  0  0  0  0  0  0  0  0  0  0
   57.9850   -5.2004  -10.2719 C   0  0  0  0  0  0  0  0  0  0  0  0
   57.1896   -4.3148  -11.1433 N   0  0  0  0  0  0  0  0  0  0  0  0
   56.3456   -3.8660  -10.7845 H   0  0  0  0  0  0  0  0  0  0  0  0
   57.6351   -4.1136  -12.4825 C   0  0  0  0  0  0  0  0  0  0  0  0
   56.6874   -3.7757  -13.4768 N   0  0  0  0  0  0  0  0  0  0  0  0
   58.8671   -4.2261  -12.8280 N   0  0  0  0  0  0  0  0  0  0  0  0
   55.8929   -3.1275  -13.2614 H   0  0  0  0  0  0  0  0  0  0  0  0
   56.7682   -4.1657  -14.4303 H   0  0  0  0  0  0  0  0  0  0  0  0
   59.5550   -4.4765  -12.0786 H   0  0  0  0  0  0  0  0  0  0  0  0
 13 14  1  0  0  0
 14 17  1  0  0  0
 17 18  1  0  0  0
 18 19  2  0  0  0
 19 20  1  0  0  0
 20 21  2  0  0  0
 21 22  1  0  0  0
 22 23  2  0  0  0
 14  6  1  0  0  0
  6  7  2  0  0  0
  6  8  1  0  0  0
  8  9  1  0  0  0
  9 10  1  0  0  0
 10 11  1  0  0  0
 11 12  1  0  0  0
 12  2  1  0  0  0
  2  3  2  0  0  0
  2  4  1  0  0  0
  4  1  1  0  0  0
  1 35  1  0  0  0
 35 36  1  0  0  0
 36 37  1  0  0  0
 37 38  1  0  0  0
 38 40  1  0  0  0
 40 41  1  0  0  0
 40 42  2  0  0  0
  1 24  1  0  0  0
 24 25  2  0  0  0
 24 26  1  0  0  0
 26 27  2  0  0  0
 27 28  1  0  0  0
 28 29  2  0  0  0
 29 30  1  0  0  0
 30 31  2  0  0  0
 31 32  1  0  0  0
 32 33  2  0  0  0
 33 34  1  0  0  0
 23 18  1  0  0  0
 12  8  1  0  0  0
 34 26  1  0  0  0
 33 28  1  0  0  0
 13 15  1  0  0  0
 13 16  1  0  0  0
  4  5  1  0  0  0
 38 39  1  0  0  0
 41 43  1  0  0  0
 41 44  1  0  0  0
 42 45  1  0  0  0
M  END
> <minimizedAffinity>
-8.37479

> <CNNscore>
0.1978429258

> <CNNaffinity>
7.1114091873

> <CNN_VS>
1.4069420099

> <CNNaffinity_variance>
0.1628382206

$$$$
[H]C1=C(C(=O)[O-])N2C(=O)/C(=C(\[H])c3nn4c(c3[H])C([H])([H])C([H])([H])C([H])([H])C4([H])[H])[C@@]2([H])S1


 21 24  0  0  0  0  0  0  0  0999 V2000
   57.8045   -5.1859   -8.5795 C   0  0  0  0  0  0  0  0  0  0  0  0
   57.3354   -5.4369   -7.3859 C   0  0  0  0  0  0  0  0  0  0  0  0
   55.7236   -4.6674   -7.3078 S   0  0  0  0  0  0  0  0  0  0  0  0
   56.0279   -3.5727   -8.7606 C   0  0  0  0  0  0  0  0  0  0  0  0
   56.9692   -4.4496   -9.4340 N   0  0  0  0  0  0  0  0  0  0  0  0
   56.3851   -3.9585  -10.6640 C   0  0  0  0  0  0  0  0  0  0  0  0
   56.7661   -3.7641  -11.8495 O   0  0  0  0  0  0  0  0  0  0  0  0
   55.1366   -3.7921   -9.8839 C   0  0  0  0  0  0  0  0  0  0  0  0
   53.8522   -3.8481  -10.1959 C   0  0  0  0  0  0  0  0  0  0  0  0
   52.8930   -3.6298   -9.1241 C   0  0  0  0  0  0  0  0  0  0  0  0
   52.6428   -4.5212   -8.0983 C   0  0  0  0  0  0  0  0  0  0  0  0
   51.6755   -3.9696   -7.2840 C   0  0  0  0  0  0  0  0  0  0  0  0
   51.0746   -4.5365   -6.0603 C   0  0  0  0  0  0  0  0  0  0  0  0
   49.8930   -3.7660   -5.5750 C   0  0  0  0  0  0  0  0  0  0  0  0
   49.3273   -2.8205   -6.5940 C   0  0  0  0  0  0  0  0  0  0  0  0
   50.3782   -1.9352   -7.2137 C   0  0  0  0  0  0  0  0  0  0  0  0
   51.3696   -2.7946   -7.8145 N   0  0  0  0  0  0  0  0  0  0  0  0
   52.1014   -2.5918   -8.9194 N   0  0  0  0  0  0  0  0  0  0  0  0
   59.3180   -5.8509  -10.3876 O   0  0  0  0  0  0  0  0  0  0  0  0
   59.1226   -5.6542   -9.0325 C   0  0  0  0  0  0  0  0  0  0  0  0
   60.0854   -5.8875   -8.2653 O   0  0  0  0  0  0  0  0  0  0  0  0
 19 20  1  0  0  0
 20 21  2  0  0  0
 20  1  1  0  0  0
  1  2  2  0  0  0
  2  3  1  0  0  0
  3  4  1  0  0  0
  4  5  1  0  0  0
  5  6  1  0  0  0
  6  7  2  0  0  0
  6  8  1  0  0  0
  8  9  2  0  0  0
  9 10  1  0  0  0
 10 11  1  0  0  0
 11 12  2  0  0  0
 12 13  1  0  0  0
 13 14  1  0  0  0
 14 15  1  0  0  0
 15 16  1  0  0  0
 16 17  1  0  0  0
 17 18  1  0  0  0
  5  1  1  0  0  0
 18 10  2  0  0  0
  8  4  1  0  0  0
 17 12  1  0  0  0
M  CHG 1  19  -1
M  END
> <minimizedAffinity>
-9.13704

> <CNNscore>
0.8282378912

> <CNNaffinity>
6.4704337120

> <CNN_VS>
5.3590583801

> <CNNaffinity_variance>
0.1830582619

$$$$
[H]C1=C(C(=O)[O-])N2C(=O)/C(=C(\[H])c3nn4c(c3[H])C([H])([H])C([H])([H])C([H])([H])C4([H])[H])[C@@]2([H])S1


 21 24  0  0  0  0  0  0  0  0999 V2000
   50.7289   -4.8232   -4.7860 C   0  0  0  0  0  0  0  0  0  0  0  0
   51.8146   -5.5384   -4.6529 C   0  0  0  0  0  0  0  0  0  0  0  0
   52.7545   -5.3085   -6.1562 S   0  0  0  0  0  0  0  0  0  0  0  0
   51.3184   -4.6580   -7.1133 C   0  0  0  0  0  0  0  0  0  0  0  0
   50.6055   -4.0960   -5.9800 N   0  0  0  0  0  0  0  0  0  0  0  0
   50.1920   -3.0512   -6.8926 C   0  0  0  0  0  0  0  0  0  0  0  0
   49.1990   -2.2867   -7.0260 O   0  0  0  0  0  0  0  0  0  0  0  0
   51.4740   -3.2979   -7.5930 C   0  0  0  0  0  0  0  0  0  0  0  0
   52.2901   -2.5315   -8.2978 C   0  0  0  0  0  0  0  0  0  0  0  0
   53.4905   -3.1510   -8.8379 C   0  0  0  0  0  0  0  0  0  0  0  0
   54.5485   -3.6117   -8.0776 C   0  0  0  0  0  0  0  0  0  0  0  0
   55.4957   -4.1271   -8.9379 C   0  0  0  0  0  0  0  0  0  0  0  0
   56.7997   -4.7359   -8.6078 C   0  0  0  0  0  0  0  0  0  0  0  0
   57.6601   -4.9662   -9.8045 C   0  0  0  0  0  0  0  0  0  0  0  0
   57.2128   -4.2154  -11.0246 C   0  0  0  0  0  0  0  0  0  0  0  0
   55.7477   -4.4076  -11.3221 C   0  0  0  0  0  0  0  0  0  0  0  0
   55.0091   -3.9741  -10.1608 N   0  0  0  0  0  0  0  0  0  0  0  0
   53.8049   -3.3879  -10.0992 N   0  0  0  0  0  0  0  0  0  0  0  0
   48.7007   -3.7933   -3.8760 O   0  0  0  0  0  0  0  0  0  0  0  0
   49.6890   -4.7526   -3.7487 C   0  0  0  0  0  0  0  0  0  0  0  0
   49.6407   -5.5100   -2.7519 O   0  0  0  0  0  0  0  0  0  0  0  0
 19 20  1  0  0  0
 20 21  2  0  0  0
 20  1  1  0  0  0
  1  2  2  0  0  0
  2  3  1  0  0  0
  3  4  1  0  0  0
  4  5  1  0  0  0
  5  6  1  0  0  0
  6  7  2  0  0  0
  6  8  1  0  0  0
  8  9  2  0  0  0
  9 10  1  0  0  0
 10 11  1  0  0  0
 11 12  2  0  0  0
 12 13  1  0  0  0
 13 14  1  0  0  0
 14 15  1  0  0  0
 15 16  1  0  0  0
 16 17  1  0  0  0
 17 18  1  0  0  0
  5  1  1  0  0  0
 18 10  2  0  0  0
  8  4  1  0  0  0
 17 12  1  0  0  0
M  CHG 1  19  -1
M  END
> <minimizedAffinity>
-9.46353

> <CNNscore>
0.8257917166

> <CNNaffinity>
6.5902442932

> <CNN_VS>
5.4421691895

> <CNNaffinity_variance>
0.1537202448

$$$$
[H]C1=C(C(=O)[O-])N2C(=O)/C(=C(\[H])c3nn4c(c3[H])C([H])([H])C([H])([H])C([H])([H])C4([H])[H])[C@@]2([H])S1


 21 24  0  0  0  0  0  0  0  0999 V2000
   62.7502   -9.6640   -4.1200 C   0  0  0  0  0  0  0  0  0  0  0  0
   63.6844   -8.7741   -4.3279 C   0  0  0  0  0  0  0  0  0  0  0  0
   64.0452   -8.8246   -6.0782 S   0  0  0  0  0  0  0  0  0  0  0  0
   63.2552  -10.4722   -6.3298 C   0  0  0  0  0  0  0  0  0  0  0  0
   62.2917  -10.3602   -5.2492 N   0  0  0  0  0  0  0  0  0  0  0  0
   61.3967  -11.1025   -6.1112 C   0  0  0  0  0  0  0  0  0  0  0  0
   60.4410  -11.9112   -5.9666 O   0  0  0  0  0  0  0  0  0  0  0  0
   62.1235  -10.4710   -7.2372 C   0  0  0  0  0  0  0  0  0  0  0  0
   61.7751  -10.1175   -8.4635 C   0  0  0  0  0  0  0  0  0  0  0  0
   62.7956   -9.5021   -9.2981 C   0  0  0  0  0  0  0  0  0  0  0  0
   62.8335   -8.1627   -9.6359 C   0  0  0  0  0  0  0  0  0  0  0  0
   63.9387   -7.9586  -10.4358 C   0  0  0  0  0  0  0  0  0  0  0  0
   64.4076   -6.6995  -11.0479 C   0  0  0  0  0  0  0  0  0  0  0  0
   65.5028   -6.9012  -12.0405 C   0  0  0  0  0  0  0  0  0  0  0  0
   65.6537   -8.3239  -12.4939 C   0  0  0  0  0  0  0  0  0  0  0  0
   65.7306   -9.2963  -11.3447 C   0  0  0  0  0  0  0  0  0  0  0  0
   64.5287   -9.1382  -10.5620 N   0  0  0  0  0  0  0  0  0  0  0  0
   63.8412  -10.0642   -9.8783 N   0  0  0  0  0  0  0  0  0  0  0  0
   60.8955   -9.4867   -2.5291 O   0  0  0  0  0  0  0  0  0  0  0  0
   62.1809   -9.9259   -2.7898 C   0  0  0  0  0  0  0  0  0  0  0  0
   62.7891  -10.5248   -1.8726 O   0  0  0  0  0  0  0  0  0  0  0  0
 19 20  1  0  0  0
 20 21  2  0  0  0
 20  1  1  0  0  0
  1  2  2  0  0  0
  2  3  1  0  0  0
  3  4  1  0  0  0
  4  5  1  0  0  0
  5  6  1  0  0  0
  6  7  2  0  0  0
  6  8  1  0  0  0
  8  9  2  0  0  0
  9 10  1  0  0  0
 10 11  1  0  0  0
 11 12  2  0  0  0
 12 13  1  0  0  0
 13 14  1  0  0  0
 14 15  1  0  0  0
 15 16  1  0  0  0
 16 17  1  0  0  0
 17 18  1  0  0  0
  5  1  1  0  0  0
 18 10  2  0  0  0
  8  4  1  0  0  0
 17 12  1  0  0  0
M  CHG 1  19  -1
M  END
> <minimizedAffinity>
-1.99579

> <CNNscore>
0.5610867143

> <CNNaffinity>
4.2299904823

> <CNN_VS>
2.3733913898

> <CNNaffinity_variance>
0.8184230924

$$$$
[H]C1=C(C(=O)[O-])N2C(=O)/C(=C(\[H])c3nn4c(c3[H])C([H])([H])C([H])([H])C([H])([H])C4([H])[H])[C@@]2([H])S1


 21 24  0  0  0  0  0  0  0  0999 V2000
   58.2057   -4.1106  -12.2117 C   0  0  0  0  0  0  0  0  0  0  0  0
   57.0324   -3.5598  -12.3787 C   0  0  0  0  0  0  0  0  0  0  0  0
   56.0561   -4.0156  -10.9521 S   0  0  0  0  0  0  0  0  0  0  0  0
   57.1693   -5.4038  -10.4667 C   0  0  0  0  0  0  0  0  0  0  0  0
   58.3857   -4.8444  -11.0289 N   0  0  0  0  0  0  0  0  0  0  0  0
   59.0615   -5.4558   -9.9042 C   0  0  0  0  0  0  0  0  0  0  0  0
   60.2026   -5.9353   -9.6670 O   0  0  0  0  0  0  0  0  0  0  0  0
   57.7930   -5.2556   -9.1654 C   0  0  0  0  0  0  0  0  0  0  0  0
   57.5032   -5.0437   -7.8922 C   0  0  0  0  0  0  0  0  0  0  0  0
   56.0997   -4.8869   -7.5423 C   0  0  0  0  0  0  0  0  0  0  0  0
   55.4676   -5.5506   -6.5082 C   0  0  0  0  0  0  0  0  0  0  0  0
   54.1485   -5.1475   -6.4896 C   0  0  0  0  0  0  0  0  0  0  0  0
   53.0726   -5.5724   -5.5721 C   0  0  0  0  0  0  0  0  0  0  0  0
   51.7203   -5.1080   -5.9975 C   0  0  0  0  0  0  0  0  0  0  0  0
   51.6618   -4.6410   -7.4226 C   0  0  0  0  0  0  0  0  0  0  0  0
   52.7441   -3.6457   -7.7542 C   0  0  0  0  0  0  0  0  0  0  0  0
   54.0123   -4.2767   -7.4790 N   0  0  0  0  0  0  0  0  0  0  0  0
   55.1848   -4.1211   -8.1103 N   0  0  0  0  0  0  0  0  0  0  0  0
   59.0148   -3.3918  -14.4096 O   0  0  0  0  0  0  0  0  0  0  0  0
   59.2989   -3.9679  -13.1847 C   0  0  0  0  0  0  0  0  0  0  0  0
   60.4777   -4.3365  -12.9737 O   0  0  0  0  0  0  0  0  0  0  0  0
 19 20  1  0  0  0
 20 21  2  0  0  0
 20  1  1  0  0  0
  1  2  2  0  0  0
  2  3  1  0  0  0
  3  4  1  0  0  0
  4  5  1  0  0  0
  5  6  1  0  0  0
  6  7  2  0  0  0
  6  8  1  0  0  0
  8  9  2  0  0  0
  9 10  1  0  0  0
 10 11  1  0  0  0
 11 12  2  0  0  0
 12 13  1  0  0  0
 13 14  1  0  0  0
 14 15  1  0  0  0
 15 16  1  0  0  0
 16 17  1  0  0  0
 17 18  1  0  0  0
  5  1  1  0  0  0
 18 10  2  0  0  0
  8  4  1  0  0  0
 17 12  1  0  0  0
M  CHG 1  19  -1
M  END
> <minimizedAffinity>
-6.87610

> <CNNscore>
0.3605470359

> <CNNaffinity>
5.6092352867

> <CNN_VS>
2.0223932266

> <CNNaffinity_variance>
0.1313551515

$$$$
[H]C1=C(C(=O)[O-])N2C(=O)/C(=C(\[H])c3nn4c(c3[H])C([H])([H])C([H])([H])C([H])([H])C4([H])[H])[C@@]2([H])S1


 21 24  0  0  0  0  0  0  0  0999 V2000
   56.9243   -4.4929  -10.5546 C   0  0  0  0  0  0  0  0  0  0  0  0
   57.8686   -5.1273   -9.9115 C   0  0  0  0  0  0  0  0  0  0  0  0
   57.2960   -5.3065   -8.2274 S   0  0  0  0  0  0  0  0  0  0  0  0
   56.0027   -4.0012   -8.3866 C   0  0  0  0  0  0  0  0  0  0  0  0
   55.7798   -4.1625   -9.8123 N   0  0  0  0  0  0  0  0  0  0  0  0
   54.3952   -3.8544   -9.5239 C   0  0  0  0  0  0  0  0  0  0  0  0
   53.4287   -3.3141  -10.1258 O   0  0  0  0  0  0  0  0  0  0  0  0
   54.6422   -4.4678   -8.1982 C   0  0  0  0  0  0  0  0  0  0  0  0
   53.8770   -5.1202   -7.3386 C   0  0  0  0  0  0  0  0  0  0  0  0
   54.4991   -5.5873   -6.1092 C   0  0  0  0  0  0  0  0  0  0  0  0
   54.4886   -6.8976   -5.6705 C   0  0  0  0  0  0  0  0  0  0  0  0
   55.1726   -6.9493   -4.4737 C   0  0  0  0  0  0  0  0  0  0  0  0
   55.4332   -8.1227   -3.6163 C   0  0  0  0  0  0  0  0  0  0  0  0
   55.9990   -7.7626   -2.2839 C   0  0  0  0  0  0  0  0  0  0  0  0
   55.8458   -6.3112   -1.9339 C   0  0  0  0  0  0  0  0  0  0  0  0
   56.3239   -5.3942   -3.0305 C   0  0  0  0  0  0  0  0  0  0  0  0
   55.5709   -5.7113   -4.2199 N   0  0  0  0  0  0  0  0  0  0  0  0
   55.1658   -4.8945   -5.2028 N   0  0  0  0  0  0  0  0  0  0  0  0
   58.0638   -4.6912  -12.7143 O   0  0  0  0  0  0  0  0  0  0  0  0
   57.0232   -4.1503  -11.9811 C   0  0  0  0  0  0  0  0  0  0  0  0
   56.2205   -3.3958  -12.5781 O   0  0  0  0  0  0  0  0  0  0  0  0
 19 20  1  0  0  0
 20 21  2  0  0  0
 20  1  1  0  0  0
  1  2  2  0  0  0
  2  3  1  0  0  0
  3  4  1  0  0  0
  4  5  1  0  0  0
  5  6  1  0  0  0
  6  7  2  0  0  0
  6  8  1  0  0  0
  8  9  2  0  0  0
  9 10  1  0  0  0
 10 11  1  0  0  0
 11 12  2  0  0  0
 12 13  1  0  0  0
 13 14  1  0  0  0
 14 15  1  0  0  0
 15 16  1  0  0  0
 16 17  1  0  0  0
 17 18  1  0  0  0
  5  1  1  0  0  0
 18 10  2  0  0  0
  8  4  1  0  0  0
 17 12  1  0  0  0
M  CHG 1  19  -1
M  END
> <minimizedAffinity>
-7.56276

> <CNNscore>
0.3288558424

> <CNNaffinity>
5.6542692184

> <CNN_VS>
1.8594394922

> <CNNaffinity_variance>
0.0908299834

$$$$
[H]C1=C(C(=O)[O-])N2C(=O)/C(=C(\[H])c3nn4c(c3[H])C([H])([H])C([H])([H])C([H])([H])C4([H])[H])[C@@]2([H])S1


 21 24  0  0  0  0  0  0  0  0999 V2000
   58.1964   -4.0240  -12.3697 C   0  0  0  0  0  0  0  0  0  0  0  0
   57.0800   -3.4551  -12.7409 C   0  0  0  0  0  0  0  0  0  0  0  0
   55.8926   -3.7872  -11.4464 S   0  0  0  0  0  0  0  0  0  0  0  0
   56.8736   -5.1681  -10.7166 C   0  0  0  0  0  0  0  0  0  0  0  0
   58.1776   -4.6805  -11.1292 N   0  0  0  0  0  0  0  0  0  0  0  0
   58.6618   -5.2318   -9.8815 C   0  0  0  0  0  0  0  0  0  0  0  0
   59.7389   -5.7241   -9.4503 O   0  0  0  0  0  0  0  0  0  0  0  0
   57.3082   -4.9486   -9.3501 C   0  0  0  0  0  0  0  0  0  0  0  0
   56.8457   -4.6432   -8.1489 C   0  0  0  0  0  0  0  0  0  0  0  0
   55.4131   -4.4261   -8.0186 C   0  0  0  0  0  0  0  0  0  0  0  0
   54.7414   -3.3094   -8.4781 C   0  0  0  0  0  0  0  0  0  0  0  0
   53.4053   -3.4622   -8.1707 C   0  0  0  0  0  0  0  0  0  0  0  0
   52.2878   -2.5399   -8.4544 C   0  0  0  0  0  0  0  0  0  0  0  0
   51.0203   -2.9244   -7.7680 C   0  0  0  0  0  0  0  0  0  0  0  0
   51.2101   -3.9181   -6.6595 C   0  0  0  0  0  0  0  0  0  0  0  0
   52.0225   -5.1150   -7.0831 C   0  0  0  0  0  0  0  0  0  0  0  0
   53.2976   -4.6292   -7.5525 N   0  0  0  0  0  0  0  0  0  0  0  0
   54.5041   -5.2070   -7.4618 N   0  0  0  0  0  0  0  0  0  0  0  0
   59.3701   -3.3515  -14.4123 O   0  0  0  0  0  0  0  0  0  0  0  0
   59.4228   -3.9766  -13.1795 C   0  0  0  0  0  0  0  0  0  0  0  0
   60.5183   -4.4684  -12.8221 O   0  0  0  0  0  0  0  0  0  0  0  0
 19 20  1  0  0  0
 20 21  2  0  0  0
 20  1  1  0  0  0
  1  2  2  0  0  0
  2  3  1  0  0  0
  3  4  1  0  0  0
  4  5  1  0  0  0
  5  6  1  0  0  0
  6  7  2  0  0  0
  6  8  1  0  0  0
  8  9  2  0  0  0
  9 10  1  0  0  0
 10 11  1  0  0  0
 11 12  2  0  0  0
 12 13  1  0  0  0
 13 14  1  0  0  0
 14 15  1  0  0  0
 15 16  1  0  0  0
 16 17  1  0  0  0
 17 18  1  0  0  0
  5  1  1  0  0  0
 18 10  2  0  0  0
  8  4  1  0  0  0
 17 12  1  0  0  0
M  CHG 1  19  -1
M  END
> <minimizedAffinity>
-7.67647

> <CNNscore>
0.3221392035

> <CNNaffinity>
5.6233654022

> <CNN_VS>
1.8115065098

> <CNNaffinity_variance>
0.0437204652

$$$$
[H]C1=C(C(=O)[O-])N2C(=O)/C(=C(\[H])c3nn4c(c3[H])C([H])([H])C([H])([H])C([H])([H])C4([H])[H])[C@@]2([H])S1


 21 24  0  0  0  0  0  0  0  0999 V2000
   51.1602   -5.3753   -4.3870 C   0  0  0  0  0  0  0  0  0  0  0  0
   52.3516   -5.8468   -4.1301 C   0  0  0  0  0  0  0  0  0  0  0  0
   53.3346   -5.5520   -5.5941 S   0  0  0  0  0  0  0  0  0  0  0  0
   51.8719   -5.2779   -6.6838 C   0  0  0  0  0  0  0  0  0  0  0  0
   50.9840   -4.7828   -5.6471 N   0  0  0  0  0  0  0  0  0  0  0  0
   50.4421   -3.9161   -6.6720 C   0  0  0  0  0  0  0  0  0  0  0  0
   49.3318   -3.3779   -6.9286 O   0  0  0  0  0  0  0  0  0  0  0  0
   51.7945   -3.9558   -7.2756 C   0  0  0  0  0  0  0  0  0  0  0  0
   52.4947   -3.0993   -8.0011 C   0  0  0  0  0  0  0  0  0  0  0  0
   53.8282   -3.5071   -8.4159 C   0  0  0  0  0  0  0  0  0  0  0  0
   54.2109   -3.7321   -9.7245 C   0  0  0  0  0  0  0  0  0  0  0  0
   55.5394   -4.1036   -9.7195 C   0  0  0  0  0  0  0  0  0  0  0  0
   56.3996   -4.4475  -10.8692 C   0  0  0  0  0  0  0  0  0  0  0  0
   57.7136   -5.0279  -10.4666 C   0  0  0  0  0  0  0  0  0  0  0  0
   57.7592   -5.4892   -9.0392 C   0  0  0  0  0  0  0  0  0  0  0  0
   57.2715   -4.4406   -8.0725 C   0  0  0  0  0  0  0  0  0  0  0  0
   55.9224   -4.0959   -8.4511 N   0  0  0  0  0  0  0  0  0  0  0  0
   54.8938   -3.7375   -7.6693 N   0  0  0  0  0  0  0  0  0  0  0  0
   50.2459   -6.1424   -2.2474 O   0  0  0  0  0  0  0  0  0  0  0  0
   50.0546   -5.4329   -3.4192 C   0  0  0  0  0  0  0  0  0  0  0  0
   48.9447   -4.8770   -3.5890 O   0  0  0  0  0  0  0  0  0  0  0  0
 19 20  1  0  0  0
 20 21  2  0  0  0
 20  1  1  0  0  0
  1  2  2  0  0  0
  2  3  1  0  0  0
  3  4  1  0  0  0
  4  5  1  0  0  0
  5  6  1  0  0  0
  6  7  2  0  0  0
  6  8  1  0  0  0
  8  9  2  0  0  0
  9 10  1  0  0  0
 10 11  1  0  0  0
 11 12  2  0  0  0
 12 13  1  0  0  0
 13 14  1  0  0  0
 14 15  1  0  0  0
 15 16  1  0  0  0
 16 17  1  0  0  0
 17 18  1  0  0  0
  5  1  1  0  0  0
 18 10  2  0  0  0
  8  4  1  0  0  0
 17 12  1  0  0  0
M  CHG 1  19  -1
M  END
> <minimizedAffinity>
-9.03691

> <CNNscore>
0.3085945845

> <CNNaffinity>
6.0402345657

> <CNN_VS>
1.8639836311

> <CNNaffinity_variance>
0.1620249003

$$$$
[H]C1=C(C(=O)[O-])N2C(=O)/C(=C(\[H])c3nn4c(c3[H])C([H])([H])C([H])([H])C([H])([H])C4([H])[H])[C@@]2([H])S1


 21 24  0  0  0  0  0  0  0  0999 V2000
   56.6095   -4.5286   -9.2453 C   0  0  0  0  0  0  0  0  0  0  0  0
   57.1955   -5.1856   -8.2794 C   0  0  0  0  0  0  0  0  0  0  0  0
   55.9967   -5.3127   -6.9592 S   0  0  0  0  0  0  0  0  0  0  0  0
   54.9267   -3.9636   -7.6203 C   0  0  0  0  0  0  0  0  0  0  0  0
   55.2794   -4.1426   -9.0175 N   0  0  0  0  0  0  0  0  0  0  0  0
   53.9075   -3.7785   -9.3015 C   0  0  0  0  0  0  0  0  0  0  0  0
   53.2811   -3.2139  -10.2380 O   0  0  0  0  0  0  0  0  0  0  0  0
   53.5846   -4.3762   -7.9849 C   0  0  0  0  0  0  0  0  0  0  0  0
   52.5157   -4.9841   -7.4971 C   0  0  0  0  0  0  0  0  0  0  0  0
   52.5811   -5.4513   -6.1209 C   0  0  0  0  0  0  0  0  0  0  0  0
   51.6470   -5.1591   -5.1453 C   0  0  0  0  0  0  0  0  0  0  0  0
   52.0488   -5.7722   -3.9767 C   0  0  0  0  0  0  0  0  0  0  0  0
   51.3849   -5.7569   -2.6581 C   0  0  0  0  0  0  0  0  0  0  0  0
   52.2273   -6.3325   -1.5697 C   0  0  0  0  0  0  0  0  0  0  0  0
   53.6778   -6.4628   -1.9322 C   0  0  0  0  0  0  0  0  0  0  0  0
   53.8878   -7.1582   -3.2530 C   0  0  0  0  0  0  0  0  0  0  0  0
   53.1797   -6.4027   -4.2580 N   0  0  0  0  0  0  0  0  0  0  0  0
   53.4982   -6.2092   -5.5459 N   0  0  0  0  0  0  0  0  0  0  0  0
   58.1858   -5.1296  -11.0217 O   0  0  0  0  0  0  0  0  0  0  0  0
   57.2785   -4.2159  -10.5168 C   0  0  0  0  0  0  0  0  0  0  0  0
   57.0777   -3.1693  -11.1757 O   0  0  0  0  0  0  0  0  0  0  0  0
 19 20  1  0  0  0
 20 21  2  0  0  0
 20  1  1  0  0  0
  1  2  2  0  0  0
  2  3  1  0  0  0
  3  4  1  0  0  0
  4  5  1  0  0  0
  5  6  1  0  0  0
  6  7  2  0  0  0
  6  8  1  0  0  0
  8  9  2  0  0  0
  9 10  1  0  0  0
 10 11  1  0  0  0
 11 12  2  0  0  0
 12 13  1  0  0  0
 13 14  1  0  0  0
 14 15  1  0  0  0
 15 16  1  0  0  0
 16 17  1  0  0  0
 17 18  1  0  0  0
  5  1  1  0  0  0
 18 10  2  0  0  0
  8  4  1  0  0  0
 17 12  1  0  0  0
M  CHG 1  19  -1
M  END
> <minimizedAffinity>
-8.17965

> <CNNscore>
0.2807585597

> <CNNaffinity>
5.8163290024

> <CNN_VS>
1.6329841614

> <CNNaffinity_variance>
0.2232778966

$$$$
[H]C1=C(C(=O)[O-])N2C(=O)/C(=C(\[H])c3nn4c(c3[H])C([H])([H])C([H])([H])C([H])([H])C4([H])[H])[C@@]2([H])S1


 21 24  0  0  0  0  0  0  0  0999 V2000
   57.1616   -5.2229   -8.2008 C   0  0  0  0  0  0  0  0  0  0  0  0
   56.8057   -5.6965   -7.0360 C   0  0  0  0  0  0  0  0  0  0  0  0
   55.1428   -5.1095   -6.7421 S   0  0  0  0  0  0  0  0  0  0  0  0
   55.2419   -3.7830   -8.0197 C   0  0  0  0  0  0  0  0  0  0  0  0
   56.2041   -4.4513   -8.8775 N   0  0  0  0  0  0  0  0  0  0  0  0
   55.4900   -3.8393   -9.9779 C   0  0  0  0  0  0  0  0  0  0  0  0
   55.7639   -3.4313  -11.1384 O   0  0  0  0  0  0  0  0  0  0  0  0
   54.2928   -3.9162   -9.1086 C   0  0  0  0  0  0  0  0  0  0  0  0
   52.9987   -4.0500   -9.3488 C   0  0  0  0  0  0  0  0  0  0  0  0
   52.1058   -4.0917   -8.2009 C   0  0  0  0  0  0  0  0  0  0  0  0
   51.3017   -3.0452   -7.7911 C   0  0  0  0  0  0  0  0  0  0  0  0
   50.6064   -3.4577   -6.6733 C   0  0  0  0  0  0  0  0  0  0  0  0
   49.6246   -2.6996   -5.8726 C   0  0  0  0  0  0  0  0  0  0  0  0
   49.2533   -3.3818   -4.5990 C   0  0  0  0  0  0  0  0  0  0  0  0
   50.1957   -4.4813   -4.2047 C   0  0  0  0  0  0  0  0  0  0  0  0
   50.4565   -5.4547   -5.3256 C   0  0  0  0  0  0  0  0  0  0  0  0
   50.9897   -4.7038   -6.4365 N   0  0  0  0  0  0  0  0  0  0  0  0
   51.8901   -5.0832   -7.3546 N   0  0  0  0  0  0  0  0  0  0  0  0
   58.5350   -5.8084  -10.1432 O   0  0  0  0  0  0  0  0  0  0  0  0
   58.4787   -5.4857   -8.7994 C   0  0  0  0  0  0  0  0  0  0  0  0
   59.5589   -5.4354   -8.1666 O   0  0  0  0  0  0  0  0  0  0  0  0
 19 20  1  0  0  0
 20 21  2  0  0  0
 20  1  1  0  0  0
  1  2  2  0  0  0
  2  3  1  0  0  0
  3  4  1  0  0  0
  4  5  1  0  0  0
  5  6  1  0  0  0
  6  7  2  0  0  0
  6  8  1  0  0  0
  8  9  2  0  0  0
  9 10  1  0  0  0
 10 11  1  0  0  0
 11 12  2  0  0  0
 12 13  1  0  0  0
 13 14  1  0  0  0
 14 15  1  0  0  0
 15 16  1  0  0  0
 16 17  1  0  0  0
 17 18  1  0  0  0
  5  1  1  0  0  0
 18 10  2  0  0  0
  8  4  1  0  0  0
 17 12  1  0  0  0
M  CHG 1  19  -1
M  END
> <minimizedAffinity>
-8.52325

> <CNNscore>
0.2769714296

> <CNNaffinity>
5.9725518227

> <CNN_VS>
1.6542261839

> <CNNaffinity_variance>
0.1470103413

$$$$
[H]Oc1c([H])c([H])c(C([H])([H])[C@@]2([H])C(=O)N([H])[C@@]([H])(C([H])([H])c3c([H])c([H])c(O[H])c([H])c3[H])C(=O)N3C([H])([H])C([H])([H])C([H])([H])[C@@]3([H])C(=O)N([H])[C@@]([H])(C([H])([H])c3c([H])n([H])c4c([H])c([H])c([H])c([H])c34)C(=O)N([H])[C@@]([H])(C([H])(C([H])([H])[H])C([H])([H])[H])C(=O)N([H])[C@@]([H])(C([H])([H])c3c([H])n([H])c4c([H])c([H])c([H])c([H])c34)C(=O)N2[H])c([H])c1[H]


 75 82  0  0  0  0  0  0  0  0999 V2000
   60.5001   -7.6709   -7.0852 C   0  0  0  0  0  0  0  0  0  0  0  0
   59.7932   -8.3177   -6.0159 N   0  0  0  0  0  0  0  0  0  0  0  0
   60.4803   -9.0375   -4.9719 C   0  0  0  0  0  0  0  0  0  0  0  0
   59.9780  -10.1241   -4.6156 O   0  0  0  0  0  0  0  0  0  0  0  0
   61.7073   -8.5747   -4.3250 C   0  0  0  0  0  0  0  0  0  0  0  0
   61.6498   -7.3653   -3.5587 N   0  0  0  0  0  0  0  0  0  0  0  0
   60.6860   -6.7154   -2.8176 C   0  0  0  0  0  0  0  0  0  0  0  0
   60.2210   -5.6314   -3.3946 O   0  0  0  0  0  0  0  0  0  0  0  0
   60.0574   -6.9543   -1.5213 C   0  0  0  0  0  0  0  0  0  0  0  0
   61.0101   -6.8514   -0.3474 C   0  0  0  0  0  0  0  0  0  0  0  0
   60.7834   -8.0509    0.5339 C   0  0  0  0  0  0  0  0  0  0  0  0
   60.0941   -9.0244   -0.3929 C   0  0  0  0  0  0  0  0  0  0  0  0
   59.3172   -8.1543   -1.3111 N   0  0  0  0  0  0  0  0  0  0  0  0
   58.0603   -8.4604   -1.8447 C   0  0  0  0  0  0  0  0  0  0  0  0
   57.8151   -9.6756   -2.1368 O   0  0  0  0  0  0  0  0  0  0  0  0
   56.9638   -7.4319   -2.0966 C   0  0  0  0  0  0  0  0  0  0  0  0
   55.8888   -8.1263   -2.7660 N   0  0  0  0  0  0  0  0  0  0  0  0
   55.5256   -8.0505   -4.1187 C   0  0  0  0  0  0  0  0  0  0  0  0
   55.5412   -9.1221   -4.8180 O   0  0  0  0  0  0  0  0  0  0  0  0
   55.1064   -6.8292   -4.8686 C   0  0  0  0  0  0  0  0  0  0  0  0
   55.3174   -7.0489   -6.2765 N   0  0  0  0  0  0  0  0  0  0  0  0
   56.3058   -6.5478   -7.1175 C   0  0  0  0  0  0  0  0  0  0  0  0
   56.1770   -6.7071   -8.3823 O   0  0  0  0  0  0  0  0  0  0  0  0
   57.5572   -5.8128   -6.7209 C   0  0  0  0  0  0  0  0  0  0  0  0
   58.5756   -6.0336   -7.7087 N   0  0  0  0  0  0  0  0  0  0  0  0
   59.9178   -6.4146   -7.5660 C   0  0  0  0  0  0  0  0  0  0  0  0
   60.8221   -5.5419   -7.9064 O   0  0  0  0  0  0  0  0  0  0  0  0
   58.7571   -8.2573   -6.0200 H   0  0  0  0  0  0  0  0  0  0  0  0
   62.6168   -6.8418   -3.5979 H   0  0  0  0  0  0  0  0  0  0  0  0
   55.3140   -8.7878   -2.1494 H   0  0  0  0  0  0  0  0  0  0  0  0
   54.5870   -7.7025   -6.7163 H   0  0  0  0  0  0  0  0  0  0  0  0
   58.2196   -5.8730   -8.7130 H   0  0  0  0  0  0  0  0  0  0  0  0
   60.8237   -7.9431   -9.5537 C   0  0  0  0  0  0  0  0  0  0  0  0
   60.4993   -8.6694   -8.2576 C   0  0  0  0  0  0  0  0  0  0  0  0
   61.4561   -9.8144   -8.0111 C   0  0  0  0  0  0  0  0  0  0  0  0
   62.4541   -9.7191   -3.6790 C   0  0  0  0  0  0  0  0  0  0  0  0
   63.2491  -10.5115   -4.6471 C   0  0  0  0  0  0  0  0  0  0  0  0
   64.3302  -10.0930   -5.3899 C   0  0  0  0  0  0  0  0  0  0  0  0
   64.7867  -11.1182   -6.1549 N   0  0  0  0  0  0  0  0  0  0  0  0
   64.0360  -12.2030   -5.9376 C   0  0  0  0  0  0  0  0  0  0  0  0
   64.0863  -13.4742   -6.4601 C   0  0  0  0  0  0  0  0  0  0  0  0
   63.1679  -14.4496   -6.0646 C   0  0  0  0  0  0  0  0  0  0  0  0
   62.2002  -14.1024   -5.1287 C   0  0  0  0  0  0  0  0  0  0  0  0
   62.1823  -12.7993   -4.6214 C   0  0  0  0  0  0  0  0  0  0  0  0
   63.0868  -11.8391   -5.0106 C   0  0  0  0  0  0  0  0  0  0  0  0
   65.6114  -11.0322   -6.8086 H   0  0  0  0  0  0  0  0  0  0  0  0
   56.5238   -7.0378   -0.7086 C   0  0  0  0  0  0  0  0  0  0  0  0
   55.0983   -7.0948   -0.4343 C   0  0  0  0  0  0  0  0  0  0  0  0
   54.6123   -8.2080    0.2312 C   0  0  0  0  0  0  0  0  0  0  0  0
   53.2871   -8.4023    0.5331 C   0  0  0  0  0  0  0  0  0  0  0  0
   52.3936   -7.4272    0.1478 C   0  0  0  0  0  0  0  0  0  0  0  0
   51.0369   -7.6166    0.4512 O   0  0  0  0  0  0  0  0  0  0  0  0
   52.8367   -6.2959   -0.5205 C   0  0  0  0  0  0  0  0  0  0  0  0
   54.1774   -6.1432   -0.8025 C   0  0  0  0  0  0  0  0  0  0  0  0
   50.7483   -7.2409    1.3551 H   0  0  0  0  0  0  0  0  0  0  0  0
   53.5951   -6.7449   -4.5859 C   0  0  0  0  0  0  0  0  0  0  0  0
   52.8469   -5.8832   -5.4799 C   0  0  0  0  0  0  0  0  0  0  0  0
   51.7555   -5.1895   -4.9418 C   0  0  0  0  0  0  0  0  0  0  0  0
   50.9984   -4.3326   -5.7318 C   0  0  0  0  0  0  0  0  0  0  0  0
   51.3377   -4.1778   -7.0510 C   0  0  0  0  0  0  0  0  0  0  0  0
   50.5996   -3.3283   -7.8662 O   0  0  0  0  0  0  0  0  0  0  0  0
   52.4205   -4.8712   -7.5722 C   0  0  0  0  0  0  0  0  0  0  0  0
   53.1731   -5.7187   -6.7968 C   0  0  0  0  0  0  0  0  0  0  0  0
   50.8705   -2.3401   -7.9462 H   0  0  0  0  0  0  0  0  0  0  0  0
   57.2190   -4.3374   -6.6872 C   0  0  0  0  0  0  0  0  0  0  0  0
   56.4869   -3.8058   -7.8183 C   0  0  0  0  0  0  0  0  0  0  0  0
   55.3350   -3.0161   -7.6547 C   0  0  0  0  0  0  0  0  0  0  0  0
   54.8174   -2.7034   -8.8508 N   0  0  0  0  0  0  0  0  0  0  0  0
   55.5776   -3.2514   -9.8232 C   0  0  0  0  0  0  0  0  0  0  0  0
   55.5025   -3.2228  -11.1903 C   0  0  0  0  0  0  0  0  0  0  0  0
   56.4418   -3.8607  -11.9638 C   0  0  0  0  0  0  0  0  0  0  0  0
   57.4782   -4.5408  -11.3060 C   0  0  0  0  0  0  0  0  0  0  0  0
   57.5532   -4.5703   -9.9474 C   0  0  0  0  0  0  0  0  0  0  0  0
   56.6010   -3.9262   -9.1950 C   0  0  0  0  0  0  0  0  0  0  0  0
   53.9450   -2.1167   -9.0001 H   0  0  0  0  0  0  0  0  0  0  0  0
 33 34  1  0  0  0
 34 35  1  0  0  0
 34  1  1  0  0  0
  1  2  1  0  0  0
  2  3  1  0  0  0
  3  4  2  0  0  0
  3  5  1  0  0  0
  5 36  1  0  0  0
 36 37  1  0  0  0
 37 38  2  0  0  0
 38 39  1  0  0  0
 39 40  1  0  0  0
 40 41  2  0  0  0
 41 42  1  0  0  0
 42 43  2  0  0  0
 43 44  1  0  0  0
 44 45  2  0  0  0
  5  6  1  0  0  0
  6  7  1  0  0  0
  7  8  2  0  0  0
  7  9  1  0  0  0
  9 10  1  0  0  0
 10 11  1  0  0  0
 11 12  1  0  0  0
 12 13  1  0  0  0
 13 14  1  0  0  0
 14 15  2  0  0  0
 14 16  1  0  0  0
 16 47  1  0  0  0
 47 48  1  0  0  0
 48 49  2  0  0  0
 49 50  1  0  0  0
 50 51  2  0  0  0
 51 52  1  0  0  0
 51 53  1  0  0  0
 53 54  2  0  0  0
 16 17  1  0  0  0
 17 18  1  0  0  0
 18 19  2  0  0  0
 18 20  1  0  0  0
 20 56  1  0  0  0
 56 57  1  0  0  0
 57 58  2  0  0  0
 58 59  1  0  0  0
 59 60  2  0  0  0
 60 61  1  0  0  0
 60 62  1  0  0  0
 62 63  2  0  0  0
 20 21  1  0  0  0
 21 22  1  0  0  0
 22 23  2  0  0  0
 22 24  1  0  0  0
 24 65  1  0  0  0
 65 66  1  0  0  0
 66 67  2  0  0  0
 67 68  1  0  0  0
 68 69  1  0  0  0
 69 70  2  0  0  0
 70 71  1  0  0  0
 71 72  2  0  0  0
 72 73  1  0  0  0
 73 74  2  0  0  0
 24 25  1  0  0  0
 25 26  1  0  0  0
 26 27  2  0  0  0
 26  1  1  0  0  0
 45 37  1  0  0  0
 13  9  1  0  0  0
 54 48  1  0  0  0
 63 57  1  0  0  0
 74 66  1  0  0  0
 45 40  1  0  0  0
 74 69  1  0  0  0
  2 28  1  0  0  0
 39 46  1  0  0  0
  6 29  1  0  0  0
 52 55  1  0  0  0
 17 30  1  0  0  0
 61 64  1  0  0  0
 21 31  1  0  0  0
 68 75  1  0  0  0
 25 32  1  0  0  0
M  END
> <minimizedAffinity>
3.28552

> <CNNscore>
0.4099028707

> <CNNaffinity>
7.7279410362

> <CNN_VS>
3.1677052975

> <CNNaffinity_variance>
0.6045156121

$$$$
[H]Oc1c([H])c([H])c(C([H])([H])[C@@]2([H])C(=O)N([H])[C@@]([H])(C([H])([H])c3c([H])c([H])c(O[H])c([H])c3[H])C(=O)N3C([H])([H])C([H])([H])C([H])([H])[C@@]3([H])C(=O)N([H])[C@@]([H])(C([H])([H])c3c([H])n([H])c4c([H])c([H])c([H])c([H])c34)C(=O)N([H])[C@@]([H])(C([H])(C([H])([H])[H])C([H])([H])[H])C(=O)N([H])[C@@]([H])(C([H])([H])c3c([H])n([H])c4c([H])c([H])c([H])c([H])c34)C(=O)N2[H])c([H])c1[H]


 75 82  0  0  0  0  0  0  0  0999 V2000
   64.0159   -7.3760   -9.2882 C   0  0  0  0  0  0  0  0  0  0  0  0
   63.1202   -8.4786   -9.0795 N   0  0  0  0  0  0  0  0  0  0  0  0
   63.1198   -9.6355   -9.9407 C   0  0  0  0  0  0  0  0  0  0  0  0
   62.0038  -10.0949  -10.2625 O   0  0  0  0  0  0  0  0  0  0  0  0
   64.3288  -10.2829  -10.4479 C   0  0  0  0  0  0  0  0  0  0  0  0
   65.2140  -10.8933   -9.5008 N   0  0  0  0  0  0  0  0  0  0  0  0
   65.0718  -11.5005   -8.2713 C   0  0  0  0  0  0  0  0  0  0  0  0
   65.5148  -10.7737   -7.2714 O   0  0  0  0  0  0  0  0  0  0  0  0
   64.5395  -12.7827   -7.8181 C   0  0  0  0  0  0  0  0  0  0  0  0
   65.3276  -13.9822   -8.3043 C   0  0  0  0  0  0  0  0  0  0  0  0
   64.3455  -14.9896   -8.8405 C   0  0  0  0  0  0  0  0  0  0  0  0
   63.1149  -14.1538   -9.1028 C   0  0  0  0  0  0  0  0  0  0  0  0
   63.1707  -13.0988   -8.0599 N   0  0  0  0  0  0  0  0  0  0  0  0
   62.0618  -12.5432   -7.4119 C   0  0  0  0  0  0  0  0  0  0  0  0
   60.9920  -12.3883   -8.0853 O   0  0  0  0  0  0  0  0  0  0  0  0
   62.0516  -12.1135   -5.9494 C   0  0  0  0  0  0  0  0  0  0  0  0
   60.7759  -11.4795   -5.7117 N   0  0  0  0  0  0  0  0  0  0  0  0
   60.5103  -10.1108   -5.5571 C   0  0  0  0  0  0  0  0  0  0  0  0
   59.7008   -9.5482   -6.3731 O   0  0  0  0  0  0  0  0  0  0  0  0
   61.0752   -9.1983   -4.5190 C   0  0  0  0  0  0  0  0  0  0  0  0
   60.9822   -7.8400   -4.9890 N   0  0  0  0  0  0  0  0  0  0  0  0
   61.9758   -6.9956   -5.4740 C   0  0  0  0  0  0  0  0  0  0  0  0
   61.7030   -5.7545   -5.6383 O   0  0  0  0  0  0  0  0  0  0  0  0
   63.3866   -7.3632   -5.8459 C   0  0  0  0  0  0  0  0  0  0  0  0
   63.8657   -6.4622   -6.8560 N   0  0  0  0  0  0  0  0  0  0  0  0
   64.5099   -6.7178   -8.0752 C   0  0  0  0  0  0  0  0  0  0  0  0
   65.7446   -6.3204   -8.1891 O   0  0  0  0  0  0  0  0  0  0  0  0
   62.4581   -8.4148   -8.2829 H   0  0  0  0  0  0  0  0  0  0  0  0
   66.2528  -10.8400   -9.8593 H   0  0  0  0  0  0  0  0  0  0  0  0
   59.9349  -12.1417   -5.6634 H   0  0  0  0  0  0  0  0  0  0  0  0
   59.9836   -7.4460   -4.9480 H   0  0  0  0  0  0  0  0  0  0  0  0
   63.6858   -5.4292   -6.6080 H   0  0  0  0  0  0  0  0  0  0  0  0
   62.6824   -6.9729  -11.3694 C   0  0  0  0  0  0  0  0  0  0  0  0
   63.2229   -6.3346  -10.0995 C   0  0  0  0  0  0  0  0  0  0  0  0
   62.1148   -5.7174   -9.2760 C   0  0  0  0  0  0  0  0  0  0  0  0
   64.0375  -11.0997  -11.6860 C   0  0  0  0  0  0  0  0  0  0  0  0
   64.5271  -10.4599  -12.9302 C   0  0  0  0  0  0  0  0  0  0  0  0
   65.4957   -9.4890  -13.0520 C   0  0  0  0  0  0  0  0  0  0  0  0
   65.6632   -9.1686  -14.3612 N   0  0  0  0  0  0  0  0  0  0  0  0
   64.8310   -9.9018  -15.1078 C   0  0  0  0  0  0  0  0  0  0  0  0
   64.6161   -9.9499  -16.4654 C   0  0  0  0  0  0  0  0  0  0  0  0
   63.6681  -10.8184  -17.0116 C   0  0  0  0  0  0  0  0  0  0  0  0
   62.9462  -11.6336  -16.1473 C   0  0  0  0  0  0  0  0  0  0  0  0
   63.1940  -11.5548  -14.7732 C   0  0  0  0  0  0  0  0  0  0  0  0
   64.1275  -10.6999  -14.2355 C   0  0  0  0  0  0  0  0  0  0  0  0
   66.3554   -8.4459  -14.6980 H   0  0  0  0  0  0  0  0  0  0  0  0
   62.1149  -13.4194   -5.1973 C   0  0  0  0  0  0  0  0  0  0  0  0
   61.4383  -13.4668   -3.9126 C   0  0  0  0  0  0  0  0  0  0  0  0
   60.2253  -14.1321   -3.8451 C   0  0  0  0  0  0  0  0  0  0  0  0
   59.4693  -14.2334   -2.7035 C   0  0  0  0  0  0  0  0  0  0  0  0
   59.9530  -13.6351   -1.5608 C   0  0  0  0  0  0  0  0  0  0  0  0
   59.1876  -13.7325   -0.3889 O   0  0  0  0  0  0  0  0  0  0  0  0
   61.1634  -12.9588   -1.5830 C   0  0  0  0  0  0  0  0  0  0  0  0
   61.8887  -12.8828   -2.7527 C   0  0  0  0  0  0  0  0  0  0  0  0
   59.3994  -14.5464    0.1891 H   0  0  0  0  0  0  0  0  0  0  0  0
   60.1223   -9.3919   -3.3250 C   0  0  0  0  0  0  0  0  0  0  0  0
   59.5563   -8.1724   -2.7830 C   0  0  0  0  0  0  0  0  0  0  0  0
   60.2908   -7.5058   -1.7939 C   0  0  0  0  0  0  0  0  0  0  0  0
   59.8216   -6.3224   -1.2363 C   0  0  0  0  0  0  0  0  0  0  0  0
   58.6237   -5.8170   -1.6708 C   0  0  0  0  0  0  0  0  0  0  0  0
   58.1283   -4.6357   -1.1320 O   0  0  0  0  0  0  0  0  0  0  0  0
   57.9053   -6.4870   -2.6504 C   0  0  0  0  0  0  0  0  0  0  0  0
   58.3637   -7.6562   -3.2060 C   0  0  0  0  0  0  0  0  0  0  0  0
   58.3728   -3.7377   -1.5681 H   0  0  0  0  0  0  0  0  0  0  0  0
   64.2348   -7.2008   -4.6023 C   0  0  0  0  0  0  0  0  0  0  0  0
   64.6315   -8.4127   -3.9155 C   0  0  0  0  0  0  0  0  0  0  0  0
   65.5592   -9.3125   -4.4696 C   0  0  0  0  0  0  0  0  0  0  0  0
   65.7068  -10.3749   -3.6660 N   0  0  0  0  0  0  0  0  0  0  0  0
   64.9129  -10.2292   -2.5831 C   0  0  0  0  0  0  0  0  0  0  0  0
   64.7035  -11.0019   -1.4721 C   0  0  0  0  0  0  0  0  0  0  0  0
   63.8380  -10.5999   -0.4838 C   0  0  0  0  0  0  0  0  0  0  0  0
   63.1777   -9.3732   -0.6519 C   0  0  0  0  0  0  0  0  0  0  0  0
   63.3847   -8.6049   -1.7561 C   0  0  0  0  0  0  0  0  0  0  0  0
   64.2539   -9.0288   -2.7320 C   0  0  0  0  0  0  0  0  0  0  0  0
   66.3491  -11.1980   -3.8596 H   0  0  0  0  0  0  0  0  0  0  0  0
 33 34  1  0  0  0
 34 35  1  0  0  0
 34  1  1  0  0  0
  1  2  1  0  0  0
  2  3  1  0  0  0
  3  4  2  0  0  0
  3  5  1  0  0  0
  5 36  1  0  0  0
 36 37  1  0  0  0
 37 38  2  0  0  0
 38 39  1  0  0  0
 39 40  1  0  0  0
 40 41  2  0  0  0
 41 42  1  0  0  0
 42 43  2  0  0  0
 43 44  1  0  0  0
 44 45  2  0  0  0
  5  6  1  0  0  0
  6  7  1  0  0  0
  7  8  2  0  0  0
  7  9  1  0  0  0
  9 10  1  0  0  0
 10 11  1  0  0  0
 11 12  1  0  0  0
 12 13  1  0  0  0
 13 14  1  0  0  0
 14 15  2  0  0  0
 14 16  1  0  0  0
 16 47  1  0  0  0
 47 48  1  0  0  0
 48 49  2  0  0  0
 49 50  1  0  0  0
 50 51  2  0  0  0
 51 52  1  0  0  0
 51 53  1  0  0  0
 53 54  2  0  0  0
 16 17  1  0  0  0
 17 18  1  0  0  0
 18 19  2  0  0  0
 18 20  1  0  0  0
 20 56  1  0  0  0
 56 57  1  0  0  0
 57 58  2  0  0  0
 58 59  1  0  0  0
 59 60  2  0  0  0
 60 61  1  0  0  0
 60 62  1  0  0  0
 62 63  2  0  0  0
 20 21  1  0  0  0
 21 22  1  0  0  0
 22 23  2  0  0  0
 22 24  1  0  0  0
 24 65  1  0  0  0
 65 66  1  0  0  0
 66 67  2  0  0  0
 67 68  1  0  0  0
 68 69  1  0  0  0
 69 70  2  0  0  0
 70 71  1  0  0  0
 71 72  2  0  0  0
 72 73  1  0  0  0
 73 74  2  0  0  0
 24 25  1  0  0  0
 25 26  1  0  0  0
 26 27  2  0  0  0
 26  1  1  0  0  0
 45 37  1  0  0  0
 13  9  1  0  0  0
 54 48  1  0  0  0
 63 57  1  0  0  0
 74 66  1  0  0  0
 45 40  1  0  0  0
 74 69  1  0  0  0
  2 28  1  0  0  0
 39 46  1  0  0  0
  6 29  1  0  0  0
 52 55  1  0  0  0
 17 30  1  0  0  0
 61 64  1  0  0  0
 21 31  1  0  0  0
 68 75  1  0  0  0
 25 32  1  0  0  0
M  END
> <minimizedAffinity>
2.71058

> <CNNscore>
0.3859604001

> <CNNaffinity>
6.7044458389

> <CNN_VS>
2.5876505375

> <CNNaffinity_variance>
1.0033969879

$$$$
[H]Oc1c([H])c([H])c(C([H])([H])[C@@]2([H])C(=O)N([H])[C@@]([H])(C([H])([H])c3c([H])c([H])c(O[H])c([H])c3[H])C(=O)N3C([H])([H])C([H])([H])C([H])([H])[C@@]3([H])C(=O)N([H])[C@@]([H])(C([H])([H])c3c([H])n([H])c4c([H])c([H])c([H])c([H])c34)C(=O)N([H])[C@@]([H])(C([H])(C([H])([H])[H])C([H])([H])[H])C(=O)N([H])[C@@]([H])(C([H])([H])c3c([H])n([H])c4c([H])c([H])c([H])c([H])c34)C(=O)N2[H])c([H])c1[H]


 75 82  0  0  0  0  0  0  0  0999 V2000
   60.6938   -7.5527   -5.6190 C   0  0  0  0  0  0  0  0  0  0  0  0
   60.9154   -8.1424   -6.9092 N   0  0  0  0  0  0  0  0  0  0  0  0
   60.7522   -7.3916   -8.1298 C   0  0  0  0  0  0  0  0  0  0  0  0
   60.1831   -7.9758   -9.0759 O   0  0  0  0  0  0  0  0  0  0  0  0
   61.2048   -6.0135   -8.3138 C   0  0  0  0  0  0  0  0  0  0  0  0
   62.6124   -5.7528   -8.2516 N   0  0  0  0  0  0  0  0  0  0  0  0
   63.7578   -6.4605   -8.5481 C   0  0  0  0  0  0  0  0  0  0  0  0
   64.4205   -6.8572   -7.4861 O   0  0  0  0  0  0  0  0  0  0  0  0
   64.4150   -6.8729   -9.7852 C   0  0  0  0  0  0  0  0  0  0  0  0
   64.9270   -5.7192  -10.6238 C   0  0  0  0  0  0  0  0  0  0  0  0
   64.4924   -5.9572  -12.0456 C   0  0  0  0  0  0  0  0  0  0  0  0
   63.3544   -6.9384  -11.8902 C   0  0  0  0  0  0  0  0  0  0  0  0
   63.7278   -7.7315  -10.6921 N   0  0  0  0  0  0  0  0  0  0  0  0
   63.4702   -9.0953  -10.5130 C   0  0  0  0  0  0  0  0  0  0  0  0
   62.3851   -9.5654  -10.9858 O   0  0  0  0  0  0  0  0  0  0  0  0
   64.4073  -10.0556   -9.7897 C   0  0  0  0  0  0  0  0  0  0  0  0
   63.7215  -11.3241   -9.7100 N   0  0  0  0  0  0  0  0  0  0  0  0
   63.1239  -11.9104   -8.5846 C   0  0  0  0  0  0  0  0  0  0  0  0
   61.8735  -12.1794   -8.6255 O   0  0  0  0  0  0  0  0  0  0  0  0
   63.7925  -12.2736   -7.2998 C   0  0  0  0  0  0  0  0  0  0  0  0
   62.7979  -12.3551   -6.2612 N   0  0  0  0  0  0  0  0  0  0  0  0
   62.5207  -11.4719   -5.2225 C   0  0  0  0  0  0  0  0  0  0  0  0
   61.7290  -11.8491   -4.2883 O   0  0  0  0  0  0  0  0  0  0  0  0
   63.0504  -10.0751   -5.0445 C   0  0  0  0  0  0  0  0  0  0  0  0
   62.1040   -9.2957   -4.2973 N   0  0  0  0  0  0  0  0  0  0  0  0
   61.5745   -8.0208   -4.5447 C   0  0  0  0  0  0  0  0  0  0  0  0
   61.8897   -7.0743   -3.7080 O   0  0  0  0  0  0  0  0  0  0  0  0
   61.1937   -9.1418   -6.9387 H   0  0  0  0  0  0  0  0  0  0  0  0
   62.7968   -4.7425   -7.8570 H   0  0  0  0  0  0  0  0  0  0  0  0
   63.6540  -11.8692  -10.6301 H   0  0  0  0  0  0  0  0  0  0  0  0
   62.1935  -13.2411   -6.3233 H   0  0  0  0  0  0  0  0  0  0  0  0
   61.7639   -9.7995   -3.4077 H   0  0  0  0  0  0  0  0  0  0  0  0
   59.2533   -8.9462   -4.1172 C   0  0  0  0  0  0  0  0  0  0  0  0
   59.2472   -7.9123   -5.2323 C   0  0  0  0  0  0  0  0  0  0  0  0
   58.4559   -6.6838   -4.8430 C   0  0  0  0  0  0  0  0  0  0  0  0
   60.4680   -5.3391   -9.4484 C   0  0  0  0  0  0  0  0  0  0  0  0
   59.0144   -5.2006   -9.1935 C   0  0  0  0  0  0  0  0  0  0  0  0
   58.3477   -5.3857   -8.0032 C   0  0  0  0  0  0  0  0  0  0  0  0
   57.0205   -5.1573   -8.1795 N   0  0  0  0  0  0  0  0  0  0  0  0
   56.7924   -4.8264   -9.4546 C   0  0  0  0  0  0  0  0  0  0  0  0
   55.6362   -4.5081  -10.1280 C   0  0  0  0  0  0  0  0  0  0  0  0
   55.6614   -4.1947  -11.4890 C   0  0  0  0  0  0  0  0  0  0  0  0
   56.8861   -4.2132  -12.1468 C   0  0  0  0  0  0  0  0  0  0  0  0
   58.0390   -4.5421  -11.4268 C   0  0  0  0  0  0  0  0  0  0  0  0
   58.0142   -4.8503  -10.0866 C   0  0  0  0  0  0  0  0  0  0  0  0
   56.3094   -5.2385   -7.4032 H   0  0  0  0  0  0  0  0  0  0  0  0
   65.5830  -10.1746  -10.7272 C   0  0  0  0  0  0  0  0  0  0  0  0
   65.2805  -10.2818  -12.1441 C   0  0  0  0  0  0  0  0  0  0  0  0
   65.7548   -9.2871  -12.9832 C   0  0  0  0  0  0  0  0  0  0  0  0
   65.5233   -9.2510  -14.3360 C   0  0  0  0  0  0  0  0  0  0  0  0
   64.7738  -10.2685  -14.8842 C   0  0  0  0  0  0  0  0  0  0  0  0
   64.5312  -10.2404  -16.2658 O   0  0  0  0  0  0  0  0  0  0  0  0
   64.2793  -11.2850  -14.0810 C   0  0  0  0  0  0  0  0  0  0  0  0
   64.5370  -11.2802  -12.7268 C   0  0  0  0  0  0  0  0  0  0  0  0
   65.2314  -10.7241  -16.8289 H   0  0  0  0  0  0  0  0  0  0  0  0
   64.3534  -13.6799   -7.5811 C   0  0  0  0  0  0  0  0  0  0  0  0
   64.5555  -13.9951   -8.9815 C   0  0  0  0  0  0  0  0  0  0  0  0
   63.6389  -14.8661   -9.5841 C   0  0  0  0  0  0  0  0  0  0  0  0
   63.7569  -15.2044  -10.9270 C   0  0  0  0  0  0  0  0  0  0  0  0
   64.7892  -14.6707  -11.6542 C   0  0  0  0  0  0  0  0  0  0  0  0
   64.9336  -14.9904  -12.9989 O   0  0  0  0  0  0  0  0  0  0  0  0
   65.6909  -13.8098  -11.0456 C   0  0  0  0  0  0  0  0  0  0  0  0
   65.5794  -13.4709   -9.7195 C   0  0  0  0  0  0  0  0  0  0  0  0
   64.4718  -14.4102  -13.7105 H   0  0  0  0  0  0  0  0  0  0  0  0
   64.3347  -10.1806   -4.2495 C   0  0  0  0  0  0  0  0  0  0  0  0
   64.2637   -9.8505   -2.8410 C   0  0  0  0  0  0  0  0  0  0  0  0
   63.5950  -10.6724   -1.9167 C   0  0  0  0  0  0  0  0  0  0  0  0
   63.6257  -10.1150   -0.6982 N   0  0  0  0  0  0  0  0  0  0  0  0
   64.2934   -8.9427   -0.7603 C   0  0  0  0  0  0  0  0  0  0  0  0
   64.6196   -8.0064    0.1842 C   0  0  0  0  0  0  0  0  0  0  0  0
   65.3442   -6.8878   -0.1492 C   0  0  0  0  0  0  0  0  0  0  0  0
   65.7375   -6.7385   -1.4880 C   0  0  0  0  0  0  0  0  0  0  0  0
   65.4132   -7.6681   -2.4275 C   0  0  0  0  0  0  0  0  0  0  0  0
   64.6862   -8.7779   -2.0703 C   0  0  0  0  0  0  0  0  0  0  0  0
   63.1894  -10.5364    0.1734 H   0  0  0  0  0  0  0  0  0  0  0  0
 33 34  1  0  0  0
 34 35  1  0  0  0
 34  1  1  0  0  0
  1  2  1  0  0  0
  2  3  1  0  0  0
  3  4  2  0  0  0
  3  5  1  0  0  0
  5 36  1  0  0  0
 36 37  1  0  0  0
 37 38  2  0  0  0
 38 39  1  0  0  0
 39 40  1  0  0  0
 40 41  2  0  0  0
 41 42  1  0  0  0
 42 43  2  0  0  0
 43 44  1  0  0  0
 44 45  2  0  0  0
  5  6  1  0  0  0
  6  7  1  0  0  0
  7  8  2  0  0  0
  7  9  1  0  0  0
  9 10  1  0  0  0
 10 11  1  0  0  0
 11 12  1  0  0  0
 12 13  1  0  0  0
 13 14  1  0  0  0
 14 15  2  0  0  0
 14 16  1  0  0  0
 16 47  1  0  0  0
 47 48  1  0  0  0
 48 49  2  0  0  0
 49 50  1  0  0  0
 50 51  2  0  0  0
 51 52  1  0  0  0
 51 53  1  0  0  0
 53 54  2  0  0  0
 16 17  1  0  0  0
 17 18  1  0  0  0
 18 19  2  0  0  0
 18 20  1  0  0  0
 20 56  1  0  0  0
 56 57  1  0  0  0
 57 58  2  0  0  0
 58 59  1  0  0  0
 59 60  2  0  0  0
 60 61  1  0  0  0
 60 62  1  0  0  0
 62 63  2  0  0  0
 20 21  1  0  0  0
 21 22  1  0  0  0
 22 23  2  0  0  0
 22 24  1  0  0  0
 24 65  1  0  0  0
 65 66  1  0  0  0
 66 67  2  0  0  0
 67 68  1  0  0  0
 68 69  1  0  0  0
 69 70  2  0  0  0
 70 71  1  0  0  0
 71 72  2  0  0  0
 72 73  1  0  0  0
 73 74  2  0  0  0
 24 25  1  0  0  0
 25 26  1  0  0  0
 26 27  2  0  0  0
 26  1  1  0  0  0
 45 37  1  0  0  0
 13  9  1  0  0  0
 54 48  1  0  0  0
 63 57  1  0  0  0
 74 66  1  0  0  0
 45 40  1  0  0  0
 74 69  1  0  0  0
  2 28  1  0  0  0
 39 46  1  0  0  0
  6 29  1  0  0  0
 52 55  1  0  0  0
 17 30  1  0  0  0
 61 64  1  0  0  0
 21 31  1  0  0  0
 68 75  1  0  0  0
 25 32  1  0  0  0
M  END
> <minimizedAffinity>
-0.85787

> <CNNscore>
0.3849200308

> <CNNaffinity>
7.2013373375

> <CNN_VS>
2.7719390392

> <CNNaffinity_variance>
1.1197330952

$$$$
[H]Oc1c([H])c([H])c(C([H])([H])[C@@]2([H])C(=O)N([H])[C@@]([H])(C([H])([H])c3c([H])c([H])c(O[H])c([H])c3[H])C(=O)N3C([H])([H])C([H])([H])C([H])([H])[C@@]3([H])C(=O)N([H])[C@@]([H])(C([H])([H])c3c([H])n([H])c4c([H])c([H])c([H])c([H])c34)C(=O)N([H])[C@@]([H])(C([H])(C([H])([H])[H])C([H])([H])[H])C(=O)N([H])[C@@]([H])(C([H])([H])c3c([H])n([H])c4c([H])c([H])c([H])c([H])c34)C(=O)N2[H])c([H])c1[H]


 75 82  0  0  0  0  0  0  0  0999 V2000
   60.5582   -7.6987   -7.0920 C   0  0  0  0  0  0  0  0  0  0  0  0
   59.7885   -8.3255   -6.0546 N   0  0  0  0  0  0  0  0  0  0  0  0
   60.4106   -9.0561   -4.9779 C   0  0  0  0  0  0  0  0  0  0  0  0
   59.8683  -10.1300   -4.6419 O   0  0  0  0  0  0  0  0  0  0  0  0
   61.6164   -8.6180   -4.2764 C   0  0  0  0  0  0  0  0  0  0  0  0
   61.5506   -7.4046   -3.5170 N   0  0  0  0  0  0  0  0  0  0  0  0
   60.5683   -6.7307   -2.8231 C   0  0  0  0  0  0  0  0  0  0  0  0
   60.1547   -5.6389   -3.4242 O   0  0  0  0  0  0  0  0  0  0  0  0
   59.8754   -6.9504   -1.5566 C   0  0  0  0  0  0  0  0  0  0  0  0
   60.7750   -6.8640   -0.3402 C   0  0  0  0  0  0  0  0  0  0  0  0
   60.4813   -8.0547    0.5332 C   0  0  0  0  0  0  0  0  0  0  0  0
   59.8139   -9.0163   -0.4216 C   0  0  0  0  0  0  0  0  0  0  0  0
   59.0998   -8.1329   -1.3773 N   0  0  0  0  0  0  0  0  0  0  0  0
   57.8623   -8.4133   -1.9675 C   0  0  0  0  0  0  0  0  0  0  0  0
   57.6039   -9.6239   -2.2671 O   0  0  0  0  0  0  0  0  0  0  0  0
   56.8018   -7.3618   -2.2728 C   0  0  0  0  0  0  0  0  0  0  0  0
   55.7436   -8.0350   -2.9891 N   0  0  0  0  0  0  0  0  0  0  0  0
   55.4450   -7.9564   -4.3574 C   0  0  0  0  0  0  0  0  0  0  0  0
   55.4690   -9.0309   -5.0521 O   0  0  0  0  0  0  0  0  0  0  0  0
   55.0881   -6.7292   -5.1295 C   0  0  0  0  0  0  0  0  0  0  0  0
   55.3588   -6.9591   -6.5254 N   0  0  0  0  0  0  0  0  0  0  0  0
   56.3959   -6.4832   -7.3213 C   0  0  0  0  0  0  0  0  0  0  0  0
   56.3221   -6.6447   -8.5903 O   0  0  0  0  0  0  0  0  0  0  0  0
   57.6438   -5.7746   -6.8695 C   0  0  0  0  0  0  0  0  0  0  0  0
   58.7015   -6.0217   -7.8086 N   0  0  0  0  0  0  0  0  0  0  0  0
   60.0268   -6.4317   -7.6028 C   0  0  0  0  0  0  0  0  0  0  0  0
   60.9651   -5.5806   -7.9037 O   0  0  0  0  0  0  0  0  0  0  0  0
   58.7553   -8.2422   -6.1067 H   0  0  0  0  0  0  0  0  0  0  0  0
   62.5297   -6.9028   -3.5131 H   0  0  0  0  0  0  0  0  0  0  0  0
   55.1264   -8.6812   -2.3978 H   0  0  0  0  0  0  0  0  0  0  0  0
   54.6351   -7.5981   -6.9966 H   0  0  0  0  0  0  0  0  0  0  0  0
   58.3959   -5.8572   -8.8286 H   0  0  0  0  0  0  0  0  0  0  0  0
   61.1660   -8.0331   -9.4984 C   0  0  0  0  0  0  0  0  0  0  0  0
   60.5893   -8.7015   -8.2602 C   0  0  0  0  0  0  0  0  0  0  0  0
   61.3594   -9.9515   -7.8974 C   0  0  0  0  0  0  0  0  0  0  0  0
   62.3070   -9.7761   -3.5932 C   0  0  0  0  0  0  0  0  0  0  0  0
   62.9215   -9.4011   -2.2975 C   0  0  0  0  0  0  0  0  0  0  0  0
   62.6824   -9.9569   -1.0608 C   0  0  0  0  0  0  0  0  0  0  0  0
   63.4482   -9.3403   -0.1239 N   0  0  0  0  0  0  0  0  0  0  0  0
   64.1871   -8.3916   -0.7085 C   0  0  0  0  0  0  0  0  0  0  0  0
   65.1057   -7.5015   -0.2032 C   0  0  0  0  0  0  0  0  0  0  0  0
   65.7549   -6.5888   -1.0377 C   0  0  0  0  0  0  0  0  0  0  0  0
   65.4484   -6.6024   -2.3938 C   0  0  0  0  0  0  0  0  0  0  0  0
   64.5086   -7.5228   -2.8686 C   0  0  0  0  0  0  0  0  0  0  0  0
   63.8696   -8.4217   -2.0468 C   0  0  0  0  0  0  0  0  0  0  0  0
   63.4343   -9.5995    0.8996 H   0  0  0  0  0  0  0  0  0  0  0  0
   56.3072   -6.9526   -0.9078 C   0  0  0  0  0  0  0  0  0  0  0  0
   54.9038   -7.1958   -0.6215 C   0  0  0  0  0  0  0  0  0  0  0  0
   53.9677   -6.3848   -1.2416 C   0  0  0  0  0  0  0  0  0  0  0  0
   52.6130   -6.4884   -1.0438 C   0  0  0  0  0  0  0  0  0  0  0  0
   52.1659   -7.4595   -0.1751 C   0  0  0  0  0  0  0  0  0  0  0  0
   50.7832   -7.5732    0.0343 O   0  0  0  0  0  0  0  0  0  0  0  0
   53.0682   -8.2939    0.4672 C   0  0  0  0  0  0  0  0  0  0  0  0
   54.4202   -8.1533    0.2379 C   0  0  0  0  0  0  0  0  0  0  0  0
   50.3087   -8.2112   -0.6054 H   0  0  0  0  0  0  0  0  0  0  0  0
   53.5676   -6.6104   -4.9171 C   0  0  0  0  0  0  0  0  0  0  0  0
   52.8866   -5.7061   -5.8226 C   0  0  0  0  0  0  0  0  0  0  0  0
   51.8729   -4.9013   -5.2871 C   0  0  0  0  0  0  0  0  0  0  0  0
   51.1843   -3.9983   -6.0885 C   0  0  0  0  0  0  0  0  0  0  0  0
   51.5139   -3.9086   -7.4161 C   0  0  0  0  0  0  0  0  0  0  0  0
   50.8431   -3.0153   -8.2427 O   0  0  0  0  0  0  0  0  0  0  0  0
   52.5194   -4.7118   -7.9345 C   0  0  0  0  0  0  0  0  0  0  0  0
   53.2041   -5.6053   -7.1480 C   0  0  0  0  0  0  0  0  0  0  0  0
   51.2022   -2.0587   -8.3528 H   0  0  0  0  0  0  0  0  0  0  0  0
   57.3373   -4.2919   -6.8558 C   0  0  0  0  0  0  0  0  0  0  0  0
   56.5622   -3.7716   -7.9632 C   0  0  0  0  0  0  0  0  0  0  0  0
   55.4215   -2.9740   -7.7636 C   0  0  0  0  0  0  0  0  0  0  0  0
   54.8571   -2.6745   -8.9417 N   0  0  0  0  0  0  0  0  0  0  0  0
   55.5746   -3.2391   -9.9368 C   0  0  0  0  0  0  0  0  0  0  0  0
   55.4441   -3.2282  -11.3000 C   0  0  0  0  0  0  0  0  0  0  0  0
   56.3484   -3.8809  -12.1024 C   0  0  0  0  0  0  0  0  0  0  0  0
   57.4075   -4.5575  -11.4782 C   0  0  0  0  0  0  0  0  0  0  0  0
   57.5376   -4.5695  -10.1235 C   0  0  0  0  0  0  0  0  0  0  0  0
   56.6197   -3.9108   -9.3417 C   0  0  0  0  0  0  0  0  0  0  0  0
   53.9819   -2.0855   -9.0633 H   0  0  0  0  0  0  0  0  0  0  0  0
 33 34  1  0  0  0
 34 35  1  0  0  0
 34  1  1  0  0  0
  1  2  1  0  0  0
  2  3  1  0  0  0
  3  4  2  0  0  0
  3  5  1  0  0  0
  5 36  1  0  0  0
 36 37  1  0  0  0
 37 38  2  0  0  0
 38 39  1  0  0  0
 39 40  1  0  0  0
 40 41  2  0  0  0
 41 42  1  0  0  0
 42 43  2  0  0  0
 43 44  1  0  0  0
 44 45  2  0  0  0
  5  6  1  0  0  0
  6  7  1  0  0  0
  7  8  2  0  0  0
  7  9  1  0  0  0
  9 10  1  0  0  0
 10 11  1  0  0  0
 11 12  1  0  0  0
 12 13  1  0  0  0
 13 14  1  0  0  0
 14 15  2  0  0  0
 14 16  1  0  0  0
 16 47  1  0  0  0
 47 48  1  0  0  0
 48 49  2  0  0  0
 49 50  1  0  0  0
 50 51  2  0  0  0
 51 52  1  0  0  0
 51 53  1  0  0  0
 53 54  2  0  0  0
 16 17  1  0  0  0
 17 18  1  0  0  0
 18 19  2  0  0  0
 18 20  1  0  0  0
 20 56  1  0  0  0
 56 57  1  0  0  0
 57 58  2  0  0  0
 58 59  1  0  0  0
 59 60  2  0  0  0
 60 61  1  0  0  0
 60 62  1  0  0  0
 62 63  2  0  0  0
 20 21  1  0  0  0
 21 22  1  0  0  0
 22 23  2  0  0  0
 22 24  1  0  0  0
 24 65  1  0  0  0
 65 66  1  0  0  0
 66 67  2  0  0  0
 67 68  1  0  0  0
 68 69  1  0  0  0
 69 70  2  0  0  0
 70 71  1  0  0  0
 71 72  2  0  0  0
 72 73  1  0  0  0
 73 74  2  0  0  0
 24 25  1  0  0  0
 25 26  1  0  0  0
 26 27  2  0  0  0
 26  1  1  0  0  0
 45 37  1  0  0  0
 13  9  1  0  0  0
 54 48  1  0  0  0
 63 57  1  0  0  0
 74 66  1  0  0  0
 45 40  1  0  0  0
 74 69  1  0  0  0
  2 28  1  0  0  0
 39 46  1  0  0  0
  6 29  1  0  0  0
 52 55  1  0  0  0
 17 30  1  0  0  0
 61 64  1  0  0  0
 21 31  1  0  0  0
 68 75  1  0  0  0
 25 32  1  0  0  0
M  END
> <minimizedAffinity>
3.62236

> <CNNscore>
0.3802539110

> <CNNaffinity>
7.7665090561

> <CNN_VS>
2.9532454014

> <CNNaffinity_variance>
0.5279415846

$$$$
[H]Oc1c([H])c([H])c(C([H])([H])[C@@]2([H])C(=O)N([H])[C@@]([H])(C([H])([H])c3c([H])c([H])c(O[H])c([H])c3[H])C(=O)N3C([H])([H])C([H])([H])C([H])([H])[C@@]3([H])C(=O)N([H])[C@@]([H])(C([H])([H])c3c([H])n([H])c4c([H])c([H])c([H])c([H])c34)C(=O)N([H])[C@@]([H])(C([H])(C([H])([H])[H])C([H])([H])[H])C(=O)N([H])[C@@]([H])(C([H])([H])c3c([H])n([H])c4c([H])c([H])c([H])c([H])c34)C(=O)N2[H])c([H])c1[H]


 75 82  0  0  0  0  0  0  0  0999 V2000
   63.4344   -7.2570   -7.2895 C   0  0  0  0  0  0  0  0  0  0  0  0
   64.0106   -8.4038   -7.9333 N   0  0  0  0  0  0  0  0  0  0  0  0
   64.2484   -9.6376   -7.2252 C   0  0  0  0  0  0  0  0  0  0  0  0
   65.3293  -10.2186   -7.4580 O   0  0  0  0  0  0  0  0  0  0  0  0
   63.3140  -10.2297   -6.2690 C   0  0  0  0  0  0  0  0  0  0  0  0
   62.0385  -10.6655   -6.7553 N   0  0  0  0  0  0  0  0  0  0  0  0
   61.5567  -11.1554   -7.9504 C   0  0  0  0  0  0  0  0  0  0  0  0
   60.8122  -10.2971   -8.6087 O   0  0  0  0  0  0  0  0  0  0  0  0
   61.6807  -12.4253   -8.6608 C   0  0  0  0  0  0  0  0  0  0  0  0
   61.0466  -13.5978   -7.9401 C   0  0  0  0  0  0  0  0  0  0  0  0
   62.0361  -14.7325   -7.9509 C   0  0  0  0  0  0  0  0  0  0  0  0
   63.3479  -14.0330   -8.2185 C   0  0  0  0  0  0  0  0  0  0  0  0
   62.9693  -12.8773   -9.0698 N   0  0  0  0  0  0  0  0  0  0  0  0
   63.7420  -12.3537  -10.1124 C   0  0  0  0  0  0  0  0  0  0  0  0
   65.0085  -12.3572   -9.9773 O   0  0  0  0  0  0  0  0  0  0  0  0
   63.1646  -11.7810  -11.4017 C   0  0  0  0  0  0  0  0  0  0  0  0
   64.2745  -11.2349  -12.1472 N   0  0  0  0  0  0  0  0  0  0  0  0
   64.6074   -9.8847  -12.3302 C   0  0  0  0  0  0  0  0  0  0  0  0
   65.7525   -9.4766  -11.9302 O   0  0  0  0  0  0  0  0  0  0  0  0
   63.7598   -8.8282  -12.9586 C   0  0  0  0  0  0  0  0  0  0  0  0
   64.2099   -7.5367  -12.5070 N   0  0  0  0  0  0  0  0  0  0  0  0
   63.6360   -6.6656  -11.5865 C   0  0  0  0  0  0  0  0  0  0  0  0
   64.0992   -5.4744  -11.4944 O   0  0  0  0  0  0  0  0  0  0  0  0
   62.4961   -6.9498  -10.6467 C   0  0  0  0  0  0  0  0  0  0  0  0
   62.6168   -6.1184   -9.4823 N   0  0  0  0  0  0  0  0  0  0  0  0
   62.5433   -6.4410   -8.1194 C   0  0  0  0  0  0  0  0  0  0  0  0
   61.5392   -5.9555   -7.4476 O   0  0  0  0  0  0  0  0  0  0  0  0
   64.2614   -8.3154   -8.9364 H   0  0  0  0  0  0  0  0  0  0  0  0
   61.2747  -10.5622   -5.9702 H   0  0  0  0  0  0  0  0  0  0  0  0
   64.9245  -11.9568  -12.5996 H   0  0  0  0  0  0  0  0  0  0  0  0
   65.1298   -7.2253  -12.9663 H   0  0  0  0  0  0  0  0  0  0  0  0
   62.7924   -5.0843   -9.7287 H   0  0  0  0  0  0  0  0  0  0  0  0
   65.0804   -6.7678   -5.4664 C   0  0  0  0  0  0  0  0  0  0  0  0
   64.6198   -6.3725   -6.8607 C   0  0  0  0  0  0  0  0  0  0  0  0
   65.7539   -6.4438   -7.8586 C   0  0  0  0  0  0  0  0  0  0  0  0
   64.0162  -11.1886   -5.3350 C   0  0  0  0  0  0  0  0  0  0  0  0
   63.3018  -11.3722   -4.0493 C   0  0  0  0  0  0  0  0  0  0  0  0
   63.3863  -10.5884   -2.9206 C   0  0  0  0  0  0  0  0  0  0  0  0
   62.5707  -11.0844   -1.9545 N   0  0  0  0  0  0  0  0  0  0  0  0
   61.9495  -12.1752   -2.4147 C   0  0  0  0  0  0  0  0  0  0  0  0
   61.0403  -13.0280   -1.8337 C   0  0  0  0  0  0  0  0  0  0  0  0
   60.5303  -14.1214   -2.5378 C   0  0  0  0  0  0  0  0  0  0  0  0
   60.9659  -14.3264   -3.8420 C   0  0  0  0  0  0  0  0  0  0  0  0
   61.8915  -13.4369   -4.3969 C   0  0  0  0  0  0  0  0  0  0  0  0
   62.3933  -12.3602   -3.7037 C   0  0  0  0  0  0  0  0  0  0  0  0
   62.4698  -10.6467   -0.9990 H   0  0  0  0  0  0  0  0  0  0  0  0
   62.6243  -12.9946  -12.1160 C   0  0  0  0  0  0  0  0  0  0  0  0
   63.2113  -13.3077  -13.4075 C   0  0  0  0  0  0  0  0  0  0  0  0
   62.4991  -12.9581  -14.5429 C   0  0  0  0  0  0  0  0  0  0  0  0
   62.9237  -13.2149  -15.8231 C   0  0  0  0  0  0  0  0  0  0  0  0
   64.1313  -13.8591  -15.9795 C   0  0  0  0  0  0  0  0  0  0  0  0
   64.5738  -14.1267  -17.2837 O   0  0  0  0  0  0  0  0  0  0  0  0
   64.8775  -14.2271  -14.8701 C   0  0  0  0  0  0  0  0  0  0  0  0
   64.4114  -13.9485  -13.6030 C   0  0  0  0  0  0  0  0  0  0  0  0
   65.1429  -13.3878  -17.6981 H   0  0  0  0  0  0  0  0  0  0  0  0
   64.0659   -8.9793  -14.4602 C   0  0  0  0  0  0  0  0  0  0  0  0
   64.2028   -7.7345  -15.1905 C   0  0  0  0  0  0  0  0  0  0  0  0
   65.4015   -7.5233  -15.8837 C   0  0  0  0  0  0  0  0  0  0  0  0
   65.6020   -6.3613  -16.6193 C   0  0  0  0  0  0  0  0  0  0  0  0
   64.6044   -5.4217  -16.6547 C   0  0  0  0  0  0  0  0  0  0  0  0
   64.7755   -4.2496  -17.3814 O   0  0  0  0  0  0  0  0  0  0  0  0
   63.4221   -5.6424  -15.9633 C   0  0  0  0  0  0  0  0  0  0  0  0
   63.2174   -6.7887  -15.2352 C   0  0  0  0  0  0  0  0  0  0  0  0
   64.4889   -4.2181  -18.3679 H   0  0  0  0  0  0  0  0  0  0  0  0
   61.2165   -6.5927  -11.3732 C   0  0  0  0  0  0  0  0  0  0  0  0
   60.1040   -6.1441  -10.5614 C   0  0  0  0  0  0  0  0  0  0  0  0
   59.8624   -6.6639   -9.2774 C   0  0  0  0  0  0  0  0  0  0  0  0
   58.7453   -6.1280   -8.7663 N   0  0  0  0  0  0  0  0  0  0  0  0
   58.2186   -5.2602   -9.6571 C   0  0  0  0  0  0  0  0  0  0  0  0
   57.1156   -4.4492   -9.6256 C   0  0  0  0  0  0  0  0  0  0  0  0
   56.8127   -3.6257  -10.6827 C   0  0  0  0  0  0  0  0  0  0  0  0
   57.6706   -3.6444  -11.7930 C   0  0  0  0  0  0  0  0  0  0  0  0
   58.7667   -4.4505  -11.8255 C   0  0  0  0  0  0  0  0  0  0  0  0
   59.0481   -5.2668  -10.7568 C   0  0  0  0  0  0  0  0  0  0  0  0
   58.3445   -6.3571   -7.8101 H   0  0  0  0  0  0  0  0  0  0  0  0
 33 34  1  0  0  0
 34 35  1  0  0  0
 34  1  1  0  0  0
  1  2  1  0  0  0
  2  3  1  0  0  0
  3  4  2  0  0  0
  3  5  1  0  0  0
  5 36  1  0  0  0
 36 37  1  0  0  0
 37 38  2  0  0  0
 38 39  1  0  0  0
 39 40  1  0  0  0
 40 41  2  0  0  0
 41 42  1  0  0  0
 42 43  2  0  0  0
 43 44  1  0  0  0
 44 45  2  0  0  0
  5  6  1  0  0  0
  6  7  1  0  0  0
  7  8  2  0  0  0
  7  9  1  0  0  0
  9 10  1  0  0  0
 10 11  1  0  0  0
 11 12  1  0  0  0
 12 13  1  0  0  0
 13 14  1  0  0  0
 14 15  2  0  0  0
 14 16  1  0  0  0
 16 47  1  0  0  0
 47 48  1  0  0  0
 48 49  2  0  0  0
 49 50  1  0  0  0
 50 51  2  0  0  0
 51 52  1  0  0  0
 51 53  1  0  0  0
 53 54  2  0  0  0
 16 17  1  0  0  0
 17 18  1  0  0  0
 18 19  2  0  0  0
 18 20  1  0  0  0
 20 56  1  0  0  0
 56 57  1  0  0  0
 57 58  2  0  0  0
 58 59  1  0  0  0
 59 60  2  0  0  0
 60 61  1  0  0  0
 60 62  1  0  0  0
 62 63  2  0  0  0
 20 21  1  0  0  0
 21 22  1  0  0  0
 22 23  2  0  0  0
 22 24  1  0  0  0
 24 65  1  0  0  0
 65 66  1  0  0  0
 66 67  2  0  0  0
 67 68  1  0  0  0
 68 69  1  0  0  0
 69 70  2  0  0  0
 70 71  1  0  0  0
 71 72  2  0  0  0
 72 73  1  0  0  0
 73 74  2  0  0  0
 24 25  1  0  0  0
 25 26  1  0  0  0
 26 27  2  0  0  0
 26  1  1  0  0  0
 45 37  1  0  0  0
 13  9  1  0  0  0
 54 48  1  0  0  0
 63 57  1  0  0  0
 74 66  1  0  0  0
 45 40  1  0  0  0
 74 69  1  0  0  0
  2 28  1  0  0  0
 39 46  1  0  0  0
  6 29  1  0  0  0
 52 55  1  0  0  0
 17 30  1  0  0  0
 61 64  1  0  0  0
 21 31  1  0  0  0
 68 75  1  0  0  0
 25 32  1  0  0  0
M  END
> <minimizedAffinity>
-3.56259

> <CNNscore>
0.3293036819

> <CNNaffinity>
6.6441063881

> <CNN_VS>
2.1879286766

> <CNNaffinity_variance>
0.6065424085

$$$$
[H]Oc1c([H])c([H])c(C([H])([H])[C@@]2([H])C(=O)N([H])[C@@]([H])(C([H])([H])c3c([H])c([H])c(O[H])c([H])c3[H])C(=O)N3C([H])([H])C([H])([H])C([H])([H])[C@@]3([H])C(=O)N([H])[C@@]([H])(C([H])([H])c3c([H])n([H])c4c([H])c([H])c([H])c([H])c34)C(=O)N([H])[C@@]([H])(C([H])(C([H])([H])[H])C([H])([H])[H])C(=O)N([H])[C@@]([H])(C([H])([H])c3c([H])n([H])c4c([H])c([H])c([H])c([H])c34)C(=O)N2[H])c([H])c1[H]


 75 82  0  0  0  0  0  0  0  0999 V2000
   58.8590   -6.2075   -9.2438 C   0  0  0  0  0  0  0  0  0  0  0  0
   58.8647   -5.8002   -7.8670 N   0  0  0  0  0  0  0  0  0  0  0  0
   57.8259   -4.9670   -7.3132 C   0  0  0  0  0  0  0  0  0  0  0  0
   58.1898   -4.0571   -6.5387 O   0  0  0  0  0  0  0  0  0  0  0  0
   56.4020   -5.1254   -7.6054 C   0  0  0  0  0  0  0  0  0  0  0  0
   55.7593   -6.3361   -7.1879 N   0  0  0  0  0  0  0  0  0  0  0  0
   55.9304   -7.2356   -6.1573 C   0  0  0  0  0  0  0  0  0  0  0  0
   56.4467   -8.3810   -6.5392 O   0  0  0  0  0  0  0  0  0  0  0  0
   55.6634   -7.2107   -4.7218 C   0  0  0  0  0  0  0  0  0  0  0  0
   54.1926   -7.1097   -4.3714 C   0  0  0  0  0  0  0  0  0  0  0  0
   54.0432   -6.0393   -3.3231 C   0  0  0  0  0  0  0  0  0  0  0  0
   55.3166   -5.2408   -3.4732 C   0  0  0  0  0  0  0  0  0  0  0  0
   56.3204   -6.2465   -3.9027 N   0  0  0  0  0  0  0  0  0  0  0  0
   57.6698   -6.2512   -3.5322 C   0  0  0  0  0  0  0  0  0  0  0  0
   58.2561   -5.1286   -3.3969 O   0  0  0  0  0  0  0  0  0  0  0  0
   58.4831   -7.5150   -3.2774 C   0  0  0  0  0  0  0  0  0  0  0  0
   59.8455   -7.0932   -3.0495 N   0  0  0  0  0  0  0  0  0  0  0  0
   60.9399   -7.2107   -3.9191 C   0  0  0  0  0  0  0  0  0  0  0  0
   61.5489   -6.1461   -4.2842 O   0  0  0  0  0  0  0  0  0  0  0  0
   61.5021   -8.4709   -4.4894 C   0  0  0  0  0  0  0  0  0  0  0  0
   62.2414   -8.1549   -5.6845 N   0  0  0  0  0  0  0  0  0  0  0  0
   61.9055   -8.3581   -7.0192 C   0  0  0  0  0  0  0  0  0  0  0  0
   62.8079   -8.1918   -7.9134 O   0  0  0  0  0  0  0  0  0  0  0  0
   60.5670   -8.7644   -7.5732 C   0  0  0  0  0  0  0  0  0  0  0  0
   60.4278   -8.2570   -8.9091 N   0  0  0  0  0  0  0  0  0  0  0  0
   59.3757   -7.5527   -9.5125 C   0  0  0  0  0  0  0  0  0  0  0  0
   58.7311   -8.1541  -10.4706 O   0  0  0  0  0  0  0  0  0  0  0  0
   59.6539   -6.1217   -7.2747 H   0  0  0  0  0  0  0  0  0  0  0  0
   54.9448   -6.5949   -7.8808 H   0  0  0  0  0  0  0  0  0  0  0  0
   60.0294   -6.6219   -2.1049 H   0  0  0  0  0  0  0  0  0  0  0  0
   63.1907   -7.6932   -5.4846 H   0  0  0  0  0  0  0  0  0  0  0  0
   61.2879   -8.4670   -9.5232 H   0  0  0  0  0  0  0  0  0  0  0  0
   61.1149   -5.8276  -10.2630 C   0  0  0  0  0  0  0  0  0  0  0  0
   59.7573   -5.2010   -9.9865 C   0  0  0  0  0  0  0  0  0  0  0  0
   59.1051   -4.7105  -11.2598 C   0  0  0  0  0  0  0  0  0  0  0  0
   55.6373   -3.8524   -7.3230 C   0  0  0  0  0  0  0  0  0  0  0  0
   54.3044   -3.8219   -7.9706 C   0  0  0  0  0  0  0  0  0  0  0  0
   54.0058   -3.4582   -9.2645 C   0  0  0  0  0  0  0  0  0  0  0  0
   52.6691   -3.5707   -9.4767 N   0  0  0  0  0  0  0  0  0  0  0  0
   52.0762   -3.9990   -8.3575 C   0  0  0  0  0  0  0  0  0  0  0  0
   50.7602   -4.2654   -8.0595 C   0  0  0  0  0  0  0  0  0  0  0  0
   50.3878   -4.7095   -6.7886 C   0  0  0  0  0  0  0  0  0  0  0  0
   51.3821   -4.8753   -5.8311 C   0  0  0  0  0  0  0  0  0  0  0  0
   52.7085   -4.5935   -6.1732 C   0  0  0  0  0  0  0  0  0  0  0  0
   53.0751   -4.1566   -7.4247 C   0  0  0  0  0  0  0  0  0  0  0  0
   52.2067   -3.3454  -10.3988 H   0  0  0  0  0  0  0  0  0  0  0  0
   57.9008   -8.0571   -1.9958 C   0  0  0  0  0  0  0  0  0  0  0  0
   58.6863   -9.0568   -1.2929 C   0  0  0  0  0  0  0  0  0  0  0  0
   58.6579  -10.3558   -1.7729 C   0  0  0  0  0  0  0  0  0  0  0  0
   59.3323  -11.4019   -1.1933 C   0  0  0  0  0  0  0  0  0  0  0  0
   60.0798  -11.1356   -0.0673 C   0  0  0  0  0  0  0  0  0  0  0  0
   60.7723  -12.1980    0.5329 O   0  0  0  0  0  0  0  0  0  0  0  0
   60.1368   -9.8492    0.4474 C   0  0  0  0  0  0  0  0  0  0  0  0
   59.4430   -8.8295   -0.1682 C   0  0  0  0  0  0  0  0  0  0  0  0
   61.7203  -12.3381    0.1818 H   0  0  0  0  0  0  0  0  0  0  0  0
   62.4772   -8.9466   -3.3966 C   0  0  0  0  0  0  0  0  0  0  0  0
   62.4616  -10.3721   -3.1334 C   0  0  0  0  0  0  0  0  0  0  0  0
   61.6034  -11.1608   -3.9102 C   0  0  0  0  0  0  0  0  0  0  0  0
   61.5432  -12.5373   -3.7278 C   0  0  0  0  0  0  0  0  0  0  0  0
   62.3393  -13.1123   -2.7713 C   0  0  0  0  0  0  0  0  0  0  0  0
   62.3011  -14.4860   -2.5653 O   0  0  0  0  0  0  0  0  0  0  0  0
   63.1845  -12.3200   -2.0079 C   0  0  0  0  0  0  0  0  0  0  0  0
   63.2494  -10.9596   -2.1837 C   0  0  0  0  0  0  0  0  0  0  0  0
   62.9367  -15.0961   -3.0946 H   0  0  0  0  0  0  0  0  0  0  0  0
   60.5413  -10.2776   -7.6186 C   0  0  0  0  0  0  0  0  0  0  0  0
   61.7776  -10.9448   -7.9710 C   0  0  0  0  0  0  0  0  0  0  0  0
   62.5880  -11.5687   -7.0059 C   0  0  0  0  0  0  0  0  0  0  0  0
   63.6962  -12.0564   -7.5808 N   0  0  0  0  0  0  0  0  0  0  0  0
   63.6680  -11.7876   -8.9040 C   0  0  0  0  0  0  0  0  0  0  0  0
   64.5274  -12.0756   -9.9305 C   0  0  0  0  0  0  0  0  0  0  0  0
   64.2408  -11.6981  -11.2200 C   0  0  0  0  0  0  0  0  0  0  0  0
   63.0399  -11.0088  -11.4480 C   0  0  0  0  0  0  0  0  0  0  0  0
   62.1855  -10.7216  -10.4284 C   0  0  0  0  0  0  0  0  0  0  0  0
   62.4946  -11.1081   -9.1467 C   0  0  0  0  0  0  0  0  0  0  0  0
   64.4701  -12.5712   -7.0674 H   0  0  0  0  0  0  0  0  0  0  0  0
 33 34  1  0  0  0
 34 35  1  0  0  0
 34  1  1  0  0  0
  1  2  1  0  0  0
  2  3  1  0  0  0
  3  4  2  0  0  0
  3  5  1  0  0  0
  5 36  1  0  0  0
 36 37  1  0  0  0
 37 38  2  0  0  0
 38 39  1  0  0  0
 39 40  1  0  0  0
 40 41  2  0  0  0
 41 42  1  0  0  0
 42 43  2  0  0  0
 43 44  1  0  0  0
 44 45  2  0  0  0
  5  6  1  0  0  0
  6  7  1  0  0  0
  7  8  2  0  0  0
  7  9  1  0  0  0
  9 10  1  0  0  0
 10 11  1  0  0  0
 11 12  1  0  0  0
 12 13  1  0  0  0
 13 14  1  0  0  0
 14 15  2  0  0  0
 14 16  1  0  0  0
 16 47  1  0  0  0
 47 48  1  0  0  0
 48 49  2  0  0  0
 49 50  1  0  0  0
 50 51  2  0  0  0
 51 52  1  0  0  0
 51 53  1  0  0  0
 53 54  2  0  0  0
 16 17  1  0  0  0
 17 18  1  0  0  0
 18 19  2  0  0  0
 18 20  1  0  0  0
 20 56  1  0  0  0
 56 57  1  0  0  0
 57 58  2  0  0  0
 58 59  1  0  0  0
 59 60  2  0  0  0
 60 61  1  0  0  0
 60 62  1  0  0  0
 62 63  2  0  0  0
 20 21  1  0  0  0
 21 22  1  0  0  0
 22 23  2  0  0  0
 22 24  1  0  0  0
 24 65  1  0  0  0
 65 66  1  0  0  0
 66 67  2  0  0  0
 67 68  1  0  0  0
 68 69  1  0  0  0
 69 70  2  0  0  0
 70 71  1  0  0  0
 71 72  2  0  0  0
 72 73  1  0  0  0
 73 74  2  0  0  0
 24 25  1  0  0  0
 25 26  1  0  0  0
 26 27  2  0  0  0
 26  1  1  0  0  0
 45 37  1  0  0  0
 13  9  1  0  0  0
 54 48  1  0  0  0
 63 57  1  0  0  0
 74 66  1  0  0  0
 45 40  1  0  0  0
 74 69  1  0  0  0
  2 28  1  0  0  0
 39 46  1  0  0  0
  6 29  1  0  0  0
 52 55  1  0  0  0
 17 30  1  0  0  0
 61 64  1  0  0  0
 21 31  1  0  0  0
 68 75  1  0  0  0
 25 32  1  0  0  0
M  END
> <minimizedAffinity>
7.84748

> <CNNscore>
0.3254839182

> <CNNaffinity>
7.3452291489

> <CNN_VS>
2.3907539845

> <CNNaffinity_variance>
0.5822949409

$$$$
[H]Oc1c([H])c([H])c(C([H])([H])[C@@]2([H])C(=O)N([H])[C@@]([H])(C([H])([H])c3c([H])c([H])c(O[H])c([H])c3[H])C(=O)N3C([H])([H])C([H])([H])C([H])([H])[C@@]3([H])C(=O)N([H])[C@@]([H])(C([H])([H])c3c([H])n([H])c4c([H])c([H])c([H])c([H])c34)C(=O)N([H])[C@@]([H])(C([H])(C([H])([H])[H])C([H])([H])[H])C(=O)N([H])[C@@]([H])(C([H])([H])c3c([H])n([H])c4c([H])c([H])c([H])c([H])c34)C(=O)N2[H])c([H])c1[H]


 75 82  0  0  0  0  0  0  0  0999 V2000
   64.3668   -6.8256  -13.4628 C   0  0  0  0  0  0  0  0  0  0  0  0
   63.1488   -7.1768  -12.7886 N   0  0  0  0  0  0  0  0  0  0  0  0
   63.1041   -8.2071  -11.7803 C   0  0  0  0  0  0  0  0  0  0  0  0
   62.1273   -8.9847  -11.8158 O   0  0  0  0  0  0  0  0  0  0  0  0
   64.1198   -8.3874  -10.7440 C   0  0  0  0  0  0  0  0  0  0  0  0
   64.2893   -7.3427   -9.7780 N   0  0  0  0  0  0  0  0  0  0  0  0
   63.4713   -6.3955   -9.1998 C   0  0  0  0  0  0  0  0  0  0  0  0
   63.6929   -5.1753   -9.6313 O   0  0  0  0  0  0  0  0  0  0  0  0
   62.4047   -6.4350   -8.2031 C   0  0  0  0  0  0  0  0  0  0  0  0
   62.8674   -6.8580   -6.8235 C   0  0  0  0  0  0  0  0  0  0  0  0
   61.9062   -7.9002   -6.3168 C   0  0  0  0  0  0  0  0  0  0  0  0
   61.2438   -8.3913   -7.5824 C   0  0  0  0  0  0  0  0  0  0  0  0
   61.2286   -7.1971   -8.4641 N   0  0  0  0  0  0  0  0  0  0  0  0
   60.2109   -6.8726   -9.3682 C   0  0  0  0  0  0  0  0  0  0  0  0
   59.6211   -7.8268   -9.9714 O   0  0  0  0  0  0  0  0  0  0  0  0
   59.7611   -5.4490   -9.6758 C   0  0  0  0  0  0  0  0  0  0  0  0
   58.7920   -5.5411  -10.7427 N   0  0  0  0  0  0  0  0  0  0  0  0
   58.9643   -5.2046  -12.0935 C   0  0  0  0  0  0  0  0  0  0  0  0
   58.7906   -6.1131  -12.9779 O   0  0  0  0  0  0  0  0  0  0  0  0
   59.3370   -3.8681  -12.6453 C   0  0  0  0  0  0  0  0  0  0  0  0
   59.9031   -4.0449  -13.9580 N   0  0  0  0  0  0  0  0  0  0  0  0
   61.2283   -3.9664  -14.3740 C   0  0  0  0  0  0  0  0  0  0  0  0
   61.4793   -3.9507  -15.6304 O   0  0  0  0  0  0  0  0  0  0  0  0
   62.4559   -3.8944  -13.5071 C   0  0  0  0  0  0  0  0  0  0  0  0
   63.5720   -4.4624  -14.2093 N   0  0  0  0  0  0  0  0  0  0  0  0
   64.5234   -5.4072  -13.7981 C   0  0  0  0  0  0  0  0  0  0  0  0
   65.7550   -4.9997  -13.6863 O   0  0  0  0  0  0  0  0  0  0  0  0
   62.2869   -6.6648  -13.0570 H   0  0  0  0  0  0  0  0  0  0  0  0
   65.3362   -7.2990   -9.4423 H   0  0  0  0  0  0  0  0  0  0  0  0
   57.8331   -5.9276  -10.4612 H   0  0  0  0  0  0  0  0  0  0  0  0
   59.1682   -4.2710  -14.7082 H   0  0  0  0  0  0  0  0  0  0  0  0
   63.6670   -4.0813  -15.2127 H   0  0  0  0  0  0  0  0  0  0  0  0
   64.7310   -9.0739  -14.5043 C   0  0  0  0  0  0  0  0  0  0  0  0
   64.3664   -7.6236  -14.7799 C   0  0  0  0  0  0  0  0  0  0  0  0
   63.0379   -7.5136  -15.4942 C   0  0  0  0  0  0  0  0  0  0  0  0
   64.0926   -9.7917  -10.1852 C   0  0  0  0  0  0  0  0  0  0  0  0
   64.5163  -10.8150  -11.1703 C   0  0  0  0  0  0  0  0  0  0  0  0
   65.7518  -10.9523  -11.7621 C   0  0  0  0  0  0  0  0  0  0  0  0
   65.7425  -12.0185  -12.6033 N   0  0  0  0  0  0  0  0  0  0  0  0
   64.5337  -12.5895  -12.5833 C   0  0  0  0  0  0  0  0  0  0  0  0
   64.0214  -13.6785  -13.2490 C   0  0  0  0  0  0  0  0  0  0  0  0
   62.6983  -14.0817  -13.0539 C   0  0  0  0  0  0  0  0  0  0  0  0
   61.9113  -13.3533  -12.1691 C   0  0  0  0  0  0  0  0  0  0  0  0
   62.4692  -12.2522  -11.5118 C   0  0  0  0  0  0  0  0  0  0  0  0
   63.7720  -11.8554  -11.7037 C   0  0  0  0  0  0  0  0  0  0  0  0
   66.5819  -12.3190  -13.1689 H   0  0  0  0  0  0  0  0  0  0  0  0
   59.0742   -5.0136   -8.4054 C   0  0  0  0  0  0  0  0  0  0  0  0
   57.6309   -4.8583   -8.4633 C   0  0  0  0  0  0  0  0  0  0  0  0
   56.8858   -5.3408   -7.4001 C   0  0  0  0  0  0  0  0  0  0  0  0
   55.5156   -5.2817   -7.3352 C   0  0  0  0  0  0  0  0  0  0  0  0
   54.8493   -4.7066   -8.3949 C   0  0  0  0  0  0  0  0  0  0  0  0
   53.4489   -4.6419   -8.3385 O   0  0  0  0  0  0  0  0  0  0  0  0
   55.5556   -4.2102   -9.4800 C   0  0  0  0  0  0  0  0  0  0  0  0
   56.9316   -4.2912   -9.5018 C   0  0  0  0  0  0  0  0  0  0  0  0
   53.0809   -3.7934   -7.9070 H   0  0  0  0  0  0  0  0  0  0  0  0
   57.9814   -3.1477  -12.7667 C   0  0  0  0  0  0  0  0  0  0  0  0
   57.3421   -3.2499  -14.0637 C   0  0  0  0  0  0  0  0  0  0  0  0
   56.0947   -3.8848  -14.1183 C   0  0  0  0  0  0  0  0  0  0  0  0
   55.4121   -4.0082  -15.3226 C   0  0  0  0  0  0  0  0  0  0  0  0
   55.9820   -3.4978  -16.4602 C   0  0  0  0  0  0  0  0  0  0  0  0
   55.3239   -3.6061  -17.6793 O   0  0  0  0  0  0  0  0  0  0  0  0
   57.2183   -2.8719  -16.3930 C   0  0  0  0  0  0  0  0  0  0  0  0
   57.8975   -2.7459  -15.2061 C   0  0  0  0  0  0  0  0  0  0  0  0
   54.6800   -2.8620  -17.9760 H   0  0  0  0  0  0  0  0  0  0  0  0
   62.7352   -2.4292  -13.2466 C   0  0  0  0  0  0  0  0  0  0  0  0
   63.8283   -1.8284  -13.9826 C   0  0  0  0  0  0  0  0  0  0  0  0
   64.9112   -1.2093  -13.3336 C   0  0  0  0  0  0  0  0  0  0  0  0
   65.7509   -0.6849  -14.2371 N   0  0  0  0  0  0  0  0  0  0  0  0
   65.2782   -0.9266  -15.4789 C   0  0  0  0  0  0  0  0  0  0  0  0
   65.7518   -0.6295  -16.7290 C   0  0  0  0  0  0  0  0  0  0  0  0
   65.0705   -1.0226  -17.8554 C   0  0  0  0  0  0  0  0  0  0  0  0
   63.8755   -1.7373  -17.6808 C   0  0  0  0  0  0  0  0  0  0  0  0
   63.4038   -2.0325  -16.4388 C   0  0  0  0  0  0  0  0  0  0  0  0
   64.1019   -1.6272  -15.3271 C   0  0  0  0  0  0  0  0  0  0  0  0
   66.6450   -0.1619  -14.0032 H   0  0  0  0  0  0  0  0  0  0  0  0
 33 34  1  0  0  0
 34 35  1  0  0  0
 34  1  1  0  0  0
  1  2  1  0  0  0
  2  3  1  0  0  0
  3  4  2  0  0  0
  3  5  1  0  0  0
  5 36  1  0  0  0
 36 37  1  0  0  0
 37 38  2  0  0  0
 38 39  1  0  0  0
 39 40  1  0  0  0
 40 41  2  0  0  0
 41 42  1  0  0  0
 42 43  2  0  0  0
 43 44  1  0  0  0
 44 45  2  0  0  0
  5  6  1  0  0  0
  6  7  1  0  0  0
  7  8  2  0  0  0
  7  9  1  0  0  0
  9 10  1  0  0  0
 10 11  1  0  0  0
 11 12  1  0  0  0
 12 13  1  0  0  0
 13 14  1  0  0  0
 14 15  2  0  0  0
 14 16  1  0  0  0
 16 47  1  0  0  0
 47 48  1  0  0  0
 48 49  2  0  0  0
 49 50  1  0  0  0
 50 51  2  0  0  0
 51 52  1  0  0  0
 51 53  1  0  0  0
 53 54  2  0  0  0
 16 17  1  0  0  0
 17 18  1  0  0  0
 18 19  2  0  0  0
 18 20  1  0  0  0
 20 56  1  0  0  0
 56 57  1  0  0  0
 57 58  2  0  0  0
 58 59  1  0  0  0
 59 60  2  0  0  0
 60 61  1  0  0  0
 60 62  1  0  0  0
 62 63  2  0  0  0
 20 21  1  0  0  0
 21 22  1  0  0  0
 22 23  2  0  0  0
 22 24  1  0  0  0
 24 65  1  0  0  0
 65 66  1  0  0  0
 66 67  2  0  0  0
 67 68  1  0  0  0
 68 69  1  0  0  0
 69 70  2  0  0  0
 70 71  1  0  0  0
 71 72  2  0  0  0
 72 73  1  0  0  0
 73 74  2  0  0  0
 24 25  1  0  0  0
 25 26  1  0  0  0
 26 27  2  0  0  0
 26  1  1  0  0  0
 45 37  1  0  0  0
 13  9  1  0  0  0
 54 48  1  0  0  0
 63 57  1  0  0  0
 74 66  1  0  0  0
 45 40  1  0  0  0
 74 69  1  0  0  0
  2 28  1  0  0  0
 39 46  1  0  0  0
  6 29  1  0  0  0
 52 55  1  0  0  0
 17 30  1  0  0  0
 61 64  1  0  0  0
 21 31  1  0  0  0
 68 75  1  0  0  0
 25 32  1  0  0  0
M  END
> <minimizedAffinity>
1.97220

> <CNNscore>
0.3193760514

> <CNNaffinity>
6.6868162155

> <CNN_VS>
2.1356089115

> <CNNaffinity_variance>
0.8344193697

$$$$
[H]Oc1c([H])c([H])c(C([H])([H])[C@@]2([H])C(=O)N([H])[C@@]([H])(C([H])([H])c3c([H])c([H])c(O[H])c([H])c3[H])C(=O)N3C([H])([H])C([H])([H])C([H])([H])[C@@]3([H])C(=O)N([H])[C@@]([H])(C([H])([H])c3c([H])n([H])c4c([H])c([H])c([H])c([H])c34)C(=O)N([H])[C@@]([H])(C([H])(C([H])([H])[H])C([H])([H])[H])C(=O)N([H])[C@@]([H])(C([H])([H])c3c([H])n([H])c4c([H])c([H])c([H])c([H])c34)C(=O)N2[H])c([H])c1[H]


 75 82  0  0  0  0  0  0  0  0999 V2000
   59.2122   -6.9758   -4.9009 C   0  0  0  0  0  0  0  0  0  0  0  0
   59.6715   -7.7639   -6.0097 N   0  0  0  0  0  0  0  0  0  0  0  0
   59.8705   -7.1951   -7.3200 C   0  0  0  0  0  0  0  0  0  0  0  0
   59.4848   -7.8777   -8.2923 O   0  0  0  0  0  0  0  0  0  0  0  0
   60.4833   -5.8903   -7.5652 C   0  0  0  0  0  0  0  0  0  0  0  0
   61.8558   -5.7105   -7.1948 N   0  0  0  0  0  0  0  0  0  0  0  0
   62.9655   -6.5236   -7.1073 C   0  0  0  0  0  0  0  0  0  0  0  0
   63.3209   -6.7975   -5.8732 O   0  0  0  0  0  0  0  0  0  0  0  0
   63.8510   -7.1557   -8.0815 C   0  0  0  0  0  0  0  0  0  0  0  0
   64.6526   -6.1738   -8.9119 C   0  0  0  0  0  0  0  0  0  0  0  0
   64.5413   -6.5940  -10.3534 C   0  0  0  0  0  0  0  0  0  0  0  0
   63.3100   -7.4690  -10.3551 C   0  0  0  0  0  0  0  0  0  0  0  0
   63.3156   -8.0961   -9.0095 N   0  0  0  0  0  0  0  0  0  0  0  0
   62.8940   -9.3993   -8.7232 C   0  0  0  0  0  0  0  0  0  0  0  0
   61.9095   -9.8670   -9.3819 O   0  0  0  0  0  0  0  0  0  0  0  0
   63.5400  -10.2968   -7.6740 C   0  0  0  0  0  0  0  0  0  0  0  0
   62.7365  -11.4946   -7.6004 N   0  0  0  0  0  0  0  0  0  0  0  0
   61.8392  -11.8685   -6.5891 C   0  0  0  0  0  0  0  0  0  0  0  0
   60.6131  -12.0631   -6.8995 O   0  0  0  0  0  0  0  0  0  0  0  0
   62.1514  -12.0765   -5.1438 C   0  0  0  0  0  0  0  0  0  0  0  0
   60.9386  -11.9406   -4.3787 N   0  0  0  0  0  0  0  0  0  0  0  0
   60.5124  -10.8970   -3.5634 C   0  0  0  0  0  0  0  0  0  0  0  0
   59.4920  -11.0811   -2.8105 O   0  0  0  0  0  0  0  0  0  0  0  0
   61.1170   -9.5245   -3.4443 C   0  0  0  0  0  0  0  0  0  0  0  0
   60.1013   -8.5856   -3.0592 N   0  0  0  0  0  0  0  0  0  0  0  0
   59.7687   -7.3317   -3.5923 C   0  0  0  0  0  0  0  0  0  0  0  0
   59.9689   -6.2922   -2.8343 O   0  0  0  0  0  0  0  0  0  0  0  0
   59.8521   -8.7717   -5.8400 H   0  0  0  0  0  0  0  0  0  0  0  0
   62.0387   -4.6658   -6.9018 H   0  0  0  0  0  0  0  0  0  0  0  0
   62.8338  -12.1657   -8.4301 H   0  0  0  0  0  0  0  0  0  0  0  0
   60.2835  -12.7871   -4.4712 H   0  0  0  0  0  0  0  0  0  0  0  0
   59.5162   -8.9291   -2.2222 H   0  0  0  0  0  0  0  0  0  0  0  0
   57.3678   -8.3877   -3.9643 C   0  0  0  0  0  0  0  0  0  0  0  0
   57.6877   -7.1839   -4.8367 C   0  0  0  0  0  0  0  0  0  0  0  0
   56.9789   -5.9414   -4.3459 C   0  0  0  0  0  0  0  0  0  0  0  0
   60.0998   -5.3487   -8.9233 C   0  0  0  0  0  0  0  0  0  0  0  0
   58.6503   -5.0640   -9.0449 C   0  0  0  0  0  0  0  0  0  0  0  0
   57.7180   -4.9991   -8.0339 C   0  0  0  0  0  0  0  0  0  0  0  0
   56.4972   -4.7071   -8.5525 N   0  0  0  0  0  0  0  0  0  0  0  0
   56.5978   -4.5773   -9.8794 C   0  0  0  0  0  0  0  0  0  0  0  0
   55.6637   -4.2921  -10.8476 C   0  0  0  0  0  0  0  0  0  0  0  0
   56.0269   -4.2124  -12.1940 C   0  0  0  0  0  0  0  0  0  0  0  0
   57.3581   -4.4294  -12.5312 C   0  0  0  0  0  0  0  0  0  0  0  0
   58.2775   -4.7171  -11.5175 C   0  0  0  0  0  0  0  0  0  0  0  0
   57.9198   -4.7952  -10.1917 C   0  0  0  0  0  0  0  0  0  0  0  0
   55.6259   -4.6059   -7.9647 H   0  0  0  0  0  0  0  0  0  0  0  0
   64.8852  -10.6266   -8.2715 C   0  0  0  0  0  0  0  0  0  0  0  0
   64.8922  -11.0931   -9.6474 C   0  0  0  0  0  0  0  0  0  0  0  0
   65.6618  -10.3943  -10.5628 C   0  0  0  0  0  0  0  0  0  0  0  0
   65.7415  -10.7104  -11.8965 C   0  0  0  0  0  0  0  0  0  0  0  0
   65.0094  -11.7883  -12.3433 C   0  0  0  0  0  0  0  0  0  0  0  0
   65.0836  -12.1192  -13.7047 O   0  0  0  0  0  0  0  0  0  0  0  0
   64.2254  -12.5165  -11.4612 C   0  0  0  0  0  0  0  0  0  0  0  0
   64.1760  -12.1624  -10.1298 C   0  0  0  0  0  0  0  0  0  0  0  0
   65.8242  -12.7805  -13.9404 H   0  0  0  0  0  0  0  0  0  0  0  0
   62.6253  -13.5407   -5.0939 C   0  0  0  0  0  0  0  0  0  0  0  0
   63.4487  -13.9614   -6.2104 C   0  0  0  0  0  0  0  0  0  0  0  0
   62.8195  -14.6648   -7.2454 C   0  0  0  0  0  0  0  0  0  0  0  0
   63.5387  -15.0885   -8.3566 C   0  0  0  0  0  0  0  0  0  0  0  0
   64.8786  -14.8067   -8.4229 C   0  0  0  0  0  0  0  0  0  0  0  0
   65.6245  -15.2174   -9.5212 O   0  0  0  0  0  0  0  0  0  0  0  0
   65.4903  -14.1099   -7.3909 C   0  0  0  0  0  0  0  0  0  0  0  0
   64.7853  -13.6878   -6.2906 C   0  0  0  0  0  0  0  0  0  0  0  0
   65.7149  -14.5952  -10.3342 H   0  0  0  0  0  0  0  0  0  0  0  0
   62.1639   -9.5891   -2.3523 C   0  0  0  0  0  0  0  0  0  0  0  0
   63.3712  -10.3343   -2.6437 C   0  0  0  0  0  0  0  0  0  0  0  0
   64.3261   -9.8729   -3.5670 C   0  0  0  0  0  0  0  0  0  0  0  0
   65.3129  -10.7706   -3.6964 N   0  0  0  0  0  0  0  0  0  0  0  0
   65.0639  -11.8266   -2.8923 C   0  0  0  0  0  0  0  0  0  0  0  0
   65.7501  -12.9839   -2.6369 C   0  0  0  0  0  0  0  0  0  0  0  0
   65.2750  -13.9032   -1.7333 C   0  0  0  0  0  0  0  0  0  0  0  0
   64.0653  -13.6159   -1.0827 C   0  0  0  0  0  0  0  0  0  0  0  0
   63.3823  -12.4663   -1.3363 C   0  0  0  0  0  0  0  0  0  0  0  0
   63.8766  -11.5627   -2.2456 C   0  0  0  0  0  0  0  0  0  0  0  0
   66.1542  -10.6601   -4.3349 H   0  0  0  0  0  0  0  0  0  0  0  0
 33 34  1  0  0  0
 34 35  1  0  0  0
 34  1  1  0  0  0
  1  2  1  0  0  0
  2  3  1  0  0  0
  3  4  2  0  0  0
  3  5  1  0  0  0
  5 36  1  0  0  0
 36 37  1  0  0  0
 37 38  2  0  0  0
 38 39  1  0  0  0
 39 40  1  0  0  0
 40 41  2  0  0  0
 41 42  1  0  0  0
 42 43  2  0  0  0
 43 44  1  0  0  0
 44 45  2  0  0  0
  5  6  1  0  0  0
  6  7  1  0  0  0
  7  8  2  0  0  0
  7  9  1  0  0  0
  9 10  1  0  0  0
 10 11  1  0  0  0
 11 12  1  0  0  0
 12 13  1  0  0  0
 13 14  1  0  0  0
 14 15  2  0  0  0
 14 16  1  0  0  0
 16 47  1  0  0  0
 47 48  1  0  0  0
 48 49  2  0  0  0
 49 50  1  0  0  0
 50 51  2  0  0  0
 51 52  1  0  0  0
 51 53  1  0  0  0
 53 54  2  0  0  0
 16 17  1  0  0  0
 17 18  1  0  0  0
 18 19  2  0  0  0
 18 20  1  0  0  0
 20 56  1  0  0  0
 56 57  1  0  0  0
 57 58  2  0  0  0
 58 59  1  0  0  0
 59 60  2  0  0  0
 60 61  1  0  0  0
 60 62  1  0  0  0
 62 63  2  0  0  0
 20 21  1  0  0  0
 21 22  1  0  0  0
 22 23  2  0  0  0
 22 24  1  0  0  0
 24 65  1  0  0  0
 65 66  1  0  0  0
 66 67  2  0  0  0
 67 68  1  0  0  0
 68 69  1  0  0  0
 69 70  2  0  0  0
 70 71  1  0  0  0
 71 72  2  0  0  0
 72 73  1  0  0  0
 73 74  2  0  0  0
 24 25  1  0  0  0
 25 26  1  0  0  0
 26 27  2  0  0  0
 26  1  1  0  0  0
 45 37  1  0  0  0
 13  9  1  0  0  0
 54 48  1  0  0  0
 63 57  1  0  0  0
 74 66  1  0  0  0
 45 40  1  0  0  0
 74 69  1  0  0  0
  2 28  1  0  0  0
 39 46  1  0  0  0
  6 29  1  0  0  0
 52 55  1  0  0  0
 17 30  1  0  0  0
 61 64  1  0  0  0
 21 31  1  0  0  0
 68 75  1  0  0  0
 25 32  1  0  0  0
M  END
> <minimizedAffinity>
4.40031

> <CNNscore>
0.2914672196

> <CNNaffinity>
6.9118142128

> <CNN_VS>
2.0145673752

> <CNNaffinity_variance>
0.6500906348

$$$$
[H]Oc1c([H])c([H])c(C([H])([H])[C@@]2([H])C(=O)N([H])[C@@]([H])(C([H])([H])c3c([H])c([H])c(O[H])c([H])c3[H])C(=O)N3C([H])([H])C([H])([H])C([H])([H])[C@@]3([H])C(=O)N([H])[C@@]([H])(C([H])([H])c3c([H])n([H])c4c([H])c([H])c([H])c([H])c34)C(=O)N([H])[C@@]([H])(C([H])(C([H])([H])[H])C([H])([H])[H])C(=O)N([H])[C@@]([H])(C([H])([H])c3c([H])n([H])c4c([H])c([H])c([H])c([H])c34)C(=O)N2[H])c([H])c1[H]


 75 82  0  0  0  0  0  0  0  0999 V2000
   58.9983   -6.2862   -9.2969 C   0  0  0  0  0  0  0  0  0  0  0  0
   58.9255   -5.8779   -7.9223 N   0  0  0  0  0  0  0  0  0  0  0  0
   57.8826   -5.0068   -7.4390 C   0  0  0  0  0  0  0  0  0  0  0  0
   58.2260   -4.1100   -6.6404 O   0  0  0  0  0  0  0  0  0  0  0  0
   56.4769   -5.1135   -7.8273 C   0  0  0  0  0  0  0  0  0  0  0  0
   55.7637   -6.2996   -7.4561 N   0  0  0  0  0  0  0  0  0  0  0  0
   55.8317   -7.2036   -6.4175 C   0  0  0  0  0  0  0  0  0  0  0  0
   56.3306   -8.3674   -6.7651 O   0  0  0  0  0  0  0  0  0  0  0  0
   55.4690   -7.1674   -5.0033 C   0  0  0  0  0  0  0  0  0  0  0  0
   53.9825   -7.0125   -4.7533 C   0  0  0  0  0  0  0  0  0  0  0  0
   53.8014   -5.9363   -3.7161 C   0  0  0  0  0  0  0  0  0  0  0  0
   55.1103   -5.1848   -3.7784 C   0  0  0  0  0  0  0  0  0  0  0  0
   56.1036   -6.2269   -4.1403 N   0  0  0  0  0  0  0  0  0  0  0  0
   57.4238   -6.2804   -3.6791 C   0  0  0  0  0  0  0  0  0  0  0  0
   58.0400   -5.1798   -3.5028 O   0  0  0  0  0  0  0  0  0  0  0  0
   58.1713   -7.5727   -3.3715 C   0  0  0  0  0  0  0  0  0  0  0  0
   59.5296   -7.2007   -3.0512 N   0  0  0  0  0  0  0  0  0  0  0  0
   60.6754   -7.3589   -3.8447 C   0  0  0  0  0  0  0  0  0  0  0  0
   61.3461   -6.3176   -4.1663 O   0  0  0  0  0  0  0  0  0  0  0  0
   61.2287   -8.6394   -4.3773 C   0  0  0  0  0  0  0  0  0  0  0  0
   62.0584   -8.3518   -5.5191 N   0  0  0  0  0  0  0  0  0  0  0  0
   61.8065   -8.5440   -6.8738 C   0  0  0  0  0  0  0  0  0  0  0  0
   62.7730   -8.4117   -7.7046 O   0  0  0  0  0  0  0  0  0  0  0  0
   60.4948   -8.9019   -7.5179 C   0  0  0  0  0  0  0  0  0  0  0  0
   60.4651   -8.3912   -8.8595 N   0  0  0  0  0  0  0  0  0  0  0  0
   59.4827   -7.6496   -9.5318 C   0  0  0  0  0  0  0  0  0  0  0  0
   58.8830   -8.2282  -10.5323 O   0  0  0  0  0  0  0  0  0  0  0  0
   59.6604   -6.2274   -7.2783 H   0  0  0  0  0  0  0  0  0  0  0  0
   54.9892   -6.5292   -8.2030 H   0  0  0  0  0  0  0  0  0  0  0  0
   59.6660   -6.7354   -2.0956 H   0  0  0  0  0  0  0  0  0  0  0  0
   63.0081   -7.9248   -5.2547 H   0  0  0  0  0  0  0  0  0  0  0  0
   61.3566   -8.6331   -9.4141 H   0  0  0  0  0  0  0  0  0  0  0  0
   61.3402   -5.9781  -10.1292 C   0  0  0  0  0  0  0  0  0  0  0  0
   59.9810   -5.3139   -9.9755 C   0  0  0  0  0  0  0  0  0  0  0  0
   59.4498   -4.8275  -11.3053 C   0  0  0  0  0  0  0  0  0  0  0  0
   55.7417   -3.8132   -7.5956 C   0  0  0  0  0  0  0  0  0  0  0  0
   54.4221   -3.7662   -8.2690 C   0  0  0  0  0  0  0  0  0  0  0  0
   54.1607   -3.4686   -9.5876 C   0  0  0  0  0  0  0  0  0  0  0  0
   52.8241   -3.5380   -9.8181 N   0  0  0  0  0  0  0  0  0  0  0  0
   52.1951   -3.8735   -8.6870 C   0  0  0  0  0  0  0  0  0  0  0  0
   50.8643   -4.0666   -8.3988 C   0  0  0  0  0  0  0  0  0  0  0  0
   50.4524   -4.4179   -7.1111 C   0  0  0  0  0  0  0  0  0  0  0  0
   51.4228   -4.5672   -6.1268 C   0  0  0  0  0  0  0  0  0  0  0  0
   52.7655   -4.3618   -6.4597 C   0  0  0  0  0  0  0  0  0  0  0  0
   53.1710   -4.0162   -7.7277 C   0  0  0  0  0  0  0  0  0  0  0  0
   52.3869   -3.3493  -10.7606 H   0  0  0  0  0  0  0  0  0  0  0  0
   57.4841   -8.0919   -2.1331 C   0  0  0  0  0  0  0  0  0  0  0  0
   56.6328   -7.1568   -1.4179 C   0  0  0  0  0  0  0  0  0  0  0  0
   55.3049   -7.5040   -1.2320 C   0  0  0  0  0  0  0  0  0  0  0  0
   54.3860   -6.7061   -0.5961 C   0  0  0  0  0  0  0  0  0  0  0  0
   54.8185   -5.4890   -0.1172 C   0  0  0  0  0  0  0  0  0  0  0  0
   53.8871   -4.6660    0.5337 O   0  0  0  0  0  0  0  0  0  0  0  0
   56.1397   -5.1013   -0.2811 C   0  0  0  0  0  0  0  0  0  0  0  0
   57.0275   -5.9355   -0.9263 C   0  0  0  0  0  0  0  0  0  0  0  0
   53.8230   -4.8131    1.5415 H   0  0  0  0  0  0  0  0  0  0  0  0
   62.1095   -9.1491   -3.2216 C   0  0  0  0  0  0  0  0  0  0  0  0
   61.6046  -10.3192   -2.5305 C   0  0  0  0  0  0  0  0  0  0  0  0
   60.3383  -10.7893   -2.9011 C   0  0  0  0  0  0  0  0  0  0  0  0
   59.7925  -11.9147   -2.2951 C   0  0  0  0  0  0  0  0  0  0  0  0
   60.5157  -12.5586   -1.3248 C   0  0  0  0  0  0  0  0  0  0  0  0
   59.9965  -13.6863   -0.7005 O   0  0  0  0  0  0  0  0  0  0  0  0
   61.7685  -12.0826   -0.9661 C   0  0  0  0  0  0  0  0  0  0  0  0
   62.3138  -10.9717   -1.5616 C   0  0  0  0  0  0  0  0  0  0  0  0
   60.1835  -14.6163   -1.0959 H   0  0  0  0  0  0  0  0  0  0  0  0
   60.4171  -10.4132   -7.5671 C   0  0  0  0  0  0  0  0  0  0  0  0
   61.6552  -11.1267   -7.8033 C   0  0  0  0  0  0  0  0  0  0  0  0
   62.1782  -11.3018   -9.0968 C   0  0  0  0  0  0  0  0  0  0  0  0
   63.2939  -12.0428   -9.0460 N   0  0  0  0  0  0  0  0  0  0  0  0
   63.5497  -12.3772   -7.7628 C   0  0  0  0  0  0  0  0  0  0  0  0
   64.5552  -13.0937   -7.1706 C   0  0  0  0  0  0  0  0  0  0  0  0
   64.5917  -13.2686   -5.8084 C   0  0  0  0  0  0  0  0  0  0  0  0
   63.5653  -12.6891   -5.0469 C   0  0  0  0  0  0  0  0  0  0  0  0
   62.5652  -11.9773   -5.6346 C   0  0  0  0  0  0  0  0  0  0  0  0
   62.5492  -11.8174   -6.9991 C   0  0  0  0  0  0  0  0  0  0  0  0
   63.8779  -12.3193   -9.8886 H   0  0  0  0  0  0  0  0  0  0  0  0
 33 34  1  0  0  0
 34 35  1  0  0  0
 34  1  1  0  0  0
  1  2  1  0  0  0
  2  3  1  0  0  0
  3  4  2  0  0  0
  3  5  1  0  0  0
  5 36  1  0  0  0
 36 37  1  0  0  0
 37 38  2  0  0  0
 38 39  1  0  0  0
 39 40  1  0  0  0
 40 41  2  0  0  0
 41 42  1  0  0  0
 42 43  2  0  0  0
 43 44  1  0  0  0
 44 45  2  0  0  0
  5  6  1  0  0  0
  6  7  1  0  0  0
  7  8  2  0  0  0
  7  9  1  0  0  0
  9 10  1  0  0  0
 10 11  1  0  0  0
 11 12  1  0  0  0
 12 13  1  0  0  0
 13 14  1  0  0  0
 14 15  2  0  0  0
 14 16  1  0  0  0
 16 47  1  0  0  0
 47 48  1  0  0  0
 48 49  2  0  0  0
 49 50  1  0  0  0
 50 51  2  0  0  0
 51 52  1  0  0  0
 51 53  1  0  0  0
 53 54  2  0  0  0
 16 17  1  0  0  0
 17 18  1  0  0  0
 18 19  2  0  0  0
 18 20  1  0  0  0
 20 56  1  0  0  0
 56 57  1  0  0  0
 57 58  2  0  0  0
 58 59  1  0  0  0
 59 60  2  0  0  0
 60 61  1  0  0  0
 60 62  1  0  0  0
 62 63  2  0  0  0
 20 21  1  0  0  0
 21 22  1  0  0  0
 22 23  2  0  0  0
 22 24  1  0  0  0
 24 65  1  0  0  0
 65 66  1  0  0  0
 66 67  2  0  0  0
 67 68  1  0  0  0
 68 69  1  0  0  0
 69 70  2  0  0  0
 70 71  1  0  0  0
 71 72  2  0  0  0
 72 73  1  0  0  0
 73 74  2  0  0  0
 24 25  1  0  0  0
 25 26  1  0  0  0
 26 27  2  0  0  0
 26  1  1  0  0  0
 45 37  1  0  0  0
 13  9  1  0  0  0
 54 48  1  0  0  0
 63 57  1  0  0  0
 74 66  1  0  0  0
 45 40  1  0  0  0
 74 69  1  0  0  0
  2 28  1  0  0  0
 39 46  1  0  0  0
  6 29  1  0  0  0
 52 55  1  0  0  0
 17 30  1  0  0  0
 61 64  1  0  0  0
 21 31  1  0  0  0
 68 75  1  0  0  0
 25 32  1  0  0  0
M  END
> <minimizedAffinity>
7.08309

> <CNNscore>
0.2809344232

> <CNNaffinity>
7.4580421448

> <CNN_VS>
2.0952208042

> <CNNaffinity_variance>
0.6383978128

$$$$
[H]c1nc(C([H])([H])[H])oc1-c1c(N([H])[H])nc([H])c(-c2c([H])c(S(=O)(=O)N([H])C([H])([H])C(C([H])([H])[H])(C([H])([H])[H])C([H])([H])[H])c([H])c([H])c2C([H])([H])[H])c1[H]


 32 34  0  0  0  0  0  0  0  0999 V2000
   55.4492   -4.3799   -8.3522 C   0  0  0  0  0  0  0  0  0  0  0  0
   56.1311   -4.3239   -9.5623 C   0  0  0  0  0  0  0  0  0  0  0  0
   57.4072   -4.7946   -9.7556 C   0  0  0  0  0  0  0  0  0  0  0  0
   58.0320   -5.3551   -8.6624 C   0  0  0  0  0  0  0  0  0  0  0  0
   57.3897   -5.4298   -7.4423 C   0  0  0  0  0  0  0  0  0  0  0  0
   56.0886   -4.9384   -7.2852 C   0  0  0  0  0  0  0  0  0  0  0  0
   55.4811   -5.0398   -5.9407 C   0  0  0  0  0  0  0  0  0  0  0  0
   51.9534   -3.8681   -7.1494 C   0  0  0  0  0  0  0  0  0  0  0  0
   53.2343   -4.3643   -7.2757 C   0  0  0  0  0  0  0  0  0  0  0  0
   54.0938   -3.8766   -8.2322 C   0  0  0  0  0  0  0  0  0  0  0  0
   53.6573   -2.8843   -9.0633 C   0  0  0  0  0  0  0  0  0  0  0  0
   52.4067   -2.4145   -8.9245 N   0  0  0  0  0  0  0  0  0  0  0  0
   51.5623   -2.8668   -8.0136 C   0  0  0  0  0  0  0  0  0  0  0  0
   50.2315   -2.3053   -7.9314 N   0  0  0  0  0  0  0  0  0  0  0  0
   50.0264   -1.4859   -7.3204 H   0  0  0  0  0  0  0  0  0  0  0  0
   49.5039   -2.7659   -8.5131 H   0  0  0  0  0  0  0  0  0  0  0  0
   48.3434   -4.0864   -3.7425 C   0  0  0  0  0  0  0  0  0  0  0  0
   49.4654   -4.4808   -4.6559 C   0  0  0  0  0  0  0  0  0  0  0  0
   49.9811   -5.7271   -4.7405 N   0  0  0  0  0  0  0  0  0  0  0  0
   50.9726   -5.6726   -5.6745 C   0  0  0  0  0  0  0  0  0  0  0  0
   51.0347   -4.3776   -6.1395 C   0  0  0  0  0  0  0  0  0  0  0  0
   50.1215   -3.7208   -5.5018 O   0  0  0  0  0  0  0  0  0  0  0  0
   58.2242   -4.7017  -11.2982 S   0  0  0  0  0  0  0  0  0  0  0  0
   58.3534   -3.2447  -11.6438 O   0  0  0  0  0  0  0  0  0  0  0  0
   57.4106   -5.3394  -12.3874 O   0  0  0  0  0  0  0  0  0  0  0  0
   59.8126   -5.3561  -11.2169 N   0  0  0  0  0  0  0  0  0  0  0  0
   59.8196   -6.2130  -11.8135 H   0  0  0  0  0  0  0  0  0  0  0  0
   60.1558   -5.7881   -9.8726 C   0  0  0  0  0  0  0  0  0  0  0  0
   61.3818   -6.6737  -10.0024 C   0  0  0  0  0  0  0  0  0  0  0  0
   61.0292   -8.1364   -9.8884 C   0  0  0  0  0  0  0  0  0  0  0  0
   62.3046   -6.3111   -8.8576 C   0  0  0  0  0  0  0  0  0  0  0  0
   62.1050   -6.4259  -11.3076 C   0  0  0  0  0  0  0  0  0  0  0  0
 17 18  1  0  0  0
 18 19  2  0  0  0
 19 20  1  0  0  0
 20 21  2  0  0  0
 21 22  1  0  0  0
 21  8  1  0  0  0
  8  9  2  0  0  0
  9 10  1  0  0  0
 10 11  2  0  0  0
 11 12  1  0  0  0
 12 13  2  0  0  0
 13 14  1  0  0  0
 10  1  1  0  0  0
  1  2  2  0  0  0
  2  3  1  0  0  0
  3  4  2  0  0  0
  4  5  1  0  0  0
  5  6  2  0  0  0
  6  7  1  0  0  0
  3 23  1  0  0  0
 23 24  2  0  0  0
 23 25  2  0  0  0
 23 26  1  0  0  0
 26 28  1  0  0  0
 28 29  1  0  0  0
 29 30  1  0  0  0
 29 31  1  0  0  0
 29 32  1  0  0  0
 22 18  1  0  0  0
 13  8  1  0  0  0
  6  1  1  0  0  0
 14 15  1  0  0  0
 14 16  1  0  0  0
 26 27  1  0  0  0
M  END
> <minimizedAffinity>
-8.29595

> <CNNscore>
0.7976583838

> <CNNaffinity>
7.4577684402

> <CNN_VS>
5.9487514496

> <CNNaffinity_variance>
0.2245223075

$$$$
[H]c1nc(C([H])([H])[H])oc1-c1c(N([H])[H])nc([H])c(-c2c([H])c(S(=O)(=O)N([H])C([H])([H])C(C([H])([H])[H])(C([H])([H])[H])C([H])([H])[H])c([H])c([H])c2C([H])([H])[H])c1[H]


 32 34  0  0  0  0  0  0  0  0999 V2000
   55.3294   -4.0177   -9.9081 C   0  0  0  0  0  0  0  0  0  0  0  0
   55.4617   -4.0019  -11.2918 C   0  0  0  0  0  0  0  0  0  0  0  0
   56.6073   -4.3510  -11.9651 C   0  0  0  0  0  0  0  0  0  0  0  0
   57.6829   -4.7392  -11.1959 C   0  0  0  0  0  0  0  0  0  0  0  0
   57.5932   -4.7684   -9.8183 C   0  0  0  0  0  0  0  0  0  0  0  0
   56.4078   -4.4047   -9.1687 C   0  0  0  0  0  0  0  0  0  0  0  0
   56.4025   -4.4453   -7.6905 C   0  0  0  0  0  0  0  0  0  0  0  0
   52.3892   -4.0242   -7.6094 C   0  0  0  0  0  0  0  0  0  0  0  0
   53.5673   -4.3877   -8.2279 C   0  0  0  0  0  0  0  0  0  0  0  0
   54.0786   -3.6514   -9.2709 C   0  0  0  0  0  0  0  0  0  0  0  0
   53.3970   -2.5442   -9.6898 C   0  0  0  0  0  0  0  0  0  0  0  0
   52.2516   -2.2068   -9.0748 N   0  0  0  0  0  0  0  0  0  0  0  0
   51.7401   -2.8980   -8.0709 C   0  0  0  0  0  0  0  0  0  0  0  0
   50.5004   -2.4654   -7.4636 N   0  0  0  0  0  0  0  0  0  0  0  0
   50.4943   -1.8068   -6.6554 H   0  0  0  0  0  0  0  0  0  0  0  0
   49.6288   -2.8488   -7.8799 H   0  0  0  0  0  0  0  0  0  0  0  0
   50.1095   -5.1974   -3.3534 C   0  0  0  0  0  0  0  0  0  0  0  0
   50.8483   -5.3159   -4.6530 C   0  0  0  0  0  0  0  0  0  0  0  0
   51.2575   -6.4834   -5.1968 N   0  0  0  0  0  0  0  0  0  0  0  0
   51.8840   -6.1669   -6.3655 C   0  0  0  0  0  0  0  0  0  0  0  0
   51.8387   -4.7972   -6.5035 C   0  0  0  0  0  0  0  0  0  0  0  0
   51.2155   -4.3498   -5.4626 O   0  0  0  0  0  0  0  0  0  0  0  0
   56.7255   -4.3150  -13.7089 S   0  0  0  0  0  0  0  0  0  0  0  0
   55.6337   -3.4109  -14.2081 O   0  0  0  0  0  0  0  0  0  0  0  0
   56.4758   -5.6717  -14.3022 O   0  0  0  0  0  0  0  0  0  0  0  0
   58.2242   -3.6524  -14.2309 N   0  0  0  0  0  0  0  0  0  0  0  0
   58.5588   -3.0202  -13.4702 H   0  0  0  0  0  0  0  0  0  0  0  0
   58.0710   -2.8250  -15.4156 C   0  0  0  0  0  0  0  0  0  0  0  0
   59.2139   -3.1867  -16.3468 C   0  0  0  0  0  0  0  0  0  0  0  0
   60.5023   -3.4039  -15.5920 C   0  0  0  0  0  0  0  0  0  0  0  0
   59.3991   -2.0131  -17.2859 C   0  0  0  0  0  0  0  0  0  0  0  0
   58.8906   -4.4177  -17.1641 C   0  0  0  0  0  0  0  0  0  0  0  0
 17 18  1  0  0  0
 18 19  2  0  0  0
 19 20  1  0  0  0
 20 21  2  0  0  0
 21 22  1  0  0  0
 21  8  1  0  0  0
  8  9  2  0  0  0
  9 10  1  0  0  0
 10 11  2  0  0  0
 11 12  1  0  0  0
 12 13  2  0  0  0
 13 14  1  0  0  0
 10  1  1  0  0  0
  1  2  2  0  0  0
  2  3  1  0  0  0
  3  4  2  0  0  0
  4  5  1  0  0  0
  5  6  2  0  0  0
  6  7  1  0  0  0
  3 23  1  0  0  0
 23 24  2  0  0  0
 23 25  2  0  0  0
 23 26  1  0  0  0
 26 28  1  0  0  0
 28 29  1  0  0  0
 29 30  1  0  0  0
 29 31  1  0  0  0
 29 32  1  0  0  0
 22 18  1  0  0  0
 13  8  1  0  0  0
  6  1  1  0  0  0
 14 15  1  0  0  0
 14 16  1  0  0  0
 26 27  1  0  0  0
M  END
> <minimizedAffinity>
-8.91730

> <CNNscore>
0.7652607560

> <CNNaffinity>
7.1480445862

> <CNN_VS>
5.4701180458

> <CNNaffinity_variance>
0.1056155413

$$$$
[H]c1nc(C([H])([H])[H])oc1-c1c(N([H])[H])nc([H])c(-c2c([H])c(S(=O)(=O)N([H])C([H])([H])C(C([H])([H])[H])(C([H])([H])[H])C([H])([H])[H])c([H])c([H])c2C([H])([H])[H])c1[H]


 32 34  0  0  0  0  0  0  0  0999 V2000
   54.7850   -4.4884   -7.6659 C   0  0  0  0  0  0  0  0  0  0  0  0
   55.1466   -5.1544   -6.5005 C   0  0  0  0  0  0  0  0  0  0  0  0
   56.3452   -5.8002   -6.3167 C   0  0  0  0  0  0  0  0  0  0  0  0
   57.2313   -5.7719   -7.3718 C   0  0  0  0  0  0  0  0  0  0  0  0
   56.9109   -5.1215   -8.5470 C   0  0  0  0  0  0  0  0  0  0  0  0
   55.6784   -4.4749   -8.6960 C   0  0  0  0  0  0  0  0  0  0  0  0
   55.4070   -3.8193   -9.9935 C   0  0  0  0  0  0  0  0  0  0  0  0
   51.3112   -3.3377   -6.9331 C   0  0  0  0  0  0  0  0  0  0  0  0
   52.5186   -3.9978   -6.8370 C   0  0  0  0  0  0  0  0  0  0  0  0
   53.5056   -3.8137   -7.7769 C   0  0  0  0  0  0  0  0  0  0  0  0
   53.2715   -2.9596   -8.8168 C   0  0  0  0  0  0  0  0  0  0  0  0
   52.0894   -2.3262   -8.8929 N   0  0  0  0  0  0  0  0  0  0  0  0
   51.1256   -2.4866   -8.0026 C   0  0  0  0  0  0  0  0  0  0  0  0
   49.8811   -1.7657   -8.1589 N   0  0  0  0  0  0  0  0  0  0  0  0
   49.7441   -0.8236   -7.7340 H   0  0  0  0  0  0  0  0  0  0  0  0
   49.1432   -2.2418   -8.7146 H   0  0  0  0  0  0  0  0  0  0  0  0
   47.1671   -2.6695   -4.2748 C   0  0  0  0  0  0  0  0  0  0  0  0
   48.4573   -3.2416   -4.7815 C   0  0  0  0  0  0  0  0  0  0  0  0
   49.0554   -4.3441   -4.2784 N   0  0  0  0  0  0  0  0  0  0  0  0
   50.1937   -4.5319   -5.0047 C   0  0  0  0  0  0  0  0  0  0  0  0
   50.2587   -3.5255   -5.9428 C   0  0  0  0  0  0  0  0  0  0  0  0
   49.2071   -2.7951   -5.7625 O   0  0  0  0  0  0  0  0  0  0  0  0
   56.7549   -6.6252   -4.8309 S   0  0  0  0  0  0  0  0  0  0  0  0
   58.2196   -6.9555   -4.8972 O   0  0  0  0  0  0  0  0  0  0  0  0
   56.0177   -7.9276   -4.7072 O   0  0  0  0  0  0  0  0  0  0  0  0
   56.5139   -5.6186   -3.4574 N   0  0  0  0  0  0  0  0  0  0  0  0
   56.9143   -4.6832   -3.6918 H   0  0  0  0  0  0  0  0  0  0  0  0
   57.2426   -6.0986   -2.2955 C   0  0  0  0  0  0  0  0  0  0  0  0
   56.2642   -6.0846   -1.1350 C   0  0  0  0  0  0  0  0  0  0  0  0
   56.7216   -5.1651   -0.0296 C   0  0  0  0  0  0  0  0  0  0  0  0
   56.2103   -7.4978   -0.5932 C   0  0  0  0  0  0  0  0  0  0  0  0
   54.8778   -5.6838   -1.5878 C   0  0  0  0  0  0  0  0  0  0  0  0
 17 18  1  0  0  0
 18 19  2  0  0  0
 19 20  1  0  0  0
 20 21  2  0  0  0
 21 22  1  0  0  0
 21  8  1  0  0  0
  8  9  2  0  0  0
  9 10  1  0  0  0
 10 11  2  0  0  0
 11 12  1  0  0  0
 12 13  2  0  0  0
 13 14  1  0  0  0
 10  1  1  0  0  0
  1  2  2  0  0  0
  2  3  1  0  0  0
  3  4  2  0  0  0
  4  5  1  0  0  0
  5  6  2  0  0  0
  6  7  1  0  0  0
  3 23  1  0  0  0
 23 24  2  0  0  0
 23 25  2  0  0  0
 23 26  1  0  0  0
 26 28  1  0  0  0
 28 29  1  0  0  0
 29 30  1  0  0  0
 29 31  1  0  0  0
 29 32  1  0  0  0
 22 18  1  0  0  0
 13  8  1  0  0  0
  6  1  1  0  0  0
 14 15  1  0  0  0
 14 16  1  0  0  0
 26 27  1  0  0  0
M  END
> <minimizedAffinity>
-7.95026

> <CNNscore>
0.5367754102

> <CNNaffinity>
7.4494447708

> <CNN_VS>
3.9986786842

> <CNNaffinity_variance>
0.3660866618

$$$$
[H]c1nc(C([H])([H])[H])oc1-c1c(N([H])[H])nc([H])c(-c2c([H])c(S(=O)(=O)N([H])C([H])([H])C(C([H])([H])[H])(C([H])([H])[H])C([H])([H])[H])c([H])c([H])c2C([H])([H])[H])c1[H]


 32 34  0  0  0  0  0  0  0  0999 V2000
   51.6036   -4.7584   -5.5736 C   0  0  0  0  0  0  0  0  0  0  0  0
   52.1693   -5.6132   -4.6345 C   0  0  0  0  0  0  0  0  0  0  0  0
   51.5364   -6.0368   -3.4911 C   0  0  0  0  0  0  0  0  0  0  0  0
   50.2565   -5.5698   -3.2834 C   0  0  0  0  0  0  0  0  0  0  0  0
   49.6582   -4.7189   -4.1916 C   0  0  0  0  0  0  0  0  0  0  0  0
   50.3364   -4.3094   -5.3455 C   0  0  0  0  0  0  0  0  0  0  0  0
   49.6309   -3.3819   -6.2558 C   0  0  0  0  0  0  0  0  0  0  0  0
   54.3384   -4.3497   -8.0802 C   0  0  0  0  0  0  0  0  0  0  0  0
   53.6555   -4.7006   -6.9342 C   0  0  0  0  0  0  0  0  0  0  0  0
   52.3309   -4.3703   -6.7673 C   0  0  0  0  0  0  0  0  0  0  0  0
   51.6947   -3.6834   -7.7619 C   0  0  0  0  0  0  0  0  0  0  0  0
   52.3769   -3.3506   -8.8701 N   0  0  0  0  0  0  0  0  0  0  0  0
   53.6497   -3.6565   -9.0537 C   0  0  0  0  0  0  0  0  0  0  0  0
   54.3106   -3.2600  -10.2780 N   0  0  0  0  0  0  0  0  0  0  0  0
   54.3224   -3.8836  -11.1134 H   0  0  0  0  0  0  0  0  0  0  0  0
   54.7662   -2.3259  -10.2702 H   0  0  0  0  0  0  0  0  0  0  0  0
   58.6558   -5.5249  -10.2401 C   0  0  0  0  0  0  0  0  0  0  0  0
   57.6242   -5.2063   -9.1994 C   0  0  0  0  0  0  0  0  0  0  0  0
   57.8648   -5.1676   -7.8701 N   0  0  0  0  0  0  0  0  0  0  0  0
   56.6826   -4.8454   -7.2725 C   0  0  0  0  0  0  0  0  0  0  0  0
   55.7418   -4.6947   -8.2671 C   0  0  0  0  0  0  0  0  0  0  0  0
   56.3560   -4.9200   -9.3824 O   0  0  0  0  0  0  0  0  0  0  0  0
   52.2901   -7.1135   -2.3385 S   0  0  0  0  0  0  0  0  0  0  0  0
   51.3074   -8.2140   -2.0524 O   0  0  0  0  0  0  0  0  0  0  0  0
   52.5597   -6.4178   -1.0353 O   0  0  0  0  0  0  0  0  0  0  0  0
   53.7087   -7.8421   -2.9824 N   0  0  0  0  0  0  0  0  0  0  0  0
   53.6985   -8.8429   -2.6850 H   0  0  0  0  0  0  0  0  0  0  0  0
   54.9196   -7.2605   -2.4282 C   0  0  0  0  0  0  0  0  0  0  0  0
   55.7310   -6.7480   -3.6043 C   0  0  0  0  0  0  0  0  0  0  0  0
   55.3221   -7.4110   -4.8965 C   0  0  0  0  0  0  0  0  0  0  0  0
   57.1771   -7.0974   -3.3213 C   0  0  0  0  0  0  0  0  0  0  0  0
   55.6115   -5.2466   -3.7439 C   0  0  0  0  0  0  0  0  0  0  0  0
 17 18  1  0  0  0
 18 19  2  0  0  0
 19 20  1  0  0  0
 20 21  2  0  0  0
 21 22  1  0  0  0
 21  8  1  0  0  0
  8  9  2  0  0  0
  9 10  1  0  0  0
 10 11  2  0  0  0
 11 12  1  0  0  0
 12 13  2  0  0  0
 13 14  1  0  0  0
 10  1  1  0  0  0
  1  2  2  0  0  0
  2  3  1  0  0  0
  3  4  2  0  0  0
  4  5  1  0  0  0
  5  6  2  0  0  0
  6  7  1  0  0  0
  3 23  1  0  0  0
 23 24  2  0  0  0
 23 25  2  0  0  0
 23 26  1  0  0  0
 26 28  1  0  0  0
 28 29  1  0  0  0
 29 30  1  0  0  0
 29 31  1  0  0  0
 29 32  1  0  0  0
 22 18  1  0  0  0
 13  8  1  0  0  0
  6  1  1  0  0  0
 14 15  1  0  0  0
 14 16  1  0  0  0
 26 27  1  0  0  0
M  END
> <minimizedAffinity>
-9.46508

> <CNNscore>
0.4949621260

> <CNNaffinity>
7.2674264908

> <CNN_VS>
3.5971009731

> <CNNaffinity_variance>
0.1942653954

$$$$
[H]c1nc(C([H])([H])[H])oc1-c1c(N([H])[H])nc([H])c(-c2c([H])c(S(=O)(=O)N([H])C([H])([H])C(C([H])([H])[H])(C([H])([H])[H])C([H])([H])[H])c([H])c([H])c2C([H])([H])[H])c1[H]


 32 34  0  0  0  0  0  0  0  0999 V2000
   52.4834   -4.8404   -6.2705 C   0  0  0  0  0  0  0  0  0  0  0  0
   53.0122   -5.6037   -5.2360 C   0  0  0  0  0  0  0  0  0  0  0  0
   52.3228   -5.9545   -4.1006 C   0  0  0  0  0  0  0  0  0  0  0  0
   51.0224   -5.5083   -4.0039 C   0  0  0  0  0  0  0  0  0  0  0  0
   50.4594   -4.7473   -5.0092 C   0  0  0  0  0  0  0  0  0  0  0  0
   51.1950   -4.4101   -6.1513 C   0  0  0  0  0  0  0  0  0  0  0  0
   50.5233   -3.5759   -7.1710 C   0  0  0  0  0  0  0  0  0  0  0  0
   55.3431   -4.5811   -8.6545 C   0  0  0  0  0  0  0  0  0  0  0  0
   54.6025   -4.8610   -7.5249 C   0  0  0  0  0  0  0  0  0  0  0  0
   53.2708   -4.5263   -7.4477 C   0  0  0  0  0  0  0  0  0  0  0  0
   52.6860   -3.9069   -8.5156 C   0  0  0  0  0  0  0  0  0  0  0  0
   53.4240   -3.6428   -9.6063 N   0  0  0  0  0  0  0  0  0  0  0  0
   54.7048   -3.9544   -9.7044 C   0  0  0  0  0  0  0  0  0  0  0  0
   55.4275   -3.6341  -10.9161 N   0  0  0  0  0  0  0  0  0  0  0  0
   55.4828   -4.3098  -11.7081 H   0  0  0  0  0  0  0  0  0  0  0  0
   55.8812   -2.6996  -10.9448 H   0  0  0  0  0  0  0  0  0  0  0  0
   59.7915   -5.7726  -10.5197 C   0  0  0  0  0  0  0  0  0  0  0  0
   58.6935   -5.4502   -9.5506 C   0  0  0  0  0  0  0  0  0  0  0  0
   58.8443   -5.4126   -8.2081 N   0  0  0  0  0  0  0  0  0  0  0  0
   57.6259   -5.0859   -7.6912 C   0  0  0  0  0  0  0  0  0  0  0  0
   56.7547   -4.9314   -8.7468 C   0  0  0  0  0  0  0  0  0  0  0  0
   57.4416   -5.1590   -9.8184 O   0  0  0  0  0  0  0  0  0  0  0  0
   53.0316   -6.9173   -2.8253 S   0  0  0  0  0  0  0  0  0  0  0  0
   53.6898   -8.1006   -3.4775 O   0  0  0  0  0  0  0  0  0  0  0  0
   51.9804   -7.4569   -1.8985 O   0  0  0  0  0  0  0  0  0  0  0  0
   54.2510   -6.0504   -1.9771 N   0  0  0  0  0  0  0  0  0  0  0  0
   54.3998   -5.1535   -2.4906 H   0  0  0  0  0  0  0  0  0  0  0  0
   55.5254   -6.7485   -1.9908 C   0  0  0  0  0  0  0  0  0  0  0  0
   56.4385   -5.9642   -2.9157 C   0  0  0  0  0  0  0  0  0  0  0  0
   56.7613   -6.7380   -4.1702 C   0  0  0  0  0  0  0  0  0  0  0  0
   57.7257   -5.7226   -2.1554 C   0  0  0  0  0  0  0  0  0  0  0  0
   55.8332   -4.6281   -3.2848 C   0  0  0  0  0  0  0  0  0  0  0  0
 17 18  1  0  0  0
 18 19  2  0  0  0
 19 20  1  0  0  0
 20 21  2  0  0  0
 21 22  1  0  0  0
 21  8  1  0  0  0
  8  9  2  0  0  0
  9 10  1  0  0  0
 10 11  2  0  0  0
 11 12  1  0  0  0
 12 13  2  0  0  0
 13 14  1  0  0  0
 10  1  1  0  0  0
  1  2  2  0  0  0
  2  3  1  0  0  0
  3  4  2  0  0  0
  4  5  1  0  0  0
  5  6  2  0  0  0
  6  7  1  0  0  0
  3 23  1  0  0  0
 23 24  2  0  0  0
 23 25  2  0  0  0
 23 26  1  0  0  0
 26 28  1  0  0  0
 28 29  1  0  0  0
 29 30  1  0  0  0
 29 31  1  0  0  0
 29 32  1  0  0  0
 22 18  1  0  0  0
 13  8  1  0  0  0
  6  1  1  0  0  0
 14 15  1  0  0  0
 14 16  1  0  0  0
 26 27  1  0  0  0
M  END
> <minimizedAffinity>
-8.82628

> <CNNscore>
0.4593210220

> <CNNaffinity>
7.1831130981

> <CNN_VS>
3.2993547916

> <CNNaffinity_variance>
0.2316208780

$$$$
[H]c1nc(C([H])([H])[H])oc1-c1c(N([H])[H])nc([H])c(-c2c([H])c(S(=O)(=O)N([H])C([H])([H])C(C([H])([H])[H])(C([H])([H])[H])C([H])([H])[H])c([H])c([H])c2C([H])([H])[H])c1[H]


 32 34  0  0  0  0  0  0  0  0999 V2000
   56.6895   -4.7646  -10.0265 C   0  0  0  0  0  0  0  0  0  0  0  0
   56.2245   -4.5592  -11.3204 C   0  0  0  0  0  0  0  0  0  0  0  0
   57.0316   -4.4608  -12.4278 C   0  0  0  0  0  0  0  0  0  0  0  0
   58.3885   -4.5768  -12.2165 C   0  0  0  0  0  0  0  0  0  0  0  0
   58.8915   -4.7811  -10.9468 C   0  0  0  0  0  0  0  0  0  0  0  0
   58.0361   -4.8755   -9.8430 C   0  0  0  0  0  0  0  0  0  0  0  0
   58.6578   -5.0751   -8.5161 C   0  0  0  0  0  0  0  0  0  0  0  0
   53.7286   -4.2617   -7.8108 C   0  0  0  0  0  0  0  0  0  0  0  0
   54.6112   -4.1376   -8.8636 C   0  0  0  0  0  0  0  0  0  0  0  0
   55.7709   -4.8755   -8.9091 C   0  0  0  0  0  0  0  0  0  0  0  0
   56.0391   -5.7415   -7.8874 C   0  0  0  0  0  0  0  0  0  0  0  0
   55.1674   -5.8480   -6.8711 N   0  0  0  0  0  0  0  0  0  0  0  0
   54.0469   -5.1500   -6.8047 C   0  0  0  0  0  0  0  0  0  0  0  0
   53.1619   -5.3248   -5.6737 N   0  0  0  0  0  0  0  0  0  0  0  0
   52.3984   -6.0346   -5.6883 H   0  0  0  0  0  0  0  0  0  0  0  0
   53.3349   -4.7054   -4.8573 H   0  0  0  0  0  0  0  0  0  0  0  0
   49.2370   -2.6436   -6.4347 C   0  0  0  0  0  0  0  0  0  0  0  0
   50.5431   -2.7746   -7.1599 C   0  0  0  0  0  0  0  0  0  0  0  0
   50.9360   -1.9781   -8.1784 N   0  0  0  0  0  0  0  0  0  0  0  0
   52.1686   -2.4181   -8.5599 C   0  0  0  0  0  0  0  0  0  0  0  0
   52.4971   -3.4847   -7.7527 C   0  0  0  0  0  0  0  0  0  0  0  0
   51.4996   -3.6483   -6.9465 O   0  0  0  0  0  0  0  0  0  0  0  0
   56.3992   -4.2018  -14.0368 S   0  0  0  0  0  0  0  0  0  0  0  0
   55.7170   -2.8627  -14.0341 O   0  0  0  0  0  0  0  0  0  0  0  0
   55.3559   -5.2239  -14.3856 O   0  0  0  0  0  0  0  0  0  0  0  0
   57.6545   -4.1398  -15.2109 N   0  0  0  0  0  0  0  0  0  0  0  0
   58.5043   -4.5562  -14.7699 H   0  0  0  0  0  0  0  0  0  0  0  0
   58.0021   -2.7741  -15.5652 C   0  0  0  0  0  0  0  0  0  0  0  0
   58.9374   -2.8612  -16.7576 C   0  0  0  0  0  0  0  0  0  0  0  0
   58.8147   -1.6533  -17.6535 C   0  0  0  0  0  0  0  0  0  0  0  0
   58.5264   -4.0876  -17.5453 C   0  0  0  0  0  0  0  0  0  0  0  0
   60.3759   -3.0241  -16.3192 C   0  0  0  0  0  0  0  0  0  0  0  0
 17 18  1  0  0  0
 18 19  2  0  0  0
 19 20  1  0  0  0
 20 21  2  0  0  0
 21 22  1  0  0  0
 21  8  1  0  0  0
  8  9  2  0  0  0
  9 10  1  0  0  0
 10 11  2  0  0  0
 11 12  1  0  0  0
 12 13  2  0  0  0
 13 14  1  0  0  0
 10  1  1  0  0  0
  1  2  2  0  0  0
  2  3  1  0  0  0
  3  4  2  0  0  0
  4  5  1  0  0  0
  5  6  2  0  0  0
  6  7  1  0  0  0
  3 23  1  0  0  0
 23 24  2  0  0  0
 23 25  2  0  0  0
 23 26  1  0  0  0
 26 28  1  0  0  0
 28 29  1  0  0  0
 29 30  1  0  0  0
 29 31  1  0  0  0
 29 32  1  0  0  0
 22 18  1  0  0  0
 13  8  1  0  0  0
  6  1  1  0  0  0
 14 15  1  0  0  0
 14 16  1  0  0  0
 26 27  1  0  0  0
M  END
> <minimizedAffinity>
-7.23833

> <CNNscore>
0.4462451041

> <CNNaffinity>
6.8405776024

> <CNN_VS>
3.0525741577

> <CNNaffinity_variance>
0.2213316411

$$$$
[H]c1nc(C([H])([H])[H])oc1-c1c(N([H])[H])nc([H])c(-c2c([H])c(S(=O)(=O)N([H])C([H])([H])C(C([H])([H])[H])(C([H])([H])[H])C([H])([H])[H])c([H])c([H])c2C([H])([H])[H])c1[H]


 32 34  0  0  0  0  0  0  0  0999 V2000
   57.2154   -4.8425   -9.9473 C   0  0  0  0  0  0  0  0  0  0  0  0
   58.2333   -5.5611   -9.3307 C   0  0  0  0  0  0  0  0  0  0  0  0
   59.4652   -5.7970   -9.8912 C   0  0  0  0  0  0  0  0  0  0  0  0
   59.6825   -5.2767  -11.1487 C   0  0  0  0  0  0  0  0  0  0  0  0
   58.6977   -4.5571  -11.7961 C   0  0  0  0  0  0  0  0  0  0  0  0
   57.4543   -4.3383  -11.1916 C   0  0  0  0  0  0  0  0  0  0  0  0
   56.4489   -3.5744  -11.9614 C   0  0  0  0  0  0  0  0  0  0  0  0
   54.5305   -4.8197   -7.3552 C   0  0  0  0  0  0  0  0  0  0  0  0
   55.7310   -5.0520   -7.9935 C   0  0  0  0  0  0  0  0  0  0  0  0
   55.9457   -4.6205   -9.2816 C   0  0  0  0  0  0  0  0  0  0  0  0
   54.9439   -3.9522   -9.9263 C   0  0  0  0  0  0  0  0  0  0  0  0
   53.7822   -3.7360   -9.2878 N   0  0  0  0  0  0  0  0  0  0  0  0
   53.5519   -4.1407   -8.0507 C   0  0  0  0  0  0  0  0  0  0  0  0
   52.2714   -3.8665   -7.4357 N   0  0  0  0  0  0  0  0  0  0  0  0
   52.1086   -2.9932   -6.8901 H   0  0  0  0  0  0  0  0  0  0  0  0
   51.5349   -4.5870   -7.5718 H   0  0  0  0  0  0  0  0  0  0  0  0
   52.2380   -6.4875   -3.2748 C   0  0  0  0  0  0  0  0  0  0  0  0
   53.3024   -5.9980   -4.2109 C   0  0  0  0  0  0  0  0  0  0  0  0
   54.6020   -5.8394   -3.8761 N   0  0  0  0  0  0  0  0  0  0  0  0
   55.2358   -5.3817   -4.9929 C   0  0  0  0  0  0  0  0  0  0  0  0
   54.2925   -5.2725   -5.9906 C   0  0  0  0  0  0  0  0  0  0  0  0
   53.1708   -5.6499   -5.4700 O   0  0  0  0  0  0  0  0  0  0  0  0
   60.7147   -6.7077   -9.0755 S   0  0  0  0  0  0  0  0  0  0  0  0
   60.4832   -6.5525   -7.5987 O   0  0  0  0  0  0  0  0  0  0  0  0
   62.0775   -6.1481   -9.3661 O   0  0  0  0  0  0  0  0  0  0  0  0
   60.6190   -8.3857   -9.4399 N   0  0  0  0  0  0  0  0  0  0  0  0
   59.6303   -8.6773   -9.2739 H   0  0  0  0  0  0  0  0  0  0  0  0
   61.4394   -9.1852   -8.5457 C   0  0  0  0  0  0  0  0  0  0  0  0
   62.4568   -9.9008   -9.4157 C   0  0  0  0  0  0  0  0  0  0  0  0
   62.2598  -11.3965   -9.3907 C   0  0  0  0  0  0  0  0  0  0  0  0
   63.8214   -9.5860   -8.8393 C   0  0  0  0  0  0  0  0  0  0  0  0
   62.4060   -9.4058  -10.8441 C   0  0  0  0  0  0  0  0  0  0  0  0
 17 18  1  0  0  0
 18 19  2  0  0  0
 19 20  1  0  0  0
 20 21  2  0  0  0
 21 22  1  0  0  0
 21  8  1  0  0  0
  8  9  2  0  0  0
  9 10  1  0  0  0
 10 11  2  0  0  0
 11 12  1  0  0  0
 12 13  2  0  0  0
 13 14  1  0  0  0
 10  1  1  0  0  0
  1  2  2  0  0  0
  2  3  1  0  0  0
  3  4  2  0  0  0
  4  5  1  0  0  0
  5  6  2  0  0  0
  6  7  1  0  0  0
  3 23  1  0  0  0
 23 24  2  0  0  0
 23 25  2  0  0  0
 23 26  1  0  0  0
 26 28  1  0  0  0
 28 29  1  0  0  0
 29 30  1  0  0  0
 29 31  1  0  0  0
 29 32  1  0  0  0
 22 18  1  0  0  0
 13  8  1  0  0  0
  6  1  1  0  0  0
 14 15  1  0  0  0
 14 16  1  0  0  0
 26 27  1  0  0  0
M  END
> <minimizedAffinity>
-7.39361

> <CNNscore>
0.3557730019

> <CNNaffinity>
6.5657567978

> <CNN_VS>
2.3359189034

> <CNNaffinity_variance>
0.2297050655

$$$$
[H]c1nc(C([H])([H])[H])oc1-c1c(N([H])[H])nc([H])c(-c2c([H])c(S(=O)(=O)N([H])C([H])([H])C(C([H])([H])[H])(C([H])([H])[H])C([H])([H])[H])c([H])c([H])c2C([H])([H])[H])c1[H]


 32 34  0  0  0  0  0  0  0  0999 V2000
   54.5683   -5.6155   -5.7337 C   0  0  0  0  0  0  0  0  0  0  0  0
   53.2617   -5.5204   -5.2686 C   0  0  0  0  0  0  0  0  0  0  0  0
   52.8496   -5.9326   -4.0246 C   0  0  0  0  0  0  0  0  0  0  0  0
   53.8137   -6.4729   -3.2012 C   0  0  0  0  0  0  0  0  0  0  0  0
   55.1231   -6.5856   -3.6248 C   0  0  0  0  0  0  0  0  0  0  0  0
   55.5040   -6.1542   -4.9007 C   0  0  0  0  0  0  0  0  0  0  0  0
   56.9219   -6.3290   -5.2826 C   0  0  0  0  0  0  0  0  0  0  0  0
   56.5015   -4.9648   -8.8591 C   0  0  0  0  0  0  0  0  0  0  0  0
   56.1690   -5.3984   -7.5925 C   0  0  0  0  0  0  0  0  0  0  0  0
   54.9292   -5.1405   -7.0561 C   0  0  0  0  0  0  0  0  0  0  0  0
   54.0227   -4.4424   -7.8023 C   0  0  0  0  0  0  0  0  0  0  0  0
   54.3654   -4.0287   -9.0333 N   0  0  0  0  0  0  0  0  0  0  0  0
   55.5501   -4.2640   -9.5705 C   0  0  0  0  0  0  0  0  0  0  0  0
   55.8385   -3.7825  -10.9039 N   0  0  0  0  0  0  0  0  0  0  0  0
   55.6443   -4.3677  -11.7446 H   0  0  0  0  0  0  0  0  0  0  0  0
   56.2461   -2.8287  -10.9678 H   0  0  0  0  0  0  0  0  0  0  0  0
   61.2007   -6.4928   -9.3782 C   0  0  0  0  0  0  0  0  0  0  0  0
   59.8570   -5.8946   -9.6708 C   0  0  0  0  0  0  0  0  0  0  0  0
   59.5088   -5.3357  -10.8509 N   0  0  0  0  0  0  0  0  0  0  0  0
   58.2195   -4.9145  -10.7137 C   0  0  0  0  0  0  0  0  0  0  0  0
   57.8122   -5.2326   -9.4369 C   0  0  0  0  0  0  0  0  0  0  0  0
   58.8208   -5.8090   -8.8691 O   0  0  0  0  0  0  0  0  0  0  0  0
   51.1930   -5.7923   -3.4843 S   0  0  0  0  0  0  0  0  0  0  0  0
   51.1375   -4.6397   -2.5213 O   0  0  0  0  0  0  0  0  0  0  0  0
   50.7586   -7.0152   -2.7287 O   0  0  0  0  0  0  0  0  0  0  0  0
   50.1284   -5.4302   -4.7855 N   0  0  0  0  0  0  0  0  0  0  0  0
   50.5592   -5.8259   -5.6503 H   0  0  0  0  0  0  0  0  0  0  0  0
   50.0040   -3.9992   -5.0057 C   0  0  0  0  0  0  0  0  0  0  0  0
   49.9485   -3.7959   -6.5089 C   0  0  0  0  0  0  0  0  0  0  0  0
   49.7820   -5.1032   -7.2438 C   0  0  0  0  0  0  0  0  0  0  0  0
   51.2718   -3.1814   -6.9148 C   0  0  0  0  0  0  0  0  0  0  0  0
   48.8335   -2.8500   -6.8964 C   0  0  0  0  0  0  0  0  0  0  0  0
 17 18  1  0  0  0
 18 19  2  0  0  0
 19 20  1  0  0  0
 20 21  2  0  0  0
 21 22  1  0  0  0
 21  8  1  0  0  0
  8  9  2  0  0  0
  9 10  1  0  0  0
 10 11  2  0  0  0
 11 12  1  0  0  0
 12 13  2  0  0  0
 13 14  1  0  0  0
 10  1  1  0  0  0
  1  2  2  0  0  0
  2  3  1  0  0  0
  3  4  2  0  0  0
  4  5  1  0  0  0
  5  6  2  0  0  0
  6  7  1  0  0  0
  3 23  1  0  0  0
 23 24  2  0  0  0
 23 25  2  0  0  0
 23 26  1  0  0  0
 26 28  1  0  0  0
 28 29  1  0  0  0
 29 30  1  0  0  0
 29 31  1  0  0  0
 29 32  1  0  0  0
 22 18  1  0  0  0
 13  8  1  0  0  0
  6  1  1  0  0  0
 14 15  1  0  0  0
 14 16  1  0  0  0
 26 27  1  0  0  0
M  END
> <minimizedAffinity>
-8.27356

> <CNNscore>
0.3058692217

> <CNNaffinity>
7.0243430138

> <CNN_VS>
2.1485302448

> <CNNaffinity_variance>
0.2239175290

$$$$
[H]c1nc(C([H])([H])[H])oc1-c1c(N([H])[H])nc([H])c(-c2c([H])c(S(=O)(=O)N([H])C([H])([H])C(C([H])([H])[H])(C([H])([H])[H])C([H])([H])[H])c([H])c([H])c2C([H])([H])[H])c1[H]


 32 34  0  0  0  0  0  0  0  0999 V2000
   57.2867   -4.3416  -10.8149 C   0  0  0  0  0  0  0  0  0  0  0  0
   56.0605   -3.7983  -10.4494 C   0  0  0  0  0  0  0  0  0  0  0  0
   55.4586   -3.9933   -9.2299 C   0  0  0  0  0  0  0  0  0  0  0  0
   56.1348   -4.7837   -8.3258 C   0  0  0  0  0  0  0  0  0  0  0  0
   57.3553   -5.3426   -8.6494 C   0  0  0  0  0  0  0  0  0  0  0  0
   57.9361   -5.1206   -9.9034 C   0  0  0  0  0  0  0  0  0  0  0  0
   59.2354   -5.7721  -10.1760 C   0  0  0  0  0  0  0  0  0  0  0  0
   57.6272   -3.6482  -14.4662 C   0  0  0  0  0  0  0  0  0  0  0  0
   57.0750   -3.9247  -13.2328 C   0  0  0  0  0  0  0  0  0  0  0  0
   57.8661   -4.0742  -12.1178 C   0  0  0  0  0  0  0  0  0  0  0  0
   59.2194   -3.9436  -12.2500 C   0  0  0  0  0  0  0  0  0  0  0  0
   59.7379   -3.6745  -13.4594 N   0  0  0  0  0  0  0  0  0  0  0  0
   58.9988   -3.5266  -14.5454 C   0  0  0  0  0  0  0  0  0  0  0  0
   59.6377   -3.2375  -15.8108 N   0  0  0  0  0  0  0  0  0  0  0  0
   59.8045   -2.2564  -16.1214 H   0  0  0  0  0  0  0  0  0  0  0  0
   59.9156   -4.0603  -16.3815 H   0  0  0  0  0  0  0  0  0  0  0  0
   54.2457   -1.8848  -17.6510 C   0  0  0  0  0  0  0  0  0  0  0  0
   55.3289   -2.7267  -17.0453 C   0  0  0  0  0  0  0  0  0  0  0  0
   55.9007   -3.7904  -17.6518 N   0  0  0  0  0  0  0  0  0  0  0  0
   56.8298   -4.2782  -16.7816 C   0  0  0  0  0  0  0  0  0  0  0  0
   56.7982   -3.4880  -15.6540 C   0  0  0  0  0  0  0  0  0  0  0  0
   55.8933   -2.5894  -15.8679 O   0  0  0  0  0  0  0  0  0  0  0  0
   53.9135   -3.2881   -8.8161 S   0  0  0  0  0  0  0  0  0  0  0  0
   52.9951   -3.5178   -9.9834 O   0  0  0  0  0  0  0  0  0  0  0  0
   54.0226   -1.8019   -8.6309 O   0  0  0  0  0  0  0  0  0  0  0  0
   53.2106   -4.0555   -7.4469 N   0  0  0  0  0  0  0  0  0  0  0  0
   53.7051   -4.9665   -7.3215 H   0  0  0  0  0  0  0  0  0  0  0  0
   51.8090   -4.3743   -7.6607 C   0  0  0  0  0  0  0  0  0  0  0  0
   51.3957   -5.2914   -6.5239 C   0  0  0  0  0  0  0  0  0  0  0  0
   52.5906   -5.9196   -5.8499 C   0  0  0  0  0  0  0  0  0  0  0  0
   50.5551   -6.3925   -7.1359 C   0  0  0  0  0  0  0  0  0  0  0  0
   50.5622   -4.5562   -5.4978 C   0  0  0  0  0  0  0  0  0  0  0  0
 17 18  1  0  0  0
 18 19  2  0  0  0
 19 20  1  0  0  0
 20 21  2  0  0  0
 21 22  1  0  0  0
 21  8  1  0  0  0
  8  9  2  0  0  0
  9 10  1  0  0  0
 10 11  2  0  0  0
 11 12  1  0  0  0
 12 13  2  0  0  0
 13 14  1  0  0  0
 10  1  1  0  0  0
  1  2  2  0  0  0
  2  3  1  0  0  0
  3  4  2  0  0  0
  4  5  1  0  0  0
  5  6  2  0  0  0
  6  7  1  0  0  0
  3 23  1  0  0  0
 23 24  2  0  0  0
 23 25  2  0  0  0
 23 26  1  0  0  0
 26 28  1  0  0  0
 28 29  1  0  0  0
 29 30  1  0  0  0
 29 31  1  0  0  0
 29 32  1  0  0  0
 22 18  1  0  0  0
 13  8  1  0  0  0
  6  1  1  0  0  0
 14 15  1  0  0  0
 14 16  1  0  0  0
 26 27  1  0  0  0
M  END
> <minimizedAffinity>
-7.87212

> <CNNscore>
0.2584494352

> <CNNaffinity>
6.2151436806

> <CNN_VS>
1.6063003540

> <CNNaffinity_variance>
0.1954960674

$$$$
[H]Oc1c([H])c([H])c(C([H])([H])[C@@]([H])(C(=O)N2C([H])([H])C([H])([H])C([H])([H])[C@@]2([H])C(=O)N([H])[C@]([H])(C(=O)N([H])[H])C([H])([H])c2c([H])c([H])c([H])c([H])c2[H])N([H])[H])c([H])c1[H]


 37 39  0  0  0  0  0  0  0  0999 V2000
   55.0252   -4.4203   -7.5493 C   0  0  0  0  0  0  0  0  0  0  0  0
   55.8593   -3.9948   -6.6512 O   0  0  0  0  0  0  0  0  0  0  0  0
   53.8800   -5.0674   -7.0412 N   0  0  0  0  0  0  0  0  0  0  0  0
   52.7816   -5.5952   -7.8113 C   0  0  0  0  0  0  0  0  0  0  0  0
   51.6193   -5.3340   -6.8176 C   0  0  0  0  0  0  0  0  0  0  0  0
   52.2428   -5.8628   -5.5563 C   0  0  0  0  0  0  0  0  0  0  0  0
   53.6427   -5.3149   -5.6227 C   0  0  0  0  0  0  0  0  0  0  0  0
   55.3289   -2.8126   -9.3948 N   0  0  0  0  0  0  0  0  0  0  0  0
   55.4341   -4.1493   -8.9125 C   0  0  0  0  0  0  0  0  0  0  0  0
   55.0667   -2.8317  -10.4121 H   0  0  0  0  0  0  0  0  0  0  0  0
   56.1981   -2.2442   -9.2574 H   0  0  0  0  0  0  0  0  0  0  0  0
   56.7667   -4.7939   -9.2742 C   0  0  0  0  0  0  0  0  0  0  0  0
   57.0559   -4.4463  -10.6757 C   0  0  0  0  0  0  0  0  0  0  0  0
   56.0474   -4.2486  -11.5871 C   0  0  0  0  0  0  0  0  0  0  0  0
   56.3202   -3.9193  -12.9111 C   0  0  0  0  0  0  0  0  0  0  0  0
   57.6274   -3.7885  -13.3171 C   0  0  0  0  0  0  0  0  0  0  0  0
   57.9301   -3.4566  -14.6484 O   0  0  0  0  0  0  0  0  0  0  0  0
   58.6634   -3.9824  -12.4187 C   0  0  0  0  0  0  0  0  0  0  0  0
   58.3528   -4.3117  -11.0986 C   0  0  0  0  0  0  0  0  0  0  0  0
   58.0466   -4.2378  -15.2786 H   0  0  0  0  0  0  0  0  0  0  0  0
   54.6370   -6.2223   -5.0381 C   0  0  0  0  0  0  0  0  0  0  0  0
   54.7692   -7.3568   -5.6243 O   0  0  0  0  0  0  0  0  0  0  0  0
   55.4452   -5.9858   -3.9253 N   0  0  0  0  0  0  0  0  0  0  0  0
   55.3780   -5.0721   -3.4291 H   0  0  0  0  0  0  0  0  0  0  0  0
   56.4110   -6.9602   -3.4020 C   0  0  0  0  0  0  0  0  0  0  0  0
   55.6836   -7.9205   -2.5029 C   0  0  0  0  0  0  0  0  0  0  0  0
   54.7498   -8.8348   -3.0196 N   0  0  0  0  0  0  0  0  0  0  0  0
   55.9028   -7.9130   -1.2586 O   0  0  0  0  0  0  0  0  0  0  0  0
   54.1920   -9.4155   -2.3356 H   0  0  0  0  0  0  0  0  0  0  0  0
   54.5505   -8.9892   -4.0337 H   0  0  0  0  0  0  0  0  0  0  0  0
   57.5289   -6.2777   -2.7001 C   0  0  0  0  0  0  0  0  0  0  0  0
   58.7864   -7.0456   -2.7939 C   0  0  0  0  0  0  0  0  0  0  0  0
   59.0772   -7.7033   -3.9837 C   0  0  0  0  0  0  0  0  0  0  0  0
   60.2537   -8.3915   -4.0801 C   0  0  0  0  0  0  0  0  0  0  0  0
   61.1835   -8.4729   -3.0507 C   0  0  0  0  0  0  0  0  0  0  0  0
   60.8760   -7.8119   -1.8751 C   0  0  0  0  0  0  0  0  0  0  0  0
   59.7001   -7.1140   -1.7547 C   0  0  0  0  0  0  0  0  0  0  0  0
  8  9  1  0  0  0
  9 12  1  0  0  0
 12 13  1  0  0  0
 13 14  2  0  0  0
 14 15  1  0  0  0
 15 16  2  0  0  0
 16 17  1  0  0  0
 16 18  1  0  0  0
 18 19  2  0  0  0
  9  1  1  0  0  0
  1  2  2  0  0  0
  1  3  1  0  0  0
  3  4  1  0  0  0
  4  5  1  0  0  0
  5  6  1  0  0  0
  6  7  1  0  0  0
  7 21  1  0  0  0
 21 22  2  0  0  0
 21 23  1  0  0  0
 23 25  1  0  0  0
 25 31  1  0  0  0
 31 32  1  0  0  0
 32 33  2  0  0  0
 33 34  1  0  0  0
 34 35  2  0  0  0
 35 36  1  0  0  0
 36 37  2  0  0  0
 25 26  1  0  0  0
 26 27  1  0  0  0
 26 28  2  0  0  0
 19 13  1  0  0  0
  7  3  1  0  0  0
 37 32  1  0  0  0
  8 10  1  0  0  0
  8 11  1  0  0  0
 17 20  1  0  0  0
 23 24  1  0  0  0
 27 29  1  0  0  0
 27 30  1  0  0  0
M  END
> <minimizedAffinity>
-7.78448

> <CNNscore>
0.3027941287

> <CNNaffinity>
6.0921716690

> <CNN_VS>
1.8446737528

> <CNNaffinity_variance>
0.1056634337

$$$$
[H]Oc1c([H])c([H])c(C([H])([H])[C@@]([H])(C(=O)N2C([H])([H])C([H])([H])C([H])([H])[C@@]2([H])C(=O)N([H])[C@]([H])(C(=O)N([H])[H])C([H])([H])c2c([H])c([H])c([H])c([H])c2[H])N([H])[H])c([H])c1[H]


 37 39  0  0  0  0  0  0  0  0999 V2000
   62.8916  -11.1721  -10.0347 C   0  0  0  0  0  0  0  0  0  0  0  0
   62.0945  -10.5836  -10.8724 O   0  0  0  0  0  0  0  0  0  0  0  0
   62.4675  -11.1481   -8.6901 N   0  0  0  0  0  0  0  0  0  0  0  0
   63.1379  -11.7585   -7.5693 C   0  0  0  0  0  0  0  0  0  0  0  0
   61.9056  -12.1483   -6.7112 C   0  0  0  0  0  0  0  0  0  0  0  0
   61.1352  -10.8593   -6.7772 C   0  0  0  0  0  0  0  0  0  0  0  0
   61.2616  -10.4703   -8.2252 C   0  0  0  0  0  0  0  0  0  0  0  0
   65.3301  -11.5400  -10.0029 N   0  0  0  0  0  0  0  0  0  0  0  0
   64.0746  -11.7435  -10.6453 C   0  0  0  0  0  0  0  0  0  0  0  0
   66.0795  -11.4391  -10.7324 H   0  0  0  0  0  0  0  0  0  0  0  0
   65.5860  -12.2974   -9.3258 H   0  0  0  0  0  0  0  0  0  0  0  0
   63.8773  -13.1876  -11.0899 C   0  0  0  0  0  0  0  0  0  0  0  0
   63.6797  -13.1741  -12.5492 C   0  0  0  0  0  0  0  0  0  0  0  0
   62.4361  -13.3511  -13.1049 C   0  0  0  0  0  0  0  0  0  0  0  0
   62.2488  -13.3374  -14.4836 C   0  0  0  0  0  0  0  0  0  0  0  0
   63.3315  -13.1424  -15.3085 C   0  0  0  0  0  0  0  0  0  0  0  0
   63.1696  -13.1241  -16.7041 O   0  0  0  0  0  0  0  0  0  0  0  0
   64.5964  -12.9615  -14.7744 C   0  0  0  0  0  0  0  0  0  0  0  0
   64.7471  -12.9811  -13.3871 C   0  0  0  0  0  0  0  0  0  0  0  0
   63.2605  -14.0177  -17.1669 H   0  0  0  0  0  0  0  0  0  0  0  0
   61.3250   -9.0171   -8.4204 C   0  0  0  0  0  0  0  0  0  0  0  0
   61.8975   -8.3531   -7.4827 O   0  0  0  0  0  0  0  0  0  0  0  0
   60.8347   -8.2884   -9.5049 N   0  0  0  0  0  0  0  0  0  0  0  0
   60.3751   -8.7913  -10.2933 H   0  0  0  0  0  0  0  0  0  0  0  0
   60.9343   -6.8275   -9.6125 C   0  0  0  0  0  0  0  0  0  0  0  0
   62.3854   -6.4401   -9.5499 C   0  0  0  0  0  0  0  0  0  0  0  0
   62.9279   -5.8370   -8.4025 N   0  0  0  0  0  0  0  0  0  0  0  0
   63.1404   -6.6506  -10.5409 O   0  0  0  0  0  0  0  0  0  0  0  0
   63.9252   -5.4912   -8.4471 H   0  0  0  0  0  0  0  0  0  0  0  0
   62.4240   -5.6921   -7.4985 H   0  0  0  0  0  0  0  0  0  0  0  0
   60.1332   -6.1596   -8.5539 C   0  0  0  0  0  0  0  0  0  0  0  0
   58.8949   -5.5651   -9.0954 C   0  0  0  0  0  0  0  0  0  0  0  0
   57.8743   -5.2337   -8.2116 C   0  0  0  0  0  0  0  0  0  0  0  0
   56.7392   -4.6584   -8.7092 C   0  0  0  0  0  0  0  0  0  0  0  0
   56.5440   -4.3831  -10.0571 C   0  0  0  0  0  0  0  0  0  0  0  0
   57.5710   -4.7202  -10.9205 C   0  0  0  0  0  0  0  0  0  0  0  0
   58.7207   -5.2991  -10.4438 C   0  0  0  0  0  0  0  0  0  0  0  0
  8  9  1  0  0  0
  9 12  1  0  0  0
 12 13  1  0  0  0
 13 14  2  0  0  0
 14 15  1  0  0  0
 15 16  2  0  0  0
 16 17  1  0  0  0
 16 18  1  0  0  0
 18 19  2  0  0  0
  9  1  1  0  0  0
  1  2  2  0  0  0
  1  3  1  0  0  0
  3  4  1  0  0  0
  4  5  1  0  0  0
  5  6  1  0  0  0
  6  7  1  0  0  0
  7 21  1  0  0  0
 21 22  2  0  0  0
 21 23  1  0  0  0
 23 25  1  0  0  0
 25 31  1  0  0  0
 31 32  1  0  0  0
 32 33  2  0  0  0
 33 34  1  0  0  0
 34 35  2  0  0  0
 35 36  1  0  0  0
 36 37  2  0  0  0
 25 26  1  0  0  0
 26 27  1  0  0  0
 26 28  2  0  0  0
 19 13  1  0  0  0
  7  3  1  0  0  0
 37 32  1  0  0  0
  8 10  1  0  0  0
  8 11  1  0  0  0
 17 20  1  0  0  0
 23 24  1  0  0  0
 27 29  1  0  0  0
 27 30  1  0  0  0
M  END
> <minimizedAffinity>
-5.16577

> <CNNscore>
0.2247809619

> <CNNaffinity>
4.6267757416

> <CNN_VS>
1.0400110483

> <CNNaffinity_variance>
0.0120852226

$$$$
[H]Oc1c([H])c([H])c(C([H])([H])[C@@]([H])(C(=O)N2C([H])([H])C([H])([H])C([H])([H])[C@@]2([H])C(=O)N([H])[C@]([H])(C(=O)N([H])[H])C([H])([H])c2c([H])c([H])c([H])c([H])c2[H])N([H])[H])c([H])c1[H]


 37 39  0  0  0  0  0  0  0  0999 V2000
   53.7252   -5.2483   -7.3340 C   0  0  0  0  0  0  0  0  0  0  0  0
   52.6180   -5.9246   -7.3364 O   0  0  0  0  0  0  0  0  0  0  0  0
   54.6501   -5.6214   -6.3371 N   0  0  0  0  0  0  0  0  0  0  0  0
   55.9653   -5.0659   -6.1377 C   0  0  0  0  0  0  0  0  0  0  0  0
   56.7051   -6.3294   -5.6246 C   0  0  0  0  0  0  0  0  0  0  0  0
   55.7071   -6.8102   -4.6088 C   0  0  0  0  0  0  0  0  0  0  0  0
   54.3953   -6.6431   -5.3268 C   0  0  0  0  0  0  0  0  0  0  0  0
   52.6555   -3.4090   -8.5812 N   0  0  0  0  0  0  0  0  0  0  0  0
   53.7991   -4.2302   -8.3621 C   0  0  0  0  0  0  0  0  0  0  0  0
   52.5809   -3.1860   -9.6052 H   0  0  0  0  0  0  0  0  0  0  0  0
   52.6562   -2.5249   -8.0190 H   0  0  0  0  0  0  0  0  0  0  0  0
   55.0914   -3.4243   -8.3108 C   0  0  0  0  0  0  0  0  0  0  0  0
   55.8971   -3.8124   -9.4808 C   0  0  0  0  0  0  0  0  0  0  0  0
   55.4971   -3.5065  -10.7588 C   0  0  0  0  0  0  0  0  0  0  0  0
   56.2585   -3.8721  -11.8645 C   0  0  0  0  0  0  0  0  0  0  0  0
   57.4373   -4.5544  -11.6748 C   0  0  0  0  0  0  0  0  0  0  0  0
   58.2248   -4.9352  -12.7743 O   0  0  0  0  0  0  0  0  0  0  0  0
   57.8638   -4.8755  -10.3968 C   0  0  0  0  0  0  0  0  0  0  0  0
   57.0748   -4.4929   -9.3112 C   0  0  0  0  0  0  0  0  0  0  0  0
   58.0209   -5.8446  -13.1646 H   0  0  0  0  0  0  0  0  0  0  0  0
   53.2960   -6.2782   -4.4255 C   0  0  0  0  0  0  0  0  0  0  0  0
   53.6257   -5.5863   -3.3956 O   0  0  0  0  0  0  0  0  0  0  0  0
   51.9454   -6.5995   -4.5674 N   0  0  0  0  0  0  0  0  0  0  0  0
   51.6346   -7.1484   -5.3967 H   0  0  0  0  0  0  0  0  0  0  0  0
   50.9105   -6.1981   -3.6064 C   0  0  0  0  0  0  0  0  0  0  0  0
   50.3124   -4.8963   -4.0619 C   0  0  0  0  0  0  0  0  0  0  0  0
   50.5614   -4.3934   -5.3502 N   0  0  0  0  0  0  0  0  0  0  0  0
   49.5750   -4.2307   -3.2813 O   0  0  0  0  0  0  0  0  0  0  0  0
   50.2028   -3.4277   -5.5846 H   0  0  0  0  0  0  0  0  0  0  0  0
   51.0823   -4.8936   -6.1056 H   0  0  0  0  0  0  0  0  0  0  0  0
   51.4675   -6.1046   -2.2319 C   0  0  0  0  0  0  0  0  0  0  0  0
   51.2926   -7.3642   -1.4818 C   0  0  0  0  0  0  0  0  0  0  0  0
   52.3477   -8.2687   -1.4451 C   0  0  0  0  0  0  0  0  0  0  0  0
   52.1960   -9.4221   -0.7283 C   0  0  0  0  0  0  0  0  0  0  0  0
   51.0400   -9.7463   -0.0288 C   0  0  0  0  0  0  0  0  0  0  0  0
   50.0015   -8.8336   -0.0775 C   0  0  0  0  0  0  0  0  0  0  0  0
   50.1307   -7.6680   -0.7910 C   0  0  0  0  0  0  0  0  0  0  0  0
  8  9  1  0  0  0
  9 12  1  0  0  0
 12 13  1  0  0  0
 13 14  2  0  0  0
 14 15  1  0  0  0
 15 16  2  0  0  0
 16 17  1  0  0  0
 16 18  1  0  0  0
 18 19  2  0  0  0
  9  1  1  0  0  0
  1  2  2  0  0  0
  1  3  1  0  0  0
  3  4  1  0  0  0
  4  5  1  0  0  0
  5  6  1  0  0  0
  6  7  1  0  0  0
  7 21  1  0  0  0
 21 22  2  0  0  0
 21 23  1  0  0  0
 23 25  1  0  0  0
 25 31  1  0  0  0
 31 32  1  0  0  0
 32 33  2  0  0  0
 33 34  1  0  0  0
 34 35  2  0  0  0
 35 36  1  0  0  0
 36 37  2  0  0  0
 25 26  1  0  0  0
 26 27  1  0  0  0
 26 28  2  0  0  0
 19 13  1  0  0  0
  7  3  1  0  0  0
 37 32  1  0  0  0
  8 10  1  0  0  0
  8 11  1  0  0  0
 17 20  1  0  0  0
 23 24  1  0  0  0
 27 29  1  0  0  0
 27 30  1  0  0  0
M  END
> <minimizedAffinity>
-8.02406

> <CNNscore>
0.2222178429

> <CNNaffinity>
6.5658102036

> <CNN_VS>
1.4590401649

> <CNNaffinity_variance>
0.0845285431

$$$$
[H]Oc1c([H])c([H])c(C([H])([H])[C@@]([H])(C(=O)N2C([H])([H])C([H])([H])C([H])([H])[C@@]2([H])C(=O)N([H])[C@]([H])(C(=O)N([H])[H])C([H])([H])c2c([H])c([H])c([H])c([H])c2[H])N([H])[H])c([H])c1[H]


 37 39  0  0  0  0  0  0  0  0999 V2000
   53.5784   -5.4027   -6.7881 C   0  0  0  0  0  0  0  0  0  0  0  0
   53.7378   -4.1525   -7.0961 O   0  0  0  0  0  0  0  0  0  0  0  0
   54.7283   -6.0443   -6.2835 N   0  0  0  0  0  0  0  0  0  0  0  0
   54.8177   -7.4092   -5.8284 C   0  0  0  0  0  0  0  0  0  0  0  0
   55.8676   -7.2376   -4.6992 C   0  0  0  0  0  0  0  0  0  0  0  0
   56.8855   -6.4045   -5.4266 C   0  0  0  0  0  0  0  0  0  0  0  0
   56.0336   -5.4036   -6.1592 C   0  0  0  0  0  0  0  0  0  0  0  0
   52.0540   -6.8631   -8.0634 N   0  0  0  0  0  0  0  0  0  0  0  0
   52.2403   -5.9048   -7.0255 C   0  0  0  0  0  0  0  0  0  0  0  0
   51.1220   -6.7010   -8.5206 H   0  0  0  0  0  0  0  0  0  0  0  0
   52.1286   -7.8566   -7.7396 H   0  0  0  0  0  0  0  0  0  0  0  0
   51.5117   -6.2886   -5.7433 C   0  0  0  0  0  0  0  0  0  0  0  0
   50.5917   -5.1866   -5.4150 C   0  0  0  0  0  0  0  0  0  0  0  0
   50.2710   -4.2223   -6.3391 C   0  0  0  0  0  0  0  0  0  0  0  0
   49.4009   -3.1815   -6.0297 C   0  0  0  0  0  0  0  0  0  0  0  0
   48.8496   -3.1160   -4.7716 C   0  0  0  0  0  0  0  0  0  0  0  0
   47.9681   -2.0754   -4.4335 O   0  0  0  0  0  0  0  0  0  0  0  0
   49.1561   -4.0753   -3.8209 C   0  0  0  0  0  0  0  0  0  0  0  0
   50.0325   -5.1049   -4.1662 C   0  0  0  0  0  0  0  0  0  0  0  0
   48.3974   -1.2471   -4.0453 H   0  0  0  0  0  0  0  0  0  0  0  0
   56.5963   -5.0213   -7.4595 C   0  0  0  0  0  0  0  0  0  0  0  0
   57.8776   -5.0360   -7.5386 O   0  0  0  0  0  0  0  0  0  0  0  0
   55.8948   -4.6478   -8.6066 N   0  0  0  0  0  0  0  0  0  0  0  0
   54.8531   -4.6359   -8.5879 H   0  0  0  0  0  0  0  0  0  0  0  0
   56.5442   -4.2699   -9.8680 C   0  0  0  0  0  0  0  0  0  0  0  0
   55.4987   -3.7260  -10.8012 C   0  0  0  0  0  0  0  0  0  0  0  0
   54.2610   -3.2680  -10.3184 N   0  0  0  0  0  0  0  0  0  0  0  0
   55.7220   -3.6784  -12.0438 O   0  0  0  0  0  0  0  0  0  0  0  0
   53.5238   -2.9923  -11.0232 H   0  0  0  0  0  0  0  0  0  0  0  0
   53.9986   -3.1806   -9.3107 H   0  0  0  0  0  0  0  0  0  0  0  0
   57.2725   -5.4228  -10.4585 C   0  0  0  0  0  0  0  0  0  0  0  0
   58.4559   -4.9891  -11.2275 C   0  0  0  0  0  0  0  0  0  0  0  0
   59.6921   -5.5429  -10.9148 C   0  0  0  0  0  0  0  0  0  0  0  0
   60.7829   -5.1621  -11.6443 C   0  0  0  0  0  0  0  0  0  0  0  0
   60.7283   -4.2467  -12.6884 C   0  0  0  0  0  0  0  0  0  0  0  0
   59.4894   -3.7070  -12.9841 C   0  0  0  0  0  0  0  0  0  0  0  0
   58.3793   -4.0743  -12.2651 C   0  0  0  0  0  0  0  0  0  0  0  0
  8  9  1  0  0  0
  9 12  1  0  0  0
 12 13  1  0  0  0
 13 14  2  0  0  0
 14 15  1  0  0  0
 15 16  2  0  0  0
 16 17  1  0  0  0
 16 18  1  0  0  0
 18 19  2  0  0  0
  9  1  1  0  0  0
  1  2  2  0  0  0
  1  3  1  0  0  0
  3  4  1  0  0  0
  4  5  1  0  0  0
  5  6  1  0  0  0
  6  7  1  0  0  0
  7 21  1  0  0  0
 21 22  2  0  0  0
 21 23  1  0  0  0
 23 25  1  0  0  0
 25 31  1  0  0  0
 31 32  1  0  0  0
 32 33  2  0  0  0
 33 34  1  0  0  0
 34 35  2  0  0  0
 35 36  1  0  0  0
 36 37  2  0  0  0
 25 26  1  0  0  0
 26 27  1  0  0  0
 26 28  2  0  0  0
 19 13  1  0  0  0
  7  3  1  0  0  0
 37 32  1  0  0  0
  8 10  1  0  0  0
  8 11  1  0  0  0
 17 20  1  0  0  0
 23 24  1  0  0  0
 27 29  1  0  0  0
 27 30  1  0  0  0
M  END
> <minimizedAffinity>
-6.26997

> <CNNscore>
0.2133568674

> <CNNaffinity>
6.2815890312

> <CNN_VS>
1.3402202129

> <CNNaffinity_variance>
0.1129700691

$$$$
[H]Oc1c([H])c([H])c(C([H])([H])[C@@]([H])(C(=O)N2C([H])([H])C([H])([H])C([H])([H])[C@@]2([H])C(=O)N([H])[C@]([H])(C(=O)N([H])[H])C([H])([H])c2c([H])c([H])c([H])c([H])c2[H])N([H])[H])c([H])c1[H]


 37 39  0  0  0  0  0  0  0  0999 V2000
   53.6246   -5.3306   -6.8887 C   0  0  0  0  0  0  0  0  0  0  0  0
   53.8030   -4.1199   -7.3196 O   0  0  0  0  0  0  0  0  0  0  0  0
   54.7528   -5.9207   -6.2827 N   0  0  0  0  0  0  0  0  0  0  0  0
   54.8175   -7.2311   -5.6855 C   0  0  0  0  0  0  0  0  0  0  0  0
   55.8318   -6.9471   -4.5465 C   0  0  0  0  0  0  0  0  0  0  0  0
   56.8787   -6.1983   -5.3228 C   0  0  0  0  0  0  0  0  0  0  0  0
   56.0582   -5.2758   -6.1830 C   0  0  0  0  0  0  0  0  0  0  0  0
   52.1100   -6.8133   -8.1499 N   0  0  0  0  0  0  0  0  0  0  0  0
   52.2912   -5.8493   -7.1164 C   0  0  0  0  0  0  0  0  0  0  0  0
   51.1734   -6.6638   -8.6019 H   0  0  0  0  0  0  0  0  0  0  0  0
   52.1984   -7.8047   -7.8233 H   0  0  0  0  0  0  0  0  0  0  0  0
   51.5749   -6.2374   -5.8285 C   0  0  0  0  0  0  0  0  0  0  0  0
   50.6566   -5.1374   -5.4888 C   0  0  0  0  0  0  0  0  0  0  0  0
   50.3468   -4.1564   -6.3990 C   0  0  0  0  0  0  0  0  0  0  0  0
   49.4784   -3.1175   -6.0788 C   0  0  0  0  0  0  0  0  0  0  0  0
   48.9176   -3.0709   -4.8241 C   0  0  0  0  0  0  0  0  0  0  0  0
   48.0376   -2.0326   -4.4753 O   0  0  0  0  0  0  0  0  0  0  0  0
   49.2130   -4.0472   -3.8873 C   0  0  0  0  0  0  0  0  0  0  0  0
   50.0881   -5.0745   -4.2431 C   0  0  0  0  0  0  0  0  0  0  0  0
   48.4670   -1.2127   -4.0699 H   0  0  0  0  0  0  0  0  0  0  0  0
   56.6653   -5.0332   -7.4969 C   0  0  0  0  0  0  0  0  0  0  0  0
   56.5786   -3.8305   -7.9376 O   0  0  0  0  0  0  0  0  0  0  0  0
   57.3196   -5.9603   -8.3091 N   0  0  0  0  0  0  0  0  0  0  0  0
   57.4229   -6.9441   -7.9819 H   0  0  0  0  0  0  0  0  0  0  0  0
   57.8914   -5.6294   -9.6204 C   0  0  0  0  0  0  0  0  0  0  0  0
   59.3773   -5.8499   -9.5648 C   0  0  0  0  0  0  0  0  0  0  0  0
   60.0189   -6.1772   -8.3581 N   0  0  0  0  0  0  0  0  0  0  0  0
   60.0739   -5.7378  -10.6129 O   0  0  0  0  0  0  0  0  0  0  0  0
   61.0745   -6.2203   -8.3523 H   0  0  0  0  0  0  0  0  0  0  0  0
   59.5389   -6.3782   -7.4520 H   0  0  0  0  0  0  0  0  0  0  0  0
   57.5490   -4.2382  -10.0151 C   0  0  0  0  0  0  0  0  0  0  0  0
   57.3326   -4.1180  -11.4706 C   0  0  0  0  0  0  0  0  0  0  0  0
   58.3733   -3.6442  -12.2611 C   0  0  0  0  0  0  0  0  0  0  0  0
   58.1825   -3.5587  -13.6115 C   0  0  0  0  0  0  0  0  0  0  0  0
   57.0001   -3.9202  -14.2454 C   0  0  0  0  0  0  0  0  0  0  0  0
   55.9764   -4.3892  -13.4417 C   0  0  0  0  0  0  0  0  0  0  0  0
   56.1448   -4.4841  -12.0827 C   0  0  0  0  0  0  0  0  0  0  0  0
  8  9  1  0  0  0
  9 12  1  0  0  0
 12 13  1  0  0  0
 13 14  2  0  0  0
 14 15  1  0  0  0
 15 16  2  0  0  0
 16 17  1  0  0  0
 16 18  1  0  0  0
 18 19  2  0  0  0
  9  1  1  0  0  0
  1  2  2  0  0  0
  1  3  1  0  0  0
  3  4  1  0  0  0
  4  5  1  0  0  0
  5  6  1  0  0  0
  6  7  1  0  0  0
  7 21  1  0  0  0
 21 22  2  0  0  0
 21 23  1  0  0  0
 23 25  1  0  0  0
 25 31  1  0  0  0
 31 32  1  0  0  0
 32 33  2  0  0  0
 33 34  1  0  0  0
 34 35  2  0  0  0
 35 36  1  0  0  0
 36 37  2  0  0  0
 25 26  1  0  0  0
 26 27  1  0  0  0
 26 28  2  0  0  0
 19 13  1  0  0  0
  7  3  1  0  0  0
 37 32  1  0  0  0
  8 10  1  0  0  0
  8 11  1  0  0  0
 17 20  1  0  0  0
 23 24  1  0  0  0
 27 29  1  0  0  0
 27 30  1  0  0  0
M  END
> <minimizedAffinity>
-8.43662

> <CNNscore>
0.2094207555

> <CNNaffinity>
6.2454857826

> <CNN_VS>
1.3079344034

> <CNNaffinity_variance>
0.0806980133

$$$$
[H]Oc1c([H])c([H])c(C([H])([H])[C@@]([H])(C(=O)N2C([H])([H])C([H])([H])C([H])([H])[C@@]2([H])C(=O)N([H])[C@]([H])(C(=O)N([H])[H])C([H])([H])c2c([H])c([H])c([H])c([H])c2[H])N([H])[H])c([H])c1[H]


 37 39  0  0  0  0  0  0  0  0999 V2000
   53.8214   -5.3313   -7.1981 C   0  0  0  0  0  0  0  0  0  0  0  0
   53.5838   -6.4727   -6.6289 O   0  0  0  0  0  0  0  0  0  0  0  0
   55.1865   -5.0263   -7.3767 N   0  0  0  0  0  0  0  0  0  0  0  0
   55.7255   -3.8514   -8.0148 C   0  0  0  0  0  0  0  0  0  0  0  0
   57.0003   -4.4643   -8.6520 C   0  0  0  0  0  0  0  0  0  0  0  0
   57.5240   -5.2367   -7.4737 C   0  0  0  0  0  0  0  0  0  0  0  0
   56.2807   -5.8744   -6.9152 C   0  0  0  0  0  0  0  0  0  0  0  0
   52.6140   -3.8699   -8.7758 N   0  0  0  0  0  0  0  0  0  0  0  0
   52.6301   -4.5819   -7.5417 C   0  0  0  0  0  0  0  0  0  0  0  0
   52.0693   -2.9797   -8.6544 H   0  0  0  0  0  0  0  0  0  0  0  0
   52.2272   -4.4225   -9.5775 H   0  0  0  0  0  0  0  0  0  0  0  0
   51.3446   -5.3659   -7.3070 C   0  0  0  0  0  0  0  0  0  0  0  0
   50.4348   -4.4973   -6.5411 C   0  0  0  0  0  0  0  0  0  0  0  0
   49.7825   -3.4438   -7.1339 C   0  0  0  0  0  0  0  0  0  0  0  0
   48.9221   -2.6236   -6.4109 C   0  0  0  0  0  0  0  0  0  0  0  0
   48.7195   -2.8722   -5.0737 C   0  0  0  0  0  0  0  0  0  0  0  0
   47.8558   -2.0591   -4.3209 O   0  0  0  0  0  0  0  0  0  0  0  0
   49.3647   -3.9278   -4.4511 C   0  0  0  0  0  0  0  0  0  0  0  0
   50.2206   -4.7298   -5.2073 C   0  0  0  0  0  0  0  0  0  0  0  0
   48.2839   -1.2579   -3.8782 H   0  0  0  0  0  0  0  0  0  0  0  0
   56.3138   -6.0006   -5.4534 C   0  0  0  0  0  0  0  0  0  0  0  0
   56.9881   -6.9921   -4.9946 O   0  0  0  0  0  0  0  0  0  0  0  0
   55.6974   -5.1669   -4.5195 N   0  0  0  0  0  0  0  0  0  0  0  0
   55.1517   -4.3433   -4.8505 H   0  0  0  0  0  0  0  0  0  0  0  0
   55.7765   -5.3757   -3.0682 C   0  0  0  0  0  0  0  0  0  0  0  0
   54.3956   -5.2444   -2.4891 C   0  0  0  0  0  0  0  0  0  0  0  0
   54.1907   -4.6793   -1.2189 N   0  0  0  0  0  0  0  0  0  0  0  0
   53.3934   -5.6493   -3.1433 O   0  0  0  0  0  0  0  0  0  0  0  0
   53.2146   -4.7042   -0.8155 H   0  0  0  0  0  0  0  0  0  0  0  0
   54.9290   -4.2363   -0.6268 H   0  0  0  0  0  0  0  0  0  0  0  0
   56.7346   -4.4260   -2.4450 C   0  0  0  0  0  0  0  0  0  0  0  0
   57.7706   -5.1269   -1.6606 C   0  0  0  0  0  0  0  0  0  0  0  0
   58.5505   -4.3882   -0.7781 C   0  0  0  0  0  0  0  0  0  0  0  0
   59.4908   -5.0410   -0.0320 C   0  0  0  0  0  0  0  0  0  0  0  0
   59.7148   -6.4104   -0.1044 C   0  0  0  0  0  0  0  0  0  0  0  0
   58.9289   -7.1279   -0.9882 C   0  0  0  0  0  0  0  0  0  0  0  0
   57.9777   -6.4940   -1.7482 C   0  0  0  0  0  0  0  0  0  0  0  0
  8  9  1  0  0  0
  9 12  1  0  0  0
 12 13  1  0  0  0
 13 14  2  0  0  0
 14 15  1  0  0  0
 15 16  2  0  0  0
 16 17  1  0  0  0
 16 18  1  0  0  0
 18 19  2  0  0  0
  9  1  1  0  0  0
  1  2  2  0  0  0
  1  3  1  0  0  0
  3  4  1  0  0  0
  4  5  1  0  0  0
  5  6  1  0  0  0
  6  7  1  0  0  0
  7 21  1  0  0  0
 21 22  2  0  0  0
 21 23  1  0  0  0
 23 25  1  0  0  0
 25 31  1  0  0  0
 31 32  1  0  0  0
 32 33  2  0  0  0
 33 34  1  0  0  0
 34 35  2  0  0  0
 35 36  1  0  0  0
 36 37  2  0  0  0
 25 26  1  0  0  0
 26 27  1  0  0  0
 26 28  2  0  0  0
 19 13  1  0  0  0
  7  3  1  0  0  0
 37 32  1  0  0  0
  8 10  1  0  0  0
  8 11  1  0  0  0
 17 20  1  0  0  0
 23 24  1  0  0  0
 27 29  1  0  0  0
 27 30  1  0  0  0
M  END
> <minimizedAffinity>
-8.56085

> <CNNscore>
0.2060657442

> <CNNaffinity>
6.4177103043

> <CNN_VS>
1.3224703074

> <CNNaffinity_variance>
0.1311052293

$$$$
[H]Oc1c([H])c([H])c(C([H])([H])[C@@]([H])(C(=O)N2C([H])([H])C([H])([H])C([H])([H])[C@@]2([H])C(=O)N([H])[C@]([H])(C(=O)N([H])[H])C([H])([H])c2c([H])c([H])c([H])c([H])c2[H])N([H])[H])c([H])c1[H]


 37 39  0  0  0  0  0  0  0  0999 V2000
   55.4502   -5.4043   -6.2629 C   0  0  0  0  0  0  0  0  0  0  0  0
   54.2194   -5.5408   -6.6499 O   0  0  0  0  0  0  0  0  0  0  0  0
   55.8120   -6.1773   -5.1404 N   0  0  0  0  0  0  0  0  0  0  0  0
   57.1174   -6.2469   -4.5328 C   0  0  0  0  0  0  0  0  0  0  0  0
   57.1055   -7.7250   -4.0618 C   0  0  0  0  0  0  0  0  0  0  0  0
   55.7482   -7.7729   -3.4177 C   0  0  0  0  0  0  0  0  0  0  0  0
   54.8863   -7.0315   -4.4034 C   0  0  0  0  0  0  0  0  0  0  0  0
   56.6709   -3.2694   -6.4500 N   0  0  0  0  0  0  0  0  0  0  0  0
   56.2224   -4.4752   -7.0625 C   0  0  0  0  0  0  0  0  0  0  0  0
   56.6542   -2.4943   -7.1591 H   0  0  0  0  0  0  0  0  0  0  0  0
   57.6229   -3.3431   -6.0190 H   0  0  0  0  0  0  0  0  0  0  0  0
   57.3173   -5.1556   -7.8753 C   0  0  0  0  0  0  0  0  0  0  0  0
   57.0935   -4.8091   -9.2890 C   0  0  0  0  0  0  0  0  0  0  0  0
   55.8880   -4.3137   -9.7226 C   0  0  0  0  0  0  0  0  0  0  0  0
   55.6765   -3.9852  -11.0580 C   0  0  0  0  0  0  0  0  0  0  0  0
   56.6960   -4.1599  -11.9642 C   0  0  0  0  0  0  0  0  0  0  0  0
   56.5085   -3.8360  -13.3184 O   0  0  0  0  0  0  0  0  0  0  0  0
   57.9214   -4.6578  -11.5537 C   0  0  0  0  0  0  0  0  0  0  0  0
   58.0980   -4.9765  -10.2065 C   0  0  0  0  0  0  0  0  0  0  0  0
   56.1609   -4.5833  -13.9031 H   0  0  0  0  0  0  0  0  0  0  0  0
   53.8120   -6.2679   -3.7579 C   0  0  0  0  0  0  0  0  0  0  0  0
   54.1916   -5.3467   -2.9483 O   0  0  0  0  0  0  0  0  0  0  0  0
   52.4371   -6.4346   -3.9288 N   0  0  0  0  0  0  0  0  0  0  0  0
   52.0880   -7.1626   -4.5874 H   0  0  0  0  0  0  0  0  0  0  0  0
   51.4288   -5.6270   -3.2309 C   0  0  0  0  0  0  0  0  0  0  0  0
   51.2842   -6.1482   -1.8284 C   0  0  0  0  0  0  0  0  0  0  0  0
   52.2005   -5.7946   -0.8234 N   0  0  0  0  0  0  0  0  0  0  0  0
   50.3293   -6.9221   -1.5357 O   0  0  0  0  0  0  0  0  0  0  0  0
   52.1139   -6.2681    0.1171 H   0  0  0  0  0  0  0  0  0  0  0  0
   52.9746   -5.1003   -0.9265 H   0  0  0  0  0  0  0  0  0  0  0  0
   50.1368   -5.6372   -3.9651 C   0  0  0  0  0  0  0  0  0  0  0  0
   50.0542   -4.5369   -4.9462 C   0  0  0  0  0  0  0  0  0  0  0  0
   49.1243   -3.5254   -4.7348 C   0  0  0  0  0  0  0  0  0  0  0  0
   49.0663   -2.4929   -5.6280 C   0  0  0  0  0  0  0  0  0  0  0  0
   49.8887   -2.3943   -6.7437 C   0  0  0  0  0  0  0  0  0  0  0  0
   50.8073   -3.4105   -6.9366 C   0  0  0  0  0  0  0  0  0  0  0  0
   50.8841   -4.4579   -6.0528 C   0  0  0  0  0  0  0  0  0  0  0  0
  8  9  1  0  0  0
  9 12  1  0  0  0
 12 13  1  0  0  0
 13 14  2  0  0  0
 14 15  1  0  0  0
 15 16  2  0  0  0
 16 17  1  0  0  0
 16 18  1  0  0  0
 18 19  2  0  0  0
  9  1  1  0  0  0
  1  2  2  0  0  0
  1  3  1  0  0  0
  3  4  1  0  0  0
  4  5  1  0  0  0
  5  6  1  0  0  0
  6  7  1  0  0  0
  7 21  1  0  0  0
 21 22  2  0  0  0
 21 23  1  0  0  0
 23 25  1  0  0  0
 25 31  1  0  0  0
 31 32  1  0  0  0
 32 33  2  0  0  0
 33 34  1  0  0  0
 34 35  2  0  0  0
 35 36  1  0  0  0
 36 37  2  0  0  0
 25 26  1  0  0  0
 26 27  1  0  0  0
 26 28  2  0  0  0
 19 13  1  0  0  0
  7  3  1  0  0  0
 37 32  1  0  0  0
  8 10  1  0  0  0
  8 11  1  0  0  0
 17 20  1  0  0  0
 23 24  1  0  0  0
 27 29  1  0  0  0
 27 30  1  0  0  0
M  END
> <minimizedAffinity>
-9.90940

> <CNNscore>
0.2034688294

> <CNNaffinity>
6.1958255768

> <CNN_VS>
1.2606574297

> <CNNaffinity_variance>
0.1144788638

$$$$
[H]Oc1c([H])c([H])c(C([H])([H])[C@@]([H])(C(=O)N2C([H])([H])C([H])([H])C([H])([H])[C@@]2([H])C(=O)N([H])[C@]([H])(C(=O)N([H])[H])C([H])([H])c2c([H])c([H])c([H])c([H])c2[H])N([H])[H])c([H])c1[H]


 37 39  0  0  0  0  0  0  0  0999 V2000
   53.8633   -5.4241   -7.0196 C   0  0  0  0  0  0  0  0  0  0  0  0
   53.5789   -6.5614   -6.4637 O   0  0  0  0  0  0  0  0  0  0  0  0
   55.2392   -5.1255   -7.0976 N   0  0  0  0  0  0  0  0  0  0  0  0
   55.8294   -3.9564   -7.7000 C   0  0  0  0  0  0  0  0  0  0  0  0
   57.1454   -4.5780   -8.2372 C   0  0  0  0  0  0  0  0  0  0  0  0
   57.5766   -5.3459   -7.0191 C   0  0  0  0  0  0  0  0  0  0  0  0
   56.2923   -5.9754   -6.5514 C   0  0  0  0  0  0  0  0  0  0  0  0
   52.7663   -4.0057   -8.7130 N   0  0  0  0  0  0  0  0  0  0  0  0
   52.7042   -4.6719   -7.4550 C   0  0  0  0  0  0  0  0  0  0  0  0
   52.2297   -3.1043   -8.6539 H   0  0  0  0  0  0  0  0  0  0  0  0
   52.4152   -4.5822   -9.5142 H   0  0  0  0  0  0  0  0  0  0  0  0
   51.3959   -5.4292   -7.2631 C   0  0  0  0  0  0  0  0  0  0  0  0
   50.4919   -4.5557   -6.4960 C   0  0  0  0  0  0  0  0  0  0  0  0
   50.2233   -4.7912   -5.1697 C   0  0  0  0  0  0  0  0  0  0  0  0
   49.3700   -3.9655   -4.4443 C   0  0  0  0  0  0  0  0  0  0  0  0
   48.7825   -2.8899   -5.0678 C   0  0  0  0  0  0  0  0  0  0  0  0
   47.9170   -2.0406   -4.3581 O   0  0  0  0  0  0  0  0  0  0  0  0
   49.0361   -2.6296   -6.4042 C   0  0  0  0  0  0  0  0  0  0  0  0
   49.8971   -3.4789   -7.1007 C   0  0  0  0  0  0  0  0  0  0  0  0
   46.9403   -2.2988   -4.3738 H   0  0  0  0  0  0  0  0  0  0  0  0
   56.2159   -6.0937   -5.0906 C   0  0  0  0  0  0  0  0  0  0  0  0
   56.8860   -7.0589   -4.5736 O   0  0  0  0  0  0  0  0  0  0  0  0
   55.5005   -5.2775   -4.2134 N   0  0  0  0  0  0  0  0  0  0  0  0
   54.9543   -4.4749   -4.5919 H   0  0  0  0  0  0  0  0  0  0  0  0
   55.4736   -5.4766   -2.7590 C   0  0  0  0  0  0  0  0  0  0  0  0
   56.8071   -5.0720   -2.1952 C   0  0  0  0  0  0  0  0  0  0  0  0
   57.2649   -3.7469   -2.2909 N   0  0  0  0  0  0  0  0  0  0  0  0
   57.5408   -5.9293   -1.6268 O   0  0  0  0  0  0  0  0  0  0  0  0
   58.2499   -3.5371   -1.9716 H   0  0  0  0  0  0  0  0  0  0  0  0
   56.7128   -2.9405   -2.6609 H   0  0  0  0  0  0  0  0  0  0  0  0
   55.1286   -6.8818   -2.4200 C   0  0  0  0  0  0  0  0  0  0  0  0
   53.7186   -7.0155   -2.0030 C   0  0  0  0  0  0  0  0  0  0  0  0
   52.7212   -6.7016   -2.9190 C   0  0  0  0  0  0  0  0  0  0  0  0
   51.4162   -6.8514   -2.5423 C   0  0  0  0  0  0  0  0  0  0  0  0
   51.0251   -7.3026   -1.2876 C   0  0  0  0  0  0  0  0  0  0  0  0
   52.0321   -7.6098   -0.3903 C   0  0  0  0  0  0  0  0  0  0  0  0
   53.3503   -7.4673   -0.7461 C   0  0  0  0  0  0  0  0  0  0  0  0
  8  9  1  0  0  0
  9 12  1  0  0  0
 12 13  1  0  0  0
 13 14  2  0  0  0
 14 15  1  0  0  0
 15 16  2  0  0  0
 16 17  1  0  0  0
 16 18  1  0  0  0
 18 19  2  0  0  0
  9  1  1  0  0  0
  1  2  2  0  0  0
  1  3  1  0  0  0
  3  4  1  0  0  0
  4  5  1  0  0  0
  5  6  1  0  0  0
  6  7  1  0  0  0
  7 21  1  0  0  0
 21 22  2  0  0  0
 21 23  1  0  0  0
 23 25  1  0  0  0
 25 31  1  0  0  0
 31 32  1  0  0  0
 32 33  2  0  0  0
 33 34  1  0  0  0
 34 35  2  0  0  0
 35 36  1  0  0  0
 36 37  2  0  0  0
 25 26  1  0  0  0
 26 27  1  0  0  0
 26 28  2  0  0  0
 19 13  1  0  0  0
  7  3  1  0  0  0
 37 32  1  0  0  0
  8 10  1  0  0  0
  8 11  1  0  0  0
 17 20  1  0  0  0
 23 24  1  0  0  0
 27 29  1  0  0  0
 27 30  1  0  0  0
M  END
> <minimizedAffinity>
-8.78087

> <CNNscore>
0.2034382522

> <CNNaffinity>
6.4267244339

> <CNN_VS>
1.3074415922

> <CNNaffinity_variance>
0.1278599501

$$$$
[H]Oc1c([H])c([H])c(C([H])([H])[C@@]([H])(C(=O)N2C([H])([H])C([H])([H])C([H])([H])[C@@]2([H])C(=O)N([H])[C@]([H])(C(=O)N([H])[H])C([H])([H])c2c([H])c([H])c([H])c([H])c2[H])N([H])[H])c([H])c1[H]


 37 39  0  0  0  0  0  0  0  0999 V2000
   54.8006   -6.0705   -6.2180 C   0  0  0  0  0  0  0  0  0  0  0  0
   53.5988   -6.5584   -6.1900 O   0  0  0  0  0  0  0  0  0  0  0  0
   55.6059   -6.4039   -5.1095 N   0  0  0  0  0  0  0  0  0  0  0  0
   56.9840   -6.0315   -4.9089 C   0  0  0  0  0  0  0  0  0  0  0  0
   57.4829   -7.2861   -4.1448 C   0  0  0  0  0  0  0  0  0  0  0  0
   56.3747   -7.4252   -3.1388 C   0  0  0  0  0  0  0  0  0  0  0  0
   55.1418   -7.1846   -3.9672 C   0  0  0  0  0  0  0  0  0  0  0  0
   56.4176   -5.2690   -7.8990 N   0  0  0  0  0  0  0  0  0  0  0  0
   55.0866   -5.2686   -7.3902 C   0  0  0  0  0  0  0  0  0  0  0  0
   56.6429   -4.3157   -8.2790 H   0  0  0  0  0  0  0  0  0  0  0  0
   56.5899   -5.9986   -8.6308 H   0  0  0  0  0  0  0  0  0  0  0  0
   54.0444   -5.4284   -8.4903 C   0  0  0  0  0  0  0  0  0  0  0  0
   53.1890   -4.2301   -8.4616 C   0  0  0  0  0  0  0  0  0  0  0  0
   51.8564   -4.3092   -8.1380 C   0  0  0  0  0  0  0  0  0  0  0  0
   51.0481   -3.1770   -8.1097 C   0  0  0  0  0  0  0  0  0  0  0  0
   51.5942   -1.9518   -8.4122 C   0  0  0  0  0  0  0  0  0  0  0  0
   50.7999   -0.7930   -8.3909 O   0  0  0  0  0  0  0  0  0  0  0  0
   52.9350   -1.8438   -8.7419 C   0  0  0  0  0  0  0  0  0  0  0  0
   53.7158   -3.0003   -8.7602 C   0  0  0  0  0  0  0  0  0  0  0  0
   50.3472   -0.5567   -9.2629 H   0  0  0  0  0  0  0  0  0  0  0  0
   54.0776   -6.5050   -3.2192 C   0  0  0  0  0  0  0  0  0  0  0  0
   54.4299   -5.4438   -2.5883 O   0  0  0  0  0  0  0  0  0  0  0  0
   52.7385   -6.8851   -3.1220 N   0  0  0  0  0  0  0  0  0  0  0  0
   52.4092   -7.7331   -3.6301 H   0  0  0  0  0  0  0  0  0  0  0  0
   51.7400   -6.1464   -2.3389 C   0  0  0  0  0  0  0  0  0  0  0  0
   51.8692   -6.5484   -0.8962 C   0  0  0  0  0  0  0  0  0  0  0  0
   52.7437   -5.8720   -0.0288 N   0  0  0  0  0  0  0  0  0  0  0  0
   51.1888   -7.5122   -0.4440 O   0  0  0  0  0  0  0  0  0  0  0  0
   52.8737   -6.2580    0.9461 H   0  0  0  0  0  0  0  0  0  0  0  0
   53.2894   -5.0133   -0.2671 H   0  0  0  0  0  0  0  0  0  0  0  0
   50.3699   -6.3841   -2.8630 C   0  0  0  0  0  0  0  0  0  0  0  0
   49.8600   -5.2201   -3.6148 C   0  0  0  0  0  0  0  0  0  0  0  0
   48.6019   -4.7217   -3.2964 C   0  0  0  0  0  0  0  0  0  0  0  0
   48.1412   -3.6277   -3.9732 C   0  0  0  0  0  0  0  0  0  0  0  0
   48.8622   -2.9795   -4.9686 C   0  0  0  0  0  0  0  0  0  0  0  0
   50.1116   -3.4904   -5.2709 C   0  0  0  0  0  0  0  0  0  0  0  0
   50.5956   -4.5885   -4.6044 C   0  0  0  0  0  0  0  0  0  0  0  0
  8  9  1  0  0  0
  9 12  1  0  0  0
 12 13  1  0  0  0
 13 14  2  0  0  0
 14 15  1  0  0  0
 15 16  2  0  0  0
 16 17  1  0  0  0
 16 18  1  0  0  0
 18 19  2  0  0  0
  9  1  1  0  0  0
  1  2  2  0  0  0
  1  3  1  0  0  0
  3  4  1  0  0  0
  4  5  1  0  0  0
  5  6  1  0  0  0
  6  7  1  0  0  0
  7 21  1  0  0  0
 21 22  2  0  0  0
 21 23  1  0  0  0
 23 25  1  0  0  0
 25 31  1  0  0  0
 31 32  1  0  0  0
 32 33  2  0  0  0
 33 34  1  0  0  0
 34 35  2  0  0  0
 35 36  1  0  0  0
 36 37  2  0  0  0
 25 26  1  0  0  0
 26 27  1  0  0  0
 26 28  2  0  0  0
 19 13  1  0  0  0
  7  3  1  0  0  0
 37 32  1  0  0  0
  8 10  1  0  0  0
  8 11  1  0  0  0
 17 20  1  0  0  0
 23 24  1  0  0  0
 27 29  1  0  0  0
 27 30  1  0  0  0
M  END
> <minimizedAffinity>
-6.00900

> <CNNscore>
0.1899733841

> <CNNaffinity>
6.3009963036

> <CNN_VS>
1.1970216036

> <CNNaffinity_variance>
0.1273127049

$$$$
[H]OC(=O)C([H])([H])[C@@]([H])(C(=O)C([H])([H])Oc1c([H])c([H])c([H])c([H])c1[H])N([H])C(=O)[C@@]([H])(N([H])C(=O)[C@@]([H])(N([H])C(=O)OC([H])([H])c1c([H])c([H])c([H])c([H])c1[H])C([H])([H])c1c([H])c([H])c([H])c([H])c1[H])C([H])(C([H])([H])[H])C([H])([H])[H]


 48 50  0  0  0  0  0  0  0  0999 V2000
   54.0525   -4.7380   -7.4134 C   0  0  0  0  0  0  0  0  0  0  0  0
   54.2017   -5.0906   -6.0364 N   0  0  0  0  0  0  0  0  0  0  0  0
   54.7177   -6.2857   -5.5134 C   0  0  0  0  0  0  0  0  0  0  0  0
   55.1144   -7.1833   -6.2827 O   0  0  0  0  0  0  0  0  0  0  0  0
   53.8882   -4.3733   -5.3056 H   0  0  0  0  0  0  0  0  0  0  0  0
   54.7983   -6.5141   -4.0581 C   0  0  0  0  0  0  0  0  0  0  0  0
   53.4806   -6.6363   -3.4582 N   0  0  0  0  0  0  0  0  0  0  0  0
   53.1349   -5.8263   -2.3491 C   0  0  0  0  0  0  0  0  0  0  0  0
   54.0117   -5.0210   -1.9153 O   0  0  0  0  0  0  0  0  0  0  0  0
   52.7773   -7.3059   -3.8202 H   0  0  0  0  0  0  0  0  0  0  0  0
   51.9111   -5.8382   -1.6999 O   0  0  0  0  0  0  0  0  0  0  0  0
   50.8784   -6.7340   -2.0727 C   0  0  0  0  0  0  0  0  0  0  0  0
   50.8360   -7.9293   -1.2147 C   0  0  0  0  0  0  0  0  0  0  0  0
   50.0796   -7.9824   -0.0697 C   0  0  0  0  0  0  0  0  0  0  0  0
   50.0792   -9.1327    0.6914 C   0  0  0  0  0  0  0  0  0  0  0  0
   50.8467  -10.2166    0.2817 C   0  0  0  0  0  0  0  0  0  0  0  0
   51.6067  -10.1796   -0.8585 C   0  0  0  0  0  0  0  0  0  0  0  0
   51.5966   -9.0176   -1.6111 C   0  0  0  0  0  0  0  0  0  0  0  0
   55.6333   -7.7661   -3.7418 C   0  0  0  0  0  0  0  0  0  0  0  0
   56.9377   -7.2973   -3.2046 C   0  0  0  0  0  0  0  0  0  0  0  0
   56.9752   -6.2781   -2.2838 C   0  0  0  0  0  0  0  0  0  0  0  0
   58.1876   -5.8163   -1.7645 C   0  0  0  0  0  0  0  0  0  0  0  0
   59.3868   -6.3764   -2.1659 C   0  0  0  0  0  0  0  0  0  0  0  0
   59.3467   -7.4039   -3.0957 C   0  0  0  0  0  0  0  0  0  0  0  0
   58.1266   -7.8561   -3.6073 C   0  0  0  0  0  0  0  0  0  0  0  0
   55.2761   -4.2372   -8.0679 C   0  0  0  0  0  0  0  0  0  0  0  0
   55.8318   -3.1781   -7.6880 O   0  0  0  0  0  0  0  0  0  0  0  0
   55.8864   -4.9209   -9.1617 N   0  0  0  0  0  0  0  0  0  0  0  0
   55.4854   -5.8054   -9.5279 H   0  0  0  0  0  0  0  0  0  0  0  0
   57.0882   -4.4254   -9.8176 C   0  0  0  0  0  0  0  0  0  0  0  0
   56.6211   -4.0167  -11.1915 C   0  0  0  0  0  0  0  0  0  0  0  0
   55.4287   -4.0138  -11.4852 O   0  0  0  0  0  0  0  0  0  0  0  0
   57.5507   -3.5962  -12.2544 C   0  0  0  0  0  0  0  0  0  0  0  0
   57.3882   -4.4085  -13.3852 O   0  0  0  0  0  0  0  0  0  0  0  0
   57.2884   -3.8384  -14.6437 C   0  0  0  0  0  0  0  0  0  0  0  0
   58.3706   -3.1923  -15.1884 C   0  0  0  0  0  0  0  0  0  0  0  0
   58.2274   -2.6347  -16.4495 C   0  0  0  0  0  0  0  0  0  0  0  0
   57.0220   -2.7361  -17.1250 C   0  0  0  0  0  0  0  0  0  0  0  0
   55.9383   -3.3825  -16.5824 C   0  0  0  0  0  0  0  0  0  0  0  0
   56.0926   -3.9359  -15.3226 C   0  0  0  0  0  0  0  0  0  0  0  0
   58.1120   -5.5255   -9.9215 C   0  0  0  0  0  0  0  0  0  0  0  0
   58.9197   -5.6636   -8.6901 C   0  0  0  0  0  0  0  0  0  0  0  0
   60.1972   -6.1857   -8.7089 O   0  0  0  0  0  0  0  0  0  0  0  0
   58.4252   -5.2945   -7.5976 O   0  0  0  0  0  0  0  0  0  0  0  0
   60.6112   -6.6379   -7.9023 H   0  0  0  0  0  0  0  0  0  0  0  0
   52.7937   -3.5678   -9.1649 C   0  0  0  0  0  0  0  0  0  0  0  0
   52.8617   -3.8312   -7.6665 C   0  0  0  0  0  0  0  0  0  0  0  0
   51.5612   -4.3523   -7.2055 C   0  0  0  0  0  0  0  0  0  0  0  0
 46 47  1  0  0  0
 47 48  1  0  0  0
 47  1  1  0  0  0
  1  2  1  0  0  0
  2  3  1  0  0  0
  3  4  2  0  0  0
  3  6  1  0  0  0
  6 19  1  0  0  0
 19 20  1  0  0  0
 20 21  2  0  0  0
 21 22  1  0  0  0
 22 23  2  0  0  0
 23 24  1  0  0  0
 24 25  2  0  0  0
  6  7  1  0  0  0
  7  8  1  0  0  0
  8  9  2  0  0  0
  8 11  1  0  0  0
 11 12  1  0  0  0
 12 13  1  0  0  0
 13 14  2  0  0  0
 14 15  1  0  0  0
 15 16  2  0  0  0
 16 17  1  0  0  0
 17 18  2  0  0  0
  1 26  1  0  0  0
 26 27  2  0  0  0
 26 28  1  0  0  0
 28 30  1  0  0  0
 30 41  1  0  0  0
 41 42  1  0  0  0
 42 43  1  0  0  0
 42 44  2  0  0  0
 30 31  1  0  0  0
 31 32  2  0  0  0
 31 33  1  0  0  0
 33 34  1  0  0  0
 34 35  1  0  0  0
 35 36  2  0  0  0
 36 37  1  0  0  0
 37 38  2  0  0  0
 38 39  1  0  0  0
 39 40  2  0  0  0
 25 20  1  0  0  0
 18 13  1  0  0  0
 40 35  1  0  0  0
  2  5  1  0  0  0
  7 10  1  0  0  0
 28 29  1  0  0  0
 43 45  1  0  0  0
M  END
> <minimizedAffinity>
-7.70955

> <CNNscore>
0.2139027566

> <CNNaffinity>
6.1833028793

> <CNN_VS>
1.3226255178

> <CNNaffinity_variance>
0.8418065310

$$$$
[H]OC(=O)C([H])([H])[C@@]([H])(C(=O)C([H])([H])Oc1c([H])c([H])c([H])c([H])c1[H])N([H])C(=O)[C@@]([H])(N([H])C(=O)[C@@]([H])(N([H])C(=O)OC([H])([H])c1c([H])c([H])c([H])c([H])c1[H])C([H])([H])c1c([H])c([H])c([H])c([H])c1[H])C([H])(C([H])([H])[H])C([H])([H])[H]


 48 50  0  0  0  0  0  0  0  0999 V2000
   56.0437   -6.1772   -2.7005 C   0  0  0  0  0  0  0  0  0  0  0  0
   55.9638   -5.6891   -4.0415 N   0  0  0  0  0  0  0  0  0  0  0  0
   55.0038   -6.0144   -5.0115 C   0  0  0  0  0  0  0  0  0  0  0  0
   54.0844   -6.8106   -4.7366 O   0  0  0  0  0  0  0  0  0  0  0  0
   56.7146   -4.9955   -4.3607 H   0  0  0  0  0  0  0  0  0  0  0  0
   55.0580   -5.4367   -6.3678 C   0  0  0  0  0  0  0  0  0  0  0  0
   56.2735   -5.8172   -7.0672 N   0  0  0  0  0  0  0  0  0  0  0  0
   57.2126   -4.8236   -7.4367 C   0  0  0  0  0  0  0  0  0  0  0  0
   56.9408   -3.6216   -7.1424 O   0  0  0  0  0  0  0  0  0  0  0  0
   56.4772   -6.8045   -7.3076 H   0  0  0  0  0  0  0  0  0  0  0  0
   58.4107   -5.0587   -8.0913 O   0  0  0  0  0  0  0  0  0  0  0  0
   58.4648   -5.7774   -9.3114 C   0  0  0  0  0  0  0  0  0  0  0  0
   57.8932   -5.0181  -10.4353 C   0  0  0  0  0  0  0  0  0  0  0  0
   56.5623   -4.6839  -10.4917 C   0  0  0  0  0  0  0  0  0  0  0  0
   56.0868   -3.9683  -11.5707 C   0  0  0  0  0  0  0  0  0  0  0  0
   56.9677   -3.5996  -12.5807 C   0  0  0  0  0  0  0  0  0  0  0  0
   58.2986   -3.9251  -12.5391 C   0  0  0  0  0  0  0  0  0  0  0  0
   58.7600   -4.6439  -11.4496 C   0  0  0  0  0  0  0  0  0  0  0  0
   53.8293   -5.8526   -7.1938 C   0  0  0  0  0  0  0  0  0  0  0  0
   53.1854   -4.6035   -7.6784 C   0  0  0  0  0  0  0  0  0  0  0  0
   53.8779   -3.7477   -8.5007 C   0  0  0  0  0  0  0  0  0  0  0  0
   53.2976   -2.5657   -8.9686 C   0  0  0  0  0  0  0  0  0  0  0  0
   52.0045   -2.2255   -8.6145 C   0  0  0  0  0  0  0  0  0  0  0  0
   51.3080   -3.0899   -7.7841 C   0  0  0  0  0  0  0  0  0  0  0  0
   51.9008   -4.2692   -7.3230 C   0  0  0  0  0  0  0  0  0  0  0  0
   54.9203   -7.0350   -2.2781 C   0  0  0  0  0  0  0  0  0  0  0  0
   55.0169   -8.2862   -2.2851 O   0  0  0  0  0  0  0  0  0  0  0  0
   53.6722   -6.4939   -1.8468 N   0  0  0  0  0  0  0  0  0  0  0  0
   53.5201   -5.4679   -1.8110 H   0  0  0  0  0  0  0  0  0  0  0  0
   52.5570   -7.3364   -1.4387 C   0  0  0  0  0  0  0  0  0  0  0  0
   51.3332   -6.5701   -1.8722 C   0  0  0  0  0  0  0  0  0  0  0  0
   50.2088   -6.9062   -1.5104 O   0  0  0  0  0  0  0  0  0  0  0  0
   51.4055   -5.3830   -2.7418 C   0  0  0  0  0  0  0  0  0  0  0  0
   50.5323   -5.5284   -3.8287 O   0  0  0  0  0  0  0  0  0  0  0  0
   49.5232   -4.6034   -4.0400 C   0  0  0  0  0  0  0  0  0  0  0  0
   48.3300   -4.7303   -3.3726 C   0  0  0  0  0  0  0  0  0  0  0  0
   47.3463   -3.7838   -3.6143 C   0  0  0  0  0  0  0  0  0  0  0  0
   47.5778   -2.7481   -4.5050 C   0  0  0  0  0  0  0  0  0  0  0  0
   48.7708   -2.6187   -5.1733 C   0  0  0  0  0  0  0  0  0  0  0  0
   49.7462   -3.5695   -4.9240 C   0  0  0  0  0  0  0  0  0  0  0  0
   52.5599   -7.5096    0.0577 C   0  0  0  0  0  0  0  0  0  0  0  0
   52.2573   -8.8987    0.4660 C   0  0  0  0  0  0  0  0  0  0  0  0
   51.1475   -9.5726   -0.0022 O   0  0  0  0  0  0  0  0  0  0  0  0
   53.0346   -9.4783    1.2623 O   0  0  0  0  0  0  0  0  0  0  0  0
   50.7109  -10.3261    0.5157 H   0  0  0  0  0  0  0  0  0  0  0  0
   56.6387   -5.7566   -0.3573 C   0  0  0  0  0  0  0  0  0  0  0  0
   56.3342   -5.0833   -1.6890 C   0  0  0  0  0  0  0  0  0  0  0  0
   57.4435   -4.1766   -2.0395 C   0  0  0  0  0  0  0  0  0  0  0  0
 46 47  1  0  0  0
 47 48  1  0  0  0
 47  1  1  0  0  0
  1  2  1  0  0  0
  2  3  1  0  0  0
  3  4  2  0  0  0
  3  6  1  0  0  0
  6 19  1  0  0  0
 19 20  1  0  0  0
 20 21  2  0  0  0
 21 22  1  0  0  0
 22 23  2  0  0  0
 23 24  1  0  0  0
 24 25  2  0  0  0
  6  7  1  0  0  0
  7  8  1  0  0  0
  8  9  2  0  0  0
  8 11  1  0  0  0
 11 12  1  0  0  0
 12 13  1  0  0  0
 13 14  2  0  0  0
 14 15  1  0  0  0
 15 16  2  0  0  0
 16 17  1  0  0  0
 17 18  2  0  0  0
  1 26  1  0  0  0
 26 27  2  0  0  0
 26 28  1  0  0  0
 28 30  1  0  0  0
 30 41  1  0  0  0
 41 42  1  0  0  0
 42 43  1  0  0  0
 42 44  2  0  0  0
 30 31  1  0  0  0
 31 32  2  0  0  0
 31 33  1  0  0  0
 33 34  1  0  0  0
 34 35  1  0  0  0
 35 36  2  0  0  0
 36 37  1  0  0  0
 37 38  2  0  0  0
 38 39  1  0  0  0
 39 40  2  0  0  0
 25 20  1  0  0  0
 18 13  1  0  0  0
 40 35  1  0  0  0
  2  5  1  0  0  0
  7 10  1  0  0  0
 28 29  1  0  0  0
 43 45  1  0  0  0
M  END
> <minimizedAffinity>
-8.93650

> <CNNscore>
0.2110555619

> <CNNaffinity>
7.0118432045

> <CNN_VS>
1.4798885584

> <CNNaffinity_variance>
0.2160853446

$$$$
[H]OC(=O)C([H])([H])[C@@]([H])(C(=O)C([H])([H])Oc1c([H])c([H])c([H])c([H])c1[H])N([H])C(=O)[C@@]([H])(N([H])C(=O)[C@@]([H])(N([H])C(=O)OC([H])([H])c1c([H])c([H])c([H])c([H])c1[H])C([H])([H])c1c([H])c([H])c([H])c([H])c1[H])C([H])(C([H])([H])[H])C([H])([H])[H]


 48 50  0  0  0  0  0  0  0  0999 V2000
   56.3246   -6.7382   -4.9978 C   0  0  0  0  0  0  0  0  0  0  0  0
   56.8785   -6.5039   -3.7011 N   0  0  0  0  0  0  0  0  0  0  0  0
   57.9721   -7.1548   -3.1108 C   0  0  0  0  0  0  0  0  0  0  0  0
   58.5791   -8.0466   -3.7363 O   0  0  0  0  0  0  0  0  0  0  0  0
   56.4186   -5.7494   -3.0961 H   0  0  0  0  0  0  0  0  0  0  0  0
   58.4247   -6.8121   -1.7492 C   0  0  0  0  0  0  0  0  0  0  0  0
   59.8444   -6.5048   -1.7149 N   0  0  0  0  0  0  0  0  0  0  0  0
   60.7428   -7.4002   -1.0847 C   0  0  0  0  0  0  0  0  0  0  0  0
   60.2567   -8.4463   -0.5605 O   0  0  0  0  0  0  0  0  0  0  0  0
   60.2252   -5.6406   -2.1417 H   0  0  0  0  0  0  0  0  0  0  0  0
   62.1147   -7.2285   -0.9979 O   0  0  0  0  0  0  0  0  0  0  0  0
   62.8670   -7.7688    0.0745 C   0  0  0  0  0  0  0  0  0  0  0  0
   63.6812   -6.7503    0.7574 C   0  0  0  0  0  0  0  0  0  0  0  0
   65.0487   -6.7058    0.6389 C   0  0  0  0  0  0  0  0  0  0  0  0
   65.7563   -5.7247    1.3017 C   0  0  0  0  0  0  0  0  0  0  0  0
   65.0679   -4.7995    2.0775 C   0  0  0  0  0  0  0  0  0  0  0  0
   63.7034   -4.8302    2.2056 C   0  0  0  0  0  0  0  0  0  0  0  0
   63.0079   -5.8214    1.5344 C   0  0  0  0  0  0  0  0  0  0  0  0
   57.6215   -5.6295   -1.1824 C   0  0  0  0  0  0  0  0  0  0  0  0
   56.4968   -6.2017   -0.3966 C   0  0  0  0  0  0  0  0  0  0  0  0
   55.1989   -5.9272   -0.7544 C   0  0  0  0  0  0  0  0  0  0  0  0
   54.1230   -6.4498   -0.0317 C   0  0  0  0  0  0  0  0  0  0  0  0
   54.3383   -7.2612    1.0675 C   0  0  0  0  0  0  0  0  0  0  0  0
   55.6486   -7.5361    1.4272 C   0  0  0  0  0  0  0  0  0  0  0  0
   56.7157   -7.0065    0.6954 C   0  0  0  0  0  0  0  0  0  0  0  0
   56.3872   -5.5904   -5.9224 C   0  0  0  0  0  0  0  0  0  0  0  0
   56.4036   -4.4101   -5.4963 O   0  0  0  0  0  0  0  0  0  0  0  0
   56.4274   -5.7578   -7.3390 N   0  0  0  0  0  0  0  0  0  0  0  0
   56.4208   -6.7046   -7.7641 H   0  0  0  0  0  0  0  0  0  0  0  0
   56.4789   -4.6281   -8.2561 C   0  0  0  0  0  0  0  0  0  0  0  0
   55.0328   -4.3283   -8.5594 C   0  0  0  0  0  0  0  0  0  0  0  0
   54.6427   -4.1698   -9.7130 O   0  0  0  0  0  0  0  0  0  0  0  0
   54.0078   -4.2119   -7.5075 C   0  0  0  0  0  0  0  0  0  0  0  0
   52.7273   -4.2889   -8.0725 O   0  0  0  0  0  0  0  0  0  0  0  0
   51.6350   -3.7722   -7.3952 C   0  0  0  0  0  0  0  0  0  0  0  0
   51.0415   -2.6160   -7.8382 C   0  0  0  0  0  0  0  0  0  0  0  0
   49.9519   -2.1325   -7.1304 C   0  0  0  0  0  0  0  0  0  0  0  0
   49.4895   -2.8084   -6.0129 C   0  0  0  0  0  0  0  0  0  0  0  0
   50.0812   -3.9655   -5.5683 C   0  0  0  0  0  0  0  0  0  0  0  0
   51.1684   -4.4395   -6.2829 C   0  0  0  0  0  0  0  0  0  0  0  0
   57.2054   -5.0178   -9.5168 C   0  0  0  0  0  0  0  0  0  0  0  0
   58.5305   -5.6155   -9.2433 C   0  0  0  0  0  0  0  0  0  0  0  0
   59.1362   -6.4852  -10.1274 O   0  0  0  0  0  0  0  0  0  0  0  0
   59.1181   -5.3212   -8.1746 O   0  0  0  0  0  0  0  0  0  0  0  0
   59.8102   -7.1806   -9.8296 H   0  0  0  0  0  0  0  0  0  0  0  0
   54.9707   -8.4839   -3.9297 C   0  0  0  0  0  0  0  0  0  0  0  0
   54.9366   -7.3507   -4.9465 C   0  0  0  0  0  0  0  0  0  0  0  0
   53.8471   -6.4192   -4.5990 C   0  0  0  0  0  0  0  0  0  0  0  0
 46 47  1  0  0  0
 47 48  1  0  0  0
 47  1  1  0  0  0
  1  2  1  0  0  0
  2  3  1  0  0  0
  3  4  2  0  0  0
  3  6  1  0  0  0
  6 19  1  0  0  0
 19 20  1  0  0  0
 20 21  2  0  0  0
 21 22  1  0  0  0
 22 23  2  0  0  0
 23 24  1  0  0  0
 24 25  2  0  0  0
  6  7  1  0  0  0
  7  8  1  0  0  0
  8  9  2  0  0  0
  8 11  1  0  0  0
 11 12  1  0  0  0
 12 13  1  0  0  0
 13 14  2  0  0  0
 14 15  1  0  0  0
 15 16  2  0  0  0
 16 17  1  0  0  0
 17 18  2  0  0  0
  1 26  1  0  0  0
 26 27  2  0  0  0
 26 28  1  0  0  0
 28 30  1  0  0  0
 30 41  1  0  0  0
 41 42  1  0  0  0
 42 43  1  0  0  0
 42 44  2  0  0  0
 30 31  1  0  0  0
 31 32  2  0  0  0
 31 33  1  0  0  0
 33 34  1  0  0  0
 34 35  1  0  0  0
 35 36  2  0  0  0
 36 37  1  0  0  0
 37 38  2  0  0  0
 38 39  1  0  0  0
 39 40  2  0  0  0
 25 20  1  0  0  0
 18 13  1  0  0  0
 40 35  1  0  0  0
  2  5  1  0  0  0
  7 10  1  0  0  0
 28 29  1  0  0  0
 43 45  1  0  0  0
M  END
> <minimizedAffinity>
-7.70407

> <CNNscore>
0.1859728992

> <CNNaffinity>
6.1932759285

> <CNN_VS>
1.1517814398

> <CNNaffinity_variance>
0.2171094865

$$$$
[H]OC(=O)C([H])([H])[C@@]([H])(C(=O)C([H])([H])Oc1c([H])c([H])c([H])c([H])c1[H])N([H])C(=O)[C@@]([H])(N([H])C(=O)[C@@]([H])(N([H])C(=O)OC([H])([H])c1c([H])c([H])c([H])c([H])c1[H])C([H])([H])c1c([H])c([H])c([H])c([H])c1[H])C([H])(C([H])([H])[H])C([H])([H])[H]


 48 50  0  0  0  0  0  0  0  0999 V2000
   55.7263   -5.8461   -5.4756 C   0  0  0  0  0  0  0  0  0  0  0  0
   55.8710   -5.5023   -4.0958 N   0  0  0  0  0  0  0  0  0  0  0  0
   56.8350   -5.9790   -3.1949 C   0  0  0  0  0  0  0  0  0  0  0  0
   57.6972   -6.7944   -3.5777 O   0  0  0  0  0  0  0  0  0  0  0  0
   55.1720   -4.8029   -3.6846 H   0  0  0  0  0  0  0  0  0  0  0  0
   56.8517   -5.5401   -1.7866 C   0  0  0  0  0  0  0  0  0  0  0  0
   57.2394   -6.6170   -0.8914 N   0  0  0  0  0  0  0  0  0  0  0  0
   56.3143   -7.6449   -0.5857 C   0  0  0  0  0  0  0  0  0  0  0  0
   55.1634   -7.5730   -1.1107 O   0  0  0  0  0  0  0  0  0  0  0  0
   58.1825   -6.6569   -0.4637 H   0  0  0  0  0  0  0  0  0  0  0  0
   56.5663   -8.7291    0.2389 O   0  0  0  0  0  0  0  0  0  0  0  0
   57.7649   -8.8334    0.9877 C   0  0  0  0  0  0  0  0  0  0  0  0
   58.8560   -9.4507    0.2164 C   0  0  0  0  0  0  0  0  0  0  0  0
   58.8486  -10.7804   -0.1272 C   0  0  0  0  0  0  0  0  0  0  0  0
   59.8996  -11.3000   -0.8538 C   0  0  0  0  0  0  0  0  0  0  0  0
   60.9466  -10.4640   -1.2238 C   0  0  0  0  0  0  0  0  0  0  0  0
   60.9686   -9.1350   -0.8891 C   0  0  0  0  0  0  0  0  0  0  0  0
   59.9065   -8.6289   -0.1592 C   0  0  0  0  0  0  0  0  0  0  0  0
   57.7920   -4.3385   -1.5945 C   0  0  0  0  0  0  0  0  0  0  0  0
   58.4476   -4.5039   -0.2706 C   0  0  0  0  0  0  0  0  0  0  0  0
   59.7427   -4.9569   -0.1970 C   0  0  0  0  0  0  0  0  0  0  0  0
   60.3822   -5.1239    1.0343 C   0  0  0  0  0  0  0  0  0  0  0  0
   59.7244   -4.8355    2.2164 C   0  0  0  0  0  0  0  0  0  0  0  0
   58.4175   -4.3795    2.1398 C   0  0  0  0  0  0  0  0  0  0  0  0
   57.7897   -4.2171    0.9011 C   0  0  0  0  0  0  0  0  0  0  0  0
   55.9160   -4.7308   -6.4223 C   0  0  0  0  0  0  0  0  0  0  0  0
   56.4057   -3.6366   -6.0510 O   0  0  0  0  0  0  0  0  0  0  0  0
   55.5522   -4.8326   -7.7983 N   0  0  0  0  0  0  0  0  0  0  0  0
   55.1449   -5.7083   -8.1785 H   0  0  0  0  0  0  0  0  0  0  0  0
   55.7279   -3.7313   -8.7344 C   0  0  0  0  0  0  0  0  0  0  0  0
   54.3899   -3.0368   -8.7480 C   0  0  0  0  0  0  0  0  0  0  0  0
   54.3057   -1.8132   -8.6869 O   0  0  0  0  0  0  0  0  0  0  0  0
   53.1150   -3.7697   -8.8384 C   0  0  0  0  0  0  0  0  0  0  0  0
   52.0424   -2.9027   -8.5878 O   0  0  0  0  0  0  0  0  0  0  0  0
   51.1944   -3.1351   -7.5174 C   0  0  0  0  0  0  0  0  0  0  0  0
   51.3639   -4.2563   -6.7431 C   0  0  0  0  0  0  0  0  0  0  0  0
   50.4925   -4.4513   -5.6826 C   0  0  0  0  0  0  0  0  0  0  0  0
   49.4876   -3.5325   -5.4266 C   0  0  0  0  0  0  0  0  0  0  0  0
   49.3167   -2.4099   -6.1994 C   0  0  0  0  0  0  0  0  0  0  0  0
   50.1927   -2.2250   -7.2556 C   0  0  0  0  0  0  0  0  0  0  0  0
   56.0518   -4.2644  -10.1056 C   0  0  0  0  0  0  0  0  0  0  0  0
   57.4331   -4.7855  -10.1972 C   0  0  0  0  0  0  0  0  0  0  0  0
   58.1227   -4.8214  -11.3923 O   0  0  0  0  0  0  0  0  0  0  0  0
   57.9910   -5.2072   -9.1556 O   0  0  0  0  0  0  0  0  0  0  0  0
   58.8668   -5.4856  -11.5704 H   0  0  0  0  0  0  0  0  0  0  0  0
   54.7946   -8.1059   -5.6926 C   0  0  0  0  0  0  0  0  0  0  0  0
   54.4540   -6.6232   -5.7615 C   0  0  0  0  0  0  0  0  0  0  0  0
   53.3245   -6.3419   -4.8556 C   0  0  0  0  0  0  0  0  0  0  0  0
 46 47  1  0  0  0
 47 48  1  0  0  0
 47  1  1  0  0  0
  1  2  1  0  0  0
  2  3  1  0  0  0
  3  4  2  0  0  0
  3  6  1  0  0  0
  6 19  1  0  0  0
 19 20  1  0  0  0
 20 21  2  0  0  0
 21 22  1  0  0  0
 22 23  2  0  0  0
 23 24  1  0  0  0
 24 25  2  0  0  0
  6  7  1  0  0  0
  7  8  1  0  0  0
  8  9  2  0  0  0
  8 11  1  0  0  0
 11 12  1  0  0  0
 12 13  1  0  0  0
 13 14  2  0  0  0
 14 15  1  0  0  0
 15 16  2  0  0  0
 16 17  1  0  0  0
 17 18  2  0  0  0
  1 26  1  0  0  0
 26 27  2  0  0  0
 26 28  1  0  0  0
 28 30  1  0  0  0
 30 41  1  0  0  0
 41 42  1  0  0  0
 42 43  1  0  0  0
 42 44  2  0  0  0
 30 31  1  0  0  0
 31 32  2  0  0  0
 31 33  1  0  0  0
 33 34  1  0  0  0
 34 35  1  0  0  0
 35 36  2  0  0  0
 36 37  1  0  0  0
 37 38  2  0  0  0
 38 39  1  0  0  0
 39 40  2  0  0  0
 25 20  1  0  0  0
 18 13  1  0  0  0
 40 35  1  0  0  0
  2  5  1  0  0  0
  7 10  1  0  0  0
 28 29  1  0  0  0
 43 45  1  0  0  0
M  END
> <minimizedAffinity>
-7.45942

> <CNNscore>
0.1812177747

> <CNNaffinity>
6.6926450729

> <CNN_VS>
1.2128262520

> <CNNaffinity_variance>
0.0338899270

$$$$
[H]OC(=O)C([H])([H])[C@@]([H])(C(=O)C([H])([H])Oc1c([H])c([H])c([H])c([H])c1[H])N([H])C(=O)[C@@]([H])(N([H])C(=O)[C@@]([H])(N([H])C(=O)OC([H])([H])c1c([H])c([H])c([H])c([H])c1[H])C([H])([H])c1c([H])c([H])c([H])c([H])c1[H])C([H])(C([H])([H])[H])C([H])([H])[H]


 48 50  0  0  0  0  0  0  0  0999 V2000
   55.8354   -6.4727   -5.5656 C   0  0  0  0  0  0  0  0  0  0  0  0
   56.6360   -6.5271   -4.3828 N   0  0  0  0  0  0  0  0  0  0  0  0
   56.7551   -7.5963   -3.4823 C   0  0  0  0  0  0  0  0  0  0  0  0
   56.1211   -8.6517   -3.6798 O   0  0  0  0  0  0  0  0  0  0  0  0
   57.2176   -5.6616   -4.1393 H   0  0  0  0  0  0  0  0  0  0  0  0
   57.6170   -7.5011   -2.2889 C   0  0  0  0  0  0  0  0  0  0  0  0
   58.7944   -8.3444   -2.4062 N   0  0  0  0  0  0  0  0  0  0  0  0
   59.6309   -8.2301   -3.5433 C   0  0  0  0  0  0  0  0  0  0  0  0
   59.3031   -7.3862   -4.4298 O   0  0  0  0  0  0  0  0  0  0  0  0
   59.0444   -9.0356   -1.6756 H   0  0  0  0  0  0  0  0  0  0  0  0
   60.7848   -8.9639   -3.7650 O   0  0  0  0  0  0  0  0  0  0  0  0
   61.6199   -8.7198   -4.8835 C   0  0  0  0  0  0  0  0  0  0  0  0
   61.4674   -9.7425   -5.9310 C   0  0  0  0  0  0  0  0  0  0  0  0
   60.6619  -10.8429   -5.7684 C   0  0  0  0  0  0  0  0  0  0  0  0
   60.5581  -11.7655   -6.7885 C   0  0  0  0  0  0  0  0  0  0  0  0
   61.2731  -11.5608   -7.9627 C   0  0  0  0  0  0  0  0  0  0  0  0
   62.0809  -10.4677   -8.1407 C   0  0  0  0  0  0  0  0  0  0  0  0
   62.1747   -9.5513   -7.1072 C   0  0  0  0  0  0  0  0  0  0  0  0
   58.0417   -6.0459   -2.0299 C   0  0  0  0  0  0  0  0  0  0  0  0
   57.2811   -5.5733   -0.8433 C   0  0  0  0  0  0  0  0  0  0  0  0
   55.9332   -5.3265   -0.9447 C   0  0  0  0  0  0  0  0  0  0  0  0
   55.1947   -4.8792    0.1542 C   0  0  0  0  0  0  0  0  0  0  0  0
   55.8048   -4.6728    1.3781 C   0  0  0  0  0  0  0  0  0  0  0  0
   57.1650   -4.9214    1.4779 C   0  0  0  0  0  0  0  0  0  0  0  0
   57.8918   -5.3685    0.3704 C   0  0  0  0  0  0  0  0  0  0  0  0
   56.0541   -5.2874   -6.4161 C   0  0  0  0  0  0  0  0  0  0  0  0
   56.2475   -4.1529   -5.9159 O   0  0  0  0  0  0  0  0  0  0  0  0
   56.0530   -5.3646   -7.8410 N   0  0  0  0  0  0  0  0  0  0  0  0
   55.9034   -6.2701   -8.3256 H   0  0  0  0  0  0  0  0  0  0  0  0
   56.2582   -4.1960   -8.6849 C   0  0  0  0  0  0  0  0  0  0  0  0
   54.8856   -3.8785   -9.2217 C   0  0  0  0  0  0  0  0  0  0  0  0
   54.5563   -4.1988  -10.3606 O   0  0  0  0  0  0  0  0  0  0  0  0
   53.8635   -3.1773   -8.4253 C   0  0  0  0  0  0  0  0  0  0  0  0
   52.9007   -4.0880   -7.9685 O   0  0  0  0  0  0  0  0  0  0  0  0
   51.7369   -3.6307   -7.3724 C   0  0  0  0  0  0  0  0  0  0  0  0
   51.1765   -4.3381   -6.3376 C   0  0  0  0  0  0  0  0  0  0  0  0
   50.0111   -3.8462   -5.7703 C   0  0  0  0  0  0  0  0  0  0  0  0
   49.4436   -2.6749   -6.2455 C   0  0  0  0  0  0  0  0  0  0  0  0
   50.0029   -1.9653   -7.2800 C   0  0  0  0  0  0  0  0  0  0  0  0
   51.1668   -2.4656   -7.8389 C   0  0  0  0  0  0  0  0  0  0  0  0
   57.1946   -4.5324   -9.8160 C   0  0  0  0  0  0  0  0  0  0  0  0
   58.3366   -5.3630   -9.3757 C   0  0  0  0  0  0  0  0  0  0  0  0
   58.8119   -6.4129  -10.1350 O   0  0  0  0  0  0  0  0  0  0  0  0
   58.8866   -5.1027   -8.2785 O   0  0  0  0  0  0  0  0  0  0  0  0
   59.2971   -7.2030   -9.7263 H   0  0  0  0  0  0  0  0  0  0  0  0
   53.9042   -5.6698   -4.2821 C   0  0  0  0  0  0  0  0  0  0  0  0
   54.3612   -6.7122   -5.2939 C   0  0  0  0  0  0  0  0  0  0  0  0
   53.4832   -6.6573   -6.4778 C   0  0  0  0  0  0  0  0  0  0  0  0
 46 47  1  0  0  0
 47 48  1  0  0  0
 47  1  1  0  0  0
  1  2  1  0  0  0
  2  3  1  0  0  0
  3  4  2  0  0  0
  3  6  1  0  0  0
  6 19  1  0  0  0
 19 20  1  0  0  0
 20 21  2  0  0  0
 21 22  1  0  0  0
 22 23  2  0  0  0
 23 24  1  0  0  0
 24 25  2  0  0  0
  6  7  1  0  0  0
  7  8  1  0  0  0
  8  9  2  0  0  0
  8 11  1  0  0  0
 11 12  1  0  0  0
 12 13  1  0  0  0
 13 14  2  0  0  0
 14 15  1  0  0  0
 15 16  2  0  0  0
 16 17  1  0  0  0
 17 18  2  0  0  0
  1 26  1  0  0  0
 26 27  2  0  0  0
 26 28  1  0  0  0
 28 30  1  0  0  0
 30 41  1  0  0  0
 41 42  1  0  0  0
 42 43  1  0  0  0
 42 44  2  0  0  0
 30 31  1  0  0  0
 31 32  2  0  0  0
 31 33  1  0  0  0
 33 34  1  0  0  0
 34 35  1  0  0  0
 35 36  2  0  0  0
 36 37  1  0  0  0
 37 38  2  0  0  0
 38 39  1  0  0  0
 39 40  2  0  0  0
 25 20  1  0  0  0
 18 13  1  0  0  0
 40 35  1  0  0  0
  2  5  1  0  0  0
  7 10  1  0  0  0
 28 29  1  0  0  0
 43 45  1  0  0  0
M  END
> <minimizedAffinity>
-8.02398

> <CNNscore>
0.1520447135

> <CNNaffinity>
6.5415253639

> <CNN_VS>
0.9946043491

> <CNNaffinity_variance>
0.1390362531

$$$$
[H]OC(=O)C([H])([H])[C@@]([H])(C(=O)C([H])([H])Oc1c([H])c([H])c([H])c([H])c1[H])N([H])C(=O)[C@@]([H])(N([H])C(=O)[C@@]([H])(N([H])C(=O)OC([H])([H])c1c([H])c([H])c([H])c([H])c1[H])C([H])([H])c1c([H])c([H])c([H])c([H])c1[H])C([H])(C([H])([H])[H])C([H])([H])[H]


 48 50  0  0  0  0  0  0  0  0999 V2000
   53.1345   -7.7551   -0.7406 C   0  0  0  0  0  0  0  0  0  0  0  0
   54.3911   -7.2214   -1.1639 N   0  0  0  0  0  0  0  0  0  0  0  0
   55.0750   -7.4954   -2.3578 C   0  0  0  0  0  0  0  0  0  0  0  0
   54.5839   -8.2817   -3.1916 O   0  0  0  0  0  0  0  0  0  0  0  0
   54.8822   -6.5327   -0.5072 H   0  0  0  0  0  0  0  0  0  0  0  0
   56.3801   -6.8744   -2.6536 C   0  0  0  0  0  0  0  0  0  0  0  0
   56.2381   -5.6956   -3.4913 N   0  0  0  0  0  0  0  0  0  0  0  0
   56.3170   -5.8201   -4.8999 C   0  0  0  0  0  0  0  0  0  0  0  0
   56.5207   -6.9767   -5.3757 O   0  0  0  0  0  0  0  0  0  0  0  0
   56.0797   -4.7551   -3.0858 H   0  0  0  0  0  0  0  0  0  0  0  0
   56.1843   -4.7790   -5.8040 O   0  0  0  0  0  0  0  0  0  0  0  0
   55.3301   -4.8744   -6.9306 C   0  0  0  0  0  0  0  0  0  0  0  0
   56.0660   -4.7808   -8.2018 C   0  0  0  0  0  0  0  0  0  0  0  0
   55.5163   -4.2154   -9.3262 C   0  0  0  0  0  0  0  0  0  0  0  0
   56.2578   -4.1544  -10.4877 C   0  0  0  0  0  0  0  0  0  0  0  0
   57.5492   -4.6681  -10.4950 C   0  0  0  0  0  0  0  0  0  0  0  0
   58.1123   -5.2352   -9.3813 C   0  0  0  0  0  0  0  0  0  0  0  0
   57.3549   -5.2891   -8.2236 C   0  0  0  0  0  0  0  0  0  0  0  0
   57.1223   -6.5069   -1.3579 C   0  0  0  0  0  0  0  0  0  0  0  0
   58.4548   -7.1635   -1.4163 C   0  0  0  0  0  0  0  0  0  0  0  0
   58.9069   -7.8969   -0.3460 C   0  0  0  0  0  0  0  0  0  0  0  0
   60.1563   -8.5223   -0.3733 C   0  0  0  0  0  0  0  0  0  0  0  0
   60.9737   -8.4187   -1.4843 C   0  0  0  0  0  0  0  0  0  0  0  0
   60.5159   -7.6775   -2.5626 C   0  0  0  0  0  0  0  0  0  0  0  0
   59.2638   -7.0568   -2.5219 C   0  0  0  0  0  0  0  0  0  0  0  0
   51.9686   -7.3126   -1.5286 C   0  0  0  0  0  0  0  0  0  0  0  0
   50.8172   -7.7524   -1.2923 O   0  0  0  0  0  0  0  0  0  0  0  0
   52.0858   -6.3725   -2.5957 N   0  0  0  0  0  0  0  0  0  0  0  0
   53.0058   -5.9627   -2.8463 H   0  0  0  0  0  0  0  0  0  0  0  0
   50.9398   -5.9404   -3.3830 C   0  0  0  0  0  0  0  0  0  0  0  0
   51.4074   -6.0488   -4.8122 C   0  0  0  0  0  0  0  0  0  0  0  0
   52.6029   -6.0783   -5.0917 O   0  0  0  0  0  0  0  0  0  0  0  0
   50.4745   -6.1296   -5.9496 C   0  0  0  0  0  0  0  0  0  0  0  0
   51.0954   -5.6613   -7.1158 O   0  0  0  0  0  0  0  0  0  0  0  0
   51.0669   -4.3116   -7.4262 C   0  0  0  0  0  0  0  0  0  0  0  0
   52.1394   -3.7340   -8.0598 C   0  0  0  0  0  0  0  0  0  0  0  0
   52.0703   -2.3803   -8.3507 C   0  0  0  0  0  0  0  0  0  0  0  0
   50.9455   -1.6485   -8.0057 C   0  0  0  0  0  0  0  0  0  0  0  0
   49.8713   -2.2243   -7.3724 C   0  0  0  0  0  0  0  0  0  0  0  0
   49.9509   -3.5769   -7.0870 C   0  0  0  0  0  0  0  0  0  0  0  0
   50.5958   -4.5110   -3.0548 C   0  0  0  0  0  0  0  0  0  0  0  0
   49.2321   -4.1432   -3.4940 C   0  0  0  0  0  0  0  0  0  0  0  0
   48.1325   -4.9207   -3.1917 O   0  0  0  0  0  0  0  0  0  0  0  0
   49.0741   -3.0926   -4.1615 O   0  0  0  0  0  0  0  0  0  0  0  0
   47.2962   -4.9247   -3.7636 H   0  0  0  0  0  0  0  0  0  0  0  0
   53.3866   -8.8826    1.4243 C   0  0  0  0  0  0  0  0  0  0  0  0
   52.9008   -7.6055    0.7519 C   0  0  0  0  0  0  0  0  0  0  0  0
   53.5582   -6.4449    1.3815 C   0  0  0  0  0  0  0  0  0  0  0  0
 46 47  1  0  0  0
 47 48  1  0  0  0
 47  1  1  0  0  0
  1  2  1  0  0  0
  2  3  1  0  0  0
  3  4  2  0  0  0
  3  6  1  0  0  0
  6 19  1  0  0  0
 19 20  1  0  0  0
 20 21  2  0  0  0
 21 22  1  0  0  0
 22 23  2  0  0  0
 23 24  1  0  0  0
 24 25  2  0  0  0
  6  7  1  0  0  0
  7  8  1  0  0  0
  8  9  2  0  0  0
  8 11  1  0  0  0
 11 12  1  0  0  0
 12 13  1  0  0  0
 13 14  2  0  0  0
 14 15  1  0  0  0
 15 16  2  0  0  0
 16 17  1  0  0  0
 17 18  2  0  0  0
  1 26  1  0  0  0
 26 27  2  0  0  0
 26 28  1  0  0  0
 28 30  1  0  0  0
 30 41  1  0  0  0
 41 42  1  0  0  0
 42 43  1  0  0  0
 42 44  2  0  0  0
 30 31  1  0  0  0
 31 32  2  0  0  0
 31 33  1  0  0  0
 33 34  1  0  0  0
 34 35  1  0  0  0
 35 36  2  0  0  0
 36 37  1  0  0  0
 37 38  2  0  0  0
 38 39  1  0  0  0
 39 40  2  0  0  0
 25 20  1  0  0  0
 18 13  1  0  0  0
 40 35  1  0  0  0
  2  5  1  0  0  0
  7 10  1  0  0  0
 28 29  1  0  0  0
 43 45  1  0  0  0
M  END
> <minimizedAffinity>
-8.16974

> <CNNscore>
0.1499302238

> <CNNaffinity>
6.9427847862

> <CNN_VS>
1.0409332514

> <CNNaffinity_variance>
0.1099219769

$$$$
[H]OC(=O)C([H])([H])[C@@]([H])(C(=O)C([H])([H])Oc1c([H])c([H])c([H])c([H])c1[H])N([H])C(=O)[C@@]([H])(N([H])C(=O)[C@@]([H])(N([H])C(=O)OC([H])([H])c1c([H])c([H])c([H])c([H])c1[H])C([H])([H])c1c([H])c([H])c([H])c([H])c1[H])C([H])(C([H])([H])[H])C([H])([H])[H]


 48 50  0  0  0  0  0  0  0  0999 V2000
   54.2070   -6.3982   -2.9802 C   0  0  0  0  0  0  0  0  0  0  0  0
   53.5186   -5.7533   -4.0540 N   0  0  0  0  0  0  0  0  0  0  0  0
   53.5171   -6.1199   -5.4082 C   0  0  0  0  0  0  0  0  0  0  0  0
   54.1659   -7.1157   -5.7854 O   0  0  0  0  0  0  0  0  0  0  0  0
   52.9324   -4.8889   -3.8172 H   0  0  0  0  0  0  0  0  0  0  0  0
   52.7636   -5.3444   -6.4117 C   0  0  0  0  0  0  0  0  0  0  0  0
   53.3984   -5.3930   -7.7178 N   0  0  0  0  0  0  0  0  0  0  0  0
   53.4730   -4.2197   -8.5075 C   0  0  0  0  0  0  0  0  0  0  0  0
   52.9644   -3.1605   -8.0334 O   0  0  0  0  0  0  0  0  0  0  0  0
   53.8028   -6.2696   -8.0946 H   0  0  0  0  0  0  0  0  0  0  0  0
   54.0627   -4.1330   -9.7581 O   0  0  0  0  0  0  0  0  0  0  0  0
   55.2436   -3.3802   -9.9747 C   0  0  0  0  0  0  0  0  0  0  0  0
   56.4630   -4.1667   -9.7283 C   0  0  0  0  0  0  0  0  0  0  0  0
   56.8500   -4.5414   -8.4650 C   0  0  0  0  0  0  0  0  0  0  0  0
   58.0024   -5.2810   -8.2989 C   0  0  0  0  0  0  0  0  0  0  0  0
   58.7494   -5.6321   -9.4172 C   0  0  0  0  0  0  0  0  0  0  0  0
   58.3765   -5.2663  -10.6845 C   0  0  0  0  0  0  0  0  0  0  0  0
   57.2176   -4.5238  -10.8343 C   0  0  0  0  0  0  0  0  0  0  0  0
   51.3128   -5.8431   -6.5184 C   0  0  0  0  0  0  0  0  0  0  0  0
   50.4439   -4.7881   -5.9336 C   0  0  0  0  0  0  0  0  0  0  0  0
   50.0578   -3.7139   -6.6984 C   0  0  0  0  0  0  0  0  0  0  0  0
   49.2436   -2.7069   -6.1732 C   0  0  0  0  0  0  0  0  0  0  0  0
   48.8032   -2.7663   -4.8634 C   0  0  0  0  0  0  0  0  0  0  0  0
   49.1947   -3.8504   -4.0932 C   0  0  0  0  0  0  0  0  0  0  0  0
   50.0097   -4.8508   -4.6314 C   0  0  0  0  0  0  0  0  0  0  0  0
   53.4634   -6.4615   -1.7077 C   0  0  0  0  0  0  0  0  0  0  0  0
   52.9268   -5.4398   -1.2148 O   0  0  0  0  0  0  0  0  0  0  0  0
   53.3190   -7.6757   -0.9721 N   0  0  0  0  0  0  0  0  0  0  0  0
   53.7325   -8.5619   -1.3199 H   0  0  0  0  0  0  0  0  0  0  0  0
   52.5949   -7.7413    0.2893 C   0  0  0  0  0  0  0  0  0  0  0  0
   53.6167   -8.2388    1.2800 C   0  0  0  0  0  0  0  0  0  0  0  0
   53.4934   -9.3299    1.8299 O   0  0  0  0  0  0  0  0  0  0  0  0
   54.8142   -7.4618    1.6444 C   0  0  0  0  0  0  0  0  0  0  0  0
   55.9226   -7.9153    0.9158 O   0  0  0  0  0  0  0  0  0  0  0  0
   56.8822   -7.0179    0.4770 C   0  0  0  0  0  0  0  0  0  0  0  0
   58.0390   -7.4825   -0.0986 C   0  0  0  0  0  0  0  0  0  0  0  0
   58.9737   -6.5506   -0.5225 C   0  0  0  0  0  0  0  0  0  0  0  0
   58.7311   -5.1959   -0.3626 C   0  0  0  0  0  0  0  0  0  0  0  0
   57.5744   -4.7288    0.2124 C   0  0  0  0  0  0  0  0  0  0  0  0
   56.6478   -5.6683    0.6318 C   0  0  0  0  0  0  0  0  0  0  0  0
   51.4548   -8.7200    0.1813 C   0  0  0  0  0  0  0  0  0  0  0  0
   50.2066   -8.0830   -0.2919 C   0  0  0  0  0  0  0  0  0  0  0  0
   50.2176   -6.9467   -1.0752 O   0  0  0  0  0  0  0  0  0  0  0  0
   49.1068   -8.5933    0.0310 O   0  0  0  0  0  0  0  0  0  0  0  0
   49.4450   -6.2915   -1.0930 H   0  0  0  0  0  0  0  0  0  0  0  0
   56.5734   -6.9013   -3.3910 C   0  0  0  0  0  0  0  0  0  0  0  0
   55.6202   -5.8789   -2.7867 C   0  0  0  0  0  0  0  0  0  0  0  0
   55.8928   -4.5540   -3.3748 C   0  0  0  0  0  0  0  0  0  0  0  0
 46 47  1  0  0  0
 47 48  1  0  0  0
 47  1  1  0  0  0
  1  2  1  0  0  0
  2  3  1  0  0  0
  3  4  2  0  0  0
  3  6  1  0  0  0
  6 19  1  0  0  0
 19 20  1  0  0  0
 20 21  2  0  0  0
 21 22  1  0  0  0
 22 23  2  0  0  0
 23 24  1  0  0  0
 24 25  2  0  0  0
  6  7  1  0  0  0
  7  8  1  0  0  0
  8  9  2  0  0  0
  8 11  1  0  0  0
 11 12  1  0  0  0
 12 13  1  0  0  0
 13 14  2  0  0  0
 14 15  1  0  0  0
 15 16  2  0  0  0
 16 17  1  0  0  0
 17 18  2  0  0  0
  1 26  1  0  0  0
 26 27  2  0  0  0
 26 28  1  0  0  0
 28 30  1  0  0  0
 30 41  1  0  0  0
 41 42  1  0  0  0
 42 43  1  0  0  0
 42 44  2  0  0  0
 30 31  1  0  0  0
 31 32  2  0  0  0
 31 33  1  0  0  0
 33 34  1  0  0  0
 34 35  1  0  0  0
 35 36  2  0  0  0
 36 37  1  0  0  0
 37 38  2  0  0  0
 38 39  1  0  0  0
 39 40  2  0  0  0
 25 20  1  0  0  0
 18 13  1  0  0  0
 40 35  1  0  0  0
  2  5  1  0  0  0
  7 10  1  0  0  0
 28 29  1  0  0  0
 43 45  1  0  0  0
M  END
> <minimizedAffinity>
-9.18061

> <CNNscore>
0.1383940578

> <CNNaffinity>
6.1869163513

> <CNN_VS>
0.8562324643

> <CNNaffinity_variance>
1.0894368887

$$$$
[H]OC(=O)C([H])([H])[C@@]([H])(C(=O)C([H])([H])Oc1c([H])c([H])c([H])c([H])c1[H])N([H])C(=O)[C@@]([H])(N([H])C(=O)[C@@]([H])(N([H])C(=O)OC([H])([H])c1c([H])c([H])c([H])c([H])c1[H])C([H])([H])c1c([H])c([H])c([H])c([H])c1[H])C([H])(C([H])([H])[H])C([H])([H])[H]


 48 50  0  0  0  0  0  0  0  0999 V2000
   55.9373   -6.3107   -1.8213 C   0  0  0  0  0  0  0  0  0  0  0  0
   55.9544   -6.0488   -3.2263 N   0  0  0  0  0  0  0  0  0  0  0  0
   55.7631   -6.9693   -4.2676 C   0  0  0  0  0  0  0  0  0  0  0  0
   55.5434   -8.1688   -4.0072 O   0  0  0  0  0  0  0  0  0  0  0  0
   56.1332   -5.0403   -3.5391 H   0  0  0  0  0  0  0  0  0  0  0  0
   55.8221   -6.5512   -5.6811 C   0  0  0  0  0  0  0  0  0  0  0  0
   54.5647   -6.7941   -6.3676 N   0  0  0  0  0  0  0  0  0  0  0  0
   53.3559   -6.3049   -5.8152 C   0  0  0  0  0  0  0  0  0  0  0  0
   53.4257   -5.6717   -4.7199 O   0  0  0  0  0  0  0  0  0  0  0  0
   54.5238   -7.3209   -7.2591 H   0  0  0  0  0  0  0  0  0  0  0  0
   52.0993   -6.4576   -6.3780 O   0  0  0  0  0  0  0  0  0  0  0  0
   50.9316   -5.9749   -5.7365 C   0  0  0  0  0  0  0  0  0  0  0  0
   50.5882   -4.6056   -6.1531 C   0  0  0  0  0  0  0  0  0  0  0  0
   49.5894   -3.8843   -5.5462 C   0  0  0  0  0  0  0  0  0  0  0  0
   49.3164   -2.6038   -5.9802 C   0  0  0  0  0  0  0  0  0  0  0  0
   50.0605   -2.0695   -7.0256 C   0  0  0  0  0  0  0  0  0  0  0  0
   51.0606   -2.7762   -7.6414 C   0  0  0  0  0  0  0  0  0  0  0  0
   51.3219   -4.0602   -7.1944 C   0  0  0  0  0  0  0  0  0  0  0  0
   56.2033   -5.0662   -5.8015 C   0  0  0  0  0  0  0  0  0  0  0  0
   56.3441   -4.7673   -7.2508 C   0  0  0  0  0  0  0  0  0  0  0  0
   55.3966   -4.0048   -7.8904 C   0  0  0  0  0  0  0  0  0  0  0  0
   55.5029   -3.7108   -9.2524 C   0  0  0  0  0  0  0  0  0  0  0  0
   56.5703   -4.1820   -9.9952 C   0  0  0  0  0  0  0  0  0  0  0  0
   57.5246   -4.9518   -9.3482 C   0  0  0  0  0  0  0  0  0  0  0  0
   57.4057   -5.2385   -7.9850 C   0  0  0  0  0  0  0  0  0  0  0  0
   54.5951   -6.3794   -1.2132 C   0  0  0  0  0  0  0  0  0  0  0  0
   54.1879   -5.4875   -0.4299 O   0  0  0  0  0  0  0  0  0  0  0  0
   53.6965   -7.4562   -1.4762 N   0  0  0  0  0  0  0  0  0  0  0  0
   53.9627   -8.2281   -2.1169 H   0  0  0  0  0  0  0  0  0  0  0  0
   52.3747   -7.5339   -0.8706 C   0  0  0  0  0  0  0  0  0  0  0  0
   52.3370   -8.8993   -0.2324 C   0  0  0  0  0  0  0  0  0  0  0  0
   53.1663   -9.2330    0.6095 O   0  0  0  0  0  0  0  0  0  0  0  0
   51.3152   -9.9059   -0.5692 C   0  0  0  0  0  0  0  0  0  0  0  0
   50.7955  -10.4749    0.6017 O   0  0  0  0  0  0  0  0  0  0  0  0
   49.4435  -10.3724    0.8853 C   0  0  0  0  0  0  0  0  0  0  0  0
   48.8765   -9.1355    1.0697 C   0  0  0  0  0  0  0  0  0  0  0  0
   47.5207   -9.0781    1.3531 C   0  0  0  0  0  0  0  0  0  0  0  0
   46.7762  -10.2431    1.4434 C   0  0  0  0  0  0  0  0  0  0  0  0
   47.3412  -11.4813    1.2587 C   0  0  0  0  0  0  0  0  0  0  0  0
   48.6959  -11.5270    0.9759 C   0  0  0  0  0  0  0  0  0  0  0  0
   51.3117   -7.4259   -1.9325 C   0  0  0  0  0  0  0  0  0  0  0  0
   50.9139   -6.0252   -2.1930 C   0  0  0  0  0  0  0  0  0  0  0  0
   51.8378   -5.0013   -2.2467 O   0  0  0  0  0  0  0  0  0  0  0  0
   49.6995   -5.7640   -2.3694 O   0  0  0  0  0  0  0  0  0  0  0  0
   51.5952   -4.0393   -2.0410 H   0  0  0  0  0  0  0  0  0  0  0  0
   57.9436   -6.2794   -0.4087 C   0  0  0  0  0  0  0  0  0  0  0  0
   56.8692   -5.4031   -1.0389 C   0  0  0  0  0  0  0  0  0  0  0  0
   57.5138   -4.3324   -1.8222 C   0  0  0  0  0  0  0  0  0  0  0  0
 46 47  1  0  0  0
 47 48  1  0  0  0
 47  1  1  0  0  0
  1  2  1  0  0  0
  2  3  1  0  0  0
  3  4  2  0  0  0
  3  6  1  0  0  0
  6 19  1  0  0  0
 19 20  1  0  0  0
 20 21  2  0  0  0
 21 22  1  0  0  0
 22 23  2  0  0  0
 23 24  1  0  0  0
 24 25  2  0  0  0
  6  7  1  0  0  0
  7  8  1  0  0  0
  8  9  2  0  0  0
  8 11  1  0  0  0
 11 12  1  0  0  0
 12 13  1  0  0  0
 13 14  2  0  0  0
 14 15  1  0  0  0
 15 16  2  0  0  0
 16 17  1  0  0  0
 17 18  2  0  0  0
  1 26  1  0  0  0
 26 27  2  0  0  0
 26 28  1  0  0  0
 28 30  1  0  0  0
 30 41  1  0  0  0
 41 42  1  0  0  0
 42 43  1  0  0  0
 42 44  2  0  0  0
 30 31  1  0  0  0
 31 32  2  0  0  0
 31 33  1  0  0  0
 33 34  1  0  0  0
 34 35  1  0  0  0
 35 36  2  0  0  0
 36 37  1  0  0  0
 37 38  2  0  0  0
 38 39  1  0  0  0
 39 40  2  0  0  0
 25 20  1  0  0  0
 18 13  1  0  0  0
 40 35  1  0  0  0
  2  5  1  0  0  0
  7 10  1  0  0  0
 28 29  1  0  0  0
 43 45  1  0  0  0
M  END
> <minimizedAffinity>
-9.78303

> <CNNscore>
0.1381003857

> <CNNaffinity>
6.2970595360

> <CNN_VS>
0.8696263433

> <CNNaffinity_variance>
0.7657024860

$$$$
[H]OC(=O)C([H])([H])[C@@]([H])(C(=O)C([H])([H])Oc1c([H])c([H])c([H])c([H])c1[H])N([H])C(=O)[C@@]([H])(N([H])C(=O)[C@@]([H])(N([H])C(=O)OC([H])([H])c1c([H])c([H])c([H])c([H])c1[H])C([H])([H])c1c([H])c([H])c([H])c([H])c1[H])C([H])(C([H])([H])[H])C([H])([H])[H]


 48 50  0  0  0  0  0  0  0  0999 V2000
   55.2465   -4.9670   -8.0728 C   0  0  0  0  0  0  0  0  0  0  0  0
   54.9933   -4.9869   -6.6662 N   0  0  0  0  0  0  0  0  0  0  0  0
   54.9753   -6.1049   -5.8189 C   0  0  0  0  0  0  0  0  0  0  0  0
   55.2030   -7.2408   -6.2801 O   0  0  0  0  0  0  0  0  0  0  0  0
   54.7913   -4.0508   -6.1869 H   0  0  0  0  0  0  0  0  0  0  0  0
   54.6837   -5.9711   -4.3790 C   0  0  0  0  0  0  0  0  0  0  0  0
   53.2617   -6.0883   -4.1042 N   0  0  0  0  0  0  0  0  0  0  0  0
   52.6998   -5.4014   -3.0005 C   0  0  0  0  0  0  0  0  0  0  0  0
   53.4802   -4.7081   -2.2822 O   0  0  0  0  0  0  0  0  0  0  0  0
   52.6382   -6.6660   -4.6969 H   0  0  0  0  0  0  0  0  0  0  0  0
   51.3616   -5.4208   -2.6428 O   0  0  0  0  0  0  0  0  0  0  0  0
   50.3503   -5.7997   -3.5602 C   0  0  0  0  0  0  0  0  0  0  0  0
   49.9914   -4.7091   -4.4812 C   0  0  0  0  0  0  0  0  0  0  0  0
   50.5078   -4.6230   -5.7508 C   0  0  0  0  0  0  0  0  0  0  0  0
   50.1305   -3.5779   -6.5682 C   0  0  0  0  0  0  0  0  0  0  0  0
   49.2331   -2.6316   -6.0876 C   0  0  0  0  0  0  0  0  0  0  0  0
   48.7086   -2.7035   -4.8232 C   0  0  0  0  0  0  0  0  0  0  0  0
   49.0976   -3.7583   -4.0152 C   0  0  0  0  0  0  0  0  0  0  0  0
   55.4608   -7.0149   -3.5596 C   0  0  0  0  0  0  0  0  0  0  0  0
   56.1581   -6.2837   -2.4692 C   0  0  0  0  0  0  0  0  0  0  0  0
   56.8152   -5.1080   -2.7411 C   0  0  0  0  0  0  0  0  0  0  0  0
   57.4808   -4.4017   -1.7355 C   0  0  0  0  0  0  0  0  0  0  0  0
   57.4950   -4.8705   -0.4344 C   0  0  0  0  0  0  0  0  0  0  0  0
   56.8323   -6.0574   -0.1625 C   0  0  0  0  0  0  0  0  0  0  0  0
   56.1705   -6.7539   -1.1782 C   0  0  0  0  0  0  0  0  0  0  0  0
   56.6707   -4.9047   -8.4521 C   0  0  0  0  0  0  0  0  0  0  0  0
   57.5676   -4.7323   -7.5914 O   0  0  0  0  0  0  0  0  0  0  0  0
   57.1020   -5.0313   -9.8064 N   0  0  0  0  0  0  0  0  0  0  0  0
   56.4174   -5.1797  -10.5721 H   0  0  0  0  0  0  0  0  0  0  0  0
   58.5056   -4.9603  -10.1871 C   0  0  0  0  0  0  0  0  0  0  0  0
   58.4794   -4.5009  -11.6229 C   0  0  0  0  0  0  0  0  0  0  0  0
   59.4947   -4.5085  -12.3136 O   0  0  0  0  0  0  0  0  0  0  0  0
   57.2512   -4.0241  -12.2823 C   0  0  0  0  0  0  0  0  0  0  0  0
   57.0517   -4.7146  -13.4858 O   0  0  0  0  0  0  0  0  0  0  0  0
   57.0124   -4.0247  -14.6864 C   0  0  0  0  0  0  0  0  0  0  0  0
   55.8575   -4.0119  -15.4288 C   0  0  0  0  0  0  0  0  0  0  0  0
   55.8616   -3.3107  -16.6247 C   0  0  0  0  0  0  0  0  0  0  0  0
   57.0050   -2.6487  -17.0421 C   0  0  0  0  0  0  0  0  0  0  0  0
   58.1612   -2.6596  -16.3006 C   0  0  0  0  0  0  0  0  0  0  0  0
   58.1457   -3.3628  -15.1079 C   0  0  0  0  0  0  0  0  0  0  0  0
   59.1382   -6.3238  -10.0882 C   0  0  0  0  0  0  0  0  0  0  0  0
   60.3186   -6.3354   -9.1968 C   0  0  0  0  0  0  0  0  0  0  0  0
   60.1959   -6.3642   -7.8224 O   0  0  0  0  0  0  0  0  0  0  0  0
   61.4638   -6.3179   -9.7090 O   0  0  0  0  0  0  0  0  0  0  0  0
   60.9114   -5.9982   -7.2053 H   0  0  0  0  0  0  0  0  0  0  0  0
   52.9501   -4.2450   -8.5489 C   0  0  0  0  0  0  0  0  0  0  0  0
   54.4172   -3.9301   -8.8086 C   0  0  0  0  0  0  0  0  0  0  0  0
   54.6856   -2.5276   -8.4388 C   0  0  0  0  0  0  0  0  0  0  0  0
 46 47  1  0  0  0
 47 48  1  0  0  0
 47  1  1  0  0  0
  1  2  1  0  0  0
  2  3  1  0  0  0
  3  4  2  0  0  0
  3  6  1  0  0  0
  6 19  1  0  0  0
 19 20  1  0  0  0
 20 21  2  0  0  0
 21 22  1  0  0  0
 22 23  2  0  0  0
 23 24  1  0  0  0
 24 25  2  0  0  0
  6  7  1  0  0  0
  7  8  1  0  0  0
  8  9  2  0  0  0
  8 11  1  0  0  0
 11 12  1  0  0  0
 12 13  1  0  0  0
 13 14  2  0  0  0
 14 15  1  0  0  0
 15 16  2  0  0  0
 16 17  1  0  0  0
 17 18  2  0  0  0
  1 26  1  0  0  0
 26 27  2  0  0  0
 26 28  1  0  0  0
 28 30  1  0  0  0
 30 41  1  0  0  0
 41 42  1  0  0  0
 42 43  1  0  0  0
 42 44  2  0  0  0
 30 31  1  0  0  0
 31 32  2  0  0  0
 31 33  1  0  0  0
 33 34  1  0  0  0
 34 35  1  0  0  0
 35 36  2  0  0  0
 36 37  1  0  0  0
 37 38  2  0  0  0
 38 39  1  0  0  0
 39 40  2  0  0  0
 25 20  1  0  0  0
 18 13  1  0  0  0
 40 35  1  0  0  0
  2  5  1  0  0  0
  7 10  1  0  0  0
 28 29  1  0  0  0
 43 45  1  0  0  0
M  END
> <minimizedAffinity>
-8.63906

> <CNNscore>
0.1316069961

> <CNNaffinity>
6.3145475388

> <CNN_VS>
0.8310386539

> <CNNaffinity_variance>
0.8554354906

$$$$
[H]OC(=O)c1c([H])c([H])c(-c2sc(N([H])C(=O)c3c([H])c([H])c(OC([H])([H])[H])c([H])c3[H])nc2[H])c(OC([H])([H])c2c([H])c([H])c([H])c([H])c2C#N)c1[H]


 37 40  0  0  0  0  0  0  0  0999 V2000
   55.3002   -5.4451   -6.5329 C   0  0  0  0  0  0  0  0  0  0  0  0
   56.4440   -5.7349   -5.9508 C   0  0  0  0  0  0  0  0  0  0  0  0
   56.6749   -6.6052   -4.9061 C   0  0  0  0  0  0  0  0  0  0  0  0
   55.4432   -7.2535   -4.4234 C   0  0  0  0  0  0  0  0  0  0  0  0
   54.2913   -6.9439   -5.0182 C   0  0  0  0  0  0  0  0  0  0  0  0
   54.0882   -6.0267   -6.0903 C   0  0  0  0  0  0  0  0  0  0  0  0
   56.2093   -3.8359  -10.1394 C   0  0  0  0  0  0  0  0  0  0  0  0
   54.9382   -3.8522   -9.9158 N   0  0  0  0  0  0  0  0  0  0  0  0
   54.4258   -4.3859   -8.8251 C   0  0  0  0  0  0  0  0  0  0  0  0
   55.2680   -4.9151   -7.9288 C   0  0  0  0  0  0  0  0  0  0  0  0
   56.8496   -4.6290   -8.7179 S   0  0  0  0  0  0  0  0  0  0  0  0
   57.6609   -4.1985  -12.0732 C   0  0  0  0  0  0  0  0  0  0  0  0
   57.5206   -5.4391  -11.8414 O   0  0  0  0  0  0  0  0  0  0  0  0
   57.0005   -3.2743  -11.2423 N   0  0  0  0  0  0  0  0  0  0  0  0
   57.0155   -2.2967  -11.3150 H   0  0  0  0  0  0  0  0  0  0  0  0
   59.9946   -3.0480  -15.4392 C   0  0  0  0  0  0  0  0  0  0  0  0
   60.6191   -3.3004  -14.2682 C   0  0  0  0  0  0  0  0  0  0  0  0
   59.8222   -3.6505  -13.1576 C   0  0  0  0  0  0  0  0  0  0  0  0
   58.4837   -3.7531  -13.1723 C   0  0  0  0  0  0  0  0  0  0  0  0
   57.8373   -3.4617  -14.4289 C   0  0  0  0  0  0  0  0  0  0  0  0
   58.6199   -3.1127  -15.5420 C   0  0  0  0  0  0  0  0  0  0  0  0
   62.1020   -2.6894  -16.6856 C   0  0  0  0  0  0  0  0  0  0  0  0
   60.7000   -2.7121  -16.6167 O   0  0  0  0  0  0  0  0  0  0  0  0
   55.6475   -8.1181   -3.2830 C   0  0  0  0  0  0  0  0  0  0  0  0
   54.3547   -8.5832   -2.6616 O   0  0  0  0  0  0  0  0  0  0  0  0
   56.6232   -8.5441   -2.7377 O   0  0  0  0  0  0  0  0  0  0  0  0
   53.8337   -7.9076   -2.1032 H   0  0  0  0  0  0  0  0  0  0  0  0
   53.0179   -5.6364   -6.7038 O   0  0  0  0  0  0  0  0  0  0  0  0
   51.9595   -5.2605   -7.3148 C   0  0  0  0  0  0  0  0  0  0  0  0
   50.9990   -4.4411   -6.4027 C   0  0  0  0  0  0  0  0  0  0  0  0
   50.3764   -4.9303   -5.3592 C   0  0  0  0  0  0  0  0  0  0  0  0
   49.3641   -4.2556   -4.6047 C   0  0  0  0  0  0  0  0  0  0  0  0
   49.0638   -2.9749   -5.0673 C   0  0  0  0  0  0  0  0  0  0  0  0
   49.7145   -2.4332   -6.1646 C   0  0  0  0  0  0  0  0  0  0  0  0
   50.6946   -3.1460   -6.8688 C   0  0  0  0  0  0  0  0  0  0  0  0
   51.3495   -2.5550   -7.9789 C   0  0  0  0  0  0  0  0  0  0  0  0
   51.8999   -2.0518   -8.8476 N   0  0  0  0  0  0  0  0  0  0  0  0
 22 23  1  0  0  0
 23 16  1  0  0  0
 16 17  2  0  0  0
 17 18  1  0  0  0
 18 19  2  0  0  0
 19 20  1  0  0  0
 20 21  2  0  0  0
 19 12  1  0  0  0
 12 13  2  0  0  0
 12 14  1  0  0  0
 14  7  1  0  0  0
  7  8  2  0  0  0
  8  9  1  0  0  0
  9 10  2  0  0  0
 10 11  1  0  0  0
 10  1  1  0  0  0
  1  2  2  0  0  0
  2  3  1  0  0  0
  3  4  2  0  0  0
  4  5  1  0  0  0
  5  6  2  0  0  0
  6 28  1  0  0  0
 28 29  1  0  0  0
 29 30  1  0  0  0
 30 31  2  0  0  0
 31 32  1  0  0  0
 32 33  2  0  0  0
 33 34  1  0  0  0
 34 35  2  0  0  0
 35 36  1  0  0  0
 36 37  3  0  0  0
  4 24  1  0  0  0
 24 25  1  0  0  0
 24 26  2  0  0  0
 21 16  1  0  0  0
 11  7  1  0  0  0
  6  1  1  0  0  0
 35 30  1  0  0  0
 14 15  1  0  0  0
 25 27  1  0  0  0
M  END
> <minimizedAffinity>
-9.71092

> <CNNscore>
0.8192939162

> <CNNaffinity>
7.2538404465

> <CNN_VS>
5.9430274963

> <CNNaffinity_variance>
0.0505135767

$$$$
[H]OC(=O)c1c([H])c([H])c(-c2sc(N([H])C(=O)c3c([H])c([H])c(OC([H])([H])[H])c([H])c3[H])nc2[H])c(OC([H])([H])c2c([H])c([H])c([H])c([H])c2C#N)c1[H]


 37 40  0  0  0  0  0  0  0  0999 V2000
   57.1221   -4.4334   -9.5170 C   0  0  0  0  0  0  0  0  0  0  0  0
   57.8056   -4.5552  -10.6346 C   0  0  0  0  0  0  0  0  0  0  0  0
   59.0114   -5.1943  -10.8336 C   0  0  0  0  0  0  0  0  0  0  0  0
   59.5510   -5.7878   -9.5979 C   0  0  0  0  0  0  0  0  0  0  0  0
   58.8508   -5.6494   -8.4723 C   0  0  0  0  0  0  0  0  0  0  0  0
   57.6103   -4.9685   -8.3010 C   0  0  0  0  0  0  0  0  0  0  0  0
   53.2773   -3.5287   -8.6107 C   0  0  0  0  0  0  0  0  0  0  0  0
   53.3776   -4.2001   -9.7084 N   0  0  0  0  0  0  0  0  0  0  0  0
   54.5447   -4.5463  -10.2135 C   0  0  0  0  0  0  0  0  0  0  0  0
   55.6493   -4.1878   -9.5470 C   0  0  0  0  0  0  0  0  0  0  0  0
   54.9508   -3.3113   -8.1506 S   0  0  0  0  0  0  0  0  0  0  0  0
   51.6193   -3.9499   -6.8637 C   0  0  0  0  0  0  0  0  0  0  0  0
   52.2170   -5.0549   -6.6786 O   0  0  0  0  0  0  0  0  0  0  0  0
   52.1080   -3.0710   -7.8484 N   0  0  0  0  0  0  0  0  0  0  0  0
   51.7499   -2.1898   -8.0856 H   0  0  0  0  0  0  0  0  0  0  0  0
   48.1380   -3.1594   -4.5496 C   0  0  0  0  0  0  0  0  0  0  0  0
   48.3918   -2.3890   -5.6298 C   0  0  0  0  0  0  0  0  0  0  0  0
   49.5679   -2.6498   -6.3645 C   0  0  0  0  0  0  0  0  0  0  0  0
   50.4608   -3.6090   -6.0730 C   0  0  0  0  0  0  0  0  0  0  0  0
   50.1781   -4.4073   -4.9050 C   0  0  0  0  0  0  0  0  0  0  0  0
   49.0099   -4.1579   -4.1657 C   0  0  0  0  0  0  0  0  0  0  0  0
   46.2808   -4.0782   -3.1968 C   0  0  0  0  0  0  0  0  0  0  0  0
   46.9778   -2.9971   -3.7593 O   0  0  0  0  0  0  0  0  0  0  0  0
   60.8482   -6.4038   -9.7647 C   0  0  0  0  0  0  0  0  0  0  0  0
   61.6638   -6.4042   -8.4964 O   0  0  0  0  0  0  0  0  0  0  0  0
   61.4024   -6.9165  -10.6925 O   0  0  0  0  0  0  0  0  0  0  0  0
   62.0798   -5.5195   -8.2067 H   0  0  0  0  0  0  0  0  0  0  0  0
   56.8799   -4.7512   -7.2553 O   0  0  0  0  0  0  0  0  0  0  0  0
   56.1668   -4.5323   -6.2168 C   0  0  0  0  0  0  0  0  0  0  0  0
   55.8314   -5.8361   -5.4335 C   0  0  0  0  0  0  0  0  0  0  0  0
   55.3981   -6.9401   -5.9896 C   0  0  0  0  0  0  0  0  0  0  0  0
   54.9236   -8.0931   -5.2865 C   0  0  0  0  0  0  0  0  0  0  0  0
   54.9537   -7.9691   -3.8979 C   0  0  0  0  0  0  0  0  0  0  0  0
   55.4151   -6.8140   -3.2866 C   0  0  0  0  0  0  0  0  0  0  0  0
   55.8618   -5.7125   -4.0295 C   0  0  0  0  0  0  0  0  0  0  0  0
   56.3398   -4.5517   -3.3703 C   0  0  0  0  0  0  0  0  0  0  0  0
   56.7665   -3.6292   -2.8435 N   0  0  0  0  0  0  0  0  0  0  0  0
 22 23  1  0  0  0
 23 16  1  0  0  0
 16 17  2  0  0  0
 17 18  1  0  0  0
 18 19  2  0  0  0
 19 20  1  0  0  0
 20 21  2  0  0  0
 19 12  1  0  0  0
 12 13  2  0  0  0
 12 14  1  0  0  0
 14  7  1  0  0  0
  7  8  2  0  0  0
  8  9  1  0  0  0
  9 10  2  0  0  0
 10 11  1  0  0  0
 10  1  1  0  0  0
  1  2  2  0  0  0
  2  3  1  0  0  0
  3  4  2  0  0  0
  4  5  1  0  0  0
  5  6  2  0  0  0
  6 28  1  0  0  0
 28 29  1  0  0  0
 29 30  1  0  0  0
 30 31  2  0  0  0
 31 32  1  0  0  0
 32 33  2  0  0  0
 33 34  1  0  0  0
 34 35  2  0  0  0
 35 36  1  0  0  0
 36 37  3  0  0  0
  4 24  1  0  0  0
 24 25  1  0  0  0
 24 26  2  0  0  0
 21 16  1  0  0  0
 11  7  1  0  0  0
  6  1  1  0  0  0
 35 30  1  0  0  0
 14 15  1  0  0  0
 25 27  1  0  0  0
M  END
> <minimizedAffinity>
-8.67562

> <CNNscore>
0.7605434060

> <CNNaffinity>
7.4036664963

> <CNN_VS>
5.6308097839

> <CNNaffinity_variance>
0.1097079292

$$$$
[H]OC(=O)c1c([H])c([H])c(-c2sc(N([H])C(=O)c3c([H])c([H])c(OC([H])([H])[H])c([H])c3[H])nc2[H])c(OC([H])([H])c2c([H])c([H])c([H])c([H])c2C#N)c1[H]


 37 40  0  0  0  0  0  0  0  0999 V2000
   51.3791   -4.2406   -6.7667 C   0  0  0  0  0  0  0  0  0  0  0  0
   50.4052   -3.4428   -7.1489 C   0  0  0  0  0  0  0  0  0  0  0  0
   49.3048   -3.0308   -6.4268 C   0  0  0  0  0  0  0  0  0  0  0  0
   49.2726   -3.5970   -5.0670 C   0  0  0  0  0  0  0  0  0  0  0  0
   50.2622   -4.4096   -4.6973 C   0  0  0  0  0  0  0  0  0  0  0  0
   51.3804   -4.8250   -5.4777 C   0  0  0  0  0  0  0  0  0  0  0  0
   54.4441   -3.8138   -9.3832 C   0  0  0  0  0  0  0  0  0  0  0  0
   54.7834   -4.4872   -8.3357 N   0  0  0  0  0  0  0  0  0  0  0  0
   53.9510   -4.6919   -7.3347 C   0  0  0  0  0  0  0  0  0  0  0  0
   52.7158   -4.1842   -7.4305 C   0  0  0  0  0  0  0  0  0  0  0  0
   52.7879   -3.3777   -9.0275 S   0  0  0  0  0  0  0  0  0  0  0  0
   56.3942   -4.1648  -10.8158 C   0  0  0  0  0  0  0  0  0  0  0  0
   56.7780   -5.0066   -9.9459 O   0  0  0  0  0  0  0  0  0  0  0  0
   55.1728   -3.4940  -10.6179 N   0  0  0  0  0  0  0  0  0  0  0  0
   54.7581   -2.8323  -11.2106 H   0  0  0  0  0  0  0  0  0  0  0  0
   58.6749   -3.5827  -14.3597 C   0  0  0  0  0  0  0  0  0  0  0  0
   59.3210   -3.6853  -13.1778 C   0  0  0  0  0  0  0  0  0  0  0  0
   58.5426   -3.8474  -12.0121 C   0  0  0  0  0  0  0  0  0  0  0  0
   57.2017   -3.9077  -11.9842 C   0  0  0  0  0  0  0  0  0  0  0  0
   56.5326   -3.7779  -13.2559 C   0  0  0  0  0  0  0  0  0  0  0  0
   57.2967   -3.6169  -14.4236 C   0  0  0  0  0  0  0  0  0  0  0  0
   58.9827   -2.5103  -16.5684 C   0  0  0  0  0  0  0  0  0  0  0  0
   59.3599   -3.4412  -15.5876 O   0  0  0  0  0  0  0  0  0  0  0  0
   48.0932   -3.2364   -4.3129 C   0  0  0  0  0  0  0  0  0  0  0  0
   47.6824   -4.2988   -3.3247 O   0  0  0  0  0  0  0  0  0  0  0  0
   47.3841   -2.2730   -4.3050 O   0  0  0  0  0  0  0  0  0  0  0  0
   47.2344   -5.1360   -3.6963 H   0  0  0  0  0  0  0  0  0  0  0  0
   52.3618   -5.6291   -5.2235 O   0  0  0  0  0  0  0  0  0  0  0  0
   53.3338   -6.4179   -4.9634 C   0  0  0  0  0  0  0  0  0  0  0  0
   54.2364   -5.8967   -3.8059 C   0  0  0  0  0  0  0  0  0  0  0  0
   55.4124   -5.3461   -3.9781 C   0  0  0  0  0  0  0  0  0  0  0  0
   56.3337   -5.0123   -2.9346 C   0  0  0  0  0  0  0  0  0  0  0  0
   55.8816   -5.3206   -1.6521 C   0  0  0  0  0  0  0  0  0  0  0  0
   54.6381   -5.8964   -1.4444 C   0  0  0  0  0  0  0  0  0  0  0  0
   53.7806   -6.2073   -2.5086 C   0  0  0  0  0  0  0  0  0  0  0  0
   52.5096   -6.7835   -2.2579 C   0  0  0  0  0  0  0  0  0  0  0  0
   51.4803   -7.2585   -2.0979 N   0  0  0  0  0  0  0  0  0  0  0  0
 22 23  1  0  0  0
 23 16  1  0  0  0
 16 17  2  0  0  0
 17 18  1  0  0  0
 18 19  2  0  0  0
 19 20  1  0  0  0
 20 21  2  0  0  0
 19 12  1  0  0  0
 12 13  2  0  0  0
 12 14  1  0  0  0
 14  7  1  0  0  0
  7  8  2  0  0  0
  8  9  1  0  0  0
  9 10  2  0  0  0
 10 11  1  0  0  0
 10  1  1  0  0  0
  1  2  2  0  0  0
  2  3  1  0  0  0
  3  4  2  0  0  0
  4  5  1  0  0  0
  5  6  2  0  0  0
  6 28  1  0  0  0
 28 29  1  0  0  0
 29 30  1  0  0  0
 30 31  2  0  0  0
 31 32  1  0  0  0
 32 33  2  0  0  0
 33 34  1  0  0  0
 34 35  2  0  0  0
 35 36  1  0  0  0
 36 37  3  0  0  0
  4 24  1  0  0  0
 24 25  1  0  0  0
 24 26  2  0  0  0
 21 16  1  0  0  0
 11  7  1  0  0  0
  6  1  1  0  0  0
 35 30  1  0  0  0
 14 15  1  0  0  0
 25 27  1  0  0  0
M  END
> <minimizedAffinity>
-9.99807

> <CNNscore>
0.7269231081

> <CNNaffinity>
7.4924101830

> <CNN_VS>
5.4464058876

> <CNNaffinity_variance>
0.2827274203

$$$$
[H]OC(=O)c1c([H])c([H])c(-c2sc(N([H])C(=O)c3c([H])c([H])c(OC([H])([H])[H])c([H])c3[H])nc2[H])c(OC([H])([H])c2c([H])c([H])c([H])c([H])c2C#N)c1[H]


 37 40  0  0  0  0  0  0  0  0999 V2000
   51.3786   -4.2292   -6.7510 C   0  0  0  0  0  0  0  0  0  0  0  0
   50.4115   -3.4269   -7.1412 C   0  0  0  0  0  0  0  0  0  0  0  0
   49.3097   -3.0060   -6.4265 C   0  0  0  0  0  0  0  0  0  0  0  0
   49.2666   -3.5675   -5.0651 C   0  0  0  0  0  0  0  0  0  0  0  0
   50.2493   -4.3848   -4.6873 C   0  0  0  0  0  0  0  0  0  0  0  0
   51.3693   -4.8094   -5.4601 C   0  0  0  0  0  0  0  0  0  0  0  0
   54.4630   -3.8043   -9.3449 C   0  0  0  0  0  0  0  0  0  0  0  0
   54.7857   -4.5038   -8.3093 N   0  0  0  0  0  0  0  0  0  0  0  0
   53.9450   -4.7136   -7.3162 C   0  0  0  0  0  0  0  0  0  0  0  0
   52.7192   -4.1829   -7.4076 C   0  0  0  0  0  0  0  0  0  0  0  0
   52.8128   -3.3468   -8.9882 S   0  0  0  0  0  0  0  0  0  0  0  0
   56.3959   -4.1859  -10.7928 C   0  0  0  0  0  0  0  0  0  0  0  0
   56.7461   -5.0712   -9.9525 O   0  0  0  0  0  0  0  0  0  0  0  0
   55.2030   -3.4732  -10.5699 N   0  0  0  0  0  0  0  0  0  0  0  0
   54.8149   -2.7756  -11.1391 H   0  0  0  0  0  0  0  0  0  0  0  0
   58.7010   -3.5834  -14.3175 C   0  0  0  0  0  0  0  0  0  0  0  0
   59.3399   -3.7087  -13.1339 C   0  0  0  0  0  0  0  0  0  0  0  0
   58.5538   -3.8772  -11.9743 C   0  0  0  0  0  0  0  0  0  0  0  0
   57.2122   -3.9227  -11.9538 C   0  0  0  0  0  0  0  0  0  0  0  0
   56.5511   -3.7687  -13.2270 C   0  0  0  0  0  0  0  0  0  0  0  0
   57.3229   -3.6012  -14.3887 C   0  0  0  0  0  0  0  0  0  0  0  0
   59.0591   -2.4572  -16.4916 C   0  0  0  0  0  0  0  0  0  0  0  0
   59.3937   -3.4337  -15.5401 O   0  0  0  0  0  0  0  0  0  0  0  0
   48.0852   -3.1975   -4.3186 C   0  0  0  0  0  0  0  0  0  0  0  0
   47.6792   -4.2417   -3.3093 O   0  0  0  0  0  0  0  0  0  0  0  0
   47.3715   -2.2376   -4.3304 O   0  0  0  0  0  0  0  0  0  0  0  0
   47.2354   -5.0884   -3.6640 H   0  0  0  0  0  0  0  0  0  0  0  0
   52.3444   -5.6184   -5.1980 O   0  0  0  0  0  0  0  0  0  0  0  0
   53.3050   -6.4181   -4.9285 C   0  0  0  0  0  0  0  0  0  0  0  0
   53.9471   -6.1375   -3.5375 C   0  0  0  0  0  0  0  0  0  0  0  0
   53.2653   -5.9306   -2.4383 C   0  0  0  0  0  0  0  0  0  0  0  0
   53.8161   -5.5064   -1.1871 C   0  0  0  0  0  0  0  0  0  0  0  0
   55.1977   -5.3185   -1.2044 C   0  0  0  0  0  0  0  0  0  0  0  0
   55.9413   -5.5384   -2.3530 C   0  0  0  0  0  0  0  0  0  0  0  0
   55.3439   -5.9477   -3.5532 C   0  0  0  0  0  0  0  0  0  0  0  0
   56.1378   -6.1763   -4.7056 C   0  0  0  0  0  0  0  0  0  0  0  0
   56.8143   -6.3599   -5.6107 N   0  0  0  0  0  0  0  0  0  0  0  0
 22 23  1  0  0  0
 23 16  1  0  0  0
 16 17  2  0  0  0
 17 18  1  0  0  0
 18 19  2  0  0  0
 19 20  1  0  0  0
 20 21  2  0  0  0
 19 12  1  0  0  0
 12 13  2  0  0  0
 12 14  1  0  0  0
 14  7  1  0  0  0
  7  8  2  0  0  0
  8  9  1  0  0  0
  9 10  2  0  0  0
 10 11  1  0  0  0
 10  1  1  0  0  0
  1  2  2  0  0  0
  2  3  1  0  0  0
  3  4  2  0  0  0
  4  5  1  0  0  0
  5  6  2  0  0  0
  6 28  1  0  0  0
 28 29  1  0  0  0
 29 30  1  0  0  0
 30 31  2  0  0  0
 31 32  1  0  0  0
 32 33  2  0  0  0
 33 34  1  0  0  0
 34 35  2  0  0  0
 35 36  1  0  0  0
 36 37  3  0  0  0
  4 24  1  0  0  0
 24 25  1  0  0  0
 24 26  2  0  0  0
 21 16  1  0  0  0
 11  7  1  0  0  0
  6  1  1  0  0  0
 35 30  1  0  0  0
 14 15  1  0  0  0
 25 27  1  0  0  0
M  END
> <minimizedAffinity>
-9.87692

> <CNNscore>
0.6732449532

> <CNNaffinity>
7.3606247902

> <CNN_VS>
4.9555034637

> <CNNaffinity_variance>
0.1574504375

$$$$
[H]OC(=O)c1c([H])c([H])c(-c2sc(N([H])C(=O)c3c([H])c([H])c(OC([H])([H])[H])c([H])c3[H])nc2[H])c(OC([H])([H])c2c([H])c([H])c([H])c([H])c2C#N)c1[H]


 37 40  0  0  0  0  0  0  0  0999 V2000
   50.8992   -3.6386   -7.1165 C   0  0  0  0  0  0  0  0  0  0  0  0
   49.8067   -2.9395   -7.3374 C   0  0  0  0  0  0  0  0  0  0  0  0
   48.7589   -2.6957   -6.4743 C   0  0  0  0  0  0  0  0  0  0  0  0
   48.9459   -3.3325   -5.1590 C   0  0  0  0  0  0  0  0  0  0  0  0
   50.0541   -4.0438   -4.9531 C   0  0  0  0  0  0  0  0  0  0  0  0
   51.1130   -4.2859   -5.8761 C   0  0  0  0  0  0  0  0  0  0  0  0
   54.4678   -3.9404   -9.0129 C   0  0  0  0  0  0  0  0  0  0  0  0
   54.0852   -2.7149   -8.8793 N   0  0  0  0  0  0  0  0  0  0  0  0
   52.9248   -2.3982   -8.3406 C   0  0  0  0  0  0  0  0  0  0  0  0
   52.1360   -3.3936   -7.9169 C   0  0  0  0  0  0  0  0  0  0  0  0
   53.1231   -4.8285   -8.3326 S   0  0  0  0  0  0  0  0  0  0  0  0
   56.8262   -4.4938   -8.6810 C   0  0  0  0  0  0  0  0  0  0  0  0
   56.6947   -3.9932   -7.5214 O   0  0  0  0  0  0  0  0  0  0  0  0
   55.7093   -4.5250   -9.5368 N   0  0  0  0  0  0  0  0  0  0  0  0
   55.6706   -4.8885  -10.4465 H   0  0  0  0  0  0  0  0  0  0  0  0
   60.4754   -6.1782  -10.0756 C   0  0  0  0  0  0  0  0  0  0  0  0
   60.2218   -6.1792   -8.7487 C   0  0  0  0  0  0  0  0  0  0  0  0
   59.0194   -5.5879   -8.3064 C   0  0  0  0  0  0  0  0  0  0  0  0
   58.1015   -5.0202   -9.1049 C   0  0  0  0  0  0  0  0  0  0  0  0
   58.4022   -5.0149  -10.5161 C   0  0  0  0  0  0  0  0  0  0  0  0
   59.5957   -5.6012  -10.9688 C   0  0  0  0  0  0  0  0  0  0  0  0
   62.0471   -8.0732  -10.3248 C   0  0  0  0  0  0  0  0  0  0  0  0
   61.6382   -6.7641  -10.6248 O   0  0  0  0  0  0  0  0  0  0  0  0
   47.8294   -3.1505   -4.2589 C   0  0  0  0  0  0  0  0  0  0  0  0
   47.6319   -4.3194   -3.3269 O   0  0  0  0  0  0  0  0  0  0  0  0
   47.0392   -2.2674   -4.0961 O   0  0  0  0  0  0  0  0  0  0  0  0
   47.2251   -5.1679   -3.7196 H   0  0  0  0  0  0  0  0  0  0  0  0
   52.1987   -4.9836   -5.7834 O   0  0  0  0  0  0  0  0  0  0  0  0
   53.2685   -5.6765   -5.6819 C   0  0  0  0  0  0  0  0  0  0  0  0
   53.4044   -6.3708   -4.2943 C   0  0  0  0  0  0  0  0  0  0  0  0
   52.4199   -6.5165   -3.4427 C   0  0  0  0  0  0  0  0  0  0  0  0
   52.5478   -6.9953   -2.0998 C   0  0  0  0  0  0  0  0  0  0  0  0
   53.8525   -7.3196   -1.7298 C   0  0  0  0  0  0  0  0  0  0  0  0
   54.9092   -7.1813   -2.6159 C   0  0  0  0  0  0  0  0  0  0  0  0
   54.7228   -6.6997   -3.9190 C   0  0  0  0  0  0  0  0  0  0  0  0
   55.8253   -6.5839   -4.8030 C   0  0  0  0  0  0  0  0  0  0  0  0
   56.7359   -6.5216   -5.4942 N   0  0  0  0  0  0  0  0  0  0  0  0
 22 23  1  0  0  0
 23 16  1  0  0  0
 16 17  2  0  0  0
 17 18  1  0  0  0
 18 19  2  0  0  0
 19 20  1  0  0  0
 20 21  2  0  0  0
 19 12  1  0  0  0
 12 13  2  0  0  0
 12 14  1  0  0  0
 14  7  1  0  0  0
  7  8  2  0  0  0
  8  9  1  0  0  0
  9 10  2  0  0  0
 10 11  1  0  0  0
 10  1  1  0  0  0
  1  2  2  0  0  0
  2  3  1  0  0  0
  3  4  2  0  0  0
  4  5  1  0  0  0
  5  6  2  0  0  0
  6 28  1  0  0  0
 28 29  1  0  0  0
 29 30  1  0  0  0
 30 31  2  0  0  0
 31 32  1  0  0  0
 32 33  2  0  0  0
 33 34  1  0  0  0
 34 35  2  0  0  0
 35 36  1  0  0  0
 36 37  3  0  0  0
  4 24  1  0  0  0
 24 25  1  0  0  0
 24 26  2  0  0  0
 21 16  1  0  0  0
 11  7  1  0  0  0
  6  1  1  0  0  0
 35 30  1  0  0  0
 14 15  1  0  0  0
 25 27  1  0  0  0
M  END
> <minimizedAffinity>
-8.33674

> <CNNscore>
0.6722685695

> <CNNaffinity>
7.4680337906

> <CNN_VS>
5.0205245018

> <CNNaffinity_variance>
0.2018094808

$$$$
[H]OC(=O)c1c([H])c([H])c(-c2sc(N([H])C(=O)c3c([H])c([H])c(OC([H])([H])[H])c([H])c3[H])nc2[H])c(OC([H])([H])c2c([H])c([H])c([H])c([H])c2C#N)c1[H]


 37 40  0  0  0  0  0  0  0  0999 V2000
   52.0574   -4.5987   -6.7355 C   0  0  0  0  0  0  0  0  0  0  0  0
   51.0279   -3.8312   -7.0219 C   0  0  0  0  0  0  0  0  0  0  0  0
   49.9382   -3.5327   -6.2310 C   0  0  0  0  0  0  0  0  0  0  0  0
   49.9922   -4.1940   -4.9156 C   0  0  0  0  0  0  0  0  0  0  0  0
   51.0377   -4.9745   -4.6432 C   0  0  0  0  0  0  0  0  0  0  0  0
   52.1429   -5.2714   -5.4931 C   0  0  0  0  0  0  0  0  0  0  0  0
   54.9822   -3.8967   -9.4512 C   0  0  0  0  0  0  0  0  0  0  0  0
   55.4158   -4.5367   -8.4176 N   0  0  0  0  0  0  0  0  0  0  0  0
   54.6391   -4.8158   -7.3900 C   0  0  0  0  0  0  0  0  0  0  0  0
   53.3606   -4.4217   -7.4432 C   0  0  0  0  0  0  0  0  0  0  0  0
   53.3062   -3.6121   -9.0393 S   0  0  0  0  0  0  0  0  0  0  0  0
   56.7919   -4.2367  -11.0598 C   0  0  0  0  0  0  0  0  0  0  0  0
   57.1808   -5.1755  -10.2983 O   0  0  0  0  0  0  0  0  0  0  0  0
   55.6374   -3.5125  -10.7085 N   0  0  0  0  0  0  0  0  0  0  0  0
   55.2261   -2.7757  -11.2076 H   0  0  0  0  0  0  0  0  0  0  0  0
   58.8620   -3.4999  -14.7028 C   0  0  0  0  0  0  0  0  0  0  0  0
   59.5693   -3.5742  -13.5544 C   0  0  0  0  0  0  0  0  0  0  0  0
   58.8586   -3.7889  -12.3544 C   0  0  0  0  0  0  0  0  0  0  0  0
   57.5262   -3.9256  -12.2629 C   0  0  0  0  0  0  0  0  0  0  0  0
   56.7901   -3.8247  -13.4998 C   0  0  0  0  0  0  0  0  0  0  0  0
   57.4865   -3.6120  -14.7010 C   0  0  0  0  0  0  0  0  0  0  0  0
   60.8287   -3.6073  -16.2007 C   0  0  0  0  0  0  0  0  0  0  0  0
   59.4777   -3.3107  -15.9607 O   0  0  0  0  0  0  0  0  0  0  0  0
   48.8277   -3.9533   -4.0935 C   0  0  0  0  0  0  0  0  0  0  0  0
   48.1278   -2.6616   -4.4332 O   0  0  0  0  0  0  0  0  0  0  0  0
   48.3034   -4.5659   -3.2100 O   0  0  0  0  0  0  0  0  0  0  0  0
   48.5693   -1.7950   -4.1269 H   0  0  0  0  0  0  0  0  0  0  0  0
   53.1749   -6.0357   -5.3350 O   0  0  0  0  0  0  0  0  0  0  0  0
   54.1897   -6.7988   -5.1843 C   0  0  0  0  0  0  0  0  0  0  0  0
   54.3895   -7.2466   -3.7059 C   0  0  0  0  0  0  0  0  0  0  0  0
   53.4108   -7.4902   -2.8701 C   0  0  0  0  0  0  0  0  0  0  0  0
   53.5586   -7.7381   -1.4681 C   0  0  0  0  0  0  0  0  0  0  0  0
   54.8779   -7.7073   -1.0176 C   0  0  0  0  0  0  0  0  0  0  0  0
   55.9306   -7.4592   -1.8843 C   0  0  0  0  0  0  0  0  0  0  0  0
   55.7228   -7.2163   -3.2491 C   0  0  0  0  0  0  0  0  0  0  0  0
   56.8249   -6.9795   -4.1091 C   0  0  0  0  0  0  0  0  0  0  0  0
   57.6963   -6.8147   -4.8331 N   0  0  0  0  0  0  0  0  0  0  0  0
 22 23  1  0  0  0
 23 16  1  0  0  0
 16 17  2  0  0  0
 17 18  1  0  0  0
 18 19  2  0  0  0
 19 20  1  0  0  0
 20 21  2  0  0  0
 19 12  1  0  0  0
 12 13  2  0  0  0
 12 14  1  0  0  0
 14  7  1  0  0  0
  7  8  2  0  0  0
  8  9  1  0  0  0
  9 10  2  0  0  0
 10 11  1  0  0  0
 10  1  1  0  0  0
  1  2  2  0  0  0
  2  3  1  0  0  0
  3  4  2  0  0  0
  4  5  1  0  0  0
  5  6  2  0  0  0
  6 28  1  0  0  0
 28 29  1  0  0  0
 29 30  1  0  0  0
 30 31  2  0  0  0
 31 32  1  0  0  0
 32 33  2  0  0  0
 33 34  1  0  0  0
 34 35  2  0  0  0
 35 36  1  0  0  0
 36 37  3  0  0  0
  4 24  1  0  0  0
 24 25  1  0  0  0
 24 26  2  0  0  0
 21 16  1  0  0  0
 11  7  1  0  0  0
  6  1  1  0  0  0
 35 30  1  0  0  0
 14 15  1  0  0  0
 25 27  1  0  0  0
M  END
> <minimizedAffinity>
-9.45524

> <CNNscore>
0.6461719871

> <CNNaffinity>
7.1991472244

> <CNN_VS>
4.6518874168

> <CNNaffinity_variance>
0.0730296224

$$$$
[H]OC(=O)c1c([H])c([H])c(-c2sc(N([H])C(=O)c3c([H])c([H])c(OC([H])([H])[H])c([H])c3[H])nc2[H])c(OC([H])([H])c2c([H])c([H])c([H])c([H])c2C#N)c1[H]


 37 40  0  0  0  0  0  0  0  0999 V2000
   58.8887   -5.6598  -10.3153 C   0  0  0  0  0  0  0  0  0  0  0  0
   59.3011   -6.6322   -9.5309 C   0  0  0  0  0  0  0  0  0  0  0  0
   60.5541   -7.2050   -9.4662 C   0  0  0  0  0  0  0  0  0  0  0  0
   61.5004   -6.6124  -10.4274 C   0  0  0  0  0  0  0  0  0  0  0  0
   61.0655   -5.6335  -11.2206 C   0  0  0  0  0  0  0  0  0  0  0  0
   59.7553   -5.0740  -11.2687 C   0  0  0  0  0  0  0  0  0  0  0  0
   55.5351   -4.1431   -8.6197 C   0  0  0  0  0  0  0  0  0  0  0  0
   55.8215   -3.5687   -9.7395 N   0  0  0  0  0  0  0  0  0  0  0  0
   56.9045   -3.8734  -10.4261 C   0  0  0  0  0  0  0  0  0  0  0  0
   57.7161   -4.8174   -9.9334 C   0  0  0  0  0  0  0  0  0  0  0  0
   56.8686   -5.2571   -8.4186 S   0  0  0  0  0  0  0  0  0  0  0  0
   53.1235   -3.8749   -8.3185 C   0  0  0  0  0  0  0  0  0  0  0  0
   53.0448   -3.9141   -9.5853 O   0  0  0  0  0  0  0  0  0  0  0  0
   54.3880   -4.0002   -7.7133 N   0  0  0  0  0  0  0  0  0  0  0  0
   54.5879   -3.9963   -6.7536 H   0  0  0  0  0  0  0  0  0  0  0  0
   49.6809   -3.1678   -5.9211 C   0  0  0  0  0  0  0  0  0  0  0  0
   50.4367   -4.2591   -5.6711 C   0  0  0  0  0  0  0  0  0  0  0  0
   51.5563   -4.4899   -6.4983 C   0  0  0  0  0  0  0  0  0  0  0  0
   51.9322   -3.7059   -7.5212 C   0  0  0  0  0  0  0  0  0  0  0  0
   51.0999   -2.5563   -7.7807 C   0  0  0  0  0  0  0  0  0  0  0  0
   49.9830   -2.3153   -6.9635 C   0  0  0  0  0  0  0  0  0  0  0  0
   48.1367   -3.5932   -4.0348 C   0  0  0  0  0  0  0  0  0  0  0  0
   48.5528   -2.8323   -5.1389 O   0  0  0  0  0  0  0  0  0  0  0  0
   62.8016   -7.2421  -10.4286 C   0  0  0  0  0  0  0  0  0  0  0  0
   63.9326   -6.2494  -10.5249 O   0  0  0  0  0  0  0  0  0  0  0  0
   63.1652   -8.3798  -10.3621 O   0  0  0  0  0  0  0  0  0  0  0  0
   64.0999   -5.8167  -11.4329 H   0  0  0  0  0  0  0  0  0  0  0  0
   59.2329   -4.1581  -12.0186 O   0  0  0  0  0  0  0  0  0  0  0  0
   58.7219   -3.2571  -12.7683 C   0  0  0  0  0  0  0  0  0  0  0  0
   57.6540   -3.8269  -13.7486 C   0  0  0  0  0  0  0  0  0  0  0  0
   56.6457   -4.5797  -13.3848 C   0  0  0  0  0  0  0  0  0  0  0  0
   55.7493   -5.2536  -14.2744 C   0  0  0  0  0  0  0  0  0  0  0  0
   56.0235   -5.0490  -15.6262 C   0  0  0  0  0  0  0  0  0  0  0  0
   57.0799   -4.2506  -16.0354 C   0  0  0  0  0  0  0  0  0  0  0  0
   57.9295   -3.6206  -15.1156 C   0  0  0  0  0  0  0  0  0  0  0  0
   58.9925   -2.7998  -15.5702 C   0  0  0  0  0  0  0  0  0  0  0  0
   59.8773   -2.1716  -15.9353 N   0  0  0  0  0  0  0  0  0  0  0  0
 22 23  1  0  0  0
 23 16  1  0  0  0
 16 17  2  0  0  0
 17 18  1  0  0  0
 18 19  2  0  0  0
 19 20  1  0  0  0
 20 21  2  0  0  0
 19 12  1  0  0  0
 12 13  2  0  0  0
 12 14  1  0  0  0
 14  7  1  0  0  0
  7  8  2  0  0  0
  8  9  1  0  0  0
  9 10  2  0  0  0
 10 11  1  0  0  0
 10  1  1  0  0  0
  1  2  2  0  0  0
  2  3  1  0  0  0
  3  4  2  0  0  0
  4  5  1  0  0  0
  5  6  2  0  0  0
  6 28  1  0  0  0
 28 29  1  0  0  0
 29 30  1  0  0  0
 30 31  2  0  0  0
 31 32  1  0  0  0
 32 33  2  0  0  0
 33 34  1  0  0  0
 34 35  2  0  0  0
 35 36  1  0  0  0
 36 37  3  0  0  0
  4 24  1  0  0  0
 24 25  1  0  0  0
 24 26  2  0  0  0
 21 16  1  0  0  0
 11  7  1  0  0  0
  6  1  1  0  0  0
 35 30  1  0  0  0
 14 15  1  0  0  0
 25 27  1  0  0  0
M  END
> <minimizedAffinity>
-6.47264

> <CNNscore>
0.5868877172

> <CNNaffinity>
6.6293973923

> <CNN_VS>
3.8907117844

> <CNNaffinity_variance>
0.3086669743

$$$$
[H]OC(=O)c1c([H])c([H])c(-c2sc(N([H])C(=O)c3c([H])c([H])c(OC([H])([H])[H])c([H])c3[H])nc2[H])c(OC([H])([H])c2c([H])c([H])c([H])c([H])c2C#N)c1[H]


 37 40  0  0  0  0  0  0  0  0999 V2000
   58.0599   -5.4001  -10.0836 C   0  0  0  0  0  0  0  0  0  0  0  0
   58.4879   -6.0417   -9.0176 C   0  0  0  0  0  0  0  0  0  0  0  0
   59.7772   -6.4220   -8.7092 C   0  0  0  0  0  0  0  0  0  0  0  0
   60.7474   -6.0376   -9.7491 C   0  0  0  0  0  0  0  0  0  0  0  0
   60.2974   -5.3951  -10.8266 C   0  0  0  0  0  0  0  0  0  0  0  0
   58.9511   -5.0289  -11.1186 C   0  0  0  0  0  0  0  0  0  0  0  0
   54.5660   -3.6466   -9.0159 C   0  0  0  0  0  0  0  0  0  0  0  0
   54.7314   -3.6716  -10.2957 N   0  0  0  0  0  0  0  0  0  0  0  0
   55.8281   -4.1470  -10.8510 C   0  0  0  0  0  0  0  0  0  0  0  0
   56.7856   -4.6223  -10.0449 C   0  0  0  0  0  0  0  0  0  0  0  0
   56.0565   -4.3517   -8.4320 S   0  0  0  0  0  0  0  0  0  0  0  0
   52.5777   -4.2200   -7.7136 C   0  0  0  0  0  0  0  0  0  0  0  0
   52.8347   -5.4282   -8.0083 O   0  0  0  0  0  0  0  0  0  0  0  0
   53.4364   -3.2094   -8.1848 N   0  0  0  0  0  0  0  0  0  0  0  0
   53.3599   -2.2453   -8.0245 H   0  0  0  0  0  0  0  0  0  0  0  0
   49.2591   -3.0630   -5.3161 C   0  0  0  0  0  0  0  0  0  0  0  0
   49.9594   -4.1657   -4.9718 C   0  0  0  0  0  0  0  0  0  0  0  0
   51.0370   -4.5477   -5.7987 C   0  0  0  0  0  0  0  0  0  0  0  0
   51.4240   -3.8982   -6.9081 C   0  0  0  0  0  0  0  0  0  0  0  0
   50.6504   -2.7340   -7.2659 C   0  0  0  0  0  0  0  0  0  0  0  0
   49.5757   -2.3431   -6.4502 C   0  0  0  0  0  0  0  0  0  0  0  0
   47.0953   -3.3889   -4.1607 C   0  0  0  0  0  0  0  0  0  0  0  0
   48.1775   -2.5812   -4.5448 O   0  0  0  0  0  0  0  0  0  0  0  0
   62.0958   -6.4860   -9.4832 C   0  0  0  0  0  0  0  0  0  0  0  0
   62.1441   -7.8540   -8.8507 O   0  0  0  0  0  0  0  0  0  0  0  0
   63.1747   -6.0030   -9.6664 O   0  0  0  0  0  0  0  0  0  0  0  0
   61.8868   -7.9243   -7.8665 H   0  0  0  0  0  0  0  0  0  0  0  0
   58.4161   -4.4432  -12.1408 O   0  0  0  0  0  0  0  0  0  0  0  0
   57.8972   -3.8646  -13.1561 C   0  0  0  0  0  0  0  0  0  0  0  0
   58.9284   -3.6139  -14.2961 C   0  0  0  0  0  0  0  0  0  0  0  0
   60.2213   -3.5119  -14.1121 C   0  0  0  0  0  0  0  0  0  0  0  0
   61.1727   -3.1170  -15.1060 C   0  0  0  0  0  0  0  0  0  0  0  0
   60.6145   -2.8346  -16.3522 C   0  0  0  0  0  0  0  0  0  0  0  0
   59.2505   -2.9429  -16.5730 C   0  0  0  0  0  0  0  0  0  0  0  0
   58.3656   -3.3286  -15.5567 C   0  0  0  0  0  0  0  0  0  0  0  0
   56.9774   -3.4419  -15.8222 C   0  0  0  0  0  0  0  0  0  0  0  0
   55.8655   -3.5325  -16.0793 N   0  0  0  0  0  0  0  0  0  0  0  0
 22 23  1  0  0  0
 23 16  1  0  0  0
 16 17  2  0  0  0
 17 18  1  0  0  0
 18 19  2  0  0  0
 19 20  1  0  0  0
 20 21  2  0  0  0
 19 12  1  0  0  0
 12 13  2  0  0  0
 12 14  1  0  0  0
 14  7  1  0  0  0
  7  8  2  0  0  0
  8  9  1  0  0  0
  9 10  2  0  0  0
 10 11  1  0  0  0
 10  1  1  0  0  0
  1  2  2  0  0  0
  2  3  1  0  0  0
  3  4  2  0  0  0
  4  5  1  0  0  0
  5  6  2  0  0  0
  6 28  1  0  0  0
 28 29  1  0  0  0
 29 30  1  0  0  0
 30 31  2  0  0  0
 31 32  1  0  0  0
 32 33  2  0  0  0
 33 34  1  0  0  0
 34 35  2  0  0  0
 35 36  1  0  0  0
 36 37  3  0  0  0
  4 24  1  0  0  0
 24 25  1  0  0  0
 24 26  2  0  0  0
 21 16  1  0  0  0
 11  7  1  0  0  0
  6  1  1  0  0  0
 35 30  1  0  0  0
 14 15  1  0  0  0
 25 27  1  0  0  0
M  END
> <minimizedAffinity>
-7.44513

> <CNNscore>
0.4993675947

> <CNNaffinity>
6.5994977951

> <CNN_VS>
3.2955753803

> <CNNaffinity_variance>
0.2817023695

$$$$
[H]OC(=O)c1c([H])c([H])c(-c2sc(N([H])C(=O)c3c([H])c([H])c(OC([H])([H])[H])c([H])c3[H])nc2[H])c(OC([H])([H])c2c([H])c([H])c([H])c([H])c2C#N)c1[H]


 37 40  0  0  0  0  0  0  0  0999 V2000
   51.2585   -3.8121   -7.1563 C   0  0  0  0  0  0  0  0  0  0  0  0
   50.1714   -3.1113   -7.3975 C   0  0  0  0  0  0  0  0  0  0  0  0
   49.1128   -2.8574   -6.5508 C   0  0  0  0  0  0  0  0  0  0  0  0
   49.2797   -3.4844   -5.2281 C   0  0  0  0  0  0  0  0  0  0  0  0
   50.3826   -4.1976   -5.0016 C   0  0  0  0  0  0  0  0  0  0  0  0
   51.4532   -4.4503   -5.9081 C   0  0  0  0  0  0  0  0  0  0  0  0
   54.8184   -4.1620   -9.0607 C   0  0  0  0  0  0  0  0  0  0  0  0
   54.4852   -2.9304   -8.8659 N   0  0  0  0  0  0  0  0  0  0  0  0
   53.3367   -2.5945   -8.3134 C   0  0  0  0  0  0  0  0  0  0  0  0
   52.5069   -3.5773   -7.9416 C   0  0  0  0  0  0  0  0  0  0  0  0
   53.4367   -5.0281   -8.4280 S   0  0  0  0  0  0  0  0  0  0  0  0
   57.1699   -4.7686   -8.7767 C   0  0  0  0  0  0  0  0  0  0  0  0
   57.0708   -4.2742   -7.6112 O   0  0  0  0  0  0  0  0  0  0  0  0
   56.0371   -4.7693   -9.6118 N   0  0  0  0  0  0  0  0  0  0  0  0
   55.9738   -5.1249  -10.5233 H   0  0  0  0  0  0  0  0  0  0  0  0
   60.9748   -6.2654   -9.9521 C   0  0  0  0  0  0  0  0  0  0  0  0
   60.1615   -5.7398  -10.8940 C   0  0  0  0  0  0  0  0  0  0  0  0
   58.8922   -5.2775  -10.4862 C   0  0  0  0  0  0  0  0  0  0  0  0
   58.4255   -5.3192   -9.2281 C   0  0  0  0  0  0  0  0  0  0  0  0
   59.3043   -5.9009   -8.2427 C   0  0  0  0  0  0  0  0  0  0  0  0
   60.5708   -6.3640   -8.6362 C   0  0  0  0  0  0  0  0  0  0  0  0
   63.0031   -7.5631   -9.3814 C   0  0  0  0  0  0  0  0  0  0  0  0
   62.2738   -6.7356  -10.2499 O   0  0  0  0  0  0  0  0  0  0  0  0
   48.1516   -3.2918   -4.3448 C   0  0  0  0  0  0  0  0  0  0  0  0
   47.9979   -4.4055   -3.3398 O   0  0  0  0  0  0  0  0  0  0  0  0
   47.3243   -2.4340   -4.2417 O   0  0  0  0  0  0  0  0  0  0  0  0
   47.6291   -5.2939   -3.6779 H   0  0  0  0  0  0  0  0  0  0  0  0
   52.5353   -5.1507   -5.7951 O   0  0  0  0  0  0  0  0  0  0  0  0
   53.6057   -5.8428   -5.6943 C   0  0  0  0  0  0  0  0  0  0  0  0
   54.4301   -5.4910   -4.4205 C   0  0  0  0  0  0  0  0  0  0  0  0
   55.6180   -4.9393   -4.4396 C   0  0  0  0  0  0  0  0  0  0  0  0
   56.4678   -4.7587   -3.3020 C   0  0  0  0  0  0  0  0  0  0  0  0
   55.9278   -5.2262   -2.1044 C   0  0  0  0  0  0  0  0  0  0  0  0
   54.6700   -5.8064   -2.0580 C   0  0  0  0  0  0  0  0  0  0  0  0
   53.8852   -5.9626   -3.2089 C   0  0  0  0  0  0  0  0  0  0  0  0
   52.5971   -6.5486   -3.1219 C   0  0  0  0  0  0  0  0  0  0  0  0
   51.5728   -7.0575   -3.0709 N   0  0  0  0  0  0  0  0  0  0  0  0
 22 23  1  0  0  0
 23 16  1  0  0  0
 16 17  2  0  0  0
 17 18  1  0  0  0
 18 19  2  0  0  0
 19 20  1  0  0  0
 20 21  2  0  0  0
 19 12  1  0  0  0
 12 13  2  0  0  0
 12 14  1  0  0  0
 14  7  1  0  0  0
  7  8  2  0  0  0
  8  9  1  0  0  0
  9 10  2  0  0  0
 10 11  1  0  0  0
 10  1  1  0  0  0
  1  2  2  0  0  0
  2  3  1  0  0  0
  3  4  2  0  0  0
  4  5  1  0  0  0
  5  6  2  0  0  0
  6 28  1  0  0  0
 28 29  1  0  0  0
 29 30  1  0  0  0
 30 31  2  0  0  0
 31 32  1  0  0  0
 32 33  2  0  0  0
 33 34  1  0  0  0
 34 35  2  0  0  0
 35 36  1  0  0  0
 36 37  3  0  0  0
  4 24  1  0  0  0
 24 25  1  0  0  0
 24 26  2  0  0  0
 21 16  1  0  0  0
 11  7  1  0  0  0
  6  1  1  0  0  0
 35 30  1  0  0  0
 14 15  1  0  0  0
 25 27  1  0  0  0
M  END
> <minimizedAffinity>
-8.18520

> <CNNscore>
0.4974479079

> <CNNaffinity>
7.2684493065

> <CNN_VS>
3.6156749725

> <CNNaffinity_variance>
0.2801318765

$$$$
[H]N=C(N([H])[H])N([H])C([H])([H])C([H])([H])C([H])([H])[C@@]([H])(C(=O)N1C([H])([H])C([H])([H])C([H])([H])[C@@]1([H])C(=O)N([H])[C@]([H])(C([H])=O)C([H])([H])C([H])([H])C([H])([H])N=C(N([H])[H])N([H])[H])N([H])C(=O)[C@@]1([H])N([H])C([H])([H])c2c([H])c([H])c([H])c([H])c2C1([H])[H]


 52 54  0  0  0  0  0  0  0  0999 V2000
   56.3162   -7.1942   -3.7853 C   0  0  0  0  0  0  0  0  0  0  0  0
   54.8990   -7.2011   -3.3225 C   0  0  0  0  0  0  0  0  0  0  0  0
   54.0272   -7.3128   -4.2142 O   0  0  0  0  0  0  0  0  0  0  0  0
   54.5757   -7.0912   -1.9459 N   0  0  0  0  0  0  0  0  0  0  0  0
   55.5396   -6.9977   -0.8934 C   0  0  0  0  0  0  0  0  0  0  0  0
   54.9130   -5.8125   -0.1285 C   0  0  0  0  0  0  0  0  0  0  0  0
   53.4497   -6.2010   -0.1078 C   0  0  0  0  0  0  0  0  0  0  0  0
   53.3026   -7.0734   -1.3041 C   0  0  0  0  0  0  0  0  0  0  0  0
   52.1814   -6.6763   -2.1673 C   0  0  0  0  0  0  0  0  0  0  0  0
   51.1777   -7.3954   -2.2692 O   0  0  0  0  0  0  0  0  0  0  0  0
   52.2335   -5.4767   -2.8865 N   0  0  0  0  0  0  0  0  0  0  0  0
   53.0372   -4.8028   -2.8590 H   0  0  0  0  0  0  0  0  0  0  0  0
   51.0992   -5.1176   -3.7442 C   0  0  0  0  0  0  0  0  0  0  0  0
   49.8921   -4.7923   -2.9699 C   0  0  0  0  0  0  0  0  0  0  0  0
   48.7657   -4.9908   -3.4455 O   0  0  0  0  0  0  0  0  0  0  0  0
   50.8132   -6.1840   -4.7783 C   0  0  0  0  0  0  0  0  0  0  0  0
   50.5951   -5.6354   -6.1539 C   0  0  0  0  0  0  0  0  0  0  0  0
   51.5087   -4.4771   -6.4669 C   0  0  0  0  0  0  0  0  0  0  0  0
   50.7279   -3.2591   -6.6015 N   0  0  0  0  0  0  0  0  0  0  0  0
   50.8777   -2.4912   -7.6207 C   0  0  0  0  0  0  0  0  0  0  0  0
   51.8113   -2.8374   -8.6179 N   0  0  0  0  0  0  0  0  0  0  0  0
   50.1133   -1.3073   -7.7506 N   0  0  0  0  0  0  0  0  0  0  0  0
   51.4851   -3.0659   -9.5718 H   0  0  0  0  0  0  0  0  0  0  0  0
   52.8207   -2.8618   -8.3906 H   0  0  0  0  0  0  0  0  0  0  0  0
   49.3606   -1.1550   -8.4374 H   0  0  0  0  0  0  0  0  0  0  0  0
   50.3221   -0.5165   -7.1035 H   0  0  0  0  0  0  0  0  0  0  0  0
   56.3641   -7.0587   -5.2437 N   0  0  0  0  0  0  0  0  0  0  0  0
   56.1171   -5.7452   -5.7380 C   0  0  0  0  0  0  0  0  0  0  0  0
   55.8826   -4.7578   -4.9699 O   0  0  0  0  0  0  0  0  0  0  0  0
   56.5570   -7.8323   -5.8795 H   0  0  0  0  0  0  0  0  0  0  0  0
   56.1374   -5.5373   -7.2078 C   0  0  0  0  0  0  0  0  0  0  0  0
   57.5029   -5.5683   -7.8082 C   0  0  0  0  0  0  0  0  0  0  0  0
   57.4095   -5.0266   -9.2048 C   0  0  0  0  0  0  0  0  0  0  0  0
   58.5415   -5.2028   -9.9774 C   0  0  0  0  0  0  0  0  0  0  0  0
   58.5770   -4.7466  -11.2741 C   0  0  0  0  0  0  0  0  0  0  0  0
   57.4533   -4.1173  -11.7589 C   0  0  0  0  0  0  0  0  0  0  0  0
   56.3187   -3.9332  -11.0061 C   0  0  0  0  0  0  0  0  0  0  0  0
   56.2987   -4.4002   -9.6982 C   0  0  0  0  0  0  0  0  0  0  0  0
   55.0887   -4.2152   -8.8791 C   0  0  0  0  0  0  0  0  0  0  0  0
   55.4251   -4.3094   -7.4943 N   0  0  0  0  0  0  0  0  0  0  0  0
   56.0106   -3.4849   -7.2111 H   0  0  0  0  0  0  0  0  0  0  0  0
   57.1017   -6.0594   -3.1617 C   0  0  0  0  0  0  0  0  0  0  0  0
   58.4154   -6.5536   -2.5985 C   0  0  0  0  0  0  0  0  0  0  0  0
   58.8646   -7.8282   -3.2759 C   0  0  0  0  0  0  0  0  0  0  0  0
   60.2605   -8.0989   -3.0528 N   0  0  0  0  0  0  0  0  0  0  0  0
   60.7256   -8.0357   -2.1287 H   0  0  0  0  0  0  0  0  0  0  0  0
   61.4037   -9.8376   -4.3197 N   0  0  0  0  0  0  0  0  0  0  0  0
   61.0408   -8.4785   -4.1838 C   0  0  0  0  0  0  0  0  0  0  0  0
   61.3815   -7.5786   -5.0323 N   0  0  0  0  0  0  0  0  0  0  0  0
   60.7622  -10.5195   -4.7679 H   0  0  0  0  0  0  0  0  0  0  0  0
   62.3195  -10.1590   -3.9683 H   0  0  0  0  0  0  0  0  0  0  0  0
   61.9534   -7.8304   -5.8728 H   0  0  0  0  0  0  0  0  0  0  0  0
 47 48  1  0  0  0
 48 49  2  0  0  0
 48 45  1  0  0  0
 45 44  1  0  0  0
 44 43  1  0  0  0
 43 42  1  0  0  0
 42  1  1  0  0  0
  1 27  1  0  0  0
 27 28  1  0  0  0
 28 29  2  0  0  0
 28 31  1  0  0  0
 31 32  1  0  0  0
 32 33  1  0  0  0
 33 34  2  0  0  0
 34 35  1  0  0  0
 35 36  2  0  0  0
 36 37  1  0  0  0
 37 38  2  0  0  0
 38 39  1  0  0  0
 39 40  1  0  0  0
  1  2  1  0  0  0
  2  3  2  0  0  0
  2  4  1  0  0  0
  4  5  1  0  0  0
  5  6  1  0  0  0
  6  7  1  0  0  0
  7  8  1  0  0  0
  8  9  1  0  0  0
  9 10  2  0  0  0
  9 11  1  0  0  0
 11 13  1  0  0  0
 13 16  1  0  0  0
 16 17  1  0  0  0
 17 18  1  0  0  0
 18 19  1  0  0  0
 19 20  2  0  0  0
 20 21  1  0  0  0
 20 22  1  0  0  0
 13 14  1  0  0  0
 14 15  2  0  0  0
 40 31  1  0  0  0
  8  4  1  0  0  0
 38 33  1  0  0  0
 47 50  1  0  0  0
 47 51  1  0  0  0
 49 52  1  0  0  0
 45 46  1  0  0  0
 27 30  1  0  0  0
 40 41  1  0  0  0
 11 12  1  0  0  0
 21 23  1  0  0  0
 21 24  1  0  0  0
 22 25  1  0  0  0
 22 26  1  0  0  0
M  END
> <minimizedAffinity>
-8.09076

> <CNNscore>
0.3040722907

> <CNNaffinity>
7.3754959106

> <CNN_VS>
2.2426838875

> <CNNaffinity_variance>
0.0876194015

$$$$
[H]N=C(N([H])[H])N([H])C([H])([H])C([H])([H])C([H])([H])[C@@]([H])(C(=O)N1C([H])([H])C([H])([H])C([H])([H])[C@@]1([H])C(=O)N([H])[C@]([H])(C([H])=O)C([H])([H])C([H])([H])C([H])([H])N=C(N([H])[H])N([H])[H])N([H])C(=O)[C@@]1([H])N([H])C([H])([H])c2c([H])c([H])c([H])c([H])c2C1([H])[H]


 52 54  0  0  0  0  0  0  0  0999 V2000
   58.0513   -5.5123   -9.3672 C   0  0  0  0  0  0  0  0  0  0  0  0
   57.1374   -5.1681   -8.2406 C   0  0  0  0  0  0  0  0  0  0  0  0
   57.4291   -5.6545   -7.1244 O   0  0  0  0  0  0  0  0  0  0  0  0
   56.0092   -4.3320   -8.4397 N   0  0  0  0  0  0  0  0  0  0  0  0
   55.6603   -3.7277   -9.6883 C   0  0  0  0  0  0  0  0  0  0  0  0
   54.1612   -4.0952   -9.6969 C   0  0  0  0  0  0  0  0  0  0  0  0
   53.7549   -3.7566   -8.2781 C   0  0  0  0  0  0  0  0  0  0  0  0
   55.0221   -3.8912   -7.5100 C   0  0  0  0  0  0  0  0  0  0  0  0
   54.8797   -4.7342   -6.3146 C   0  0  0  0  0  0  0  0  0  0  0  0
   54.0175   -5.6226   -6.2677 O   0  0  0  0  0  0  0  0  0  0  0  0
   55.7198   -4.5438   -5.2113 N   0  0  0  0  0  0  0  0  0  0  0  0
   56.4799   -3.8224   -5.1617 H   0  0  0  0  0  0  0  0  0  0  0  0
   55.5425   -5.3988   -4.0328 C   0  0  0  0  0  0  0  0  0  0  0  0
   56.1045   -4.7971   -2.8144 C   0  0  0  0  0  0  0  0  0  0  0  0
   56.8100   -3.7812   -2.8807 O   0  0  0  0  0  0  0  0  0  0  0  0
   56.0912   -6.7906   -4.2570 C   0  0  0  0  0  0  0  0  0  0  0  0
   55.5068   -7.8159   -3.3362 C   0  0  0  0  0  0  0  0  0  0  0  0
   53.9988   -7.8033   -3.3379 C   0  0  0  0  0  0  0  0  0  0  0  0
   53.5124   -7.1554   -2.1317 N   0  0  0  0  0  0  0  0  0  0  0  0
   52.8872   -7.8260   -1.2315 C   0  0  0  0  0  0  0  0  0  0  0  0
   52.6722   -9.2060   -1.4197 N   0  0  0  0  0  0  0  0  0  0  0  0
   52.4176   -7.1929   -0.0561 N   0  0  0  0  0  0  0  0  0  0  0  0
   53.1206   -9.8882   -0.7857 H   0  0  0  0  0  0  0  0  0  0  0  0
   52.0659   -9.5308   -2.1931 H   0  0  0  0  0  0  0  0  0  0  0  0
   52.8012   -7.3306    0.8900 H   0  0  0  0  0  0  0  0  0  0  0  0
   51.6160   -6.5314   -0.1435 H   0  0  0  0  0  0  0  0  0  0  0  0
   57.6928   -4.7341  -10.5561 N   0  0  0  0  0  0  0  0  0  0  0  0
   58.7084   -4.6479  -11.5520 C   0  0  0  0  0  0  0  0  0  0  0  0
   59.8411   -5.2142  -11.4251 O   0  0  0  0  0  0  0  0  0  0  0  0
   56.7900   -4.2774  -10.6846 H   0  0  0  0  0  0  0  0  0  0  0  0
   58.4182   -3.8636  -12.7787 C   0  0  0  0  0  0  0  0  0  0  0  0
   57.1547   -4.2569  -13.4680 C   0  0  0  0  0  0  0  0  0  0  0  0
   57.1558   -3.6330  -14.8330 C   0  0  0  0  0  0  0  0  0  0  0  0
   55.9543   -3.7079  -15.5113 C   0  0  0  0  0  0  0  0  0  0  0  0
   55.8325   -3.1734  -16.7724 C   0  0  0  0  0  0  0  0  0  0  0  0
   56.9426   -2.5709  -17.3188 C   0  0  0  0  0  0  0  0  0  0  0  0
   58.1453   -2.4866  -16.6597 C   0  0  0  0  0  0  0  0  0  0  0  0
   58.2518   -3.0311  -15.3864 C   0  0  0  0  0  0  0  0  0  0  0  0
   59.5325   -2.9450  -14.6642 C   0  0  0  0  0  0  0  0  0  0  0  0
   59.5777   -3.9421  -13.6427 N   0  0  0  0  0  0  0  0  0  0  0  0
   59.6335   -4.8969  -14.0764 H   0  0  0  0  0  0  0  0  0  0  0  0
   59.4983   -5.2340   -9.0175 C   0  0  0  0  0  0  0  0  0  0  0  0
   60.1619   -6.4618   -8.4350 C   0  0  0  0  0  0  0  0  0  0  0  0
   61.5548   -6.6551   -8.9896 C   0  0  0  0  0  0  0  0  0  0  0  0
   62.0631   -7.9769   -8.7325 N   0  0  0  0  0  0  0  0  0  0  0  0
   62.9198   -8.1749   -8.1837 H   0  0  0  0  0  0  0  0  0  0  0  0
   60.9131  -10.0971   -8.3905 N   0  0  0  0  0  0  0  0  0  0  0  0
   61.3307   -9.0744   -9.2720 C   0  0  0  0  0  0  0  0  0  0  0  0
   61.0774   -9.0926  -10.5295 N   0  0  0  0  0  0  0  0  0  0  0  0
   60.0285  -10.0119   -7.8543 H   0  0  0  0  0  0  0  0  0  0  0  0
   61.4953  -10.9418   -8.2764 H   0  0  0  0  0  0  0  0  0  0  0  0
   60.5398   -9.8863  -10.9516 H   0  0  0  0  0  0  0  0  0  0  0  0
 47 48  1  0  0  0
 48 49  2  0  0  0
 48 45  1  0  0  0
 45 44  1  0  0  0
 44 43  1  0  0  0
 43 42  1  0  0  0
 42  1  1  0  0  0
  1 27  1  0  0  0
 27 28  1  0  0  0
 28 29  2  0  0  0
 28 31  1  0  0  0
 31 32  1  0  0  0
 32 33  1  0  0  0
 33 34  2  0  0  0
 34 35  1  0  0  0
 35 36  2  0  0  0
 36 37  1  0  0  0
 37 38  2  0  0  0
 38 39  1  0  0  0
 39 40  1  0  0  0
  1  2  1  0  0  0
  2  3  2  0  0  0
  2  4  1  0  0  0
  4  5  1  0  0  0
  5  6  1  0  0  0
  6  7  1  0  0  0
  7  8  1  0  0  0
  8  9  1  0  0  0
  9 10  2  0  0  0
  9 11  1  0  0  0
 11 13  1  0  0  0
 13 16  1  0  0  0
 16 17  1  0  0  0
 17 18  1  0  0  0
 18 19  1  0  0  0
 19 20  2  0  0  0
 20 21  1  0  0  0
 20 22  1  0  0  0
 13 14  1  0  0  0
 14 15  2  0  0  0
 40 31  1  0  0  0
  8  4  1  0  0  0
 38 33  1  0  0  0
 47 50  1  0  0  0
 47 51  1  0  0  0
 49 52  1  0  0  0
 45 46  1  0  0  0
 27 30  1  0  0  0
 40 41  1  0  0  0
 11 12  1  0  0  0
 21 23  1  0  0  0
 21 24  1  0  0  0
 22 25  1  0  0  0
 22 26  1  0  0  0
M  END
> <minimizedAffinity>
-6.84441

> <CNNscore>
0.2823964059

> <CNNaffinity>
6.4153838158

> <CNN_VS>
1.8116813898

> <CNNaffinity_variance>
0.4544493258

$$$$
[H]N=C(N([H])[H])N([H])C([H])([H])C([H])([H])C([H])([H])[C@@]([H])(C(=O)N1C([H])([H])C([H])([H])C([H])([H])[C@@]1([H])C(=O)N([H])[C@]([H])(C([H])=O)C([H])([H])C([H])([H])C([H])([H])N=C(N([H])[H])N([H])[H])N([H])C(=O)[C@@]1([H])N([H])C([H])([H])c2c([H])c([H])c([H])c([H])c2C1([H])[H]


 52 54  0  0  0  0  0  0  0  0999 V2000
   53.9643   -4.0630   -8.9881 C   0  0  0  0  0  0  0  0  0  0  0  0
   55.0619   -3.9643   -9.9923 C   0  0  0  0  0  0  0  0  0  0  0  0
   54.7141   -3.7071  -11.1673 O   0  0  0  0  0  0  0  0  0  0  0  0
   56.4175   -4.1495   -9.6188 N   0  0  0  0  0  0  0  0  0  0  0  0
   56.8607   -4.4092   -8.2839 C   0  0  0  0  0  0  0  0  0  0  0  0
   57.8072   -5.5884   -8.5940 C   0  0  0  0  0  0  0  0  0  0  0  0
   58.5507   -5.0729   -9.8082 C   0  0  0  0  0  0  0  0  0  0  0  0
   57.5999   -4.1020  -10.4142 C   0  0  0  0  0  0  0  0  0  0  0  0
   57.3875   -4.3299  -11.8505 C   0  0  0  0  0  0  0  0  0  0  0  0
   57.5269   -5.4604  -12.3377 O   0  0  0  0  0  0  0  0  0  0  0  0
   57.0230   -3.2693  -12.6880 N   0  0  0  0  0  0  0  0  0  0  0  0
   56.8770   -2.2817  -12.3656 H   0  0  0  0  0  0  0  0  0  0  0  0
   56.8278   -3.5333  -14.1175 C   0  0  0  0  0  0  0  0  0  0  0  0
   56.0401   -4.7511  -14.3601 C   0  0  0  0  0  0  0  0  0  0  0  0
   56.3665   -5.5456  -15.2525 O   0  0  0  0  0  0  0  0  0  0  0  0
   58.1402   -3.5737  -14.8688 C   0  0  0  0  0  0  0  0  0  0  0  0
   58.1707   -2.6704  -16.0620 C   0  0  0  0  0  0  0  0  0  0  0  0
   59.0468   -3.2018  -17.1684 C   0  0  0  0  0  0  0  0  0  0  0  0
   60.3485   -2.5583  -17.1153 N   0  0  0  0  0  0  0  0  0  0  0  0
   61.4255   -3.2567  -17.0605 C   0  0  0  0  0  0  0  0  0  0  0  0
   61.3397   -4.6633  -17.0520 N   0  0  0  0  0  0  0  0  0  0  0  0
   62.6921   -2.6271  -17.0122 N   0  0  0  0  0  0  0  0  0  0  0  0
   61.7214   -5.2074  -17.8436 H   0  0  0  0  0  0  0  0  0  0  0  0
   60.8938   -5.1461  -16.2524 H   0  0  0  0  0  0  0  0  0  0  0  0
   63.3866   -2.6240  -17.7732 H   0  0  0  0  0  0  0  0  0  0  0  0
   62.9550   -2.1230  -16.1378 H   0  0  0  0  0  0  0  0  0  0  0  0
   54.4723   -4.6624   -7.7511 N   0  0  0  0  0  0  0  0  0  0  0  0
   53.5916   -5.5891   -7.1214 C   0  0  0  0  0  0  0  0  0  0  0  0
   52.4510   -5.8845   -7.6027 O   0  0  0  0  0  0  0  0  0  0  0  0
   55.3848   -4.4479   -7.3494 H   0  0  0  0  0  0  0  0  0  0  0  0
   54.0366   -6.2256   -5.8562 C   0  0  0  0  0  0  0  0  0  0  0  0
   52.9988   -6.2405   -4.7843 C   0  0  0  0  0  0  0  0  0  0  0  0
   53.6707   -6.5987   -3.4910 C   0  0  0  0  0  0  0  0  0  0  0  0
   52.8132   -6.8821   -2.4452 C   0  0  0  0  0  0  0  0  0  0  0  0
   53.3112   -7.2216   -1.2093 C   0  0  0  0  0  0  0  0  0  0  0  0
   54.6790   -7.2653   -1.0638 C   0  0  0  0  0  0  0  0  0  0  0  0
   55.5472   -6.9871   -2.0918 C   0  0  0  0  0  0  0  0  0  0  0  0
   55.0282   -6.6462   -3.3341 C   0  0  0  0  0  0  0  0  0  0  0  0
   55.9451   -6.3497   -4.4480 C   0  0  0  0  0  0  0  0  0  0  0  0
   55.2648   -5.5805   -5.4406 N   0  0  0  0  0  0  0  0  0  0  0  0
   55.0537   -4.6216   -5.0681 H   0  0  0  0  0  0  0  0  0  0  0  0
   53.3758   -2.7046   -8.6687 C   0  0  0  0  0  0  0  0  0  0  0  0
   51.8704   -2.7178   -8.8120 C   0  0  0  0  0  0  0  0  0  0  0  0
   51.1849   -2.4989   -7.4825 C   0  0  0  0  0  0  0  0  0  0  0  0
   50.3002   -3.5823   -7.1429 N   0  0  0  0  0  0  0  0  0  0  0  0
   50.0394   -4.3468   -7.7924 H   0  0  0  0  0  0  0  0  0  0  0  0
   50.1781   -4.6069   -4.9360 N   0  0  0  0  0  0  0  0  0  0  0  0
   49.7565   -3.5926   -5.8251 C   0  0  0  0  0  0  0  0  0  0  0  0
   48.9111   -2.6854   -5.4961 N   0  0  0  0  0  0  0  0  0  0  0  0
   51.0455   -4.4998   -4.3761 H   0  0  0  0  0  0  0  0  0  0  0  0
   49.6169   -5.4681   -4.8410 H   0  0  0  0  0  0  0  0  0  0  0  0
   48.4974   -2.6688   -4.5341 H   0  0  0  0  0  0  0  0  0  0  0  0
 47 48  1  0  0  0
 48 49  2  0  0  0
 48 45  1  0  0  0
 45 44  1  0  0  0
 44 43  1  0  0  0
 43 42  1  0  0  0
 42  1  1  0  0  0
  1 27  1  0  0  0
 27 28  1  0  0  0
 28 29  2  0  0  0
 28 31  1  0  0  0
 31 32  1  0  0  0
 32 33  1  0  0  0
 33 34  2  0  0  0
 34 35  1  0  0  0
 35 36  2  0  0  0
 36 37  1  0  0  0
 37 38  2  0  0  0
 38 39  1  0  0  0
 39 40  1  0  0  0
  1  2  1  0  0  0
  2  3  2  0  0  0
  2  4  1  0  0  0
  4  5  1  0  0  0
  5  6  1  0  0  0
  6  7  1  0  0  0
  7  8  1  0  0  0
  8  9  1  0  0  0
  9 10  2  0  0  0
  9 11  1  0  0  0
 11 13  1  0  0  0
 13 16  1  0  0  0
 16 17  1  0  0  0
 17 18  1  0  0  0
 18 19  1  0  0  0
 19 20  2  0  0  0
 20 21  1  0  0  0
 20 22  1  0  0  0
 13 14  1  0  0  0
 14 15  2  0  0  0
 40 31  1  0  0  0
  8  4  1  0  0  0
 38 33  1  0  0  0
 47 50  1  0  0  0
 47 51  1  0  0  0
 49 52  1  0  0  0
 45 46  1  0  0  0
 27 30  1  0  0  0
 40 41  1  0  0  0
 11 12  1  0  0  0
 21 23  1  0  0  0
 21 24  1  0  0  0
 22 25  1  0  0  0
 22 26  1  0  0  0
M  END
> <minimizedAffinity>
-7.23603

> <CNNscore>
0.2763199806

> <CNNaffinity>
7.0305953026

> <CNN_VS>
1.9426939487

> <CNNaffinity_variance>
0.0573778823

$$$$
[H]N=C(N([H])[H])N([H])C([H])([H])C([H])([H])C([H])([H])[C@@]([H])(C(=O)N1C([H])([H])C([H])([H])C([H])([H])[C@@]1([H])C(=O)N([H])[C@]([H])(C([H])=O)C([H])([H])C([H])([H])C([H])([H])N=C(N([H])[H])N([H])[H])N([H])C(=O)[C@@]1([H])N([H])C([H])([H])c2c([H])c([H])c([H])c([H])c2C1([H])[H]


 52 54  0  0  0  0  0  0  0  0999 V2000
   58.5595   -5.2384   -9.5050 C   0  0  0  0  0  0  0  0  0  0  0  0
   57.7206   -4.8784   -8.3262 C   0  0  0  0  0  0  0  0  0  0  0  0
   58.1578   -5.2335   -7.2080 O   0  0  0  0  0  0  0  0  0  0  0  0
   56.5019   -4.1698   -8.4814 N   0  0  0  0  0  0  0  0  0  0  0  0
   55.9844   -3.7150   -9.7348 C   0  0  0  0  0  0  0  0  0  0  0  0
   54.5343   -4.2165   -9.5669 C   0  0  0  0  0  0  0  0  0  0  0  0
   54.2253   -3.7896   -8.1474 C   0  0  0  0  0  0  0  0  0  0  0  0
   55.5633   -3.7384   -7.4985 C   0  0  0  0  0  0  0  0  0  0  0  0
   55.6128   -4.4795   -6.2303 C   0  0  0  0  0  0  0  0  0  0  0  0
   56.2839   -4.0574   -5.2783 O   0  0  0  0  0  0  0  0  0  0  0  0
   54.8992   -5.6744   -6.0817 N   0  0  0  0  0  0  0  0  0  0  0  0
   54.3011   -6.1053   -6.8283 H   0  0  0  0  0  0  0  0  0  0  0  0
   54.9793   -6.3906   -4.8042 C   0  0  0  0  0  0  0  0  0  0  0  0
   55.8727   -7.5567   -4.8706 C   0  0  0  0  0  0  0  0  0  0  0  0
   56.7776   -7.7058   -4.0381 O   0  0  0  0  0  0  0  0  0  0  0  0
   53.6116   -6.7798   -4.2881 C   0  0  0  0  0  0  0  0  0  0  0  0
   52.9272   -5.6841   -3.5320 C   0  0  0  0  0  0  0  0  0  0  0  0
   51.4241   -5.7764   -3.6122 C   0  0  0  0  0  0  0  0  0  0  0  0
   51.0328   -6.2816   -4.9172 N   0  0  0  0  0  0  0  0  0  0  0  0
   50.4706   -5.5118   -5.7787 C   0  0  0  0  0  0  0  0  0  0  0  0
   50.2320   -4.1622   -5.4506 N   0  0  0  0  0  0  0  0  0  0  0  0
   50.0936   -6.0058   -7.0503 N   0  0  0  0  0  0  0  0  0  0  0  0
   50.7208   -3.4124   -5.9677 H   0  0  0  0  0  0  0  0  0  0  0  0
   49.5680   -3.9274   -4.6923 H   0  0  0  0  0  0  0  0  0  0  0  0
   50.5449   -5.7612   -7.9435 H   0  0  0  0  0  0  0  0  0  0  0  0
   49.2928   -6.6722   -7.0986 H   0  0  0  0  0  0  0  0  0  0  0  0
   59.3518   -6.4346   -9.2068 N   0  0  0  0  0  0  0  0  0  0  0  0
   60.5671   -6.5542   -9.9414 C   0  0  0  0  0  0  0  0  0  0  0  0
   60.9442   -5.6812  -10.7873 O   0  0  0  0  0  0  0  0  0  0  0  0
   59.0751   -7.1443   -8.5288 H   0  0  0  0  0  0  0  0  0  0  0  0
   61.4143   -7.7490   -9.6992 C   0  0  0  0  0  0  0  0  0  0  0  0
   62.2700   -8.1339  -10.8593 C   0  0  0  0  0  0  0  0  0  0  0  0
   62.8074   -9.5118  -10.6041 C   0  0  0  0  0  0  0  0  0  0  0  0
   63.8015   -9.9218  -11.4719 C   0  0  0  0  0  0  0  0  0  0  0  0
   64.3707  -11.1665  -11.3397 C   0  0  0  0  0  0  0  0  0  0  0  0
   63.9131  -11.9715  -10.3216 C   0  0  0  0  0  0  0  0  0  0  0  0
   62.9261  -11.5810   -9.4491 C   0  0  0  0  0  0  0  0  0  0  0  0
   62.3616  -10.3205   -9.5957 C   0  0  0  0  0  0  0  0  0  0  0  0
   61.3057   -9.8847   -8.6660 C   0  0  0  0  0  0  0  0  0  0  0  0
   60.5520   -8.8244   -9.2554 N   0  0  0  0  0  0  0  0  0  0  0  0
   59.9939   -9.1897  -10.0665 H   0  0  0  0  0  0  0  0  0  0  0  0
   57.7131   -5.5047  -10.7323 C   0  0  0  0  0  0  0  0  0  0  0  0
   58.1092   -4.5943  -11.8730 C   0  0  0  0  0  0  0  0  0  0  0  0
   56.9996   -4.4669  -12.8918 C   0  0  0  0  0  0  0  0  0  0  0  0
   57.3591   -3.5965  -13.9802 N   0  0  0  0  0  0  0  0  0  0  0  0
   58.0153   -2.7986  -13.8956 H   0  0  0  0  0  0  0  0  0  0  0  0
   56.0200   -5.0499  -15.4047 N   0  0  0  0  0  0  0  0  0  0  0  0
   56.7685   -3.8612  -15.2504 C   0  0  0  0  0  0  0  0  0  0  0  0
   56.9356   -3.0152  -16.2003 N   0  0  0  0  0  0  0  0  0  0  0  0
   55.0173   -5.0880  -15.1393 H   0  0  0  0  0  0  0  0  0  0  0  0
   56.4755   -5.8940  -15.7864 H   0  0  0  0  0  0  0  0  0  0  0  0
   56.5115   -3.1844  -17.1428 H   0  0  0  0  0  0  0  0  0  0  0  0
 47 48  1  0  0  0
 48 49  2  0  0  0
 48 45  1  0  0  0
 45 44  1  0  0  0
 44 43  1  0  0  0
 43 42  1  0  0  0
 42  1  1  0  0  0
  1 27  1  0  0  0
 27 28  1  0  0  0
 28 29  2  0  0  0
 28 31  1  0  0  0
 31 32  1  0  0  0
 32 33  1  0  0  0
 33 34  2  0  0  0
 34 35  1  0  0  0
 35 36  2  0  0  0
 36 37  1  0  0  0
 37 38  2  0  0  0
 38 39  1  0  0  0
 39 40  1  0  0  0
  1  2  1  0  0  0
  2  3  2  0  0  0
  2  4  1  0  0  0
  4  5  1  0  0  0
  5  6  1  0  0  0
  6  7  1  0  0  0
  7  8  1  0  0  0
  8  9  1  0  0  0
  9 10  2  0  0  0
  9 11  1  0  0  0
 11 13  1  0  0  0
 13 16  1  0  0  0
 16 17  1  0  0  0
 17 18  1  0  0  0
 18 19  1  0  0  0
 19 20  2  0  0  0
 20 21  1  0  0  0
 20 22  1  0  0  0
 13 14  1  0  0  0
 14 15  2  0  0  0
 40 31  1  0  0  0
  8  4  1  0  0  0
 38 33  1  0  0  0
 47 50  1  0  0  0
 47 51  1  0  0  0
 49 52  1  0  0  0
 45 46  1  0  0  0
 27 30  1  0  0  0
 40 41  1  0  0  0
 11 12  1  0  0  0
 21 23  1  0  0  0
 21 24  1  0  0  0
 22 25  1  0  0  0
 22 26  1  0  0  0
M  END
> <minimizedAffinity>
-6.29925

> <CNNscore>
0.2557748258

> <CNNaffinity>
6.5356454849

> <CNN_VS>
1.6716536283

> <CNNaffinity_variance>
0.3496182859

$$$$
[H]N=C(N([H])[H])N([H])C([H])([H])C([H])([H])C([H])([H])[C@@]([H])(C(=O)N1C([H])([H])C([H])([H])C([H])([H])[C@@]1([H])C(=O)N([H])[C@]([H])(C([H])=O)C([H])([H])C([H])([H])C([H])([H])N=C(N([H])[H])N([H])[H])N([H])C(=O)[C@@]1([H])N([H])C([H])([H])c2c([H])c([H])c([H])c([H])c2C1([H])[H]


 52 54  0  0  0  0  0  0  0  0999 V2000
   57.5341   -5.4434   -9.2149 C   0  0  0  0  0  0  0  0  0  0  0  0
   56.4075   -5.2792   -8.2524 C   0  0  0  0  0  0  0  0  0  0  0  0
   56.4521   -5.9908   -7.2231 O   0  0  0  0  0  0  0  0  0  0  0  0
   55.3559   -4.3611   -8.5028 N   0  0  0  0  0  0  0  0  0  0  0  0
   55.2844   -3.5051   -9.6464 C   0  0  0  0  0  0  0  0  0  0  0  0
   53.8167   -3.7828  -10.0352 C   0  0  0  0  0  0  0  0  0  0  0  0
   53.1246   -3.7088   -8.6905 C   0  0  0  0  0  0  0  0  0  0  0  0
   54.2002   -4.0597   -7.7240 C   0  0  0  0  0  0  0  0  0  0  0  0
   53.7999   -5.1126   -6.7800 C   0  0  0  0  0  0  0  0  0  0  0  0
   53.1638   -6.1016   -7.1701 O   0  0  0  0  0  0  0  0  0  0  0  0
   54.1343   -5.0112   -5.4246 N   0  0  0  0  0  0  0  0  0  0  0  0
   54.6740   -4.2156   -5.0045 H   0  0  0  0  0  0  0  0  0  0  0  0
   53.7105   -6.0774   -4.5110 C   0  0  0  0  0  0  0  0  0  0  0  0
   54.4849   -7.3138   -4.6951 C   0  0  0  0  0  0  0  0  0  0  0  0
   55.5601   -7.4783   -4.1025 O   0  0  0  0  0  0  0  0  0  0  0  0
   52.2246   -6.3451   -4.6058 C   0  0  0  0  0  0  0  0  0  0  0  0
   51.3825   -5.1742   -4.2054 C   0  0  0  0  0  0  0  0  0  0  0  0
   50.1488   -5.0287   -5.0604 C   0  0  0  0  0  0  0  0  0  0  0  0
   50.4120   -4.1004   -6.1470 N   0  0  0  0  0  0  0  0  0  0  0  0
   49.7937   -2.9762   -6.2157 C   0  0  0  0  0  0  0  0  0  0  0  0
   48.8498   -2.6427   -5.2238 N   0  0  0  0  0  0  0  0  0  0  0  0
   50.0546   -2.0727   -7.2733 N   0  0  0  0  0  0  0  0  0  0  0  0
   49.0256   -1.8424   -4.5938 H   0  0  0  0  0  0  0  0  0  0  0  0
   47.9837   -3.2016   -5.1301 H   0  0  0  0  0  0  0  0  0  0  0  0
   50.5447   -1.1713   -7.1811 H   0  0  0  0  0  0  0  0  0  0  0  0
   49.7264   -2.3304   -8.2292 H   0  0  0  0  0  0  0  0  0  0  0  0
   57.2721   -4.6634  -10.4275 N   0  0  0  0  0  0  0  0  0  0  0  0
   58.3150   -4.6853  -11.3984 C   0  0  0  0  0  0  0  0  0  0  0  0
   59.3918   -5.3429  -11.2314 O   0  0  0  0  0  0  0  0  0  0  0  0
   56.4150   -4.1345  -10.5880 H   0  0  0  0  0  0  0  0  0  0  0  0
   58.1224   -3.9059  -12.6472 C   0  0  0  0  0  0  0  0  0  0  0  0
   56.8932   -4.2716  -13.4097 C   0  0  0  0  0  0  0  0  0  0  0  0
   56.9953   -3.6618  -14.7773 C   0  0  0  0  0  0  0  0  0  0  0  0
   55.8361   -3.7109  -15.5277 C   0  0  0  0  0  0  0  0  0  0  0  0
   55.8068   -3.1859  -16.7982 C   0  0  0  0  0  0  0  0  0  0  0  0
   56.9646   -2.6193  -17.2802 C   0  0  0  0  0  0  0  0  0  0  0  0
   58.1264   -2.5610  -16.5490 C   0  0  0  0  0  0  0  0  0  0  0  0
   58.1395   -3.0954  -15.2671 C   0  0  0  0  0  0  0  0  0  0  0  0
   59.3754   -3.0368  -14.4681 C   0  0  0  0  0  0  0  0  0  0  0  0
   59.3302   -4.0244  -13.4374 N   0  0  0  0  0  0  0  0  0  0  0  0
   59.3860   -4.9847  -13.8588 H   0  0  0  0  0  0  0  0  0  0  0  0
   58.8500   -4.9918   -8.6166 C   0  0  0  0  0  0  0  0  0  0  0  0
   59.5759   -6.1481   -7.9659 C   0  0  0  0  0  0  0  0  0  0  0  0
   60.9476   -6.3511   -8.5680 C   0  0  0  0  0  0  0  0  0  0  0  0
   61.2590   -7.7442   -8.7522 N   0  0  0  0  0  0  0  0  0  0  0  0
   61.3139   -8.4355   -7.9819 H   0  0  0  0  0  0  0  0  0  0  0  0
   61.4541   -9.5756  -10.3468 N   0  0  0  0  0  0  0  0  0  0  0  0
   61.5039   -8.1878  -10.0847 C   0  0  0  0  0  0  0  0  0  0  0  0
   61.7573   -7.3164  -10.9916 N   0  0  0  0  0  0  0  0  0  0  0  0
   60.5534  -10.0480  -10.5541 H   0  0  0  0  0  0  0  0  0  0  0  0
   62.3250  -10.1295  -10.3320 H   0  0  0  0  0  0  0  0  0  0  0  0
   61.9394   -7.6150  -11.9788 H   0  0  0  0  0  0  0  0  0  0  0  0
 47 48  1  0  0  0
 48 49  2  0  0  0
 48 45  1  0  0  0
 45 44  1  0  0  0
 44 43  1  0  0  0
 43 42  1  0  0  0
 42  1  1  0  0  0
  1 27  1  0  0  0
 27 28  1  0  0  0
 28 29  2  0  0  0
 28 31  1  0  0  0
 31 32  1  0  0  0
 32 33  1  0  0  0
 33 34  2  0  0  0
 34 35  1  0  0  0
 35 36  2  0  0  0
 36 37  1  0  0  0
 37 38  2  0  0  0
 38 39  1  0  0  0
 39 40  1  0  0  0
  1  2  1  0  0  0
  2  3  2  0  0  0
  2  4  1  0  0  0
  4  5  1  0  0  0
  5  6  1  0  0  0
  6  7  1  0  0  0
  7  8  1  0  0  0
  8  9  1  0  0  0
  9 10  2  0  0  0
  9 11  1  0  0  0
 11 13  1  0  0  0
 13 16  1  0  0  0
 16 17  1  0  0  0
 17 18  1  0  0  0
 18 19  1  0  0  0
 19 20  2  0  0  0
 20 21  1  0  0  0
 20 22  1  0  0  0
 13 14  1  0  0  0
 14 15  2  0  0  0
 40 31  1  0  0  0
  8  4  1  0  0  0
 38 33  1  0  0  0
 47 50  1  0  0  0
 47 51  1  0  0  0
 49 52  1  0  0  0
 45 46  1  0  0  0
 27 30  1  0  0  0
 40 41  1  0  0  0
 11 12  1  0  0  0
 21 23  1  0  0  0
 21 24  1  0  0  0
 22 25  1  0  0  0
 22 26  1  0  0  0
M  END
> <minimizedAffinity>
-7.03227

> <CNNscore>
0.2543831766

> <CNNaffinity>
7.0285196304

> <CNN_VS>
1.7879371643

> <CNNaffinity_variance>
0.1312955469

$$$$
[H]N=C(N([H])[H])N([H])C([H])([H])C([H])([H])C([H])([H])[C@@]([H])(C(=O)N1C([H])([H])C([H])([H])C([H])([H])[C@@]1([H])C(=O)N([H])[C@]([H])(C([H])=O)C([H])([H])C([H])([H])C([H])([H])N=C(N([H])[H])N([H])[H])N([H])C(=O)[C@@]1([H])N([H])C([H])([H])c2c([H])c([H])c([H])c([H])c2C1([H])[H]


 52 54  0  0  0  0  0  0  0  0999 V2000
   54.5954   -4.8194   -8.1551 C   0  0  0  0  0  0  0  0  0  0  0  0
   55.2319   -4.2715   -9.3869 C   0  0  0  0  0  0  0  0  0  0  0  0
   54.4665   -3.7021  -10.1978 O   0  0  0  0  0  0  0  0  0  0  0  0
   56.6274   -4.3936   -9.6086 N   0  0  0  0  0  0  0  0  0  0  0  0
   57.5417   -5.0039   -8.6935 C   0  0  0  0  0  0  0  0  0  0  0  0
   58.2965   -5.8961   -9.7018 C   0  0  0  0  0  0  0  0  0  0  0  0
   58.5273   -4.9344  -10.8484 C   0  0  0  0  0  0  0  0  0  0  0  0
   57.4213   -3.9492  -10.7064 C   0  0  0  0  0  0  0  0  0  0  0  0
   56.6807   -3.7363  -11.9578 C   0  0  0  0  0  0  0  0  0  0  0  0
   55.5463   -3.2386  -11.9431 O   0  0  0  0  0  0  0  0  0  0  0  0
   57.2500   -4.0935  -13.1856 N   0  0  0  0  0  0  0  0  0  0  0  0
   58.2043   -4.5149  -13.2970 H   0  0  0  0  0  0  0  0  0  0  0  0
   56.4775   -3.8738  -14.4129 C   0  0  0  0  0  0  0  0  0  0  0  0
   56.0273   -5.1330  -15.0246 C   0  0  0  0  0  0  0  0  0  0  0  0
   56.3440   -6.2231  -14.5290 O   0  0  0  0  0  0  0  0  0  0  0  0
   57.2314   -3.0218  -15.4100 C   0  0  0  0  0  0  0  0  0  0  0  0
   58.2124   -3.7969  -16.2330 C   0  0  0  0  0  0  0  0  0  0  0  0
   59.5770   -3.1558  -16.2634 C   0  0  0  0  0  0  0  0  0  0  0  0
   60.5374   -4.0148  -15.5917 N   0  0  0  0  0  0  0  0  0  0  0  0
   61.0412   -3.6778  -14.4588 C   0  0  0  0  0  0  0  0  0  0  0  0
   60.6556   -2.4600  -13.8636 N   0  0  0  0  0  0  0  0  0  0  0  0
   61.9739   -4.5180  -13.8052 N   0  0  0  0  0  0  0  0  0  0  0  0
   60.1352   -2.4653  -12.9705 H   0  0  0  0  0  0  0  0  0  0  0  0
   60.8950   -1.5645  -14.3240 H   0  0  0  0  0  0  0  0  0  0  0  0
   61.7935   -5.0540  -12.9441 H   0  0  0  0  0  0  0  0  0  0  0  0
   62.9263   -4.6081  -14.2206 H   0  0  0  0  0  0  0  0  0  0  0  0
   55.5031   -4.6678   -7.0147 N   0  0  0  0  0  0  0  0  0  0  0  0
   55.5017   -5.7534   -6.0915 C   0  0  0  0  0  0  0  0  0  0  0  0
   54.7740   -6.7855   -6.2499 O   0  0  0  0  0  0  0  0  0  0  0  0
   56.1012   -3.8546   -6.8694 H   0  0  0  0  0  0  0  0  0  0  0  0
   56.3887   -5.6613   -4.9046 C   0  0  0  0  0  0  0  0  0  0  0  0
   57.0563   -6.9456   -4.5424 C   0  0  0  0  0  0  0  0  0  0  0  0
   57.6412   -6.7946   -3.1685 C   0  0  0  0  0  0  0  0  0  0  0  0
   58.4915   -7.8121   -2.7797 C   0  0  0  0  0  0  0  0  0  0  0  0
   59.0873   -7.7859   -1.5407 C   0  0  0  0  0  0  0  0  0  0  0  0
   58.8029   -6.7188   -0.7196 C   0  0  0  0  0  0  0  0  0  0  0  0
   57.9605   -5.6980   -1.0887 C   0  0  0  0  0  0  0  0  0  0  0  0
   57.3670   -5.7390   -2.3437 C   0  0  0  0  0  0  0  0  0  0  0  0
   56.4652   -4.6503   -2.7569 C   0  0  0  0  0  0  0  0  0  0  0  0
   55.6176   -5.1015   -3.8141 N   0  0  0  0  0  0  0  0  0  0  0  0
   54.9433   -5.8198   -3.4507 H   0  0  0  0  0  0  0  0  0  0  0  0
   53.2915   -4.1163   -7.8403 C   0  0  0  0  0  0  0  0  0  0  0  0
   52.1962   -5.1140   -7.5367 C   0  0  0  0  0  0  0  0  0  0  0  0
   51.4364   -4.7394   -6.2846 C   0  0  0  0  0  0  0  0  0  0  0  0
   50.0773   -4.3592   -6.5675 N   0  0  0  0  0  0  0  0  0  0  0  0
   49.3380   -5.0206   -6.8679 H   0  0  0  0  0  0  0  0  0  0  0  0
   50.2082   -2.0709   -7.3933 N   0  0  0  0  0  0  0  0  0  0  0  0
   49.7403   -2.9820   -6.4194 C   0  0  0  0  0  0  0  0  0  0  0  0
   49.0277   -2.6225   -5.4149 N   0  0  0  0  0  0  0  0  0  0  0  0
   49.6814   -1.9127   -8.2735 H   0  0  0  0  0  0  0  0  0  0  0  0
   51.0868   -1.5547   -7.2289 H   0  0  0  0  0  0  0  0  0  0  0  0
   48.7646   -1.6174   -5.2830 H   0  0  0  0  0  0  0  0  0  0  0  0
 47 48  1  0  0  0
 48 49  2  0  0  0
 48 45  1  0  0  0
 45 44  1  0  0  0
 44 43  1  0  0  0
 43 42  1  0  0  0
 42  1  1  0  0  0
  1 27  1  0  0  0
 27 28  1  0  0  0
 28 29  2  0  0  0
 28 31  1  0  0  0
 31 32  1  0  0  0
 32 33  1  0  0  0
 33 34  2  0  0  0
 34 35  1  0  0  0
 35 36  2  0  0  0
 36 37  1  0  0  0
 37 38  2  0  0  0
 38 39  1  0  0  0
 39 40  1  0  0  0
  1  2  1  0  0  0
  2  3  2  0  0  0
  2  4  1  0  0  0
  4  5  1  0  0  0
  5  6  1  0  0  0
  6  7  1  0  0  0
  7  8  1  0  0  0
  8  9  1  0  0  0
  9 10  2  0  0  0
  9 11  1  0  0  0
 11 13  1  0  0  0
 13 16  1  0  0  0
 16 17  1  0  0  0
 17 18  1  0  0  0
 18 19  1  0  0  0
 19 20  2  0  0  0
 20 21  1  0  0  0
 20 22  1  0  0  0
 13 14  1  0  0  0
 14 15  2  0  0  0
 40 31  1  0  0  0
  8  4  1  0  0  0
 38 33  1  0  0  0
 47 50  1  0  0  0
 47 51  1  0  0  0
 49 52  1  0  0  0
 45 46  1  0  0  0
 27 30  1  0  0  0
 40 41  1  0  0  0
 11 12  1  0  0  0
 21 23  1  0  0  0
 21 24  1  0  0  0
 22 25  1  0  0  0
 22 26  1  0  0  0
M  END
> <minimizedAffinity>
-7.38764

> <CNNscore>
0.2524624169

> <CNNaffinity>
6.8197035789

> <CNN_VS>
1.7217189074

> <CNNaffinity_variance>
0.1275509149

$$$$
[H]N=C(N([H])[H])N([H])C([H])([H])C([H])([H])C([H])([H])[C@@]([H])(C(=O)N1C([H])([H])C([H])([H])C([H])([H])[C@@]1([H])C(=O)N([H])[C@]([H])(C([H])=O)C([H])([H])C([H])([H])C([H])([H])N=C(N([H])[H])N([H])[H])N([H])C(=O)[C@@]1([H])N([H])C([H])([H])c2c([H])c([H])c([H])c([H])c2C1([H])[H]


 52 54  0  0  0  0  0  0  0  0999 V2000
   54.2162   -4.0707   -8.9614 C   0  0  0  0  0  0  0  0  0  0  0  0
   55.3113   -3.9770   -9.9688 C   0  0  0  0  0  0  0  0  0  0  0  0
   54.9679   -3.6586  -11.1300 O   0  0  0  0  0  0  0  0  0  0  0  0
   56.6601   -4.2329   -9.6129 N   0  0  0  0  0  0  0  0  0  0  0  0
   57.0996   -4.5643   -8.2927 C   0  0  0  0  0  0  0  0  0  0  0  0
   57.9946   -5.7680   -8.6566 C   0  0  0  0  0  0  0  0  0  0  0  0
   58.7521   -5.2352   -9.8545 C   0  0  0  0  0  0  0  0  0  0  0  0
   57.8390   -4.2022  -10.4143 C   0  0  0  0  0  0  0  0  0  0  0  0
   57.6093   -4.3631  -11.8570 C   0  0  0  0  0  0  0  0  0  0  0  0
   57.4897   -5.4910  -12.3552 O   0  0  0  0  0  0  0  0  0  0  0  0
   57.5217   -3.2403  -12.6882 N   0  0  0  0  0  0  0  0  0  0  0  0
   57.6048   -2.2485  -12.3565 H   0  0  0  0  0  0  0  0  0  0  0  0
   57.3001   -3.4403  -14.1242 C   0  0  0  0  0  0  0  0  0  0  0  0
   56.3006   -4.4840  -14.3969 C   0  0  0  0  0  0  0  0  0  0  0  0
   56.3950   -5.1994  -15.4037 O   0  0  0  0  0  0  0  0  0  0  0  0
   58.5917   -3.7156  -14.8621 C   0  0  0  0  0  0  0  0  0  0  0  0
   59.7915   -3.1022  -14.2103 C   0  0  0  0  0  0  0  0  0  0  0  0
   61.0452   -3.2686  -15.0317 C   0  0  0  0  0  0  0  0  0  0  0  0
   61.9980   -2.2264  -14.6889 N   0  0  0  0  0  0  0  0  0  0  0  0
   63.1500   -2.5227  -14.2032 C   0  0  0  0  0  0  0  0  0  0  0  0
   63.4902   -3.8753  -14.0019 N   0  0  0  0  0  0  0  0  0  0  0  0
   64.0772   -1.5056  -13.8734 N   0  0  0  0  0  0  0  0  0  0  0  0
   64.2598   -4.2994  -14.5463 H   0  0  0  0  0  0  0  0  0  0  0  0
   62.9672   -4.4391  -13.3092 H   0  0  0  0  0  0  0  0  0  0  0  0
   64.9525   -1.3087  -14.3798 H   0  0  0  0  0  0  0  0  0  0  0  0
   63.8675   -0.9004  -13.0503 H   0  0  0  0  0  0  0  0  0  0  0  0
   54.7845   -4.2331   -7.6204 N   0  0  0  0  0  0  0  0  0  0  0  0
   54.2527   -5.3182   -6.8651 C   0  0  0  0  0  0  0  0  0  0  0  0
   53.3573   -6.0976   -7.3240 O   0  0  0  0  0  0  0  0  0  0  0  0
   55.5072   -3.6269   -7.2330 H   0  0  0  0  0  0  0  0  0  0  0  0
   54.7737   -5.5341   -5.4918 C   0  0  0  0  0  0  0  0  0  0  0  0
   55.8887   -6.5224   -5.4121 C   0  0  0  0  0  0  0  0  0  0  0  0
   56.0877   -6.8839   -3.9691 C   0  0  0  0  0  0  0  0  0  0  0  0
   57.2323   -7.6100   -3.7005 C   0  0  0  0  0  0  0  0  0  0  0  0
   57.5223   -8.0016   -2.4147 C   0  0  0  0  0  0  0  0  0  0  0  0
   56.6360   -7.6439   -1.4246 C   0  0  0  0  0  0  0  0  0  0  0  0
   55.4933   -6.9221   -1.6723 C   0  0  0  0  0  0  0  0  0  0  0  0
   55.2150   -6.5338   -2.9764 C   0  0  0  0  0  0  0  0  0  0  0  0
   53.9967   -5.7556   -3.2584 C   0  0  0  0  0  0  0  0  0  0  0  0
   53.6548   -5.8790   -4.6396 N   0  0  0  0  0  0  0  0  0  0  0  0
   53.3415   -6.8602   -4.8446 H   0  0  0  0  0  0  0  0  0  0  0  0
   53.3377   -2.8373   -8.9753 C   0  0  0  0  0  0  0  0  0  0  0  0
   51.8755   -3.2110   -8.8769 C   0  0  0  0  0  0  0  0  0  0  0  0
   51.3093   -2.8809   -7.5146 C   0  0  0  0  0  0  0  0  0  0  0  0
   50.1903   -3.7196   -7.1740 N   0  0  0  0  0  0  0  0  0  0  0  0
   49.2160   -3.5440   -7.4811 H   0  0  0  0  0  0  0  0  0  0  0  0
   50.3667   -6.1399   -6.9604 N   0  0  0  0  0  0  0  0  0  0  0  0
   50.4536   -4.8621   -6.3631 C   0  0  0  0  0  0  0  0  0  0  0  0
   50.7596   -4.6895   -5.1292 N   0  0  0  0  0  0  0  0  0  0  0  0
   51.1741   -6.5475   -7.4698 H   0  0  0  0  0  0  0  0  0  0  0  0
   49.4882   -6.6774   -6.8907 H   0  0  0  0  0  0  0  0  0  0  0  0
   50.9593   -5.5114   -4.5116 H   0  0  0  0  0  0  0  0  0  0  0  0
 47 48  1  0  0  0
 48 49  2  0  0  0
 48 45  1  0  0  0
 45 44  1  0  0  0
 44 43  1  0  0  0
 43 42  1  0  0  0
 42  1  1  0  0  0
  1 27  1  0  0  0
 27 28  1  0  0  0
 28 29  2  0  0  0
 28 31  1  0  0  0
 31 32  1  0  0  0
 32 33  1  0  0  0
 33 34  2  0  0  0
 34 35  1  0  0  0
 35 36  2  0  0  0
 36 37  1  0  0  0
 37 38  2  0  0  0
 38 39  1  0  0  0
 39 40  1  0  0  0
  1  2  1  0  0  0
  2  3  2  0  0  0
  2  4  1  0  0  0
  4  5  1  0  0  0
  5  6  1  0  0  0
  6  7  1  0  0  0
  7  8  1  0  0  0
  8  9  1  0  0  0
  9 10  2  0  0  0
  9 11  1  0  0  0
 11 13  1  0  0  0
 13 16  1  0  0  0
 16 17  1  0  0  0
 17 18  1  0  0  0
 18 19  1  0  0  0
 19 20  2  0  0  0
 20 21  1  0  0  0
 20 22  1  0  0  0
 13 14  1  0  0  0
 14 15  2  0  0  0
 40 31  1  0  0  0
  8  4  1  0  0  0
 38 33  1  0  0  0
 47 50  1  0  0  0
 47 51  1  0  0  0
 49 52  1  0  0  0
 45 46  1  0  0  0
 27 30  1  0  0  0
 40 41  1  0  0  0
 11 12  1  0  0  0
 21 23  1  0  0  0
 21 24  1  0  0  0
 22 25  1  0  0  0
 22 26  1  0  0  0
M  END
> <minimizedAffinity>
-6.58626

> <CNNscore>
0.2378391773

> <CNNaffinity>
6.8250284195

> <CNN_VS>
1.6232591867

> <CNNaffinity_variance>
0.2958524525

$$$$
[H]N=C(N([H])[H])N([H])C([H])([H])C([H])([H])C([H])([H])[C@@]([H])(C(=O)N1C([H])([H])C([H])([H])C([H])([H])[C@@]1([H])C(=O)N([H])[C@]([H])(C([H])=O)C([H])([H])C([H])([H])C([H])([H])N=C(N([H])[H])N([H])[H])N([H])C(=O)[C@@]1([H])N([H])C([H])([H])c2c([H])c([H])c([H])c([H])c2C1([H])[H]


 52 54  0  0  0  0  0  0  0  0999 V2000
   54.0409   -4.0318   -8.9051 C   0  0  0  0  0  0  0  0  0  0  0  0
   55.2525   -4.0478   -9.7738 C   0  0  0  0  0  0  0  0  0  0  0  0
   55.0558   -3.8822  -10.9992 O   0  0  0  0  0  0  0  0  0  0  0  0
   56.5466   -4.2365   -9.2252 N   0  0  0  0  0  0  0  0  0  0  0  0
   56.8189   -4.3935   -7.8298 C   0  0  0  0  0  0  0  0  0  0  0  0
   57.7518   -5.6194   -7.9263 C   0  0  0  0  0  0  0  0  0  0  0  0
   58.6522   -5.2287   -9.0794 C   0  0  0  0  0  0  0  0  0  0  0  0
   57.8159   -4.2880   -9.8728 C   0  0  0  0  0  0  0  0  0  0  0  0
   57.7668   -4.6313  -11.3010 C   0  0  0  0  0  0  0  0  0  0  0  0
   57.5664   -5.7990  -11.6630 O   0  0  0  0  0  0  0  0  0  0  0  0
   57.9457   -3.6399  -12.2727 N   0  0  0  0  0  0  0  0  0  0  0  0
   58.1149   -2.6261  -12.0621 H   0  0  0  0  0  0  0  0  0  0  0  0
   57.8984   -4.0216  -13.6881 C   0  0  0  0  0  0  0  0  0  0  0  0
   58.6024   -3.0615  -14.5512 C   0  0  0  0  0  0  0  0  0  0  0  0
   59.7550   -3.2924  -14.9418 O   0  0  0  0  0  0  0  0  0  0  0  0
   56.4807   -4.2468  -14.1654 C   0  0  0  0  0  0  0  0  0  0  0  0
   56.0121   -3.2164  -15.1449 C   0  0  0  0  0  0  0  0  0  0  0  0
   56.6430   -3.3809  -16.5047 C   0  0  0  0  0  0  0  0  0  0  0  0
   56.7791   -4.7941  -16.8144 N   0  0  0  0  0  0  0  0  0  0  0  0
   57.8523   -5.2481  -17.3557 C   0  0  0  0  0  0  0  0  0  0  0  0
   58.9078   -4.3623  -17.6512 N   0  0  0  0  0  0  0  0  0  0  0  0
   57.9834   -6.6256  -17.6531 N   0  0  0  0  0  0  0  0  0  0  0  0
   59.8123   -4.4569  -17.1600 H   0  0  0  0  0  0  0  0  0  0  0  0
   58.7724   -3.6197  -18.3593 H   0  0  0  0  0  0  0  0  0  0  0  0
   58.6066   -7.2849  -17.1651 H   0  0  0  0  0  0  0  0  0  0  0  0
   57.4070   -7.0154  -18.4300 H   0  0  0  0  0  0  0  0  0  0  0  0
   54.4193   -4.3043   -7.5159 N   0  0  0  0  0  0  0  0  0  0  0  0
   53.6334   -5.2941   -6.8575 C   0  0  0  0  0  0  0  0  0  0  0  0
   52.6789   -5.9061   -7.4357 O   0  0  0  0  0  0  0  0  0  0  0  0
   55.1841   -3.8331   -7.0330 H   0  0  0  0  0  0  0  0  0  0  0  0
   53.9532   -5.6119   -5.4430 C   0  0  0  0  0  0  0  0  0  0  0  0
   55.1375   -6.5032   -5.2720 C   0  0  0  0  0  0  0  0  0  0  0  0
   55.1449   -7.0005   -3.8560 C   0  0  0  0  0  0  0  0  0  0  0  0
   56.3020   -7.6500   -3.4702 C   0  0  0  0  0  0  0  0  0  0  0  0
   56.4264   -8.1522   -2.1963 C   0  0  0  0  0  0  0  0  0  0  0  0
   55.3645   -7.9817   -1.3377 C   0  0  0  0  0  0  0  0  0  0  0  0
   54.2065   -7.3386   -1.7031 C   0  0  0  0  0  0  0  0  0  0  0  0
   54.0967   -6.8366   -2.9934 C   0  0  0  0  0  0  0  0  0  0  0  0
   52.8640   -6.1404   -3.3997 C   0  0  0  0  0  0  0  0  0  0  0  0
   52.7564   -6.1424   -4.8238 N   0  0  0  0  0  0  0  0  0  0  0  0
   52.5813   -7.1189   -5.1683 H   0  0  0  0  0  0  0  0  0  0  0  0
   53.3278   -2.6971   -8.9659 C   0  0  0  0  0  0  0  0  0  0  0  0
   51.8309   -2.8855   -9.0708 C   0  0  0  0  0  0  0  0  0  0  0  0
   51.1279   -2.4571   -7.8029 C   0  0  0  0  0  0  0  0  0  0  0  0
   51.1509   -3.4847   -6.7954 N   0  0  0  0  0  0  0  0  0  0  0  0
   51.9075   -4.1862   -6.6961 H   0  0  0  0  0  0  0  0  0  0  0  0
   49.9919   -4.6041   -4.9682 N   0  0  0  0  0  0  0  0  0  0  0  0
   50.0577   -3.5277   -5.8815 C   0  0  0  0  0  0  0  0  0  0  0  0
   49.1801   -2.5926   -5.9202 N   0  0  0  0  0  0  0  0  0  0  0  0
   50.5028   -4.5705   -4.0653 H   0  0  0  0  0  0  0  0  0  0  0  0
   49.4285   -5.4372   -5.2008 H   0  0  0  0  0  0  0  0  0  0  0  0
   48.3678   -2.5991   -5.2591 H   0  0  0  0  0  0  0  0  0  0  0  0
 47 48  1  0  0  0
 48 49  2  0  0  0
 48 45  1  0  0  0
 45 44  1  0  0  0
 44 43  1  0  0  0
 43 42  1  0  0  0
 42  1  1  0  0  0
  1 27  1  0  0  0
 27 28  1  0  0  0
 28 29  2  0  0  0
 28 31  1  0  0  0
 31 32  1  0  0  0
 32 33  1  0  0  0
 33 34  2  0  0  0
 34 35  1  0  0  0
 35 36  2  0  0  0
 36 37  1  0  0  0
 37 38  2  0  0  0
 38 39  1  0  0  0
 39 40  1  0  0  0
  1  2  1  0  0  0
  2  3  2  0  0  0
  2  4  1  0  0  0
  4  5  1  0  0  0
  5  6  1  0  0  0
  6  7  1  0  0  0
  7  8  1  0  0  0
  8  9  1  0  0  0
  9 10  2  0  0  0
  9 11  1  0  0  0
 11 13  1  0  0  0
 13 16  1  0  0  0
 16 17  1  0  0  0
 17 18  1  0  0  0
 18 19  1  0  0  0
 19 20  2  0  0  0
 20 21  1  0  0  0
 20 22  1  0  0  0
 13 14  1  0  0  0
 14 15  2  0  0  0
 40 31  1  0  0  0
  8  4  1  0  0  0
 38 33  1  0  0  0
 47 50  1  0  0  0
 47 51  1  0  0  0
 49 52  1  0  0  0
 45 46  1  0  0  0
 27 30  1  0  0  0
 40 41  1  0  0  0
 11 12  1  0  0  0
 21 23  1  0  0  0
 21 24  1  0  0  0
 22 25  1  0  0  0
 22 26  1  0  0  0
M  END
> <minimizedAffinity>
-6.36246

> <CNNscore>
0.2202245891

> <CNNaffinity>
6.9349274635

> <CNN_VS>
1.5272415876

> <CNNaffinity_variance>
0.2765579522

$$$$
[H]N=C(N([H])[H])N([H])C([H])([H])C([H])([H])C([H])([H])[C@@]([H])(C(=O)N1C([H])([H])C([H])([H])C([H])([H])[C@@]1([H])C(=O)N([H])[C@]([H])(C([H])=O)C([H])([H])C([H])([H])C([H])([H])N=C(N([H])[H])N([H])[H])N([H])C(=O)[C@@]1([H])N([H])C([H])([H])c2c([H])c([H])c([H])c([H])c2C1([H])[H]


 52 54  0  0  0  0  0  0  0  0999 V2000
   55.4224   -4.7144   -7.9655 C   0  0  0  0  0  0  0  0  0  0  0  0
   53.9688   -5.0061   -7.8086 C   0  0  0  0  0  0  0  0  0  0  0  0
   53.1916   -4.3488   -8.5377 O   0  0  0  0  0  0  0  0  0  0  0  0
   53.5109   -5.9796   -6.8844 N   0  0  0  0  0  0  0  0  0  0  0  0
   54.3651   -6.7766   -6.0592 C   0  0  0  0  0  0  0  0  0  0  0  0
   53.6213   -6.5799   -4.7212 C   0  0  0  0  0  0  0  0  0  0  0  0
   52.1793   -6.7722   -5.1415 C   0  0  0  0  0  0  0  0  0  0  0  0
   52.1825   -6.4003   -6.5822 C   0  0  0  0  0  0  0  0  0  0  0  0
   51.1342   -5.4287   -6.9245 C   0  0  0  0  0  0  0  0  0  0  0  0
   50.2470   -5.7182   -7.7393 O   0  0  0  0  0  0  0  0  0  0  0  0
   51.1248   -4.1608   -6.3316 N   0  0  0  0  0  0  0  0  0  0  0  0
   51.8296   -3.8291   -5.6289 H   0  0  0  0  0  0  0  0  0  0  0  0
   50.0676   -3.2149   -6.7042 C   0  0  0  0  0  0  0  0  0  0  0  0
   50.5963   -2.0231   -7.3843 C   0  0  0  0  0  0  0  0  0  0  0  0
   51.5625   -2.1132   -8.1541 O   0  0  0  0  0  0  0  0  0  0  0  0
   49.2097   -2.8310   -5.5188 C   0  0  0  0  0  0  0  0  0  0  0  0
   48.8863   -3.9838   -4.6204 C   0  0  0  0  0  0  0  0  0  0  0  0
   49.8082   -4.0664   -3.4298 C   0  0  0  0  0  0  0  0  0  0  0  0
   49.7962   -5.4167   -2.8931 N   0  0  0  0  0  0  0  0  0  0  0  0
   50.7562   -5.8375   -2.1500 C   0  0  0  0  0  0  0  0  0  0  0  0
   51.8319   -4.9765   -1.8540 N   0  0  0  0  0  0  0  0  0  0  0  0
   50.7401   -7.1520   -1.6259 N   0  0  0  0  0  0  0  0  0  0  0  0
   51.9923   -4.6685   -0.8804 H   0  0  0  0  0  0  0  0  0  0  0  0
   52.4573   -4.6557   -2.6137 H   0  0  0  0  0  0  0  0  0  0  0  0
   50.5990   -7.3981   -0.6355 H   0  0  0  0  0  0  0  0  0  0  0  0
   50.8836   -7.9447   -2.2884 H   0  0  0  0  0  0  0  0  0  0  0  0
   55.6759   -4.1394   -9.2894 N   0  0  0  0  0  0  0  0  0  0  0  0
   56.9087   -4.5256   -9.8910 C   0  0  0  0  0  0  0  0  0  0  0  0
   57.7263   -5.3207   -9.3262 O   0  0  0  0  0  0  0  0  0  0  0  0
   55.0337   -3.5064   -9.7657 H   0  0  0  0  0  0  0  0  0  0  0  0
   57.2368   -3.9702  -11.2281 C   0  0  0  0  0  0  0  0  0  0  0  0
   56.1771   -4.1896  -12.2553 C   0  0  0  0  0  0  0  0  0  0  0  0
   56.7644   -3.8842  -13.6023 C   0  0  0  0  0  0  0  0  0  0  0  0
   55.8506   -3.8138  -14.6364 C   0  0  0  0  0  0  0  0  0  0  0  0
   56.2693   -3.5423  -15.9177 C   0  0  0  0  0  0  0  0  0  0  0  0
   57.6166   -3.3474  -16.1198 C   0  0  0  0  0  0  0  0  0  0  0  0
   58.5398   -3.4131  -15.1043 C   0  0  0  0  0  0  0  0  0  0  0  0
   58.1007   -3.6878  -13.8156 C   0  0  0  0  0  0  0  0  0  0  0  0
   59.0767   -3.7571  -12.7148 C   0  0  0  0  0  0  0  0  0  0  0  0
   58.5244   -4.4996  -11.6269 N   0  0  0  0  0  0  0  0  0  0  0  0
   58.4250   -5.5096  -11.8967 H   0  0  0  0  0  0  0  0  0  0  0  0
   55.9151   -3.7477   -6.9089 C   0  0  0  0  0  0  0  0  0  0  0  0
   56.5546   -4.4854   -5.7539 C   0  0  0  0  0  0  0  0  0  0  0  0
   56.0123   -4.0112   -4.4248 C   0  0  0  0  0  0  0  0  0  0  0  0
   56.6945   -4.6181   -3.3123 N   0  0  0  0  0  0  0  0  0  0  0  0
   57.7203   -4.5819   -3.1680 H   0  0  0  0  0  0  0  0  0  0  0  0
   56.2591   -6.6299   -2.0093 N   0  0  0  0  0  0  0  0  0  0  0  0
   55.8958   -5.3086   -2.3545 C   0  0  0  0  0  0  0  0  0  0  0  0
   54.8839   -4.7083   -1.8428 N   0  0  0  0  0  0  0  0  0  0  0  0
   56.9681   -6.8142   -1.2740 H   0  0  0  0  0  0  0  0  0  0  0  0
   55.8143   -7.4249   -2.4947 H   0  0  0  0  0  0  0  0  0  0  0  0
   54.2811   -5.1919   -1.1359 H   0  0  0  0  0  0  0  0  0  0  0  0
 47 48  1  0  0  0
 48 49  2  0  0  0
 48 45  1  0  0  0
 45 44  1  0  0  0
 44 43  1  0  0  0
 43 42  1  0  0  0
 42  1  1  0  0  0
  1 27  1  0  0  0
 27 28  1  0  0  0
 28 29  2  0  0  0
 28 31  1  0  0  0
 31 32  1  0  0  0
 32 33  1  0  0  0
 33 34  2  0  0  0
 34 35  1  0  0  0
 35 36  2  0  0  0
 36 37  1  0  0  0
 37 38  2  0  0  0
 38 39  1  0  0  0
 39 40  1  0  0  0
  1  2  1  0  0  0
  2  3  2  0  0  0
  2  4  1  0  0  0
  4  5  1  0  0  0
  5  6  1  0  0  0
  6  7  1  0  0  0
  7  8  1  0  0  0
  8  9  1  0  0  0
  9 10  2  0  0  0
  9 11  1  0  0  0
 11 13  1  0  0  0
 13 16  1  0  0  0
 16 17  1  0  0  0
 17 18  1  0  0  0
 18 19  1  0  0  0
 19 20  2  0  0  0
 20 21  1  0  0  0
 20 22  1  0  0  0
 13 14  1  0  0  0
 14 15  2  0  0  0
 40 31  1  0  0  0
  8  4  1  0  0  0
 38 33  1  0  0  0
 47 50  1  0  0  0
 47 51  1  0  0  0
 49 52  1  0  0  0
 45 46  1  0  0  0
 27 30  1  0  0  0
 40 41  1  0  0  0
 11 12  1  0  0  0
 21 23  1  0  0  0
 21 24  1  0  0  0
 22 25  1  0  0  0
 22 26  1  0  0  0
M  END
> <minimizedAffinity>
-7.30518

> <CNNscore>
0.2075788379

> <CNNaffinity>
7.1055116653

> <CNN_VS>
1.4749538898

> <CNNaffinity_variance>
0.3555213213

$$$$
[H]c1c([H])c([H])c2c(c1[H])c1c3c(c4c5c([H])c([H])c([H])c([H])c5n5c4c1n2[C@]1([H])O[C@]5(C([H])([H])[H])[C@@]([H])(OC([H])([H])[H])[C@]([H])(N([H])C([H])([H])[H])C1([H])[H])C([H])([H])N([H])C3=O


 37 44  0  0  0  0  0  0  0  0999 V2000
   56.8186   -7.7931   -3.6971 C   0  0  0  0  0  0  0  0  0  0  0  0
   57.3820   -6.9690   -4.8997 C   0  0  0  0  0  0  0  0  0  0  0  0
   56.2765   -6.2360   -5.2642 C   0  0  0  0  0  0  0  0  0  0  0  0
   55.9860   -5.4587   -4.1543 O   0  0  0  0  0  0  0  0  0  0  0  0
   54.8869   -6.1165   -3.5167 C   0  0  0  0  0  0  0  0  0  0  0  0
   54.8365   -5.3505   -2.1660 C   0  0  0  0  0  0  0  0  0  0  0  0
   55.3455   -7.4758   -3.3742 C   0  0  0  0  0  0  0  0  0  0  0  0
   53.7009   -5.7219   -4.2324 N   0  0  0  0  0  0  0  0  0  0  0  0
   52.4418   -5.6247   -3.6991 C   0  0  0  0  0  0  0  0  0  0  0  0
   51.9020   -5.9800   -2.4961 C   0  0  0  0  0  0  0  0  0  0  0  0
   50.5531   -5.7639   -2.2392 C   0  0  0  0  0  0  0  0  0  0  0  0
   49.7194   -5.1913   -3.1755 C   0  0  0  0  0  0  0  0  0  0  0  0
   50.2429   -4.8226   -4.4048 C   0  0  0  0  0  0  0  0  0  0  0  0
   51.5722   -5.0532   -4.6142 C   0  0  0  0  0  0  0  0  0  0  0  0
   52.3132   -4.7998   -5.7348 C   0  0  0  0  0  0  0  0  0  0  0  0
   52.0799   -4.2258   -6.9759 C   0  0  0  0  0  0  0  0  0  0  0  0
   50.8003   -3.6853   -7.5023 C   0  0  0  0  0  0  0  0  0  0  0  0
   51.1128   -3.2286   -8.8270 N   0  0  0  0  0  0  0  0  0  0  0  0
   52.5110   -3.4504   -9.1169 C   0  0  0  0  0  0  0  0  0  0  0  0
   52.9676   -3.1087  -10.2182 O   0  0  0  0  0  0  0  0  0  0  0  0
   53.0589   -4.0681   -7.9413 C   0  0  0  0  0  0  0  0  0  0  0  0
   54.3505   -4.5009   -7.6847 C   0  0  0  0  0  0  0  0  0  0  0  0
   55.5216   -4.5717   -8.3699 C   0  0  0  0  0  0  0  0  0  0  0  0
   55.9159   -4.1725   -9.6100 C   0  0  0  0  0  0  0  0  0  0  0  0
   57.2506   -4.4251   -9.9758 C   0  0  0  0  0  0  0  0  0  0  0  0
   58.1436   -5.0476   -9.1361 C   0  0  0  0  0  0  0  0  0  0  0  0
   57.7323   -5.4498   -7.8757 C   0  0  0  0  0  0  0  0  0  0  0  0
   56.4178   -5.1945   -7.5318 C   0  0  0  0  0  0  0  0  0  0  0  0
   55.8527   -5.5008   -6.3806 N   0  0  0  0  0  0  0  0  0  0  0  0
   54.5614   -5.0680   -6.4479 C   0  0  0  0  0  0  0  0  0  0  0  0
   53.5664   -5.2138   -5.4757 C   0  0  0  0  0  0  0  0  0  0  0  0
   50.3977   -2.8046   -9.4558 H   0  0  0  0  0  0  0  0  0  0  0  0
   57.5023   -8.9077   -1.7659 C   0  0  0  0  0  0  0  0  0  0  0  0
   57.6884   -7.7256   -2.5799 N   0  0  0  0  0  0  0  0  0  0  0  0
   57.4727   -6.9042   -2.0085 H   0  0  0  0  0  0  0  0  0  0  0  0
   54.4876   -8.5100   -3.7684 O   0  0  0  0  0  0  0  0  0  0  0  0
   53.7009   -9.0061   -2.7360 C   0  0  0  0  0  0  0  0  0  0  0  0
 33 34  1  0  0  0
 34  1  1  0  0  0
  1  2  1  0  0  0
  2  3  1  0  0  0
  3  4  1  0  0  0
  4  5  1  0  0  0
  5  6  1  0  0  0
  5  7  1  0  0  0
  7 36  1  0  0  0
 36 37  1  0  0  0
  5  8  1  0  0  0
  8  9  1  0  0  0
  9 10  2  0  0  0
 10 11  1  0  0  0
 11 12  2  0  0  0
 12 13  1  0  0  0
 13 14  2  0  0  0
 14 15  1  0  0  0
 15 16  2  0  0  0
 16 17  1  0  0  0
 17 18  1  0  0  0
 18 19  1  0  0  0
 19 20  2  0  0  0
 19 21  1  0  0  0
 21 22  2  0  0  0
 22 23  1  0  0  0
 23 24  2  0  0  0
 24 25  1  0  0  0
 25 26  2  0  0  0
 26 27  1  0  0  0
 27 28  2  0  0  0
 28 29  1  0  0  0
 29 30  1  0  0  0
 30 31  2  0  0  0
  7  1  1  0  0  0
 31  8  1  0  0  0
 29  3  1  0  0  0
 14  9  1  0  0  0
 31 15  1  0  0  0
 21 16  1  0  0  0
 30 22  1  0  0  0
 28 23  1  0  0  0
 34 35  1  0  0  0
 18 32  1  0  0  0
M  END
> <minimizedAffinity>
-10.58477

> <CNNscore>
0.5766406655

> <CNNaffinity>
7.1035957336

> <CNN_VS>
4.0962224007

> <CNNaffinity_variance>
0.1646009833

$$$$
[H]c1c([H])c([H])c2c(c1[H])c1c3c(c4c5c([H])c([H])c([H])c([H])c5n5c4c1n2[C@]1([H])O[C@]5(C([H])([H])[H])[C@@]([H])(OC([H])([H])[H])[C@]([H])(N([H])C([H])([H])[H])C1([H])[H])C([H])([H])N([H])C3=O


 37 44  0  0  0  0  0  0  0  0999 V2000
   54.9655   -6.7849   -2.2374 C   0  0  0  0  0  0  0  0  0  0  0  0
   53.4090   -6.6656   -2.3147 C   0  0  0  0  0  0  0  0  0  0  0  0
   53.2407   -6.1654   -3.5849 C   0  0  0  0  0  0  0  0  0  0  0  0
   53.7585   -7.1418   -4.4209 O   0  0  0  0  0  0  0  0  0  0  0  0
   55.0528   -6.6616   -4.7971 C   0  0  0  0  0  0  0  0  0  0  0  0
   55.6454   -7.9289   -5.4729 C   0  0  0  0  0  0  0  0  0  0  0  0
   55.6774   -6.3546   -3.5347 C   0  0  0  0  0  0  0  0  0  0  0  0
   54.8456   -5.7138   -5.8616 N   0  0  0  0  0  0  0  0  0  0  0  0
   55.7330   -5.4385   -6.8695 C   0  0  0  0  0  0  0  0  0  0  0  0
   57.0301   -5.7968   -7.1020 C   0  0  0  0  0  0  0  0  0  0  0  0
   57.6935   -5.3405   -8.2350 C   0  0  0  0  0  0  0  0  0  0  0  0
   57.0772   -4.5195   -9.1547 C   0  0  0  0  0  0  0  0  0  0  0  0
   55.7612   -4.1407   -8.9411 C   0  0  0  0  0  0  0  0  0  0  0  0
   55.1484   -4.6120   -7.8157 C   0  0  0  0  0  0  0  0  0  0  0  0
   53.8768   -4.3708   -7.3752 C   0  0  0  0  0  0  0  0  0  0  0  0
   52.7754   -3.6695   -7.8437 C   0  0  0  0  0  0  0  0  0  0  0  0
   52.6687   -2.8705   -9.0914 C   0  0  0  0  0  0  0  0  0  0  0  0
   51.3295   -2.3535   -9.0821 N   0  0  0  0  0  0  0  0  0  0  0  0
   50.6235   -2.8115   -7.9074 C   0  0  0  0  0  0  0  0  0  0  0  0
   49.4439   -2.4708   -7.7328 O   0  0  0  0  0  0  0  0  0  0  0  0
   51.5625   -3.6186   -7.1790 C   0  0  0  0  0  0  0  0  0  0  0  0
   51.4113   -4.2912   -5.9764 C   0  0  0  0  0  0  0  0  0  0  0  0
   50.4385   -4.4270   -5.0377 C   0  0  0  0  0  0  0  0  0  0  0  0
   49.1551   -3.9848   -4.9367 C   0  0  0  0  0  0  0  0  0  0  0  0
   48.4384   -4.3413   -3.7798 C   0  0  0  0  0  0  0  0  0  0  0  0
   48.9853   -5.1044   -2.7755 C   0  0  0  0  0  0  0  0  0  0  0  0
   50.2924   -5.5497   -2.8881 C   0  0  0  0  0  0  0  0  0  0  0  0
   50.9829   -5.1906   -4.0307 C   0  0  0  0  0  0  0  0  0  0  0  0
   52.2275   -5.5232   -4.3112 N   0  0  0  0  0  0  0  0  0  0  0  0
   52.5158   -4.9806   -5.5286 C   0  0  0  0  0  0  0  0  0  0  0  0
   53.7342   -5.0332   -6.2134 C   0  0  0  0  0  0  0  0  0  0  0  0
   50.9628   -1.7365   -9.8379 H   0  0  0  0  0  0  0  0  0  0  0  0
   55.5513   -7.9765   -0.3202 C   0  0  0  0  0  0  0  0  0  0  0  0
   55.3564   -8.0579   -1.7519 N   0  0  0  0  0  0  0  0  0  0  0  0
   56.2394   -8.3479   -2.1809 H   0  0  0  0  0  0  0  0  0  0  0  0
   56.3189   -5.1177   -3.3955 O   0  0  0  0  0  0  0  0  0  0  0  0
   56.7332   -4.8472   -2.0970 C   0  0  0  0  0  0  0  0  0  0  0  0
 33 34  1  0  0  0
 34  1  1  0  0  0
  1  2  1  0  0  0
  2  3  1  0  0  0
  3  4  1  0  0  0
  4  5  1  0  0  0
  5  6  1  0  0  0
  5  7  1  0  0  0
  7 36  1  0  0  0
 36 37  1  0  0  0
  5  8  1  0  0  0
  8  9  1  0  0  0
  9 10  2  0  0  0
 10 11  1  0  0  0
 11 12  2  0  0  0
 12 13  1  0  0  0
 13 14  2  0  0  0
 14 15  1  0  0  0
 15 16  2  0  0  0
 16 17  1  0  0  0
 17 18  1  0  0  0
 18 19  1  0  0  0
 19 20  2  0  0  0
 19 21  1  0  0  0
 21 22  2  0  0  0
 22 23  1  0  0  0
 23 24  2  0  0  0
 24 25  1  0  0  0
 25 26  2  0  0  0
 26 27  1  0  0  0
 27 28  2  0  0  0
 28 29  1  0  0  0
 29 30  1  0  0  0
 30 31  2  0  0  0
  7  1  1  0  0  0
 31  8  1  0  0  0
 29  3  1  0  0  0
 14  9  1  0  0  0
 31 15  1  0  0  0
 21 16  1  0  0  0
 30 22  1  0  0  0
 28 23  1  0  0  0
 34 35  1  0  0  0
 18 32  1  0  0  0
M  END
> <minimizedAffinity>
-10.25253

> <CNNscore>
0.3968900740

> <CNNaffinity>
6.8569931984

> <CNN_VS>
2.7214725018

> <CNNaffinity_variance>
0.0961061120

$$$$
[H]c1c([H])c([H])c2c(c1[H])c1c3c(c4c5c([H])c([H])c([H])c([H])c5n5c4c1n2[C@]1([H])O[C@]5(C([H])([H])[H])[C@@]([H])(OC([H])([H])[H])[C@]([H])(N([H])C([H])([H])[H])C1([H])[H])C([H])([H])N([H])C3=O


 37 44  0  0  0  0  0  0  0  0999 V2000
   52.6148   -2.9373   -9.0485 C   0  0  0  0  0  0  0  0  0  0  0  0
   53.3377   -3.1911  -10.4108 C   0  0  0  0  0  0  0  0  0  0  0  0
   54.4256   -3.9281  -10.0043 C   0  0  0  0  0  0  0  0  0  0  0  0
   53.8864   -5.0765   -9.4467 O   0  0  0  0  0  0  0  0  0  0  0  0
   53.9564   -4.8718   -8.0323 C   0  0  0  0  0  0  0  0  0  0  0  0
   53.0824   -6.0524   -7.5264 C   0  0  0  0  0  0  0  0  0  0  0  0
   53.3274   -3.5881   -7.8469 C   0  0  0  0  0  0  0  0  0  0  0  0
   55.3049   -5.1890   -7.6379 N   0  0  0  0  0  0  0  0  0  0  0  0
   55.6856   -5.6729   -6.4131 C   0  0  0  0  0  0  0  0  0  0  0  0
   55.0300   -5.8484   -5.2281 C   0  0  0  0  0  0  0  0  0  0  0  0
   55.6992   -6.3623   -4.1234 C   0  0  0  0  0  0  0  0  0  0  0  0
   57.0319   -6.7090   -4.1799 C   0  0  0  0  0  0  0  0  0  0  0  0
   57.7202   -6.5395   -5.3710 C   0  0  0  0  0  0  0  0  0  0  0  0
   57.0239   -6.0319   -6.4301 C   0  0  0  0  0  0  0  0  0  0  0  0
   57.4747   -5.7568   -7.6911 C   0  0  0  0  0  0  0  0  0  0  0  0
   58.6731   -5.8996   -8.3749 C   0  0  0  0  0  0  0  0  0  0  0  0
   59.9590   -6.4324   -7.8560 C   0  0  0  0  0  0  0  0  0  0  0  0
   60.8657   -6.3467   -8.9657 N   0  0  0  0  0  0  0  0  0  0  0  0
   60.1905   -5.8080  -10.1243 C   0  0  0  0  0  0  0  0  0  0  0  0
   60.8167   -5.6688  -11.1856 O   0  0  0  0  0  0  0  0  0  0  0  0
   58.8414   -5.5497   -9.7033 C   0  0  0  0  0  0  0  0  0  0  0  0
   57.7745   -5.0217  -10.4135 C   0  0  0  0  0  0  0  0  0  0  0  0
   57.5694   -4.5248  -11.6612 C   0  0  0  0  0  0  0  0  0  0  0  0
   58.3508   -4.4013  -12.7690 C   0  0  0  0  0  0  0  0  0  0  0  0
   57.7676   -3.8187  -13.9089 C   0  0  0  0  0  0  0  0  0  0  0  0
   56.4640   -3.3827  -13.9333 C   0  0  0  0  0  0  0  0  0  0  0  0
   55.6770   -3.5132  -12.8005 C   0  0  0  0  0  0  0  0  0  0  0  0
   56.2651   -4.0874  -11.6888 C   0  0  0  0  0  0  0  0  0  0  0  0
   55.6734   -4.2946  -10.5290 N   0  0  0  0  0  0  0  0  0  0  0  0
   56.5945   -4.8876   -9.7170 C   0  0  0  0  0  0  0  0  0  0  0  0
   56.4327   -5.2536   -8.3767 C   0  0  0  0  0  0  0  0  0  0  0  0
   61.8630   -6.6420   -8.8974 H   0  0  0  0  0  0  0  0  0  0  0  0
   50.6505   -3.1859   -7.8161 C   0  0  0  0  0  0  0  0  0  0  0  0
   51.2327   -3.2380   -9.1401 N   0  0  0  0  0  0  0  0  0  0  0  0
   51.0965   -4.1809   -9.5147 H   0  0  0  0  0  0  0  0  0  0  0  0
   53.9771   -2.6405   -7.0463 O   0  0  0  0  0  0  0  0  0  0  0  0
   55.1218   -2.1095   -7.6281 C   0  0  0  0  0  0  0  0  0  0  0  0
 33 34  1  0  0  0
 34  1  1  0  0  0
  1  2  1  0  0  0
  2  3  1  0  0  0
  3  4  1  0  0  0
  4  5  1  0  0  0
  5  6  1  0  0  0
  5  7  1  0  0  0
  7 36  1  0  0  0
 36 37  1  0  0  0
  5  8  1  0  0  0
  8  9  1  0  0  0
  9 10  2  0  0  0
 10 11  1  0  0  0
 11 12  2  0  0  0
 12 13  1  0  0  0
 13 14  2  0  0  0
 14 15  1  0  0  0
 15 16  2  0  0  0
 16 17  1  0  0  0
 17 18  1  0  0  0
 18 19  1  0  0  0
 19 20  2  0  0  0
 19 21  1  0  0  0
 21 22  2  0  0  0
 22 23  1  0  0  0
 23 24  2  0  0  0
 24 25  1  0  0  0
 25 26  2  0  0  0
 26 27  1  0  0  0
 27 28  2  0  0  0
 28 29  1  0  0  0
 29 30  1  0  0  0
 30 31  2  0  0  0
  7  1  1  0  0  0
 31  8  1  0  0  0
 29  3  1  0  0  0
 14  9  1  0  0  0
 31 15  1  0  0  0
 21 16  1  0  0  0
 30 22  1  0  0  0
 28 23  1  0  0  0
 34 35  1  0  0  0
 18 32  1  0  0  0
M  END
> <minimizedAffinity>
0.23059

> <CNNscore>
0.3289813399

> <CNNaffinity>
6.5232062340

> <CNN_VS>
2.1460130215

> <CNNaffinity_variance>
0.1503275931

$$$$
[H]c1c([H])c([H])c2c(c1[H])c1c3c(c4c5c([H])c([H])c([H])c([H])c5n5c4c1n2[C@]1([H])O[C@]5(C([H])([H])[H])[C@@]([H])(OC([H])([H])[H])[C@]([H])(N([H])C([H])([H])[H])C1([H])[H])C([H])([H])N([H])C3=O


 37 44  0  0  0  0  0  0  0  0999 V2000
   53.1915   -6.4435   -8.7388 C   0  0  0  0  0  0  0  0  0  0  0  0
   54.4773   -6.9321   -7.9968 C   0  0  0  0  0  0  0  0  0  0  0  0
   54.1591   -6.6440   -6.6900 C   0  0  0  0  0  0  0  0  0  0  0  0
   53.0418   -7.4178   -6.4193 O   0  0  0  0  0  0  0  0  0  0  0  0
   51.9346   -6.5156   -6.5050 C   0  0  0  0  0  0  0  0  0  0  0  0
   50.7453   -7.5150   -6.4787 C   0  0  0  0  0  0  0  0  0  0  0  0
   52.1115   -5.8874   -7.7904 C   0  0  0  0  0  0  0  0  0  0  0  0
   51.8798   -5.8124   -5.2492 N   0  0  0  0  0  0  0  0  0  0  0  0
   50.7467   -5.3076   -4.6655 C   0  0  0  0  0  0  0  0  0  0  0  0
   49.4566   -5.1642   -5.0895 C   0  0  0  0  0  0  0  0  0  0  0  0
   48.5029   -4.5885   -4.2581 C   0  0  0  0  0  0  0  0  0  0  0  0
   48.8178   -4.1455   -2.9916 C   0  0  0  0  0  0  0  0  0  0  0  0
   50.1208   -4.2788   -2.5381 C   0  0  0  0  0  0  0  0  0  0  0  0
   51.0245   -4.8496   -3.3875 C   0  0  0  0  0  0  0  0  0  0  0  0
   52.3580   -5.0734   -3.1856 C   0  0  0  0  0  0  0  0  0  0  0  0
   53.2538   -4.8864   -2.1431 C   0  0  0  0  0  0  0  0  0  0  0  0
   52.9841   -4.2978   -0.8061 C   0  0  0  0  0  0  0  0  0  0  0  0
   54.2499   -4.3302   -0.1295 N   0  0  0  0  0  0  0  0  0  0  0  0
   55.2582   -4.9200   -0.9802 C   0  0  0  0  0  0  0  0  0  0  0  0
   56.4183   -5.0400   -0.5586 O   0  0  0  0  0  0  0  0  0  0  0  0
   54.5892   -5.2440   -2.2095 C   0  0  0  0  0  0  0  0  0  0  0  0
   55.0881   -5.8181   -3.3683 C   0  0  0  0  0  0  0  0  0  0  0  0
   56.3002   -6.2328   -3.8209 C   0  0  0  0  0  0  0  0  0  0  0  0
   57.5412   -6.3051   -3.2664 C   0  0  0  0  0  0  0  0  0  0  0  0
   58.5800   -6.8070   -4.0715 C   0  0  0  0  0  0  0  0  0  0  0  0
   58.3801   -7.2159   -5.3688 C   0  0  0  0  0  0  0  0  0  0  0  0
   57.1130   -7.1386   -5.9236 C   0  0  0  0  0  0  0  0  0  0  0  0
   56.1034   -6.6429   -5.1195 C   0  0  0  0  0  0  0  0  0  0  0  0
   54.8414   -6.5000   -5.4733 N   0  0  0  0  0  0  0  0  0  0  0  0
   54.1835   -5.9947   -4.3911 C   0  0  0  0  0  0  0  0  0  0  0  0
   52.8333   -5.6383   -4.3098 C   0  0  0  0  0  0  0  0  0  0  0  0
   54.3759   -3.9660    0.8390 H   0  0  0  0  0  0  0  0  0  0  0  0
   51.3277   -7.6971   -9.3664 C   0  0  0  0  0  0  0  0  0  0  0  0
   52.7214   -7.4256   -9.6463 N   0  0  0  0  0  0  0  0  0  0  0  0
   53.2477   -8.2965   -9.5342 H   0  0  0  0  0  0  0  0  0  0  0  0
   52.0151   -4.4924   -7.8658 O   0  0  0  0  0  0  0  0  0  0  0  0
   50.7820   -4.0424   -8.3218 C   0  0  0  0  0  0  0  0  0  0  0  0
 33 34  1  0  0  0
 34  1  1  0  0  0
  1  2  1  0  0  0
  2  3  1  0  0  0
  3  4  1  0  0  0
  4  5  1  0  0  0
  5  6  1  0  0  0
  5  7  1  0  0  0
  7 36  1  0  0  0
 36 37  1  0  0  0
  5  8  1  0  0  0
  8  9  1  0  0  0
  9 10  2  0  0  0
 10 11  1  0  0  0
 11 12  2  0  0  0
 12 13  1  0  0  0
 13 14  2  0  0  0
 14 15  1  0  0  0
 15 16  2  0  0  0
 16 17  1  0  0  0
 17 18  1  0  0  0
 18 19  1  0  0  0
 19 20  2  0  0  0
 19 21  1  0  0  0
 21 22  2  0  0  0
 22 23  1  0  0  0
 23 24  2  0  0  0
 24 25  1  0  0  0
 25 26  2  0  0  0
 26 27  1  0  0  0
 27 28  2  0  0  0
 28 29  1  0  0  0
 29 30  1  0  0  0
 30 31  2  0  0  0
  7  1  1  0  0  0
 31  8  1  0  0  0
 29  3  1  0  0  0
 14  9  1  0  0  0
 31 15  1  0  0  0
 21 16  1  0  0  0
 30 22  1  0  0  0
 28 23  1  0  0  0
 34 35  1  0  0  0
 18 32  1  0  0  0
M  END
> <minimizedAffinity>
14.07329

> <CNNscore>
0.3065997660

> <CNNaffinity>
6.2128481865

> <CNN_VS>
1.9048577547

> <CNNaffinity_variance>
0.4810913205

$$$$
[H]c1c([H])c([H])c2c(c1[H])c1c3c(c4c5c([H])c([H])c([H])c([H])c5n5c4c1n2[C@]1([H])O[C@]5(C([H])([H])[H])[C@@]([H])(OC([H])([H])[H])[C@]([H])(N([H])C([H])([H])[H])C1([H])[H])C([H])([H])N([H])C3=O


 37 44  0  0  0  0  0  0  0  0999 V2000
   56.5533   -4.5024   -9.9629 C   0  0  0  0  0  0  0  0  0  0  0  0
   55.1583   -3.9093   -9.5822 C   0  0  0  0  0  0  0  0  0  0  0  0
   55.0109   -4.3740   -8.2960 C   0  0  0  0  0  0  0  0  0  0  0  0
   56.0600   -3.8046   -7.5920 O   0  0  0  0  0  0  0  0  0  0  0  0
   57.0334   -4.8460   -7.4677 C   0  0  0  0  0  0  0  0  0  0  0  0
   58.2523   -4.0400   -6.9398 C   0  0  0  0  0  0  0  0  0  0  0  0
   57.2088   -5.3056   -8.8227 C   0  0  0  0  0  0  0  0  0  0  0  0
   56.6097   -5.6751   -6.3688 N   0  0  0  0  0  0  0  0  0  0  0  0
   57.4369   -6.3981   -5.5489 C   0  0  0  0  0  0  0  0  0  0  0  0
   58.7716   -6.6849   -5.5791 C   0  0  0  0  0  0  0  0  0  0  0  0
   59.3434   -7.4769   -4.5901 C   0  0  0  0  0  0  0  0  0  0  0  0
   58.5959   -7.9970   -3.5555 C   0  0  0  0  0  0  0  0  0  0  0  0
   57.2386   -7.7212   -3.5028 C   0  0  0  0  0  0  0  0  0  0  0  0
   56.7192   -6.9395   -4.4944 C   0  0  0  0  0  0  0  0  0  0  0  0
   55.4229   -6.5444   -4.6750 C   0  0  0  0  0  0  0  0  0  0  0  0
   54.2271   -6.7041   -3.9903 C   0  0  0  0  0  0  0  0  0  0  0  0
   53.9922   -7.4605   -2.7335 C   0  0  0  0  0  0  0  0  0  0  0  0
   52.5880   -7.3125   -2.4739 N   0  0  0  0  0  0  0  0  0  0  0  0
   51.9725   -6.4966   -3.4955 C   0  0  0  0  0  0  0  0  0  0  0  0
   50.7584   -6.2517   -3.4317 O   0  0  0  0  0  0  0  0  0  0  0  0
   53.0289   -6.1495   -4.4051 C   0  0  0  0  0  0  0  0  0  0  0  0
   52.9895   -5.3922   -5.5654 C   0  0  0  0  0  0  0  0  0  0  0  0
   52.0365   -4.7596   -6.2986 C   0  0  0  0  0  0  0  0  0  0  0  0
   50.6988   -4.5635   -6.1409 C   0  0  0  0  0  0  0  0  0  0  0  0
   50.0307   -3.8343   -7.1414 C   0  0  0  0  0  0  0  0  0  0  0  0
   50.6759   -3.3277   -8.2447 C   0  0  0  0  0  0  0  0  0  0  0  0
   52.0378   -3.5327   -8.3956 C   0  0  0  0  0  0  0  0  0  0  0  0
   52.6794   -4.2513   -7.4040 C   0  0  0  0  0  0  0  0  0  0  0  0
   53.9654   -4.5408   -7.3764 N   0  0  0  0  0  0  0  0  0  0  0  0
   54.1862   -5.2459   -6.2304 C   0  0  0  0  0  0  0  0  0  0  0  0
   55.3937   -5.8031   -5.7969 C   0  0  0  0  0  0  0  0  0  0  0  0
   52.1218   -7.7520   -1.6517 H   0  0  0  0  0  0  0  0  0  0  0  0
   58.6761   -4.1010  -10.8415 C   0  0  0  0  0  0  0  0  0  0  0  0
   57.3903   -3.5117  -10.5348 N   0  0  0  0  0  0  0  0  0  0  0  0
   57.5377   -2.7438   -9.8741 H   0  0  0  0  0  0  0  0  0  0  0  0
   57.1741   -6.6844   -9.0652 O   0  0  0  0  0  0  0  0  0  0  0  0
   58.2842   -7.1577   -9.7540 C   0  0  0  0  0  0  0  0  0  0  0  0
 33 34  1  0  0  0
 34  1  1  0  0  0
  1  2  1  0  0  0
  2  3  1  0  0  0
  3  4  1  0  0  0
  4  5  1  0  0  0
  5  6  1  0  0  0
  5  7  1  0  0  0
  7 36  1  0  0  0
 36 37  1  0  0  0
  5  8  1  0  0  0
  8  9  1  0  0  0
  9 10  2  0  0  0
 10 11  1  0  0  0
 11 12  2  0  0  0
 12 13  1  0  0  0
 13 14  2  0  0  0
 14 15  1  0  0  0
 15 16  2  0  0  0
 16 17  1  0  0  0
 17 18  1  0  0  0
 18 19  1  0  0  0
 19 20  2  0  0  0
 19 21  1  0  0  0
 21 22  2  0  0  0
 22 23  1  0  0  0
 23 24  2  0  0  0
 24 25  1  0  0  0
 25 26  2  0  0  0
 26 27  1  0  0  0
 27 28  2  0  0  0
 28 29  1  0  0  0
 29 30  1  0  0  0
 30 31  2  0  0  0
  7  1  1  0  0  0
 31  8  1  0  0  0
 29  3  1  0  0  0
 14  9  1  0  0  0
 31 15  1  0  0  0
 21 16  1  0  0  0
 30 22  1  0  0  0
 28 23  1  0  0  0
 34 35  1  0  0  0
 18 32  1  0  0  0
M  END
> <minimizedAffinity>
5.58177

> <CNNscore>
0.2982380390

> <CNNaffinity>
6.6524672508

> <CNN_VS>
1.9840188026

> <CNNaffinity_variance>
0.2540580332

$$$$
[H]c1c([H])c([H])c2c(c1[H])c1c3c(c4c5c([H])c([H])c([H])c([H])c5n5c4c1n2[C@]1([H])O[C@]5(C([H])([H])[H])[C@@]([H])(OC([H])([H])[H])[C@]([H])(N([H])C([H])([H])[H])C1([H])[H])C([H])([H])N([H])C3=O


 37 44  0  0  0  0  0  0  0  0999 V2000
   56.7966   -4.0830  -10.0708 C   0  0  0  0  0  0  0  0  0  0  0  0
   57.0753   -3.7984  -11.5822 C   0  0  0  0  0  0  0  0  0  0  0  0
   58.3234   -4.3561  -11.7347 C   0  0  0  0  0  0  0  0  0  0  0  0
   58.1463   -5.7014  -11.4531 O   0  0  0  0  0  0  0  0  0  0  0  0
   58.6350   -5.8698  -10.1190 C   0  0  0  0  0  0  0  0  0  0  0  0
   58.1315   -7.3060   -9.8064 C   0  0  0  0  0  0  0  0  0  0  0  0
   57.9339   -4.8546   -9.3735 C   0  0  0  0  0  0  0  0  0  0  0  0
   60.0683   -5.9727  -10.2166 N   0  0  0  0  0  0  0  0  0  0  0  0
   60.8794   -6.6676   -9.3573 C   0  0  0  0  0  0  0  0  0  0  0  0
   60.6641   -7.2930   -8.1625 C   0  0  0  0  0  0  0  0  0  0  0  0
   61.7117   -7.9200   -7.4981 C   0  0  0  0  0  0  0  0  0  0  0  0
   62.9907   -7.9342   -8.0114 C   0  0  0  0  0  0  0  0  0  0  0  0
   63.2354   -7.3057   -9.2223 C   0  0  0  0  0  0  0  0  0  0  0  0
   62.1777   -6.7027   -9.8401 C   0  0  0  0  0  0  0  0  0  0  0  0
   62.1634   -6.0092  -11.0183 C   0  0  0  0  0  0  0  0  0  0  0  0
   63.0898   -5.6952  -12.0019 C   0  0  0  0  0  0  0  0  0  0  0  0
   64.5325   -6.0472  -12.0388 C   0  0  0  0  0  0  0  0  0  0  0  0
   65.0192   -5.4704  -13.2600 N   0  0  0  0  0  0  0  0  0  0  0  0
   63.9456   -4.8071  -13.9640 C   0  0  0  0  0  0  0  0  0  0  0  0
   64.1773   -4.2553  -15.0502 O   0  0  0  0  0  0  0  0  0  0  0  0
   62.7789   -4.9763  -13.1430 C   0  0  0  0  0  0  0  0  0  0  0  0
   61.4816   -4.5293  -13.3392 C   0  0  0  0  0  0  0  0  0  0  0  0
   60.8264   -3.7770  -14.2615 C   0  0  0  0  0  0  0  0  0  0  0  0
   61.1912   -3.1931  -15.4358 C   0  0  0  0  0  0  0  0  0  0  0  0
   60.2040   -2.4731  -16.1330 C   0  0  0  0  0  0  0  0  0  0  0  0
   58.9149   -2.3472  -15.6723 C   0  0  0  0  0  0  0  0  0  0  0  0
   58.5537   -2.9456  -14.4760 C   0  0  0  0  0  0  0  0  0  0  0  0
   59.5353   -3.6491  -13.8031 C   0  0  0  0  0  0  0  0  0  0  0  0
   59.3763   -4.2832  -12.6581 N   0  0  0  0  0  0  0  0  0  0  0  0
   60.5777   -4.8508  -12.3517 C   0  0  0  0  0  0  0  0  0  0  0  0
   60.9006   -5.5863  -11.2067 C   0  0  0  0  0  0  0  0  0  0  0  0
   66.0162   -5.5441  -13.5550 H   0  0  0  0  0  0  0  0  0  0  0  0
   54.5449   -3.5805   -9.7299 C   0  0  0  0  0  0  0  0  0  0  0  0
   55.5097   -4.6477   -9.8866 N   0  0  0  0  0  0  0  0  0  0  0  0
   55.4908   -5.2253   -9.0416 H   0  0  0  0  0  0  0  0  0  0  0  0
   58.6733   -4.0342   -8.5125 O   0  0  0  0  0  0  0  0  0  0  0  0
   57.9801   -3.6579   -7.3685 C   0  0  0  0  0  0  0  0  0  0  0  0
 33 34  1  0  0  0
 34  1  1  0  0  0
  1  2  1  0  0  0
  2  3  1  0  0  0
  3  4  1  0  0  0
  4  5  1  0  0  0
  5  6  1  0  0  0
  5  7  1  0  0  0
  7 36  1  0  0  0
 36 37  1  0  0  0
  5  8  1  0  0  0
  8  9  1  0  0  0
  9 10  2  0  0  0
 10 11  1  0  0  0
 11 12  2  0  0  0
 12 13  1  0  0  0
 13 14  2  0  0  0
 14 15  1  0  0  0
 15 16  2  0  0  0
 16 17  1  0  0  0
 17 18  1  0  0  0
 18 19  1  0  0  0
 19 20  2  0  0  0
 19 21  1  0  0  0
 21 22  2  0  0  0
 22 23  1  0  0  0
 23 24  2  0  0  0
 24 25  1  0  0  0
 25 26  2  0  0  0
 26 27  1  0  0  0
 27 28  2  0  0  0
 28 29  1  0  0  0
 29 30  1  0  0  0
 30 31  2  0  0  0
  7  1  1  0  0  0
 31  8  1  0  0  0
 29  3  1  0  0  0
 14  9  1  0  0  0
 31 15  1  0  0  0
 21 16  1  0  0  0
 30 22  1  0  0  0
 28 23  1  0  0  0
 34 35  1  0  0  0
 18 32  1  0  0  0
M  END
> <minimizedAffinity>
8.57297

> <CNNscore>
0.2967477441

> <CNNaffinity>
5.2937345505

> <CNN_VS>
1.5709037781

> <CNNaffinity_variance>
0.2649469972

$$$$
[H]c1c([H])c([H])c2c(c1[H])c1c3c(c4c5c([H])c([H])c([H])c([H])c5n5c4c1n2[C@]1([H])O[C@]5(C([H])([H])[H])[C@@]([H])(OC([H])([H])[H])[C@]([H])(N([H])C([H])([H])[H])C1([H])[H])C([H])([H])N([H])C3=O


 37 44  0  0  0  0  0  0  0  0999 V2000
   55.9599   -3.8537  -13.5693 C   0  0  0  0  0  0  0  0  0  0  0  0
   54.9263   -3.2875  -12.5427 C   0  0  0  0  0  0  0  0  0  0  0  0
   55.4935   -3.6729  -11.3503 C   0  0  0  0  0  0  0  0  0  0  0  0
   56.7163   -3.0221  -11.3137 O   0  0  0  0  0  0  0  0  0  0  0  0
   57.6788   -4.0177  -11.6738 C   0  0  0  0  0  0  0  0  0  0  0  0
   58.9408   -3.1363  -11.8844 C   0  0  0  0  0  0  0  0  0  0  0  0
   57.1593   -4.5575  -12.9054 C   0  0  0  0  0  0  0  0  0  0  0  0
   57.9366   -4.7886  -10.4847 N   0  0  0  0  0  0  0  0  0  0  0  0
   59.1125   -5.4270  -10.1864 C   0  0  0  0  0  0  0  0  0  0  0  0
   60.2557   -5.6672  -10.8936 C   0  0  0  0  0  0  0  0  0  0  0  0
   61.3050   -6.3726  -10.3159 C   0  0  0  0  0  0  0  0  0  0  0  0
   61.2332   -6.8510   -9.0253 C   0  0  0  0  0  0  0  0  0  0  0  0
   60.0830   -6.6211   -8.2868 C   0  0  0  0  0  0  0  0  0  0  0  0
   59.0778   -5.9243   -8.8935 C   0  0  0  0  0  0  0  0  0  0  0  0
   57.8518   -5.5883   -8.3903 C   0  0  0  0  0  0  0  0  0  0  0  0
   57.1935   -5.7461   -7.1796 C   0  0  0  0  0  0  0  0  0  0  0  0
   57.6893   -6.4274   -5.9562 C   0  0  0  0  0  0  0  0  0  0  0  0
   56.6141   -6.3132   -5.0119 N   0  0  0  0  0  0  0  0  0  0  0  0
   55.5090   -5.5877   -5.5957 C   0  0  0  0  0  0  0  0  0  0  0  0
   54.4890   -5.3827   -4.9208 O   0  0  0  0  0  0  0  0  0  0  0  0
   55.9202   -5.2627   -6.9333 C   0  0  0  0  0  0  0  0  0  0  0  0
   55.2397   -4.5839   -7.9320 C   0  0  0  0  0  0  0  0  0  0  0  0
   54.0069   -4.0346   -8.0877 C   0  0  0  0  0  0  0  0  0  0  0  0
   52.9327   -3.8766   -7.2667 C   0  0  0  0  0  0  0  0  0  0  0  0
   51.7992   -3.2381   -7.8020 C   0  0  0  0  0  0  0  0  0  0  0  0
   51.7491   -2.7812   -9.0977 C   0  0  0  0  0  0  0  0  0  0  0  0
   52.8480   -2.9467   -9.9251 C   0  0  0  0  0  0  0  0  0  0  0  0
   53.9536   -3.5762   -9.3841 C   0  0  0  0  0  0  0  0  0  0  0  0
   55.0851   -3.8172  -10.0166 N   0  0  0  0  0  0  0  0  0  0  0  0
   55.9099   -4.4383   -9.1259 C   0  0  0  0  0  0  0  0  0  0  0  0
   57.2009   -4.9227   -9.3610 C   0  0  0  0  0  0  0  0  0  0  0  0
   56.6679   -6.7150   -4.0516 H   0  0  0  0  0  0  0  0  0  0  0  0
   57.3982   -3.3826  -15.3437 C   0  0  0  0  0  0  0  0  0  0  0  0
   56.3166   -2.8728  -14.5283 N   0  0  0  0  0  0  0  0  0  0  0  0
   56.6385   -2.0195  -14.0636 H   0  0  0  0  0  0  0  0  0  0  0  0
   57.0931   -5.9495  -13.0437 O   0  0  0  0  0  0  0  0  0  0  0  0
   56.1351   -6.3743  -13.9563 C   0  0  0  0  0  0  0  0  0  0  0  0
 33 34  1  0  0  0
 34  1  1  0  0  0
  1  2  1  0  0  0
  2  3  1  0  0  0
  3  4  1  0  0  0
  4  5  1  0  0  0
  5  6  1  0  0  0
  5  7  1  0  0  0
  7 36  1  0  0  0
 36 37  1  0  0  0
  5  8  1  0  0  0
  8  9  1  0  0  0
  9 10  2  0  0  0
 10 11  1  0  0  0
 11 12  2  0  0  0
 12 13  1  0  0  0
 13 14  2  0  0  0
 14 15  1  0  0  0
 15 16  2  0  0  0
 16 17  1  0  0  0
 17 18  1  0  0  0
 18 19  1  0  0  0
 19 20  2  0  0  0
 19 21  1  0  0  0
 21 22  2  0  0  0
 22 23  1  0  0  0
 23 24  2  0  0  0
 24 25  1  0  0  0
 25 26  2  0  0  0
 26 27  1  0  0  0
 27 28  2  0  0  0
 28 29  1  0  0  0
 29 30  1  0  0  0
 30 31  2  0  0  0
  7  1  1  0  0  0
 31  8  1  0  0  0
 29  3  1  0  0  0
 14  9  1  0  0  0
 31 15  1  0  0  0
 21 16  1  0  0  0
 30 22  1  0  0  0
 28 23  1  0  0  0
 34 35  1  0  0  0
 18 32  1  0  0  0
M  END
> <minimizedAffinity>
-1.16819

> <CNNscore>
0.2940229774

> <CNNaffinity>
6.1121535301

> <CNN_VS>
1.7971135378

> <CNNaffinity_variance>
0.1318294108

$$$$
[H]c1c([H])c([H])c2c(c1[H])c1c3c(c4c5c([H])c([H])c([H])c([H])c5n5c4c1n2[C@]1([H])O[C@]5(C([H])([H])[H])[C@@]([H])(OC([H])([H])[H])[C@]([H])(N([H])C([H])([H])[H])C1([H])[H])C([H])([H])N([H])C3=O


 37 44  0  0  0  0  0  0  0  0999 V2000
   56.1668   -3.7797  -13.6651 C   0  0  0  0  0  0  0  0  0  0  0  0
   55.9301   -3.7781  -12.1201 C   0  0  0  0  0  0  0  0  0  0  0  0
   57.1730   -4.1436  -11.6578 C   0  0  0  0  0  0  0  0  0  0  0  0
   58.0201   -3.1332  -12.0842 O   0  0  0  0  0  0  0  0  0  0  0  0
   58.6911   -3.6685  -13.2290 C   0  0  0  0  0  0  0  0  0  0  0  0
   59.3751   -2.3898  -13.7866 C   0  0  0  0  0  0  0  0  0  0  0  0
   57.6123   -4.1369  -14.0625 C   0  0  0  0  0  0  0  0  0  0  0  0
   59.7597   -4.4950  -12.7293 N   0  0  0  0  0  0  0  0  0  0  0  0
   60.9472   -4.7381  -13.3696 C   0  0  0  0  0  0  0  0  0  0  0  0
   61.4140   -4.4545  -14.6212 C   0  0  0  0  0  0  0  0  0  0  0  0
   62.6912   -4.8495  -15.0017 C   0  0  0  0  0  0  0  0  0  0  0  0
   63.5243   -5.5339  -14.1432 C   0  0  0  0  0  0  0  0  0  0  0  0
   63.0736   -5.8347  -12.8674 C   0  0  0  0  0  0  0  0  0  0  0  0
   61.8131   -5.4278  -12.5362 C   0  0  0  0  0  0  0  0  0  0  0  0
   61.1397   -5.6165  -11.3615 C   0  0  0  0  0  0  0  0  0  0  0  0
   61.4233   -6.1892  -10.1303 C   0  0  0  0  0  0  0  0  0  0  0  0
   62.6800   -6.8579   -9.7056 C   0  0  0  0  0  0  0  0  0  0  0  0
   62.4344   -7.2752   -8.3542 N   0  0  0  0  0  0  0  0  0  0  0  0
   61.1075   -6.8793   -7.9405 C   0  0  0  0  0  0  0  0  0  0  0  0
   60.7201   -7.1485   -6.7936 O   0  0  0  0  0  0  0  0  0  0  0  0
   60.5286   -6.2141   -9.0747 C   0  0  0  0  0  0  0  0  0  0  0  0
   59.2726   -5.6481   -9.2273 C   0  0  0  0  0  0  0  0  0  0  0  0
   58.1458   -5.5307   -8.4774 C   0  0  0  0  0  0  0  0  0  0  0  0
   57.8165   -5.8863   -7.2054 C   0  0  0  0  0  0  0  0  0  0  0  0
   56.5127   -5.5888   -6.7687 C   0  0  0  0  0  0  0  0  0  0  0  0
   55.5870   -4.9648   -7.5712 C   0  0  0  0  0  0  0  0  0  0  0  0
   55.9323   -4.6067   -8.8643 C   0  0  0  0  0  0  0  0  0  0  0  0
   57.2171   -4.9063   -9.2780 C   0  0  0  0  0  0  0  0  0  0  0  0
   57.7219   -4.6399  -10.4665 N   0  0  0  0  0  0  0  0  0  0  0  0
   59.0106   -5.0855  -10.4563 C   0  0  0  0  0  0  0  0  0  0  0  0
   59.9260   -5.0573  -11.5135 C   0  0  0  0  0  0  0  0  0  0  0  0
   63.1435   -7.7905   -7.7901 H   0  0  0  0  0  0  0  0  0  0  0  0
   55.6457   -2.7567  -15.6951 C   0  0  0  0  0  0  0  0  0  0  0  0
   55.6758   -2.5894  -14.2579 N   0  0  0  0  0  0  0  0  0  0  0  0
   56.2910   -1.8012  -14.0385 H   0  0  0  0  0  0  0  0  0  0  0  0
   57.7041   -5.4246  -14.6049 O   0  0  0  0  0  0  0  0  0  0  0  0
   56.4720   -6.0372  -14.7992 C   0  0  0  0  0  0  0  0  0  0  0  0
 33 34  1  0  0  0
 34  1  1  0  0  0
  1  2  1  0  0  0
  2  3  1  0  0  0
  3  4  1  0  0  0
  4  5  1  0  0  0
  5  6  1  0  0  0
  5  7  1  0  0  0
  7 36  1  0  0  0
 36 37  1  0  0  0
  5  8  1  0  0  0
  8  9  1  0  0  0
  9 10  2  0  0  0
 10 11  1  0  0  0
 11 12  2  0  0  0
 12 13  1  0  0  0
 13 14  2  0  0  0
 14 15  1  0  0  0
 15 16  2  0  0  0
 16 17  1  0  0  0
 17 18  1  0  0  0
 18 19  1  0  0  0
 19 20  2  0  0  0
 19 21  1  0  0  0
 21 22  2  0  0  0
 22 23  1  0  0  0
 23 24  2  0  0  0
 24 25  1  0  0  0
 25 26  2  0  0  0
 26 27  1  0  0  0
 27 28  2  0  0  0
 28 29  1  0  0  0
 29 30  1  0  0  0
 30 31  2  0  0  0
  7  1  1  0  0  0
 31  8  1  0  0  0
 29  3  1  0  0  0
 14  9  1  0  0  0
 31 15  1  0  0  0
 21 16  1  0  0  0
 30 22  1  0  0  0
 28 23  1  0  0  0
 34 35  1  0  0  0
 18 32  1  0  0  0
M  END
> <minimizedAffinity>
3.46996

> <CNNscore>
0.2521526515

> <CNNaffinity>
5.5013575554

> <CNN_VS>
1.3871818781

> <CNNaffinity_variance>
0.3682888448

$$$$
[H]c1c([H])c([H])c2c(c1[H])c1c3c(c4c5c([H])c([H])c([H])c([H])c5n5c4c1n2[C@]1([H])O[C@]5(C([H])([H])[H])[C@@]([H])(OC([H])([H])[H])[C@]([H])(N([H])C([H])([H])[H])C1([H])[H])C([H])([H])N([H])C3=O


 37 44  0  0  0  0  0  0  0  0999 V2000
   61.5510   -7.5797   -7.7510 C   0  0  0  0  0  0  0  0  0  0  0  0
   60.5995   -7.1817   -6.5767 C   0  0  0  0  0  0  0  0  0  0  0  0
   60.9347   -8.1211   -5.6294 C   0  0  0  0  0  0  0  0  0  0  0  0
   62.2726   -7.8855   -5.3558 O   0  0  0  0  0  0  0  0  0  0  0  0
   62.9839   -8.8942   -6.0796 C   0  0  0  0  0  0  0  0  0  0  0  0
   64.4410   -8.3721   -5.9456 C   0  0  0  0  0  0  0  0  0  0  0  0
   62.4658   -8.7747   -7.4195 C   0  0  0  0  0  0  0  0  0  0  0  0
   62.9246  -10.0914   -5.2811 N   0  0  0  0  0  0  0  0  0  0  0  0
   63.8681  -11.0857   -5.2616 C   0  0  0  0  0  0  0  0  0  0  0  0
   64.9765  -11.3427   -6.0167 C   0  0  0  0  0  0  0  0  0  0  0  0
   65.7545  -12.4666   -5.7641 C   0  0  0  0  0  0  0  0  0  0  0  0
   65.4415  -13.3534   -4.7564 C   0  0  0  0  0  0  0  0  0  0  0  0
   64.3208  -13.1154   -3.9764 C   0  0  0  0  0  0  0  0  0  0  0  0
   63.5859  -12.0001   -4.2595 C   0  0  0  0  0  0  0  0  0  0  0  0
   62.4413  -11.5598   -3.6551 C   0  0  0  0  0  0  0  0  0  0  0  0
   61.6516  -11.9743   -2.5927 C   0  0  0  0  0  0  0  0  0  0  0  0
   61.8408  -13.1688   -1.7301 C   0  0  0  0  0  0  0  0  0  0  0  0
   60.7435  -13.1305   -0.8053 N   0  0  0  0  0  0  0  0  0  0  0  0
   59.9174  -11.9714   -1.0553 C   0  0  0  0  0  0  0  0  0  0  0  0
   58.9218  -11.7668   -0.3447 O   0  0  0  0  0  0  0  0  0  0  0  0
   60.5232  -11.2946   -2.1683 C   0  0  0  0  0  0  0  0  0  0  0  0
   60.1341  -10.1364   -2.8230 C   0  0  0  0  0  0  0  0  0  0  0  0
   59.0996   -9.2591   -2.7445 C   0  0  0  0  0  0  0  0  0  0  0  0
   58.0261   -9.1362   -1.9167 C   0  0  0  0  0  0  0  0  0  0  0  0
   57.1461   -8.0648   -2.1551 C   0  0  0  0  0  0  0  0  0  0  0  0
   57.3367   -7.1625   -3.1747 C   0  0  0  0  0  0  0  0  0  0  0  0
   58.4327   -7.2964   -4.0116 C   0  0  0  0  0  0  0  0  0  0  0  0
   59.2876   -8.3544   -3.7641 C   0  0  0  0  0  0  0  0  0  0  0  0
   60.3774   -8.6367   -4.4504 N   0  0  0  0  0  0  0  0  0  0  0  0
   60.9305   -9.7421   -3.8746 C   0  0  0  0  0  0  0  0  0  0  0  0
   62.0746  -10.4317   -4.2892 C   0  0  0  0  0  0  0  0  0  0  0  0
   60.6024  -13.8598   -0.0741 H   0  0  0  0  0  0  0  0  0  0  0  0
   63.0434   -6.8538   -9.3896 C   0  0  0  0  0  0  0  0  0  0  0  0
   62.2329   -6.4469   -8.2617 N   0  0  0  0  0  0  0  0  0  0  0  0
   62.8505   -6.0501   -7.5482 H   0  0  0  0  0  0  0  0  0  0  0  0
   62.0654   -9.9415   -8.0823 O   0  0  0  0  0  0  0  0  0  0  0  0
   62.4748   -9.9978   -9.4090 C   0  0  0  0  0  0  0  0  0  0  0  0
 33 34  1  0  0  0
 34  1  1  0  0  0
  1  2  1  0  0  0
  2  3  1  0  0  0
  3  4  1  0  0  0
  4  5  1  0  0  0
  5  6  1  0  0  0
  5  7  1  0  0  0
  7 36  1  0  0  0
 36 37  1  0  0  0
  5  8  1  0  0  0
  8  9  1  0  0  0
  9 10  2  0  0  0
 10 11  1  0  0  0
 11 12  2  0  0  0
 12 13  1  0  0  0
 13 14  2  0  0  0
 14 15  1  0  0  0
 15 16  2  0  0  0
 16 17  1  0  0  0
 17 18  1  0  0  0
 18 19  1  0  0  0
 19 20  2  0  0  0
 19 21  1  0  0  0
 21 22  2  0  0  0
 22 23  1  0  0  0
 23 24  2  0  0  0
 24 25  1  0  0  0
 25 26  2  0  0  0
 26 27  1  0  0  0
 27 28  2  0  0  0
 28 29  1  0  0  0
 29 30  1  0  0  0
 30 31  2  0  0  0
  7  1  1  0  0  0
 31  8  1  0  0  0
 29  3  1  0  0  0
 14  9  1  0  0  0
 31 15  1  0  0  0
 21 16  1  0  0  0
 30 22  1  0  0  0
 28 23  1  0  0  0
 34 35  1  0  0  0
 18 32  1  0  0  0
M  END
> <minimizedAffinity>
-2.94145

> <CNNscore>
0.2423704416

> <CNNaffinity>
5.1901373863

> <CNN_VS>
1.2579358816

> <CNNaffinity_variance>
0.2259121686

$$$$
[H]ON([H])C(=O)C([H])([H])N(C([H])([H])c1c([H])c([H])c([N+](=O)[O-])c([H])c1[H])S(=O)(=O)c1c([H])c([H])c(C(F)(F)F)c([H])c1[H]


 31 32  0  0  0  0  0  0  0  0999 V2000
   53.9869   -4.5788   -7.3661 N   0  0  0  0  0  0  0  0  0  0  0  0
   55.0407   -5.6515   -6.6093 S   0  0  0  0  0  0  0  0  0  0  0  0
   56.4320   -5.4962   -7.2324 O   0  0  0  0  0  0  0  0  0  0  0  0
   54.6323   -7.0572   -6.9927 O   0  0  0  0  0  0  0  0  0  0  0  0
   55.1492   -5.4929   -4.9092 C   0  0  0  0  0  0  0  0  0  0  0  0
   54.1785   -6.1176   -4.1186 C   0  0  0  0  0  0  0  0  0  0  0  0
   54.1702   -6.0766   -2.7637 C   0  0  0  0  0  0  0  0  0  0  0  0
   55.1739   -5.3807   -2.1074 C   0  0  0  0  0  0  0  0  0  0  0  0
   56.1626   -4.7453   -2.8156 C   0  0  0  0  0  0  0  0  0  0  0  0
   56.1219   -4.8157   -4.2151 C   0  0  0  0  0  0  0  0  0  0  0  0
   55.1439   -5.3804   -0.6135 C   0  0  0  0  0  0  0  0  0  0  0  0
   56.1289   -4.5584   -0.1092 F   0  0  0  0  0  0  0  0  0  0  0  0
   55.4139   -6.6645   -0.1449 F   0  0  0  0  0  0  0  0  0  0  0  0
   53.9339   -4.9085   -0.1123 F   0  0  0  0  0  0  0  0  0  0  0  0
   54.5161   -3.4552   -7.9733 C   0  0  0  0  0  0  0  0  0  0  0  0
   55.8505   -3.8664  -11.4550 O   0  0  0  0  0  0  0  0  0  0  0  0
   55.7189   -3.8284  -10.1225 N   0  0  0  0  0  0  0  0  0  0  0  0
   54.5131   -3.4502   -9.4354 C   0  0  0  0  0  0  0  0  0  0  0  0
   53.5547   -3.1471  -10.1924 O   0  0  0  0  0  0  0  0  0  0  0  0
   56.5369   -4.5411  -11.7745 H   0  0  0  0  0  0  0  0  0  0  0  0
   56.5631   -4.0873   -9.5520 H   0  0  0  0  0  0  0  0  0  0  0  0
   52.6875   -5.0179   -7.6604 C   0  0  0  0  0  0  0  0  0  0  0  0
   51.5849   -4.6231   -6.7751 C   0  0  0  0  0  0  0  0  0  0  0  0
   51.1547   -5.4001   -5.7097 C   0  0  0  0  0  0  0  0  0  0  0  0
   50.1307   -5.0736   -4.8719 C   0  0  0  0  0  0  0  0  0  0  0  0
   49.4506   -3.9030   -5.0534 C   0  0  0  0  0  0  0  0  0  0  0  0
   49.8351   -3.0721   -6.1070 C   0  0  0  0  0  0  0  0  0  0  0  0
   50.8783   -3.4354   -6.9408 C   0  0  0  0  0  0  0  0  0  0  0  0
   48.3738   -3.5642   -4.1879 N   0  0  0  0  0  0  0  0  0  0  0  0
   47.9127   -4.3971   -3.1780 O   0  0  0  0  0  0  0  0  0  0  0  0
   47.7783   -2.4733   -4.3091 O   0  0  0  0  0  0  0  0  0  0  0  0
 16 17  1  0  0  0
 17 18  1  0  0  0
 18 19  2  0  0  0
 18 15  1  0  0  0
 15  1  1  0  0  0
  1 22  1  0  0  0
 22 23  1  0  0  0
 23 24  2  0  0  0
 24 25  1  0  0  0
 25 26  2  0  0  0
 26 27  1  0  0  0
 27 28  2  0  0  0
 26 29  1  0  0  0
 29 30  1  0  0  0
 29 31  2  0  0  0
  1  2  1  0  0  0
  2  3  2  0  0  0
  2  4  2  0  0  0
  2  5  1  0  0  0
  5  6  2  0  0  0
  6  7  1  0  0  0
  7  8  2  0  0  0
  8  9  1  0  0  0
  9 10  2  0  0  0
  8 11  1  0  0  0
 11 12  1  0  0  0
 11 13  1  0  0  0
 11 14  1  0  0  0
 28 23  1  0  0  0
 10  5  1  0  0  0
 16 20  1  0  0  0
 17 21  1  0  0  0
M  CHG 1  29   1
M  CHG 1  30  -1
M  END
> <minimizedAffinity>
-8.76266

> <CNNscore>
0.3710267246

> <CNNaffinity>
6.8557052612

> <CNN_VS>
2.5436499119

> <CNNaffinity_variance>
0.4154980779

$$$$
[H]ON([H])C(=O)C([H])([H])N(C([H])([H])c1c([H])c([H])c([N+](=O)[O-])c([H])c1[H])S(=O)(=O)c1c([H])c([H])c(C(F)(F)F)c([H])c1[H]


 31 32  0  0  0  0  0  0  0  0999 V2000
   54.0783   -4.9763   -7.4437 N   0  0  0  0  0  0  0  0  0  0  0  0
   54.8897   -4.0832   -8.6175 S   0  0  0  0  0  0  0  0  0  0  0  0
   54.9751   -2.6250   -8.1543 O   0  0  0  0  0  0  0  0  0  0  0  0
   54.0091   -4.0168   -9.8464 O   0  0  0  0  0  0  0  0  0  0  0  0
   56.4520   -4.6531   -9.0198 C   0  0  0  0  0  0  0  0  0  0  0  0
   57.2842   -5.1000   -7.9878 C   0  0  0  0  0  0  0  0  0  0  0  0
   58.5332   -5.5882   -8.1855 C   0  0  0  0  0  0  0  0  0  0  0  0
   59.0301   -5.6562   -9.4781 C   0  0  0  0  0  0  0  0  0  0  0  0
   58.2706   -5.2393  -10.5422 C   0  0  0  0  0  0  0  0  0  0  0  0
   56.9872   -4.7391  -10.2818 C   0  0  0  0  0  0  0  0  0  0  0  0
   60.4008   -6.2237   -9.6567 C   0  0  0  0  0  0  0  0  0  0  0  0
   60.3564   -7.6014   -9.6733 F   0  0  0  0  0  0  0  0  0  0  0  0
   61.1968   -5.8609   -8.5724 F   0  0  0  0  0  0  0  0  0  0  0  0
   60.9809   -5.8279  -10.8587 F   0  0  0  0  0  0  0  0  0  0  0  0
   54.5915   -4.9954   -6.1602 C   0  0  0  0  0  0  0  0  0  0  0  0
   54.3549   -7.6599   -3.5301 O   0  0  0  0  0  0  0  0  0  0  0  0
   54.2721   -6.5058   -4.2052 N   0  0  0  0  0  0  0  0  0  0  0  0
   54.7500   -6.3138   -5.5483 C   0  0  0  0  0  0  0  0  0  0  0  0
   55.2689   -7.3355   -6.0682 O   0  0  0  0  0  0  0  0  0  0  0  0
   53.6235   -7.7765   -2.8374 H   0  0  0  0  0  0  0  0  0  0  0  0
   53.8332   -5.6914   -3.7061 H   0  0  0  0  0  0  0  0  0  0  0  0
   52.7571   -5.3710   -7.7021 C   0  0  0  0  0  0  0  0  0  0  0  0
   51.6838   -4.8803   -6.8290 C   0  0  0  0  0  0  0  0  0  0  0  0
   51.1588   -5.6254   -5.7835 C   0  0  0  0  0  0  0  0  0  0  0  0
   50.1576   -5.2099   -4.9576 C   0  0  0  0  0  0  0  0  0  0  0  0
   49.6014   -3.9745   -5.1315 C   0  0  0  0  0  0  0  0  0  0  0  0
   50.0861   -3.1713   -6.1651 C   0  0  0  0  0  0  0  0  0  0  0  0
   51.1026   -3.6255   -6.9872 C   0  0  0  0  0  0  0  0  0  0  0  0
   48.5484   -3.5418   -4.2786 N   0  0  0  0  0  0  0  0  0  0  0  0
   48.0043   -4.3302   -3.2744 O   0  0  0  0  0  0  0  0  0  0  0  0
   48.0524   -2.4029   -4.4066 O   0  0  0  0  0  0  0  0  0  0  0  0
 16 17  1  0  0  0
 17 18  1  0  0  0
 18 19  2  0  0  0
 18 15  1  0  0  0
 15  1  1  0  0  0
  1 22  1  0  0  0
 22 23  1  0  0  0
 23 24  2  0  0  0
 24 25  1  0  0  0
 25 26  2  0  0  0
 26 27  1  0  0  0
 27 28  2  0  0  0
 26 29  1  0  0  0
 29 30  1  0  0  0
 29 31  2  0  0  0
  1  2  1  0  0  0
  2  3  2  0  0  0
  2  4  2  0  0  0
  2  5  1  0  0  0
  5  6  2  0  0  0
  6  7  1  0  0  0
  7  8  2  0  0  0
  8  9  1  0  0  0
  9 10  2  0  0  0
  8 11  1  0  0  0
 11 12  1  0  0  0
 11 13  1  0  0  0
 11 14  1  0  0  0
 28 23  1  0  0  0
 10  5  1  0  0  0
 16 20  1  0  0  0
 17 21  1  0  0  0
M  CHG 1  29   1
M  CHG 1  30  -1
M  END
> <minimizedAffinity>
-9.15894

> <CNNscore>
0.3443317413

> <CNNaffinity>
5.9819092751

> <CNN_VS>
2.0597612858

> <CNNaffinity_variance>
0.1143269911

$$$$
[H]ON([H])C(=O)C([H])([H])N(C([H])([H])c1c([H])c([H])c([N+](=O)[O-])c([H])c1[H])S(=O)(=O)c1c([H])c([H])c(C(F)(F)F)c([H])c1[H]


 31 32  0  0  0  0  0  0  0  0999 V2000
   53.4071   -4.6157   -7.6711 N   0  0  0  0  0  0  0  0  0  0  0  0
   52.6278   -5.5512   -6.5086 S   0  0  0  0  0  0  0  0  0  0  0  0
   51.9573   -6.7411   -7.2033 O   0  0  0  0  0  0  0  0  0  0  0  0
   51.4631   -4.7505   -5.9677 O   0  0  0  0  0  0  0  0  0  0  0  0
   53.6225   -6.1127   -5.2347 C   0  0  0  0  0  0  0  0  0  0  0  0
   54.6083   -7.0612   -5.5279 C   0  0  0  0  0  0  0  0  0  0  0  0
   55.4651   -7.5662   -4.6069 C   0  0  0  0  0  0  0  0  0  0  0  0
   55.3738   -7.1283   -3.2945 C   0  0  0  0  0  0  0  0  0  0  0  0
   54.4339   -6.1967   -2.9318 C   0  0  0  0  0  0  0  0  0  0  0  0
   53.5698   -5.7099   -3.9226 C   0  0  0  0  0  0  0  0  0  0  0  0
   56.3523   -7.6898   -2.3148 C   0  0  0  0  0  0  0  0  0  0  0  0
   57.4398   -6.8530   -2.1825 F   0  0  0  0  0  0  0  0  0  0  0  0
   56.8374   -8.9061   -2.7905 F   0  0  0  0  0  0  0  0  0  0  0  0
   55.8009   -7.8327   -1.0445 F   0  0  0  0  0  0  0  0  0  0  0  0
   52.6644   -4.1321   -8.7322 C   0  0  0  0  0  0  0  0  0  0  0  0
   50.3158   -1.3606   -7.7968 O   0  0  0  0  0  0  0  0  0  0  0  0
   50.8857   -2.5590   -7.9791 N   0  0  0  0  0  0  0  0  0  0  0  0
   52.1668   -2.7636   -8.6006 C   0  0  0  0  0  0  0  0  0  0  0  0
   52.7394   -1.7075   -8.9751 O   0  0  0  0  0  0  0  0  0  0  0  0
   49.6922   -1.3267   -6.9978 H   0  0  0  0  0  0  0  0  0  0  0  0
   50.3471   -3.3990   -7.6483 H   0  0  0  0  0  0  0  0  0  0  0  0
   54.6619   -4.0728   -7.3573 C   0  0  0  0  0  0  0  0  0  0  0  0
   55.8029   -4.3637   -8.2341 C   0  0  0  0  0  0  0  0  0  0  0  0
   55.8272   -4.0297   -9.5801 C   0  0  0  0  0  0  0  0  0  0  0  0
   56.8617   -4.2903  -10.4281 C   0  0  0  0  0  0  0  0  0  0  0  0
   57.9797   -4.9222   -9.9626 C   0  0  0  0  0  0  0  0  0  0  0  0
   58.0215   -5.2837   -8.6151 C   0  0  0  0  0  0  0  0  0  0  0  0
   56.9519   -5.0059   -7.7819 C   0  0  0  0  0  0  0  0  0  0  0  0
   59.0568   -5.2061  -10.8473 N   0  0  0  0  0  0  0  0  0  0  0  0
   60.1835   -5.9259  -10.4747 O   0  0  0  0  0  0  0  0  0  0  0  0
   59.0340   -4.8022  -12.0287 O   0  0  0  0  0  0  0  0  0  0  0  0
 16 17  1  0  0  0
 17 18  1  0  0  0
 18 19  2  0  0  0
 18 15  1  0  0  0
 15  1  1  0  0  0
  1 22  1  0  0  0
 22 23  1  0  0  0
 23 24  2  0  0  0
 24 25  1  0  0  0
 25 26  2  0  0  0
 26 27  1  0  0  0
 27 28  2  0  0  0
 26 29  1  0  0  0
 29 30  1  0  0  0
 29 31  2  0  0  0
  1  2  1  0  0  0
  2  3  2  0  0  0
  2  4  2  0  0  0
  2  5  1  0  0  0
  5  6  2  0  0  0
  6  7  1  0  0  0
  7  8  2  0  0  0
  8  9  1  0  0  0
  9 10  2  0  0  0
  8 11  1  0  0  0
 11 12  1  0  0  0
 11 13  1  0  0  0
 11 14  1  0  0  0
 28 23  1  0  0  0
 10  5  1  0  0  0
 16 20  1  0  0  0
 17 21  1  0  0  0
M  CHG 1  29   1
M  CHG 1  30  -1
M  END
> <minimizedAffinity>
-8.44066

> <CNNscore>
0.2734889984

> <CNNaffinity>
6.3336095810

> <CNN_VS>
1.7321724892

> <CNNaffinity_variance>
0.0710804984

$$$$
[H]ON([H])C(=O)C([H])([H])N(C([H])([H])c1c([H])c([H])c([N+](=O)[O-])c([H])c1[H])S(=O)(=O)c1c([H])c([H])c(C(F)(F)F)c([H])c1[H]


 31 32  0  0  0  0  0  0  0  0999 V2000
   56.3697   -4.9036   -8.3997 N   0  0  0  0  0  0  0  0  0  0  0  0
   55.4035   -3.8861   -9.3296 S   0  0  0  0  0  0  0  0  0  0  0  0
   55.2925   -4.4689  -10.7424 O   0  0  0  0  0  0  0  0  0  0  0  0
   56.1540   -2.5884   -9.5362 O   0  0  0  0  0  0  0  0  0  0  0  0
   53.8390   -3.5898   -8.7034 C   0  0  0  0  0  0  0  0  0  0  0  0
   53.2500   -4.5663   -7.8929 C   0  0  0  0  0  0  0  0  0  0  0  0
   52.0249   -4.4368   -7.3274 C   0  0  0  0  0  0  0  0  0  0  0  0
   51.3005   -3.2765   -7.5541 C   0  0  0  0  0  0  0  0  0  0  0  0
   51.8144   -2.2727   -8.3358 C   0  0  0  0  0  0  0  0  0  0  0  0
   53.0841   -2.4592   -8.8999 C   0  0  0  0  0  0  0  0  0  0  0  0
   49.9656   -3.1614   -6.8927 C   0  0  0  0  0  0  0  0  0  0  0  0
   50.1069   -3.1062   -5.5226 F   0  0  0  0  0  0  0  0  0  0  0  0
   49.2107   -4.2985   -7.1728 F   0  0  0  0  0  0  0  0  0  0  0  0
   49.2892   -2.0052   -7.2719 F   0  0  0  0  0  0  0  0  0  0  0  0
   57.0947   -5.8902   -9.0419 C   0  0  0  0  0  0  0  0  0  0  0  0
   59.3354   -4.6009  -11.7603 O   0  0  0  0  0  0  0  0  0  0  0  0
   58.2764   -5.0179  -11.0539 N   0  0  0  0  0  0  0  0  0  0  0  0
   58.3351   -5.4626   -9.6872 C   0  0  0  0  0  0  0  0  0  0  0  0
   59.4856   -5.4333   -9.1782 O   0  0  0  0  0  0  0  0  0  0  0  0
   59.0999   -3.9323  -12.4855 H   0  0  0  0  0  0  0  0  0  0  0  0
   57.3470   -5.0229  -11.5451 H   0  0  0  0  0  0  0  0  0  0  0  0
   56.6811   -4.5120   -7.0891 C   0  0  0  0  0  0  0  0  0  0  0  0
   56.0625   -5.2272   -5.9663 C   0  0  0  0  0  0  0  0  0  0  0  0
   55.7548   -6.5791   -6.0078 C   0  0  0  0  0  0  0  0  0  0  0  0
   55.1728   -7.2764   -4.9918 C   0  0  0  0  0  0  0  0  0  0  0  0
   54.8539   -6.6401   -3.8259 C   0  0  0  0  0  0  0  0  0  0  0  0
   55.1398   -5.2783   -3.7169 C   0  0  0  0  0  0  0  0  0  0  0  0
   55.7294   -4.5999   -4.7693 C   0  0  0  0  0  0  0  0  0  0  0  0
   54.2359   -7.3620   -2.7674 N   0  0  0  0  0  0  0  0  0  0  0  0
   52.8625   -7.4085   -2.5728 O   0  0  0  0  0  0  0  0  0  0  0  0
   54.9251   -7.9974   -1.9425 O   0  0  0  0  0  0  0  0  0  0  0  0
 16 17  1  0  0  0
 17 18  1  0  0  0
 18 19  2  0  0  0
 18 15  1  0  0  0
 15  1  1  0  0  0
  1 22  1  0  0  0
 22 23  1  0  0  0
 23 24  2  0  0  0
 24 25  1  0  0  0
 25 26  2  0  0  0
 26 27  1  0  0  0
 27 28  2  0  0  0
 26 29  1  0  0  0
 29 30  1  0  0  0
 29 31  2  0  0  0
  1  2  1  0  0  0
  2  3  2  0  0  0
  2  4  2  0  0  0
  2  5  1  0  0  0
  5  6  2  0  0  0
  6  7  1  0  0  0
  7  8  2  0  0  0
  8  9  1  0  0  0
  9 10  2  0  0  0
  8 11  1  0  0  0
 11 12  1  0  0  0
 11 13  1  0  0  0
 11 14  1  0  0  0
 28 23  1  0  0  0
 10  5  1  0  0  0
 16 20  1  0  0  0
 17 21  1  0  0  0
M  CHG 1  29   1
M  CHG 1  30  -1
M  END
> <minimizedAffinity>
-7.19022

> <CNNscore>
0.2223424166

> <CNNaffinity>
6.1917462349

> <CNN_VS>
1.3766877651

> <CNNaffinity_variance>
0.1665097922

$$$$
[H]ON([H])C(=O)C([H])([H])N(C([H])([H])c1c([H])c([H])c([N+](=O)[O-])c([H])c1[H])S(=O)(=O)c1c([H])c([H])c(C(F)(F)F)c([H])c1[H]


 31 32  0  0  0  0  0  0  0  0999 V2000
   55.2876   -3.9523  -10.1040 N   0  0  0  0  0  0  0  0  0  0  0  0
   53.9904   -3.3171   -9.2393 S   0  0  0  0  0  0  0  0  0  0  0  0
   52.7720   -3.2411  -10.1655 O   0  0  0  0  0  0  0  0  0  0  0  0
   54.2975   -1.8674   -8.9331 O   0  0  0  0  0  0  0  0  0  0  0  0
   53.5778   -4.1652   -7.8118 C   0  0  0  0  0  0  0  0  0  0  0  0
   54.5968   -4.8086   -7.1011 C   0  0  0  0  0  0  0  0  0  0  0  0
   54.3943   -5.4955   -5.9502 C   0  0  0  0  0  0  0  0  0  0  0  0
   53.1102   -5.5747   -5.4332 C   0  0  0  0  0  0  0  0  0  0  0  0
   52.0600   -4.9660   -6.0729 C   0  0  0  0  0  0  0  0  0  0  0  0
   52.3236   -4.2718   -7.2619 C   0  0  0  0  0  0  0  0  0  0  0  0
   52.9326   -6.3192   -4.1498 C   0  0  0  0  0  0  0  0  0  0  0  0
   53.8044   -7.3849   -4.0832 F   0  0  0  0  0  0  0  0  0  0  0  0
   51.6454   -6.8498   -4.0970 F   0  0  0  0  0  0  0  0  0  0  0  0
   53.1913   -5.5208   -3.0391 F   0  0  0  0  0  0  0  0  0  0  0  0
   55.0258   -4.6243  -11.2835 C   0  0  0  0  0  0  0  0  0  0  0  0
   56.8574   -4.9444  -14.5416 O   0  0  0  0  0  0  0  0  0  0  0  0
   56.1541   -5.1958  -13.4296 N   0  0  0  0  0  0  0  0  0  0  0  0
   55.7986   -4.2032  -12.4510 C   0  0  0  0  0  0  0  0  0  0  0  0
   56.2040   -3.0416  -12.7154 O   0  0  0  0  0  0  0  0  0  0  0  0
   56.6486   -5.5794  -15.3043 H   0  0  0  0  0  0  0  0  0  0  0  0
   55.8542   -6.1905  -13.2691 H   0  0  0  0  0  0  0  0  0  0  0  0
   56.5780   -3.4917   -9.8031 C   0  0  0  0  0  0  0  0  0  0  0  0
   57.6707   -4.4644   -9.6808 C   0  0  0  0  0  0  0  0  0  0  0  0
   57.9645   -5.1276   -8.4985 C   0  0  0  0  0  0  0  0  0  0  0  0
   58.9744   -6.0291   -8.3421 C   0  0  0  0  0  0  0  0  0  0  0  0
   59.7810   -6.3368   -9.4006 C   0  0  0  0  0  0  0  0  0  0  0  0
   59.5377   -5.7063  -10.6219 C   0  0  0  0  0  0  0  0  0  0  0  0
   58.5047   -4.7936  -10.7454 C   0  0  0  0  0  0  0  0  0  0  0  0
   60.8434   -7.2688   -9.2383 N   0  0  0  0  0  0  0  0  0  0  0  0
   61.2048   -8.1935  -10.2081 O   0  0  0  0  0  0  0  0  0  0  0  0
   61.5099   -7.2972   -8.1827 O   0  0  0  0  0  0  0  0  0  0  0  0
 16 17  1  0  0  0
 17 18  1  0  0  0
 18 19  2  0  0  0
 18 15  1  0  0  0
 15  1  1  0  0  0
  1 22  1  0  0  0
 22 23  1  0  0  0
 23 24  2  0  0  0
 24 25  1  0  0  0
 25 26  2  0  0  0
 26 27  1  0  0  0
 27 28  2  0  0  0
 26 29  1  0  0  0
 29 30  1  0  0  0
 29 31  2  0  0  0
  1  2  1  0  0  0
  2  3  2  0  0  0
  2  4  2  0  0  0
  2  5  1  0  0  0
  5  6  2  0  0  0
  6  7  1  0  0  0
  7  8  2  0  0  0
  8  9  1  0  0  0
  9 10  2  0  0  0
  8 11  1  0  0  0
 11 12  1  0  0  0
 11 13  1  0  0  0
 11 14  1  0  0  0
 28 23  1  0  0  0
 10  5  1  0  0  0
 16 20  1  0  0  0
 17 21  1  0  0  0
M  CHG 1  29   1
M  CHG 1  30  -1
M  END
> <minimizedAffinity>
-5.30169

> <CNNscore>
0.2188466936

> <CNNaffinity>
5.6546392441

> <CNN_VS>
1.2374991179

> <CNNaffinity_variance>
0.1665929109

$$$$
[H]ON([H])C(=O)C([H])([H])N(C([H])([H])c1c([H])c([H])c([N+](=O)[O-])c([H])c1[H])S(=O)(=O)c1c([H])c([H])c(C(F)(F)F)c([H])c1[H]


 31 32  0  0  0  0  0  0  0  0999 V2000
   55.7008   -5.4966   -5.7512 N   0  0  0  0  0  0  0  0  0  0  0  0
   54.2148   -6.2263   -6.0565 S   0  0  0  0  0  0  0  0  0  0  0  0
   53.8493   -7.1158   -4.8634 O   0  0  0  0  0  0  0  0  0  0  0  0
   54.4010   -7.2095   -7.1916 O   0  0  0  0  0  0  0  0  0  0  0  0
   52.9268   -5.1505   -6.3899 C   0  0  0  0  0  0  0  0  0  0  0  0
   51.8515   -5.1015   -5.4961 C   0  0  0  0  0  0  0  0  0  0  0  0
   50.7848   -4.2786   -5.6457 C   0  0  0  0  0  0  0  0  0  0  0  0
   50.7407   -3.4299   -6.7412 C   0  0  0  0  0  0  0  0  0  0  0  0
   51.7605   -3.4191   -7.6591 C   0  0  0  0  0  0  0  0  0  0  0  0
   52.8384   -4.2930   -7.4592 C   0  0  0  0  0  0  0  0  0  0  0  0
   49.5607   -2.5206   -6.8569 C   0  0  0  0  0  0  0  0  0  0  0  0
   48.6616   -3.0086   -7.7809 F   0  0  0  0  0  0  0  0  0  0  0  0
   49.9793   -1.2761   -7.3229 F   0  0  0  0  0  0  0  0  0  0  0  0
   48.8712   -2.3989   -5.6537 F   0  0  0  0  0  0  0  0  0  0  0  0
   56.6702   -6.2293   -5.0920 C   0  0  0  0  0  0  0  0  0  0  0  0
   55.8138   -4.8398   -1.7144 O   0  0  0  0  0  0  0  0  0  0  0  0
   55.8316   -5.1233   -3.0235 N   0  0  0  0  0  0  0  0  0  0  0  0
   56.7714   -6.0146   -3.6493 C   0  0  0  0  0  0  0  0  0  0  0  0
   57.6055   -6.5304   -2.8608 O   0  0  0  0  0  0  0  0  0  0  0  0
   54.8938   -4.5929   -1.3666 H   0  0  0  0  0  0  0  0  0  0  0  0
   55.1099   -4.6505   -3.6241 H   0  0  0  0  0  0  0  0  0  0  0  0
   56.0300   -4.3330   -6.4624 C   0  0  0  0  0  0  0  0  0  0  0  0
   56.5209   -4.4558   -7.8404 C   0  0  0  0  0  0  0  0  0  0  0  0
   57.6879   -5.1289   -8.1707 C   0  0  0  0  0  0  0  0  0  0  0  0
   58.1813   -5.2570   -9.4345 C   0  0  0  0  0  0  0  0  0  0  0  0
   57.5098   -4.7012  -10.4862 C   0  0  0  0  0  0  0  0  0  0  0  0
   56.3252   -4.0114  -10.2233 C   0  0  0  0  0  0  0  0  0  0  0  0
   55.8535   -3.8982   -8.9271 C   0  0  0  0  0  0  0  0  0  0  0  0
   58.0277   -4.8230  -11.8054 N   0  0  0  0  0  0  0  0  0  0  0  0
   57.2349   -5.0594  -12.9198 O   0  0  0  0  0  0  0  0  0  0  0  0
   59.2540   -4.7249  -12.0198 O   0  0  0  0  0  0  0  0  0  0  0  0
 16 17  1  0  0  0
 17 18  1  0  0  0
 18 19  2  0  0  0
 18 15  1  0  0  0
 15  1  1  0  0  0
  1 22  1  0  0  0
 22 23  1  0  0  0
 23 24  2  0  0  0
 24 25  1  0  0  0
 25 26  2  0  0  0
 26 27  1  0  0  0
 27 28  2  0  0  0
 26 29  1  0  0  0
 29 30  1  0  0  0
 29 31  2  0  0  0
  1  2  1  0  0  0
  2  3  2  0  0  0
  2  4  2  0  0  0
  2  5  1  0  0  0
  5  6  2  0  0  0
  6  7  1  0  0  0
  7  8  2  0  0  0
  8  9  1  0  0  0
  9 10  2  0  0  0
  8 11  1  0  0  0
 11 12  1  0  0  0
 11 13  1  0  0  0
 11 14  1  0  0  0
 28 23  1  0  0  0
 10  5  1  0  0  0
 16 20  1  0  0  0
 17 21  1  0  0  0
M  CHG 1  29   1
M  CHG 1  30  -1
M  END
> <minimizedAffinity>
-9.65072

> <CNNscore>
0.2125127763

> <CNNaffinity>
6.0979528427

> <CNN_VS>
1.2958928347

> <CNNaffinity_variance>
0.1614206284

$$$$
[H]ON([H])C(=O)C([H])([H])N(C([H])([H])c1c([H])c([H])c([N+](=O)[O-])c([H])c1[H])S(=O)(=O)c1c([H])c([H])c(C(F)(F)F)c([H])c1[H]


 31 32  0  0  0  0  0  0  0  0999 V2000
   57.9718   -5.4938   -8.9095 N   0  0  0  0  0  0  0  0  0  0  0  0
   56.6372   -4.9279   -8.0537 S   0  0  0  0  0  0  0  0  0  0  0  0
   55.4652   -4.7580   -9.0263 O   0  0  0  0  0  0  0  0  0  0  0  0
   56.9355   -3.5145   -7.6031 O   0  0  0  0  0  0  0  0  0  0  0  0
   56.1523   -5.8978   -6.7302 C   0  0  0  0  0  0  0  0  0  0  0  0
   57.0982   -6.2015   -5.7451 C   0  0  0  0  0  0  0  0  0  0  0  0
   56.8272   -6.9451   -4.6446 C   0  0  0  0  0  0  0  0  0  0  0  0
   55.5442   -7.4405   -4.4689 C   0  0  0  0  0  0  0  0  0  0  0  0
   54.5620   -7.1812   -5.3913 C   0  0  0  0  0  0  0  0  0  0  0  0
   54.8966   -6.4104   -6.5135 C   0  0  0  0  0  0  0  0  0  0  0  0
   55.2793   -8.2339   -3.2308 C   0  0  0  0  0  0  0  0  0  0  0  0
   54.6375   -7.4602   -2.2875 F   0  0  0  0  0  0  0  0  0  0  0  0
   56.4902   -8.6310   -2.6676 F   0  0  0  0  0  0  0  0  0  0  0  0
   54.4570   -9.3303   -3.4752 F   0  0  0  0  0  0  0  0  0  0  0  0
   57.8095   -5.8141  -10.2445 C   0  0  0  0  0  0  0  0  0  0  0  0
   57.2328   -2.4819  -11.8682 O   0  0  0  0  0  0  0  0  0  0  0  0
   57.1663   -3.5516  -11.0646 N   0  0  0  0  0  0  0  0  0  0  0  0
   57.9940   -4.7205  -11.1973 C   0  0  0  0  0  0  0  0  0  0  0  0
   58.8149   -4.6729  -12.1499 O   0  0  0  0  0  0  0  0  0  0  0  0
   56.9508   -1.6188  -11.4167 H   0  0  0  0  0  0  0  0  0  0  0  0
   56.4520   -3.5257  -10.2938 H   0  0  0  0  0  0  0  0  0  0  0  0
   59.2477   -5.2939   -8.3618 C   0  0  0  0  0  0  0  0  0  0  0  0
   60.3231   -6.2341   -8.7004 C   0  0  0  0  0  0  0  0  0  0  0  0
   60.8005   -7.1886   -7.8144 C   0  0  0  0  0  0  0  0  0  0  0  0
   61.8018   -8.0719   -8.0870 C   0  0  0  0  0  0  0  0  0  0  0  0
   62.4077   -8.0561   -9.3111 C   0  0  0  0  0  0  0  0  0  0  0  0
   61.9727   -7.1211  -10.2516 C   0  0  0  0  0  0  0  0  0  0  0  0
   60.9545   -6.2366   -9.9408 C   0  0  0  0  0  0  0  0  0  0  0  0
   63.4610   -8.9690   -9.5954 N   0  0  0  0  0  0  0  0  0  0  0  0
   63.8486   -9.3130  -10.8829 O   0  0  0  0  0  0  0  0  0  0  0  0
   64.0947   -9.5184   -8.6703 O   0  0  0  0  0  0  0  0  0  0  0  0
 16 17  1  0  0  0
 17 18  1  0  0  0
 18 19  2  0  0  0
 18 15  1  0  0  0
 15  1  1  0  0  0
  1 22  1  0  0  0
 22 23  1  0  0  0
 23 24  2  0  0  0
 24 25  1  0  0  0
 25 26  2  0  0  0
 26 27  1  0  0  0
 27 28  2  0  0  0
 26 29  1  0  0  0
 29 30  1  0  0  0
 29 31  2  0  0  0
  1  2  1  0  0  0
  2  3  2  0  0  0
  2  4  2  0  0  0
  2  5  1  0  0  0
  5  6  2  0  0  0
  6  7  1  0  0  0
  7  8  2  0  0  0
  8  9  1  0  0  0
  9 10  2  0  0  0
  8 11  1  0  0  0
 11 12  1  0  0  0
 11 13  1  0  0  0
 11 14  1  0  0  0
 28 23  1  0  0  0
 10  5  1  0  0  0
 16 20  1  0  0  0
 17 21  1  0  0  0
M  CHG 1  29   1
M  CHG 1  30  -1
M  END
> <minimizedAffinity>
-4.61099

> <CNNscore>
0.2075912505

> <CNNaffinity>
5.1878042221

> <CNN_VS>
1.0769428015

> <CNNaffinity_variance>
0.2602297366

$$$$
[H]ON([H])C(=O)C([H])([H])N(C([H])([H])c1c([H])c([H])c([N+](=O)[O-])c([H])c1[H])S(=O)(=O)c1c([H])c([H])c(C(F)(F)F)c([H])c1[H]


 31 32  0  0  0  0  0  0  0  0999 V2000
   54.9400   -6.6218   -6.2206 N   0  0  0  0  0  0  0  0  0  0  0  0
   56.1451   -5.4662   -6.4353 S   0  0  0  0  0  0  0  0  0  0  0  0
   57.3985   -5.9160   -5.6771 O   0  0  0  0  0  0  0  0  0  0  0  0
   55.7209   -4.2078   -5.7099 O   0  0  0  0  0  0  0  0  0  0  0  0
   56.5474   -5.1230   -8.0625 C   0  0  0  0  0  0  0  0  0  0  0  0
   55.6584   -4.3531   -8.8203 C   0  0  0  0  0  0  0  0  0  0  0  0
   55.8769   -4.0032  -10.1116 C   0  0  0  0  0  0  0  0  0  0  0  0
   57.0434   -4.4234  -10.7323 C   0  0  0  0  0  0  0  0  0  0  0  0
   57.9647   -5.1789  -10.0517 C   0  0  0  0  0  0  0  0  0  0  0  0
   57.6877   -5.5163   -8.7195 C   0  0  0  0  0  0  0  0  0  0  0  0
   57.2591   -3.9959  -12.1477 C   0  0  0  0  0  0  0  0  0  0  0  0
   57.3101   -5.0918  -12.9824 F   0  0  0  0  0  0  0  0  0  0  0  0
   58.4903   -3.3526  -12.2543 F   0  0  0  0  0  0  0  0  0  0  0  0
   56.2282   -3.1852  -12.6147 F   0  0  0  0  0  0  0  0  0  0  0  0
   54.8888   -7.3033   -5.0188 C   0  0  0  0  0  0  0  0  0  0  0  0
   55.2002   -4.8688   -2.1817 O   0  0  0  0  0  0  0  0  0  0  0  0
   55.4434   -5.6380   -3.2512 N   0  0  0  0  0  0  0  0  0  0  0  0
   54.4812   -6.5228   -3.8516 C   0  0  0  0  0  0  0  0  0  0  0  0
   53.3556   -6.5284   -3.2889 O   0  0  0  0  0  0  0  0  0  0  0  0
   55.7604   -4.0239   -2.1556 H   0  0  0  0  0  0  0  0  0  0  0  0
   56.4082   -5.5880   -3.6656 H   0  0  0  0  0  0  0  0  0  0  0  0
   53.8428   -6.6102   -7.0948 C   0  0  0  0  0  0  0  0  0  0  0  0
   52.7953   -5.5987   -6.9090 C   0  0  0  0  0  0  0  0  0  0  0  0
   52.7397   -4.4233   -7.6435 C   0  0  0  0  0  0  0  0  0  0  0  0
   51.7905   -3.4569   -7.4949 C   0  0  0  0  0  0  0  0  0  0  0  0
   50.7985   -3.6149   -6.5692 C   0  0  0  0  0  0  0  0  0  0  0  0
   50.7941   -4.7779   -5.7974 C   0  0  0  0  0  0  0  0  0  0  0  0
   51.7750   -5.7384   -5.9726 C   0  0  0  0  0  0  0  0  0  0  0  0
   49.8125   -2.6031   -6.4032 N   0  0  0  0  0  0  0  0  0  0  0  0
   48.8691   -2.6137   -5.3853 O   0  0  0  0  0  0  0  0  0  0  0  0
   49.7506   -1.6384   -7.1937 O   0  0  0  0  0  0  0  0  0  0  0  0
 16 17  1  0  0  0
 17 18  1  0  0  0
 18 19  2  0  0  0
 18 15  1  0  0  0
 15  1  1  0  0  0
  1 22  1  0  0  0
 22 23  1  0  0  0
 23 24  2  0  0  0
 24 25  1  0  0  0
 25 26  2  0  0  0
 26 27  1  0  0  0
 27 28  2  0  0  0
 26 29  1  0  0  0
 29 30  1  0  0  0
 29 31  2  0  0  0
  1  2  1  0  0  0
  2  3  2  0  0  0
  2  4  2  0  0  0
  2  5  1  0  0  0
  5  6  2  0  0  0
  6  7  1  0  0  0
  7  8  2  0  0  0
  8  9  1  0  0  0
  9 10  2  0  0  0
  8 11  1  0  0  0
 11 12  1  0  0  0
 11 13  1  0  0  0
 11 14  1  0  0  0
 28 23  1  0  0  0
 10  5  1  0  0  0
 16 20  1  0  0  0
 17 21  1  0  0  0
M  CHG 1  29   1
M  CHG 1  30  -1
M  END
> <minimizedAffinity>
-9.05946

> <CNNscore>
0.2056614012

> <CNNaffinity>
6.1564741135

> <CNN_VS>
1.2661490440

> <CNNaffinity_variance>
0.0596967414

$$$$
[H]ON([H])C(=O)C([H])([H])N(C([H])([H])c1c([H])c([H])c([N+](=O)[O-])c([H])c1[H])S(=O)(=O)c1c([H])c([H])c(C(F)(F)F)c([H])c1[H]


 31 32  0  0  0  0  0  0  0  0999 V2000
   54.5981   -4.3657   -9.1979 N   0  0  0  0  0  0  0  0  0  0  0  0
   53.5018   -3.1137   -8.9440 S   0  0  0  0  0  0  0  0  0  0  0  0
   52.8201   -2.7794  -10.2751 O   0  0  0  0  0  0  0  0  0  0  0  0
   54.2882   -1.8619   -8.6209 O   0  0  0  0  0  0  0  0  0  0  0  0
   52.3158   -3.4118   -7.7474 C   0  0  0  0  0  0  0  0  0  0  0  0
   52.5267   -4.4620   -6.8475 C   0  0  0  0  0  0  0  0  0  0  0  0
   51.6679   -4.7819   -5.8487 C   0  0  0  0  0  0  0  0  0  0  0  0
   50.5093   -4.0357   -5.6955 C   0  0  0  0  0  0  0  0  0  0  0  0
   50.2357   -2.9880   -6.5381 C   0  0  0  0  0  0  0  0  0  0  0  0
   51.1553   -2.7021   -7.5569 C   0  0  0  0  0  0  0  0  0  0  0  0
   49.6011   -4.4037   -4.5675 C   0  0  0  0  0  0  0  0  0  0  0  0
   50.2401   -4.2387   -3.3572 F   0  0  0  0  0  0  0  0  0  0  0  0
   49.2665   -5.7528   -4.6639 F   0  0  0  0  0  0  0  0  0  0  0  0
   48.4606   -3.6063   -4.5296 F   0  0  0  0  0  0  0  0  0  0  0  0
   55.0424   -5.0831   -8.1028 C   0  0  0  0  0  0  0  0  0  0  0  0
   57.0300   -2.8276   -5.8590 O   0  0  0  0  0  0  0  0  0  0  0  0
   56.0413   -3.4134   -6.5473 N   0  0  0  0  0  0  0  0  0  0  0  0
   56.2159   -4.5481   -7.4140 C   0  0  0  0  0  0  0  0  0  0  0  0
   57.3986   -4.9716   -7.4869 O   0  0  0  0  0  0  0  0  0  0  0  0
   56.7179   -2.3813   -5.0036 H   0  0  0  0  0  0  0  0  0  0  0  0
   55.0794   -3.0021   -6.4444 H   0  0  0  0  0  0  0  0  0  0  0  0
   54.7517   -4.8624  -10.5008 C   0  0  0  0  0  0  0  0  0  0  0  0
   55.9547   -4.5042  -11.2621 C   0  0  0  0  0  0  0  0  0  0  0  0
   55.9106   -3.9984  -12.5529 C   0  0  0  0  0  0  0  0  0  0  0  0
   57.0031   -3.6630  -13.2952 C   0  0  0  0  0  0  0  0  0  0  0  0
   58.2548   -3.8157  -12.7700 C   0  0  0  0  0  0  0  0  0  0  0  0
   58.3703   -4.3179  -11.4728 C   0  0  0  0  0  0  0  0  0  0  0  0
   57.2396   -4.6509  -10.7474 C   0  0  0  0  0  0  0  0  0  0  0  0
   59.3981   -3.4775  -13.5459 N   0  0  0  0  0  0  0  0  0  0  0  0
   59.4331   -3.5560  -14.9311 O   0  0  0  0  0  0  0  0  0  0  0  0
   60.4497   -3.0900  -12.9951 O   0  0  0  0  0  0  0  0  0  0  0  0
 16 17  1  0  0  0
 17 18  1  0  0  0
 18 19  2  0  0  0
 18 15  1  0  0  0
 15  1  1  0  0  0
  1 22  1  0  0  0
 22 23  1  0  0  0
 23 24  2  0  0  0
 24 25  1  0  0  0
 25 26  2  0  0  0
 26 27  1  0  0  0
 27 28  2  0  0  0
 26 29  1  0  0  0
 29 30  1  0  0  0
 29 31  2  0  0  0
  1  2  1  0  0  0
  2  3  2  0  0  0
  2  4  2  0  0  0
  2  5  1  0  0  0
  5  6  2  0  0  0
  6  7  1  0  0  0
  7  8  2  0  0  0
  8  9  1  0  0  0
  9 10  2  0  0  0
  8 11  1  0  0  0
 11 12  1  0  0  0
 11 13  1  0  0  0
 11 14  1  0  0  0
 28 23  1  0  0  0
 10  5  1  0  0  0
 16 20  1  0  0  0
 17 21  1  0  0  0
M  CHG 1  29   1
M  CHG 1  30  -1
M  END
> <minimizedAffinity>
-7.00850

> <CNNscore>
0.2043335289

> <CNNaffinity>
6.1084938049

> <CNN_VS>
1.2481701374

> <CNNaffinity_variance>
0.1466242522

$$$$
[H]c1nc2c([H])c([H])c([H])c([H])c2c(-c2c([H])nn3c([H])c(-c4c([H])c([H])c(N([H])[H])c(OC([H])([H])[H])c4[H])c([H])nc23)c1[H]


 30 34  0  0  0  0  0  0  0  0999 V2000
   55.4941   -4.1406   -9.6421 C   0  0  0  0  0  0  0  0  0  0  0  0
   55.3510   -4.9618   -8.5167 C   0  0  0  0  0  0  0  0  0  0  0  0
   54.2431   -4.9017   -7.7716 N   0  0  0  0  0  0  0  0  0  0  0  0
   53.2314   -4.0719   -8.0534 C   0  0  0  0  0  0  0  0  0  0  0  0
   51.9936   -3.8311   -7.4389 C   0  0  0  0  0  0  0  0  0  0  0  0
   51.4034   -2.8612   -8.2055 C   0  0  0  0  0  0  0  0  0  0  0  0
   52.2466   -2.5543   -9.2092 N   0  0  0  0  0  0  0  0  0  0  0  0
   53.3454   -3.2746   -9.1273 N   0  0  0  0  0  0  0  0  0  0  0  0
   54.4550   -3.2913   -9.9271 C   0  0  0  0  0  0  0  0  0  0  0  0
   51.5511   -4.5379   -6.2510 C   0  0  0  0  0  0  0  0  0  0  0  0
   52.2122   -5.6366   -5.7365 C   0  0  0  0  0  0  0  0  0  0  0  0
   51.8197   -6.3047   -4.6045 C   0  0  0  0  0  0  0  0  0  0  0  0
   50.7321   -5.8630   -3.9642 N   0  0  0  0  0  0  0  0  0  0  0  0
   50.0267   -4.7989   -4.3962 C   0  0  0  0  0  0  0  0  0  0  0  0
   48.9088   -4.3867   -3.6899 C   0  0  0  0  0  0  0  0  0  0  0  0
   48.1637   -3.3080   -4.0947 C   0  0  0  0  0  0  0  0  0  0  0  0
   48.5680   -2.6418   -5.2396 C   0  0  0  0  0  0  0  0  0  0  0  0
   49.6812   -3.0533   -5.9414 C   0  0  0  0  0  0  0  0  0  0  0  0
   50.4339   -4.1222   -5.5532 C   0  0  0  0  0  0  0  0  0  0  0  0
   58.9323   -5.0088  -10.8989 C   0  0  0  0  0  0  0  0  0  0  0  0
   57.8047   -4.9817  -10.1043 C   0  0  0  0  0  0  0  0  0  0  0  0
   56.7152   -4.2175  -10.4519 C   0  0  0  0  0  0  0  0  0  0  0  0
   56.8165   -3.4876  -11.6312 C   0  0  0  0  0  0  0  0  0  0  0  0
   57.9371   -3.5081  -12.4310 C   0  0  0  0  0  0  0  0  0  0  0  0
   59.0287   -4.2784  -12.0747 C   0  0  0  0  0  0  0  0  0  0  0  0
   60.1975   -4.3189  -12.8690 N   0  0  0  0  0  0  0  0  0  0  0  0
   60.1134   -4.3716  -13.9043 H   0  0  0  0  0  0  0  0  0  0  0  0
   61.1600   -4.2979  -12.4708 H   0  0  0  0  0  0  0  0  0  0  0  0
   60.2974   -6.1498   -9.2184 C   0  0  0  0  0  0  0  0  0  0  0  0
   60.0508   -5.7736  -10.5704 O   0  0  0  0  0  0  0  0  0  0  0  0
 29 30  1  0  0  0
 30 20  1  0  0  0
 20 21  2  0  0  0
 21 22  1  0  0  0
 22 23  2  0  0  0
 23 24  1  0  0  0
 24 25  2  0  0  0
 25 26  1  0  0  0
 22  1  1  0  0  0
  1  2  1  0  0  0
  2  3  2  0  0  0
  3  4  1  0  0  0
  4  5  2  0  0  0
  5  6  1  0  0  0
  6  7  2  0  0  0
  7  8  1  0  0  0
  8  9  1  0  0  0
  5 10  1  0  0  0
 10 11  2  0  0  0
 11 12  1  0  0  0
 12 13  2  0  0  0
 13 14  1  0  0  0
 14 15  2  0  0  0
 15 16  1  0  0  0
 16 17  2  0  0  0
 17 18  1  0  0  0
 18 19  2  0  0  0
 25 20  1  0  0  0
  9  1  2  0  0  0
 19 10  1  0  0  0
  8  4  1  0  0  0
 19 14  1  0  0  0
 26 27  1  0  0  0
 26 28  1  0  0  0
M  END
> <minimizedAffinity>
-10.95720

> <CNNscore>
0.8329180479

> <CNNaffinity>
7.1491203308

> <CNN_VS>
5.9546313286

> <CNNaffinity_variance>
0.0949137509

$$$$
[H]c1nc2c([H])c([H])c([H])c([H])c2c(-c2c([H])nn3c([H])c(-c4c([H])c([H])c(N([H])[H])c(OC([H])([H])[H])c4[H])c([H])nc23)c1[H]


 30 34  0  0  0  0  0  0  0  0999 V2000
   54.9519   -4.2575   -8.6062 C   0  0  0  0  0  0  0  0  0  0  0  0
   54.4876   -4.6494   -7.3443 C   0  0  0  0  0  0  0  0  0  0  0  0
   53.2686   -4.2908   -6.9305 N   0  0  0  0  0  0  0  0  0  0  0  0
   52.4421   -3.5536   -7.6823 C   0  0  0  0  0  0  0  0  0  0  0  0
   51.1448   -3.0618   -7.4752 C   0  0  0  0  0  0  0  0  0  0  0  0
   50.8423   -2.3747   -8.6211 C   0  0  0  0  0  0  0  0  0  0  0  0
   51.9005   -2.4608   -9.4490 N   0  0  0  0  0  0  0  0  0  0  0  0
   52.8649   -3.1656   -8.8958 N   0  0  0  0  0  0  0  0  0  0  0  0
   54.1019   -3.5017   -9.3733 C   0  0  0  0  0  0  0  0  0  0  0  0
   50.3907   -3.3107   -6.2603 C   0  0  0  0  0  0  0  0  0  0  0  0
   49.2924   -2.5602   -5.8869 C   0  0  0  0  0  0  0  0  0  0  0  0
   48.5564   -2.7933   -4.7529 C   0  0  0  0  0  0  0  0  0  0  0  0
   48.9277   -3.8078   -3.9650 N   0  0  0  0  0  0  0  0  0  0  0  0
   49.9864   -4.5906   -4.2527 C   0  0  0  0  0  0  0  0  0  0  0  0
   50.3222   -5.6282   -3.3989 C   0  0  0  0  0  0  0  0  0  0  0  0
   51.3913   -6.4490   -3.6553 C   0  0  0  0  0  0  0  0  0  0  0  0
   52.1283   -6.2039   -4.8020 C   0  0  0  0  0  0  0  0  0  0  0  0
   51.7926   -5.1708   -5.6511 C   0  0  0  0  0  0  0  0  0  0  0  0
   50.7330   -4.3460   -5.4125 C   0  0  0  0  0  0  0  0  0  0  0  0
   57.9692   -5.0126  -10.7230 C   0  0  0  0  0  0  0  0  0  0  0  0
   56.6991   -4.6127  -10.3616 C   0  0  0  0  0  0  0  0  0  0  0  0
   56.2921   -4.6591   -9.0485 C   0  0  0  0  0  0  0  0  0  0  0  0
   57.2209   -5.1243   -8.1240 C   0  0  0  0  0  0  0  0  0  0  0  0
   58.4906   -5.5255   -8.4747 C   0  0  0  0  0  0  0  0  0  0  0  0
   58.8923   -5.4764   -9.7968 C   0  0  0  0  0  0  0  0  0  0  0  0
   60.1862   -5.8855  -10.1933 N   0  0  0  0  0  0  0  0  0  0  0  0
   61.0089   -5.6186   -9.6157 H   0  0  0  0  0  0  0  0  0  0  0  0
   60.3695   -6.4517  -11.0484 H   0  0  0  0  0  0  0  0  0  0  0  0
   58.9041   -3.7661  -12.6104 C   0  0  0  0  0  0  0  0  0  0  0  0
   58.4077   -4.9767  -12.0460 O   0  0  0  0  0  0  0  0  0  0  0  0
 29 30  1  0  0  0
 30 20  1  0  0  0
 20 21  2  0  0  0
 21 22  1  0  0  0
 22 23  2  0  0  0
 23 24  1  0  0  0
 24 25  2  0  0  0
 25 26  1  0  0  0
 22  1  1  0  0  0
  1  2  1  0  0  0
  2  3  2  0  0  0
  3  4  1  0  0  0
  4  5  2  0  0  0
  5  6  1  0  0  0
  6  7  2  0  0  0
  7  8  1  0  0  0
  8  9  1  0  0  0
  5 10  1  0  0  0
 10 11  2  0  0  0
 11 12  1  0  0  0
 12 13  2  0  0  0
 13 14  1  0  0  0
 14 15  2  0  0  0
 15 16  1  0  0  0
 16 17  2  0  0  0
 17 18  1  0  0  0
 18 19  2  0  0  0
 25 20  1  0  0  0
  9  1  2  0  0  0
 19 10  1  0  0  0
  8  4  1  0  0  0
 19 14  1  0  0  0
 26 27  1  0  0  0
 26 28  1  0  0  0
M  END
> <minimizedAffinity>
-11.37076

> <CNNscore>
0.8208990693

> <CNNaffinity>
7.4194564819

> <CNN_VS>
6.0906248093

> <CNNaffinity_variance>
0.2073772848

$$$$
[H]c1nc2c([H])c([H])c([H])c([H])c2c(-c2c([H])nn3c([H])c(-c4c([H])c([H])c(N([H])[H])c(OC([H])([H])[H])c4[H])c([H])nc23)c1[H]


 30 34  0  0  0  0  0  0  0  0999 V2000
   55.4137   -4.0958   -9.7697 C   0  0  0  0  0  0  0  0  0  0  0  0
   55.3232   -4.9200   -8.6409 C   0  0  0  0  0  0  0  0  0  0  0  0
   54.2436   -4.8744   -7.8546 N   0  0  0  0  0  0  0  0  0  0  0  0
   53.2118   -4.0570   -8.0969 C   0  0  0  0  0  0  0  0  0  0  0  0
   51.9951   -3.8322   -7.4359 C   0  0  0  0  0  0  0  0  0  0  0  0
   51.3645   -2.8688   -8.1782 C   0  0  0  0  0  0  0  0  0  0  0  0
   52.1655   -2.5504   -9.2124 N   0  0  0  0  0  0  0  0  0  0  0  0
   53.2754   -3.2571   -9.1730 N   0  0  0  0  0  0  0  0  0  0  0  0
   54.3542   -3.2591  -10.0140 C   0  0  0  0  0  0  0  0  0  0  0  0
   51.6063   -4.5458   -6.2332 C   0  0  0  0  0  0  0  0  0  0  0  0
   52.3226   -5.6116   -5.7235 C   0  0  0  0  0  0  0  0  0  0  0  0
   51.9811   -6.2849   -4.5781 C   0  0  0  0  0  0  0  0  0  0  0  0
   50.8894   -5.8826   -3.9193 N   0  0  0  0  0  0  0  0  0  0  0  0
   50.1319   -4.8525   -4.3453 C   0  0  0  0  0  0  0  0  0  0  0  0
   49.0125   -4.4803   -3.6196 C   0  0  0  0  0  0  0  0  0  0  0  0
   48.2154   -3.4369   -4.0178 C   0  0  0  0  0  0  0  0  0  0  0  0
   48.5685   -2.7650   -5.1763 C   0  0  0  0  0  0  0  0  0  0  0  0
   49.6833   -3.1367   -5.8974 C   0  0  0  0  0  0  0  0  0  0  0  0
   50.4873   -4.1701   -5.5160 C   0  0  0  0  0  0  0  0  0  0  0  0
   57.7469   -3.8842  -12.7135 C   0  0  0  0  0  0  0  0  0  0  0  0
   56.5992   -3.7974  -11.9527 C   0  0  0  0  0  0  0  0  0  0  0  0
   56.6043   -4.1566  -10.6250 C   0  0  0  0  0  0  0  0  0  0  0  0
   57.8140   -4.6039  -10.1050 C   0  0  0  0  0  0  0  0  0  0  0  0
   58.9647   -4.6940  -10.8558 C   0  0  0  0  0  0  0  0  0  0  0  0
   58.9515   -4.3316  -12.1901 C   0  0  0  0  0  0  0  0  0  0  0  0
   60.1127   -4.4165  -12.9920 N   0  0  0  0  0  0  0  0  0  0  0  0
   61.0285   -4.1129  -12.6037 H   0  0  0  0  0  0  0  0  0  0  0  0
   60.1063   -4.7737  -13.9707 H   0  0  0  0  0  0  0  0  0  0  0  0
   56.5963   -3.6456  -14.8603 C   0  0  0  0  0  0  0  0  0  0  0  0
   57.7700   -3.5275  -14.0611 O   0  0  0  0  0  0  0  0  0  0  0  0
 29 30  1  0  0  0
 30 20  1  0  0  0
 20 21  2  0  0  0
 21 22  1  0  0  0
 22 23  2  0  0  0
 23 24  1  0  0  0
 24 25  2  0  0  0
 25 26  1  0  0  0
 22  1  1  0  0  0
  1  2  1  0  0  0
  2  3  2  0  0  0
  3  4  1  0  0  0
  4  5  2  0  0  0
  5  6  1  0  0  0
  6  7  2  0  0  0
  7  8  1  0  0  0
  8  9  1  0  0  0
  5 10  1  0  0  0
 10 11  2  0  0  0
 11 12  1  0  0  0
 12 13  2  0  0  0
 13 14  1  0  0  0
 14 15  2  0  0  0
 15 16  1  0  0  0
 16 17  2  0  0  0
 17 18  1  0  0  0
 18 19  2  0  0  0
 25 20  1  0  0  0
  9  1  2  0  0  0
 19 10  1  0  0  0
  8  4  1  0  0  0
 19 14  1  0  0  0
 26 27  1  0  0  0
 26 28  1  0  0  0
M  END
> <minimizedAffinity>
-10.42442

> <CNNscore>
0.6689102054

> <CNNaffinity>
7.0844206810

> <CNN_VS>
4.7388410568

> <CNNaffinity_variance>
0.1335633695

$$$$
[H]c1nc2c([H])c([H])c([H])c([H])c2c(-c2c([H])nn3c([H])c(-c4c([H])c([H])c(N([H])[H])c(OC([H])([H])[H])c4[H])c([H])nc23)c1[H]


 30 34  0  0  0  0  0  0  0  0999 V2000
   51.7561   -4.1538   -6.5504 C   0  0  0  0  0  0  0  0  0  0  0  0
   52.9807   -4.7676   -6.2587 C   0  0  0  0  0  0  0  0  0  0  0  0
   53.9883   -4.7181   -7.1352 N   0  0  0  0  0  0  0  0  0  0  0  0
   53.8853   -4.0929   -8.3143 C   0  0  0  0  0  0  0  0  0  0  0  0
   54.7804   -3.9058   -9.3780 C   0  0  0  0  0  0  0  0  0  0  0  0
   54.0796   -3.1783  -10.3034 C   0  0  0  0  0  0  0  0  0  0  0  0
   52.8478   -2.9531   -9.8087 N   0  0  0  0  0  0  0  0  0  0  0  0
   52.7211   -3.4971   -8.6167 N   0  0  0  0  0  0  0  0  0  0  0  0
   51.6547   -3.5146   -7.7601 C   0  0  0  0  0  0  0  0  0  0  0  0
   56.1379   -4.4195   -9.3672 C   0  0  0  0  0  0  0  0  0  0  0  0
   56.6980   -5.0486   -8.2720 C   0  0  0  0  0  0  0  0  0  0  0  0
   57.9718   -5.5573   -8.2506 C   0  0  0  0  0  0  0  0  0  0  0  0
   58.7118   -5.4347   -9.3575 N   0  0  0  0  0  0  0  0  0  0  0  0
   58.2454   -4.8351  -10.4708 C   0  0  0  0  0  0  0  0  0  0  0  0
   59.0584   -4.7391  -11.5880 C   0  0  0  0  0  0  0  0  0  0  0  0
   58.6221   -4.1378  -12.7415 C   0  0  0  0  0  0  0  0  0  0  0  0
   57.3350   -3.6264  -12.7517 C   0  0  0  0  0  0  0  0  0  0  0  0
   56.5269   -3.7230  -11.6388 C   0  0  0  0  0  0  0  0  0  0  0  0
   56.9435   -4.3181  -10.4846 C   0  0  0  0  0  0  0  0  0  0  0  0
   49.6309   -5.0188   -3.5688 C   0  0  0  0  0  0  0  0  0  0  0  0
   50.6972   -4.9915   -4.4440 C   0  0  0  0  0  0  0  0  0  0  0  0
   50.6585   -4.2149   -5.5786 C   0  0  0  0  0  0  0  0  0  0  0  0
   49.5014   -3.4722   -5.7865 C   0  0  0  0  0  0  0  0  0  0  0  0
   48.4322   -3.4925   -4.9191 C   0  0  0  0  0  0  0  0  0  0  0  0
   48.4783   -4.2761   -3.7808 C   0  0  0  0  0  0  0  0  0  0  0  0
   47.3970   -4.3253   -2.8714 N   0  0  0  0  0  0  0  0  0  0  0  0
   46.8997   -3.4482   -2.6165 H   0  0  0  0  0  0  0  0  0  0  0  0
   47.0600   -5.2076   -2.4316 H   0  0  0  0  0  0  0  0  0  0  0  0
   50.8202   -6.5012   -2.0268 C   0  0  0  0  0  0  0  0  0  0  0  0
   49.6429   -5.7970   -2.4120 O   0  0  0  0  0  0  0  0  0  0  0  0
 29 30  1  0  0  0
 30 20  1  0  0  0
 20 21  2  0  0  0
 21 22  1  0  0  0
 22 23  2  0  0  0
 23 24  1  0  0  0
 24 25  2  0  0  0
 25 26  1  0  0  0
 22  1  1  0  0  0
  1  2  1  0  0  0
  2  3  2  0  0  0
  3  4  1  0  0  0
  4  5  2  0  0  0
  5  6  1  0  0  0
  6  7  2  0  0  0
  7  8  1  0  0  0
  8  9  1  0  0  0
  5 10  1  0  0  0
 10 11  2  0  0  0
 11 12  1  0  0  0
 12 13  2  0  0  0
 13 14  1  0  0  0
 14 15  2  0  0  0
 15 16  1  0  0  0
 16 17  2  0  0  0
 17 18  1  0  0  0
 18 19  2  0  0  0
 25 20  1  0  0  0
  9  1  2  0  0  0
 19 10  1  0  0  0
  8  4  1  0  0  0
 19 14  1  0  0  0
 26 27  1  0  0  0
 26 28  1  0  0  0
M  END
> <minimizedAffinity>
-9.18116

> <CNNscore>
0.5376458764

> <CNNaffinity>
6.9592065811

> <CNN_VS>
3.7415888309

> <CNNaffinity_variance>
0.0888468847

$$$$
[H]c1nc2c([H])c([H])c([H])c([H])c2c(-c2c([H])nn3c([H])c(-c4c([H])c([H])c(N([H])[H])c(OC([H])([H])[H])c4[H])c([H])nc23)c1[H]


 30 34  0  0  0  0  0  0  0  0999 V2000
   55.5139   -4.2285   -9.9105 C   0  0  0  0  0  0  0  0  0  0  0  0
   54.3282   -3.4832   -9.9232 C   0  0  0  0  0  0  0  0  0  0  0  0
   53.4363   -3.6137   -8.9365 N   0  0  0  0  0  0  0  0  0  0  0  0
   53.6226   -4.4455   -7.9045 C   0  0  0  0  0  0  0  0  0  0  0  0
   52.8526   -4.7509   -6.7724 C   0  0  0  0  0  0  0  0  0  0  0  0
   53.5876   -5.6829   -6.0884 C   0  0  0  0  0  0  0  0  0  0  0  0
   54.7207   -5.9078   -6.7800 N   0  0  0  0  0  0  0  0  0  0  0  0
   54.7515   -5.1709   -7.8703 N   0  0  0  0  0  0  0  0  0  0  0  0
   55.7006   -5.0802   -8.8513 C   0  0  0  0  0  0  0  0  0  0  0  0
   51.5694   -4.1299   -6.4993 C   0  0  0  0  0  0  0  0  0  0  0  0
   50.9679   -3.2311   -7.3591 C   0  0  0  0  0  0  0  0  0  0  0  0
   49.7473   -2.6498   -7.1266 C   0  0  0  0  0  0  0  0  0  0  0  0
   49.1053   -2.9750   -5.9997 N   0  0  0  0  0  0  0  0  0  0  0  0
   49.6187   -3.8425   -5.1051 C   0  0  0  0  0  0  0  0  0  0  0  0
   48.9061   -4.1419   -3.9557 C   0  0  0  0  0  0  0  0  0  0  0  0
   49.3921   -5.0203   -3.0204 C   0  0  0  0  0  0  0  0  0  0  0  0
   50.6259   -5.6003   -3.2644 C   0  0  0  0  0  0  0  0  0  0  0  0
   51.3338   -5.3014   -4.4092 C   0  0  0  0  0  0  0  0  0  0  0  0
   50.8658   -4.4318   -5.3498 C   0  0  0  0  0  0  0  0  0  0  0  0
   57.0818   -3.6642  -13.2837 C   0  0  0  0  0  0  0  0  0  0  0  0
   56.1262   -3.7879  -12.2961 C   0  0  0  0  0  0  0  0  0  0  0  0
   56.4850   -4.0748  -10.9996 C   0  0  0  0  0  0  0  0  0  0  0  0
   57.8440   -4.2294  -10.7486 C   0  0  0  0  0  0  0  0  0  0  0  0
   58.8052   -4.1078  -11.7270 C   0  0  0  0  0  0  0  0  0  0  0  0
   58.4367   -3.8198  -13.0283 C   0  0  0  0  0  0  0  0  0  0  0  0
   59.3961   -3.6933  -14.0589 N   0  0  0  0  0  0  0  0  0  0  0  0
   60.2838   -3.1838  -13.8747 H   0  0  0  0  0  0  0  0  0  0  0  0
   59.2648   -4.0894  -15.0135 H   0  0  0  0  0  0  0  0  0  0  0  0
   56.0669   -4.3378  -15.4064 C   0  0  0  0  0  0  0  0  0  0  0  0
   56.7464   -3.3748  -14.6056 O   0  0  0  0  0  0  0  0  0  0  0  0
 29 30  1  0  0  0
 30 20  1  0  0  0
 20 21  2  0  0  0
 21 22  1  0  0  0
 22 23  2  0  0  0
 23 24  1  0  0  0
 24 25  2  0  0  0
 25 26  1  0  0  0
 22  1  1  0  0  0
  1  2  1  0  0  0
  2  3  2  0  0  0
  3  4  1  0  0  0
  4  5  2  0  0  0
  5  6  1  0  0  0
  6  7  2  0  0  0
  7  8  1  0  0  0
  8  9  1  0  0  0
  5 10  1  0  0  0
 10 11  2  0  0  0
 11 12  1  0  0  0
 12 13  2  0  0  0
 13 14  1  0  0  0
 14 15  2  0  0  0
 15 16  1  0  0  0
 16 17  2  0  0  0
 17 18  1  0  0  0
 18 19  2  0  0  0
 25 20  1  0  0  0
  9  1  2  0  0  0
 19 10  1  0  0  0
  8  4  1  0  0  0
 19 14  1  0  0  0
 26 27  1  0  0  0
 26 28  1  0  0  0
M  END
> <minimizedAffinity>
-10.31722

> <CNNscore>
0.4880576730

> <CNNaffinity>
6.8567495346

> <CNN_VS>
3.3464891911

> <CNNaffinity_variance>
0.0629902855

$$$$
[H]c1nc2c([H])c([H])c([H])c([H])c2c(-c2c([H])nn3c([H])c(-c4c([H])c([H])c(N([H])[H])c(OC([H])([H])[H])c4[H])c([H])nc23)c1[H]


 30 34  0  0  0  0  0  0  0  0999 V2000
   55.6639   -4.4586   -9.3486 C   0  0  0  0  0  0  0  0  0  0  0  0
   54.5878   -3.5707   -9.4715 C   0  0  0  0  0  0  0  0  0  0  0  0
   53.5615   -3.6291   -8.6175 N   0  0  0  0  0  0  0  0  0  0  0  0
   53.5064   -4.5194   -7.6196 C   0  0  0  0  0  0  0  0  0  0  0  0
   52.5596   -4.7724   -6.6160 C   0  0  0  0  0  0  0  0  0  0  0  0
   53.0794   -5.8165   -5.8974 C   0  0  0  0  0  0  0  0  0  0  0  0
   54.2608   -6.1530   -6.4486 N   0  0  0  0  0  0  0  0  0  0  0  0
   54.5262   -5.3814   -7.4816 N   0  0  0  0  0  0  0  0  0  0  0  0
   55.6032   -5.3698   -8.3249 C   0  0  0  0  0  0  0  0  0  0  0  0
   51.3341   -4.0074   -6.4757 C   0  0  0  0  0  0  0  0  0  0  0  0
   50.9320   -3.0524   -7.3895 C   0  0  0  0  0  0  0  0  0  0  0  0
   49.7681   -2.3341   -7.2832 C   0  0  0  0  0  0  0  0  0  0  0  0
   48.9791   -2.5758   -6.2312 N   0  0  0  0  0  0  0  0  0  0  0  0
   49.2940   -3.4895   -5.2918 C   0  0  0  0  0  0  0  0  0  0  0  0
   48.4359   -3.6972   -4.2246 C   0  0  0  0  0  0  0  0  0  0  0  0
   48.7183   -4.6183   -3.2476 C   0  0  0  0  0  0  0  0  0  0  0  0
   49.8965   -5.3368   -3.3639 C   0  0  0  0  0  0  0  0  0  0  0  0
   50.7495   -5.1289   -4.4270 C   0  0  0  0  0  0  0  0  0  0  0  0
   50.4844   -4.2187   -5.4074 C   0  0  0  0  0  0  0  0  0  0  0  0
   59.0007   -4.9308  -11.0213 C   0  0  0  0  0  0  0  0  0  0  0  0
   57.9753   -5.0460  -10.1054 C   0  0  0  0  0  0  0  0  0  0  0  0
   56.7848   -4.3829  -10.2925 C   0  0  0  0  0  0  0  0  0  0  0  0
   56.6787   -3.6040  -11.4395 C   0  0  0  0  0  0  0  0  0  0  0  0
   57.6960   -3.4827  -12.3595 C   0  0  0  0  0  0  0  0  0  0  0  0
   58.8901   -4.1521  -12.1643 C   0  0  0  0  0  0  0  0  0  0  0  0
   59.9575   -4.0461  -13.0851 N   0  0  0  0  0  0  0  0  0  0  0  0
   59.7596   -4.0692  -14.1059 H   0  0  0  0  0  0  0  0  0  0  0  0
   60.9532   -3.9431  -12.7963 H   0  0  0  0  0  0  0  0  0  0  0  0
   60.4353   -6.4349   -9.7292 C   0  0  0  0  0  0  0  0  0  0  0  0
   60.2176   -5.5910  -10.8565 O   0  0  0  0  0  0  0  0  0  0  0  0
 29 30  1  0  0  0
 30 20  1  0  0  0
 20 21  2  0  0  0
 21 22  1  0  0  0
 22 23  2  0  0  0
 23 24  1  0  0  0
 24 25  2  0  0  0
 25 26  1  0  0  0
 22  1  1  0  0  0
  1  2  1  0  0  0
  2  3  2  0  0  0
  3  4  1  0  0  0
  4  5  2  0  0  0
  5  6  1  0  0  0
  6  7  2  0  0  0
  7  8  1  0  0  0
  8  9  1  0  0  0
  5 10  1  0  0  0
 10 11  2  0  0  0
 11 12  1  0  0  0
 12 13  2  0  0  0
 13 14  1  0  0  0
 14 15  2  0  0  0
 15 16  1  0  0  0
 16 17  2  0  0  0
 17 18  1  0  0  0
 18 19  2  0  0  0
 25 20  1  0  0  0
  9  1  2  0  0  0
 19 10  1  0  0  0
  8  4  1  0  0  0
 19 14  1  0  0  0
 26 27  1  0  0  0
 26 28  1  0  0  0
M  END
> <minimizedAffinity>
-10.23473

> <CNNscore>
0.4735802412

> <CNNaffinity>
6.8157410622

> <CNN_VS>
3.2278003693

> <CNNaffinity_variance>
0.0973608047

$$$$
[H]c1nc2c([H])c([H])c([H])c([H])c2c(-c2c([H])nn3c([H])c(-c4c([H])c([H])c(N([H])[H])c(OC([H])([H])[H])c4[H])c([H])nc23)c1[H]


 30 34  0  0  0  0  0  0  0  0999 V2000
   56.6170   -4.1025  -10.8624 C   0  0  0  0  0  0  0  0  0  0  0  0
   55.2670   -3.7303  -10.8391 C   0  0  0  0  0  0  0  0  0  0  0  0
   54.5292   -3.9288   -9.7426 N   0  0  0  0  0  0  0  0  0  0  0  0
   55.0284   -4.4818   -8.6306 C   0  0  0  0  0  0  0  0  0  0  0  0
   54.4691   -4.7861   -7.3807 C   0  0  0  0  0  0  0  0  0  0  0  0
   55.4947   -5.3422   -6.6626 C   0  0  0  0  0  0  0  0  0  0  0  0
   56.5889   -5.3608   -7.4469 N   0  0  0  0  0  0  0  0  0  0  0  0
   56.3201   -4.8472   -8.6287 N   0  0  0  0  0  0  0  0  0  0  0  0
   57.1245   -4.6695   -9.7208 C   0  0  0  0  0  0  0  0  0  0  0  0
   53.0841   -4.5084   -7.0468 C   0  0  0  0  0  0  0  0  0  0  0  0
   52.2652   -3.7128   -7.8248 C   0  0  0  0  0  0  0  0  0  0  0  0
   50.9493   -3.4556   -7.5352 C   0  0  0  0  0  0  0  0  0  0  0  0
   50.4326   -4.0097   -6.4334 N   0  0  0  0  0  0  0  0  0  0  0  0
   51.1594   -4.7985   -5.6173 C   0  0  0  0  0  0  0  0  0  0  0  0
   50.5687   -5.3459   -4.4905 C   0  0  0  0  0  0  0  0  0  0  0  0
   51.2726   -6.1549   -3.6345 C   0  0  0  0  0  0  0  0  0  0  0  0
   52.6007   -6.4068   -3.9356 C   0  0  0  0  0  0  0  0  0  0  0  0
   53.1871   -5.8613   -5.0579 C   0  0  0  0  0  0  0  0  0  0  0  0
   52.5026   -5.0562   -5.9200 C   0  0  0  0  0  0  0  0  0  0  0  0
   57.6623   -3.4236  -14.4122 C   0  0  0  0  0  0  0  0  0  0  0  0
   56.8628   -3.6168  -13.3045 C   0  0  0  0  0  0  0  0  0  0  0  0
   57.4158   -3.8781  -12.0725 C   0  0  0  0  0  0  0  0  0  0  0  0
   58.8040   -3.9343  -12.0116 C   0  0  0  0  0  0  0  0  0  0  0  0
   59.6104   -3.7427  -13.1111 C   0  0  0  0  0  0  0  0  0  0  0  0
   59.0470   -3.4810  -14.3465 C   0  0  0  0  0  0  0  0  0  0  0  0
   59.8442   -3.2847  -15.4973 N   0  0  0  0  0  0  0  0  0  0  0  0
   60.7102   -2.7125  -15.4310 H   0  0  0  0  0  0  0  0  0  0  0  0
   59.6117   -3.6885  -16.4292 H   0  0  0  0  0  0  0  0  0  0  0  0
   55.9982   -3.8845  -16.1466 C   0  0  0  0  0  0  0  0  0  0  0  0
   57.1287   -3.1581  -15.6726 O   0  0  0  0  0  0  0  0  0  0  0  0
 29 30  1  0  0  0
 30 20  1  0  0  0
 20 21  2  0  0  0
 21 22  1  0  0  0
 22 23  2  0  0  0
 23 24  1  0  0  0
 24 25  2  0  0  0
 25 26  1  0  0  0
 22  1  1  0  0  0
  1  2  1  0  0  0
  2  3  2  0  0  0
  3  4  1  0  0  0
  4  5  2  0  0  0
  5  6  1  0  0  0
  6  7  2  0  0  0
  7  8  1  0  0  0
  8  9  1  0  0  0
  5 10  1  0  0  0
 10 11  2  0  0  0
 11 12  1  0  0  0
 12 13  2  0  0  0
 13 14  1  0  0  0
 14 15  2  0  0  0
 15 16  1  0  0  0
 16 17  2  0  0  0
 17 18  1  0  0  0
 18 19  2  0  0  0
 25 20  1  0  0  0
  9  1  2  0  0  0
 19 10  1  0  0  0
  8  4  1  0  0  0
 19 14  1  0  0  0
 26 27  1  0  0  0
 26 28  1  0  0  0
M  END
> <minimizedAffinity>
-9.52105

> <CNNscore>
0.4418324232

> <CNNaffinity>
6.7011399269

> <CNN_VS>
2.9607808590

> <CNNaffinity_variance>
0.0912528336

$$$$
[H]c1nc2c([H])c([H])c([H])c([H])c2c(-c2c([H])nn3c([H])c(-c4c([H])c([H])c(N([H])[H])c(OC([H])([H])[H])c4[H])c([H])nc23)c1[H]


 30 34  0  0  0  0  0  0  0  0999 V2000
   56.8440   -5.2066   -8.6762 C   0  0  0  0  0  0  0  0  0  0  0  0
   56.3709   -5.7328   -7.4676 C   0  0  0  0  0  0  0  0  0  0  0  0
   55.1241   -5.4769   -7.0600 N   0  0  0  0  0  0  0  0  0  0  0  0
   54.2772   -4.7205   -7.7686 C   0  0  0  0  0  0  0  0  0  0  0  0
   52.9501   -4.3180   -7.5576 C   0  0  0  0  0  0  0  0  0  0  0  0
   52.6386   -3.5487   -8.6476 C   0  0  0  0  0  0  0  0  0  0  0  0
   53.7200   -3.5052   -9.4483 N   0  0  0  0  0  0  0  0  0  0  0  0
   54.7078   -4.2046   -8.9307 N   0  0  0  0  0  0  0  0  0  0  0  0
   55.9728   -4.4314   -9.3990 C   0  0  0  0  0  0  0  0  0  0  0  0
   52.1810   -4.7130   -6.3917 C   0  0  0  0  0  0  0  0  0  0  0  0
   52.5480   -5.7565   -5.5639 C   0  0  0  0  0  0  0  0  0  0  0  0
   51.8443   -6.1310   -4.4474 C   0  0  0  0  0  0  0  0  0  0  0  0
   50.7383   -5.4427   -4.1464 N   0  0  0  0  0  0  0  0  0  0  0  0
   50.3071   -4.4109   -4.8987 C   0  0  0  0  0  0  0  0  0  0  0  0
   49.1544   -3.7343   -4.5358 C   0  0  0  0  0  0  0  0  0  0  0  0
   48.6819   -2.6781   -5.2732 C   0  0  0  0  0  0  0  0  0  0  0  0
   49.3992   -2.3093   -6.3991 C   0  0  0  0  0  0  0  0  0  0  0  0
   50.5466   -2.9838   -6.7589 C   0  0  0  0  0  0  0  0  0  0  0  0
   51.0312   -4.0348   -6.0374 C   0  0  0  0  0  0  0  0  0  0  0  0
   60.4874   -6.1440   -8.7164 C   0  0  0  0  0  0  0  0  0  0  0  0
   59.2119   -5.8946   -8.2529 C   0  0  0  0  0  0  0  0  0  0  0  0
   58.2147   -5.4961   -9.1123 C   0  0  0  0  0  0  0  0  0  0  0  0
   58.5627   -5.3625  -10.4520 C   0  0  0  0  0  0  0  0  0  0  0  0
   59.8324   -5.6091  -10.9243 C   0  0  0  0  0  0  0  0  0  0  0  0
   60.8299   -6.0089  -10.0541 C   0  0  0  0  0  0  0  0  0  0  0  0
   62.1456   -6.2653  -10.5034 N   0  0  0  0  0  0  0  0  0  0  0  0
   62.2928   -6.7835  -11.3930 H   0  0  0  0  0  0  0  0  0  0  0  0
   62.9961   -5.9589   -9.9855 H   0  0  0  0  0  0  0  0  0  0  0  0
   61.6353   -7.9125   -7.4736 C   0  0  0  0  0  0  0  0  0  0  0  0
   61.5171   -6.5483   -7.8678 O   0  0  0  0  0  0  0  0  0  0  0  0
 29 30  1  0  0  0
 30 20  1  0  0  0
 20 21  2  0  0  0
 21 22  1  0  0  0
 22 23  2  0  0  0
 23 24  1  0  0  0
 24 25  2  0  0  0
 25 26  1  0  0  0
 22  1  1  0  0  0
  1  2  1  0  0  0
  2  3  2  0  0  0
  3  4  1  0  0  0
  4  5  2  0  0  0
  5  6  1  0  0  0
  6  7  2  0  0  0
  7  8  1  0  0  0
  8  9  1  0  0  0
  5 10  1  0  0  0
 10 11  2  0  0  0
 11 12  1  0  0  0
 12 13  2  0  0  0
 13 14  1  0  0  0
 14 15  2  0  0  0
 15 16  1  0  0  0
 16 17  2  0  0  0
 17 18  1  0  0  0
 18 19  2  0  0  0
 25 20  1  0  0  0
  9  1  2  0  0  0
 19 10  1  0  0  0
  8  4  1  0  0  0
 19 14  1  0  0  0
 26 27  1  0  0  0
 26 28  1  0  0  0
M  END
> <minimizedAffinity>
-9.41978

> <CNNscore>
0.4363229573

> <CNNaffinity>
6.7584471703

> <CNN_VS>
2.9488656521

> <CNNaffinity_variance>
0.4656373858

$$$$
[H]c1nc2c([H])c([H])c([H])c([H])c2c(-c2c([H])nn3c([H])c(-c4c([H])c([H])c(N([H])[H])c(OC([H])([H])[H])c4[H])c([H])nc23)c1[H]


 30 34  0  0  0  0  0  0  0  0999 V2000
   53.8945   -4.8166   -7.4218 C   0  0  0  0  0  0  0  0  0  0  0  0
   55.1395   -5.4053   -7.1669 C   0  0  0  0  0  0  0  0  0  0  0  0
   56.1148   -5.3472   -8.0787 N   0  0  0  0  0  0  0  0  0  0  0  0
   55.9594   -4.7368   -9.2598 C   0  0  0  0  0  0  0  0  0  0  0  0
   56.8134   -4.5452  -10.3560 C   0  0  0  0  0  0  0  0  0  0  0  0
   56.0675   -3.8405  -11.2637 C   0  0  0  0  0  0  0  0  0  0  0  0
   54.8498   -3.6321  -10.7285 N   0  0  0  0  0  0  0  0  0  0  0  0
   54.7747   -4.1652   -9.5273 N   0  0  0  0  0  0  0  0  0  0  0  0
   53.7393   -4.1925   -8.6337 C   0  0  0  0  0  0  0  0  0  0  0  0
   58.1796   -5.0344  -10.3876 C   0  0  0  0  0  0  0  0  0  0  0  0
   58.7053   -5.8675   -9.4189 C   0  0  0  0  0  0  0  0  0  0  0  0
   59.9874   -6.3549   -9.4429 C   0  0  0  0  0  0  0  0  0  0  0  0
   60.7713   -6.0000  -10.4663 N   0  0  0  0  0  0  0  0  0  0  0  0
   60.3404   -5.1910  -11.4544 C   0  0  0  0  0  0  0  0  0  0  0  0
   61.1983   -4.8592  -12.4900 C   0  0  0  0  0  0  0  0  0  0  0  0
   60.7992   -4.0399  -13.5156 C   0  0  0  0  0  0  0  0  0  0  0  0
   59.5034   -3.5522  -13.4808 C   0  0  0  0  0  0  0  0  0  0  0  0
   58.6506   -3.8837  -12.4493 C   0  0  0  0  0  0  0  0  0  0  0  0
   59.0299   -4.6973  -11.4225 C   0  0  0  0  0  0  0  0  0  0  0  0
   50.6605   -4.3437   -5.5584 C   0  0  0  0  0  0  0  0  0  0  0  0
   51.6201   -4.2518   -6.5456 C   0  0  0  0  0  0  0  0  0  0  0  0
   52.8327   -4.8869   -6.4116 C   0  0  0  0  0  0  0  0  0  0  0  0
   53.0297   -5.6142   -5.2429 C   0  0  0  0  0  0  0  0  0  0  0  0
   52.0785   -5.7122   -4.2521 C   0  0  0  0  0  0  0  0  0  0  0  0
   50.8619   -5.0705   -4.3938 C   0  0  0  0  0  0  0  0  0  0  0  0
   49.8647   -5.1448   -3.3945 N   0  0  0  0  0  0  0  0  0  0  0  0
   49.6763   -6.0526   -2.9233 H   0  0  0  0  0  0  0  0  0  0  0  0
   49.2945   -4.3262   -3.0942 H   0  0  0  0  0  0  0  0  0  0  0  0
   49.2072   -2.7137   -6.6633 C   0  0  0  0  0  0  0  0  0  0  0  0
   49.4235   -3.7099   -5.6677 O   0  0  0  0  0  0  0  0  0  0  0  0
 29 30  1  0  0  0
 30 20  1  0  0  0
 20 21  2  0  0  0
 21 22  1  0  0  0
 22 23  2  0  0  0
 23 24  1  0  0  0
 24 25  2  0  0  0
 25 26  1  0  0  0
 22  1  1  0  0  0
  1  2  1  0  0  0
  2  3  2  0  0  0
  3  4  1  0  0  0
  4  5  2  0  0  0
  5  6  1  0  0  0
  6  7  2  0  0  0
  7  8  1  0  0  0
  8  9  1  0  0  0
  5 10  1  0  0  0
 10 11  2  0  0  0
 11 12  1  0  0  0
 12 13  2  0  0  0
 13 14  1  0  0  0
 14 15  2  0  0  0
 15 16  1  0  0  0
 16 17  2  0  0  0
 17 18  1  0  0  0
 18 19  2  0  0  0
 25 20  1  0  0  0
  9  1  2  0  0  0
 19 10  1  0  0  0
  8  4  1  0  0  0
 19 14  1  0  0  0
 26 27  1  0  0  0
 26 28  1  0  0  0
M  END
> <minimizedAffinity>
-6.98324

> <CNNscore>
0.4287755191

> <CNNaffinity>
6.6548523903

> <CNN_VS>
2.8534379005

> <CNNaffinity_variance>
0.3190546036

$$$$
[H]c1nc(N([H])c2c([H])c(OC([H])([H])[H])c(OC([H])([H])[H])c(OC([H])([H])[H])c2[H])nc(N([H])c2c([H])c([H])c([H])c([H])c2S(=O)(=O)C([H])(C([H])([H])[H])C([H])([H])[H])c1Cl


 35 37  0  0  0  0  0  0  0  0999 V2000
   53.6439   -2.7488   -8.6002 C   0  0  0  0  0  0  0  0  0  0  0  0
   52.6387   -1.9194   -8.8836 N   0  0  0  0  0  0  0  0  0  0  0  0
   51.4054   -2.2228   -8.4730 C   0  0  0  0  0  0  0  0  0  0  0  0
   51.1255   -3.3466   -7.7740 C   0  0  0  0  0  0  0  0  0  0  0  0
   49.5198   -3.7789   -7.2374 Cl  0  0  0  0  0  0  0  0  0  0  0  0
   52.1683   -4.2465   -7.4565 C   0  0  0  0  0  0  0  0  0  0  0  0
   53.3687   -3.8602   -7.9089 N   0  0  0  0  0  0  0  0  0  0  0  0
   54.9745   -2.5230   -8.9856 N   0  0  0  0  0  0  0  0  0  0  0  0
   55.2988   -1.5073   -9.0633 H   0  0  0  0  0  0  0  0  0  0  0  0
   57.3854   -4.7125  -10.7699 C   0  0  0  0  0  0  0  0  0  0  0  0
   56.3945   -3.7589  -10.5612 C   0  0  0  0  0  0  0  0  0  0  0  0
   55.9622   -3.5024   -9.2873 C   0  0  0  0  0  0  0  0  0  0  0  0
   56.5283   -4.2113   -8.2037 C   0  0  0  0  0  0  0  0  0  0  0  0
   57.5025   -5.1499   -8.4054 C   0  0  0  0  0  0  0  0  0  0  0  0
   57.9093   -5.3752   -9.7138 C   0  0  0  0  0  0  0  0  0  0  0  0
   57.5903   -4.0128  -13.0628 C   0  0  0  0  0  0  0  0  0  0  0  0
   57.8215   -4.9705  -12.0512 O   0  0  0  0  0  0  0  0  0  0  0  0
   58.0799   -5.8625   -7.3776 O   0  0  0  0  0  0  0  0  0  0  0  0
   57.3243   -6.1896   -6.2248 C   0  0  0  0  0  0  0  0  0  0  0  0
   58.8982   -6.3279   -9.9142 O   0  0  0  0  0  0  0  0  0  0  0  0
   60.2468   -6.1309   -9.5376 C   0  0  0  0  0  0  0  0  0  0  0  0
   51.8926   -5.3885   -6.6881 N   0  0  0  0  0  0  0  0  0  0  0  0
   52.0461   -6.3057   -7.1571 H   0  0  0  0  0  0  0  0  0  0  0  0
   51.4651   -5.4147   -5.3557 C   0  0  0  0  0  0  0  0  0  0  0  0
   50.1498   -5.0709   -5.0102 C   0  0  0  0  0  0  0  0  0  0  0  0
   49.7833   -4.9768   -3.6757 C   0  0  0  0  0  0  0  0  0  0  0  0
   50.6790   -5.2118   -2.6671 C   0  0  0  0  0  0  0  0  0  0  0  0
   51.9479   -5.5444   -3.0257 C   0  0  0  0  0  0  0  0  0  0  0  0
   52.3991   -5.6630   -4.3532 C   0  0  0  0  0  0  0  0  0  0  0  0
   54.0053   -6.2065   -4.6714 S   0  0  0  0  0  0  0  0  0  0  0  0
   54.8065   -4.9553   -5.1100 O   0  0  0  0  0  0  0  0  0  0  0  0
   54.1323   -7.1149   -5.8640 O   0  0  0  0  0  0  0  0  0  0  0  0
   54.8782   -6.8356   -3.2799 C   0  0  0  0  0  0  0  0  0  0  0  0
   55.8858   -5.7693   -2.7698 C   0  0  0  0  0  0  0  0  0  0  0  0
   55.6742   -8.0697   -3.4787 C   0  0  0  0  0  0  0  0  0  0  0  0
 16 17  1  0  0  0
 17 10  1  0  0  0
 10 11  2  0  0  0
 11 12  1  0  0  0
 12  8  1  0  0  0
  8  1  1  0  0  0
  1  2  2  0  0  0
  2  3  1  0  0  0
  3  4  2  0  0  0
  4  5  1  0  0  0
  4  6  1  0  0  0
  6 22  1  0  0  0
 22 24  1  0  0  0
 24 25  2  0  0  0
 25 26  1  0  0  0
 26 27  2  0  0  0
 27 28  1  0  0  0
 28 29  2  0  0  0
 29 30  1  0  0  0
 30 31  2  0  0  0
 30 32  2  0  0  0
 30 33  1  0  0  0
 33 34  1  0  0  0
 33 35  1  0  0  0
  6  7  2  0  0  0
 12 13  2  0  0  0
 13 14  1  0  0  0
 14 18  1  0  0  0
 18 19  1  0  0  0
 14 15  2  0  0  0
 15 20  1  0  0  0
 20 21  1  0  0  0
 15 10  1  0  0  0
  7  1  1  0  0  0
 29 24  1  0  0  0
  8  9  1  0  0  0
 22 23  1  0  0  0
M  END
> <minimizedAffinity>
-8.41459

> <CNNscore>
0.9680601358

> <CNNaffinity>
8.0358629227

> <CNN_VS>
7.7791986465

> <CNNaffinity_variance>
0.0700224862

$$$$
[H]c1nc(N([H])c2c([H])c(OC([H])([H])[H])c(OC([H])([H])[H])c(OC([H])([H])[H])c2[H])nc(N([H])c2c([H])c([H])c([H])c([H])c2S(=O)(=O)C([H])(C([H])([H])[H])C([H])([H])[H])c1Cl


 35 37  0  0  0  0  0  0  0  0999 V2000
   53.6074   -2.7315   -8.5393 C   0  0  0  0  0  0  0  0  0  0  0  0
   52.6068   -1.9001   -8.8332 N   0  0  0  0  0  0  0  0  0  0  0  0
   51.3672   -2.2058   -8.4438 C   0  0  0  0  0  0  0  0  0  0  0  0
   51.0763   -3.3339   -7.7563 C   0  0  0  0  0  0  0  0  0  0  0  0
   49.4624   -3.7692   -7.2477 Cl  0  0  0  0  0  0  0  0  0  0  0  0
   52.1140   -4.2360   -7.4283 C   0  0  0  0  0  0  0  0  0  0  0  0
   53.3213   -3.8472   -7.8595 N   0  0  0  0  0  0  0  0  0  0  0  0
   54.9439   -2.5036   -8.9025 N   0  0  0  0  0  0  0  0  0  0  0  0
   55.2471   -1.4895   -9.0523 H   0  0  0  0  0  0  0  0  0  0  0  0
   57.4874   -5.1504   -8.3412 C   0  0  0  0  0  0  0  0  0  0  0  0
   56.5160   -4.1935   -8.0664 C   0  0  0  0  0  0  0  0  0  0  0  0
   55.9627   -3.4786   -9.0951 C   0  0  0  0  0  0  0  0  0  0  0  0
   56.3880   -3.7227  -10.4207 C   0  0  0  0  0  0  0  0  0  0  0  0
   57.3432   -4.6625  -10.6943 C   0  0  0  0  0  0  0  0  0  0  0  0
   57.8746   -5.3629   -9.6195 C   0  0  0  0  0  0  0  0  0  0  0  0
   57.2537   -6.1745   -6.1766 C   0  0  0  0  0  0  0  0  0  0  0  0
   58.0439   -5.8707   -7.3069 O   0  0  0  0  0  0  0  0  0  0  0  0
   57.7854   -4.9308  -11.9710 O   0  0  0  0  0  0  0  0  0  0  0  0
   57.0464   -4.4773  -13.0913 C   0  0  0  0  0  0  0  0  0  0  0  0
   58.8432   -6.3158   -9.9014 O   0  0  0  0  0  0  0  0  0  0  0  0
   60.2080   -6.1494   -9.5712 C   0  0  0  0  0  0  0  0  0  0  0  0
   51.8260   -5.3828   -6.6716 N   0  0  0  0  0  0  0  0  0  0  0  0
   51.9876   -6.2970   -7.1435 H   0  0  0  0  0  0  0  0  0  0  0  0
   51.3767   -5.4173   -5.3466 C   0  0  0  0  0  0  0  0  0  0  0  0
   50.0556   -5.0762   -5.0207 C   0  0  0  0  0  0  0  0  0  0  0  0
   49.6672   -4.9904   -3.6919 C   0  0  0  0  0  0  0  0  0  0  0  0
   50.5464   -5.2311   -2.6701 C   0  0  0  0  0  0  0  0  0  0  0  0
   51.8212   -5.5608   -3.0097 C   0  0  0  0  0  0  0  0  0  0  0  0
   52.2942   -5.6711   -4.3303 C   0  0  0  0  0  0  0  0  0  0  0  0
   53.9058   -6.2119   -4.6253 S   0  0  0  0  0  0  0  0  0  0  0  0
   54.7296   -4.9472   -4.9737 O   0  0  0  0  0  0  0  0  0  0  0  0
   54.0641   -7.0593   -5.8584 O   0  0  0  0  0  0  0  0  0  0  0  0
   54.7292   -6.9190   -3.2411 C   0  0  0  0  0  0  0  0  0  0  0  0
   55.7236   -5.8872   -2.6419 C   0  0  0  0  0  0  0  0  0  0  0  0
   55.5265   -8.1454   -3.4790 C   0  0  0  0  0  0  0  0  0  0  0  0
 16 17  1  0  0  0
 17 10  1  0  0  0
 10 11  2  0  0  0
 11 12  1  0  0  0
 12  8  1  0  0  0
  8  1  1  0  0  0
  1  2  2  0  0  0
  2  3  1  0  0  0
  3  4  2  0  0  0
  4  5  1  0  0  0
  4  6  1  0  0  0
  6 22  1  0  0  0
 22 24  1  0  0  0
 24 25  2  0  0  0
 25 26  1  0  0  0
 26 27  2  0  0  0
 27 28  1  0  0  0
 28 29  2  0  0  0
 29 30  1  0  0  0
 30 31  2  0  0  0
 30 32  2  0  0  0
 30 33  1  0  0  0
 33 34  1  0  0  0
 33 35  1  0  0  0
  6  7  2  0  0  0
 12 13  2  0  0  0
 13 14  1  0  0  0
 14 18  1  0  0  0
 18 19  1  0  0  0
 14 15  2  0  0  0
 15 20  1  0  0  0
 20 21  1  0  0  0
 15 10  1  0  0  0
  7  1  1  0  0  0
 29 24  1  0  0  0
  8  9  1  0  0  0
 22 23  1  0  0  0
M  END
> <minimizedAffinity>
-8.33188

> <CNNscore>
0.9616234899

> <CNNaffinity>
8.0411329269

> <CNN_VS>
7.7325425148

> <CNNaffinity_variance>
0.0725919902

$$$$
[H]c1nc(N([H])c2c([H])c(OC([H])([H])[H])c(OC([H])([H])[H])c(OC([H])([H])[H])c2[H])nc(N([H])c2c([H])c([H])c([H])c([H])c2S(=O)(=O)C([H])(C([H])([H])[H])C([H])([H])[H])c1Cl


 35 37  0  0  0  0  0  0  0  0999 V2000
   51.6032   -3.2475   -7.8629 C   0  0  0  0  0  0  0  0  0  0  0  0
   50.5460   -2.4887   -7.5708 N   0  0  0  0  0  0  0  0  0  0  0  0
   49.8300   -2.7585   -6.4771 C   0  0  0  0  0  0  0  0  0  0  0  0
   50.1315   -3.7788   -5.6416 C   0  0  0  0  0  0  0  0  0  0  0  0
   49.2042   -4.1667   -4.2125 Cl  0  0  0  0  0  0  0  0  0  0  0  0
   51.2461   -4.6017   -5.9221 C   0  0  0  0  0  0  0  0  0  0  0  0
   51.9027   -4.2564   -7.0377 N   0  0  0  0  0  0  0  0  0  0  0  0
   52.4200   -3.0488   -8.9869 N   0  0  0  0  0  0  0  0  0  0  0  0
   51.9780   -2.5793   -9.8396 H   0  0  0  0  0  0  0  0  0  0  0  0
   55.9925   -3.7896   -8.2957 C   0  0  0  0  0  0  0  0  0  0  0  0
   54.6734   -3.4044   -8.0804 C   0  0  0  0  0  0  0  0  0  0  0  0
   53.7918   -3.4008   -9.1283 C   0  0  0  0  0  0  0  0  0  0  0  0
   54.2356   -3.7871  -10.4133 C   0  0  0  0  0  0  0  0  0  0  0  0
   55.5321   -4.1660  -10.6285 C   0  0  0  0  0  0  0  0  0  0  0  0
   56.3891   -4.1547   -9.5360 C   0  0  0  0  0  0  0  0  0  0  0  0
   56.3800   -3.7922   -5.9211 C   0  0  0  0  0  0  0  0  0  0  0  0
   56.8800   -3.7943   -7.2417 O   0  0  0  0  0  0  0  0  0  0  0  0
   56.0048   -4.5492  -11.8643 O   0  0  0  0  0  0  0  0  0  0  0  0
   56.5681   -3.5894  -12.7409 C   0  0  0  0  0  0  0  0  0  0  0  0
   57.7035   -4.5401   -9.7585 O   0  0  0  0  0  0  0  0  0  0  0  0
   58.2265   -5.7818   -9.3291 C   0  0  0  0  0  0  0  0  0  0  0  0
   51.5936   -5.6301   -5.0321 N   0  0  0  0  0  0  0  0  0  0  0  0
   50.8137   -6.0400   -4.4767 H   0  0  0  0  0  0  0  0  0  0  0  0
   52.8690   -6.1744   -4.8426 C   0  0  0  0  0  0  0  0  0  0  0  0
   53.7141   -6.4354   -5.9314 C   0  0  0  0  0  0  0  0  0  0  0  0
   54.9187   -7.0944   -5.7344 C   0  0  0  0  0  0  0  0  0  0  0  0
   55.3164   -7.5062   -4.4906 C   0  0  0  0  0  0  0  0  0  0  0  0
   54.4817   -7.2417   -3.4501 C   0  0  0  0  0  0  0  0  0  0  0  0
   53.2464   -6.5778   -3.5643 C   0  0  0  0  0  0  0  0  0  0  0  0
   52.3370   -6.2011   -2.1474 S   0  0  0  0  0  0  0  0  0  0  0  0
   51.1058   -7.1410   -2.1609 O   0  0  0  0  0  0  0  0  0  0  0  0
   51.7090   -4.8340   -2.1537 O   0  0  0  0  0  0  0  0  0  0  0  0
   53.1445   -6.5379   -0.6214 C   0  0  0  0  0  0  0  0  0  0  0  0
   54.3743   -5.6023   -0.4638 C   0  0  0  0  0  0  0  0  0  0  0  0
   53.6626   -7.9110   -0.4159 C   0  0  0  0  0  0  0  0  0  0  0  0
 16 17  1  0  0  0
 17 10  1  0  0  0
 10 11  2  0  0  0
 11 12  1  0  0  0
 12  8  1  0  0  0
  8  1  1  0  0  0
  1  2  2  0  0  0
  2  3  1  0  0  0
  3  4  2  0  0  0
  4  5  1  0  0  0
  4  6  1  0  0  0
  6 22  1  0  0  0
 22 24  1  0  0  0
 24 25  2  0  0  0
 25 26  1  0  0  0
 26 27  2  0  0  0
 27 28  1  0  0  0
 28 29  2  0  0  0
 29 30  1  0  0  0
 30 31  2  0  0  0
 30 32  2  0  0  0
 30 33  1  0  0  0
 33 34  1  0  0  0
 33 35  1  0  0  0
  6  7  2  0  0  0
 12 13  2  0  0  0
 13 14  1  0  0  0
 14 18  1  0  0  0
 18 19  1  0  0  0
 14 15  2  0  0  0
 15 20  1  0  0  0
 20 21  1  0  0  0
 15 10  1  0  0  0
  7  1  1  0  0  0
 29 24  1  0  0  0
  8  9  1  0  0  0
 22 23  1  0  0  0
M  END
> <minimizedAffinity>
-8.07116

> <CNNscore>
0.8729941249

> <CNNaffinity>
7.9689359665

> <CNN_VS>
6.9568343163

> <CNNaffinity_variance>
0.1333566010

$$$$
[H]c1nc(N([H])c2c([H])c(OC([H])([H])[H])c(OC([H])([H])[H])c(OC([H])([H])[H])c2[H])nc(N([H])c2c([H])c([H])c([H])c([H])c2S(=O)(=O)C([H])(C([H])([H])[H])C([H])([H])[H])c1Cl


 35 37  0  0  0  0  0  0  0  0999 V2000
   51.5640   -3.2183   -7.8256 C   0  0  0  0  0  0  0  0  0  0  0  0
   50.4912   -2.4917   -7.5095 N   0  0  0  0  0  0  0  0  0  0  0  0
   49.7973   -2.7947   -6.4103 C   0  0  0  0  0  0  0  0  0  0  0  0
   50.1369   -3.8175   -5.5925 C   0  0  0  0  0  0  0  0  0  0  0  0
   49.2394   -4.2486   -4.1567 Cl  0  0  0  0  0  0  0  0  0  0  0  0
   51.2688   -4.6068   -5.8987 C   0  0  0  0  0  0  0  0  0  0  0  0
   51.9010   -4.2297   -7.0180 N   0  0  0  0  0  0  0  0  0  0  0  0
   52.3600   -2.9833   -8.9575 N   0  0  0  0  0  0  0  0  0  0  0  0
   51.9210   -2.4337   -9.7625 H   0  0  0  0  0  0  0  0  0  0  0  0
   55.5298   -4.1375  -10.5100 C   0  0  0  0  0  0  0  0  0  0  0  0
   54.1918   -3.7781  -10.3854 C   0  0  0  0  0  0  0  0  0  0  0  0
   53.7072   -3.3935   -9.1637 C   0  0  0  0  0  0  0  0  0  0  0  0
   54.5734   -3.3688   -8.0472 C   0  0  0  0  0  0  0  0  0  0  0  0
   55.8894   -3.7219   -8.1661 C   0  0  0  0  0  0  0  0  0  0  0  0
   56.3356   -4.1039   -9.4243 C   0  0  0  0  0  0  0  0  0  0  0  0
   56.6856   -3.5742  -12.5437 C   0  0  0  0  0  0  0  0  0  0  0  0
   56.0184   -4.5237  -11.7391 O   0  0  0  0  0  0  0  0  0  0  0  0
   56.7663   -3.7116   -7.1038 O   0  0  0  0  0  0  0  0  0  0  0  0
   56.2768   -3.7553   -5.7752 C   0  0  0  0  0  0  0  0  0  0  0  0
   57.6715   -4.4610   -9.5409 O   0  0  0  0  0  0  0  0  0  0  0  0
   58.1265   -5.7946   -9.4224 C   0  0  0  0  0  0  0  0  0  0  0  0
   51.6553   -5.6372   -5.0272 N   0  0  0  0  0  0  0  0  0  0  0  0
   50.9062   -6.0298   -4.4192 H   0  0  0  0  0  0  0  0  0  0  0  0
   52.9302   -6.2043   -4.9186 C   0  0  0  0  0  0  0  0  0  0  0  0
   53.7196   -6.4345   -6.0551 C   0  0  0  0  0  0  0  0  0  0  0  0
   54.9225   -7.1155   -5.9399 C   0  0  0  0  0  0  0  0  0  0  0  0
   55.3720   -7.5792   -4.7325 C   0  0  0  0  0  0  0  0  0  0  0  0
   54.5907   -7.3439   -3.6447 C   0  0  0  0  0  0  0  0  0  0  0  0
   53.3610   -6.6606   -3.6756 C   0  0  0  0  0  0  0  0  0  0  0  0
   52.5244   -6.3266   -2.2041 S   0  0  0  0  0  0  0  0  0  0  0  0
   51.3713   -7.3573   -2.1185 O   0  0  0  0  0  0  0  0  0  0  0  0
   51.7939   -5.0114   -2.1860 O   0  0  0  0  0  0  0  0  0  0  0  0
   53.4580   -6.5713   -0.7336 C   0  0  0  0  0  0  0  0  0  0  0  0
   54.6155   -5.5375   -0.6717 C   0  0  0  0  0  0  0  0  0  0  0  0
   54.0986   -7.8947   -0.5483 C   0  0  0  0  0  0  0  0  0  0  0  0
 16 17  1  0  0  0
 17 10  1  0  0  0
 10 11  2  0  0  0
 11 12  1  0  0  0
 12  8  1  0  0  0
  8  1  1  0  0  0
  1  2  2  0  0  0
  2  3  1  0  0  0
  3  4  2  0  0  0
  4  5  1  0  0  0
  4  6  1  0  0  0
  6 22  1  0  0  0
 22 24  1  0  0  0
 24 25  2  0  0  0
 25 26  1  0  0  0
 26 27  2  0  0  0
 27 28  1  0  0  0
 28 29  2  0  0  0
 29 30  1  0  0  0
 30 31  2  0  0  0
 30 32  2  0  0  0
 30 33  1  0  0  0
 33 34  1  0  0  0
 33 35  1  0  0  0
  6  7  2  0  0  0
 12 13  2  0  0  0
 13 14  1  0  0  0
 14 18  1  0  0  0
 18 19  1  0  0  0
 14 15  2  0  0  0
 15 20  1  0  0  0
 20 21  1  0  0  0
 15 10  1  0  0  0
  7  1  1  0  0  0
 29 24  1  0  0  0
  8  9  1  0  0  0
 22 23  1  0  0  0
M  END
> <minimizedAffinity>
-8.05703

> <CNNscore>
0.8367921710

> <CNNaffinity>
7.9268045425

> <CNN_VS>
6.6330881119

> <CNNaffinity_variance>
0.1382438689

$$$$
[H]c1nc(N([H])c2c([H])c(OC([H])([H])[H])c(OC([H])([H])[H])c(OC([H])([H])[H])c2[H])nc(N([H])c2c([H])c([H])c([H])c([H])c2S(=O)(=O)C([H])(C([H])([H])[H])C([H])([H])[H])c1Cl


 35 37  0  0  0  0  0  0  0  0999 V2000
   51.7355   -3.7377   -7.5408 C   0  0  0  0  0  0  0  0  0  0  0  0
   50.5162   -3.2866   -7.2432 N   0  0  0  0  0  0  0  0  0  0  0  0
   49.8871   -3.7644   -6.1673 C   0  0  0  0  0  0  0  0  0  0  0  0
   50.4366   -4.6965   -5.3554 C   0  0  0  0  0  0  0  0  0  0  0  0
   49.6316   -5.3529   -3.9504 Cl  0  0  0  0  0  0  0  0  0  0  0  0
   51.7277   -5.1952   -5.6424 C   0  0  0  0  0  0  0  0  0  0  0  0
   52.2801   -4.6592   -6.7389 N   0  0  0  0  0  0  0  0  0  0  0  0
   52.4805   -3.3017   -8.6475 N   0  0  0  0  0  0  0  0  0  0  0  0
   51.9998   -2.6377   -9.3337 H   0  0  0  0  0  0  0  0  0  0  0  0
   55.5769   -4.2221  -10.4793 C   0  0  0  0  0  0  0  0  0  0  0  0
   54.2381   -3.9279  -10.2429 C   0  0  0  0  0  0  0  0  0  0  0  0
   53.8248   -3.6412   -8.9691 C   0  0  0  0  0  0  0  0  0  0  0  0
   54.7644   -3.6498   -7.9134 C   0  0  0  0  0  0  0  0  0  0  0  0
   56.0814   -3.9391   -8.1424 C   0  0  0  0  0  0  0  0  0  0  0  0
   56.4538   -4.2226   -9.4497 C   0  0  0  0  0  0  0  0  0  0  0  0
   56.6689   -3.5171  -12.5039 C   0  0  0  0  0  0  0  0  0  0  0  0
   55.9937   -4.5099  -11.7607 O   0  0  0  0  0  0  0  0  0  0  0  0
   57.0285   -3.9584   -7.1423 O   0  0  0  0  0  0  0  0  0  0  0  0
   56.6719   -3.6105   -5.8162 C   0  0  0  0  0  0  0  0  0  0  0  0
   57.7910   -4.5153   -9.6779 O   0  0  0  0  0  0  0  0  0  0  0  0
   58.3189   -5.8245   -9.5962 C   0  0  0  0  0  0  0  0  0  0  0  0
   52.3234   -6.1249   -4.7756 N   0  0  0  0  0  0  0  0  0  0  0  0
   52.4291   -7.0936   -5.1433 H   0  0  0  0  0  0  0  0  0  0  0  0
   52.8126   -5.8721   -3.4889 C   0  0  0  0  0  0  0  0  0  0  0  0
   52.0472   -5.1665   -2.5487 C   0  0  0  0  0  0  0  0  0  0  0  0
   52.5997   -4.8134   -1.3264 C   0  0  0  0  0  0  0  0  0  0  0  0
   53.8904   -5.1357   -1.0022 C   0  0  0  0  0  0  0  0  0  0  0  0
   54.6131   -5.8205   -1.9286 C   0  0  0  0  0  0  0  0  0  0  0  0
   54.1276   -6.2176   -3.1881 C   0  0  0  0  0  0  0  0  0  0  0  0
   55.1115   -7.1846   -4.2243 S   0  0  0  0  0  0  0  0  0  0  0  0
   55.1174   -6.4749   -5.6012 O   0  0  0  0  0  0  0  0  0  0  0  0
   54.5346   -8.5351   -4.5513 O   0  0  0  0  0  0  0  0  0  0  0  0
   56.8063   -7.2956   -3.7671 C   0  0  0  0  0  0  0  0  0  0  0  0
   56.9865   -8.4056   -2.6957 C   0  0  0  0  0  0  0  0  0  0  0  0
   57.4351   -6.0835   -3.1912 C   0  0  0  0  0  0  0  0  0  0  0  0
 16 17  1  0  0  0
 17 10  1  0  0  0
 10 11  2  0  0  0
 11 12  1  0  0  0
 12  8  1  0  0  0
  8  1  1  0  0  0
  1  2  2  0  0  0
  2  3  1  0  0  0
  3  4  2  0  0  0
  4  5  1  0  0  0
  4  6  1  0  0  0
  6 22  1  0  0  0
 22 24  1  0  0  0
 24 25  2  0  0  0
 25 26  1  0  0  0
 26 27  2  0  0  0
 27 28  1  0  0  0
 28 29  2  0  0  0
 29 30  1  0  0  0
 30 31  2  0  0  0
 30 32  2  0  0  0
 30 33  1  0  0  0
 33 34  1  0  0  0
 33 35  1  0  0  0
  6  7  2  0  0  0
 12 13  2  0  0  0
 13 14  1  0  0  0
 14 18  1  0  0  0
 18 19  1  0  0  0
 14 15  2  0  0  0
 15 20  1  0  0  0
 20 21  1  0  0  0
 15 10  1  0  0  0
  7  1  1  0  0  0
 29 24  1  0  0  0
  8  9  1  0  0  0
 22 23  1  0  0  0
M  END
> <minimizedAffinity>
-6.98765

> <CNNscore>
0.5291574001

> <CNNaffinity>
7.5615568161

> <CNN_VS>
4.0012536049

> <CNNaffinity_variance>
0.1690408885

$$$$
[H]c1nc(N([H])c2c([H])c(OC([H])([H])[H])c(OC([H])([H])[H])c(OC([H])([H])[H])c2[H])nc(N([H])c2c([H])c([H])c([H])c([H])c2S(=O)(=O)C([H])(C([H])([H])[H])C([H])([H])[H])c1Cl


 35 37  0  0  0  0  0  0  0  0999 V2000
   56.2583   -4.0206  -11.0144 C   0  0  0  0  0  0  0  0  0  0  0  0
   57.4620   -4.4854  -10.6771 N   0  0  0  0  0  0  0  0  0  0  0  0
   57.6538   -4.9729   -9.4494 C   0  0  0  0  0  0  0  0  0  0  0  0
   56.6711   -5.0175   -8.5208 C   0  0  0  0  0  0  0  0  0  0  0  0
   56.8958   -5.6340   -6.9015 Cl  0  0  0  0  0  0  0  0  0  0  0  0
   55.3836   -4.5333   -8.8465 C   0  0  0  0  0  0  0  0  0  0  0  0
   55.2856   -4.0641  -10.0975 N   0  0  0  0  0  0  0  0  0  0  0  0
   55.9530   -3.4876  -12.2765 N   0  0  0  0  0  0  0  0  0  0  0  0
   55.0441   -2.9325  -12.3695 H   0  0  0  0  0  0  0  0  0  0  0  0
   56.9903   -3.7288  -15.8340 C   0  0  0  0  0  0  0  0  0  0  0  0
   56.1655   -3.6518  -14.7166 C   0  0  0  0  0  0  0  0  0  0  0  0
   56.7244   -3.5970  -13.4676 C   0  0  0  0  0  0  0  0  0  0  0  0
   58.1310   -3.6211  -13.3323 C   0  0  0  0  0  0  0  0  0  0  0  0
   58.9449   -3.6973  -14.4288 C   0  0  0  0  0  0  0  0  0  0  0  0
   58.3331   -3.7498  -15.6742 C   0  0  0  0  0  0  0  0  0  0  0  0
   55.5755   -2.7386  -17.5092 C   0  0  0  0  0  0  0  0  0  0  0  0
   56.4288   -3.7831  -17.0911 O   0  0  0  0  0  0  0  0  0  0  0  0
   60.3193   -3.7232  -14.3407 O   0  0  0  0  0  0  0  0  0  0  0  0
   61.0367   -2.5392  -14.0401 C   0  0  0  0  0  0  0  0  0  0  0  0
   59.1624   -3.8267  -16.7843 O   0  0  0  0  0  0  0  0  0  0  0  0
   59.5804   -2.6906  -17.5150 C   0  0  0  0  0  0  0  0  0  0  0  0
   54.3471   -4.6234   -7.9040 N   0  0  0  0  0  0  0  0  0  0  0  0
   54.5071   -5.2732   -7.1060 H   0  0  0  0  0  0  0  0  0  0  0  0
   53.1440   -3.9084   -7.9157 C   0  0  0  0  0  0  0  0  0  0  0  0
   53.0022   -2.7418   -8.6816 C   0  0  0  0  0  0  0  0  0  0  0  0
   51.8491   -1.9778   -8.5780 C   0  0  0  0  0  0  0  0  0  0  0  0
   50.8274   -2.3307   -7.7374 C   0  0  0  0  0  0  0  0  0  0  0  0
   50.9865   -3.4657   -7.0056 C   0  0  0  0  0  0  0  0  0  0  0  0
   52.1214   -4.2961   -7.0536 C   0  0  0  0  0  0  0  0  0  0  0  0
   52.1472   -5.7717   -6.1599 S   0  0  0  0  0  0  0  0  0  0  0  0
   52.8268   -6.8202   -7.0755 O   0  0  0  0  0  0  0  0  0  0  0  0
   50.7917   -6.3766   -5.9144 O   0  0  0  0  0  0  0  0  0  0  0  0
   53.1236   -5.7503   -4.6970 C   0  0  0  0  0  0  0  0  0  0  0  0
   54.2604   -6.8023   -4.8126 C   0  0  0  0  0  0  0  0  0  0  0  0
   52.4370   -6.0481   -3.4179 C   0  0  0  0  0  0  0  0  0  0  0  0
 16 17  1  0  0  0
 17 10  1  0  0  0
 10 11  2  0  0  0
 11 12  1  0  0  0
 12  8  1  0  0  0
  8  1  1  0  0  0
  1  2  2  0  0  0
  2  3  1  0  0  0
  3  4  2  0  0  0
  4  5  1  0  0  0
  4  6  1  0  0  0
  6 22  1  0  0  0
 22 24  1  0  0  0
 24 25  2  0  0  0
 25 26  1  0  0  0
 26 27  2  0  0  0
 27 28  1  0  0  0
 28 29  2  0  0  0
 29 30  1  0  0  0
 30 31  2  0  0  0
 30 32  2  0  0  0
 30 33  1  0  0  0
 33 34  1  0  0  0
 33 35  1  0  0  0
  6  7  2  0  0  0
 12 13  2  0  0  0
 13 14  1  0  0  0
 14 18  1  0  0  0
 18 19  1  0  0  0
 14 15  2  0  0  0
 15 20  1  0  0  0
 20 21  1  0  0  0
 15 10  1  0  0  0
  7  1  1  0  0  0
 29 24  1  0  0  0
  8  9  1  0  0  0
 22 23  1  0  0  0
M  END
> <minimizedAffinity>
-8.10569

> <CNNscore>
0.4277496040

> <CNNaffinity>
7.0509996414

> <CNN_VS>
3.0160622597

> <CNNaffinity_variance>
0.1542573571

$$$$
[H]c1nc(N([H])c2c([H])c(OC([H])([H])[H])c(OC([H])([H])[H])c(OC([H])([H])[H])c2[H])nc(N([H])c2c([H])c([H])c([H])c([H])c2S(=O)(=O)C([H])(C([H])([H])[H])C([H])([H])[H])c1Cl


 35 37  0  0  0  0  0  0  0  0999 V2000
   56.3106   -4.0734  -10.9230 C   0  0  0  0  0  0  0  0  0  0  0  0
   57.5004   -4.5650  -10.5747 N   0  0  0  0  0  0  0  0  0  0  0  0
   57.6787   -5.0290   -9.3359 C   0  0  0  0  0  0  0  0  0  0  0  0
   56.6956   -5.0233   -8.4067 C   0  0  0  0  0  0  0  0  0  0  0  0
   56.9032   -5.6081   -6.7734 Cl  0  0  0  0  0  0  0  0  0  0  0  0
   55.4226   -4.5097   -8.7437 C   0  0  0  0  0  0  0  0  0  0  0  0
   55.3376   -4.0672  -10.0054 N   0  0  0  0  0  0  0  0  0  0  0  0
   56.0202   -3.5615  -12.1972 N   0  0  0  0  0  0  0  0  0  0  0  0
   55.0762   -3.0776  -12.3297 H   0  0  0  0  0  0  0  0  0  0  0  0
   58.9553   -3.6970  -14.4680 C   0  0  0  0  0  0  0  0  0  0  0  0
   58.2167   -3.6218  -13.2917 C   0  0  0  0  0  0  0  0  0  0  0  0
   56.8487   -3.6073  -13.3536 C   0  0  0  0  0  0  0  0  0  0  0  0
   56.2077   -3.6675  -14.6117 C   0  0  0  0  0  0  0  0  0  0  0  0
   56.9309   -3.7411  -15.7702 C   0  0  0  0  0  0  0  0  0  0  0  0
   58.3149   -3.7539  -15.6578 C   0  0  0  0  0  0  0  0  0  0  0  0
   61.0182   -2.5297  -14.0546 C   0  0  0  0  0  0  0  0  0  0  0  0
   60.3317   -3.7125  -14.4067 O   0  0  0  0  0  0  0  0  0  0  0  0
   56.3456   -3.8013  -17.0157 O   0  0  0  0  0  0  0  0  0  0  0  0
   55.7423   -2.6486  -17.5761 C   0  0  0  0  0  0  0  0  0  0  0  0
   59.0451   -3.8290  -16.8355 O   0  0  0  0  0  0  0  0  0  0  0  0
   59.5338   -2.6888  -17.5141 C   0  0  0  0  0  0  0  0  0  0  0  0
   54.3844   -4.5475   -7.7995 N   0  0  0  0  0  0  0  0  0  0  0  0
   54.5563   -5.1260   -6.9507 H   0  0  0  0  0  0  0  0  0  0  0  0
   53.1646   -3.8651   -7.8725 C   0  0  0  0  0  0  0  0  0  0  0  0
   53.0369   -2.6884   -8.6252 C   0  0  0  0  0  0  0  0  0  0  0  0
   51.8588   -1.9578   -8.5792 C   0  0  0  0  0  0  0  0  0  0  0  0
   50.7982   -2.3540   -7.8090 C   0  0  0  0  0  0  0  0  0  0  0  0
   50.9443   -3.4981   -7.0886 C   0  0  0  0  0  0  0  0  0  0  0  0
   52.1029   -4.2966   -7.0815 C   0  0  0  0  0  0  0  0  0  0  0  0
   52.1157   -5.7876   -6.2136 S   0  0  0  0  0  0  0  0  0  0  0  0
   52.8856   -6.7978   -7.1005 O   0  0  0  0  0  0  0  0  0  0  0  0
   50.7663   -6.4370   -6.0684 O   0  0  0  0  0  0  0  0  0  0  0  0
   52.9934   -5.7655   -4.6895 C   0  0  0  0  0  0  0  0  0  0  0  0
   54.1771   -6.7691   -4.7539 C   0  0  0  0  0  0  0  0  0  0  0  0
   52.2378   -6.1223   -3.4655 C   0  0  0  0  0  0  0  0  0  0  0  0
 16 17  1  0  0  0
 17 10  1  0  0  0
 10 11  2  0  0  0
 11 12  1  0  0  0
 12  8  1  0  0  0
  8  1  1  0  0  0
  1  2  2  0  0  0
  2  3  1  0  0  0
  3  4  2  0  0  0
  4  5  1  0  0  0
  4  6  1  0  0  0
  6 22  1  0  0  0
 22 24  1  0  0  0
 24 25  2  0  0  0
 25 26  1  0  0  0
 26 27  2  0  0  0
 27 28  1  0  0  0
 28 29  2  0  0  0
 29 30  1  0  0  0
 30 31  2  0  0  0
 30 32  2  0  0  0
 30 33  1  0  0  0
 33 34  1  0  0  0
 33 35  1  0  0  0
  6  7  2  0  0  0
 12 13  2  0  0  0
 13 14  1  0  0  0
 14 18  1  0  0  0
 18 19  1  0  0  0
 14 15  2  0  0  0
 15 20  1  0  0  0
 20 21  1  0  0  0
 15 10  1  0  0  0
  7  1  1  0  0  0
 29 24  1  0  0  0
  8  9  1  0  0  0
 22 23  1  0  0  0
M  END
> <minimizedAffinity>
-8.06788

> <CNNscore>
0.4245665073

> <CNNaffinity>
7.0438828468

> <CNN_VS>
2.9905967712

> <CNNaffinity_variance>
0.1716705114

$$$$
[H]c1nc(N([H])c2c([H])c(OC([H])([H])[H])c(OC([H])([H])[H])c(OC([H])([H])[H])c2[H])nc(N([H])c2c([H])c([H])c([H])c([H])c2S(=O)(=O)C([H])(C([H])([H])[H])C([H])([H])[H])c1Cl


 35 37  0  0  0  0  0  0  0  0999 V2000
   54.7270   -4.2868   -8.0573 C   0  0  0  0  0  0  0  0  0  0  0  0
   54.0390   -3.2815   -8.6002 N   0  0  0  0  0  0  0  0  0  0  0  0
   52.7241   -3.1985   -8.3858 C   0  0  0  0  0  0  0  0  0  0  0  0
   52.0497   -4.0983   -7.6338 C   0  0  0  0  0  0  0  0  0  0  0  0
   50.3274   -4.0256   -7.3489 Cl  0  0  0  0  0  0  0  0  0  0  0  0
   52.7494   -5.1755   -7.0436 C   0  0  0  0  0  0  0  0  0  0  0  0
   54.0616   -5.1771   -7.3134 N   0  0  0  0  0  0  0  0  0  0  0  0
   56.1095   -4.4649   -8.2216 N   0  0  0  0  0  0  0  0  0  0  0  0
   56.6949   -4.6130   -7.3394 H   0  0  0  0  0  0  0  0  0  0  0  0
   57.1663   -3.9106  -11.7381 C   0  0  0  0  0  0  0  0  0  0  0  0
   56.3807   -3.8812  -10.5906 C   0  0  0  0  0  0  0  0  0  0  0  0
   56.8376   -4.4756   -9.4445 C   0  0  0  0  0  0  0  0  0  0  0  0
   58.0999   -5.1112   -9.4450 C   0  0  0  0  0  0  0  0  0  0  0  0
   58.8746   -5.1423  -10.5717 C   0  0  0  0  0  0  0  0  0  0  0  0
   58.3703   -4.5258  -11.7092 C   0  0  0  0  0  0  0  0  0  0  0  0
   56.3454   -4.1221  -13.9898 C   0  0  0  0  0  0  0  0  0  0  0  0
   56.7077   -3.3121  -12.8914 O   0  0  0  0  0  0  0  0  0  0  0  0
   60.1096   -5.7509  -10.6146 O   0  0  0  0  0  0  0  0  0  0  0  0
   60.6702   -6.3090   -9.4394 C   0  0  0  0  0  0  0  0  0  0  0  0
   59.1596   -4.5592  -12.8501 O   0  0  0  0  0  0  0  0  0  0  0  0
   60.0371   -3.5111  -13.2119 C   0  0  0  0  0  0  0  0  0  0  0  0
   52.0640   -6.0835   -6.2211 N   0  0  0  0  0  0  0  0  0  0  0  0
   51.9382   -7.0443   -6.6027 H   0  0  0  0  0  0  0  0  0  0  0  0
   51.5651   -5.8345   -4.9374 C   0  0  0  0  0  0  0  0  0  0  0  0
   50.2343   -5.4364   -4.7422 C   0  0  0  0  0  0  0  0  0  0  0  0
   49.7966   -5.0689   -3.4783 C   0  0  0  0  0  0  0  0  0  0  0  0
   50.6358   -5.0813   -2.3964 C   0  0  0  0  0  0  0  0  0  0  0  0
   51.9210   -5.4714   -2.6092 C   0  0  0  0  0  0  0  0  0  0  0  0
   52.4428   -5.8608   -3.8566 C   0  0  0  0  0  0  0  0  0  0  0  0
   54.0619   -6.4461   -3.9679 S   0  0  0  0  0  0  0  0  0  0  0  0
   54.9147   -5.2630   -4.4898 O   0  0  0  0  0  0  0  0  0  0  0  0
   54.2746   -7.4974   -5.0230 O   0  0  0  0  0  0  0  0  0  0  0  0
   54.8066   -6.8992   -2.4401 C   0  0  0  0  0  0  0  0  0  0  0  0
   55.4908   -5.6582   -1.8044 C   0  0  0  0  0  0  0  0  0  0  0  0
   55.8505   -7.9505   -2.4789 C   0  0  0  0  0  0  0  0  0  0  0  0
 16 17  1  0  0  0
 17 10  1  0  0  0
 10 11  2  0  0  0
 11 12  1  0  0  0
 12  8  1  0  0  0
  8  1  1  0  0  0
  1  2  2  0  0  0
  2  3  1  0  0  0
  3  4  2  0  0  0
  4  5  1  0  0  0
  4  6  1  0  0  0
  6 22  1  0  0  0
 22 24  1  0  0  0
 24 25  2  0  0  0
 25 26  1  0  0  0
 26 27  2  0  0  0
 27 28  1  0  0  0
 28 29  2  0  0  0
 29 30  1  0  0  0
 30 31  2  0  0  0
 30 32  2  0  0  0
 30 33  1  0  0  0
 33 34  1  0  0  0
 33 35  1  0  0  0
  6  7  2  0  0  0
 12 13  2  0  0  0
 13 14  1  0  0  0
 14 18  1  0  0  0
 18 19  1  0  0  0
 14 15  2  0  0  0
 15 20  1  0  0  0
 20 21  1  0  0  0
 15 10  1  0  0  0
  7  1  1  0  0  0
 29 24  1  0  0  0
  8  9  1  0  0  0
 22 23  1  0  0  0
M  END
> <minimizedAffinity>
-8.39836

> <CNNscore>
0.3549863994

> <CNNaffinity>
7.2439489365

> <CNN_VS>
2.5715034008

> <CNNaffinity_variance>
0.1472981721

$$$$
[H]c1nc(N([H])c2c([H])c(OC([H])([H])[H])c(OC([H])([H])[H])c(OC([H])([H])[H])c2[H])nc(N([H])c2c([H])c([H])c([H])c([H])c2S(=O)(=O)C([H])(C([H])([H])[H])C([H])([H])[H])c1Cl


 35 37  0  0  0  0  0  0  0  0999 V2000
   55.9538   -5.1989   -6.5307 C   0  0  0  0  0  0  0  0  0  0  0  0
   56.9457   -5.8142   -5.8855 N   0  0  0  0  0  0  0  0  0  0  0  0
   56.6549   -6.7585   -4.9880 C   0  0  0  0  0  0  0  0  0  0  0  0
   55.3848   -7.1241   -4.6998 C   0  0  0  0  0  0  0  0  0  0  0  0
   54.9723   -8.3440   -3.5189 Cl  0  0  0  0  0  0  0  0  0  0  0  0
   54.3105   -6.4920   -5.3663 C   0  0  0  0  0  0  0  0  0  0  0  0
   54.6975   -5.5595   -6.2470 N   0  0  0  0  0  0  0  0  0  0  0  0
   56.1519   -4.1942   -7.4905 N   0  0  0  0  0  0  0  0  0  0  0  0
   55.8115   -3.2098   -7.2500 H   0  0  0  0  0  0  0  0  0  0  0  0
   56.9454   -3.9034  -11.1066 C   0  0  0  0  0  0  0  0  0  0  0  0
   56.2694   -3.7456   -9.9012 C   0  0  0  0  0  0  0  0  0  0  0  0
   56.7661   -4.3311   -8.7671 C   0  0  0  0  0  0  0  0  0  0  0  0
   57.9573   -5.0884   -8.8387 C   0  0  0  0  0  0  0  0  0  0  0  0
   58.6241   -5.2459  -10.0223 C   0  0  0  0  0  0  0  0  0  0  0  0
   58.0833   -4.6333  -11.1450 C   0  0  0  0  0  0  0  0  0  0  0  0
   56.0301   -4.1332  -13.3198 C   0  0  0  0  0  0  0  0  0  0  0  0
   56.4469   -3.3139  -12.2478 O   0  0  0  0  0  0  0  0  0  0  0  0
   59.7871   -5.9754  -10.1351 O   0  0  0  0  0  0  0  0  0  0  0  0
   60.5641   -6.2602   -8.9852 C   0  0  0  0  0  0  0  0  0  0  0  0
   58.7631   -4.7953  -12.3439 O   0  0  0  0  0  0  0  0  0  0  0  0
   59.6483   -3.8240  -12.8660 C   0  0  0  0  0  0  0  0  0  0  0  0
   52.9930   -6.9023   -5.1084 N   0  0  0  0  0  0  0  0  0  0  0  0
   52.7235   -7.8390   -5.4753 H   0  0  0  0  0  0  0  0  0  0  0  0
   52.0249   -6.1953   -4.3861 C   0  0  0  0  0  0  0  0  0  0  0  0
   51.9456   -6.2972   -2.9893 C   0  0  0  0  0  0  0  0  0  0  0  0
   50.9001   -5.6936   -2.3062 C   0  0  0  0  0  0  0  0  0  0  0  0
   49.9256   -4.9899   -2.9621 C   0  0  0  0  0  0  0  0  0  0  0  0
   50.0235   -4.9037   -4.3157 C   0  0  0  0  0  0  0  0  0  0  0  0
   51.0510   -5.4839   -5.0821 C   0  0  0  0  0  0  0  0  0  0  0  0
   51.1221   -5.2002   -6.7824 S   0  0  0  0  0  0  0  0  0  0  0  0
   49.6542   -5.0841   -7.2634 O   0  0  0  0  0  0  0  0  0  0  0  0
   51.6428   -6.3596   -7.5876 O   0  0  0  0  0  0  0  0  0  0  0  0
   51.8752   -3.6851   -7.2633 C   0  0  0  0  0  0  0  0  0  0  0  0
   50.7828   -2.5987   -7.4612 C   0  0  0  0  0  0  0  0  0  0  0  0
   52.6637   -3.6870   -8.5181 C   0  0  0  0  0  0  0  0  0  0  0  0
 16 17  1  0  0  0
 17 10  1  0  0  0
 10 11  2  0  0  0
 11 12  1  0  0  0
 12  8  1  0  0  0
  8  1  1  0  0  0
  1  2  2  0  0  0
  2  3  1  0  0  0
  3  4  2  0  0  0
  4  5  1  0  0  0
  4  6  1  0  0  0
  6 22  1  0  0  0
 22 24  1  0  0  0
 24 25  2  0  0  0
 25 26  1  0  0  0
 26 27  2  0  0  0
 27 28  1  0  0  0
 28 29  2  0  0  0
 29 30  1  0  0  0
 30 31  2  0  0  0
 30 32  2  0  0  0
 30 33  1  0  0  0
 33 34  1  0  0  0
 33 35  1  0  0  0
  6  7  2  0  0  0
 12 13  2  0  0  0
 13 14  1  0  0  0
 14 18  1  0  0  0
 18 19  1  0  0  0
 14 15  2  0  0  0
 15 20  1  0  0  0
 20 21  1  0  0  0
 15 10  1  0  0  0
  7  1  1  0  0  0
 29 24  1  0  0  0
  8  9  1  0  0  0
 22 23  1  0  0  0
M  END
> <minimizedAffinity>
-8.50528

> <CNNscore>
0.3422325850

> <CNNaffinity>
7.1120758057

> <CNN_VS>
2.4339840412

> <CNNaffinity_variance>
0.2293183059

$$$$
[H]c1nc([H])c2sc(C(=O)N([H])C([H])([H])[H])c([H])c2c1Oc1c([H])c([H])c(N([H])C(=O)c2c([H])c([H])c(Cl)c(C(F)(F)F)c2[H])c([H])c1[H]


 36 39  0  0  0  0  0  0  0  0999 V2000
   55.0196   -3.4602   -8.5633 C   0  0  0  0  0  0  0  0  0  0  0  0
   55.8274   -3.5051   -7.4485 C   0  0  0  0  0  0  0  0  0  0  0  0
   56.9725   -4.2542   -7.4307 C   0  0  0  0  0  0  0  0  0  0  0  0
   57.3875   -5.0156   -8.5410 C   0  0  0  0  0  0  0  0  0  0  0  0
   56.5698   -4.9553   -9.6374 C   0  0  0  0  0  0  0  0  0  0  0  0
   55.4055   -4.1930   -9.6533 C   0  0  0  0  0  0  0  0  0  0  0  0
   58.5999   -5.7540   -8.4473 N   0  0  0  0  0  0  0  0  0  0  0  0
   59.5449   -5.9497   -9.4784 C   0  0  0  0  0  0  0  0  0  0  0  0
   59.4033   -5.4710  -10.6587 O   0  0  0  0  0  0  0  0  0  0  0  0
   58.8395   -6.2134   -7.5218 H   0  0  0  0  0  0  0  0  0  0  0  0
   60.7660   -6.7172   -9.2853 C   0  0  0  0  0  0  0  0  0  0  0  0
   60.8121   -8.0334   -9.6429 C   0  0  0  0  0  0  0  0  0  0  0  0
   61.9708   -8.7674   -9.4703 C   0  0  0  0  0  0  0  0  0  0  0  0
   63.0695   -8.1646   -8.9385 C   0  0  0  0  0  0  0  0  0  0  0  0
   64.5259   -9.1431   -8.7374 Cl  0  0  0  0  0  0  0  0  0  0  0  0
   63.0444   -6.8433   -8.5723 C   0  0  0  0  0  0  0  0  0  0  0  0
   61.8851   -6.1286   -8.7507 C   0  0  0  0  0  0  0  0  0  0  0  0
   64.2350   -6.2120   -8.0022 C   0  0  0  0  0  0  0  0  0  0  0  0
   64.5343   -6.7769   -6.7579 F   0  0  0  0  0  0  0  0  0  0  0  0
   65.3199   -6.2515   -8.8512 F   0  0  0  0  0  0  0  0  0  0  0  0
   63.9760   -4.8631   -7.7257 F   0  0  0  0  0  0  0  0  0  0  0  0
   53.8506   -2.7005   -8.5921 O   0  0  0  0  0  0  0  0  0  0  0  0
   53.4958   -6.0200   -5.8557 C   0  0  0  0  0  0  0  0  0  0  0  0
   53.7344   -4.9899   -6.7242 C   0  0  0  0  0  0  0  0  0  0  0  0
   52.6745   -4.2720   -7.1452 C   0  0  0  0  0  0  0  0  0  0  0  0
   52.6622   -3.1758   -8.0294 C   0  0  0  0  0  0  0  0  0  0  0  0
   51.4955   -2.5467   -8.3627 C   0  0  0  0  0  0  0  0  0  0  0  0
   50.2917   -2.9234   -7.8772 N   0  0  0  0  0  0  0  0  0  0  0  0
   50.2693   -3.9672   -7.0302 C   0  0  0  0  0  0  0  0  0  0  0  0
   51.4469   -4.6364   -6.6661 C   0  0  0  0  0  0  0  0  0  0  0  0
   51.8091   -5.9605   -5.6504 S   0  0  0  0  0  0  0  0  0  0  0  0
   55.3427   -8.2830   -3.3796 C   0  0  0  0  0  0  0  0  0  0  0  0
   54.3699   -7.3634   -3.9103 N   0  0  0  0  0  0  0  0  0  0  0  0
   54.4471   -6.9513   -5.2459 C   0  0  0  0  0  0  0  0  0  0  0  0
   55.3695   -7.3901   -5.9729 O   0  0  0  0  0  0  0  0  0  0  0  0
   53.6113   -7.0064   -3.3010 H   0  0  0  0  0  0  0  0  0  0  0  0
 32 33  1  0  0  0
 33 34  1  0  0  0
 34 35  2  0  0  0
 34 23  1  0  0  0
 23 24  2  0  0  0
 24 25  1  0  0  0
 25 26  2  0  0  0
 26 22  1  0  0  0
 22  1  1  0  0  0
  1  2  2  0  0  0
  2  3  1  0  0  0
  3  4  2  0  0  0
  4  7  1  0  0  0
  7  8  1  0  0  0
  8  9  2  0  0  0
  8 11  1  0  0  0
 11 12  2  0  0  0
 12 13  1  0  0  0
 13 14  2  0  0  0
 14 15  1  0  0  0
 14 16  1  0  0  0
 16 17  2  0  0  0
 16 18  1  0  0  0
 18 19  1  0  0  0
 18 20  1  0  0  0
 18 21  1  0  0  0
  4  5  1  0  0  0
  5  6  2  0  0  0
 26 27  1  0  0  0
 27 28  2  0  0  0
 28 29  1  0  0  0
 29 30  2  0  0  0
 30 31  1  0  0  0
 31 23  1  0  0  0
 30 25  1  0  0  0
  6  1  1  0  0  0
 17 11  1  0  0  0
 33 36  1  0  0  0
  7 10  1  0  0  0
M  END
> <minimizedAffinity>
-8.98886

> <CNNscore>
0.5251930952

> <CNNaffinity>
7.0472488403

> <CNN_VS>
3.7011663914

> <CNNaffinity_variance>
0.0507986657

$$$$
[H]c1nc([H])c2sc(C(=O)N([H])C([H])([H])[H])c([H])c2c1Oc1c([H])c([H])c(N([H])C(=O)c2c([H])c([H])c(Cl)c(C(F)(F)F)c2[H])c([H])c1[H]


 36 39  0  0  0  0  0  0  0  0999 V2000
   54.1318   -4.7045   -7.8286 C   0  0  0  0  0  0  0  0  0  0  0  0
   53.5065   -4.1926   -8.9440 C   0  0  0  0  0  0  0  0  0  0  0  0
   54.2153   -3.8641  -10.0677 C   0  0  0  0  0  0  0  0  0  0  0  0
   55.6121   -4.0290  -10.1478 C   0  0  0  0  0  0  0  0  0  0  0  0
   56.2118   -4.5396   -9.0280 C   0  0  0  0  0  0  0  0  0  0  0  0
   55.4891   -4.8728   -7.8861 C   0  0  0  0  0  0  0  0  0  0  0  0
   56.2722   -3.6791  -11.3585 N   0  0  0  0  0  0  0  0  0  0  0  0
   57.4490   -4.2667  -11.8726 C   0  0  0  0  0  0  0  0  0  0  0  0
   58.0787   -5.2106  -11.2769 O   0  0  0  0  0  0  0  0  0  0  0  0
   55.8594   -2.9020  -11.9507 H   0  0  0  0  0  0  0  0  0  0  0  0
   58.0489   -3.8458  -13.1296 C   0  0  0  0  0  0  0  0  0  0  0  0
   59.3836   -3.5681  -13.1931 C   0  0  0  0  0  0  0  0  0  0  0  0
   59.9628   -3.1755  -14.3854 C   0  0  0  0  0  0  0  0  0  0  0  0
   59.1884   -3.0676  -15.4998 C   0  0  0  0  0  0  0  0  0  0  0  0
   59.9734   -2.5628  -16.9991 Cl  0  0  0  0  0  0  0  0  0  0  0  0
   57.8454   -3.3418  -15.4577 C   0  0  0  0  0  0  0  0  0  0  0  0
   57.2859   -3.7306  -14.2651 C   0  0  0  0  0  0  0  0  0  0  0  0
   57.0284   -3.2203  -16.6656 C   0  0  0  0  0  0  0  0  0  0  0  0
   55.6952   -3.5359  -16.3828 F   0  0  0  0  0  0  0  0  0  0  0  0
   57.1408   -1.9845  -17.2654 F   0  0  0  0  0  0  0  0  0  0  0  0
   57.4256   -4.1755  -17.6105 F   0  0  0  0  0  0  0  0  0  0  0  0
   53.4194   -5.0422   -6.6783 O   0  0  0  0  0  0  0  0  0  0  0  0
   50.9571   -5.8818   -3.2338 C   0  0  0  0  0  0  0  0  0  0  0  0
   51.8254   -5.6935   -4.2744 C   0  0  0  0  0  0  0  0  0  0  0  0
   51.4361   -4.8727   -5.2697 C   0  0  0  0  0  0  0  0  0  0  0  0
   52.1442   -4.5226   -6.4358 C   0  0  0  0  0  0  0  0  0  0  0  0
   51.6101   -3.6696   -7.3605 C   0  0  0  0  0  0  0  0  0  0  0  0
   50.3870   -3.1105   -7.2258 N   0  0  0  0  0  0  0  0  0  0  0  0
   49.6851   -3.4246   -6.1231 C   0  0  0  0  0  0  0  0  0  0  0  0
   50.2017   -4.2963   -5.1534 C   0  0  0  0  0  0  0  0  0  0  0  0
   49.6281   -4.9146   -3.6685 S   0  0  0  0  0  0  0  0  0  0  0  0
   52.4346   -8.0206   -0.4220 C   0  0  0  0  0  0  0  0  0  0  0  0
   52.3532   -7.2138   -1.6121 N   0  0  0  0  0  0  0  0  0  0  0  0
   51.1186   -6.7083   -2.0358 C   0  0  0  0  0  0  0  0  0  0  0  0
   50.0874   -6.9647   -1.3703 O   0  0  0  0  0  0  0  0  0  0  0  0
   53.2115   -7.0076   -2.1553 H   0  0  0  0  0  0  0  0  0  0  0  0
 32 33  1  0  0  0
 33 34  1  0  0  0
 34 35  2  0  0  0
 34 23  1  0  0  0
 23 24  2  0  0  0
 24 25  1  0  0  0
 25 26  2  0  0  0
 26 22  1  0  0  0
 22  1  1  0  0  0
  1  2  2  0  0  0
  2  3  1  0  0  0
  3  4  2  0  0  0
  4  7  1  0  0  0
  7  8  1  0  0  0
  8  9  2  0  0  0
  8 11  1  0  0  0
 11 12  2  0  0  0
 12 13  1  0  0  0
 13 14  2  0  0  0
 14 15  1  0  0  0
 14 16  1  0  0  0
 16 17  2  0  0  0
 16 18  1  0  0  0
 18 19  1  0  0  0
 18 20  1  0  0  0
 18 21  1  0  0  0
  4  5  1  0  0  0
  5  6  2  0  0  0
 26 27  1  0  0  0
 27 28  2  0  0  0
 28 29  1  0  0  0
 29 30  2  0  0  0
 30 31  1  0  0  0
 31 23  1  0  0  0
 30 25  1  0  0  0
  6  1  1  0  0  0
 17 11  1  0  0  0
 33 36  1  0  0  0
  7 10  1  0  0  0
M  END
> <minimizedAffinity>
-9.91948

> <CNNscore>
0.5132636428

> <CNNaffinity>
7.0889587402

> <CNN_VS>
3.6385047436

> <CNNaffinity_variance>
0.0353157446

$$$$
[H]c1nc([H])c2sc(C(=O)N([H])C([H])([H])[H])c([H])c2c1Oc1c([H])c([H])c(N([H])C(=O)c2c([H])c([H])c(Cl)c(C(F)(F)F)c2[H])c([H])c1[H]


 36 39  0  0  0  0  0  0  0  0999 V2000
   55.0098   -3.5455   -8.6039 C   0  0  0  0  0  0  0  0  0  0  0  0
   55.8130   -3.5054   -7.4856 C   0  0  0  0  0  0  0  0  0  0  0  0
   56.9876   -4.2054   -7.4293 C   0  0  0  0  0  0  0  0  0  0  0  0
   57.4389   -5.0000   -8.5016 C   0  0  0  0  0  0  0  0  0  0  0  0
   56.6250   -5.0243   -9.6022 C   0  0  0  0  0  0  0  0  0  0  0  0
   55.4306   -4.3118   -9.6573 C   0  0  0  0  0  0  0  0  0  0  0  0
   58.6799   -5.6830   -8.3698 N   0  0  0  0  0  0  0  0  0  0  0  0
   59.6162   -5.9280   -9.3983 C   0  0  0  0  0  0  0  0  0  0  0  0
   59.4387   -5.5536  -10.6110 O   0  0  0  0  0  0  0  0  0  0  0  0
   58.9506   -6.0555   -7.4143 H   0  0  0  0  0  0  0  0  0  0  0  0
   60.8684   -6.6314   -9.1651 C   0  0  0  0  0  0  0  0  0  0  0  0
   61.8374   -6.0666   -8.3877 C   0  0  0  0  0  0  0  0  0  0  0  0
   63.0266   -6.7320   -8.1546 C   0  0  0  0  0  0  0  0  0  0  0  0
   63.2241   -7.9596   -8.7088 C   0  0  0  0  0  0  0  0  0  0  0  0
   64.7588   -8.7702   -8.3825 Cl  0  0  0  0  0  0  0  0  0  0  0  0
   62.2634   -8.5450   -9.4932 C   0  0  0  0  0  0  0  0  0  0  0  0
   61.0877   -7.8702   -9.7146 C   0  0  0  0  0  0  0  0  0  0  0  0
   62.4932   -9.8652  -10.0808 C   0  0  0  0  0  0  0  0  0  0  0  0
   61.3837  -10.2592  -10.8362 F   0  0  0  0  0  0  0  0  0  0  0  0
   63.6564   -9.9279  -10.8173 F   0  0  0  0  0  0  0  0  0  0  0  0
   62.5928  -10.8291   -9.0688 F   0  0  0  0  0  0  0  0  0  0  0  0
   53.8109   -2.8365   -8.6718 O   0  0  0  0  0  0  0  0  0  0  0  0
   53.6075   -6.0884   -5.8405 C   0  0  0  0  0  0  0  0  0  0  0  0
   53.7981   -5.0787   -6.7440 C   0  0  0  0  0  0  0  0  0  0  0  0
   52.7141   -4.3808   -7.1360 C   0  0  0  0  0  0  0  0  0  0  0  0
   52.6528   -3.3075   -8.0460 C   0  0  0  0  0  0  0  0  0  0  0  0
   51.4667   -2.6970   -8.3434 C   0  0  0  0  0  0  0  0  0  0  0  0
   50.2888   -3.0715   -7.7966 N   0  0  0  0  0  0  0  0  0  0  0  0
   50.3133   -4.0937   -6.9236 C   0  0  0  0  0  0  0  0  0  0  0  0
   51.5120   -4.7434   -6.5948 C   0  0  0  0  0  0  0  0  0  0  0  0
   51.9309   -6.0381   -5.5631 S   0  0  0  0  0  0  0  0  0  0  0  0
   55.5877   -8.2647   -3.3897 C   0  0  0  0  0  0  0  0  0  0  0  0
   54.5843   -7.3666   -3.9000 N   0  0  0  0  0  0  0  0  0  0  0  0
   54.5934   -6.9958   -5.2498 C   0  0  0  0  0  0  0  0  0  0  0  0
   55.4818   -7.4525   -6.0075 O   0  0  0  0  0  0  0  0  0  0  0  0
   53.8542   -6.9945   -3.2654 H   0  0  0  0  0  0  0  0  0  0  0  0
 32 33  1  0  0  0
 33 34  1  0  0  0
 34 35  2  0  0  0
 34 23  1  0  0  0
 23 24  2  0  0  0
 24 25  1  0  0  0
 25 26  2  0  0  0
 26 22  1  0  0  0
 22  1  1  0  0  0
  1  2  2  0  0  0
  2  3  1  0  0  0
  3  4  2  0  0  0
  4  7  1  0  0  0
  7  8  1  0  0  0
  8  9  2  0  0  0
  8 11  1  0  0  0
 11 12  2  0  0  0
 12 13  1  0  0  0
 13 14  2  0  0  0
 14 15  1  0  0  0
 14 16  1  0  0  0
 16 17  2  0  0  0
 16 18  1  0  0  0
 18 19  1  0  0  0
 18 20  1  0  0  0
 18 21  1  0  0  0
  4  5  1  0  0  0
  5  6  2  0  0  0
 26 27  1  0  0  0
 27 28  2  0  0  0
 28 29  1  0  0  0
 29 30  2  0  0  0
 30 31  1  0  0  0
 31 23  1  0  0  0
 30 25  1  0  0  0
  6  1  1  0  0  0
 17 11  1  0  0  0
 33 36  1  0  0  0
  7 10  1  0  0  0
M  END
> <minimizedAffinity>
-8.80358

> <CNNscore>
0.4663434625

> <CNNaffinity>
6.9397878647

> <CNN_VS>
3.2363247871

> <CNNaffinity_variance>
0.0744804516

$$$$
[H]c1nc([H])c2sc(C(=O)N([H])C([H])([H])[H])c([H])c2c1Oc1c([H])c([H])c(N([H])C(=O)c2c([H])c([H])c(Cl)c(C(F)(F)F)c2[H])c([H])c1[H]


 36 39  0  0  0  0  0  0  0  0999 V2000
   56.4792   -3.8444   -8.8000 C   0  0  0  0  0  0  0  0  0  0  0  0
   57.2567   -4.4942   -7.8669 C   0  0  0  0  0  0  0  0  0  0  0  0
   58.1769   -5.4357   -8.2408 C   0  0  0  0  0  0  0  0  0  0  0  0
   58.3802   -5.7913   -9.5887 C   0  0  0  0  0  0  0  0  0  0  0  0
   57.5970   -5.1325  -10.4981 C   0  0  0  0  0  0  0  0  0  0  0  0
   56.6615   -4.1755  -10.1157 C   0  0  0  0  0  0  0  0  0  0  0  0
   59.3687   -6.7675   -9.8953 N   0  0  0  0  0  0  0  0  0  0  0  0
   60.6575   -6.8641   -9.3260 C   0  0  0  0  0  0  0  0  0  0  0  0
   61.0962   -6.0460   -8.4425 O   0  0  0  0  0  0  0  0  0  0  0  0
   59.1389   -7.5061  -10.6211 H   0  0  0  0  0  0  0  0  0  0  0  0
   61.6012   -7.9071   -9.6985 C   0  0  0  0  0  0  0  0  0  0  0  0
   61.7303   -9.0232   -8.9237 C   0  0  0  0  0  0  0  0  0  0  0  0
   62.6187  -10.0224   -9.2751 C   0  0  0  0  0  0  0  0  0  0  0  0
   63.3665   -9.8838  -10.4042 C   0  0  0  0  0  0  0  0  0  0  0  0
   64.4872  -11.1865  -10.8115 Cl  0  0  0  0  0  0  0  0  0  0  0  0
   63.2523   -8.7703  -11.1965 C   0  0  0  0  0  0  0  0  0  0  0  0
   62.3649   -7.7870  -10.8330 C   0  0  0  0  0  0  0  0  0  0  0  0
   64.0644   -8.6383  -12.4066 C   0  0  0  0  0  0  0  0  0  0  0  0
   65.4086   -8.4472  -12.0697 F   0  0  0  0  0  0  0  0  0  0  0  0
   63.9048   -9.6958  -13.2759 F   0  0  0  0  0  0  0  0  0  0  0  0
   63.7045   -7.4755  -13.1004 F   0  0  0  0  0  0  0  0  0  0  0  0
   55.5384   -2.8838   -8.4300 O   0  0  0  0  0  0  0  0  0  0  0  0
   53.8547   -6.0441   -6.0195 C   0  0  0  0  0  0  0  0  0  0  0  0
   54.5033   -5.0788   -6.7405 C   0  0  0  0  0  0  0  0  0  0  0  0
   53.7517   -4.2595   -7.5018 C   0  0  0  0  0  0  0  0  0  0  0  0
   54.1806   -3.2004   -8.3252 C   0  0  0  0  0  0  0  0  0  0  0  0
   53.2884   -2.4540   -9.0428 C   0  0  0  0  0  0  0  0  0  0  0  0
   51.9551   -2.6736   -9.0150 N   0  0  0  0  0  0  0  0  0  0  0  0
   51.5132   -3.6780   -8.2383 C   0  0  0  0  0  0  0  0  0  0  0  0
   52.3999   -4.4644   -7.4883 C   0  0  0  0  0  0  0  0  0  0  0  0
   52.2229   -5.7852   -6.4205 S   0  0  0  0  0  0  0  0  0  0  0  0
   54.7310   -8.1250   -2.9267 C   0  0  0  0  0  0  0  0  0  0  0  0
   54.1441   -7.0982   -3.7483 N   0  0  0  0  0  0  0  0  0  0  0  0
   54.4139   -7.0564   -5.1212 C   0  0  0  0  0  0  0  0  0  0  0  0
   55.1697   -7.9198   -5.6265 O   0  0  0  0  0  0  0  0  0  0  0  0
   53.5206   -6.3891   -3.3210 H   0  0  0  0  0  0  0  0  0  0  0  0
 32 33  1  0  0  0
 33 34  1  0  0  0
 34 35  2  0  0  0
 34 23  1  0  0  0
 23 24  2  0  0  0
 24 25  1  0  0  0
 25 26  2  0  0  0
 26 22  1  0  0  0
 22  1  1  0  0  0
  1  2  2  0  0  0
  2  3  1  0  0  0
  3  4  2  0  0  0
  4  7  1  0  0  0
  7  8  1  0  0  0
  8  9  2  0  0  0
  8 11  1  0  0  0
 11 12  2  0  0  0
 12 13  1  0  0  0
 13 14  2  0  0  0
 14 15  1  0  0  0
 14 16  1  0  0  0
 16 17  2  0  0  0
 16 18  1  0  0  0
 18 19  1  0  0  0
 18 20  1  0  0  0
 18 21  1  0  0  0
  4  5  1  0  0  0
  5  6  2  0  0  0
 26 27  1  0  0  0
 27 28  2  0  0  0
 28 29  1  0  0  0
 29 30  2  0  0  0
 30 31  1  0  0  0
 31 23  1  0  0  0
 30 25  1  0  0  0
  6  1  1  0  0  0
 17 11  1  0  0  0
 33 36  1  0  0  0
  7 10  1  0  0  0
M  END
> <minimizedAffinity>
-7.68858

> <CNNscore>
0.4519944191

> <CNNaffinity>
6.7082395554

> <CNN_VS>
3.0320868492

> <CNNaffinity_variance>
0.2085755318

$$$$
[H]c1nc([H])c2sc(C(=O)N([H])C([H])([H])[H])c([H])c2c1Oc1c([H])c([H])c(N([H])C(=O)c2c([H])c([H])c(Cl)c(C(F)(F)F)c2[H])c([H])c1[H]


 36 39  0  0  0  0  0  0  0  0999 V2000
   53.9851   -4.6786   -7.8219 C   0  0  0  0  0  0  0  0  0  0  0  0
   55.3516   -4.8103   -7.9353 C   0  0  0  0  0  0  0  0  0  0  0  0
   56.0011   -4.4988   -9.0989 C   0  0  0  0  0  0  0  0  0  0  0  0
   55.3162   -4.0298  -10.2372 C   0  0  0  0  0  0  0  0  0  0  0  0
   53.9595   -3.9064  -10.1012 C   0  0  0  0  0  0  0  0  0  0  0  0
   53.3009   -4.2240   -8.9169 C   0  0  0  0  0  0  0  0  0  0  0  0
   56.0675   -3.7120  -11.4028 N   0  0  0  0  0  0  0  0  0  0  0  0
   57.2933   -4.2932  -11.7953 C   0  0  0  0  0  0  0  0  0  0  0  0
   57.8889   -5.2000  -11.1132 O   0  0  0  0  0  0  0  0  0  0  0  0
   55.6908   -2.9670  -12.0571 H   0  0  0  0  0  0  0  0  0  0  0  0
   57.9871   -3.9075  -13.0148 C   0  0  0  0  0  0  0  0  0  0  0  0
   57.2766   -3.5555  -14.1256 C   0  0  0  0  0  0  0  0  0  0  0  0
   57.9281   -3.1799  -15.2856 C   0  0  0  0  0  0  0  0  0  0  0  0
   59.2892   -3.1640  -15.3112 C   0  0  0  0  0  0  0  0  0  0  0  0
   60.0761   -2.6774  -16.8154 Cl  0  0  0  0  0  0  0  0  0  0  0  0
   60.0221   -3.5142  -14.2062 C   0  0  0  0  0  0  0  0  0  0  0  0
   59.3589   -3.8848  -13.0619 C   0  0  0  0  0  0  0  0  0  0  0  0
   61.4845   -3.4914  -14.2522 C   0  0  0  0  0  0  0  0  0  0  0  0
   61.9437   -4.1519  -15.3966 F   0  0  0  0  0  0  0  0  0  0  0  0
   62.0027   -2.2177  -14.1593 F   0  0  0  0  0  0  0  0  0  0  0  0
   62.0088   -4.2295  -13.1830 F   0  0  0  0  0  0  0  0  0  0  0  0
   53.3133   -4.9935   -6.6412 O   0  0  0  0  0  0  0  0  0  0  0  0
   50.9929   -5.7259   -3.0758 C   0  0  0  0  0  0  0  0  0  0  0  0
   51.8191   -5.5684   -4.1551 C   0  0  0  0  0  0  0  0  0  0  0  0
   51.3818   -4.7925   -5.1663 C   0  0  0  0  0  0  0  0  0  0  0  0
   52.0411   -4.4803   -6.3711 C   0  0  0  0  0  0  0  0  0  0  0  0
   51.4613   -3.6710   -7.3076 C   0  0  0  0  0  0  0  0  0  0  0  0
   50.2366   -3.1219   -7.1488 N   0  0  0  0  0  0  0  0  0  0  0  0
   49.5806   -3.4006   -6.0089 C   0  0  0  0  0  0  0  0  0  0  0  0
   50.1449   -4.2270   -5.0260 C   0  0  0  0  0  0  0  0  0  0  0  0
   49.6356   -4.7928   -3.4975 S   0  0  0  0  0  0  0  0  0  0  0  0
   52.5239   -7.2180    0.1012 C   0  0  0  0  0  0  0  0  0  0  0  0
   52.3814   -6.4230   -1.0910 N   0  0  0  0  0  0  0  0  0  0  0  0
   51.2102   -6.5023   -1.8534 C   0  0  0  0  0  0  0  0  0  0  0  0
   50.2892   -7.2707   -1.4884 O   0  0  0  0  0  0  0  0  0  0  0  0
   53.1487   -5.7908   -1.3843 H   0  0  0  0  0  0  0  0  0  0  0  0
 32 33  1  0  0  0
 33 34  1  0  0  0
 34 35  2  0  0  0
 34 23  1  0  0  0
 23 24  2  0  0  0
 24 25  1  0  0  0
 25 26  2  0  0  0
 26 22  1  0  0  0
 22  1  1  0  0  0
  1  2  2  0  0  0
  2  3  1  0  0  0
  3  4  2  0  0  0
  4  7  1  0  0  0
  7  8  1  0  0  0
  8  9  2  0  0  0
  8 11  1  0  0  0
 11 12  2  0  0  0
 12 13  1  0  0  0
 13 14  2  0  0  0
 14 15  1  0  0  0
 14 16  1  0  0  0
 16 17  2  0  0  0
 16 18  1  0  0  0
 18 19  1  0  0  0
 18 20  1  0  0  0
 18 21  1  0  0  0
  4  5  1  0  0  0
  5  6  2  0  0  0
 26 27  1  0  0  0
 27 28  2  0  0  0
 28 29  1  0  0  0
 29 30  2  0  0  0
 30 31  1  0  0  0
 31 23  1  0  0  0
 30 25  1  0  0  0
  6  1  1  0  0  0
 17 11  1  0  0  0
 33 36  1  0  0  0
  7 10  1  0  0  0
M  END
> <minimizedAffinity>
-9.35742

> <CNNscore>
0.4315999150

> <CNNaffinity>
6.9590134621

> <CNN_VS>
3.0035095215

> <CNNaffinity_variance>
0.0770473033

$$$$
[H]c1nc([H])c2sc(C(=O)N([H])C([H])([H])[H])c([H])c2c1Oc1c([H])c([H])c(N([H])C(=O)c2c([H])c([H])c(Cl)c(C(F)(F)F)c2[H])c([H])c1[H]


 36 39  0  0  0  0  0  0  0  0999 V2000
   57.1060   -4.3839  -10.8881 C   0  0  0  0  0  0  0  0  0  0  0  0
   55.8255   -4.0647  -11.2830 C   0  0  0  0  0  0  0  0  0  0  0  0
   54.8011   -3.9899  -10.3787 C   0  0  0  0  0  0  0  0  0  0  0  0
   54.9951   -4.2327   -9.0046 C   0  0  0  0  0  0  0  0  0  0  0  0
   56.2753   -4.5475   -8.6353 C   0  0  0  0  0  0  0  0  0  0  0  0
   57.3156   -4.6233   -9.5567 C   0  0  0  0  0  0  0  0  0  0  0  0
   53.8809   -4.1179   -8.1274 N   0  0  0  0  0  0  0  0  0  0  0  0
   52.6954   -3.3890   -8.3677 C   0  0  0  0  0  0  0  0  0  0  0  0
   52.4901   -2.7193   -9.4409 O   0  0  0  0  0  0  0  0  0  0  0  0
   53.9212   -4.6197   -7.1938 H   0  0  0  0  0  0  0  0  0  0  0  0
   51.6014   -3.3366   -7.4098 C   0  0  0  0  0  0  0  0  0  0  0  0
   50.6282   -2.3877   -7.5321 C   0  0  0  0  0  0  0  0  0  0  0  0
   49.5810   -2.3363   -6.6310 C   0  0  0  0  0  0  0  0  0  0  0  0
   49.5282   -3.2431   -5.6169 C   0  0  0  0  0  0  0  0  0  0  0  0
   48.1716   -3.1373   -4.4911 Cl  0  0  0  0  0  0  0  0  0  0  0  0
   50.4959   -4.2045   -5.4759 C   0  0  0  0  0  0  0  0  0  0  0  0
   51.5293   -4.2415   -6.3799 C   0  0  0  0  0  0  0  0  0  0  0  0
   50.4229   -5.1709   -4.3796 C   0  0  0  0  0  0  0  0  0  0  0  0
   49.1219   -5.6712   -4.2605 F   0  0  0  0  0  0  0  0  0  0  0  0
   51.3477   -6.1857   -4.4985 F   0  0  0  0  0  0  0  0  0  0  0  0
   50.6686   -4.5293   -3.1585 F   0  0  0  0  0  0  0  0  0  0  0  0
   58.1570   -4.4631  -11.8012 O   0  0  0  0  0  0  0  0  0  0  0  0
   61.2819   -3.0314  -14.4122 C   0  0  0  0  0  0  0  0  0  0  0  0
   60.3810   -3.4977  -13.4940 C   0  0  0  0  0  0  0  0  0  0  0  0
   59.0963   -3.6119  -13.8843 C   0  0  0  0  0  0  0  0  0  0  0  0
   57.9950   -4.0624  -13.1308 C   0  0  0  0  0  0  0  0  0  0  0  0
   56.7416   -4.1215  -13.6727 C   0  0  0  0  0  0  0  0  0  0  0  0
   56.4729   -3.7589  -14.9467 N   0  0  0  0  0  0  0  0  0  0  0  0
   57.5032   -3.3240  -15.6928 C   0  0  0  0  0  0  0  0  0  0  0  0
   58.8025   -3.2503  -15.1697 C   0  0  0  0  0  0  0  0  0  0  0  0
   60.3188   -2.7658  -15.7879 S   0  0  0  0  0  0  0  0  0  0  0  0
   65.0355   -3.5445  -13.8542 C   0  0  0  0  0  0  0  0  0  0  0  0
   63.6321   -3.8381  -13.9888 N   0  0  0  0  0  0  0  0  0  0  0  0
   62.7217   -2.8105  -14.2618 C   0  0  0  0  0  0  0  0  0  0  0  0
   63.1398   -1.6352  -14.3875 O   0  0  0  0  0  0  0  0  0  0  0  0
   63.2965   -4.8130  -13.8830 H   0  0  0  0  0  0  0  0  0  0  0  0
 32 33  1  0  0  0
 33 34  1  0  0  0
 34 35  2  0  0  0
 34 23  1  0  0  0
 23 24  2  0  0  0
 24 25  1  0  0  0
 25 26  2  0  0  0
 26 22  1  0  0  0
 22  1  1  0  0  0
  1  2  2  0  0  0
  2  3  1  0  0  0
  3  4  2  0  0  0
  4  7  1  0  0  0
  7  8  1  0  0  0
  8  9  2  0  0  0
  8 11  1  0  0  0
 11 12  2  0  0  0
 12 13  1  0  0  0
 13 14  2  0  0  0
 14 15  1  0  0  0
 14 16  1  0  0  0
 16 17  2  0  0  0
 16 18  1  0  0  0
 18 19  1  0  0  0
 18 20  1  0  0  0
 18 21  1  0  0  0
  4  5  1  0  0  0
  5  6  2  0  0  0
 26 27  1  0  0  0
 27 28  2  0  0  0
 28 29  1  0  0  0
 29 30  2  0  0  0
 30 31  1  0  0  0
 31 23  1  0  0  0
 30 25  1  0  0  0
  6  1  1  0  0  0
 17 11  1  0  0  0
 33 36  1  0  0  0
  7 10  1  0  0  0
M  END
> <minimizedAffinity>
-10.63375

> <CNNscore>
0.4076485932

> <CNNaffinity>
6.8377618790

> <CNN_VS>
2.7874040604

> <CNNaffinity_variance>
0.2861273289

$$$$
[H]c1nc([H])c2sc(C(=O)N([H])C([H])([H])[H])c([H])c2c1Oc1c([H])c([H])c(N([H])C(=O)c2c([H])c([H])c(Cl)c(C(F)(F)F)c2[H])c([H])c1[H]


 36 39  0  0  0  0  0  0  0  0999 V2000
   56.2484   -3.7566   -8.7537 C   0  0  0  0  0  0  0  0  0  0  0  0
   56.4667   -4.1237  -10.0633 C   0  0  0  0  0  0  0  0  0  0  0  0
   57.4295   -5.0385  -10.3935 C   0  0  0  0  0  0  0  0  0  0  0  0
   58.2453   -5.6517   -9.4223 C   0  0  0  0  0  0  0  0  0  0  0  0
   58.0102   -5.2721   -8.1281 C   0  0  0  0  0  0  0  0  0  0  0  0
   57.0306   -4.3414   -7.7945 C   0  0  0  0  0  0  0  0  0  0  0  0
   59.2119   -6.6054   -9.8467 N   0  0  0  0  0  0  0  0  0  0  0  0
   60.5245   -6.7495   -9.3459 C   0  0  0  0  0  0  0  0  0  0  0  0
   61.0086   -6.0024   -8.4241 O   0  0  0  0  0  0  0  0  0  0  0  0
   58.9443   -7.2860  -10.6150 H   0  0  0  0  0  0  0  0  0  0  0  0
   61.4430   -7.7647   -9.8389 C   0  0  0  0  0  0  0  0  0  0  0  0
   62.3591   -7.4513  -10.8007 C   0  0  0  0  0  0  0  0  0  0  0  0
   63.2406   -8.4079  -11.2686 C   0  0  0  0  0  0  0  0  0  0  0  0
   63.1874   -9.6698  -10.7605 C   0  0  0  0  0  0  0  0  0  0  0  0
   64.3337  -10.8569  -11.3896 Cl  0  0  0  0  0  0  0  0  0  0  0  0
   62.2745  -10.0057   -9.7938 C   0  0  0  0  0  0  0  0  0  0  0  0
   61.4060   -9.0432   -9.3401 C   0  0  0  0  0  0  0  0  0  0  0  0
   62.2318  -11.3672   -9.2594 C   0  0  0  0  0  0  0  0  0  0  0  0
   61.8331  -12.2661  -10.2544 F   0  0  0  0  0  0  0  0  0  0  0  0
   63.4202  -11.7505   -8.6762 F   0  0  0  0  0  0  0  0  0  0  0  0
   61.2388  -11.4646   -8.2757 F   0  0  0  0  0  0  0  0  0  0  0  0
   55.2703   -2.8253   -8.4062 O   0  0  0  0  0  0  0  0  0  0  0  0
   53.8753   -6.0878   -5.9480 C   0  0  0  0  0  0  0  0  0  0  0  0
   54.4362   -5.0852   -6.6913 C   0  0  0  0  0  0  0  0  0  0  0  0
   53.6051   -4.2929   -7.3965 C   0  0  0  0  0  0  0  0  0  0  0  0
   53.9368   -3.2056   -8.2281 C   0  0  0  0  0  0  0  0  0  0  0  0
   52.9713   -2.4931   -8.8825 C   0  0  0  0  0  0  0  0  0  0  0  0
   51.6533   -2.7746   -8.7813 N   0  0  0  0  0  0  0  0  0  0  0  0
   51.3034   -3.8073   -7.9947 C   0  0  0  0  0  0  0  0  0  0  0  0
   52.2672   -4.5603   -7.3082 C   0  0  0  0  0  0  0  0  0  0  0  0
   52.2128   -5.9001   -6.2508 S   0  0  0  0  0  0  0  0  0  0  0  0
   55.0649   -8.1288   -2.9343 C   0  0  0  0  0  0  0  0  0  0  0  0
   54.3881   -7.1186   -3.7058 N   0  0  0  0  0  0  0  0  0  0  0  0
   54.5313   -7.0833   -5.0978 C   0  0  0  0  0  0  0  0  0  0  0  0
   55.2529   -7.9379   -5.6641 O   0  0  0  0  0  0  0  0  0  0  0  0
   53.7938   -6.4166   -3.2281 H   0  0  0  0  0  0  0  0  0  0  0  0
 32 33  1  0  0  0
 33 34  1  0  0  0
 34 35  2  0  0  0
 34 23  1  0  0  0
 23 24  2  0  0  0
 24 25  1  0  0  0
 25 26  2  0  0  0
 26 22  1  0  0  0
 22  1  1  0  0  0
  1  2  2  0  0  0
  2  3  1  0  0  0
  3  4  2  0  0  0
  4  7  1  0  0  0
  7  8  1  0  0  0
  8  9  2  0  0  0
  8 11  1  0  0  0
 11 12  2  0  0  0
 12 13  1  0  0  0
 13 14  2  0  0  0
 14 15  1  0  0  0
 14 16  1  0  0  0
 16 17  2  0  0  0
 16 18  1  0  0  0
 18 19  1  0  0  0
 18 20  1  0  0  0
 18 21  1  0  0  0
  4  5  1  0  0  0
  5  6  2  0  0  0
 26 27  1  0  0  0
 27 28  2  0  0  0
 28 29  1  0  0  0
 29 30  2  0  0  0
 30 31  1  0  0  0
 31 23  1  0  0  0
 30 25  1  0  0  0
  6  1  1  0  0  0
 17 11  1  0  0  0
 33 36  1  0  0  0
  7 10  1  0  0  0
M  END
> <minimizedAffinity>
-8.09568

> <CNNscore>
0.3721422553

> <CNNaffinity>
6.7205901146

> <CNN_VS>
2.5010156631

> <CNNaffinity_variance>
0.2020887434

$$$$
[H]c1nc([H])c2sc(C(=O)N([H])C([H])([H])[H])c([H])c2c1Oc1c([H])c([H])c(N([H])C(=O)c2c([H])c([H])c(Cl)c(C(F)(F)F)c2[H])c([H])c1[H]


 36 39  0  0  0  0  0  0  0  0999 V2000
   53.6438   -5.5400   -6.9113 C   0  0  0  0  0  0  0  0  0  0  0  0
   54.5981   -4.6636   -6.4438 C   0  0  0  0  0  0  0  0  0  0  0  0
   55.6923   -5.1078   -5.7521 C   0  0  0  0  0  0  0  0  0  0  0  0
   55.9038   -6.4739   -5.4808 C   0  0  0  0  0  0  0  0  0  0  0  0
   54.9431   -7.3261   -5.9554 C   0  0  0  0  0  0  0  0  0  0  0  0
   53.8309   -6.8723   -6.6584 C   0  0  0  0  0  0  0  0  0  0  0  0
   57.0759   -6.8550   -4.7701 N   0  0  0  0  0  0  0  0  0  0  0  0
   57.1232   -7.5358   -3.5336 C   0  0  0  0  0  0  0  0  0  0  0  0
   56.0742   -7.8911   -2.8889 O   0  0  0  0  0  0  0  0  0  0  0  0
   58.0198   -6.6140   -5.1895 H   0  0  0  0  0  0  0  0  0  0  0  0
   58.3756   -7.8920   -2.8841 C   0  0  0  0  0  0  0  0  0  0  0  0
   59.4030   -6.9950   -2.8376 C   0  0  0  0  0  0  0  0  0  0  0  0
   60.5932   -7.3227   -2.2152 C   0  0  0  0  0  0  0  0  0  0  0  0
   60.7327   -8.5520   -1.6471 C   0  0  0  0  0  0  0  0  0  0  0  0
   62.2711   -8.9243   -0.8639 Cl  0  0  0  0  0  0  0  0  0  0  0  0
   59.7128   -9.4681   -1.6828 C   0  0  0  0  0  0  0  0  0  0  0  0
   58.5371   -9.1263   -2.3051 C   0  0  0  0  0  0  0  0  0  0  0  0
   59.8808  -10.7848   -1.0668 C   0  0  0  0  0  0  0  0  0  0  0  0
   60.1985  -10.6487    0.2887 F   0  0  0  0  0  0  0  0  0  0  0  0
   58.7890  -11.6052   -1.2520 F   0  0  0  0  0  0  0  0  0  0  0  0
   60.9873  -11.4375   -1.6260 F   0  0  0  0  0  0  0  0  0  0  0  0
   52.5250   -5.0983   -7.6169 O   0  0  0  0  0  0  0  0  0  0  0  0
   51.0155   -5.8168   -3.6372 C   0  0  0  0  0  0  0  0  0  0  0  0
   51.5746   -5.6866   -4.8792 C   0  0  0  0  0  0  0  0  0  0  0  0
   51.0982   -4.7111   -5.6776 C   0  0  0  0  0  0  0  0  0  0  0  0
   51.5053   -4.3804   -6.9848 C   0  0  0  0  0  0  0  0  0  0  0  0
   50.9196   -3.3540   -7.6714 C   0  0  0  0  0  0  0  0  0  0  0  0
   49.9264   -2.5961   -7.1560 N   0  0  0  0  0  0  0  0  0  0  0  0
   49.5147   -2.8863   -5.9095 C   0  0  0  0  0  0  0  0  0  0  0  0
   50.0928   -3.9324   -5.1756 C   0  0  0  0  0  0  0  0  0  0  0  0
   49.8465   -4.5825   -3.6158 S   0  0  0  0  0  0  0  0  0  0  0  0
   52.7844   -8.4126   -1.4471 C   0  0  0  0  0  0  0  0  0  0  0  0
   52.5410   -7.4838   -2.5203 N   0  0  0  0  0  0  0  0  0  0  0  0
   51.3344   -6.7766   -2.5782 C   0  0  0  0  0  0  0  0  0  0  0  0
   50.4704   -6.9599   -1.6884 O   0  0  0  0  0  0  0  0  0  0  0  0
   53.2617   -7.3395   -3.2511 H   0  0  0  0  0  0  0  0  0  0  0  0
 32 33  1  0  0  0
 33 34  1  0  0  0
 34 35  2  0  0  0
 34 23  1  0  0  0
 23 24  2  0  0  0
 24 25  1  0  0  0
 25 26  2  0  0  0
 26 22  1  0  0  0
 22  1  1  0  0  0
  1  2  2  0  0  0
  2  3  1  0  0  0
  3  4  2  0  0  0
  4  7  1  0  0  0
  7  8  1  0  0  0
  8  9  2  0  0  0
  8 11  1  0  0  0
 11 12  2  0  0  0
 12 13  1  0  0  0
 13 14  2  0  0  0
 14 15  1  0  0  0
 14 16  1  0  0  0
 16 17  2  0  0  0
 16 18  1  0  0  0
 18 19  1  0  0  0
 18 20  1  0  0  0
 18 21  1  0  0  0
  4  5  1  0  0  0
  5  6  2  0  0  0
 26 27  1  0  0  0
 27 28  2  0  0  0
 28 29  1  0  0  0
 29 30  2  0  0  0
 30 31  1  0  0  0
 31 23  1  0  0  0
 30 25  1  0  0  0
  6  1  1  0  0  0
 17 11  1  0  0  0
 33 36  1  0  0  0
  7 10  1  0  0  0
M  END
> <minimizedAffinity>
-7.99705

> <CNNscore>
0.3087752163

> <CNNaffinity>
6.8053274155

> <CNN_VS>
2.1013164520

> <CNNaffinity_variance>
0.0412061401

$$$$
[H]c1nc([H])c2sc(C(=O)N([H])C([H])([H])[H])c([H])c2c1Oc1c([H])c([H])c(N([H])C(=O)c2c([H])c([H])c(Cl)c(C(F)(F)F)c2[H])c([H])c1[H]


 36 39  0  0  0  0  0  0  0  0999 V2000
   53.1617   -6.2465   -5.4185 C   0  0  0  0  0  0  0  0  0  0  0  0
   54.0606   -6.9841   -6.1569 C   0  0  0  0  0  0  0  0  0  0  0  0
   55.3260   -7.2289   -5.6968 C   0  0  0  0  0  0  0  0  0  0  0  0
   55.7782   -6.7452   -4.4533 C   0  0  0  0  0  0  0  0  0  0  0  0
   54.8679   -6.0154   -3.7369 C   0  0  0  0  0  0  0  0  0  0  0  0
   53.5815   -5.7674   -4.2068 C   0  0  0  0  0  0  0  0  0  0  0  0
   57.1031   -7.0582   -4.0402 N   0  0  0  0  0  0  0  0  0  0  0  0
   57.4813   -8.0704   -3.1309 C   0  0  0  0  0  0  0  0  0  0  0  0
   56.6383   -8.8418   -2.5507 O   0  0  0  0  0  0  0  0  0  0  0  0
   57.9032   -6.4882   -4.4400 H   0  0  0  0  0  0  0  0  0  0  0  0
   58.8692   -8.3228   -2.7740 C   0  0  0  0  0  0  0  0  0  0  0  0
   59.7986   -7.3304   -2.8918 C   0  0  0  0  0  0  0  0  0  0  0  0
   61.1176   -7.5597   -2.5471 C   0  0  0  0  0  0  0  0  0  0  0  0
   61.4834   -8.7879   -2.0876 C   0  0  0  0  0  0  0  0  0  0  0  0
   63.1794   -9.0325   -1.6601 Cl  0  0  0  0  0  0  0  0  0  0  0  0
   60.5654   -9.7989   -1.9619 C   0  0  0  0  0  0  0  0  0  0  0  0
   59.2591   -9.5542   -2.3087 C   0  0  0  0  0  0  0  0  0  0  0  0
   60.9768  -11.1128   -1.4663 C   0  0  0  0  0  0  0  0  0  0  0  0
   61.8820  -11.7039   -2.3542 F   0  0  0  0  0  0  0  0  0  0  0  0
   61.4803  -11.0673   -0.1842 F   0  0  0  0  0  0  0  0  0  0  0  0
   59.8790  -11.9831   -1.4483 F   0  0  0  0  0  0  0  0  0  0  0  0
   51.8701   -5.9908   -5.8779 O   0  0  0  0  0  0  0  0  0  0  0  0
   54.0923   -3.8768   -8.9152 C   0  0  0  0  0  0  0  0  0  0  0  0
   53.4772   -4.6383   -7.9592 C   0  0  0  0  0  0  0  0  0  0  0  0
   52.3374   -4.1616   -7.4212 C   0  0  0  0  0  0  0  0  0  0  0  0
   51.5285   -4.7534   -6.4317 C   0  0  0  0  0  0  0  0  0  0  0  0
   50.3916   -4.1400   -5.9851 C   0  0  0  0  0  0  0  0  0  0  0  0
   49.9689   -2.9440   -6.4515 N   0  0  0  0  0  0  0  0  0  0  0  0
   50.7194   -2.3525   -7.3972 C   0  0  0  0  0  0  0  0  0  0  0  0
   51.8919   -2.9527   -7.8790 C   0  0  0  0  0  0  0  0  0  0  0  0
   53.0705   -2.5234   -9.0378 S   0  0  0  0  0  0  0  0  0  0  0  0
   56.7794   -4.0226  -11.6395 C   0  0  0  0  0  0  0  0  0  0  0  0
   55.5396   -3.7188  -10.9728 N   0  0  0  0  0  0  0  0  0  0  0  0
   55.3252   -4.1472   -9.6575 C   0  0  0  0  0  0  0  0  0  0  0  0
   56.2214   -4.7962   -9.0678 O   0  0  0  0  0  0  0  0  0  0  0  0
   54.8051   -3.1817  -11.4689 H   0  0  0  0  0  0  0  0  0  0  0  0
 32 33  1  0  0  0
 33 34  1  0  0  0
 34 35  2  0  0  0
 34 23  1  0  0  0
 23 24  2  0  0  0
 24 25  1  0  0  0
 25 26  2  0  0  0
 26 22  1  0  0  0
 22  1  1  0  0  0
  1  2  2  0  0  0
  2  3  1  0  0  0
  3  4  2  0  0  0
  4  7  1  0  0  0
  7  8  1  0  0  0
  8  9  2  0  0  0
  8 11  1  0  0  0
 11 12  2  0  0  0
 12 13  1  0  0  0
 13 14  2  0  0  0
 14 15  1  0  0  0
 14 16  1  0  0  0
 16 17  2  0  0  0
 16 18  1  0  0  0
 18 19  1  0  0  0
 18 20  1  0  0  0
 18 21  1  0  0  0
  4  5  1  0  0  0
  5  6  2  0  0  0
 26 27  1  0  0  0
 27 28  2  0  0  0
 28 29  1  0  0  0
 29 30  2  0  0  0
 30 31  1  0  0  0
 31 23  1  0  0  0
 30 25  1  0  0  0
  6  1  1  0  0  0
 17 11  1  0  0  0
 33 36  1  0  0  0
  7 10  1  0  0  0
M  END
> <minimizedAffinity>
-8.39511

> <CNNscore>
0.3086389601

> <CNNaffinity>
6.7840819359

> <CNN_VS>
2.0938320160

> <CNNaffinity_variance>
0.2614674270

$$$$
[H]c1nc([H])c(-c2c(O[C@@]3([H])C([H])([H])OC([H])([H])C3([H])[H])c([H])c3sc(N([H])C(=O)N([H])C([H])([H])C([H])([H])[H])nc3c2[H])c([H])c1[H]


 29 32  0  0  0  0  0  0  0  0999 V2000
   54.0625   -4.1953   -8.2380 C   0  0  0  0  0  0  0  0  0  0  0  0
   54.5364   -3.8771   -9.4226 N   0  0  0  0  0  0  0  0  0  0  0  0
   55.7473   -4.2302   -9.7708 C   0  0  0  0  0  0  0  0  0  0  0  0
   56.3453   -3.9765  -11.0173 C   0  0  0  0  0  0  0  0  0  0  0  0
   57.6276   -4.4475  -11.2596 C   0  0  0  0  0  0  0  0  0  0  0  0
   58.3953   -5.1593  -10.3792 C   0  0  0  0  0  0  0  0  0  0  0  0
   57.7603   -5.3920   -9.1247 C   0  0  0  0  0  0  0  0  0  0  0  0
   56.4908   -4.9321   -8.8674 C   0  0  0  0  0  0  0  0  0  0  0  0
   55.3915   -5.0478   -7.5408 S   0  0  0  0  0  0  0  0  0  0  0  0
   50.6742   -2.7207   -7.5552 N   0  0  0  0  0  0  0  0  0  0  0  0
   51.9115   -2.8655   -8.0854 C   0  0  0  0  0  0  0  0  0  0  0  0
   52.4797   -2.1443   -8.9664 O   0  0  0  0  0  0  0  0  0  0  0  0
   52.7758   -3.9619   -7.6635 N   0  0  0  0  0  0  0  0  0  0  0  0
   50.4369   -1.6389   -8.3775 H   0  0  0  0  0  0  0  0  0  0  0  0
   52.4667   -4.6161   -6.9183 H   0  0  0  0  0  0  0  0  0  0  0  0
   49.3371   -3.0302   -5.5449 C   0  0  0  0  0  0  0  0  0  0  0  0
   49.4309   -2.5753   -7.0224 C   0  0  0  0  0  0  0  0  0  0  0  0
   58.2232   -4.0525  -12.5460 C   0  0  0  0  0  0  0  0  0  0  0  0
   59.5791   -3.8123  -12.6637 C   0  0  0  0  0  0  0  0  0  0  0  0
   60.1240   -3.4351  -13.8843 C   0  0  0  0  0  0  0  0  0  0  0  0
   59.2942   -3.3015  -14.9784 C   0  0  0  0  0  0  0  0  0  0  0  0
   57.9960   -3.5314  -14.8596 N   0  0  0  0  0  0  0  0  0  0  0  0
   57.4443   -3.9044  -13.6656 C   0  0  0  0  0  0  0  0  0  0  0  0
   59.6085   -5.6783  -10.4714 O   0  0  0  0  0  0  0  0  0  0  0  0
   60.5424   -6.2328   -9.7341 C   0  0  0  0  0  0  0  0  0  0  0  0
   61.8563   -6.1993  -10.6192 C   0  0  0  0  0  0  0  0  0  0  0  0
   62.7038   -7.1118   -9.7922 C   0  0  0  0  0  0  0  0  0  0  0  0
   61.8789   -7.8426   -8.9540 O   0  0  0  0  0  0  0  0  0  0  0  0
   60.5577   -7.7254   -9.4689 C   0  0  0  0  0  0  0  0  0  0  0  0
 16 17  1  0  0  0
 17 10  1  0  0  0
 10 11  1  0  0  0
 11 12  2  0  0  0
 11 13  1  0  0  0
 13  1  1  0  0  0
  1  2  2  0  0  0
  2  3  1  0  0  0
  3  4  2  0  0  0
  4  5  1  0  0  0
  5 18  1  0  0  0
 18 19  2  0  0  0
 19 20  1  0  0  0
 20 21  2  0  0  0
 21 22  1  0  0  0
 22 23  2  0  0  0
  5  6  2  0  0  0
  6 24  1  0  0  0
 24 25  1  0  0  0
 25 26  1  0  0  0
 26 27  1  0  0  0
 27 28  1  0  0  0
 28 29  1  0  0  0
  6  7  1  0  0  0
  7  8  2  0  0  0
  8  9  1  0  0  0
  9  1  1  0  0  0
  8  3  1  0  0  0
 23 18  1  0  0  0
 29 25  1  0  0  0
 10 14  1  0  0  0
 13 15  1  0  0  0
M  END
> <minimizedAffinity>
-8.37893

> <CNNscore>
0.7539063692

> <CNNaffinity>
6.5584611893

> <CNN_VS>
4.9444656372

> <CNNaffinity_variance>
0.1307047904

$$$$
[H]c1nc([H])c(-c2c(O[C@@]3([H])C([H])([H])OC([H])([H])C3([H])[H])c([H])c3sc(N([H])C(=O)N([H])C([H])([H])C([H])([H])[H])nc3c2[H])c([H])c1[H]


 29 32  0  0  0  0  0  0  0  0999 V2000
   56.8974   -3.7865  -11.4657 C   0  0  0  0  0  0  0  0  0  0  0  0
   55.6760   -3.5829  -11.0231 N   0  0  0  0  0  0  0  0  0  0  0  0
   55.3023   -4.0568   -9.8620 C   0  0  0  0  0  0  0  0  0  0  0  0
   54.0388   -3.8741   -9.2738 C   0  0  0  0  0  0  0  0  0  0  0  0
   53.7972   -4.4037   -8.0144 C   0  0  0  0  0  0  0  0  0  0  0  0
   54.6945   -5.1089   -7.2602 C   0  0  0  0  0  0  0  0  0  0  0  0
   55.9613   -5.2803   -7.8902 C   0  0  0  0  0  0  0  0  0  0  0  0
   56.2178   -4.7629   -9.1375 C   0  0  0  0  0  0  0  0  0  0  0  0
   57.5913   -4.7094  -10.1828 S   0  0  0  0  0  0  0  0  0  0  0  0
   57.8613   -3.4343  -15.0807 N   0  0  0  0  0  0  0  0  0  0  0  0
   57.2804   -3.9363  -13.9656 C   0  0  0  0  0  0  0  0  0  0  0  0
   56.4807   -4.9215  -13.8701 O   0  0  0  0  0  0  0  0  0  0  0  0
   57.5348   -3.3350  -12.6615 N   0  0  0  0  0  0  0  0  0  0  0  0
   57.1893   -4.3547  -15.8580 H   0  0  0  0  0  0  0  0  0  0  0  0
   58.2006   -2.5429  -12.5705 H   0  0  0  0  0  0  0  0  0  0  0  0
   59.9929   -2.9612  -16.1566 C   0  0  0  0  0  0  0  0  0  0  0  0
   58.4451   -2.9297  -16.2012 C   0  0  0  0  0  0  0  0  0  0  0  0
   52.4214   -4.2607   -7.5121 C   0  0  0  0  0  0  0  0  0  0  0  0
   51.7354   -3.0669   -7.6329 C   0  0  0  0  0  0  0  0  0  0  0  0
   50.4392   -2.9475   -7.1486 C   0  0  0  0  0  0  0  0  0  0  0  0
   49.8448   -4.0357   -6.5434 C   0  0  0  0  0  0  0  0  0  0  0  0
   50.5070   -5.1762   -6.4292 N   0  0  0  0  0  0  0  0  0  0  0  0
   51.7830   -5.3102   -6.9016 C   0  0  0  0  0  0  0  0  0  0  0  0
   54.6144   -5.6547   -6.0580 O   0  0  0  0  0  0  0  0  0  0  0  0
   55.0738   -5.5107   -4.8368 C   0  0  0  0  0  0  0  0  0  0  0  0
   55.9205   -6.8182   -4.5459 C   0  0  0  0  0  0  0  0  0  0  0  0
   56.0989   -6.6431   -3.0720 C   0  0  0  0  0  0  0  0  0  0  0  0
   55.1555   -5.7377   -2.6169 O   0  0  0  0  0  0  0  0  0  0  0  0
   54.1630   -5.6298   -3.6307 C   0  0  0  0  0  0  0  0  0  0  0  0
 16 17  1  0  0  0
 17 10  1  0  0  0
 10 11  1  0  0  0
 11 12  2  0  0  0
 11 13  1  0  0  0
 13  1  1  0  0  0
  1  2  2  0  0  0
  2  3  1  0  0  0
  3  4  2  0  0  0
  4  5  1  0  0  0
  5 18  1  0  0  0
 18 19  2  0  0  0
 19 20  1  0  0  0
 20 21  2  0  0  0
 21 22  1  0  0  0
 22 23  2  0  0  0
  5  6  2  0  0  0
  6 24  1  0  0  0
 24 25  1  0  0  0
 25 26  1  0  0  0
 26 27  1  0  0  0
 27 28  1  0  0  0
 28 29  1  0  0  0
  6  7  1  0  0  0
  7  8  2  0  0  0
  8  9  1  0  0  0
  9  1  1  0  0  0
  8  3  1  0  0  0
 23 18  1  0  0  0
 29 25  1  0  0  0
 10 14  1  0  0  0
 13 15  1  0  0  0
M  END
> <minimizedAffinity>
-8.72615

> <CNNscore>
0.6208233237

> <CNNaffinity>
6.7262153625

> <CNN_VS>
4.1757912636

> <CNNaffinity_variance>
0.0845709145

$$$$
[H]c1nc([H])c(-c2c(O[C@@]3([H])C([H])([H])OC([H])([H])C3([H])[H])c([H])c3sc(N([H])C(=O)N([H])C([H])([H])C([H])([H])[H])nc3c2[H])c([H])c1[H]


 29 32  0  0  0  0  0  0  0  0999 V2000
   51.0152   -3.5910   -6.5023 C   0  0  0  0  0  0  0  0  0  0  0  0
   50.6809   -4.2762   -5.4309 N   0  0  0  0  0  0  0  0  0  0  0  0
   51.4709   -5.2098   -4.9658 C   0  0  0  0  0  0  0  0  0  0  0  0
   51.2351   -5.9801   -3.8139 C   0  0  0  0  0  0  0  0  0  0  0  0
   52.1848   -6.9105   -3.4175 C   0  0  0  0  0  0  0  0  0  0  0  0
   53.3688   -7.1626   -4.0545 C   0  0  0  0  0  0  0  0  0  0  0  0
   53.5712   -6.3688   -5.2208 C   0  0  0  0  0  0  0  0  0  0  0  0
   52.6407   -5.4429   -5.6283 C   0  0  0  0  0  0  0  0  0  0  0  0
   52.5406   -4.2888   -6.9089 S   0  0  0  0  0  0  0  0  0  0  0  0
   50.2799   -0.7370   -8.8337 N   0  0  0  0  0  0  0  0  0  0  0  0
   50.9751   -1.7102   -8.1992 C   0  0  0  0  0  0  0  0  0  0  0  0
   52.1816   -2.0672   -8.3892 O   0  0  0  0  0  0  0  0  0  0  0  0
   50.3457   -2.5119   -7.1561 N   0  0  0  0  0  0  0  0  0  0  0  0
   51.3651   -0.4755   -9.6442 H   0  0  0  0  0  0  0  0  0  0  0  0
   49.3706   -2.3130   -6.8588 H   0  0  0  0  0  0  0  0  0  0  0  0
   49.0353    1.3305   -8.5157 C   0  0  0  0  0  0  0  0  0  0  0  0
   49.5812    0.2408   -9.4713 C   0  0  0  0  0  0  0  0  0  0  0  0
   51.8187   -7.7488   -2.2647 C   0  0  0  0  0  0  0  0  0  0  0  0
   51.2694   -7.1961   -1.1231 C   0  0  0  0  0  0  0  0  0  0  0  0
   50.9345   -8.0012   -0.0421 C   0  0  0  0  0  0  0  0  0  0  0  0
   51.1585   -9.3603   -0.1212 C   0  0  0  0  0  0  0  0  0  0  0  0
   51.6862   -9.8840   -1.2164 N   0  0  0  0  0  0  0  0  0  0  0  0
   52.0204   -9.1055   -2.2894 C   0  0  0  0  0  0  0  0  0  0  0  0
   54.3630   -7.9946   -3.7921 O   0  0  0  0  0  0  0  0  0  0  0  0
   55.5567   -8.0222   -3.2467 C   0  0  0  0  0  0  0  0  0  0  0  0
   55.3424   -7.5924   -1.7366 C   0  0  0  0  0  0  0  0  0  0  0  0
   56.7737   -7.3788   -1.3619 C   0  0  0  0  0  0  0  0  0  0  0  0
   57.5182   -7.2400   -2.5209 O   0  0  0  0  0  0  0  0  0  0  0  0
   56.5991   -6.9709   -3.5732 C   0  0  0  0  0  0  0  0  0  0  0  0
 16 17  1  0  0  0
 17 10  1  0  0  0
 10 11  1  0  0  0
 11 12  2  0  0  0
 11 13  1  0  0  0
 13  1  1  0  0  0
  1  2  2  0  0  0
  2  3  1  0  0  0
  3  4  2  0  0  0
  4  5  1  0  0  0
  5 18  1  0  0  0
 18 19  2  0  0  0
 19 20  1  0  0  0
 20 21  2  0  0  0
 21 22  1  0  0  0
 22 23  2  0  0  0
  5  6  2  0  0  0
  6 24  1  0  0  0
 24 25  1  0  0  0
 25 26  1  0  0  0
 26 27  1  0  0  0
 27 28  1  0  0  0
 28 29  1  0  0  0
  6  7  1  0  0  0
  7  8  2  0  0  0
  8  9  1  0  0  0
  9  1  1  0  0  0
  8  3  1  0  0  0
 23 18  1  0  0  0
 29 25  1  0  0  0
 10 14  1  0  0  0
 13 15  1  0  0  0
M  END
> <minimizedAffinity>
2.35944

> <CNNscore>
0.4517311454

> <CNNaffinity>
6.5204215050

> <CNN_VS>
2.9454774857

> <CNNaffinity_variance>
0.6388242841

$$$$
[H]c1nc([H])c(-c2c(O[C@@]3([H])C([H])([H])OC([H])([H])C3([H])[H])c([H])c3sc(N([H])C(=O)N([H])C([H])([H])C([H])([H])[H])nc3c2[H])c([H])c1[H]


 29 32  0  0  0  0  0  0  0  0999 V2000
   54.2746   -4.1542   -7.9786 C   0  0  0  0  0  0  0  0  0  0  0  0
   54.6992   -3.8370   -9.1821 N   0  0  0  0  0  0  0  0  0  0  0  0
   55.8833   -4.2157   -9.5904 C   0  0  0  0  0  0  0  0  0  0  0  0
   56.4273   -3.9655  -10.8620 C   0  0  0  0  0  0  0  0  0  0  0  0
   57.6849   -4.4648  -11.1688 C   0  0  0  0  0  0  0  0  0  0  0  0
   58.4762   -5.2023  -10.3315 C   0  0  0  0  0  0  0  0  0  0  0  0
   57.8960   -5.4306   -9.0499 C   0  0  0  0  0  0  0  0  0  0  0  0
   56.6517   -4.9430   -8.7288 C   0  0  0  0  0  0  0  0  0  0  0  0
   55.6143   -5.0440   -7.3521 S   0  0  0  0  0  0  0  0  0  0  0  0
   50.8755   -4.6529   -6.4559 N   0  0  0  0  0  0  0  0  0  0  0  0
   52.0220   -4.9327   -7.1195 C   0  0  0  0  0  0  0  0  0  0  0  0
   52.3953   -6.0452   -7.6114 O   0  0  0  0  0  0  0  0  0  0  0  0
   53.0227   -3.8952   -7.3416 N   0  0  0  0  0  0  0  0  0  0  0  0
   50.4850   -5.9724   -6.5529 H   0  0  0  0  0  0  0  0  0  0  0  0
   52.8444   -2.9200   -7.0317 H   0  0  0  0  0  0  0  0  0  0  0  0
   49.3007   -2.8852   -5.8901 C   0  0  0  0  0  0  0  0  0  0  0  0
   49.7235   -4.3717   -5.7891 C   0  0  0  0  0  0  0  0  0  0  0  0
   58.2280   -4.0728  -12.4792 C   0  0  0  0  0  0  0  0  0  0  0  0
   59.5765   -3.8228  -12.6497 C   0  0  0  0  0  0  0  0  0  0  0  0
   60.0716   -3.4488  -13.8923 C   0  0  0  0  0  0  0  0  0  0  0  0
   59.1997   -3.3282  -14.9548 C   0  0  0  0  0  0  0  0  0  0  0  0
   57.9089   -3.5675  -14.7854 N   0  0  0  0  0  0  0  0  0  0  0  0
   57.4060   -3.9375  -13.5691 C   0  0  0  0  0  0  0  0  0  0  0  0
   59.6707   -5.7491  -10.4854 O   0  0  0  0  0  0  0  0  0  0  0  0
   60.6406   -6.2993   -9.7926 C   0  0  0  0  0  0  0  0  0  0  0  0
   61.9180   -6.2358  -10.7282 C   0  0  0  0  0  0  0  0  0  0  0  0
   62.8099   -7.1463   -9.9471 C   0  0  0  0  0  0  0  0  0  0  0  0
   62.0290   -7.8993   -9.0868 O   0  0  0  0  0  0  0  0  0  0  0  0
   60.6870   -7.7947   -9.5478 C   0  0  0  0  0  0  0  0  0  0  0  0
 16 17  1  0  0  0
 17 10  1  0  0  0
 10 11  1  0  0  0
 11 12  2  0  0  0
 11 13  1  0  0  0
 13  1  1  0  0  0
  1  2  2  0  0  0
  2  3  1  0  0  0
  3  4  2  0  0  0
  4  5  1  0  0  0
  5 18  1  0  0  0
 18 19  2  0  0  0
 19 20  1  0  0  0
 20 21  2  0  0  0
 21 22  1  0  0  0
 22 23  2  0  0  0
  5  6  2  0  0  0
  6 24  1  0  0  0
 24 25  1  0  0  0
 25 26  1  0  0  0
 26 27  1  0  0  0
 27 28  1  0  0  0
 28 29  1  0  0  0
  6  7  1  0  0  0
  7  8  2  0  0  0
  8  9  1  0  0  0
  9  1  1  0  0  0
  8  3  1  0  0  0
 23 18  1  0  0  0
 29 25  1  0  0  0
 10 14  1  0  0  0
 13 15  1  0  0  0
M  END
> <minimizedAffinity>
-7.63967

> <CNNscore>
0.3942012489

> <CNNaffinity>
6.1017594337

> <CNN_VS>
2.4053211212

> <CNNaffinity_variance>
0.1858143955

$$$$
[H]c1nc([H])c(-c2c(O[C@@]3([H])C([H])([H])OC([H])([H])C3([H])[H])c([H])c3sc(N([H])C(=O)N([H])C([H])([H])C([H])([H])[H])nc3c2[H])c([H])c1[H]


 29 32  0  0  0  0  0  0  0  0999 V2000
   53.1301   -4.5089   -7.1485 C   0  0  0  0  0  0  0  0  0  0  0  0
   53.6286   -4.1504   -8.3113 N   0  0  0  0  0  0  0  0  0  0  0  0
   54.8195   -4.5517   -8.6760 C   0  0  0  0  0  0  0  0  0  0  0  0
   55.4387   -4.2611   -9.9039 C   0  0  0  0  0  0  0  0  0  0  0  0
   56.6935   -4.7902  -10.1695 C   0  0  0  0  0  0  0  0  0  0  0  0
   57.4138   -5.5947   -9.3298 C   0  0  0  0  0  0  0  0  0  0  0  0
   56.7588   -5.8626   -8.0928 C   0  0  0  0  0  0  0  0  0  0  0  0
   55.5161   -5.3463   -7.8128 C   0  0  0  0  0  0  0  0  0  0  0  0
   54.4038   -5.4752   -6.4982 S   0  0  0  0  0  0  0  0  0  0  0  0
   50.3075   -4.3052   -4.6760 N   0  0  0  0  0  0  0  0  0  0  0  0
   51.5064   -4.6407   -5.2082 C   0  0  0  0  0  0  0  0  0  0  0  0
   52.4516   -5.2984   -4.6667 O   0  0  0  0  0  0  0  0  0  0  0  0
   51.8553   -4.2355   -6.5651 N   0  0  0  0  0  0  0  0  0  0  0  0
   50.6605   -4.8969   -3.4810 H   0  0  0  0  0  0  0  0  0  0  0  0
   51.1681   -3.7239   -7.1524 H   0  0  0  0  0  0  0  0  0  0  0  0
   48.3088   -2.9549   -5.0026 C   0  0  0  0  0  0  0  0  0  0  0  0
   49.1029   -3.9680   -4.1413 C   0  0  0  0  0  0  0  0  0  0  0  0
   57.3185   -4.3563  -11.4291 C   0  0  0  0  0  0  0  0  0  0  0  0
   56.5541   -4.0419  -12.5368 C   0  0  0  0  0  0  0  0  0  0  0  0
   57.1606   -3.6390  -13.7196 C   0  0  0  0  0  0  0  0  0  0  0  0
   58.5368   -3.5579  -13.7756 C   0  0  0  0  0  0  0  0  0  0  0  0
   59.2640   -3.8616  -12.7121 N   0  0  0  0  0  0  0  0  0  0  0  0
   58.6824   -4.2588  -11.5403 C   0  0  0  0  0  0  0  0  0  0  0  0
   58.5958   -6.1763   -9.4485 O   0  0  0  0  0  0  0  0  0  0  0  0
   59.8758   -5.8898   -9.5030 C   0  0  0  0  0  0  0  0  0  0  0  0
   60.5374   -7.0640  -10.3363 C   0  0  0  0  0  0  0  0  0  0  0  0
   61.9721   -6.7612  -10.0451 C   0  0  0  0  0  0  0  0  0  0  0  0
   62.0336   -5.9415   -8.9309 O   0  0  0  0  0  0  0  0  0  0  0  0
   60.7685   -6.0257   -8.2852 C   0  0  0  0  0  0  0  0  0  0  0  0
 16 17  1  0  0  0
 17 10  1  0  0  0
 10 11  1  0  0  0
 11 12  2  0  0  0
 11 13  1  0  0  0
 13  1  1  0  0  0
  1  2  2  0  0  0
  2  3  1  0  0  0
  3  4  2  0  0  0
  4  5  1  0  0  0
  5 18  1  0  0  0
 18 19  2  0  0  0
 19 20  1  0  0  0
 20 21  2  0  0  0
 21 22  1  0  0  0
 22 23  2  0  0  0
  5  6  2  0  0  0
  6 24  1  0  0  0
 24 25  1  0  0  0
 25 26  1  0  0  0
 26 27  1  0  0  0
 27 28  1  0  0  0
 28 29  1  0  0  0
  6  7  1  0  0  0
  7  8  2  0  0  0
  8  9  1  0  0  0
  9  1  1  0  0  0
  8  3  1  0  0  0
 23 18  1  0  0  0
 29 25  1  0  0  0
 10 14  1  0  0  0
 13 15  1  0  0  0
M  END
> <minimizedAffinity>
-5.59069

> <CNNscore>
0.3412719965

> <CNNaffinity>
6.1089477539

> <CNN_VS>
2.0848128796

> <CNNaffinity_variance>
0.2663346827

$$$$
[H]c1nc([H])c(-c2c(O[C@@]3([H])C([H])([H])OC([H])([H])C3([H])[H])c([H])c3sc(N([H])C(=O)N([H])C([H])([H])C([H])([H])[H])nc3c2[H])c([H])c1[H]


 29 32  0  0  0  0  0  0  0  0999 V2000
   56.0838   -3.8419  -10.0122 C   0  0  0  0  0  0  0  0  0  0  0  0
   56.4502   -4.4350   -8.8972 N   0  0  0  0  0  0  0  0  0  0  0  0
   55.5591   -4.7743   -8.0011 C   0  0  0  0  0  0  0  0  0  0  0  0
   55.8284   -5.4403   -6.7930 C   0  0  0  0  0  0  0  0  0  0  0  0
   54.7736   -5.7723   -5.9551 C   0  0  0  0  0  0  0  0  0  0  0  0
   53.4525   -5.5097   -6.1936 C   0  0  0  0  0  0  0  0  0  0  0  0
   53.2176   -4.8284   -7.4231 C   0  0  0  0  0  0  0  0  0  0  0  0
   54.2506   -4.4913   -8.2648 C   0  0  0  0  0  0  0  0  0  0  0  0
   54.3725   -3.7371   -9.8134 S   0  0  0  0  0  0  0  0  0  0  0  0
   58.5719   -3.8492  -12.8284 N   0  0  0  0  0  0  0  0  0  0  0  0
   57.9043   -4.2590  -11.7241 C   0  0  0  0  0  0  0  0  0  0  0  0
   58.0512   -5.3417  -11.0720 O   0  0  0  0  0  0  0  0  0  0  0  0
   56.8601   -3.4270  -11.1371 N   0  0  0  0  0  0  0  0  0  0  0  0
   59.2797   -5.0330  -12.8526 H   0  0  0  0  0  0  0  0  0  0  0  0
   56.6501   -2.4909  -11.5352 H   0  0  0  0  0  0  0  0  0  0  0  0
   60.7826   -3.4922  -13.7824 C   0  0  0  0  0  0  0  0  0  0  0  0
   59.2427   -3.4375  -13.9380 C   0  0  0  0  0  0  0  0  0  0  0  0
   55.1451   -6.3731   -4.6641 C   0  0  0  0  0  0  0  0  0  0  0  0
   55.4386   -5.5864   -3.5662 C   0  0  0  0  0  0  0  0  0  0  0  0
   55.7926   -6.1697   -2.3565 C   0  0  0  0  0  0  0  0  0  0  0  0
   55.8493   -7.5453   -2.2645 C   0  0  0  0  0  0  0  0  0  0  0  0
   55.5685   -8.2937   -3.3196 N   0  0  0  0  0  0  0  0  0  0  0  0
   55.2175   -7.7351   -4.5170 C   0  0  0  0  0  0  0  0  0  0  0  0
   52.3530   -5.7728   -5.5069 O   0  0  0  0  0  0  0  0  0  0  0  0
   51.5787   -5.2590   -4.5797 C   0  0  0  0  0  0  0  0  0  0  0  0
   51.6216   -6.2870   -3.3746 C   0  0  0  0  0  0  0  0  0  0  0  0
   50.4908   -5.7319   -2.5697 C   0  0  0  0  0  0  0  0  0  0  0  0
   49.7201   -4.9241   -3.3884 O   0  0  0  0  0  0  0  0  0  0  0  0
   50.0703   -5.2412   -4.7305 C   0  0  0  0  0  0  0  0  0  0  0  0
 16 17  1  0  0  0
 17 10  1  0  0  0
 10 11  1  0  0  0
 11 12  2  0  0  0
 11 13  1  0  0  0
 13  1  1  0  0  0
  1  2  2  0  0  0
  2  3  1  0  0  0
  3  4  2  0  0  0
  4  5  1  0  0  0
  5 18  1  0  0  0
 18 19  2  0  0  0
 19 20  1  0  0  0
 20 21  2  0  0  0
 21 22  1  0  0  0
 22 23  2  0  0  0
  5  6  2  0  0  0
  6 24  1  0  0  0
 24 25  1  0  0  0
 25 26  1  0  0  0
 26 27  1  0  0  0
 27 28  1  0  0  0
 28 29  1  0  0  0
  6  7  1  0  0  0
  7  8  2  0  0  0
  8  9  1  0  0  0
  9  1  1  0  0  0
  8  3  1  0  0  0
 23 18  1  0  0  0
 29 25  1  0  0  0
 10 14  1  0  0  0
 13 15  1  0  0  0
M  END
> <minimizedAffinity>
-7.90647

> <CNNscore>
0.3408523798

> <CNNaffinity>
6.4811415672

> <CNN_VS>
2.2091126442

> <CNNaffinity_variance>
0.0736925974

$$$$
[H]c1nc([H])c(-c2c(O[C@@]3([H])C([H])([H])OC([H])([H])C3([H])[H])c([H])c3sc(N([H])C(=O)N([H])C([H])([H])C([H])([H])[H])nc3c2[H])c([H])c1[H]


 29 32  0  0  0  0  0  0  0  0999 V2000
   53.9408   -4.7696   -8.3110 C   0  0  0  0  0  0  0  0  0  0  0  0
   52.7848   -4.2588   -7.9477 N   0  0  0  0  0  0  0  0  0  0  0  0
   52.2548   -4.5691   -6.7922 C   0  0  0  0  0  0  0  0  0  0  0  0
   51.0464   -4.0610   -6.2852 C   0  0  0  0  0  0  0  0  0  0  0  0
   50.6265   -4.4516   -5.0219 C   0  0  0  0  0  0  0  0  0  0  0  0
   51.2923   -5.3095   -4.1901 C   0  0  0  0  0  0  0  0  0  0  0  0
   52.5088   -5.8096   -4.7389 C   0  0  0  0  0  0  0  0  0  0  0  0
   52.9395   -5.4337   -5.9889 C   0  0  0  0  0  0  0  0  0  0  0  0
   54.3326   -5.7627   -6.9548 S   0  0  0  0  0  0  0  0  0  0  0  0
   56.8097   -3.8896  -10.5728 N   0  0  0  0  0  0  0  0  0  0  0  0
   56.0852   -4.0274   -9.4374 C   0  0  0  0  0  0  0  0  0  0  0  0
   56.4354   -3.7620   -8.2433 O   0  0  0  0  0  0  0  0  0  0  0  0
   54.7227   -4.5455   -9.4850 N   0  0  0  0  0  0  0  0  0  0  0  0
   57.8965   -3.4599   -9.8398 H   0  0  0  0  0  0  0  0  0  0  0  0
   54.2794   -4.7713  -10.3968 H   0  0  0  0  0  0  0  0  0  0  0  0
   56.6743   -3.7569  -12.9996 C   0  0  0  0  0  0  0  0  0  0  0  0
   57.5377   -3.7512  -11.7138 C   0  0  0  0  0  0  0  0  0  0  0  0
   49.3035   -3.9597   -4.6055 C   0  0  0  0  0  0  0  0  0  0  0  0
   48.4959   -4.7015   -3.7642 C   0  0  0  0  0  0  0  0  0  0  0  0
   47.2478   -4.2246   -3.3852 C   0  0  0  0  0  0  0  0  0  0  0  0
   46.8229   -3.0011   -3.8606 C   0  0  0  0  0  0  0  0  0  0  0  0
   47.5999   -2.2956   -4.6673 N   0  0  0  0  0  0  0  0  0  0  0  0
   48.8314   -2.7504   -5.0488 C   0  0  0  0  0  0  0  0  0  0  0  0
   51.0279   -5.7571   -2.9738 O   0  0  0  0  0  0  0  0  0  0  0  0
   51.5892   -6.3992   -1.9759 C   0  0  0  0  0  0  0  0  0  0  0  0
   52.5558   -5.3495   -1.2870 C   0  0  0  0  0  0  0  0  0  0  0  0
   53.3160   -6.2911   -0.4093 C   0  0  0  0  0  0  0  0  0  0  0  0
   53.1404   -7.5791   -0.8861 O   0  0  0  0  0  0  0  0  0  0  0  0
   52.6416   -7.4643   -2.2136 C   0  0  0  0  0  0  0  0  0  0  0  0
 16 17  1  0  0  0
 17 10  1  0  0  0
 10 11  1  0  0  0
 11 12  2  0  0  0
 11 13  1  0  0  0
 13  1  1  0  0  0
  1  2  2  0  0  0
  2  3  1  0  0  0
  3  4  2  0  0  0
  4  5  1  0  0  0
  5 18  1  0  0  0
 18 19  2  0  0  0
 19 20  1  0  0  0
 20 21  2  0  0  0
 21 22  1  0  0  0
 22 23  2  0  0  0
  5  6  2  0  0  0
  6 24  1  0  0  0
 24 25  1  0  0  0
 25 26  1  0  0  0
 26 27  1  0  0  0
 27 28  1  0  0  0
 28 29  1  0  0  0
  6  7  1  0  0  0
  7  8  2  0  0  0
  8  9  1  0  0  0
  9  1  1  0  0  0
  8  3  1  0  0  0
 23 18  1  0  0  0
 29 25  1  0  0  0
 10 14  1  0  0  0
 13 15  1  0  0  0
M  END
> <minimizedAffinity>
-7.80574

> <CNNscore>
0.3206527531

> <CNNaffinity>
6.7384881973

> <CNN_VS>
2.1607148647

> <CNNaffinity_variance>
0.3674801886

$$$$
[H]c1nc([H])c(-c2c(O[C@@]3([H])C([H])([H])OC([H])([H])C3([H])[H])c([H])c3sc(N([H])C(=O)N([H])C([H])([H])C([H])([H])[H])nc3c2[H])c([H])c1[H]


 29 32  0  0  0  0  0  0  0  0999 V2000
   55.1645   -3.8087   -9.5775 C   0  0  0  0  0  0  0  0  0  0  0  0
   55.4599   -4.3638   -8.4226 N   0  0  0  0  0  0  0  0  0  0  0  0
   54.5130   -4.6891   -7.5801 C   0  0  0  0  0  0  0  0  0  0  0  0
   54.7060   -5.3158   -6.3368 C   0  0  0  0  0  0  0  0  0  0  0  0
   53.5998   -5.6378   -5.5639 C   0  0  0  0  0  0  0  0  0  0  0  0
   52.2953   -5.4007   -5.9005 C   0  0  0  0  0  0  0  0  0  0  0  0
   52.1380   -4.7589   -7.1632 C   0  0  0  0  0  0  0  0  0  0  0  0
   53.2226   -4.4322   -7.9417 C   0  0  0  0  0  0  0  0  0  0  0  0
   53.4424   -3.7219   -9.5002 S   0  0  0  0  0  0  0  0  0  0  0  0
   57.8660   -3.8480  -12.1893 N   0  0  0  0  0  0  0  0  0  0  0  0
   57.1285   -4.2321  -11.1209 C   0  0  0  0  0  0  0  0  0  0  0  0
   57.2624   -5.2765  -10.4065 O   0  0  0  0  0  0  0  0  0  0  0  0
   56.0117   -3.4160  -10.6583 N   0  0  0  0  0  0  0  0  0  0  0  0
   58.6159   -5.0025  -12.1001 H   0  0  0  0  0  0  0  0  0  0  0  0
   55.8002   -2.5087  -11.1174 H   0  0  0  0  0  0  0  0  0  0  0  0
   60.1139   -3.7908  -13.1214 C   0  0  0  0  0  0  0  0  0  0  0  0
   58.6071   -3.4620  -13.2629 C   0  0  0  0  0  0  0  0  0  0  0  0
   53.8882   -6.1954   -4.2329 C   0  0  0  0  0  0  0  0  0  0  0  0
   53.5770   -5.4974   -3.0813 C   0  0  0  0  0  0  0  0  0  0  0  0
   53.8609   -6.0360   -1.8330 C   0  0  0  0  0  0  0  0  0  0  0  0
   54.4593   -7.2769   -1.7567 C   0  0  0  0  0  0  0  0  0  0  0  0
   54.7564   -7.9404   -2.8629 N   0  0  0  0  0  0  0  0  0  0  0  0
   54.4826   -7.4244   -4.0990 C   0  0  0  0  0  0  0  0  0  0  0  0
   51.1542   -5.6589   -5.2835 O   0  0  0  0  0  0  0  0  0  0  0  0
   50.0260   -5.0841   -4.9369 C   0  0  0  0  0  0  0  0  0  0  0  0
   50.0321   -3.6717   -5.6553 C   0  0  0  0  0  0  0  0  0  0  0  0
   48.8798   -3.0509   -4.9332 C   0  0  0  0  0  0  0  0  0  0  0  0
   48.6457   -3.7699   -3.7733 O   0  0  0  0  0  0  0  0  0  0  0  0
   49.8069   -4.5562   -3.5327 C   0  0  0  0  0  0  0  0  0  0  0  0
 16 17  1  0  0  0
 17 10  1  0  0  0
 10 11  1  0  0  0
 11 12  2  0  0  0
 11 13  1  0  0  0
 13  1  1  0  0  0
  1  2  2  0  0  0
  2  3  1  0  0  0
  3  4  2  0  0  0
  4  5  1  0  0  0
  5 18  1  0  0  0
 18 19  2  0  0  0
 19 20  1  0  0  0
 20 21  2  0  0  0
 21 22  1  0  0  0
 22 23  2  0  0  0
  5  6  2  0  0  0
  6 24  1  0  0  0
 24 25  1  0  0  0
 25 26  1  0  0  0
 26 27  1  0  0  0
 27 28  1  0  0  0
 28 29  1  0  0  0
  6  7  1  0  0  0
  7  8  2  0  0  0
  8  9  1  0  0  0
  9  1  1  0  0  0
  8  3  1  0  0  0
 23 18  1  0  0  0
 29 25  1  0  0  0
 10 14  1  0  0  0
 13 15  1  0  0  0
M  END
> <minimizedAffinity>
-8.72144

> <CNNscore>
0.3118479848

> <CNNaffinity>
6.7125101089

> <CNN_VS>
2.0932826996

> <CNNaffinity_variance>
0.0752260238

$$$$
[H]c1nc([H])c(-c2c(O[C@@]3([H])C([H])([H])OC([H])([H])C3([H])[H])c([H])c3sc(N([H])C(=O)N([H])C([H])([H])C([H])([H])[H])nc3c2[H])c([H])c1[H]


 29 32  0  0  0  0  0  0  0  0999 V2000
   58.0437   -4.0583  -12.2912 C   0  0  0  0  0  0  0  0  0  0  0  0
   59.2598   -4.5583  -12.2722 N   0  0  0  0  0  0  0  0  0  0  0  0
   59.7215   -5.1421  -11.1959 C   0  0  0  0  0  0  0  0  0  0  0  0
   60.9872   -5.7403  -11.0705 C   0  0  0  0  0  0  0  0  0  0  0  0
   61.3265   -6.3591   -9.8760 C   0  0  0  0  0  0  0  0  0  0  0  0
   60.5266   -6.4508   -8.7701 C   0  0  0  0  0  0  0  0  0  0  0  0
   59.2547   -5.8282   -8.9308 C   0  0  0  0  0  0  0  0  0  0  0  0
   58.9023   -5.2102  -10.1069 C   0  0  0  0  0  0  0  0  0  0  0  0
   57.4873   -4.4155  -10.6969 S   0  0  0  0  0  0  0  0  0  0  0  0
   55.8319   -3.5317  -15.2832 N   0  0  0  0  0  0  0  0  0  0  0  0
   56.5524   -4.1770  -14.3358 C   0  0  0  0  0  0  0  0  0  0  0  0
   56.6684   -5.4309  -14.1533 O   0  0  0  0  0  0  0  0  0  0  0  0
   57.3200   -3.4268  -13.3484 N   0  0  0  0  0  0  0  0  0  0  0  0
   55.3684   -4.7376  -15.7671 H   0  0  0  0  0  0  0  0  0  0  0  0
   57.3571   -2.3897  -13.3911 H   0  0  0  0  0  0  0  0  0  0  0  0
   55.7372   -2.9629  -17.6481 C   0  0  0  0  0  0  0  0  0  0  0  0
   55.1079   -2.8833  -16.2352 C   0  0  0  0  0  0  0  0  0  0  0  0
   62.7040   -6.8691   -9.7870 C   0  0  0  0  0  0  0  0  0  0  0  0
   63.6149   -6.3209   -8.9039 C   0  0  0  0  0  0  0  0  0  0  0  0
   64.9127   -6.8109   -8.8364 C   0  0  0  0  0  0  0  0  0  0  0  0
   65.2822   -7.8516   -9.6636 C   0  0  0  0  0  0  0  0  0  0  0  0
   64.4060   -8.3719  -10.5084 N   0  0  0  0  0  0  0  0  0  0  0  0
   63.1246   -7.9016  -10.5863 C   0  0  0  0  0  0  0  0  0  0  0  0
   60.7041   -7.0116   -7.5854 O   0  0  0  0  0  0  0  0  0  0  0  0
   61.5654   -7.7455   -6.9199 C   0  0  0  0  0  0  0  0  0  0  0  0
   61.3357   -9.2300   -7.4243 C   0  0  0  0  0  0  0  0  0  0  0  0
   62.1386   -9.9438   -6.3847 C   0  0  0  0  0  0  0  0  0  0  0  0
   62.3273   -9.0919   -5.3097 O   0  0  0  0  0  0  0  0  0  0  0  0
   61.3791   -8.0396   -5.4444 C   0  0  0  0  0  0  0  0  0  0  0  0
 16 17  1  0  0  0
 17 10  1  0  0  0
 10 11  1  0  0  0
 11 12  2  0  0  0
 11 13  1  0  0  0
 13  1  1  0  0  0
  1  2  2  0  0  0
  2  3  1  0  0  0
  3  4  2  0  0  0
  4  5  1  0  0  0
  5 18  1  0  0  0
 18 19  2  0  0  0
 19 20  1  0  0  0
 20 21  2  0  0  0
 21 22  1  0  0  0
 22 23  2  0  0  0
  5  6  2  0  0  0
  6 24  1  0  0  0
 24 25  1  0  0  0
 25 26  1  0  0  0
 26 27  1  0  0  0
 27 28  1  0  0  0
 28 29  1  0  0  0
  6  7  1  0  0  0
  7  8  2  0  0  0
  8  9  1  0  0  0
  9  1  1  0  0  0
  8  3  1  0  0  0
 23 18  1  0  0  0
 29 25  1  0  0  0
 10 14  1  0  0  0
 13 15  1  0  0  0
M  END
> <minimizedAffinity>
-3.35101

> <CNNscore>
0.3092053235

> <CNNaffinity>
5.0014405251

> <CNN_VS>
1.5464720726

> <CNNaffinity_variance>
0.1715651602

$$$$
[H]N=C(N([H])[H])N([H])C([H])([H])C([H])([H])C([H])([H])[C@@]([H])(C(=O)N([H])[C@]([H])(C(=O)N([H])C([H])([H])c1c([H])c([H])c([H])c([H])c1[H])C([H])([H])C([H])([H])C([H])([H])N=C(N([H])[H])N([H])[H])N([H])C(=O)[C@@]([H])(N([H])C(=O)[C@@]([H])(N([H])C(=O)[C@@]([H])(N([H])C(=O)[C@@]([H])(N([H])C(=O)[C@@]([H])(N([H])C(=O)C([H])([H])[H])C([H])(C([H])([H])[H])C([H])([H])[H])C([H])([H])C([H])([H])C(=O)N([H])[H])C([H])([H])C([H])([H])C(=O)N([H])[H])C([H])([H])C([H])(C([H])([H])[H])C([H])([H])[H])[C@@]([H])(C([H])([H])[H])C([H])([H])C([H])([H])[H]


 94 94  0  0  0  0  0  0  0  0999 V2000
   53.7133   -4.5855   -7.6260 C   0  0  0  0  0  0  0  0  0  0  0  0
   55.1312   -4.2774   -7.8913 C   0  0  0  0  0  0  0  0  0  0  0  0
   55.6525   -3.2886   -7.3200 O   0  0  0  0  0  0  0  0  0  0  0  0
   55.9141   -5.0404   -8.7603 N   0  0  0  0  0  0  0  0  0  0  0  0
   55.5420   -5.8859   -9.2264 H   0  0  0  0  0  0  0  0  0  0  0  0
   57.3072   -4.6883   -9.0564 C   0  0  0  0  0  0  0  0  0  0  0  0
   57.5172   -4.8920  -10.4976 C   0  0  0  0  0  0  0  0  0  0  0  0
   57.8469   -6.0571  -10.9279 O   0  0  0  0  0  0  0  0  0  0  0  0
   57.3804   -3.8872  -11.5110 N   0  0  0  0  0  0  0  0  0  0  0  0
   57.1136   -2.9223  -11.2817 H   0  0  0  0  0  0  0  0  0  0  0  0
   57.6203   -4.2379  -12.9067 C   0  0  0  0  0  0  0  0  0  0  0  0
   58.9443   -3.9095  -13.4180 C   0  0  0  0  0  0  0  0  0  0  0  0
   59.9874   -4.2780  -12.8122 O   0  0  0  0  0  0  0  0  0  0  0  0
   59.1245   -3.1618  -14.6239 N   0  0  0  0  0  0  0  0  0  0  0  0
   58.2160   -2.8857  -15.1124 H   0  0  0  0  0  0  0  0  0  0  0  0
   60.3960   -2.7955  -15.1618 C   0  0  0  0  0  0  0  0  0  0  0  0
   60.4438   -2.8638  -16.6637 C   0  0  0  0  0  0  0  0  0  0  0  0
   61.3802   -3.6313  -17.3183 C   0  0  0  0  0  0  0  0  0  0  0  0
   61.4067   -3.6411  -18.6939 C   0  0  0  0  0  0  0  0  0  0  0  0
   60.5246   -2.9055  -19.4571 C   0  0  0  0  0  0  0  0  0  0  0  0
   59.5914   -2.1417  -18.7572 C   0  0  0  0  0  0  0  0  0  0  0  0
   59.5585   -2.1273  -17.3855 C   0  0  0  0  0  0  0  0  0  0  0  0
   56.5409   -3.5196  -13.7589 C   0  0  0  0  0  0  0  0  0  0  0  0
   55.9153   -4.4879  -14.7422 C   0  0  0  0  0  0  0  0  0  0  0  0
   56.3299   -4.0033  -16.1287 C   0  0  0  0  0  0  0  0  0  0  0  0
   57.3808   -4.8623  -16.6803 N   0  0  0  0  0  0  0  0  0  0  0  0
   57.4307   -5.0226  -17.9609 C   0  0  0  0  0  0  0  0  0  0  0  0
   56.4698   -4.3662  -18.8110 N   0  0  0  0  0  0  0  0  0  0  0  0
   58.4413   -5.8579  -18.5020 N   0  0  0  0  0  0  0  0  0  0  0  0
   56.5486   -3.3366  -19.0454 H   0  0  0  0  0  0  0  0  0  0  0  0
   55.6771   -4.9064  -19.2099 H   0  0  0  0  0  0  0  0  0  0  0  0
   58.4611   -6.8725  -18.3149 H   0  0  0  0  0  0  0  0  0  0  0  0
   59.1597   -5.3874  -19.1007 H   0  0  0  0  0  0  0  0  0  0  0  0
   58.3002   -5.3981   -8.1989 C   0  0  0  0  0  0  0  0  0  0  0  0
   59.7047   -5.4152   -8.7260 C   0  0  0  0  0  0  0  0  0  0  0  0
   60.2445   -6.8460   -8.7889 C   0  0  0  0  0  0  0  0  0  0  0  0
   61.6720   -6.8504   -8.7538 N   0  0  0  0  0  0  0  0  0  0  0  0
   62.1674   -6.3845   -7.9662 H   0  0  0  0  0  0  0  0  0  0  0  0
   62.4306   -7.4663   -9.7618 C   0  0  0  0  0  0  0  0  0  0  0  0
   63.6639   -8.0770   -9.4400 N   0  0  0  0  0  0  0  0  0  0  0  0
   62.0465   -7.4976  -10.9990 N   0  0  0  0  0  0  0  0  0  0  0  0
   64.6013   -7.6426   -9.5356 H   0  0  0  0  0  0  0  0  0  0  0  0
   63.6664   -9.0697   -9.0593 H   0  0  0  0  0  0  0  0  0  0  0  0
   61.1327   -7.0439  -11.2448 H   0  0  0  0  0  0  0  0  0  0  0  0
   53.8886   -6.1464   -5.5970 C   0  0  0  0  0  0  0  0  0  0  0  0
   54.5560   -6.9653   -6.2906 O   0  0  0  0  0  0  0  0  0  0  0  0
   53.4918   -5.0095   -6.2891 N   0  0  0  0  0  0  0  0  0  0  0  0
   52.9108   -4.3442   -5.6784 H   0  0  0  0  0  0  0  0  0  0  0  0
   53.6512   -6.5159   -4.2256 C   0  0  0  0  0  0  0  0  0  0  0  0
   54.9867   -6.9404   -3.7279 N   0  0  0  0  0  0  0  0  0  0  0  0
   55.8873   -6.0532   -3.1542 C   0  0  0  0  0  0  0  0  0  0  0  0
   55.5136   -4.8342   -3.0689 O   0  0  0  0  0  0  0  0  0  0  0  0
   55.2738   -7.9522   -3.8048 H   0  0  0  0  0  0  0  0  0  0  0  0
   57.2481   -6.3423   -2.6258 C   0  0  0  0  0  0  0  0  0  0  0  0
   57.2377   -6.1862   -1.1685 N   0  0  0  0  0  0  0  0  0  0  0  0
   57.9367   -5.1635   -0.5203 C   0  0  0  0  0  0  0  0  0  0  0  0
   58.5964   -4.3574   -1.2284 O   0  0  0  0  0  0  0  0  0  0  0  0
   56.6915   -6.8650   -0.6077 H   0  0  0  0  0  0  0  0  0  0  0  0
   57.9255   -4.9957    0.9311 C   0  0  0  0  0  0  0  0  0  0  0  0
   58.9206   -4.0258    1.3603 N   0  0  0  0  0  0  0  0  0  0  0  0
   59.4855   -4.0290    2.6434 C   0  0  0  0  0  0  0  0  0  0  0  0
   59.0995   -4.9190    3.4615 O   0  0  0  0  0  0  0  0  0  0  0  0
   59.1997   -3.3113    0.6699 H   0  0  0  0  0  0  0  0  0  0  0  0
   60.4990   -3.0668    3.1169 C   0  0  0  0  0  0  0  0  0  0  0  0
   61.7693   -3.2537    2.4219 N   0  0  0  0  0  0  0  0  0  0  0  0
   62.7738   -4.1073    2.9208 C   0  0  0  0  0  0  0  0  0  0  0  0
   64.0844   -4.3492    2.2781 C   0  0  0  0  0  0  0  0  0  0  0  0
   62.5431   -4.7210    4.0083 O   0  0  0  0  0  0  0  0  0  0  0  0
   61.9254   -2.7463    1.5319 H   0  0  0  0  0  0  0  0  0  0  0  0
   60.0638   -1.6081    2.9441 C   0  0  0  0  0  0  0  0  0  0  0  0
   61.1998   -0.6864    3.2361 C   0  0  0  0  0  0  0  0  0  0  0  0
   58.9336   -1.2681    3.8819 C   0  0  0  0  0  0  0  0  0  0  0  0
   56.5864   -4.4843    1.4656 C   0  0  0  0  0  0  0  0  0  0  0  0
   55.7678   -5.6901    1.8559 C   0  0  0  0  0  0  0  0  0  0  0  0
   54.4754   -5.7365    1.1495 C   0  0  0  0  0  0  0  0  0  0  0  0
   53.2935   -5.1952    1.7207 N   0  0  0  0  0  0  0  0  0  0  0  0
   54.4084   -6.2576    0.0307 O   0  0  0  0  0  0  0  0  0  0  0  0
   52.3862   -5.3905    1.2752 H   0  0  0  0  0  0  0  0  0  0  0  0
   53.3705   -4.6135    2.5773 H   0  0  0  0  0  0  0  0  0  0  0  0
   57.8125   -7.6257   -3.0857 C   0  0  0  0  0  0  0  0  0  0  0  0
   58.8277   -7.5251   -4.1745 C   0  0  0  0  0  0  0  0  0  0  0  0
   60.1796   -7.8400   -3.6458 C   0  0  0  0  0  0  0  0  0  0  0  0
   60.5105   -9.1839   -3.2380 N   0  0  0  0  0  0  0  0  0  0  0  0
   61.1015   -6.9982   -3.5174 O   0  0  0  0  0  0  0  0  0  0  0  0
   60.1291   -9.9487   -3.8366 H   0  0  0  0  0  0  0  0  0  0  0  0
   61.0824   -9.3862   -2.4105 H   0  0  0  0  0  0  0  0  0  0  0  0
   53.0496   -5.6056   -3.2581 C   0  0  0  0  0  0  0  0  0  0  0  0
   50.6021   -5.3492   -3.5590 C   0  0  0  0  0  0  0  0  0  0  0  0
   51.7523   -5.7746   -2.6161 C   0  0  0  0  0  0  0  0  0  0  0  0
   51.4199   -7.2159   -2.2696 C   0  0  0  0  0  0  0  0  0  0  0  0
   52.8043   -3.4758   -8.0964 C   0  0  0  0  0  0  0  0  0  0  0  0
   53.0718   -3.2094   -9.5700 C   0  0  0  0  0  0  0  0  0  0  0  0
   51.3595   -3.6196   -7.9336 C   0  0  0  0  0  0  0  0  0  0  0  0
   50.7135   -3.1188   -6.6739 C   0  0  0  0  0  0  0  0  0  0  0  0
 88 89  1  0  0  0
 89 90  1  0  0  0
 89 87  1  0  0  0
 87 49  1  0  0  0
 49 50  1  0  0  0
 50 51  1  0  0  0
 51 52  2  0  0  0
 51 54  1  0  0  0
 54 80  1  0  0  0
 80 81  1  0  0  0
 81 82  1  0  0  0
 82 83  1  0  0  0
 82 84  2  0  0  0
 54 55  1  0  0  0
 55 56  1  0  0  0
 56 57  2  0  0  0
 56 59  1  0  0  0
 59 73  1  0  0  0
 73 74  1  0  0  0
 74 75  1  0  0  0
 75 76  1  0  0  0
 75 77  2  0  0  0
 59 60  1  0  0  0
 60 61  1  0  0  0
 61 62  2  0  0  0
 61 64  1  0  0  0
 64 65  1  0  0  0
 65 66  1  0  0  0
 66 67  1  0  0  0
 66 68  2  0  0  0
 64 70  1  0  0  0
 70 71  1  0  0  0
 70 72  1  0  0  0
 49 45  1  0  0  0
 45 46  2  0  0  0
 45 47  1  0  0  0
 47  1  1  0  0  0
  1 91  1  0  0  0
 91 92  1  0  0  0
 91 93  1  0  0  0
 93 94  1  0  0  0
  1  2  1  0  0  0
  2  3  2  0  0  0
  2  4  1  0  0  0
  4  6  1  0  0  0
  6 34  1  0  0  0
 34 35  1  0  0  0
 35 36  1  0  0  0
 36 37  1  0  0  0
 37 39  1  0  0  0
 39 40  1  0  0  0
 39 41  2  0  0  0
  6  7  1  0  0  0
  7  8  2  0  0  0
  7  9  1  0  0  0
  9 11  1  0  0  0
 11 23  1  0  0  0
 23 24  1  0  0  0
 24 25  1  0  0  0
 25 26  1  0  0  0
 26 27  2  0  0  0
 27 28  1  0  0  0
 27 29  1  0  0  0
 11 12  1  0  0  0
 12 13  2  0  0  0
 12 14  1  0  0  0
 14 16  1  0  0  0
 16 17  1  0  0  0
 17 18  2  0  0  0
 18 19  1  0  0  0
 19 20  2  0  0  0
 20 21  1  0  0  0
 21 22  2  0  0  0
 22 17  1  0  0  0
 50 53  1  0  0  0
 83 85  1  0  0  0
 83 86  1  0  0  0
 55 58  1  0  0  0
 76 78  1  0  0  0
 76 79  1  0  0  0
 60 63  1  0  0  0
 65 69  1  0  0  0
 47 48  1  0  0  0
  4  5  1  0  0  0
 37 38  1  0  0  0
 40 42  1  0  0  0
 40 43  1  0  0  0
 41 44  1  0  0  0
  9 10  1  0  0  0
 28 30  1  0  0  0
 28 31  1  0  0  0
 29 32  1  0  0  0
 29 33  1  0  0  0
 14 15  1  0  0  0
M  END
> <minimizedAffinity>
-7.46236

> <CNNscore>
0.1627802849

> <CNNaffinity>
7.0507760048

> <CNN_VS>
1.1477273703

> <CNNaffinity_variance>
1.1745169163

$$$$
[H]N=C(N([H])[H])N([H])C([H])([H])C([H])([H])C([H])([H])[C@@]([H])(C(=O)N([H])[C@]([H])(C(=O)N([H])C([H])([H])c1c([H])c([H])c([H])c([H])c1[H])C([H])([H])C([H])([H])C([H])([H])N=C(N([H])[H])N([H])[H])N([H])C(=O)[C@@]([H])(N([H])C(=O)[C@@]([H])(N([H])C(=O)[C@@]([H])(N([H])C(=O)[C@@]([H])(N([H])C(=O)[C@@]([H])(N([H])C(=O)C([H])([H])[H])C([H])(C([H])([H])[H])C([H])([H])[H])C([H])([H])C([H])([H])C(=O)N([H])[H])C([H])([H])C([H])([H])C(=O)N([H])[H])C([H])([H])C([H])(C([H])([H])[H])C([H])([H])[H])[C@@]([H])(C([H])([H])[H])C([H])([H])C([H])([H])[H]


 94 94  0  0  0  0  0  0  0  0999 V2000
   61.6029   -7.0048   -9.3924 C   0  0  0  0  0  0  0  0  0  0  0  0
   60.3660   -6.2053   -9.4741 C   0  0  0  0  0  0  0  0  0  0  0  0
   60.1196   -5.5788  -10.5337 O   0  0  0  0  0  0  0  0  0  0  0  0
   59.4619   -6.1130   -8.4137 N   0  0  0  0  0  0  0  0  0  0  0  0
   59.6008   -6.6394   -7.5338 H   0  0  0  0  0  0  0  0  0  0  0  0
   58.2641   -5.2694   -8.4907 C   0  0  0  0  0  0  0  0  0  0  0  0
   57.4212   -5.5927   -7.3297 C   0  0  0  0  0  0  0  0  0  0  0  0
   57.9262   -6.2497   -6.3477 O   0  0  0  0  0  0  0  0  0  0  0  0
   56.0430   -5.2306   -7.1726 N   0  0  0  0  0  0  0  0  0  0  0  0
   55.5395   -4.6983   -7.8922 H   0  0  0  0  0  0  0  0  0  0  0  0
   55.3319   -5.6210   -5.9599 C   0  0  0  0  0  0  0  0  0  0  0  0
   53.9525   -6.0487   -6.1511 C   0  0  0  0  0  0  0  0  0  0  0  0
   53.6336   -6.8192   -7.0973 O   0  0  0  0  0  0  0  0  0  0  0  0
   52.9015   -5.6215   -5.2801 N   0  0  0  0  0  0  0  0  0  0  0  0
   53.2190   -4.9849   -4.4837 H   0  0  0  0  0  0  0  0  0  0  0  0
   51.5305   -5.9934   -5.4299 C   0  0  0  0  0  0  0  0  0  0  0  0
   50.5922   -4.8183   -5.3906 C   0  0  0  0  0  0  0  0  0  0  0  0
   50.5226   -3.9198   -6.4310 C   0  0  0  0  0  0  0  0  0  0  0  0
   49.6716   -2.8424   -6.3402 C   0  0  0  0  0  0  0  0  0  0  0  0
   48.8741   -2.6191   -5.2376 C   0  0  0  0  0  0  0  0  0  0  0  0
   48.9730   -3.5515   -4.2056 C   0  0  0  0  0  0  0  0  0  0  0  0
   49.8189   -4.6287   -4.2892 C   0  0  0  0  0  0  0  0  0  0  0  0
   55.3716   -4.4123   -4.9880 C   0  0  0  0  0  0  0  0  0  0  0  0
   56.2941   -4.7038   -3.8219 C   0  0  0  0  0  0  0  0  0  0  0  0
   55.5922   -5.7736   -2.9899 C   0  0  0  0  0  0  0  0  0  0  0  0
   54.2276   -5.3546   -2.6598 N   0  0  0  0  0  0  0  0  0  0  0  0
   53.9715   -5.0084   -1.4422 C   0  0  0  0  0  0  0  0  0  0  0  0
   55.0126   -5.0392   -0.4461 N   0  0  0  0  0  0  0  0  0  0  0  0
   52.6513   -4.6076   -1.1134 N   0  0  0  0  0  0  0  0  0  0  0  0
   55.7510   -4.2821   -0.3919 H   0  0  0  0  0  0  0  0  0  0  0  0
   55.0490   -5.8175    0.2410 H   0  0  0  0  0  0  0  0  0  0  0  0
   51.8600   -5.2687   -1.1542 H   0  0  0  0  0  0  0  0  0  0  0  0
   52.5285   -3.6084   -0.8262 H   0  0  0  0  0  0  0  0  0  0  0  0
   57.5485   -5.3620   -9.7962 C   0  0  0  0  0  0  0  0  0  0  0  0
   57.1285   -4.0500  -10.3905 C   0  0  0  0  0  0  0  0  0  0  0  0
   55.6043   -3.9666  -10.5019 C   0  0  0  0  0  0  0  0  0  0  0  0
   55.0659   -3.1386   -9.4706 N   0  0  0  0  0  0  0  0  0  0  0  0
   55.7018   -2.5260   -8.9200 H   0  0  0  0  0  0  0  0  0  0  0  0
   53.6938   -3.1317   -9.1740 C   0  0  0  0  0  0  0  0  0  0  0  0
   53.0325   -4.3449   -8.8763 N   0  0  0  0  0  0  0  0  0  0  0  0
   52.9907   -2.0432   -9.1645 N   0  0  0  0  0  0  0  0  0  0  0  0
   52.4913   -4.9232   -9.5465 H   0  0  0  0  0  0  0  0  0  0  0  0
   53.0773   -4.7296   -7.8862 H   0  0  0  0  0  0  0  0  0  0  0  0
   53.4754   -1.1394   -9.3869 H   0  0  0  0  0  0  0  0  0  0  0  0
   63.8722   -6.3522   -8.3884 C   0  0  0  0  0  0  0  0  0  0  0  0
   64.4424   -6.7056   -9.4594 O   0  0  0  0  0  0  0  0  0  0  0  0
   62.4941   -6.5244   -8.3969 N   0  0  0  0  0  0  0  0  0  0  0  0
   62.0426   -6.2338   -7.4669 H   0  0  0  0  0  0  0  0  0  0  0  0
   64.7266   -5.8366   -7.3501 C   0  0  0  0  0  0  0  0  0  0  0  0
   65.2592   -4.5683   -7.9151 N   0  0  0  0  0  0  0  0  0  0  0  0
   66.6115   -4.3671   -8.1562 C   0  0  0  0  0  0  0  0  0  0  0  0
   67.3940   -5.3354   -7.8682 O   0  0  0  0  0  0  0  0  0  0  0  0
   64.5954   -3.7829   -8.1490 H   0  0  0  0  0  0  0  0  0  0  0  0
   67.2734   -3.1535   -8.7074 C   0  0  0  0  0  0  0  0  0  0  0  0
   66.8467   -2.9663  -10.0970 N   0  0  0  0  0  0  0  0  0  0  0  0
   67.6724   -3.2765  -11.1818 C   0  0  0  0  0  0  0  0  0  0  0  0
   68.8222   -3.7296  -10.9389 O   0  0  0  0  0  0  0  0  0  0  0  0
   65.8980   -2.5874  -10.2706 H   0  0  0  0  0  0  0  0  0  0  0  0
   67.2523   -3.1004  -12.5700 C   0  0  0  0  0  0  0  0  0  0  0  0
   66.5507   -1.8402  -12.7559 N   0  0  0  0  0  0  0  0  0  0  0  0
   65.5530   -1.6578  -13.7237 C   0  0  0  0  0  0  0  0  0  0  0  0
   65.2611   -2.6415  -14.4704 O   0  0  0  0  0  0  0  0  0  0  0  0
   66.8249   -1.0611  -12.1370 H   0  0  0  0  0  0  0  0  0  0  0  0
   64.8153   -0.3986  -13.9422 C   0  0  0  0  0  0  0  0  0  0  0  0
   64.3842    0.1867  -12.6760 N   0  0  0  0  0  0  0  0  0  0  0  0
   63.0481    0.1065  -12.2340 C   0  0  0  0  0  0  0  0  0  0  0  0
   62.5332    0.6726  -10.9677 C   0  0  0  0  0  0  0  0  0  0  0  0
   62.2140   -0.4980  -12.9764 O   0  0  0  0  0  0  0  0  0  0  0  0
   65.0894    0.6661  -12.0873 H   0  0  0  0  0  0  0  0  0  0  0  0
   65.6339    0.6482  -14.7044 C   0  0  0  0  0  0  0  0  0  0  0  0
   65.8505    1.8581  -13.8591 C   0  0  0  0  0  0  0  0  0  0  0  0
   64.9221    1.0782  -15.9617 C   0  0  0  0  0  0  0  0  0  0  0  0
   68.4245   -3.0744  -13.5529 C   0  0  0  0  0  0  0  0  0  0  0  0
   69.0348   -1.6961  -13.4887 C   0  0  0  0  0  0  0  0  0  0  0  0
   69.0994   -1.0549  -14.8139 C   0  0  0  0  0  0  0  0  0  0  0  0
   69.1043   -1.8171  -16.0118 N   0  0  0  0  0  0  0  0  0  0  0  0
   69.1507    0.1775  -14.8950 O   0  0  0  0  0  0  0  0  0  0  0  0
   69.3146   -1.3482  -16.9038 H   0  0  0  0  0  0  0  0  0  0  0  0
   68.8958   -2.8330  -15.9615 H   0  0  0  0  0  0  0  0  0  0  0  0
   67.1202   -1.9501   -7.8675 C   0  0  0  0  0  0  0  0  0  0  0  0
   66.4758   -0.7814   -8.5348 C   0  0  0  0  0  0  0  0  0  0  0  0
   65.0694   -0.6414   -8.0779 C   0  0  0  0  0  0  0  0  0  0  0  0
   64.4779    0.6653   -7.9217 N   0  0  0  0  0  0  0  0  0  0  0  0
   64.3165   -1.6072   -7.8032 O   0  0  0  0  0  0  0  0  0  0  0  0
   64.7327    1.3706   -8.6473 H   0  0  0  0  0  0  0  0  0  0  0  0
   63.8466    0.8981   -7.1472 H   0  0  0  0  0  0  0  0  0  0  0  0
   64.2551   -5.5922   -5.9920 C   0  0  0  0  0  0  0  0  0  0  0  0
   64.3538   -8.0199   -5.4988 C   0  0  0  0  0  0  0  0  0  0  0  0
   64.0835   -6.5984   -4.9518 C   0  0  0  0  0  0  0  0  0  0  0  0
   65.0624   -6.4641   -3.7978 C   0  0  0  0  0  0  0  0  0  0  0  0
   61.3070   -8.4832   -9.3161 C   0  0  0  0  0  0  0  0  0  0  0  0
   61.5863   -9.1136  -10.6721 C   0  0  0  0  0  0  0  0  0  0  0  0
   61.9853   -9.2955   -8.3087 C   0  0  0  0  0  0  0  0  0  0  0  0
   61.2922   -9.5704   -7.0052 C   0  0  0  0  0  0  0  0  0  0  0  0
 88 89  1  0  0  0
 89 90  1  0  0  0
 89 87  1  0  0  0
 87 49  1  0  0  0
 49 50  1  0  0  0
 50 51  1  0  0  0
 51 52  2  0  0  0
 51 54  1  0  0  0
 54 80  1  0  0  0
 80 81  1  0  0  0
 81 82  1  0  0  0
 82 83  1  0  0  0
 82 84  2  0  0  0
 54 55  1  0  0  0
 55 56  1  0  0  0
 56 57  2  0  0  0
 56 59  1  0  0  0
 59 73  1  0  0  0
 73 74  1  0  0  0
 74 75  1  0  0  0
 75 76  1  0  0  0
 75 77  2  0  0  0
 59 60  1  0  0  0
 60 61  1  0  0  0
 61 62  2  0  0  0
 61 64  1  0  0  0
 64 65  1  0  0  0
 65 66  1  0  0  0
 66 67  1  0  0  0
 66 68  2  0  0  0
 64 70  1  0  0  0
 70 71  1  0  0  0
 70 72  1  0  0  0
 49 45  1  0  0  0
 45 46  2  0  0  0
 45 47  1  0  0  0
 47  1  1  0  0  0
  1 91  1  0  0  0
 91 92  1  0  0  0
 91 93  1  0  0  0
 93 94  1  0  0  0
  1  2  1  0  0  0
  2  3  2  0  0  0
  2  4  1  0  0  0
  4  6  1  0  0  0
  6 34  1  0  0  0
 34 35  1  0  0  0
 35 36  1  0  0  0
 36 37  1  0  0  0
 37 39  1  0  0  0
 39 40  1  0  0  0
 39 41  2  0  0  0
  6  7  1  0  0  0
  7  8  2  0  0  0
  7  9  1  0  0  0
  9 11  1  0  0  0
 11 23  1  0  0  0
 23 24  1  0  0  0
 24 25  1  0  0  0
 25 26  1  0  0  0
 26 27  2  0  0  0
 27 28  1  0  0  0
 27 29  1  0  0  0
 11 12  1  0  0  0
 12 13  2  0  0  0
 12 14  1  0  0  0
 14 16  1  0  0  0
 16 17  1  0  0  0
 17 18  2  0  0  0
 18 19  1  0  0  0
 19 20  2  0  0  0
 20 21  1  0  0  0
 21 22  2  0  0  0
 22 17  1  0  0  0
 50 53  1  0  0  0
 83 85  1  0  0  0
 83 86  1  0  0  0
 55 58  1  0  0  0
 76 78  1  0  0  0
 76 79  1  0  0  0
 60 63  1  0  0  0
 65 69  1  0  0  0
 47 48  1  0  0  0
  4  5  1  0  0  0
 37 38  1  0  0  0
 40 42  1  0  0  0
 40 43  1  0  0  0
 41 44  1  0  0  0
  9 10  1  0  0  0
 28 30  1  0  0  0
 28 31  1  0  0  0
 29 32  1  0  0  0
 29 33  1  0  0  0
 14 15  1  0  0  0
M  END
> <minimizedAffinity>
-7.25112

> <CNNscore>
0.1516106427

> <CNNaffinity>
7.0984382629

> <CNN_VS>
1.0761988163

> <CNNaffinity_variance>
1.1501060724

$$$$
[H]N=C(N([H])[H])N([H])C([H])([H])C([H])([H])C([H])([H])[C@@]([H])(C(=O)N([H])[C@]([H])(C(=O)N([H])C([H])([H])c1c([H])c([H])c([H])c([H])c1[H])C([H])([H])C([H])([H])C([H])([H])N=C(N([H])[H])N([H])[H])N([H])C(=O)[C@@]([H])(N([H])C(=O)[C@@]([H])(N([H])C(=O)[C@@]([H])(N([H])C(=O)[C@@]([H])(N([H])C(=O)[C@@]([H])(N([H])C(=O)C([H])([H])[H])C([H])(C([H])([H])[H])C([H])([H])[H])C([H])([H])C([H])([H])C(=O)N([H])[H])C([H])([H])C([H])([H])C(=O)N([H])[H])C([H])([H])C([H])(C([H])([H])[H])C([H])([H])[H])[C@@]([H])(C([H])([H])[H])C([H])([H])C([H])([H])[H]


 94 94  0  0  0  0  0  0  0  0999 V2000
   58.2514   -5.0355   -8.9632 C   0  0  0  0  0  0  0  0  0  0  0  0
   57.2191   -4.8848   -7.9204 C   0  0  0  0  0  0  0  0  0  0  0  0
   56.6963   -3.7570   -7.7454 O   0  0  0  0  0  0  0  0  0  0  0  0
   56.8063   -5.9484   -7.1150 N   0  0  0  0  0  0  0  0  0  0  0  0
   57.1795   -6.9048   -7.2446 H   0  0  0  0  0  0  0  0  0  0  0  0
   55.8185   -5.7698   -6.0452 C   0  0  0  0  0  0  0  0  0  0  0  0
   56.4919   -6.0584   -4.7700 C   0  0  0  0  0  0  0  0  0  0  0  0
   57.5972   -6.7135   -4.7751 O   0  0  0  0  0  0  0  0  0  0  0  0
   56.0268   -5.6630   -3.4728 N   0  0  0  0  0  0  0  0  0  0  0  0
   55.1582   -5.1289   -3.3505 H   0  0  0  0  0  0  0  0  0  0  0  0
   56.8047   -6.0209   -2.2915 C   0  0  0  0  0  0  0  0  0  0  0  0
   56.0565   -6.6592   -1.2168 C   0  0  0  0  0  0  0  0  0  0  0  0
   56.4353   -7.7545   -0.7192 O   0  0  0  0  0  0  0  0  0  0  0  0
   54.8670   -6.0779   -0.6755 N   0  0  0  0  0  0  0  0  0  0  0  0
   54.5930   -5.1434   -1.1138 H   0  0  0  0  0  0  0  0  0  0  0  0
   54.0840   -6.6667    0.3639 C   0  0  0  0  0  0  0  0  0  0  0  0
   52.9462   -7.5026   -0.1553 C   0  0  0  0  0  0  0  0  0  0  0  0
   52.8812   -8.8562    0.0859 C   0  0  0  0  0  0  0  0  0  0  0  0
   51.8379   -9.5877   -0.4333 C   0  0  0  0  0  0  0  0  0  0  0  0
   50.8404   -9.0174   -1.1958 C   0  0  0  0  0  0  0  0  0  0  0  0
   50.9416   -7.6444   -1.4171 C   0  0  0  0  0  0  0  0  0  0  0  0
   51.9787   -6.9082   -0.9021 C   0  0  0  0  0  0  0  0  0  0  0  0
   57.4704   -4.7232   -1.7622 C   0  0  0  0  0  0  0  0  0  0  0  0
   58.8913   -5.0036   -1.3170 C   0  0  0  0  0  0  0  0  0  0  0  0
   58.9588   -4.5937    0.1516 C   0  0  0  0  0  0  0  0  0  0  0  0
   58.8686   -5.7715    1.0184 N   0  0  0  0  0  0  0  0  0  0  0  0
   57.8811   -5.8471    1.8472 C   0  0  0  0  0  0  0  0  0  0  0  0
   56.9016   -4.7914    1.9052 N   0  0  0  0  0  0  0  0  0  0  0  0
   57.7904   -6.9811    2.6943 N   0  0  0  0  0  0  0  0  0  0  0  0
   56.1407   -4.7000    1.1744 H   0  0  0  0  0  0  0  0  0  0  0  0
   56.9325   -4.0982    2.6783 H   0  0  0  0  0  0  0  0  0  0  0  0
   58.4948   -7.1673    3.4250 H   0  0  0  0  0  0  0  0  0  0  0  0
   56.9704   -7.6126    2.5368 H   0  0  0  0  0  0  0  0  0  0  0  0
   54.5638   -6.5498   -6.2513 C   0  0  0  0  0  0  0  0  0  0  0  0
   53.3223   -5.7281   -6.4361 C   0  0  0  0  0  0  0  0  0  0  0  0
   53.3300   -5.0299   -7.7982 C   0  0  0  0  0  0  0  0  0  0  0  0
   52.5702   -3.8218   -7.7520 N   0  0  0  0  0  0  0  0  0  0  0  0
   51.8362   -3.7047   -7.0237 H   0  0  0  0  0  0  0  0  0  0  0  0
   52.7845   -2.7826   -8.6711 C   0  0  0  0  0  0  0  0  0  0  0  0
   54.1007   -2.3473   -8.9462 N   0  0  0  0  0  0  0  0  0  0  0  0
   51.8115   -2.1894   -9.2881 N   0  0  0  0  0  0  0  0  0  0  0  0
   54.5782   -1.5376   -8.5068 H   0  0  0  0  0  0  0  0  0  0  0  0
   54.6830   -2.8779   -9.6602 H   0  0  0  0  0  0  0  0  0  0  0  0
   50.8316   -2.5065   -9.0864 H   0  0  0  0  0  0  0  0  0  0  0  0
   60.3311   -6.4983   -9.3077 C   0  0  0  0  0  0  0  0  0  0  0  0
   60.5894   -5.8716  -10.3743 O   0  0  0  0  0  0  0  0  0  0  0  0
   59.1811   -6.0652   -8.6606 N   0  0  0  0  0  0  0  0  0  0  0  0
   58.9790   -6.6299   -7.7699 H   0  0  0  0  0  0  0  0  0  0  0  0
   61.2537   -7.5413   -8.9405 C   0  0  0  0  0  0  0  0  0  0  0  0
   61.3339   -7.4493   -7.4584 N   0  0  0  0  0  0  0  0  0  0  0  0
   62.5423   -7.3852   -6.7778 C   0  0  0  0  0  0  0  0  0  0  0  0
   63.6023   -7.4079   -7.4911 O   0  0  0  0  0  0  0  0  0  0  0  0
   60.4466   -7.4285   -6.8889 H   0  0  0  0  0  0  0  0  0  0  0  0
   62.7629   -7.2984   -5.3086 C   0  0  0  0  0  0  0  0  0  0  0  0
   62.0009   -8.3617   -4.6476 N   0  0  0  0  0  0  0  0  0  0  0  0
   60.9551   -8.0919   -3.7598 C   0  0  0  0  0  0  0  0  0  0  0  0
   60.6720   -6.8866   -3.5285 O   0  0  0  0  0  0  0  0  0  0  0  0
   62.2562   -9.3452   -4.8505 H   0  0  0  0  0  0  0  0  0  0  0  0
   60.1852   -9.1455   -3.1025 C   0  0  0  0  0  0  0  0  0  0  0  0
   61.0445  -10.2310   -2.6574 N   0  0  0  0  0  0  0  0  0  0  0  0
   60.7893  -11.5771   -2.9543 C   0  0  0  0  0  0  0  0  0  0  0  0
   59.7555  -11.8503   -3.6378 O   0  0  0  0  0  0  0  0  0  0  0  0
   61.8687   -9.9689   -2.0942 H   0  0  0  0  0  0  0  0  0  0  0  0
   61.6365  -12.7067   -2.5258 C   0  0  0  0  0  0  0  0  0  0  0  0
   60.8251  -13.8287   -2.0627 N   0  0  0  0  0  0  0  0  0  0  0  0
   60.4803  -13.9896   -0.7055 C   0  0  0  0  0  0  0  0  0  0  0  0
   59.6649  -15.0962   -0.1580 C   0  0  0  0  0  0  0  0  0  0  0  0
   60.8993  -13.1197    0.1192 O   0  0  0  0  0  0  0  0  0  0  0  0
   60.4902  -14.5179   -2.7603 H   0  0  0  0  0  0  0  0  0  0  0  0
   62.5673  -13.2087   -3.6341 C   0  0  0  0  0  0  0  0  0  0  0  0
   62.9424  -12.0902   -4.5471 C   0  0  0  0  0  0  0  0  0  0  0  0
   61.8969  -14.2788   -4.4575 C   0  0  0  0  0  0  0  0  0  0  0  0
   59.4466   -8.6590   -1.8541 C   0  0  0  0  0  0  0  0  0  0  0  0
   60.3564   -8.8926   -0.6735 C   0  0  0  0  0  0  0  0  0  0  0  0
   59.6611   -9.5626    0.4397 C   0  0  0  0  0  0  0  0  0  0  0  0
   58.9523  -10.7786    0.2524 N   0  0  0  0  0  0  0  0  0  0  0  0
   59.6903   -9.0612    1.5691 O   0  0  0  0  0  0  0  0  0  0  0  0
   58.3470  -11.1278    1.0083 H   0  0  0  0  0  0  0  0  0  0  0  0
   59.0597  -11.2894   -0.6451 H   0  0  0  0  0  0  0  0  0  0  0  0
   64.1841   -7.2480   -4.9151 C   0  0  0  0  0  0  0  0  0  0  0  0
   64.7117   -5.8897   -4.5943 C   0  0  0  0  0  0  0  0  0  0  0  0
   65.9000   -5.5898   -5.4336 C   0  0  0  0  0  0  0  0  0  0  0  0
   65.7563   -5.3679   -6.8520 N   0  0  0  0  0  0  0  0  0  0  0  0
   67.0729   -5.5093   -4.9943 O   0  0  0  0  0  0  0  0  0  0  0  0
   64.9146   -4.8253   -7.1454 H   0  0  0  0  0  0  0  0  0  0  0  0
   66.4326   -5.7198   -7.5386 H   0  0  0  0  0  0  0  0  0  0  0  0
   61.0578   -8.9352   -9.3214 C   0  0  0  0  0  0  0  0  0  0  0  0
   61.6340  -11.0559   -8.1738 C   0  0  0  0  0  0  0  0  0  0  0  0
   62.0508   -9.9971   -9.2217 C   0  0  0  0  0  0  0  0  0  0  0  0
   62.2220  -10.8019  -10.4988 C   0  0  0  0  0  0  0  0  0  0  0  0
   57.6428   -5.1180  -10.3422 C   0  0  0  0  0  0  0  0  0  0  0  0
   56.1891   -4.6762  -10.2678 C   0  0  0  0  0  0  0  0  0  0  0  0
   58.2662   -4.3859  -11.4422 C   0  0  0  0  0  0  0  0  0  0  0  0
   57.3910   -3.7362  -12.4751 C   0  0  0  0  0  0  0  0  0  0  0  0
 88 89  1  0  0  0
 89 90  1  0  0  0
 89 87  1  0  0  0
 87 49  1  0  0  0
 49 50  1  0  0  0
 50 51  1  0  0  0
 51 52  2  0  0  0
 51 54  1  0  0  0
 54 80  1  0  0  0
 80 81  1  0  0  0
 81 82  1  0  0  0
 82 83  1  0  0  0
 82 84  2  0  0  0
 54 55  1  0  0  0
 55 56  1  0  0  0
 56 57  2  0  0  0
 56 59  1  0  0  0
 59 73  1  0  0  0
 73 74  1  0  0  0
 74 75  1  0  0  0
 75 76  1  0  0  0
 75 77  2  0  0  0
 59 60  1  0  0  0
 60 61  1  0  0  0
 61 62  2  0  0  0
 61 64  1  0  0  0
 64 65  1  0  0  0
 65 66  1  0  0  0
 66 67  1  0  0  0
 66 68  2  0  0  0
 64 70  1  0  0  0
 70 71  1  0  0  0
 70 72  1  0  0  0
 49 45  1  0  0  0
 45 46  2  0  0  0
 45 47  1  0  0  0
 47  1  1  0  0  0
  1 91  1  0  0  0
 91 92  1  0  0  0
 91 93  1  0  0  0
 93 94  1  0  0  0
  1  2  1  0  0  0
  2  3  2  0  0  0
  2  4  1  0  0  0
  4  6  1  0  0  0
  6 34  1  0  0  0
 34 35  1  0  0  0
 35 36  1  0  0  0
 36 37  1  0  0  0
 37 39  1  0  0  0
 39 40  1  0  0  0
 39 41  2  0  0  0
  6  7  1  0  0  0
  7  8  2  0  0  0
  7  9  1  0  0  0
  9 11  1  0  0  0
 11 23  1  0  0  0
 23 24  1  0  0  0
 24 25  1  0  0  0
 25 26  1  0  0  0
 26 27  2  0  0  0
 27 28  1  0  0  0
 27 29  1  0  0  0
 11 12  1  0  0  0
 12 13  2  0  0  0
 12 14  1  0  0  0
 14 16  1  0  0  0
 16 17  1  0  0  0
 17 18  2  0  0  0
 18 19  1  0  0  0
 19 20  2  0  0  0
 20 21  1  0  0  0
 21 22  2  0  0  0
 22 17  1  0  0  0
 50 53  1  0  0  0
 83 85  1  0  0  0
 83 86  1  0  0  0
 55 58  1  0  0  0
 76 78  1  0  0  0
 76 79  1  0  0  0
 60 63  1  0  0  0
 65 69  1  0  0  0
 47 48  1  0  0  0
  4  5  1  0  0  0
 37 38  1  0  0  0
 40 42  1  0  0  0
 40 43  1  0  0  0
 41 44  1  0  0  0
  9 10  1  0  0  0
 28 30  1  0  0  0
 28 31  1  0  0  0
 29 32  1  0  0  0
 29 33  1  0  0  0
 14 15  1  0  0  0
M  END
> <minimizedAffinity>
-6.74378

> <CNNscore>
0.1263477504

> <CNNaffinity>
7.5802574158

> <CNN_VS>
0.9577484727

> <CNNaffinity_variance>
0.9140927196

$$$$
[H]N=C(N([H])[H])N([H])C([H])([H])C([H])([H])C([H])([H])[C@@]([H])(C(=O)N([H])[C@]([H])(C(=O)N([H])C([H])([H])c1c([H])c([H])c([H])c([H])c1[H])C([H])([H])C([H])([H])C([H])([H])N=C(N([H])[H])N([H])[H])N([H])C(=O)[C@@]([H])(N([H])C(=O)[C@@]([H])(N([H])C(=O)[C@@]([H])(N([H])C(=O)[C@@]([H])(N([H])C(=O)[C@@]([H])(N([H])C(=O)C([H])([H])[H])C([H])(C([H])([H])[H])C([H])([H])[H])C([H])([H])C([H])([H])C(=O)N([H])[H])C([H])([H])C([H])([H])C(=O)N([H])[H])C([H])([H])C([H])(C([H])([H])[H])C([H])([H])[H])[C@@]([H])(C([H])([H])[H])C([H])([H])C([H])([H])[H]


 94 94  0  0  0  0  0  0  0  0999 V2000
   58.2242   -4.9980   -9.0278 C   0  0  0  0  0  0  0  0  0  0  0  0
   57.1478   -4.9114   -8.0229 C   0  0  0  0  0  0  0  0  0  0  0  0
   56.5615   -3.8137   -7.8576 O   0  0  0  0  0  0  0  0  0  0  0  0
   56.7612   -6.0033   -7.2427 N   0  0  0  0  0  0  0  0  0  0  0  0
   57.1876   -6.9378   -7.3667 H   0  0  0  0  0  0  0  0  0  0  0  0
   55.7269   -5.8868   -6.2089 C   0  0  0  0  0  0  0  0  0  0  0  0
   56.3630   -6.1720   -4.9140 C   0  0  0  0  0  0  0  0  0  0  0  0
   55.9743   -5.5361   -3.8672 O   0  0  0  0  0  0  0  0  0  0  0  0
   57.4077   -7.1279   -4.6903 N   0  0  0  0  0  0  0  0  0  0  0  0
   57.7904   -7.6978   -5.4541 H   0  0  0  0  0  0  0  0  0  0  0  0
   57.9431   -7.3045   -3.3445 C   0  0  0  0  0  0  0  0  0  0  0  0
   57.1046   -8.0685   -2.4305 C   0  0  0  0  0  0  0  0  0  0  0  0
   57.3778   -9.2651   -2.1405 O   0  0  0  0  0  0  0  0  0  0  0  0
   55.9418   -7.5023   -1.8198 N   0  0  0  0  0  0  0  0  0  0  0  0
   55.7583   -6.4829   -2.0796 H   0  0  0  0  0  0  0  0  0  0  0  0
   55.0739   -8.2085   -0.9319 C   0  0  0  0  0  0  0  0  0  0  0  0
   53.6249   -7.8460   -1.1100 C   0  0  0  0  0  0  0  0  0  0  0  0
   52.6645   -8.2666   -0.2182 C   0  0  0  0  0  0  0  0  0  0  0  0
   51.3466   -7.9369   -0.4360 C   0  0  0  0  0  0  0  0  0  0  0  0
   50.9388   -7.1936   -1.5235 C   0  0  0  0  0  0  0  0  0  0  0  0
   51.9410   -6.7861   -2.4031 C   0  0  0  0  0  0  0  0  0  0  0  0
   53.2575   -7.1105   -2.1923 C   0  0  0  0  0  0  0  0  0  0  0  0
   58.1996   -5.8915   -2.7570 C   0  0  0  0  0  0  0  0  0  0  0  0
   58.9296   -5.9958   -1.4333 C   0  0  0  0  0  0  0  0  0  0  0  0
   58.3959   -4.8562   -0.5698 C   0  0  0  0  0  0  0  0  0  0  0  0
   56.9413   -4.7456   -0.7066 N   0  0  0  0  0  0  0  0  0  0  0  0
   56.2262   -4.7148    0.3683 C   0  0  0  0  0  0  0  0  0  0  0  0
   56.8584   -4.7884    1.6613 N   0  0  0  0  0  0  0  0  0  0  0  0
   54.8168   -4.6143    0.2439 N   0  0  0  0  0  0  0  0  0  0  0  0
   57.3441   -3.9506    2.0897 H   0  0  0  0  0  0  0  0  0  0  0  0
   56.8428   -5.6793    2.1955 H   0  0  0  0  0  0  0  0  0  0  0  0
   54.2564   -5.3711   -0.1779 H   0  0  0  0  0  0  0  0  0  0  0  0
   54.3816   -3.7336    0.6055 H   0  0  0  0  0  0  0  0  0  0  0  0
   54.5150   -6.7141   -6.4774 C   0  0  0  0  0  0  0  0  0  0  0  0
   53.4689   -6.0592   -7.3304 C   0  0  0  0  0  0  0  0  0  0  0  0
   53.3729   -4.5634   -7.0206 C   0  0  0  0  0  0  0  0  0  0  0  0
   52.3246   -3.9562   -7.7765 N   0  0  0  0  0  0  0  0  0  0  0  0
   51.3740   -4.3795   -7.7676 H   0  0  0  0  0  0  0  0  0  0  0  0
   52.5436   -2.7987   -8.5399 C   0  0  0  0  0  0  0  0  0  0  0  0
   51.5404   -1.8060   -8.6159 N   0  0  0  0  0  0  0  0  0  0  0  0
   53.6436   -2.5963   -9.1945 N   0  0  0  0  0  0  0  0  0  0  0  0
   50.8389   -1.7067   -9.3739 H   0  0  0  0  0  0  0  0  0  0  0  0
   51.4681   -1.0824   -7.8403 H   0  0  0  0  0  0  0  0  0  0  0  0
   54.3915   -3.3307   -9.1439 H   0  0  0  0  0  0  0  0  0  0  0  0
   60.3482   -6.4013   -9.3483 C   0  0  0  0  0  0  0  0  0  0  0  0
   60.5893   -5.7823  -10.4234 O   0  0  0  0  0  0  0  0  0  0  0  0
   59.1842   -5.9945   -8.7092 N   0  0  0  0  0  0  0  0  0  0  0  0
   58.9977   -6.5523   -7.8108 H   0  0  0  0  0  0  0  0  0  0  0  0
   61.3014   -7.4104   -8.9648 C   0  0  0  0  0  0  0  0  0  0  0  0
   61.6531   -7.0628   -7.5623 N   0  0  0  0  0  0  0  0  0  0  0  0
   62.9610   -6.8410   -7.1527 C   0  0  0  0  0  0  0  0  0  0  0  0
   63.8667   -6.9488   -8.0477 O   0  0  0  0  0  0  0  0  0  0  0  0
   60.8897   -6.9755   -6.8402 H   0  0  0  0  0  0  0  0  0  0  0  0
   63.4482   -6.4959   -5.7895 C   0  0  0  0  0  0  0  0  0  0  0  0
   63.3642   -7.6851   -4.9371 N   0  0  0  0  0  0  0  0  0  0  0  0
   62.2771   -7.9244   -4.0911 C   0  0  0  0  0  0  0  0  0  0  0  0
   61.3460   -7.0764   -4.0708 O   0  0  0  0  0  0  0  0  0  0  0  0
   64.1452   -8.3654   -4.9681 H   0  0  0  0  0  0  0  0  0  0  0  0
   62.1815   -9.1109   -3.2439 C   0  0  0  0  0  0  0  0  0  0  0  0
   61.2175   -8.9205   -2.1718 N   0  0  0  0  0  0  0  0  0  0  0  0
   61.4811   -9.2646   -0.8386 C   0  0  0  0  0  0  0  0  0  0  0  0
   62.6129   -9.7702   -0.5669 O   0  0  0  0  0  0  0  0  0  0  0  0
   60.3046   -8.5176   -2.4352 H   0  0  0  0  0  0  0  0  0  0  0  0
   60.5335   -9.0846    0.2781 C   0  0  0  0  0  0  0  0  0  0  0  0
   60.4593  -10.2851    1.1058 N   0  0  0  0  0  0  0  0  0  0  0  0
   59.5706  -11.3392    0.8127 C   0  0  0  0  0  0  0  0  0  0  0  0
   59.4352  -12.5845    1.6002 C   0  0  0  0  0  0  0  0  0  0  0  0
   58.8232  -11.2177   -0.2066 O   0  0  0  0  0  0  0  0  0  0  0  0
   61.0880  -10.3598    1.9262 H   0  0  0  0  0  0  0  0  0  0  0  0
   60.8909   -7.8982    1.1789 C   0  0  0  0  0  0  0  0  0  0  0  0
   61.8764   -7.0066    0.5012 C   0  0  0  0  0  0  0  0  0  0  0  0
   61.5013   -8.3696    2.4742 C   0  0  0  0  0  0  0  0  0  0  0  0
   61.7197  -10.3555   -4.0044 C   0  0  0  0  0  0  0  0  0  0  0  0
   60.3564  -10.7261   -3.4749 C   0  0  0  0  0  0  0  0  0  0  0  0
   60.1701  -12.1856   -3.3930 C   0  0  0  0  0  0  0  0  0  0  0  0
   60.4935  -12.9140   -2.2178 N   0  0  0  0  0  0  0  0  0  0  0  0
   59.7212  -12.8003   -4.3668 O   0  0  0  0  0  0  0  0  0  0  0  0
   60.5058  -13.9428   -2.2528 H   0  0  0  0  0  0  0  0  0  0  0  0
   60.7116  -12.3917   -1.3473 H   0  0  0  0  0  0  0  0  0  0  0  0
   64.7691   -5.8386   -5.7707 C   0  0  0  0  0  0  0  0  0  0  0  0
   64.7909   -4.4618   -5.1960 C   0  0  0  0  0  0  0  0  0  0  0  0
   64.9875   -3.4592   -6.2741 C   0  0  0  0  0  0  0  0  0  0  0  0
   65.8700   -2.3351   -6.0754 N   0  0  0  0  0  0  0  0  0  0  0  0
   64.4256   -3.5081   -7.3952 O   0  0  0  0  0  0  0  0  0  0  0  0
   66.7502   -2.5339   -5.5513 H   0  0  0  0  0  0  0  0  0  0  0  0
   65.6538   -1.3937   -6.4213 H   0  0  0  0  0  0  0  0  0  0  0  0
   61.0115   -8.8374   -9.0436 C   0  0  0  0  0  0  0  0  0  0  0  0
   62.9105   -9.3257  -10.5608 C   0  0  0  0  0  0  0  0  0  0  0  0
   61.9308   -9.8735   -9.4963 C   0  0  0  0  0  0  0  0  0  0  0  0
   62.8446  -10.4054   -8.4053 C   0  0  0  0  0  0  0  0  0  0  0  0
   57.6720   -5.0773  -10.4305 C   0  0  0  0  0  0  0  0  0  0  0  0
   56.2049   -4.6757  -10.4074 C   0  0  0  0  0  0  0  0  0  0  0  0
   58.3173   -4.3132  -11.4957 C   0  0  0  0  0  0  0  0  0  0  0  0
   57.4627   -3.6237  -12.5199 C   0  0  0  0  0  0  0  0  0  0  0  0
 88 89  1  0  0  0
 89 90  1  0  0  0
 89 87  1  0  0  0
 87 49  1  0  0  0
 49 50  1  0  0  0
 50 51  1  0  0  0
 51 52  2  0  0  0
 51 54  1  0  0  0
 54 80  1  0  0  0
 80 81  1  0  0  0
 81 82  1  0  0  0
 82 83  1  0  0  0
 82 84  2  0  0  0
 54 55  1  0  0  0
 55 56  1  0  0  0
 56 57  2  0  0  0
 56 59  1  0  0  0
 59 73  1  0  0  0
 73 74  1  0  0  0
 74 75  1  0  0  0
 75 76  1  0  0  0
 75 77  2  0  0  0
 59 60  1  0  0  0
 60 61  1  0  0  0
 61 62  2  0  0  0
 61 64  1  0  0  0
 64 65  1  0  0  0
 65 66  1  0  0  0
 66 67  1  0  0  0
 66 68  2  0  0  0
 64 70  1  0  0  0
 70 71  1  0  0  0
 70 72  1  0  0  0
 49 45  1  0  0  0
 45 46  2  0  0  0
 45 47  1  0  0  0
 47  1  1  0  0  0
  1 91  1  0  0  0
 91 92  1  0  0  0
 91 93  1  0  0  0
 93 94  1  0  0  0
  1  2  1  0  0  0
  2  3  2  0  0  0
  2  4  1  0  0  0
  4  6  1  0  0  0
  6 34  1  0  0  0
 34 35  1  0  0  0
 35 36  1  0  0  0
 36 37  1  0  0  0
 37 39  1  0  0  0
 39 40  1  0  0  0
 39 41  2  0  0  0
  6  7  1  0  0  0
  7  8  2  0  0  0
  7  9  1  0  0  0
  9 11  1  0  0  0
 11 23  1  0  0  0
 23 24  1  0  0  0
 24 25  1  0  0  0
 25 26  1  0  0  0
 26 27  2  0  0  0
 27 28  1  0  0  0
 27 29  1  0  0  0
 11 12  1  0  0  0
 12 13  2  0  0  0
 12 14  1  0  0  0
 14 16  1  0  0  0
 16 17  1  0  0  0
 17 18  2  0  0  0
 18 19  1  0  0  0
 19 20  2  0  0  0
 20 21  1  0  0  0
 21 22  2  0  0  0
 22 17  1  0  0  0
 50 53  1  0  0  0
 83 85  1  0  0  0
 83 86  1  0  0  0
 55 58  1  0  0  0
 76 78  1  0  0  0
 76 79  1  0  0  0
 60 63  1  0  0  0
 65 69  1  0  0  0
 47 48  1  0  0  0
  4  5  1  0  0  0
 37 38  1  0  0  0
 40 42  1  0  0  0
 40 43  1  0  0  0
 41 44  1  0  0  0
  9 10  1  0  0  0
 28 30  1  0  0  0
 28 31  1  0  0  0
 29 32  1  0  0  0
 29 33  1  0  0  0
 14 15  1  0  0  0
M  END
> <minimizedAffinity>
-7.00401

> <CNNscore>
0.1166920960

> <CNNaffinity>
7.2812919617

> <CNN_VS>
0.8496692181

> <CNNaffinity_variance>
1.8612935543

$$$$
[H]N=C(N([H])[H])N([H])C([H])([H])C([H])([H])C([H])([H])[C@@]([H])(C(=O)N([H])[C@]([H])(C(=O)N([H])C([H])([H])c1c([H])c([H])c([H])c([H])c1[H])C([H])([H])C([H])([H])C([H])([H])N=C(N([H])[H])N([H])[H])N([H])C(=O)[C@@]([H])(N([H])C(=O)[C@@]([H])(N([H])C(=O)[C@@]([H])(N([H])C(=O)[C@@]([H])(N([H])C(=O)[C@@]([H])(N([H])C(=O)C([H])([H])[H])C([H])(C([H])([H])[H])C([H])([H])[H])C([H])([H])C([H])([H])C(=O)N([H])[H])C([H])([H])C([H])([H])C(=O)N([H])[H])C([H])([H])C([H])(C([H])([H])[H])C([H])([H])[H])[C@@]([H])(C([H])([H])[H])C([H])([H])C([H])([H])[H]


 94 94  0  0  0  0  0  0  0  0999 V2000
   54.3064   -5.3911   -7.5526 C   0  0  0  0  0  0  0  0  0  0  0  0
   55.7036   -5.0359   -7.8646 C   0  0  0  0  0  0  0  0  0  0  0  0
   56.3961   -4.4726   -6.9820 O   0  0  0  0  0  0  0  0  0  0  0  0
   56.2833   -5.2962   -9.1082 N   0  0  0  0  0  0  0  0  0  0  0  0
   55.7667   -5.7912   -9.8556 H   0  0  0  0  0  0  0  0  0  0  0  0
   57.6568   -4.8869   -9.4215 C   0  0  0  0  0  0  0  0  0  0  0  0
   57.6195   -4.1559  -10.6971 C   0  0  0  0  0  0  0  0  0  0  0  0
   56.8083   -3.1689  -10.8343 O   0  0  0  0  0  0  0  0  0  0  0  0
   58.4310   -4.4385  -11.8447 N   0  0  0  0  0  0  0  0  0  0  0  0
   59.1191   -5.2008  -11.8445 H   0  0  0  0  0  0  0  0  0  0  0  0
   58.2841   -3.6236  -13.0459 C   0  0  0  0  0  0  0  0  0  0  0  0
   57.2854   -4.0863  -14.0003 C   0  0  0  0  0  0  0  0  0  0  0  0
   56.7956   -5.2458  -13.9213 O   0  0  0  0  0  0  0  0  0  0  0  0
   56.8131   -3.2536  -15.0629 N   0  0  0  0  0  0  0  0  0  0  0  0
   57.2413   -2.2755  -15.0815 H   0  0  0  0  0  0  0  0  0  0  0  0
   55.8506   -3.6598  -16.0371 C   0  0  0  0  0  0  0  0  0  0  0  0
   55.9914   -2.9317  -17.3458 C   0  0  0  0  0  0  0  0  0  0  0  0
   57.1913   -2.8898  -18.0188 C   0  0  0  0  0  0  0  0  0  0  0  0
   57.2827   -2.1870  -19.1981 C   0  0  0  0  0  0  0  0  0  0  0  0
   56.2107   -1.5126  -19.7437 C   0  0  0  0  0  0  0  0  0  0  0  0
   55.0132   -1.5795  -19.0326 C   0  0  0  0  0  0  0  0  0  0  0  0
   54.9142   -2.2788  -17.8562 C   0  0  0  0  0  0  0  0  0  0  0  0
   59.6721   -3.5586  -13.7363 C   0  0  0  0  0  0  0  0  0  0  0  0
   59.5573   -2.8833  -15.0878 C   0  0  0  0  0  0  0  0  0  0  0  0
   60.8399   -3.2293  -15.8392 C   0  0  0  0  0  0  0  0  0  0  0  0
   60.8890   -2.5255  -17.1233 N   0  0  0  0  0  0  0  0  0  0  0  0
   60.8954   -3.2285  -18.2066 C   0  0  0  0  0  0  0  0  0  0  0  0
   60.8549   -4.6675  -18.1365 N   0  0  0  0  0  0  0  0  0  0  0  0
   60.9493   -2.5546  -19.4535 N   0  0  0  0  0  0  0  0  0  0  0  0
   59.9555   -5.1878  -17.9324 H   0  0  0  0  0  0  0  0  0  0  0  0
   61.7226   -5.2180  -18.2891 H   0  0  0  0  0  0  0  0  0  0  0  0
   61.7759   -2.0050  -19.7352 H   0  0  0  0  0  0  0  0  0  0  0  0
   60.1071   -2.6494  -20.0680 H   0  0  0  0  0  0  0  0  0  0  0  0
   58.6366   -6.0115   -9.4027 C   0  0  0  0  0  0  0  0  0  0  0  0
   59.9278   -5.7239   -8.6950 C   0  0  0  0  0  0  0  0  0  0  0  0
   61.0651   -6.5690   -9.2738 C   0  0  0  0  0  0  0  0  0  0  0  0
   60.6819   -7.9418   -9.3605 N   0  0  0  0  0  0  0  0  0  0  0  0
   59.8139   -8.2010   -9.8726 H   0  0  0  0  0  0  0  0  0  0  0  0
   61.4468   -8.9579   -8.7661 C   0  0  0  0  0  0  0  0  0  0  0  0
   62.8119   -8.7329   -8.4771 N   0  0  0  0  0  0  0  0  0  0  0  0
   60.9501  -10.1170   -8.4680 N   0  0  0  0  0  0  0  0  0  0  0  0
   63.6140   -9.0098   -9.0743 H   0  0  0  0  0  0  0  0  0  0  0  0
   63.0750   -8.2336   -7.5761 H   0  0  0  0  0  0  0  0  0  0  0  0
   59.9376  -10.2911   -8.6822 H   0  0  0  0  0  0  0  0  0  0  0  0
   54.3180   -6.6510   -5.3174 C   0  0  0  0  0  0  0  0  0  0  0  0
   54.7873   -7.6698   -5.8995 O   0  0  0  0  0  0  0  0  0  0  0  0
   54.0908   -5.5711   -6.1607 N   0  0  0  0  0  0  0  0  0  0  0  0
   53.6742   -4.7295   -5.6399 H   0  0  0  0  0  0  0  0  0  0  0  0
   54.0986   -6.7702   -3.8991 C   0  0  0  0  0  0  0  0  0  0  0  0
   55.4428   -7.0910   -3.3498 N   0  0  0  0  0  0  0  0  0  0  0  0
   56.4715   -6.1599   -3.2998 C   0  0  0  0  0  0  0  0  0  0  0  0
   56.2100   -4.9940   -3.7528 O   0  0  0  0  0  0  0  0  0  0  0  0
   55.6363   -8.0585   -2.9778 H   0  0  0  0  0  0  0  0  0  0  0  0
   57.8552   -6.3500   -2.7862 C   0  0  0  0  0  0  0  0  0  0  0  0
   57.8434   -6.2281   -1.3257 N   0  0  0  0  0  0  0  0  0  0  0  0
   58.2457   -5.0615   -0.6686 C   0  0  0  0  0  0  0  0  0  0  0  0
   58.6319   -4.0903   -1.3716 O   0  0  0  0  0  0  0  0  0  0  0  0
   57.5261   -7.0427   -0.7694 H   0  0  0  0  0  0  0  0  0  0  0  0
   58.2298   -4.9286    0.7863 C   0  0  0  0  0  0  0  0  0  0  0  0
   59.2700   -4.0228    1.2473 N   0  0  0  0  0  0  0  0  0  0  0  0
   59.7392   -4.0089    2.5684 C   0  0  0  0  0  0  0  0  0  0  0  0
   59.2216   -4.8234    3.3925 O   0  0  0  0  0  0  0  0  0  0  0  0
   59.6573   -3.3680    0.5500 H   0  0  0  0  0  0  0  0  0  0  0  0
   60.7939   -3.1101    3.0753 C   0  0  0  0  0  0  0  0  0  0  0  0
   62.0573   -3.3334    2.3784 N   0  0  0  0  0  0  0  0  0  0  0  0
   63.0502   -4.1924    2.8912 C   0  0  0  0  0  0  0  0  0  0  0  0
   64.3532   -4.4702    2.2476 C   0  0  0  0  0  0  0  0  0  0  0  0
   62.8151   -4.7780    3.9932 O   0  0  0  0  0  0  0  0  0  0  0  0
   62.2171   -2.8485    1.4766 H   0  0  0  0  0  0  0  0  0  0  0  0
   60.4273   -1.6281    2.9478 C   0  0  0  0  0  0  0  0  0  0  0  0
   61.5214   -0.7712    3.4899 C   0  0  0  0  0  0  0  0  0  0  0  0
   59.1670   -1.3168    3.7141 C   0  0  0  0  0  0  0  0  0  0  0  0
   56.9142   -4.3609    1.3225 C   0  0  0  0  0  0  0  0  0  0  0  0
   55.9823   -5.5250    1.5520 C   0  0  0  0  0  0  0  0  0  0  0  0
   54.9758   -5.6500    0.4829 C   0  0  0  0  0  0  0  0  0  0  0  0
   54.0504   -4.6097    0.2044 N   0  0  0  0  0  0  0  0  0  0  0  0
   54.9282   -6.6829   -0.1944 O   0  0  0  0  0  0  0  0  0  0  0  0
   53.2633   -4.7957   -0.4325 H   0  0  0  0  0  0  0  0  0  0  0  0
   54.1879   -3.6824    0.6509 H   0  0  0  0  0  0  0  0  0  0  0  0
   58.5178   -7.5728   -3.2789 C   0  0  0  0  0  0  0  0  0  0  0  0
   59.5030   -8.1887   -2.3428 C   0  0  0  0  0  0  0  0  0  0  0  0
   60.8682   -7.6762   -2.6251 C   0  0  0  0  0  0  0  0  0  0  0  0
   61.9461   -7.9163   -1.6964 N   0  0  0  0  0  0  0  0  0  0  0  0
   61.1791   -7.0216   -3.6498 O   0  0  0  0  0  0  0  0  0  0  0  0
   61.9594   -8.8582   -1.2475 H   0  0  0  0  0  0  0  0  0  0  0  0
   62.6590   -7.2105   -1.4813 H   0  0  0  0  0  0  0  0  0  0  0  0
   53.5004   -5.7049   -3.1030 C   0  0  0  0  0  0  0  0  0  0  0  0
   51.1652   -5.8931   -3.9140 C   0  0  0  0  0  0  0  0  0  0  0  0
   52.0993   -5.6114   -2.7135 C   0  0  0  0  0  0  0  0  0  0  0  0
   51.6777   -6.6414   -1.6793 C   0  0  0  0  0  0  0  0  0  0  0  0
   53.3301   -4.4588   -8.2284 C   0  0  0  0  0  0  0  0  0  0  0  0
   52.1023   -4.3035   -7.3438 C   0  0  0  0  0  0  0  0  0  0  0  0
   53.7691   -3.1173   -8.6059 C   0  0  0  0  0  0  0  0  0  0  0  0
   52.7380   -2.0512   -8.8410 C   0  0  0  0  0  0  0  0  0  0  0  0
 88 89  1  0  0  0
 89 90  1  0  0  0
 89 87  1  0  0  0
 87 49  1  0  0  0
 49 50  1  0  0  0
 50 51  1  0  0  0
 51 52  2  0  0  0
 51 54  1  0  0  0
 54 80  1  0  0  0
 80 81  1  0  0  0
 81 82  1  0  0  0
 82 83  1  0  0  0
 82 84  2  0  0  0
 54 55  1  0  0  0
 55 56  1  0  0  0
 56 57  2  0  0  0
 56 59  1  0  0  0
 59 73  1  0  0  0
 73 74  1  0  0  0
 74 75  1  0  0  0
 75 76  1  0  0  0
 75 77  2  0  0  0
 59 60  1  0  0  0
 60 61  1  0  0  0
 61 62  2  0  0  0
 61 64  1  0  0  0
 64 65  1  0  0  0
 65 66  1  0  0  0
 66 67  1  0  0  0
 66 68  2  0  0  0
 64 70  1  0  0  0
 70 71  1  0  0  0
 70 72  1  0  0  0
 49 45  1  0  0  0
 45 46  2  0  0  0
 45 47  1  0  0  0
 47  1  1  0  0  0
  1 91  1  0  0  0
 91 92  1  0  0  0
 91 93  1  0  0  0
 93 94  1  0  0  0
  1  2  1  0  0  0
  2  3  2  0  0  0
  2  4  1  0  0  0
  4  6  1  0  0  0
  6 34  1  0  0  0
 34 35  1  0  0  0
 35 36  1  0  0  0
 36 37  1  0  0  0
 37 39  1  0  0  0
 39 40  1  0  0  0
 39 41  2  0  0  0
  6  7  1  0  0  0
  7  8  2  0  0  0
  7  9  1  0  0  0
  9 11  1  0  0  0
 11 23  1  0  0  0
 23 24  1  0  0  0
 24 25  1  0  0  0
 25 26  1  0  0  0
 26 27  2  0  0  0
 27 28  1  0  0  0
 27 29  1  0  0  0
 11 12  1  0  0  0
 12 13  2  0  0  0
 12 14  1  0  0  0
 14 16  1  0  0  0
 16 17  1  0  0  0
 17 18  2  0  0  0
 18 19  1  0  0  0
 19 20  2  0  0  0
 20 21  1  0  0  0
 21 22  2  0  0  0
 22 17  1  0  0  0
 50 53  1  0  0  0
 83 85  1  0  0  0
 83 86  1  0  0  0
 55 58  1  0  0  0
 76 78  1  0  0  0
 76 79  1  0  0  0
 60 63  1  0  0  0
 65 69  1  0  0  0
 47 48  1  0  0  0
  4  5  1  0  0  0
 37 38  1  0  0  0
 40 42  1  0  0  0
 40 43  1  0  0  0
 41 44  1  0  0  0
  9 10  1  0  0  0
 28 30  1  0  0  0
 28 31  1  0  0  0
 29 32  1  0  0  0
 29 33  1  0  0  0
 14 15  1  0  0  0
M  END
> <minimizedAffinity>
-7.29712

> <CNNscore>
0.1158974022

> <CNNaffinity>
6.8400182724

> <CNN_VS>
0.7927403450

> <CNNaffinity_variance>
1.5576809645

$$$$
[H]N=C(N([H])[H])N([H])C([H])([H])C([H])([H])C([H])([H])[C@@]([H])(C(=O)N([H])[C@]([H])(C(=O)N([H])C([H])([H])c1c([H])c([H])c([H])c([H])c1[H])C([H])([H])C([H])([H])C([H])([H])N=C(N([H])[H])N([H])[H])N([H])C(=O)[C@@]([H])(N([H])C(=O)[C@@]([H])(N([H])C(=O)[C@@]([H])(N([H])C(=O)[C@@]([H])(N([H])C(=O)[C@@]([H])(N([H])C(=O)C([H])([H])[H])C([H])(C([H])([H])[H])C([H])([H])[H])C([H])([H])C([H])([H])C(=O)N([H])[H])C([H])([H])C([H])([H])C(=O)N([H])[H])C([H])([H])C([H])(C([H])([H])[H])C([H])([H])[H])[C@@]([H])(C([H])([H])[H])C([H])([H])C([H])([H])[H]


 94 94  0  0  0  0  0  0  0  0999 V2000
   55.2957   -4.7785   -7.6006 C   0  0  0  0  0  0  0  0  0  0  0  0
   55.3961   -5.7996   -6.5409 C   0  0  0  0  0  0  0  0  0  0  0  0
   55.3536   -7.0121   -6.8632 O   0  0  0  0  0  0  0  0  0  0  0  0
   55.5293   -5.4680   -5.1908 N   0  0  0  0  0  0  0  0  0  0  0  0
   55.6063   -4.4849   -4.8777 H   0  0  0  0  0  0  0  0  0  0  0  0
   55.5721   -6.4945   -4.1435 C   0  0  0  0  0  0  0  0  0  0  0  0
   54.2056   -6.6513   -3.6230 C   0  0  0  0  0  0  0  0  0  0  0  0
   53.2066   -6.4726   -4.4112 O   0  0  0  0  0  0  0  0  0  0  0  0
   53.8609   -7.0028   -2.2765 N   0  0  0  0  0  0  0  0  0  0  0  0
   54.5792   -7.1759   -1.5632 H   0  0  0  0  0  0  0  0  0  0  0  0
   52.4556   -7.1239   -1.9036 C   0  0  0  0  0  0  0  0  0  0  0  0
   51.6547   -5.9190   -2.0739 C   0  0  0  0  0  0  0  0  0  0  0  0
   51.9976   -4.8274   -1.5432 O   0  0  0  0  0  0  0  0  0  0  0  0
   50.4519   -5.9143   -2.8477 N   0  0  0  0  0  0  0  0  0  0  0  0
   50.2091   -6.8544   -3.2924 H   0  0  0  0  0  0  0  0  0  0  0  0
   49.6184   -4.7693   -3.0335 C   0  0  0  0  0  0  0  0  0  0  0  0
   49.6342   -4.2502   -4.4452 C   0  0  0  0  0  0  0  0  0  0  0  0
   49.1350   -3.0063   -4.7586 C   0  0  0  0  0  0  0  0  0  0  0  0
   49.1422   -2.5834   -6.0679 C   0  0  0  0  0  0  0  0  0  0  0  0
   49.6339   -3.3612   -7.0950 C   0  0  0  0  0  0  0  0  0  0  0  0
   50.1309   -4.6137   -6.7369 C   0  0  0  0  0  0  0  0  0  0  0  0
   50.1276   -5.0422   -5.4334 C   0  0  0  0  0  0  0  0  0  0  0  0
   52.4054   -7.5763   -0.4203 C   0  0  0  0  0  0  0  0  0  0  0  0
   53.6460   -8.3724   -0.0699 C   0  0  0  0  0  0  0  0  0  0  0  0
   53.5890   -8.5944    1.4390 C   0  0  0  0  0  0  0  0  0  0  0  0
   52.9111   -7.4749    2.0977 N   0  0  0  0  0  0  0  0  0  0  0  0
   52.0629   -7.7393    3.0351 C   0  0  0  0  0  0  0  0  0  0  0  0
   51.8016   -9.1058    3.4112 N   0  0  0  0  0  0  0  0  0  0  0  0
   51.3978   -6.6612    3.6732 N   0  0  0  0  0  0  0  0  0  0  0  0
   52.4767   -9.6535    4.0159 H   0  0  0  0  0  0  0  0  0  0  0  0
   50.9327   -9.5747    3.0880 H   0  0  0  0  0  0  0  0  0  0  0  0
   50.7349   -6.0572    3.1628 H   0  0  0  0  0  0  0  0  0  0  0  0
   51.6160   -6.5172    4.6869 H   0  0  0  0  0  0  0  0  0  0  0  0
   56.5904   -6.2300   -3.0860 C   0  0  0  0  0  0  0  0  0  0  0  0
   56.7815   -4.7856   -2.7284 C   0  0  0  0  0  0  0  0  0  0  0  0
   57.1660   -4.6366   -1.2544 C   0  0  0  0  0  0  0  0  0  0  0  0
   56.4838   -5.6020   -0.4533 N   0  0  0  0  0  0  0  0  0  0  0  0
   56.7679   -6.6018   -0.5015 H   0  0  0  0  0  0  0  0  0  0  0  0
   55.4302   -5.2374    0.3997 C   0  0  0  0  0  0  0  0  0  0  0  0
   55.4808   -5.5856    1.7686 N   0  0  0  0  0  0  0  0  0  0  0  0
   54.3907   -4.5868   -0.0193 N   0  0  0  0  0  0  0  0  0  0  0  0
   55.0327   -6.4148    2.2024 H   0  0  0  0  0  0  0  0  0  0  0  0
   56.0222   -4.9651    2.4410 H   0  0  0  0  0  0  0  0  0  0  0  0
   54.3460   -4.3272   -1.0351 H   0  0  0  0  0  0  0  0  0  0  0  0
   57.6934   -5.1563   -8.4324 C   0  0  0  0  0  0  0  0  0  0  0  0
   58.0779   -5.3127   -7.2387 O   0  0  0  0  0  0  0  0  0  0  0  0
   56.3365   -4.8890   -8.5601 N   0  0  0  0  0  0  0  0  0  0  0  0
   56.0459   -4.7420   -9.5833 H   0  0  0  0  0  0  0  0  0  0  0  0
   58.7048   -5.2786   -9.4502 C   0  0  0  0  0  0  0  0  0  0  0  0
   59.3646   -6.5774   -9.1517 N   0  0  0  0  0  0  0  0  0  0  0  0
   60.6759   -6.6641   -8.7039 C   0  0  0  0  0  0  0  0  0  0  0  0
   61.3035   -5.5610   -8.5551 O   0  0  0  0  0  0  0  0  0  0  0  0
   58.8273   -7.4760   -9.2780 H   0  0  0  0  0  0  0  0  0  0  0  0
   61.4535   -7.8903   -8.3772 C   0  0  0  0  0  0  0  0  0  0  0  0
   62.7959   -7.7721   -8.9534 N   0  0  0  0  0  0  0  0  0  0  0  0
   63.0525   -8.0071  -10.3075 C   0  0  0  0  0  0  0  0  0  0  0  0
   62.0848   -8.3337  -11.0447 O   0  0  0  0  0  0  0  0  0  0  0  0
   63.5762   -7.5069   -8.3254 H   0  0  0  0  0  0  0  0  0  0  0  0
   64.3860   -7.8840  -10.8918 C   0  0  0  0  0  0  0  0  0  0  0  0
   65.3216   -7.2816   -9.9554 N   0  0  0  0  0  0  0  0  0  0  0  0
   65.8294   -5.9843  -10.1123 C   0  0  0  0  0  0  0  0  0  0  0  0
   65.4541   -5.3164  -11.1240 O   0  0  0  0  0  0  0  0  0  0  0  0
   65.6115   -7.8609   -9.1521 H   0  0  0  0  0  0  0  0  0  0  0  0
   66.7760   -5.3354   -9.1848 C   0  0  0  0  0  0  0  0  0  0  0  0
   66.1053   -4.9070   -7.9607 N   0  0  0  0  0  0  0  0  0  0  0  0
   65.7338   -3.5646   -7.7445 C   0  0  0  0  0  0  0  0  0  0  0  0
   65.0539   -3.0520   -6.5345 C   0  0  0  0  0  0  0  0  0  0  0  0
   66.0009   -2.7220   -8.6563 O   0  0  0  0  0  0  0  0  0  0  0  0
   65.8925   -5.6188   -7.2383 H   0  0  0  0  0  0  0  0  0  0  0  0
   67.9506   -6.2407   -8.8006 C   0  0  0  0  0  0  0  0  0  0  0  0
   68.7227   -5.6434   -7.6726 C   0  0  0  0  0  0  0  0  0  0  0  0
   68.8912   -6.4260   -9.9639 C   0  0  0  0  0  0  0  0  0  0  0  0
   64.9963   -9.2312  -11.2832 C   0  0  0  0  0  0  0  0  0  0  0  0
   65.6009   -9.0694  -12.6560 C   0  0  0  0  0  0  0  0  0  0  0  0
   67.0207   -8.6794  -12.5953 C   0  0  0  0  0  0  0  0  0  0  0  0
   67.9742   -9.4451  -11.8738 N   0  0  0  0  0  0  0  0  0  0  0  0
   67.4009   -7.6616  -13.1845 O   0  0  0  0  0  0  0  0  0  0  0  0
   68.9149   -9.0570  -11.7180 H   0  0  0  0  0  0  0  0  0  0  0  0
   67.7009  -10.3814  -11.5179 H   0  0  0  0  0  0  0  0  0  0  0  0
   61.4465   -8.2439   -6.9448 C   0  0  0  0  0  0  0  0  0  0  0  0
   62.7851   -8.5237   -6.3479 C   0  0  0  0  0  0  0  0  0  0  0  0
   63.3460   -7.2878   -5.7446 C   0  0  0  0  0  0  0  0  0  0  0  0
   63.1659   -7.0130   -4.3396 N   0  0  0  0  0  0  0  0  0  0  0  0
   63.9932   -6.4216   -6.3817 O   0  0  0  0  0  0  0  0  0  0  0  0
   63.2379   -7.8356   -3.7015 H   0  0  0  0  0  0  0  0  0  0  0  0
   62.9755   -6.0713   -3.9797 H   0  0  0  0  0  0  0  0  0  0  0  0
   58.3992   -5.2159  -10.8748 C   0  0  0  0  0  0  0  0  0  0  0  0
   58.8277   -3.7566  -12.8326 C   0  0  0  0  0  0  0  0  0  0  0  0
   57.9372   -4.0392  -11.5997 C   0  0  0  0  0  0  0  0  0  0  0  0
   56.5439   -4.1858  -12.1875 C   0  0  0  0  0  0  0  0  0  0  0  0
   53.9040   -4.7134   -8.1818 C   0  0  0  0  0  0  0  0  0  0  0  0
   53.0617   -5.8240   -7.5725 C   0  0  0  0  0  0  0  0  0  0  0  0
   53.1402   -3.4730   -8.0674 C   0  0  0  0  0  0  0  0  0  0  0  0
   52.7125   -2.7613   -9.3186 C   0  0  0  0  0  0  0  0  0  0  0  0
 88 89  1  0  0  0
 89 90  1  0  0  0
 89 87  1  0  0  0
 87 49  1  0  0  0
 49 50  1  0  0  0
 50 51  1  0  0  0
 51 52  2  0  0  0
 51 54  1  0  0  0
 54 80  1  0  0  0
 80 81  1  0  0  0
 81 82  1  0  0  0
 82 83  1  0  0  0
 82 84  2  0  0  0
 54 55  1  0  0  0
 55 56  1  0  0  0
 56 57  2  0  0  0
 56 59  1  0  0  0
 59 73  1  0  0  0
 73 74  1  0  0  0
 74 75  1  0  0  0
 75 76  1  0  0  0
 75 77  2  0  0  0
 59 60  1  0  0  0
 60 61  1  0  0  0
 61 62  2  0  0  0
 61 64  1  0  0  0
 64 65  1  0  0  0
 65 66  1  0  0  0
 66 67  1  0  0  0
 66 68  2  0  0  0
 64 70  1  0  0  0
 70 71  1  0  0  0
 70 72  1  0  0  0
 49 45  1  0  0  0
 45 46  2  0  0  0
 45 47  1  0  0  0
 47  1  1  0  0  0
  1 91  1  0  0  0
 91 92  1  0  0  0
 91 93  1  0  0  0
 93 94  1  0  0  0
  1  2  1  0  0  0
  2  3  2  0  0  0
  2  4  1  0  0  0
  4  6  1  0  0  0
  6 34  1  0  0  0
 34 35  1  0  0  0
 35 36  1  0  0  0
 36 37  1  0  0  0
 37 39  1  0  0  0
 39 40  1  0  0  0
 39 41  2  0  0  0
  6  7  1  0  0  0
  7  8  2  0  0  0
  7  9  1  0  0  0
  9 11  1  0  0  0
 11 23  1  0  0  0
 23 24  1  0  0  0
 24 25  1  0  0  0
 25 26  1  0  0  0
 26 27  2  0  0  0
 27 28  1  0  0  0
 27 29  1  0  0  0
 11 12  1  0  0  0
 12 13  2  0  0  0
 12 14  1  0  0  0
 14 16  1  0  0  0
 16 17  1  0  0  0
 17 18  2  0  0  0
 18 19  1  0  0  0
 19 20  2  0  0  0
 20 21  1  0  0  0
 21 22  2  0  0  0
 22 17  1  0  0  0
 50 53  1  0  0  0
 83 85  1  0  0  0
 83 86  1  0  0  0
 55 58  1  0  0  0
 76 78  1  0  0  0
 76 79  1  0  0  0
 60 63  1  0  0  0
 65 69  1  0  0  0
 47 48  1  0  0  0
  4  5  1  0  0  0
 37 38  1  0  0  0
 40 42  1  0  0  0
 40 43  1  0  0  0
 41 44  1  0  0  0
  9 10  1  0  0  0
 28 30  1  0  0  0
 28 31  1  0  0  0
 29 32  1  0  0  0
 29 33  1  0  0  0
 14 15  1  0  0  0
M  END
> <minimizedAffinity>
-7.01696

> <CNNscore>
0.1052289903

> <CNNaffinity>
7.2773971558

> <CNN_VS>
0.7657931447

> <CNNaffinity_variance>
0.5562450290

$$$$
[H]N=C(N([H])[H])N([H])C([H])([H])C([H])([H])C([H])([H])[C@@]([H])(C(=O)N([H])[C@]([H])(C(=O)N([H])C([H])([H])c1c([H])c([H])c([H])c([H])c1[H])C([H])([H])C([H])([H])C([H])([H])N=C(N([H])[H])N([H])[H])N([H])C(=O)[C@@]([H])(N([H])C(=O)[C@@]([H])(N([H])C(=O)[C@@]([H])(N([H])C(=O)[C@@]([H])(N([H])C(=O)[C@@]([H])(N([H])C(=O)C([H])([H])[H])C([H])(C([H])([H])[H])C([H])([H])[H])C([H])([H])C([H])([H])C(=O)N([H])[H])C([H])([H])C([H])([H])C(=O)N([H])[H])C([H])([H])C([H])(C([H])([H])[H])C([H])([H])[H])[C@@]([H])(C([H])([H])[H])C([H])([H])C([H])([H])[H]


 94 94  0  0  0  0  0  0  0  0999 V2000
   55.1659   -4.8312   -6.9531 C   0  0  0  0  0  0  0  0  0  0  0  0
   55.5593   -5.6010   -5.7580 C   0  0  0  0  0  0  0  0  0  0  0  0
   56.0319   -6.7540   -5.9096 O   0  0  0  0  0  0  0  0  0  0  0  0
   55.4189   -5.0979   -4.4627 N   0  0  0  0  0  0  0  0  0  0  0  0
   55.0695   -4.1400   -4.2868 H   0  0  0  0  0  0  0  0  0  0  0  0
   55.7631   -5.8972   -3.2817 C   0  0  0  0  0  0  0  0  0  0  0  0
   54.5976   -5.8840   -2.3848 C   0  0  0  0  0  0  0  0  0  0  0  0
   54.7297   -5.4401   -1.1863 O   0  0  0  0  0  0  0  0  0  0  0  0
   53.2774   -6.3267   -2.7259 N   0  0  0  0  0  0  0  0  0  0  0  0
   53.0555   -6.6940   -3.6589 H   0  0  0  0  0  0  0  0  0  0  0  0
   52.2152   -6.2523   -1.7283 C   0  0  0  0  0  0  0  0  0  0  0  0
   51.9371   -7.4910   -1.0139 C   0  0  0  0  0  0  0  0  0  0  0  0
   52.6984   -7.8989   -0.0947 O   0  0  0  0  0  0  0  0  0  0  0  0
   50.7946   -8.2969   -1.3153 N   0  0  0  0  0  0  0  0  0  0  0  0
   50.1690   -7.9054   -2.0871 H   0  0  0  0  0  0  0  0  0  0  0  0
   50.4823   -9.5278   -0.6614 C   0  0  0  0  0  0  0  0  0  0  0  0
   49.2180   -9.4610    0.1508 C   0  0  0  0  0  0  0  0  0  0  0  0
   49.0696   -8.5539    1.1753 C   0  0  0  0  0  0  0  0  0  0  0  0
   47.9075   -8.5475    1.9118 C   0  0  0  0  0  0  0  0  0  0  0  0
   46.8699   -9.4221    1.6663 C   0  0  0  0  0  0  0  0  0  0  0  0
   47.0583  -10.3248    0.6204 C   0  0  0  0  0  0  0  0  0  0  0  0
   48.2142  -10.3368   -0.1189 C   0  0  0  0  0  0  0  0  0  0  0  0
   50.9305   -5.7698   -2.4521 C   0  0  0  0  0  0  0  0  0  0  0  0
   51.2304   -5.4531   -3.9032 C   0  0  0  0  0  0  0  0  0  0  0  0
   50.0241   -4.6739   -4.4198 C   0  0  0  0  0  0  0  0  0  0  0  0
   50.3463   -4.0070   -5.6840 N   0  0  0  0  0  0  0  0  0  0  0  0
   49.6627   -2.9630   -6.0165 C   0  0  0  0  0  0  0  0  0  0  0  0
   48.6134   -2.4795   -5.1550 N   0  0  0  0  0  0  0  0  0  0  0  0
   49.9643   -2.3155   -7.2420 N   0  0  0  0  0  0  0  0  0  0  0  0
   48.8268   -1.9271   -4.2772 H   0  0  0  0  0  0  0  0  0  0  0  0
   47.6200   -2.6709   -5.3912 H   0  0  0  0  0  0  0  0  0  0  0  0
   49.8090   -2.7794   -8.1506 H   0  0  0  0  0  0  0  0  0  0  0  0
   50.3490   -1.3446   -7.1704 H   0  0  0  0  0  0  0  0  0  0  0  0
   57.0328   -5.4759   -2.6219 C   0  0  0  0  0  0  0  0  0  0  0  0
   57.9078   -6.5965   -2.1428 C   0  0  0  0  0  0  0  0  0  0  0  0
   57.8989   -7.7577   -3.1398 C   0  0  0  0  0  0  0  0  0  0  0  0
   58.7365   -7.4696   -4.2598 N   0  0  0  0  0  0  0  0  0  0  0  0
   58.3501   -6.9375   -5.0662 H   0  0  0  0  0  0  0  0  0  0  0  0
   60.0747   -7.8912   -4.3051 C   0  0  0  0  0  0  0  0  0  0  0  0
   60.7691   -8.1582   -3.1033 N   0  0  0  0  0  0  0  0  0  0  0  0
   60.7168   -8.0462   -5.4200 N   0  0  0  0  0  0  0  0  0  0  0  0
   61.3968   -7.4998   -2.6042 H   0  0  0  0  0  0  0  0  0  0  0  0
   60.6568   -9.1087   -2.6405 H   0  0  0  0  0  0  0  0  0  0  0  0
   60.2075   -7.8474   -6.3158 H   0  0  0  0  0  0  0  0  0  0  0  0
   57.3639   -4.8010   -8.2766 C   0  0  0  0  0  0  0  0  0  0  0  0
   57.9288   -4.2056   -7.3156 O   0  0  0  0  0  0  0  0  0  0  0  0
   56.0197   -5.0762   -8.0608 N   0  0  0  0  0  0  0  0  0  0  0  0
   55.5647   -5.5639   -8.9023 H   0  0  0  0  0  0  0  0  0  0  0  0
   58.1889   -5.0940   -9.4199 C   0  0  0  0  0  0  0  0  0  0  0  0
   59.1573   -6.1053   -8.9188 N   0  0  0  0  0  0  0  0  0  0  0  0
   60.3416   -6.3986   -9.5812 C   0  0  0  0  0  0  0  0  0  0  0  0
   60.5698   -5.7508  -10.6588 O   0  0  0  0  0  0  0  0  0  0  0  0
   58.9511   -6.6261   -8.0254 H   0  0  0  0  0  0  0  0  0  0  0  0
   61.3871   -7.3851   -9.1957 C   0  0  0  0  0  0  0  0  0  0  0  0
   62.0945   -6.8926   -8.0104 N   0  0  0  0  0  0  0  0  0  0  0  0
   63.2952   -6.1816   -8.0970 C   0  0  0  0  0  0  0  0  0  0  0  0
   63.7741   -5.9673   -9.2421 O   0  0  0  0  0  0  0  0  0  0  0  0
   61.6828   -7.0860   -7.0794 H   0  0  0  0  0  0  0  0  0  0  0  0
   64.0031   -5.6802   -6.9213 C   0  0  0  0  0  0  0  0  0  0  0  0
   64.6047   -6.7650   -6.1621 N   0  0  0  0  0  0  0  0  0  0  0  0
   64.1740   -7.1285   -4.8785 C   0  0  0  0  0  0  0  0  0  0  0  0
   63.2194   -6.4707   -4.3624 O   0  0  0  0  0  0  0  0  0  0  0  0
   65.3858   -7.2680   -6.6115 H   0  0  0  0  0  0  0  0  0  0  0  0
   64.7539   -8.2234   -4.0770 C   0  0  0  0  0  0  0  0  0  0  0  0
   64.8061   -9.4662   -4.8414 N   0  0  0  0  0  0  0  0  0  0  0  0
   63.7778  -10.4278   -4.7727 C   0  0  0  0  0  0  0  0  0  0  0  0
   63.7568  -11.7086   -5.5132 C   0  0  0  0  0  0  0  0  0  0  0  0
   62.7872  -10.1826   -4.0170 O   0  0  0  0  0  0  0  0  0  0  0  0
   65.6229   -9.6346   -5.4565 H   0  0  0  0  0  0  0  0  0  0  0  0
   66.1646   -7.9089   -3.5692 C   0  0  0  0  0  0  0  0  0  0  0  0
   66.5302   -8.8200   -2.4460 C   0  0  0  0  0  0  0  0  0  0  0  0
   66.2529   -6.4902   -3.0674 C   0  0  0  0  0  0  0  0  0  0  0  0
   65.1496   -4.7296   -7.2713 C   0  0  0  0  0  0  0  0  0  0  0  0
   64.6889   -3.3303   -6.9462 C   0  0  0  0  0  0  0  0  0  0  0  0
   65.7978   -2.3601   -6.9724 C   0  0  0  0  0  0  0  0  0  0  0  0
   66.5967   -2.1094   -5.8256 N   0  0  0  0  0  0  0  0  0  0  0  0
   66.0468   -1.7441   -8.0146 O   0  0  0  0  0  0  0  0  0  0  0  0
   67.2496   -1.3136   -5.8334 H   0  0  0  0  0  0  0  0  0  0  0  0
   66.5040   -2.7354   -5.0024 H   0  0  0  0  0  0  0  0  0  0  0  0
   60.8905   -8.7683   -9.0641 C   0  0  0  0  0  0  0  0  0  0  0  0
   61.8615   -9.7452   -8.4903 C   0  0  0  0  0  0  0  0  0  0  0  0
   61.1372  -10.8391   -7.7938 C   0  0  0  0  0  0  0  0  0  0  0  0
   60.9484  -12.1167   -8.4371 N   0  0  0  0  0  0  0  0  0  0  0  0
   60.6528  -10.7429   -6.6400 O   0  0  0  0  0  0  0  0  0  0  0  0
   61.7548  -12.4676   -8.9988 H   0  0  0  0  0  0  0  0  0  0  0  0
   60.0781  -12.6539   -8.3563 H   0  0  0  0  0  0  0  0  0  0  0  0
   57.6389   -5.5502  -10.6911 C   0  0  0  0  0  0  0  0  0  0  0  0
   55.9343   -3.9340  -11.4841 C   0  0  0  0  0  0  0  0  0  0  0  0
   57.2396   -4.6997  -11.8051 C   0  0  0  0  0  0  0  0  0  0  0  0
   58.2346   -3.5972  -12.1255 C   0  0  0  0  0  0  0  0  0  0  0  0
   53.6920   -4.9731   -7.2472 C   0  0  0  0  0  0  0  0  0  0  0  0
   53.3183   -4.0182   -8.3709 C   0  0  0  0  0  0  0  0  0  0  0  0
   53.1571   -6.2876   -7.5950 C   0  0  0  0  0  0  0  0  0  0  0  0
   51.6895   -6.5494   -7.4144 C   0  0  0  0  0  0  0  0  0  0  0  0
 88 89  1  0  0  0
 89 90  1  0  0  0
 89 87  1  0  0  0
 87 49  1  0  0  0
 49 50  1  0  0  0
 50 51  1  0  0  0
 51 52  2  0  0  0
 51 54  1  0  0  0
 54 80  1  0  0  0
 80 81  1  0  0  0
 81 82  1  0  0  0
 82 83  1  0  0  0
 82 84  2  0  0  0
 54 55  1  0  0  0
 55 56  1  0  0  0
 56 57  2  0  0  0
 56 59  1  0  0  0
 59 73  1  0  0  0
 73 74  1  0  0  0
 74 75  1  0  0  0
 75 76  1  0  0  0
 75 77  2  0  0  0
 59 60  1  0  0  0
 60 61  1  0  0  0
 61 62  2  0  0  0
 61 64  1  0  0  0
 64 65  1  0  0  0
 65 66  1  0  0  0
 66 67  1  0  0  0
 66 68  2  0  0  0
 64 70  1  0  0  0
 70 71  1  0  0  0
 70 72  1  0  0  0
 49 45  1  0  0  0
 45 46  2  0  0  0
 45 47  1  0  0  0
 47  1  1  0  0  0
  1 91  1  0  0  0
 91 92  1  0  0  0
 91 93  1  0  0  0
 93 94  1  0  0  0
  1  2  1  0  0  0
  2  3  2  0  0  0
  2  4  1  0  0  0
  4  6  1  0  0  0
  6 34  1  0  0  0
 34 35  1  0  0  0
 35 36  1  0  0  0
 36 37  1  0  0  0
 37 39  1  0  0  0
 39 40  1  0  0  0
 39 41  2  0  0  0
  6  7  1  0  0  0
  7  8  2  0  0  0
  7  9  1  0  0  0
  9 11  1  0  0  0
 11 23  1  0  0  0
 23 24  1  0  0  0
 24 25  1  0  0  0
 25 26  1  0  0  0
 26 27  2  0  0  0
 27 28  1  0  0  0
 27 29  1  0  0  0
 11 12  1  0  0  0
 12 13  2  0  0  0
 12 14  1  0  0  0
 14 16  1  0  0  0
 16 17  1  0  0  0
 17 18  2  0  0  0
 18 19  1  0  0  0
 19 20  2  0  0  0
 20 21  1  0  0  0
 21 22  2  0  0  0
 22 17  1  0  0  0
 50 53  1  0  0  0
 83 85  1  0  0  0
 83 86  1  0  0  0
 55 58  1  0  0  0
 76 78  1  0  0  0
 76 79  1  0  0  0
 60 63  1  0  0  0
 65 69  1  0  0  0
 47 48  1  0  0  0
  4  5  1  0  0  0
 37 38  1  0  0  0
 40 42  1  0  0  0
 40 43  1  0  0  0
 41 44  1  0  0  0
  9 10  1  0  0  0
 28 30  1  0  0  0
 28 31  1  0  0  0
 29 32  1  0  0  0
 29 33  1  0  0  0
 14 15  1  0  0  0
M  END
> <minimizedAffinity>
-7.43091

> <CNNscore>
0.0811504275

> <CNNaffinity>
7.3042793274

> <CNN_VS>
0.5927453637

> <CNNaffinity_variance>
1.0193006992

$$$$
[H]N=C(N([H])[H])N([H])C([H])([H])C([H])([H])C([H])([H])[C@@]([H])(C(=O)N([H])[C@]([H])(C(=O)N([H])C([H])([H])c1c([H])c([H])c([H])c([H])c1[H])C([H])([H])C([H])([H])C([H])([H])N=C(N([H])[H])N([H])[H])N([H])C(=O)[C@@]([H])(N([H])C(=O)[C@@]([H])(N([H])C(=O)[C@@]([H])(N([H])C(=O)[C@@]([H])(N([H])C(=O)[C@@]([H])(N([H])C(=O)C([H])([H])[H])C([H])(C([H])([H])[H])C([H])([H])[H])C([H])([H])C([H])([H])C(=O)N([H])[H])C([H])([H])C([H])([H])C(=O)N([H])[H])C([H])([H])C([H])(C([H])([H])[H])C([H])([H])[H])[C@@]([H])(C([H])([H])[H])C([H])([H])C([H])([H])[H]


 94 94  0  0  0  0  0  0  0  0999 V2000
   55.3994   -4.4723   -7.2163 C   0  0  0  0  0  0  0  0  0  0  0  0
   55.7047   -5.2339   -5.9905 C   0  0  0  0  0  0  0  0  0  0  0  0
   55.7144   -4.6302   -4.8899 O   0  0  0  0  0  0  0  0  0  0  0  0
   55.9909   -6.6008   -6.0091 N   0  0  0  0  0  0  0  0  0  0  0  0
   55.9593   -7.1506   -6.8850 H   0  0  0  0  0  0  0  0  0  0  0  0
   56.3470   -7.3324   -4.7884 C   0  0  0  0  0  0  0  0  0  0  0  0
   55.1059   -7.5620   -4.0335 C   0  0  0  0  0  0  0  0  0  0  0  0
   54.5364   -8.7123   -4.0918 O   0  0  0  0  0  0  0  0  0  0  0  0
   54.4447   -6.5990   -3.2024 N   0  0  0  0  0  0  0  0  0  0  0  0
   54.8153   -5.6494   -3.0769 H   0  0  0  0  0  0  0  0  0  0  0  0
   53.2156   -6.9715   -2.5103 C   0  0  0  0  0  0  0  0  0  0  0  0
   52.1987   -5.9313   -2.4327 C   0  0  0  0  0  0  0  0  0  0  0  0
   52.3937   -4.8766   -1.7690 O   0  0  0  0  0  0  0  0  0  0  0  0
   50.9409   -6.0528   -3.1026 N   0  0  0  0  0  0  0  0  0  0  0  0
   50.8256   -6.9526   -3.6660 H   0  0  0  0  0  0  0  0  0  0  0  0
   49.9012   -5.0750   -3.0470 C   0  0  0  0  0  0  0  0  0  0  0  0
   49.7844   -4.2646   -4.3089 C   0  0  0  0  0  0  0  0  0  0  0  0
   48.9306   -3.1884   -4.3948 C   0  0  0  0  0  0  0  0  0  0  0  0
   48.8335   -2.4934   -5.5783 C   0  0  0  0  0  0  0  0  0  0  0  0
   49.5633   -2.8317   -6.6983 C   0  0  0  0  0  0  0  0  0  0  0  0
   50.4168   -3.9269   -6.5709 C   0  0  0  0  0  0  0  0  0  0  0  0
   50.5195   -4.6246   -5.3939 C   0  0  0  0  0  0  0  0  0  0  0  0
   53.6068   -7.4240   -1.0787 C   0  0  0  0  0  0  0  0  0  0  0  0
   52.3784   -7.8731   -0.3137 C   0  0  0  0  0  0  0  0  0  0  0  0
   51.8504   -9.1000   -1.0523 C   0  0  0  0  0  0  0  0  0  0  0  0
   50.3899   -9.1672   -0.9582 N   0  0  0  0  0  0  0  0  0  0  0  0
   49.8695   -9.9120   -0.0404 C   0  0  0  0  0  0  0  0  0  0  0  0
   50.7179  -10.6514    0.8599 N   0  0  0  0  0  0  0  0  0  0  0  0
   48.4562   -9.9874    0.0529 N   0  0  0  0  0  0  0  0  0  0  0  0
   51.2089  -10.1809    1.6715 H   0  0  0  0  0  0  0  0  0  0  0  0
   50.8578  -11.6712    0.7195 H   0  0  0  0  0  0  0  0  0  0  0  0
   47.8871  -10.4111   -0.6963 H   0  0  0  0  0  0  0  0  0  0  0  0
   48.0277   -9.5925    0.9226 H   0  0  0  0  0  0  0  0  0  0  0  0
   57.4231   -6.6777   -3.9894 C   0  0  0  0  0  0  0  0  0  0  0  0
   58.5979   -7.5511   -3.6608 C   0  0  0  0  0  0  0  0  0  0  0  0
   59.4383   -6.9334   -2.5407 C   0  0  0  0  0  0  0  0  0  0  0  0
   58.6016   -6.3185   -1.5605 N   0  0  0  0  0  0  0  0  0  0  0  0
   57.8198   -6.8613   -1.1397 H   0  0  0  0  0  0  0  0  0  0  0  0
   58.8032   -4.9915   -1.1494 C   0  0  0  0  0  0  0  0  0  0  0  0
   58.0750   -3.9468   -1.7626 N   0  0  0  0  0  0  0  0  0  0  0  0
   59.6460   -4.6734   -0.2178 N   0  0  0  0  0  0  0  0  0  0  0  0
   58.4083   -3.3490   -2.5424 H   0  0  0  0  0  0  0  0  0  0  0  0
   57.0920   -3.7305   -1.4202 H   0  0  0  0  0  0  0  0  0  0  0  0
   60.1915   -5.4443    0.2399 H   0  0  0  0  0  0  0  0  0  0  0  0
   57.5849   -4.7633   -8.5287 C   0  0  0  0  0  0  0  0  0  0  0  0
   58.2200   -4.2157   -7.5832 O   0  0  0  0  0  0  0  0  0  0  0  0
   56.2164   -4.8580   -8.3117 N   0  0  0  0  0  0  0  0  0  0  0  0
   55.7039   -5.3093   -9.1404 H   0  0  0  0  0  0  0  0  0  0  0  0
   58.3673   -5.1941   -9.6583 C   0  0  0  0  0  0  0  0  0  0  0  0
   59.1643   -6.3348   -9.1338 N   0  0  0  0  0  0  0  0  0  0  0  0
   60.4376   -6.6337   -9.5994 C   0  0  0  0  0  0  0  0  0  0  0  0
   60.9054   -5.8732  -10.5135 O   0  0  0  0  0  0  0  0  0  0  0  0
   58.7606   -6.9479   -8.3768 H   0  0  0  0  0  0  0  0  0  0  0  0
   61.3339   -7.7412   -9.1695 C   0  0  0  0  0  0  0  0  0  0  0  0
   61.1042   -8.0172   -7.7485 N   0  0  0  0  0  0  0  0  0  0  0  0
   62.1413   -8.3583   -6.8751 C   0  0  0  0  0  0  0  0  0  0  0  0
   63.3087   -8.4292   -7.3426 O   0  0  0  0  0  0  0  0  0  0  0  0
   60.1342   -7.9573   -7.3891 H   0  0  0  0  0  0  0  0  0  0  0  0
   61.9225   -8.6275   -5.4558 C   0  0  0  0  0  0  0  0  0  0  0  0
   62.2566  -10.0023   -5.1193 N   0  0  0  0  0  0  0  0  0  0  0  0
   61.6050  -11.1066   -5.6861 C   0  0  0  0  0  0  0  0  0  0  0  0
   60.6789  -10.8852   -6.5250 O   0  0  0  0  0  0  0  0  0  0  0  0
   63.0071  -10.1403   -4.4245 H   0  0  0  0  0  0  0  0  0  0  0  0
   61.9156  -12.5153   -5.3753 C   0  0  0  0  0  0  0  0  0  0  0  0
   63.2888  -12.6605   -4.9012 N   0  0  0  0  0  0  0  0  0  0  0  0
   64.2190  -13.4942   -5.5542 C   0  0  0  0  0  0  0  0  0  0  0  0
   65.6243  -13.6951   -5.1371 C   0  0  0  0  0  0  0  0  0  0  0  0
   63.8271  -14.1267   -6.5832 O   0  0  0  0  0  0  0  0  0  0  0  0
   63.5822  -12.1249   -4.0640 H   0  0  0  0  0  0  0  0  0  0  0  0
   60.9759  -13.1159   -4.3251 C   0  0  0  0  0  0  0  0  0  0  0  0
   61.5574  -12.9690   -2.9593 C   0  0  0  0  0  0  0  0  0  0  0  0
   60.7499  -14.5842   -4.5809 C   0  0  0  0  0  0  0  0  0  0  0  0
   62.7811   -7.7530   -4.5400 C   0  0  0  0  0  0  0  0  0  0  0  0
   63.0757   -8.5565   -3.2975 C   0  0  0  0  0  0  0  0  0  0  0  0
   63.5679   -7.7129   -2.1941 C   0  0  0  0  0  0  0  0  0  0  0  0
   64.9304   -7.3239   -2.1033 N   0  0  0  0  0  0  0  0  0  0  0  0
   62.7822   -7.3289   -1.3206 O   0  0  0  0  0  0  0  0  0  0  0  0
   65.2679   -6.8768   -1.2396 H   0  0  0  0  0  0  0  0  0  0  0  0
   65.5579   -7.5000   -2.9115 H   0  0  0  0  0  0  0  0  0  0  0  0
   61.2672   -8.9382  -10.0296 C   0  0  0  0  0  0  0  0  0  0  0  0
   62.5475   -9.3221  -10.6929 C   0  0  0  0  0  0  0  0  0  0  0  0
   62.9258  -10.7076  -10.3140 C   0  0  0  0  0  0  0  0  0  0  0  0
   62.7083  -11.1833   -8.9693 N   0  0  0  0  0  0  0  0  0  0  0  0
   63.4427  -11.5386  -11.0998 O   0  0  0  0  0  0  0  0  0  0  0  0
   61.8214  -10.8744   -8.5146 H   0  0  0  0  0  0  0  0  0  0  0  0
   63.3791  -11.7861   -8.4801 H   0  0  0  0  0  0  0  0  0  0  0  0
   57.7672   -5.5776  -10.9309 C   0  0  0  0  0  0  0  0  0  0  0  0
   56.4558   -3.6653  -11.8084 C   0  0  0  0  0  0  0  0  0  0  0  0
   57.5687   -4.7046  -12.0808 C   0  0  0  0  0  0  0  0  0  0  0  0
   58.7797   -3.8541  -12.4245 C   0  0  0  0  0  0  0  0  0  0  0  0
   53.9182   -4.4551   -7.5073 C   0  0  0  0  0  0  0  0  0  0  0  0
   53.6139   -3.3028   -8.4527 C   0  0  0  0  0  0  0  0  0  0  0  0
   53.2854   -5.6512   -8.0585 C   0  0  0  0  0  0  0  0  0  0  0  0
   52.7170   -6.6751   -7.1185 C   0  0  0  0  0  0  0  0  0  0  0  0
 88 89  1  0  0  0
 89 90  1  0  0  0
 89 87  1  0  0  0
 87 49  1  0  0  0
 49 50  1  0  0  0
 50 51  1  0  0  0
 51 52  2  0  0  0
 51 54  1  0  0  0
 54 80  1  0  0  0
 80 81  1  0  0  0
 81 82  1  0  0  0
 82 83  1  0  0  0
 82 84  2  0  0  0
 54 55  1  0  0  0
 55 56  1  0  0  0
 56 57  2  0  0  0
 56 59  1  0  0  0
 59 73  1  0  0  0
 73 74  1  0  0  0
 74 75  1  0  0  0
 75 76  1  0  0  0
 75 77  2  0  0  0
 59 60  1  0  0  0
 60 61  1  0  0  0
 61 62  2  0  0  0
 61 64  1  0  0  0
 64 65  1  0  0  0
 65 66  1  0  0  0
 66 67  1  0  0  0
 66 68  2  0  0  0
 64 70  1  0  0  0
 70 71  1  0  0  0
 70 72  1  0  0  0
 49 45  1  0  0  0
 45 46  2  0  0  0
 45 47  1  0  0  0
 47  1  1  0  0  0
  1 91  1  0  0  0
 91 92  1  0  0  0
 91 93  1  0  0  0
 93 94  1  0  0  0
  1  2  1  0  0  0
  2  3  2  0  0  0
  2  4  1  0  0  0
  4  6  1  0  0  0
  6 34  1  0  0  0
 34 35  1  0  0  0
 35 36  1  0  0  0
 36 37  1  0  0  0
 37 39  1  0  0  0
 39 40  1  0  0  0
 39 41  2  0  0  0
  6  7  1  0  0  0
  7  8  2  0  0  0
  7  9  1  0  0  0
  9 11  1  0  0  0
 11 23  1  0  0  0
 23 24  1  0  0  0
 24 25  1  0  0  0
 25 26  1  0  0  0
 26 27  2  0  0  0
 27 28  1  0  0  0
 27 29  1  0  0  0
 11 12  1  0  0  0
 12 13  2  0  0  0
 12 14  1  0  0  0
 14 16  1  0  0  0
 16 17  1  0  0  0
 17 18  2  0  0  0
 18 19  1  0  0  0
 19 20  2  0  0  0
 20 21  1  0  0  0
 21 22  2  0  0  0
 22 17  1  0  0  0
 50 53  1  0  0  0
 83 85  1  0  0  0
 83 86  1  0  0  0
 55 58  1  0  0  0
 76 78  1  0  0  0
 76 79  1  0  0  0
 60 63  1  0  0  0
 65 69  1  0  0  0
 47 48  1  0  0  0
  4  5  1  0  0  0
 37 38  1  0  0  0
 40 42  1  0  0  0
 40 43  1  0  0  0
 41 44  1  0  0  0
  9 10  1  0  0  0
 28 30  1  0  0  0
 28 31  1  0  0  0
 29 32  1  0  0  0
 29 33  1  0  0  0
 14 15  1  0  0  0
M  END
> <minimizedAffinity>
-7.16405

> <CNNscore>
0.0760374963

> <CNNaffinity>
7.4296808243

> <CNN_VS>
0.5649343133

> <CNNaffinity_variance>
0.9135985374

$$$$
[H]N=C(N([H])[H])N([H])C([H])([H])C([H])([H])C([H])([H])[C@@]([H])(C(=O)N([H])[C@]([H])(C(=O)N([H])C([H])([H])c1c([H])c([H])c([H])c([H])c1[H])C([H])([H])C([H])([H])C([H])([H])N=C(N([H])[H])N([H])[H])N([H])C(=O)[C@@]([H])(N([H])C(=O)[C@@]([H])(N([H])C(=O)[C@@]([H])(N([H])C(=O)[C@@]([H])(N([H])C(=O)[C@@]([H])(N([H])C(=O)C([H])([H])[H])C([H])(C([H])([H])[H])C([H])([H])[H])C([H])([H])C([H])([H])C(=O)N([H])[H])C([H])([H])C([H])([H])C(=O)N([H])[H])C([H])([H])C([H])(C([H])([H])[H])C([H])([H])[H])[C@@]([H])(C([H])([H])[H])C([H])([H])C([H])([H])[H]


 94 94  0  0  0  0  0  0  0  0999 V2000
   53.7143   -4.6679   -7.6442 C   0  0  0  0  0  0  0  0  0  0  0  0
   55.1332   -4.3539   -7.8968 C   0  0  0  0  0  0  0  0  0  0  0  0
   55.6702   -3.4201   -7.2521 O   0  0  0  0  0  0  0  0  0  0  0  0
   55.9003   -5.0520   -8.8320 N   0  0  0  0  0  0  0  0  0  0  0  0
   55.5150   -5.8530   -9.3616 H   0  0  0  0  0  0  0  0  0  0  0  0
   57.2947   -4.6915   -9.1115 C   0  0  0  0  0  0  0  0  0  0  0  0
   57.5159   -4.8695  -10.5545 C   0  0  0  0  0  0  0  0  0  0  0  0
   57.7885   -6.0394  -11.0107 O   0  0  0  0  0  0  0  0  0  0  0  0
   57.4496   -3.8331  -11.5428 N   0  0  0  0  0  0  0  0  0  0  0  0
   57.2321   -2.8613  -11.2919 H   0  0  0  0  0  0  0  0  0  0  0  0
   57.6920   -4.1605  -12.9438 C   0  0  0  0  0  0  0  0  0  0  0  0
   59.0333   -3.8713  -13.4332 C   0  0  0  0  0  0  0  0  0  0  0  0
   60.0535   -4.3279  -12.8489 O   0  0  0  0  0  0  0  0  0  0  0  0
   59.2567   -3.0645  -14.5929 N   0  0  0  0  0  0  0  0  0  0  0  0
   58.3656   -2.7139  -15.0656 H   0  0  0  0  0  0  0  0  0  0  0  0
   60.5476   -2.7333  -15.1068 C   0  0  0  0  0  0  0  0  0  0  0  0
   60.7477   -3.1753  -16.5307 C   0  0  0  0  0  0  0  0  0  0  0  0
   60.1478   -2.5148  -17.5787 C   0  0  0  0  0  0  0  0  0  0  0  0
   60.3341   -2.9715  -18.8632 C   0  0  0  0  0  0  0  0  0  0  0  0
   61.1058   -4.0774  -19.1517 C   0  0  0  0  0  0  0  0  0  0  0  0
   61.6967   -4.7182  -18.0634 C   0  0  0  0  0  0  0  0  0  0  0  0
   61.5159   -4.2684  -16.7798 C   0  0  0  0  0  0  0  0  0  0  0  0
   56.6504   -3.3821  -13.7903 C   0  0  0  0  0  0  0  0  0  0  0  0
   55.9180   -4.3256  -14.7226 C   0  0  0  0  0  0  0  0  0  0  0  0
   56.3668   -3.9529  -16.1329 C   0  0  0  0  0  0  0  0  0  0  0  0
   57.3683   -4.9041  -16.6217 N   0  0  0  0  0  0  0  0  0  0  0  0
   57.4459   -5.1110  -17.8941 C   0  0  0  0  0  0  0  0  0  0  0  0
   56.5627   -4.4159  -18.7963 N   0  0  0  0  0  0  0  0  0  0  0  0
   58.4085   -6.0353  -18.3746 N   0  0  0  0  0  0  0  0  0  0  0  0
   56.7243   -3.4032  -19.0603 H   0  0  0  0  0  0  0  0  0  0  0  0
   55.7452   -4.9103  -19.2042 H   0  0  0  0  0  0  0  0  0  0  0  0
   58.3478   -7.0418  -18.1550 H   0  0  0  0  0  0  0  0  0  0  0  0
   59.1779   -5.6388  -18.9634 H   0  0  0  0  0  0  0  0  0  0  0  0
   58.2831   -5.4139   -8.2592 C   0  0  0  0  0  0  0  0  0  0  0  0
   59.7036   -5.3578   -8.7386 C   0  0  0  0  0  0  0  0  0  0  0  0
   60.2376   -6.7638   -9.0224 C   0  0  0  0  0  0  0  0  0  0  0  0
   61.0142   -7.2416   -7.9235 N   0  0  0  0  0  0  0  0  0  0  0  0
   61.1688   -6.6265   -7.0985 H   0  0  0  0  0  0  0  0  0  0  0  0
   61.5822   -8.5253   -7.9274 C   0  0  0  0  0  0  0  0  0  0  0  0
   61.0411   -9.5313   -8.7598 N   0  0  0  0  0  0  0  0  0  0  0  0
   62.5975   -8.8379   -7.1852 N   0  0  0  0  0  0  0  0  0  0  0  0
   60.3563  -10.2558   -8.4722 H   0  0  0  0  0  0  0  0  0  0  0  0
   61.3389   -9.5752   -9.7795 H   0  0  0  0  0  0  0  0  0  0  0  0
   63.0024   -8.0959   -6.5632 H   0  0  0  0  0  0  0  0  0  0  0  0
   53.9243   -6.4333   -5.7941 C   0  0  0  0  0  0  0  0  0  0  0  0
   54.6032   -7.1615   -6.5726 O   0  0  0  0  0  0  0  0  0  0  0  0
   53.5053   -5.2361   -6.3598 N   0  0  0  0  0  0  0  0  0  0  0  0
   52.9152   -4.6502   -5.6804 H   0  0  0  0  0  0  0  0  0  0  0  0
   53.6986   -6.9514   -4.4695 C   0  0  0  0  0  0  0  0  0  0  0  0
   55.0661   -7.1780   -3.9308 N   0  0  0  0  0  0  0  0  0  0  0  0
   55.9557   -6.1400   -3.6889 C   0  0  0  0  0  0  0  0  0  0  0  0
   55.5426   -4.9597   -3.9522 O   0  0  0  0  0  0  0  0  0  0  0  0
   55.3857   -8.1599   -3.7171 H   0  0  0  0  0  0  0  0  0  0  0  0
   57.3448   -6.2277   -3.1622 C   0  0  0  0  0  0  0  0  0  0  0  0
   57.2971   -6.3000   -1.6992 N   0  0  0  0  0  0  0  0  0  0  0  0
   57.4980   -5.1795   -0.8875 C   0  0  0  0  0  0  0  0  0  0  0  0
   57.7297   -4.0763   -1.4493 O   0  0  0  0  0  0  0  0  0  0  0  0
   57.1097   -7.2199   -1.2607 H   0  0  0  0  0  0  0  0  0  0  0  0
   57.4445   -5.2410    0.5713 C   0  0  0  0  0  0  0  0  0  0  0  0
   56.5809   -6.3195    1.0252 N   0  0  0  0  0  0  0  0  0  0  0  0
   55.2348   -6.1270    1.3666 C   0  0  0  0  0  0  0  0  0  0  0  0
   54.7603   -4.9534    1.2780 O   0  0  0  0  0  0  0  0  0  0  0  0
   57.0072   -7.2568    1.0950 H   0  0  0  0  0  0  0  0  0  0  0  0
   54.3247   -7.1933    1.8271 C   0  0  0  0  0  0  0  0  0  0  0  0
   53.4518   -6.7165    2.8960 N   0  0  0  0  0  0  0  0  0  0  0  0
   53.4572   -7.2997    4.1792 C   0  0  0  0  0  0  0  0  0  0  0  0
   52.6053   -6.8760    5.3123 C   0  0  0  0  0  0  0  0  0  0  0  0
   54.2539   -8.2664    4.3870 O   0  0  0  0  0  0  0  0  0  0  0  0
   52.8186   -5.9201    2.6993 H   0  0  0  0  0  0  0  0  0  0  0  0
   53.4491   -7.7571    0.7037 C   0  0  0  0  0  0  0  0  0  0  0  0
   52.8279   -9.0468    1.1233 C   0  0  0  0  0  0  0  0  0  0  0  0
   54.2645   -8.0137   -0.5380 C   0  0  0  0  0  0  0  0  0  0  0  0
   58.8094   -5.5017    1.2114 C   0  0  0  0  0  0  0  0  0  0  0  0
   59.5306   -4.1787    1.2876 C   0  0  0  0  0  0  0  0  0  0  0  0
   59.5644   -3.6426    2.6598 C   0  0  0  0  0  0  0  0  0  0  0  0
   58.4585   -2.9475    3.2164 N   0  0  0  0  0  0  0  0  0  0  0  0
   60.5768   -3.7973    3.3519 O   0  0  0  0  0  0  0  0  0  0  0  0
   58.5773   -2.4487    4.1091 H   0  0  0  0  0  0  0  0  0  0  0  0
   57.5524   -2.9572    2.7094 H   0  0  0  0  0  0  0  0  0  0  0  0
   58.1600   -7.2870   -3.7871 C   0  0  0  0  0  0  0  0  0  0  0  0
   59.2582   -7.8343   -2.9382 C   0  0  0  0  0  0  0  0  0  0  0  0
   60.5235   -7.8959   -3.7137 C   0  0  0  0  0  0  0  0  0  0  0  0
   61.7442   -8.3424   -3.0873 N   0  0  0  0  0  0  0  0  0  0  0  0
   60.6268   -7.5779   -4.9235 O   0  0  0  0  0  0  0  0  0  0  0  0
   61.6486   -9.1371   -2.4179 H   0  0  0  0  0  0  0  0  0  0  0  0
   62.6549   -7.9104   -3.2790 H   0  0  0  0  0  0  0  0  0  0  0  0
   52.9050   -6.2430   -3.4721 C   0  0  0  0  0  0  0  0  0  0  0  0
   51.0742   -6.6778   -1.8580 C   0  0  0  0  0  0  0  0  0  0  0  0
   51.4586   -6.3245   -3.3141 C   0  0  0  0  0  0  0  0  0  0  0  0
   50.7365   -5.0124   -3.5693 C   0  0  0  0  0  0  0  0  0  0  0  0
   52.8178   -3.4983   -7.9718 C   0  0  0  0  0  0  0  0  0  0  0  0
   52.9380   -3.1841   -9.4554 C   0  0  0  0  0  0  0  0  0  0  0  0
   51.3935   -3.5808   -7.6567 C   0  0  0  0  0  0  0  0  0  0  0  0
   50.6461   -2.3222   -7.3217 C   0  0  0  0  0  0  0  0  0  0  0  0
 88 89  1  0  0  0
 89 90  1  0  0  0
 89 87  1  0  0  0
 87 49  1  0  0  0
 49 50  1  0  0  0
 50 51  1  0  0  0
 51 52  2  0  0  0
 51 54  1  0  0  0
 54 80  1  0  0  0
 80 81  1  0  0  0
 81 82  1  0  0  0
 82 83  1  0  0  0
 82 84  2  0  0  0
 54 55  1  0  0  0
 55 56  1  0  0  0
 56 57  2  0  0  0
 56 59  1  0  0  0
 59 73  1  0  0  0
 73 74  1  0  0  0
 74 75  1  0  0  0
 75 76  1  0  0  0
 75 77  2  0  0  0
 59 60  1  0  0  0
 60 61  1  0  0  0
 61 62  2  0  0  0
 61 64  1  0  0  0
 64 65  1  0  0  0
 65 66  1  0  0  0
 66 67  1  0  0  0
 66 68  2  0  0  0
 64 70  1  0  0  0
 70 71  1  0  0  0
 70 72  1  0  0  0
 49 45  1  0  0  0
 45 46  2  0  0  0
 45 47  1  0  0  0
 47  1  1  0  0  0
  1 91  1  0  0  0
 91 92  1  0  0  0
 91 93  1  0  0  0
 93 94  1  0  0  0
  1  2  1  0  0  0
  2  3  2  0  0  0
  2  4  1  0  0  0
  4  6  1  0  0  0
  6 34  1  0  0  0
 34 35  1  0  0  0
 35 36  1  0  0  0
 36 37  1  0  0  0
 37 39  1  0  0  0
 39 40  1  0  0  0
 39 41  2  0  0  0
  6  7  1  0  0  0
  7  8  2  0  0  0
  7  9  1  0  0  0
  9 11  1  0  0  0
 11 23  1  0  0  0
 23 24  1  0  0  0
 24 25  1  0  0  0
 25 26  1  0  0  0
 26 27  2  0  0  0
 27 28  1  0  0  0
 27 29  1  0  0  0
 11 12  1  0  0  0
 12 13  2  0  0  0
 12 14  1  0  0  0
 14 16  1  0  0  0
 16 17  1  0  0  0
 17 18  2  0  0  0
 18 19  1  0  0  0
 19 20  2  0  0  0
 20 21  1  0  0  0
 21 22  2  0  0  0
 22 17  1  0  0  0
 50 53  1  0  0  0
 83 85  1  0  0  0
 83 86  1  0  0  0
 55 58  1  0  0  0
 76 78  1  0  0  0
 76 79  1  0  0  0
 60 63  1  0  0  0
 65 69  1  0  0  0
 47 48  1  0  0  0
  4  5  1  0  0  0
 37 38  1  0  0  0
 40 42  1  0  0  0
 40 43  1  0  0  0
 41 44  1  0  0  0
  9 10  1  0  0  0
 28 30  1  0  0  0
 28 31  1  0  0  0
 29 32  1  0  0  0
 29 33  1  0  0  0
 14 15  1  0  0  0
M  END
> <minimizedAffinity>
-7.05503

> <CNNscore>
0.0671253800

> <CNNaffinity>
7.0912566185

> <CNN_VS>
0.4760032892

> <CNNaffinity_variance>
1.1559294462

$$$$
[H]c1c(C(C([H])([H])[H])(C([H])([H])[H])C([H])([H])[H])noc1N([H])C(=O)[C@@]1([H])N(C(=O)c2c([H])c([H])c(F)c(F)c2[H])C([H])([H])c2c([H])c([H])c([H])c([H])c2C1([H])[H]


 33 36  0  0  0  0  0  0  0  0999 V2000
   62.7238  -11.2409  -10.1109 C   0  0  0  0  0  0  0  0  0  0  0  0
   63.0891  -12.5630  -10.8176 C   0  0  0  0  0  0  0  0  0  0  0  0
   63.4445  -12.2678  -12.1930 C   0  0  0  0  0  0  0  0  0  0  0  0
   62.8882  -12.8306  -13.2862 C   0  0  0  0  0  0  0  0  0  0  0  0
   63.3081  -12.4878  -14.5812 C   0  0  0  0  0  0  0  0  0  0  0  0
   64.3120  -11.5542  -14.6901 C   0  0  0  0  0  0  0  0  0  0  0  0
   64.8982  -10.9621  -13.5623 C   0  0  0  0  0  0  0  0  0  0  0  0
   64.4635  -11.3189  -12.3338 C   0  0  0  0  0  0  0  0  0  0  0  0
   64.9503  -10.7465  -11.0117 C   0  0  0  0  0  0  0  0  0  0  0  0
   63.6555  -10.2251  -10.3917 N   0  0  0  0  0  0  0  0  0  0  0  0
   63.6455   -8.8404  -10.2871 C   0  0  0  0  0  0  0  0  0  0  0  0
   64.7593   -8.2131  -10.6189 O   0  0  0  0  0  0  0  0  0  0  0  0
   62.5975   -7.9461   -9.8706 C   0  0  0  0  0  0  0  0  0  0  0  0
   62.3155   -7.9354   -8.4906 C   0  0  0  0  0  0  0  0  0  0  0  0
   61.3611   -7.0813   -7.9731 C   0  0  0  0  0  0  0  0  0  0  0  0
   60.6742   -6.2282   -8.8068 C   0  0  0  0  0  0  0  0  0  0  0  0
   59.7453   -5.3907   -8.2764 F   0  0  0  0  0  0  0  0  0  0  0  0
   60.9263   -6.2188  -10.1493 C   0  0  0  0  0  0  0  0  0  0  0  0
   60.2357   -5.3713  -10.9843 F   0  0  0  0  0  0  0  0  0  0  0  0
   61.8931   -7.0862  -10.6657 C   0  0  0  0  0  0  0  0  0  0  0  0
   63.6887  -11.9368   -7.8642 N   0  0  0  0  0  0  0  0  0  0  0  0
   62.6140  -11.5255   -8.6417 C   0  0  0  0  0  0  0  0  0  0  0  0
   61.4703  -11.3767   -8.0989 O   0  0  0  0  0  0  0  0  0  0  0  0
   64.6225  -12.0465   -8.3939 H   0  0  0  0  0  0  0  0  0  0  0  0
   63.9664  -11.8666   -4.2703 C   0  0  0  0  0  0  0  0  0  0  0  0
   64.1618  -11.3153   -5.5032 C   0  0  0  0  0  0  0  0  0  0  0  0
   63.6557  -12.2017   -6.4595 C   0  0  0  0  0  0  0  0  0  0  0  0
   63.2054  -13.1954   -5.7729 O   0  0  0  0  0  0  0  0  0  0  0  0
   63.3481  -13.0733   -4.5068 N   0  0  0  0  0  0  0  0  0  0  0  0
   63.3514  -11.8516   -1.9099 C   0  0  0  0  0  0  0  0  0  0  0  0
   64.3310  -11.2896   -2.9253 C   0  0  0  0  0  0  0  0  0  0  0  0
   65.7309  -11.6906   -2.6162 C   0  0  0  0  0  0  0  0  0  0  0  0
   64.1109   -9.8041   -3.0142 C   0  0  0  0  0  0  0  0  0  0  0  0
 30 31  1  0  0  0
 31 32  1  0  0  0
 31 33  1  0  0  0
 31 25  1  0  0  0
 25 26  1  0  0  0
 26 27  2  0  0  0
 27 21  1  0  0  0
 21 22  1  0  0  0
 22 23  2  0  0  0
 22  1  1  0  0  0
  1  2  1  0  0  0
  2  3  1  0  0  0
  3  4  2  0  0  0
  4  5  1  0  0  0
  5  6  2  0  0  0
  6  7  1  0  0  0
  7  8  2  0  0  0
  8  9  1  0  0  0
  9 10  1  0  0  0
 10 11  1  0  0  0
 11 12  2  0  0  0
 11 13  1  0  0  0
 13 14  2  0  0  0
 14 15  1  0  0  0
 15 16  2  0  0  0
 16 17  1  0  0  0
 16 18  1  0  0  0
 18 19  1  0  0  0
 18 20  2  0  0  0
 27 28  1  0  0  0
 28 29  1  0  0  0
 29 25  2  0  0  0
 10  1  1  0  0  0
 20 13  1  0  0  0
  8  3  1  0  0  0
 21 24  1  0  0  0
M  END
> <minimizedAffinity>
-2.87979

> <CNNscore>
0.5367841125

> <CNNaffinity>
5.5015306473

> <CNN_VS>
2.9531342983

> <CNNaffinity_variance>
0.7102599740

$$$$
[H]c1c(C(C([H])([H])[H])(C([H])([H])[H])C([H])([H])[H])noc1N([H])C(=O)[C@@]1([H])N(C(=O)c2c([H])c([H])c(F)c(F)c2[H])C([H])([H])c2c([H])c([H])c([H])c([H])c2C1([H])[H]


 33 36  0  0  0  0  0  0  0  0999 V2000
   62.8555   -7.3135  -10.5529 C   0  0  0  0  0  0  0  0  0  0  0  0
   62.2115   -6.4104   -9.4802 C   0  0  0  0  0  0  0  0  0  0  0  0
   62.1008   -7.1664   -8.2468 C   0  0  0  0  0  0  0  0  0  0  0  0
   60.9658   -7.3584   -7.5423 C   0  0  0  0  0  0  0  0  0  0  0  0
   60.9600   -8.0982   -6.3491 C   0  0  0  0  0  0  0  0  0  0  0  0
   62.1606   -8.6192   -5.9266 C   0  0  0  0  0  0  0  0  0  0  0  0
   63.3467   -8.4270   -6.6494 C   0  0  0  0  0  0  0  0  0  0  0  0
   63.3083   -7.7100   -7.7940 C   0  0  0  0  0  0  0  0  0  0  0  0
   64.4826   -7.4447   -8.7230 C   0  0  0  0  0  0  0  0  0  0  0  0
   63.9740   -8.0030  -10.0505 N   0  0  0  0  0  0  0  0  0  0  0  0
   64.6920   -9.1194  -10.4585 C   0  0  0  0  0  0  0  0  0  0  0  0
   65.7400   -9.4500   -9.7260 O   0  0  0  0  0  0  0  0  0  0  0  0
   64.4809  -10.0055  -11.5729 C   0  0  0  0  0  0  0  0  0  0  0  0
   64.4974  -11.3814  -11.2715 C   0  0  0  0  0  0  0  0  0  0  0  0
   64.2593  -12.3210  -12.2556 C   0  0  0  0  0  0  0  0  0  0  0  0
   64.0020  -11.9180  -13.5464 C   0  0  0  0  0  0  0  0  0  0  0  0
   63.7626  -12.8581  -14.4975 F   0  0  0  0  0  0  0  0  0  0  0  0
   63.9816  -10.5903  -13.8670 C   0  0  0  0  0  0  0  0  0  0  0  0
   63.7311  -10.1867  -15.1580 F   0  0  0  0  0  0  0  0  0  0  0  0
   64.2239   -9.6453  -12.8660 C   0  0  0  0  0  0  0  0  0  0  0  0
   62.2569   -6.0067  -12.6497 N   0  0  0  0  0  0  0  0  0  0  0  0
   63.1988   -6.4482  -11.7298 C   0  0  0  0  0  0  0  0  0  0  0  0
   64.4199   -6.1126  -11.8751 O   0  0  0  0  0  0  0  0  0  0  0  0
   61.2458   -6.3358  -12.4648 H   0  0  0  0  0  0  0  0  0  0  0  0
   63.4926   -3.5716  -15.0038 C   0  0  0  0  0  0  0  0  0  0  0  0
   63.5097   -4.1818  -13.7834 C   0  0  0  0  0  0  0  0  0  0  0  0
   62.5143   -5.1644  -13.7761 C   0  0  0  0  0  0  0  0  0  0  0  0
   61.9772   -5.0891  -14.9456 O   0  0  0  0  0  0  0  0  0  0  0  0
   62.4883   -4.1965  -15.7075 N   0  0  0  0  0  0  0  0  0  0  0  0
   65.7545   -3.0551  -15.7569 C   0  0  0  0  0  0  0  0  0  0  0  0
   64.3818   -2.4587  -15.4995 C   0  0  0  0  0  0  0  0  0  0  0  0
   63.7806   -1.9091  -16.7455 C   0  0  0  0  0  0  0  0  0  0  0  0
   64.5067   -1.4671  -14.3751 C   0  0  0  0  0  0  0  0  0  0  0  0
 30 31  1  0  0  0
 31 32  1  0  0  0
 31 33  1  0  0  0
 31 25  1  0  0  0
 25 26  1  0  0  0
 26 27  2  0  0  0
 27 21  1  0  0  0
 21 22  1  0  0  0
 22 23  2  0  0  0
 22  1  1  0  0  0
  1  2  1  0  0  0
  2  3  1  0  0  0
  3  4  2  0  0  0
  4  5  1  0  0  0
  5  6  2  0  0  0
  6  7  1  0  0  0
  7  8  2  0  0  0
  8  9  1  0  0  0
  9 10  1  0  0  0
 10 11  1  0  0  0
 11 12  2  0  0  0
 11 13  1  0  0  0
 13 14  2  0  0  0
 14 15  1  0  0  0
 15 16  2  0  0  0
 16 17  1  0  0  0
 16 18  1  0  0  0
 18 19  1  0  0  0
 18 20  2  0  0  0
 27 28  1  0  0  0
 28 29  1  0  0  0
 29 25  2  0  0  0
 10  1  1  0  0  0
 20 13  1  0  0  0
  8  3  1  0  0  0
 21 24  1  0  0  0
M  END
> <minimizedAffinity>
-2.20799

> <CNNscore>
0.4649831951

> <CNNaffinity>
5.5640869141

> <CNN_VS>
2.5872068405

> <CNNaffinity_variance>
1.3211305141

$$$$
[H]c1c(C(C([H])([H])[H])(C([H])([H])[H])C([H])([H])[H])noc1N([H])C(=O)[C@@]1([H])N(C(=O)c2c([H])c([H])c(F)c(F)c2[H])C([H])([H])c2c([H])c([H])c([H])c([H])c2C1([H])[H]


 33 36  0  0  0  0  0  0  0  0999 V2000
   54.5054   -4.3481   -7.3563 C   0  0  0  0  0  0  0  0  0  0  0  0
   54.5810   -4.0677   -8.8717 C   0  0  0  0  0  0  0  0  0  0  0  0
   55.9355   -4.3276   -9.3218 C   0  0  0  0  0  0  0  0  0  0  0  0
   56.7226   -3.4570   -9.9882 C   0  0  0  0  0  0  0  0  0  0  0  0
   58.0207   -3.8049  -10.3940 C   0  0  0  0  0  0  0  0  0  0  0  0
   58.4577   -5.0717  -10.0849 C   0  0  0  0  0  0  0  0  0  0  0  0
   57.6500   -5.9855   -9.3931 C   0  0  0  0  0  0  0  0  0  0  0  0
   56.4071   -5.6100   -9.0191 C   0  0  0  0  0  0  0  0  0  0  0  0
   55.4196   -6.4510   -8.2253 C   0  0  0  0  0  0  0  0  0  0  0  0
   55.1363   -5.5591   -7.0183 N   0  0  0  0  0  0  0  0  0  0  0  0
   55.6163   -6.1088   -5.8369 C   0  0  0  0  0  0  0  0  0  0  0  0
   56.1234   -7.3259   -5.9128 O   0  0  0  0  0  0  0  0  0  0  0  0
   55.6604   -5.5617   -4.5063 C   0  0  0  0  0  0  0  0  0  0  0  0
   54.5483   -5.8476   -3.6906 C   0  0  0  0  0  0  0  0  0  0  0  0
   54.5053   -5.4126   -2.3802 C   0  0  0  0  0  0  0  0  0  0  0  0
   55.5556   -4.6925   -1.8576 C   0  0  0  0  0  0  0  0  0  0  0  0
   55.4968   -4.2811   -0.5642 F   0  0  0  0  0  0  0  0  0  0  0  0
   56.6458   -4.3997   -2.6267 C   0  0  0  0  0  0  0  0  0  0  0  0
   57.6931   -3.6744   -2.1075 F   0  0  0  0  0  0  0  0  0  0  0  0
   56.6820   -4.8427   -3.9520 C   0  0  0  0  0  0  0  0  0  0  0  0
   52.1863   -3.3075   -7.3180 N   0  0  0  0  0  0  0  0  0  0  0  0
   53.0579   -4.3280   -6.9615 C   0  0  0  0  0  0  0  0  0  0  0  0
   52.6260   -5.3043   -6.2649 O   0  0  0  0  0  0  0  0  0  0  0  0
   52.6248   -2.5129   -7.9020 H   0  0  0  0  0  0  0  0  0  0  0  0
   48.9564   -3.1233   -5.7266 C   0  0  0  0  0  0  0  0  0  0  0  0
   50.3187   -3.1879   -5.6801 C   0  0  0  0  0  0  0  0  0  0  0  0
   50.7952   -3.2402   -6.9941 C   0  0  0  0  0  0  0  0  0  0  0  0
   49.7335   -3.2073   -7.7245 O   0  0  0  0  0  0  0  0  0  0  0  0
   48.6383   -3.1388   -7.0656 N   0  0  0  0  0  0  0  0  0  0  0  0
   48.3605   -4.1373   -3.5896 C   0  0  0  0  0  0  0  0  0  0  0  0
   47.9895   -3.0401   -4.5719 C   0  0  0  0  0  0  0  0  0  0  0  0
   48.1187   -1.6895   -3.9594 C   0  0  0  0  0  0  0  0  0  0  0  0
   46.6245   -3.3490   -5.1235 C   0  0  0  0  0  0  0  0  0  0  0  0
 30 31  1  0  0  0
 31 32  1  0  0  0
 31 33  1  0  0  0
 31 25  1  0  0  0
 25 26  1  0  0  0
 26 27  2  0  0  0
 27 21  1  0  0  0
 21 22  1  0  0  0
 22 23  2  0  0  0
 22  1  1  0  0  0
  1  2  1  0  0  0
  2  3  1  0  0  0
  3  4  2  0  0  0
  4  5  1  0  0  0
  5  6  2  0  0  0
  6  7  1  0  0  0
  7  8  2  0  0  0
  8  9  1  0  0  0
  9 10  1  0  0  0
 10 11  1  0  0  0
 11 12  2  0  0  0
 11 13  1  0  0  0
 13 14  2  0  0  0
 14 15  1  0  0  0
 15 16  2  0  0  0
 16 17  1  0  0  0
 16 18  1  0  0  0
 18 19  1  0  0  0
 18 20  2  0  0  0
 27 28  1  0  0  0
 28 29  1  0  0  0
 29 25  2  0  0  0
 10  1  1  0  0  0
 20 13  1  0  0  0
  8  3  1  0  0  0
 21 24  1  0  0  0
M  END
> <minimizedAffinity>
2.92540

> <CNNscore>
0.4348190725

> <CNNaffinity>
6.8834161758

> <CNN_VS>
2.9930405617

> <CNNaffinity_variance>
1.5943138599

$$$$
[H]c1c(C(C([H])([H])[H])(C([H])([H])[H])C([H])([H])[H])noc1N([H])C(=O)[C@@]1([H])N(C(=O)c2c([H])c([H])c(F)c(F)c2[H])C([H])([H])c2c([H])c([H])c([H])c([H])c2C1([H])[H]


 33 36  0  0  0  0  0  0  0  0999 V2000
   63.5437   -6.4523   -9.7373 C   0  0  0  0  0  0  0  0  0  0  0  0
   65.0078   -6.7250   -9.3339 C   0  0  0  0  0  0  0  0  0  0  0  0
   65.0295   -7.1807   -7.9566 C   0  0  0  0  0  0  0  0  0  0  0  0
   65.7539   -6.6319   -6.9589 C   0  0  0  0  0  0  0  0  0  0  0  0
   65.7182   -7.1520   -5.6554 C   0  0  0  0  0  0  0  0  0  0  0  0
   64.9143   -8.2462   -5.4369 C   0  0  0  0  0  0  0  0  0  0  0  0
   64.1568   -8.8257   -6.4648 C   0  0  0  0  0  0  0  0  0  0  0  0
   64.2184   -8.2931   -7.7050 C   0  0  0  0  0  0  0  0  0  0  0  0
   63.4322   -8.7614   -8.9195 C   0  0  0  0  0  0  0  0  0  0  0  0
   62.6884   -7.4920   -9.3293 N   0  0  0  0  0  0  0  0  0  0  0  0
   61.3156   -7.6108   -9.1573 C   0  0  0  0  0  0  0  0  0  0  0  0
   60.8650   -8.7965   -8.7892 O   0  0  0  0  0  0  0  0  0  0  0  0
   60.2702   -6.6337   -9.3123 C   0  0  0  0  0  0  0  0  0  0  0  0
   60.0318   -6.1973  -10.6301 C   0  0  0  0  0  0  0  0  0  0  0  0
   59.0207   -5.2962  -10.9018 C   0  0  0  0  0  0  0  0  0  0  0  0
   58.2329   -4.8149   -9.8808 C   0  0  0  0  0  0  0  0  0  0  0  0
   57.2388   -3.9355  -10.1707 F   0  0  0  0  0  0  0  0  0  0  0  0
   58.4431   -5.2199   -8.5933 C   0  0  0  0  0  0  0  0  0  0  0  0
   57.6606   -4.7345   -7.5712 F   0  0  0  0  0  0  0  0  0  0  0  0
   59.4684   -6.1316   -8.3260 C   0  0  0  0  0  0  0  0  0  0  0  0
   64.6078   -5.7848  -11.9475 N   0  0  0  0  0  0  0  0  0  0  0  0
   63.5134   -6.2368  -11.2220 C   0  0  0  0  0  0  0  0  0  0  0  0
   62.4207   -6.4863  -11.8290 O   0  0  0  0  0  0  0  0  0  0  0  0
   65.4951   -5.5893  -11.3651 H   0  0  0  0  0  0  0  0  0  0  0  0
   64.4879   -4.5057  -15.3161 C   0  0  0  0  0  0  0  0  0  0  0  0
   64.3398   -4.3592  -13.9675 C   0  0  0  0  0  0  0  0  0  0  0  0
   64.6510   -5.5810  -13.3621 C   0  0  0  0  0  0  0  0  0  0  0  0
   64.9540   -6.3601  -14.3434 O   0  0  0  0  0  0  0  0  0  0  0  0
   64.8840   -5.8112  -15.4976 N   0  0  0  0  0  0  0  0  0  0  0  0
   62.8261   -3.5527  -16.8262 C   0  0  0  0  0  0  0  0  0  0  0  0
   64.2792   -3.4698  -16.3924 C   0  0  0  0  0  0  0  0  0  0  0  0
   64.6040   -2.1359  -15.8170 C   0  0  0  0  0  0  0  0  0  0  0  0
   65.1387   -3.8741  -17.5589 C   0  0  0  0  0  0  0  0  0  0  0  0
 30 31  1  0  0  0
 31 32  1  0  0  0
 31 33  1  0  0  0
 31 25  1  0  0  0
 25 26  1  0  0  0
 26 27  2  0  0  0
 27 21  1  0  0  0
 21 22  1  0  0  0
 22 23  2  0  0  0
 22  1  1  0  0  0
  1  2  1  0  0  0
  2  3  1  0  0  0
  3  4  2  0  0  0
  4  5  1  0  0  0
  5  6  2  0  0  0
  6  7  1  0  0  0
  7  8  2  0  0  0
  8  9  1  0  0  0
  9 10  1  0  0  0
 10 11  1  0  0  0
 11 12  2  0  0  0
 11 13  1  0  0  0
 13 14  2  0  0  0
 14 15  1  0  0  0
 15 16  2  0  0  0
 16 17  1  0  0  0
 16 18  1  0  0  0
 18 19  1  0  0  0
 18 20  2  0  0  0
 27 28  1  0  0  0
 28 29  1  0  0  0
 29 25  2  0  0  0
 10  1  1  0  0  0
 20 13  1  0  0  0
  8  3  1  0  0  0
 21 24  1  0  0  0
M  END
> <minimizedAffinity>
-2.63494

> <CNNscore>
0.4058484733

> <CNNaffinity>
5.1897921562

> <CNN_VS>
2.1062691212

> <CNNaffinity_variance>
0.7101634145

$$$$
[H]c1c(C(C([H])([H])[H])(C([H])([H])[H])C([H])([H])[H])noc1N([H])C(=O)[C@@]1([H])N(C(=O)c2c([H])c([H])c(F)c(F)c2[H])C([H])([H])c2c([H])c([H])c([H])c([H])c2C1([H])[H]


 33 36  0  0  0  0  0  0  0  0999 V2000
   58.0335   -5.2714  -10.3994 C   0  0  0  0  0  0  0  0  0  0  0  0
   56.6606   -4.6523  -10.0640 C   0  0  0  0  0  0  0  0  0  0  0  0
   56.2353   -5.1480   -8.7684 C   0  0  0  0  0  0  0  0  0  0  0  0
   55.0635   -5.7654   -8.5095 C   0  0  0  0  0  0  0  0  0  0  0  0
   54.7346   -6.2013   -7.2162 C   0  0  0  0  0  0  0  0  0  0  0  0
   55.6568   -5.9718   -6.2220 C   0  0  0  0  0  0  0  0  0  0  0  0
   56.8777   -5.3315   -6.4778 C   0  0  0  0  0  0  0  0  0  0  0  0
   57.1559   -4.9292   -7.7373 C   0  0  0  0  0  0  0  0  0  0  0  0
   58.4438   -4.2664   -8.2006 C   0  0  0  0  0  0  0  0  0  0  0  0
   58.9132   -5.2133   -9.3032 N   0  0  0  0  0  0  0  0  0  0  0  0
   60.0905   -5.8676   -8.9655 C   0  0  0  0  0  0  0  0  0  0  0  0
   60.6682   -5.5023   -7.8353 O   0  0  0  0  0  0  0  0  0  0  0  0
   60.8074   -6.9085   -9.6542 C   0  0  0  0  0  0  0  0  0  0  0  0
   60.4340   -8.2269   -9.3279 C   0  0  0  0  0  0  0  0  0  0  0  0
   61.0230   -9.3033   -9.9621 C   0  0  0  0  0  0  0  0  0  0  0  0
   61.9850   -9.0952  -10.9244 C   0  0  0  0  0  0  0  0  0  0  0  0
   62.5460  -10.1675  -11.5417 F   0  0  0  0  0  0  0  0  0  0  0  0
   62.3674   -7.8273  -11.2593 C   0  0  0  0  0  0  0  0  0  0  0  0
   63.3335   -7.6183  -12.2160 F   0  0  0  0  0  0  0  0  0  0  0  0
   61.7673   -6.7430  -10.6128 C   0  0  0  0  0  0  0  0  0  0  0  0
   59.9035   -4.6243  -11.9954 N   0  0  0  0  0  0  0  0  0  0  0  0
   58.5729   -4.5569  -11.6036 C   0  0  0  0  0  0  0  0  0  0  0  0
   57.7543   -3.8592  -12.2876 O   0  0  0  0  0  0  0  0  0  0  0  0
   60.5373   -5.2286  -11.3647 H   0  0  0  0  0  0  0  0  0  0  0  0
   61.8897   -3.6324  -14.8361 C   0  0  0  0  0  0  0  0  0  0  0  0
   61.6228   -4.4603  -13.7847 C   0  0  0  0  0  0  0  0  0  0  0  0
   60.4743   -3.9878  -13.1415 C   0  0  0  0  0  0  0  0  0  0  0  0
   60.1325   -2.9437  -13.8159 O   0  0  0  0  0  0  0  0  0  0  0  0
   60.8988   -2.6776  -14.8060 N   0  0  0  0  0  0  0  0  0  0  0  0
   62.4087   -4.1531  -17.1620 C   0  0  0  0  0  0  0  0  0  0  0  0
   63.0153   -3.7313  -15.8351 C   0  0  0  0  0  0  0  0  0  0  0  0
   63.6657   -2.3955  -15.9298 C   0  0  0  0  0  0  0  0  0  0  0  0
   63.9210   -4.8359  -15.3633 C   0  0  0  0  0  0  0  0  0  0  0  0
 30 31  1  0  0  0
 31 32  1  0  0  0
 31 33  1  0  0  0
 31 25  1  0  0  0
 25 26  1  0  0  0
 26 27  2  0  0  0
 27 21  1  0  0  0
 21 22  1  0  0  0
 22 23  2  0  0  0
 22  1  1  0  0  0
  1  2  1  0  0  0
  2  3  1  0  0  0
  3  4  2  0  0  0
  4  5  1  0  0  0
  5  6  2  0  0  0
  6  7  1  0  0  0
  7  8  2  0  0  0
  8  9  1  0  0  0
  9 10  1  0  0  0
 10 11  1  0  0  0
 11 12  2  0  0  0
 11 13  1  0  0  0
 13 14  2  0  0  0
 14 15  1  0  0  0
 15 16  2  0  0  0
 16 17  1  0  0  0
 16 18  1  0  0  0
 18 19  1  0  0  0
 18 20  2  0  0  0
 27 28  1  0  0  0
 28 29  1  0  0  0
 29 25  2  0  0  0
 10  1  1  0  0  0
 20 13  1  0  0  0
  8  3  1  0  0  0
 21 24  1  0  0  0
M  END
> <minimizedAffinity>
-1.02088

> <CNNscore>
0.3842093945

> <CNNaffinity>
5.4176979065

> <CNN_VS>
2.0815303326

> <CNNaffinity_variance>
0.6153599024

$$$$
[H]c1c(C(C([H])([H])[H])(C([H])([H])[H])C([H])([H])[H])noc1N([H])C(=O)[C@@]1([H])N(C(=O)c2c([H])c([H])c(F)c(F)c2[H])C([H])([H])c2c([H])c([H])c([H])c([H])c2C1([H])[H]


 33 36  0  0  0  0  0  0  0  0999 V2000
   56.4761   -4.7525  -10.4767 C   0  0  0  0  0  0  0  0  0  0  0  0
   55.0129   -4.2654  -10.5265 C   0  0  0  0  0  0  0  0  0  0  0  0
   54.3739   -4.5955   -9.2664 C   0  0  0  0  0  0  0  0  0  0  0  0
   53.2350   -5.3058   -9.1256 C   0  0  0  0  0  0  0  0  0  0  0  0
   52.6848   -5.5656   -7.8604 C   0  0  0  0  0  0  0  0  0  0  0  0
   53.3547   -5.0648   -6.7688 C   0  0  0  0  0  0  0  0  0  0  0  0
   54.5387   -4.3255   -6.9015 C   0  0  0  0  0  0  0  0  0  0  0  0
   55.0356   -4.0994   -8.1375 C   0  0  0  0  0  0  0  0  0  0  0  0
   56.3260   -3.3631   -8.4618 C   0  0  0  0  0  0  0  0  0  0  0  0
   57.0990   -4.4083   -9.2633 N   0  0  0  0  0  0  0  0  0  0  0  0
   58.2346   -4.8463   -8.5948 C   0  0  0  0  0  0  0  0  0  0  0  0
   58.5284   -4.2340   -7.4620 O   0  0  0  0  0  0  0  0  0  0  0  0
   59.1709   -5.8858   -8.9329 C   0  0  0  0  0  0  0  0  0  0  0  0
   58.7631   -6.7678   -9.9526 C   0  0  0  0  0  0  0  0  0  0  0  0
   59.6015   -7.7744  -10.3904 C   0  0  0  0  0  0  0  0  0  0  0  0
   60.8502   -7.9243   -9.8309 C   0  0  0  0  0  0  0  0  0  0  0  0
   61.6623   -8.9158  -10.2815 F   0  0  0  0  0  0  0  0  0  0  0  0
   61.2708   -7.0842   -8.8393 C   0  0  0  0  0  0  0  0  0  0  0  0
   62.5158   -7.2372   -8.2747 F   0  0  0  0  0  0  0  0  0  0  0  0
   60.4166   -6.0682   -8.4011 C   0  0  0  0  0  0  0  0  0  0  0  0
   58.5160   -4.4530  -11.9640 N   0  0  0  0  0  0  0  0  0  0  0  0
   57.1874   -4.1791  -11.6671 C   0  0  0  0  0  0  0  0  0  0  0  0
   56.5227   -3.4051  -12.4312 O   0  0  0  0  0  0  0  0  0  0  0  0
   59.0150   -5.1109  -11.2692 H   0  0  0  0  0  0  0  0  0  0  0  0
   61.0060   -3.4220  -14.3588 C   0  0  0  0  0  0  0  0  0  0  0  0
   60.6406   -3.9474  -13.1537 C   0  0  0  0  0  0  0  0  0  0  0  0
   59.2434   -3.9584  -13.0913 C   0  0  0  0  0  0  0  0  0  0  0  0
   58.8656   -3.4570  -14.2172 O   0  0  0  0  0  0  0  0  0  0  0  0
   59.8239   -3.1259  -14.9985 N   0  0  0  0  0  0  0  0  0  0  0  0
   62.9895   -2.0138  -14.1775 C   0  0  0  0  0  0  0  0  0  0  0  0
   62.3990   -3.2131  -14.8983 C   0  0  0  0  0  0  0  0  0  0  0  0
   63.1843   -4.4505  -14.6374 C   0  0  0  0  0  0  0  0  0  0  0  0
   62.2543   -2.8590  -16.3532 C   0  0  0  0  0  0  0  0  0  0  0  0
 30 31  1  0  0  0
 31 32  1  0  0  0
 31 33  1  0  0  0
 31 25  1  0  0  0
 25 26  1  0  0  0
 26 27  2  0  0  0
 27 21  1  0  0  0
 21 22  1  0  0  0
 22 23  2  0  0  0
 22  1  1  0  0  0
  1  2  1  0  0  0
  2  3  1  0  0  0
  3  4  2  0  0  0
  4  5  1  0  0  0
  5  6  2  0  0  0
  6  7  1  0  0  0
  7  8  2  0  0  0
  8  9  1  0  0  0
  9 10  1  0  0  0
 10 11  1  0  0  0
 11 12  2  0  0  0
 11 13  1  0  0  0
 13 14  2  0  0  0
 14 15  1  0  0  0
 15 16  2  0  0  0
 16 17  1  0  0  0
 16 18  1  0  0  0
 18 19  1  0  0  0
 18 20  2  0  0  0
 27 28  1  0  0  0
 28 29  1  0  0  0
 29 25  2  0  0  0
 10  1  1  0  0  0
 20 13  1  0  0  0
  8  3  1  0  0  0
 21 24  1  0  0  0
M  END
> <minimizedAffinity>
-2.37695

> <CNNscore>
0.3693555295

> <CNNaffinity>
5.7111196518

> <CNN_VS>
2.1094336510

> <CNNaffinity_variance>
0.5596483946

$$$$
[H]c1c(C(C([H])([H])[H])(C([H])([H])[H])C([H])([H])[H])noc1N([H])C(=O)[C@@]1([H])N(C(=O)c2c([H])c([H])c(F)c(F)c2[H])C([H])([H])c2c([H])c([H])c([H])c([H])c2C1([H])[H]


 33 36  0  0  0  0  0  0  0  0999 V2000
   51.6395   -6.6764   -3.1367 C   0  0  0  0  0  0  0  0  0  0  0  0
   50.5984   -7.3644   -2.2292 C   0  0  0  0  0  0  0  0  0  0  0  0
   51.2554   -8.4350   -1.5031 C   0  0  0  0  0  0  0  0  0  0  0  0
   50.8642   -9.7265   -1.4837 C   0  0  0  0  0  0  0  0  0  0  0  0
   51.5601  -10.6921   -0.7392 C   0  0  0  0  0  0  0  0  0  0  0  0
   52.6579  -10.2668   -0.0285 C   0  0  0  0  0  0  0  0  0  0  0  0
   53.0747   -8.9281   -0.0402 C   0  0  0  0  0  0  0  0  0  0  0  0
   52.3778   -8.0307   -0.7715 C   0  0  0  0  0  0  0  0  0  0  0  0
   52.7141   -6.5568   -0.9358 C   0  0  0  0  0  0  0  0  0  0  0  0
   52.8421   -6.4241   -2.4519 N   0  0  0  0  0  0  0  0  0  0  0  0
   54.1426   -6.1362   -2.8444 C   0  0  0  0  0  0  0  0  0  0  0  0
   55.0172   -5.9144   -1.8799 O   0  0  0  0  0  0  0  0  0  0  0  0
   54.7178   -6.0393   -4.1602 C   0  0  0  0  0  0  0  0  0  0  0  0
   53.8148   -5.7528   -5.2026 C   0  0  0  0  0  0  0  0  0  0  0  0
   54.2635   -5.5911   -6.4989 C   0  0  0  0  0  0  0  0  0  0  0  0
   55.6050   -5.7087   -6.7843 C   0  0  0  0  0  0  0  0  0  0  0  0
   56.0263   -5.5381   -8.0645 F   0  0  0  0  0  0  0  0  0  0  0  0
   56.5026   -5.9877   -5.7931 C   0  0  0  0  0  0  0  0  0  0  0  0
   57.8426   -6.1120   -6.0782 F   0  0  0  0  0  0  0  0  0  0  0  0
   56.0410   -6.1505   -4.4838 C   0  0  0  0  0  0  0  0  0  0  0  0
   50.8204   -5.1931   -5.0319 N   0  0  0  0  0  0  0  0  0  0  0  0
   51.0153   -5.4231   -3.6763 C   0  0  0  0  0  0  0  0  0  0  0  0
   50.6527   -4.5381   -2.8335 O   0  0  0  0  0  0  0  0  0  0  0  0
   51.1576   -5.9838   -5.6844 H   0  0  0  0  0  0  0  0  0  0  0  0
   49.9752   -2.2515   -6.9375 C   0  0  0  0  0  0  0  0  0  0  0  0
   50.8199   -3.2726   -6.6120 C   0  0  0  0  0  0  0  0  0  0  0  0
   50.2129   -4.0338   -5.6078 C   0  0  0  0  0  0  0  0  0  0  0  0
   49.0845   -3.4479   -5.3955 O   0  0  0  0  0  0  0  0  0  0  0  0
   48.8773   -2.4160   -6.1239 N   0  0  0  0  0  0  0  0  0  0  0  0
   50.3703    0.1381   -7.2273 C   0  0  0  0  0  0  0  0  0  0  0  0
   50.1766   -1.1718   -7.9712 C   0  0  0  0  0  0  0  0  0  0  0  0
   51.3758   -1.5256   -8.7791 C   0  0  0  0  0  0  0  0  0  0  0  0
   48.8978   -1.0776   -8.7578 C   0  0  0  0  0  0  0  0  0  0  0  0
 30 31  1  0  0  0
 31 32  1  0  0  0
 31 33  1  0  0  0
 31 25  1  0  0  0
 25 26  1  0  0  0
 26 27  2  0  0  0
 27 21  1  0  0  0
 21 22  1  0  0  0
 22 23  2  0  0  0
 22  1  1  0  0  0
  1  2  1  0  0  0
  2  3  1  0  0  0
  3  4  2  0  0  0
  4  5  1  0  0  0
  5  6  2  0  0  0
  6  7  1  0  0  0
  7  8  2  0  0  0
  8  9  1  0  0  0
  9 10  1  0  0  0
 10 11  1  0  0  0
 11 12  2  0  0  0
 11 13  1  0  0  0
 13 14  2  0  0  0
 14 15  1  0  0  0
 15 16  2  0  0  0
 16 17  1  0  0  0
 16 18  1  0  0  0
 18 19  1  0  0  0
 18 20  2  0  0  0
 27 28  1  0  0  0
 28 29  1  0  0  0
 29 25  2  0  0  0
 10  1  1  0  0  0
 20 13  1  0  0  0
  8  3  1  0  0  0
 21 24  1  0  0  0
M  END
> <minimizedAffinity>
1.69802

> <CNNscore>
0.3230478168

> <CNNaffinity>
6.5489258766

> <CNN_VS>
2.1156163216

> <CNNaffinity_variance>
0.7282885313

$$$$
[H]c1c(C(C([H])([H])[H])(C([H])([H])[H])C([H])([H])[H])noc1N([H])C(=O)[C@@]1([H])N(C(=O)c2c([H])c([H])c(F)c(F)c2[H])C([H])([H])c2c([H])c([H])c([H])c([H])c2C1([H])[H]


 33 36  0  0  0  0  0  0  0  0999 V2000
   55.2917   -6.1810   -6.7693 C   0  0  0  0  0  0  0  0  0  0  0  0
   54.2249   -5.8315   -7.8278 C   0  0  0  0  0  0  0  0  0  0  0  0
   52.9228   -5.8318   -7.1878 C   0  0  0  0  0  0  0  0  0  0  0  0
   51.8518   -6.5499   -7.5863 C   0  0  0  0  0  0  0  0  0  0  0  0
   50.6254   -6.4752   -6.9071 C   0  0  0  0  0  0  0  0  0  0  0  0
   50.5599   -5.6382   -5.8179 C   0  0  0  0  0  0  0  0  0  0  0  0
   51.6653   -4.8869   -5.3937 C   0  0  0  0  0  0  0  0  0  0  0  0
   52.8278   -4.9891   -6.0745 C   0  0  0  0  0  0  0  0  0  0  0  0
   54.1320   -4.2880   -5.7278 C   0  0  0  0  0  0  0  0  0  0  0  0
   55.0969   -5.4621   -5.5759 N   0  0  0  0  0  0  0  0  0  0  0  0
   55.5392   -5.6106   -4.2680 C   0  0  0  0  0  0  0  0  0  0  0  0
   55.1654   -4.6815   -3.4070 O   0  0  0  0  0  0  0  0  0  0  0  0
   56.3554   -6.6355   -3.6723 C   0  0  0  0  0  0  0  0  0  0  0  0
   55.7023   -7.4799   -2.7532 C   0  0  0  0  0  0  0  0  0  0  0  0
   56.3769   -8.5271   -2.1563 C   0  0  0  0  0  0  0  0  0  0  0  0
   57.7005   -8.7558   -2.4569 C   0  0  0  0  0  0  0  0  0  0  0  0
   58.3431   -9.7960   -1.8647 F   0  0  0  0  0  0  0  0  0  0  0  0
   58.3589   -7.9516   -3.3433 C   0  0  0  0  0  0  0  0  0  0  0  0
   59.6836   -8.1751   -3.6395 F   0  0  0  0  0  0  0  0  0  0  0  0
   57.6699   -6.8935   -3.9430 C   0  0  0  0  0  0  0  0  0  0  0  0
   56.9154   -6.1224   -8.7246 N   0  0  0  0  0  0  0  0  0  0  0  0
   56.6386   -5.9232   -7.3784 C   0  0  0  0  0  0  0  0  0  0  0  0
   57.5608   -5.5011   -6.6062 O   0  0  0  0  0  0  0  0  0  0  0  0
   56.0878   -6.4862   -9.3140 H   0  0  0  0  0  0  0  0  0  0  0  0
   60.3208   -6.1459   -9.9082 C   0  0  0  0  0  0  0  0  0  0  0  0
   59.3133   -6.6405   -9.1320 C   0  0  0  0  0  0  0  0  0  0  0  0
   58.1672   -5.8749   -9.3697 C   0  0  0  0  0  0  0  0  0  0  0  0
   58.5385   -4.9984  -10.2389 O   0  0  0  0  0  0  0  0  0  0  0  0
   59.7637   -5.0927  -10.5972 N   0  0  0  0  0  0  0  0  0  0  0  0
   62.2808   -6.1898  -11.3595 C   0  0  0  0  0  0  0  0  0  0  0  0
   61.7422   -6.6395  -10.0127 C   0  0  0  0  0  0  0  0  0  0  0  0
   62.5183   -6.0499   -8.8875 C   0  0  0  0  0  0  0  0  0  0  0  0
   61.6827   -8.1427  -10.0116 C   0  0  0  0  0  0  0  0  0  0  0  0
 30 31  1  0  0  0
 31 32  1  0  0  0
 31 33  1  0  0  0
 31 25  1  0  0  0
 25 26  1  0  0  0
 26 27  2  0  0  0
 27 21  1  0  0  0
 21 22  1  0  0  0
 22 23  2  0  0  0
 22  1  1  0  0  0
  1  2  1  0  0  0
  2  3  1  0  0  0
  3  4  2  0  0  0
  4  5  1  0  0  0
  5  6  2  0  0  0
  6  7  1  0  0  0
  7  8  2  0  0  0
  8  9  1  0  0  0
  9 10  1  0  0  0
 10 11  1  0  0  0
 11 12  2  0  0  0
 11 13  1  0  0  0
 13 14  2  0  0  0
 14 15  1  0  0  0
 15 16  2  0  0  0
 16 17  1  0  0  0
 16 18  1  0  0  0
 18 19  1  0  0  0
 18 20  2  0  0  0
 27 28  1  0  0  0
 28 29  1  0  0  0
 29 25  2  0  0  0
 10  1  1  0  0  0
 20 13  1  0  0  0
  8  3  1  0  0  0
 21 24  1  0  0  0
M  END
> <minimizedAffinity>
-2.96957

> <CNNscore>
0.3220258355

> <CNNaffinity>
6.3613519669

> <CNN_VS>
2.0485196114

> <CNNaffinity_variance>
0.6722794771

$$$$
[H]c1c(C(C([H])([H])[H])(C([H])([H])[H])C([H])([H])[H])noc1N([H])C(=O)[C@@]1([H])N(C(=O)c2c([H])c([H])c(F)c(F)c2[H])C([H])([H])c2c([H])c([H])c([H])c([H])c2C1([H])[H]


 33 36  0  0  0  0  0  0  0  0999 V2000
   55.9385   -5.2180   -7.7298 C   0  0  0  0  0  0  0  0  0  0  0  0
   57.3540   -5.1240   -8.3368 C   0  0  0  0  0  0  0  0  0  0  0  0
   57.2323   -4.7636   -9.7370 C   0  0  0  0  0  0  0  0  0  0  0  0
   57.7613   -5.4477  -10.7731 C   0  0  0  0  0  0  0  0  0  0  0  0
   57.5991   -5.0126  -12.0980 C   0  0  0  0  0  0  0  0  0  0  0  0
   56.8787   -3.8582  -12.2967 C   0  0  0  0  0  0  0  0  0  0  0  0
   56.3240   -3.1383  -11.2290 C   0  0  0  0  0  0  0  0  0  0  0  0
   56.5021   -3.5925   -9.9691 C   0  0  0  0  0  0  0  0  0  0  0  0
   55.9338   -2.9678   -8.7044 C   0  0  0  0  0  0  0  0  0  0  0  0
   55.1368   -4.1248   -8.1053 N   0  0  0  0  0  0  0  0  0  0  0  0
   53.7705   -3.8769   -8.1093 C   0  0  0  0  0  0  0  0  0  0  0  0
   53.3870   -2.6777   -8.5083 O   0  0  0  0  0  0  0  0  0  0  0  0
   52.6689   -4.7292   -7.7464 C   0  0  0  0  0  0  0  0  0  0  0  0
   51.7243   -4.1660   -6.8664 C   0  0  0  0  0  0  0  0  0  0  0  0
   50.6022   -4.8772   -6.4880 C   0  0  0  0  0  0  0  0  0  0  0  0
   50.3965   -6.1496   -6.9713 C   0  0  0  0  0  0  0  0  0  0  0  0
   49.2824   -6.8287   -6.5929 F   0  0  0  0  0  0  0  0  0  0  0  0
   51.2972   -6.7208   -7.8248 C   0  0  0  0  0  0  0  0  0  0  0  0
   51.0960   -7.9948   -8.3031 F   0  0  0  0  0  0  0  0  0  0  0  0
   52.4305   -5.9952   -8.2028 C   0  0  0  0  0  0  0  0  0  0  0  0
   56.3095   -6.5384   -5.5893 N   0  0  0  0  0  0  0  0  0  0  0  0
   56.0885   -5.3322   -6.2412 C   0  0  0  0  0  0  0  0  0  0  0  0
   56.0060   -4.2587   -5.5589 O   0  0  0  0  0  0  0  0  0  0  0  0
   56.3615   -7.4040   -6.2316 H   0  0  0  0  0  0  0  0  0  0  0  0
   55.9364   -7.1138   -2.0498 C   0  0  0  0  0  0  0  0  0  0  0  0
   55.4281   -7.0085   -3.3118 C   0  0  0  0  0  0  0  0  0  0  0  0
   56.4832   -6.7116   -4.1806 C   0  0  0  0  0  0  0  0  0  0  0  0
   57.5225   -6.6561   -3.4200 O   0  0  0  0  0  0  0  0  0  0  0  0
   57.2859   -6.8779   -2.1818 N   0  0  0  0  0  0  0  0  0  0  0  0
   53.8166   -7.9296   -1.1604 C   0  0  0  0  0  0  0  0  0  0  0  0
   55.1981   -7.4313   -0.7735 C   0  0  0  0  0  0  0  0  0  0  0  0
   55.9707   -8.4719   -0.0411 C   0  0  0  0  0  0  0  0  0  0  0  0
   55.0353   -6.1338   -0.0298 C   0  0  0  0  0  0  0  0  0  0  0  0
 30 31  1  0  0  0
 31 32  1  0  0  0
 31 33  1  0  0  0
 31 25  1  0  0  0
 25 26  1  0  0  0
 26 27  2  0  0  0
 27 21  1  0  0  0
 21 22  1  0  0  0
 22 23  2  0  0  0
 22  1  1  0  0  0
  1  2  1  0  0  0
  2  3  1  0  0  0
  3  4  2  0  0  0
  4  5  1  0  0  0
  5  6  2  0  0  0
  6  7  1  0  0  0
  7  8  2  0  0  0
  8  9  1  0  0  0
  9 10  1  0  0  0
 10 11  1  0  0  0
 11 12  2  0  0  0
 11 13  1  0  0  0
 13 14  2  0  0  0
 14 15  1  0  0  0
 15 16  2  0  0  0
 16 17  1  0  0  0
 16 18  1  0  0  0
 18 19  1  0  0  0
 18 20  2  0  0  0
 27 28  1  0  0  0
 28 29  1  0  0  0
 29 25  2  0  0  0
 10  1  1  0  0  0
 20 13  1  0  0  0
  8  3  1  0  0  0
 21 24  1  0  0  0
M  END
> <minimizedAffinity>
-7.47027

> <CNNscore>
0.3194056451

> <CNNaffinity>
6.8698744774

> <CNN_VS>
2.1942765713

> <CNNaffinity_variance>
0.4008232951

$$$$
[H]c1c([H])c(S(=O)(=O)N([H])c2c([H])c(C(F)(F)F)c([H])c(C(N([H])[H])(C([H])([H])[H])C([H])([H])[H])c2[H])c([H])c(OC([H])([H])[H])c1OC([H])([H])[H]


 31 32  0  0  0  0  0  0  0  0999 V2000
   55.4221   -4.1311   -7.9654 C   0  0  0  0  0  0  0  0  0  0  0  0
   55.4204   -4.8320   -6.7326 C   0  0  0  0  0  0  0  0  0  0  0  0
   56.4153   -5.7244   -6.3910 C   0  0  0  0  0  0  0  0  0  0  0  0
   57.4066   -5.8840   -7.3364 C   0  0  0  0  0  0  0  0  0  0  0  0
   57.4432   -5.2233   -8.5565 C   0  0  0  0  0  0  0  0  0  0  0  0
   56.4115   -4.3395   -8.8333 C   0  0  0  0  0  0  0  0  0  0  0  0
   56.4118   -6.3451   -5.0370 C   0  0  0  0  0  0  0  0  0  0  0  0
   55.3403   -7.4231   -5.0281 C   0  0  0  0  0  0  0  0  0  0  0  0
   55.9156   -5.2809   -4.0807 C   0  0  0  0  0  0  0  0  0  0  0  0
   57.6427   -6.9564   -4.6627 N   0  0  0  0  0  0  0  0  0  0  0  0
   57.4749   -7.6644   -3.9268 H   0  0  0  0  0  0  0  0  0  0  0  0
   58.4487   -6.3572   -4.4629 H   0  0  0  0  0  0  0  0  0  0  0  0
   58.5836   -5.5004   -9.4657 C   0  0  0  0  0  0  0  0  0  0  0  0
   58.6912   -6.7653   -9.9005 F   0  0  0  0  0  0  0  0  0  0  0  0
   58.5081   -4.5737  -10.5286 F   0  0  0  0  0  0  0  0  0  0  0  0
   59.7461   -5.1590   -8.7693 F   0  0  0  0  0  0  0  0  0  0  0  0
   54.3757   -3.1355   -8.0079 N   0  0  0  0  0  0  0  0  0  0  0  0
   54.6251   -2.1821   -7.6165 H   0  0  0  0  0  0  0  0  0  0  0  0
   52.8570   -3.5237   -8.6477 S   0  0  0  0  0  0  0  0  0  0  0  0
   52.8997   -4.8651   -9.3382 O   0  0  0  0  0  0  0  0  0  0  0  0
   52.5660   -2.5051   -9.7710 O   0  0  0  0  0  0  0  0  0  0  0  0
   49.6409   -3.3651   -5.4476 C   0  0  0  0  0  0  0  0  0  0  0  0
   49.6266   -2.4211   -6.4524 C   0  0  0  0  0  0  0  0  0  0  0  0
   50.5757   -2.4565   -7.4846 C   0  0  0  0  0  0  0  0  0  0  0  0
   51.5400   -3.4005   -7.5510 C   0  0  0  0  0  0  0  0  0  0  0  0
   51.5427   -4.3687   -6.5124 C   0  0  0  0  0  0  0  0  0  0  0  0
   50.6402   -4.3695   -5.4947 C   0  0  0  0  0  0  0  0  0  0  0  0
   47.5100   -2.7829   -4.3504 C   0  0  0  0  0  0  0  0  0  0  0  0
   48.7546   -3.3727   -4.4029 O   0  0  0  0  0  0  0  0  0  0  0  0
   50.6353   -5.3115   -4.4796 O   0  0  0  0  0  0  0  0  0  0  0  0
   51.7298   -6.0782   -4.0812 C   0  0  0  0  0  0  0  0  0  0  0  0
 28 29  1  0  0  0
 29 22  1  0  0  0
 22 23  2  0  0  0
 23 24  1  0  0  0
 24 25  2  0  0  0
 25 26  1  0  0  0
 26 27  2  0  0  0
 27 30  1  0  0  0
 30 31  1  0  0  0
 25 19  1  0  0  0
 19 20  2  0  0  0
 19 21  2  0  0  0
 19 17  1  0  0  0
 17  1  1  0  0  0
  1  2  2  0  0  0
  2  3  1  0  0  0
  3  4  2  0  0  0
  4  5  1  0  0  0
  5  6  2  0  0  0
  5 13  1  0  0  0
 13 14  1  0  0  0
 13 15  1  0  0  0
 13 16  1  0  0  0
  3  7  1  0  0  0
  7  8  1  0  0  0
  7  9  1  0  0  0
  7 10  1  0  0  0
 27 22  1  0  0  0
  6  1  1  0  0  0
 17 18  1  0  0  0
 10 11  1  0  0  0
 10 12  1  0  0  0
M  END
> <minimizedAffinity>
-8.44239

> <CNNscore>
0.3697332144

> <CNNaffinity>
6.3877482414

> <CNN_VS>
2.3617627621

> <CNNaffinity_variance>
0.1592113376

$$$$
[H]c1c([H])c(S(=O)(=O)N([H])c2c([H])c(C(F)(F)F)c([H])c(C(N([H])[H])(C([H])([H])[H])C([H])([H])[H])c2[H])c([H])c(OC([H])([H])[H])c1OC([H])([H])[H]


 31 32  0  0  0  0  0  0  0  0999 V2000
   55.8569   -4.1590  -10.2260 C   0  0  0  0  0  0  0  0  0  0  0  0
   55.9025   -3.9309  -11.6249 C   0  0  0  0  0  0  0  0  0  0  0  0
   56.9982   -4.2697  -12.3915 C   0  0  0  0  0  0  0  0  0  0  0  0
   58.0423   -4.8430  -11.6966 C   0  0  0  0  0  0  0  0  0  0  0  0
   58.0414   -5.0780  -10.3287 C   0  0  0  0  0  0  0  0  0  0  0  0
   56.9063   -4.7138   -9.6207 C   0  0  0  0  0  0  0  0  0  0  0  0
   56.9393   -4.1033  -13.8705 C   0  0  0  0  0  0  0  0  0  0  0  0
   55.8806   -3.0557  -14.1736 C   0  0  0  0  0  0  0  0  0  0  0  0
   56.3880   -5.4003  -14.4246 C   0  0  0  0  0  0  0  0  0  0  0  0
   58.1585   -3.6704  -14.4664 N   0  0  0  0  0  0  0  0  0  0  0  0
   57.9650   -3.2238  -15.3798 H   0  0  0  0  0  0  0  0  0  0  0  0
   58.9478   -4.3218  -14.5007 H   0  0  0  0  0  0  0  0  0  0  0  0
   59.2436   -5.7094   -9.7287 C   0  0  0  0  0  0  0  0  0  0  0  0
   59.5555   -5.3103   -8.4860 F   0  0  0  0  0  0  0  0  0  0  0  0
   59.0701   -7.1082   -9.8137 F   0  0  0  0  0  0  0  0  0  0  0  0
   60.3151   -5.4248  -10.5795 F   0  0  0  0  0  0  0  0  0  0  0  0
   54.5450   -3.8804   -9.6883 N   0  0  0  0  0  0  0  0  0  0  0  0
   53.8456   -3.4580  -10.3642 H   0  0  0  0  0  0  0  0  0  0  0  0
   54.2006   -4.2198   -8.0657 S   0  0  0  0  0  0  0  0  0  0  0  0
   55.2192   -3.5710   -7.1605 O   0  0  0  0  0  0  0  0  0  0  0  0
   54.4010   -5.7381   -7.8692 O   0  0  0  0  0  0  0  0  0  0  0  0
   50.0508   -3.5177   -6.3641 C   0  0  0  0  0  0  0  0  0  0  0  0
   50.5257   -2.6609   -7.3344 C   0  0  0  0  0  0  0  0  0  0  0  0
   51.7848   -2.8639   -7.9179 C   0  0  0  0  0  0  0  0  0  0  0  0
   52.5889   -3.8919   -7.5683 C   0  0  0  0  0  0  0  0  0  0  0  0
   52.0879   -4.7689   -6.5704 C   0  0  0  0  0  0  0  0  0  0  0  0
   50.8728   -4.6072   -5.9808 C   0  0  0  0  0  0  0  0  0  0  0  0
   48.5021   -2.4404   -4.7754 C   0  0  0  0  0  0  0  0  0  0  0  0
   48.8397   -3.3619   -5.7431 O   0  0  0  0  0  0  0  0  0  0  0  0
   50.3767   -5.4594   -5.0085 O   0  0  0  0  0  0  0  0  0  0  0  0
   50.6353   -5.3661   -3.6415 C   0  0  0  0  0  0  0  0  0  0  0  0
 28 29  1  0  0  0
 29 22  1  0  0  0
 22 23  2  0  0  0
 23 24  1  0  0  0
 24 25  2  0  0  0
 25 26  1  0  0  0
 26 27  2  0  0  0
 27 30  1  0  0  0
 30 31  1  0  0  0
 25 19  1  0  0  0
 19 20  2  0  0  0
 19 21  2  0  0  0
 19 17  1  0  0  0
 17  1  1  0  0  0
  1  2  2  0  0  0
  2  3  1  0  0  0
  3  4  2  0  0  0
  4  5  1  0  0  0
  5  6  2  0  0  0
  5 13  1  0  0  0
 13 14  1  0  0  0
 13 15  1  0  0  0
 13 16  1  0  0  0
  3  7  1  0  0  0
  7  8  1  0  0  0
  7  9  1  0  0  0
  7 10  1  0  0  0
 27 22  1  0  0  0
  6  1  1  0  0  0
 17 18  1  0  0  0
 10 11  1  0  0  0
 10 12  1  0  0  0
M  END
> <minimizedAffinity>
-8.45096

> <CNNscore>
0.3208133876

> <CNNaffinity>
6.0689530373

> <CNN_VS>
1.9470013380

> <CNNaffinity_variance>
0.1294551790

$$$$
[H]c1c([H])c(S(=O)(=O)N([H])c2c([H])c(C(F)(F)F)c([H])c(C(N([H])[H])(C([H])([H])[H])C([H])([H])[H])c2[H])c([H])c(OC([H])([H])[H])c1OC([H])([H])[H]


 31 32  0  0  0  0  0  0  0  0999 V2000
   53.5306   -5.2773   -7.0762 C   0  0  0  0  0  0  0  0  0  0  0  0
   52.4169   -4.4740   -7.4301 C   0  0  0  0  0  0  0  0  0  0  0  0
   51.3464   -4.2833   -6.5812 C   0  0  0  0  0  0  0  0  0  0  0  0
   51.4404   -4.9320   -5.3679 C   0  0  0  0  0  0  0  0  0  0  0  0
   52.5081   -5.7316   -4.9845 C   0  0  0  0  0  0  0  0  0  0  0  0
   53.5505   -5.8779   -5.8869 C   0  0  0  0  0  0  0  0  0  0  0  0
   50.2599   -3.3414   -6.9698 C   0  0  0  0  0  0  0  0  0  0  0  0
   49.4886   -2.9841   -5.7098 C   0  0  0  0  0  0  0  0  0  0  0  0
   49.2904   -4.1353   -7.8199 C   0  0  0  0  0  0  0  0  0  0  0  0
   50.7126   -2.1259   -7.5585 N   0  0  0  0  0  0  0  0  0  0  0  0
   49.9884   -1.3937   -7.4558 H   0  0  0  0  0  0  0  0  0  0  0  0
   51.1186   -2.1558   -8.4980 H   0  0  0  0  0  0  0  0  0  0  0  0
   52.4623   -6.3584   -3.6395 C   0  0  0  0  0  0  0  0  0  0  0  0
   51.3156   -6.9789   -3.3220 F   0  0  0  0  0  0  0  0  0  0  0  0
   53.5803   -7.2150   -3.5369 F   0  0  0  0  0  0  0  0  0  0  0  0
   52.6997   -5.3402   -2.7122 F   0  0  0  0  0  0  0  0  0  0  0  0
   54.5873   -5.1761   -8.0566 N   0  0  0  0  0  0  0  0  0  0  0  0
   55.2698   -5.9870   -8.0898 H   0  0  0  0  0  0  0  0  0  0  0  0
   54.6884   -3.8175   -9.0617 S   0  0  0  0  0  0  0  0  0  0  0  0
   54.7465   -2.5529   -8.2397 O   0  0  0  0  0  0  0  0  0  0  0  0
   53.3563   -3.7290   -9.8374 O   0  0  0  0  0  0  0  0  0  0  0  0
   58.0876   -4.3281  -12.0272 C   0  0  0  0  0  0  0  0  0  0  0  0
   56.9289   -3.7077  -12.4438 C   0  0  0  0  0  0  0  0  0  0  0  0
   55.8691   -3.4913  -11.5508 C   0  0  0  0  0  0  0  0  0  0  0  0
   55.9229   -3.8720  -10.2556 C   0  0  0  0  0  0  0  0  0  0  0  0
   57.1222   -4.5072   -9.8378 C   0  0  0  0  0  0  0  0  0  0  0  0
   58.1722   -4.7348  -10.6718 C   0  0  0  0  0  0  0  0  0  0  0  0
   60.0874   -3.6913  -13.3228 C   0  0  0  0  0  0  0  0  0  0  0  0
   59.1486   -4.5854  -12.8548 O   0  0  0  0  0  0  0  0  0  0  0  0
   59.3455   -5.3518  -10.2711 O   0  0  0  0  0  0  0  0  0  0  0  0
   59.4354   -6.4160   -9.3745 C   0  0  0  0  0  0  0  0  0  0  0  0
 28 29  1  0  0  0
 29 22  1  0  0  0
 22 23  2  0  0  0
 23 24  1  0  0  0
 24 25  2  0  0  0
 25 26  1  0  0  0
 26 27  2  0  0  0
 27 30  1  0  0  0
 30 31  1  0  0  0
 25 19  1  0  0  0
 19 20  2  0  0  0
 19 21  2  0  0  0
 19 17  1  0  0  0
 17  1  1  0  0  0
  1  2  2  0  0  0
  2  3  1  0  0  0
  3  4  2  0  0  0
  4  5  1  0  0  0
  5  6  2  0  0  0
  5 13  1  0  0  0
 13 14  1  0  0  0
 13 15  1  0  0  0
 13 16  1  0  0  0
  3  7  1  0  0  0
  7  8  1  0  0  0
  7  9  1  0  0  0
  7 10  1  0  0  0
 27 22  1  0  0  0
  6  1  1  0  0  0
 17 18  1  0  0  0
 10 11  1  0  0  0
 10 12  1  0  0  0
M  END
> <minimizedAffinity>
-8.38669

> <CNNscore>
0.2968925238

> <CNNaffinity>
6.2521467209

> <CNN_VS>
1.8562155962

> <CNNaffinity_variance>
0.2092671841

$$$$
[H]c1c([H])c(S(=O)(=O)N([H])c2c([H])c(C(F)(F)F)c([H])c(C(N([H])[H])(C([H])([H])[H])C([H])([H])[H])c2[H])c([H])c(OC([H])([H])[H])c1OC([H])([H])[H]


 31 32  0  0  0  0  0  0  0  0999 V2000
   53.4810   -6.1377   -5.1899 C   0  0  0  0  0  0  0  0  0  0  0  0
   53.1182   -6.5249   -3.8748 C   0  0  0  0  0  0  0  0  0  0  0  0
   51.9063   -6.1804   -3.3131 C   0  0  0  0  0  0  0  0  0  0  0  0
   51.0785   -5.4323   -4.1236 C   0  0  0  0  0  0  0  0  0  0  0  0
   51.3967   -5.0273   -5.4125 C   0  0  0  0  0  0  0  0  0  0  0  0
   52.6311   -5.4106   -5.9141 C   0  0  0  0  0  0  0  0  0  0  0  0
   51.5428   -6.7100   -1.9692 C   0  0  0  0  0  0  0  0  0  0  0  0
   52.5190   -6.1218   -0.9636 C   0  0  0  0  0  0  0  0  0  0  0  0
   51.8452   -8.1935   -1.9988 C   0  0  0  0  0  0  0  0  0  0  0  0
   50.2263   -6.3780   -1.5383 N   0  0  0  0  0  0  0  0  0  0  0  0
   50.1691   -6.4328   -0.5065 H   0  0  0  0  0  0  0  0  0  0  0  0
   49.4296   -6.8202   -2.0057 H   0  0  0  0  0  0  0  0  0  0  0  0
   50.3934   -4.2283   -6.1601 C   0  0  0  0  0  0  0  0  0  0  0  0
   49.7746   -4.8617   -7.1684 F   0  0  0  0  0  0  0  0  0  0  0  0
   49.4818   -3.7084   -5.2152 F   0  0  0  0  0  0  0  0  0  0  0  0
   51.0643   -3.1126   -6.6682 F   0  0  0  0  0  0  0  0  0  0  0  0
   54.7149   -6.7657   -5.6035 N   0  0  0  0  0  0  0  0  0  0  0  0
   54.6789   -7.8169   -5.7386 H   0  0  0  0  0  0  0  0  0  0  0  0
   56.1084   -5.8328   -5.8363 S   0  0  0  0  0  0  0  0  0  0  0  0
   57.3030   -6.4946   -5.1935 O   0  0  0  0  0  0  0  0  0  0  0  0
   55.9089   -4.5187   -5.0506 O   0  0  0  0  0  0  0  0  0  0  0  0
   56.6467   -4.2782  -10.0674 C   0  0  0  0  0  0  0  0  0  0  0  0
   57.7157   -4.8812   -9.4392 C   0  0  0  0  0  0  0  0  0  0  0  0
   57.5832   -5.4130   -8.1481 C   0  0  0  0  0  0  0  0  0  0  0  0
   56.4217   -5.3651   -7.4597 C   0  0  0  0  0  0  0  0  0  0  0  0
   55.3274   -4.7443   -8.1180 C   0  0  0  0  0  0  0  0  0  0  0  0
   55.4146   -4.2173   -9.3689 C   0  0  0  0  0  0  0  0  0  0  0  0
   57.7994   -3.7077  -12.1719 C   0  0  0  0  0  0  0  0  0  0  0  0
   56.7177   -3.7232  -11.3179 O   0  0  0  0  0  0  0  0  0  0  0  0
   54.3514   -3.6123  -10.0180 O   0  0  0  0  0  0  0  0  0  0  0  0
   53.1434   -3.2459   -9.4255 C   0  0  0  0  0  0  0  0  0  0  0  0
 28 29  1  0  0  0
 29 22  1  0  0  0
 22 23  2  0  0  0
 23 24  1  0  0  0
 24 25  2  0  0  0
 25 26  1  0  0  0
 26 27  2  0  0  0
 27 30  1  0  0  0
 30 31  1  0  0  0
 25 19  1  0  0  0
 19 20  2  0  0  0
 19 21  2  0  0  0
 19 17  1  0  0  0
 17  1  1  0  0  0
  1  2  2  0  0  0
  2  3  1  0  0  0
  3  4  2  0  0  0
  4  5  1  0  0  0
  5  6  2  0  0  0
  5 13  1  0  0  0
 13 14  1  0  0  0
 13 15  1  0  0  0
 13 16  1  0  0  0
  3  7  1  0  0  0
  7  8  1  0  0  0
  7  9  1  0  0  0
  7 10  1  0  0  0
 27 22  1  0  0  0
  6  1  1  0  0  0
 17 18  1  0  0  0
 10 11  1  0  0  0
 10 12  1  0  0  0
M  END
> <minimizedAffinity>
-9.08329

> <CNNscore>
0.2817770839

> <CNNaffinity>
6.4059472084

> <CNN_VS>
1.8050491810

> <CNNaffinity_variance>
0.1545903683

$$$$
[H]c1c([H])c(S(=O)(=O)N([H])c2c([H])c(C(F)(F)F)c([H])c(C(N([H])[H])(C([H])([H])[H])C([H])([H])[H])c2[H])c([H])c(OC([H])([H])[H])c1OC([H])([H])[H]


 31 32  0  0  0  0  0  0  0  0999 V2000
   52.9840   -5.4245   -6.8107 C   0  0  0  0  0  0  0  0  0  0  0  0
   51.9643   -4.5599   -7.2836 C   0  0  0  0  0  0  0  0  0  0  0  0
   50.9185   -4.1475   -6.4841 C   0  0  0  0  0  0  0  0  0  0  0  0
   50.9389   -4.6394   -5.1960 C   0  0  0  0  0  0  0  0  0  0  0  0
   51.9133   -5.4916   -4.6951 C   0  0  0  0  0  0  0  0  0  0  0  0
   52.9360   -5.8641   -5.5538 C   0  0  0  0  0  0  0  0  0  0  0  0
   49.9408   -3.1537   -7.0087 C   0  0  0  0  0  0  0  0  0  0  0  0
   50.7290   -1.9590   -7.5201 C   0  0  0  0  0  0  0  0  0  0  0  0
   49.1694   -2.6403   -5.8110 C   0  0  0  0  0  0  0  0  0  0  0  0
   49.1317   -3.6284   -8.0807 N   0  0  0  0  0  0  0  0  0  0  0  0
   48.7691   -2.8290   -8.6289 H   0  0  0  0  0  0  0  0  0  0  0  0
   48.4156   -4.3328   -7.8818 H   0  0  0  0  0  0  0  0  0  0  0  0
   51.7967   -5.9298   -3.2815 C   0  0  0  0  0  0  0  0  0  0  0  0
   51.7174   -7.2548   -3.0844 F   0  0  0  0  0  0  0  0  0  0  0  0
   52.8687   -5.3465   -2.5711 F   0  0  0  0  0  0  0  0  0  0  0  0
   50.6479   -5.3243   -2.7653 F   0  0  0  0  0  0  0  0  0  0  0  0
   54.0480   -5.5646   -7.7784 N   0  0  0  0  0  0  0  0  0  0  0  0
   54.0841   -6.4877   -8.2991 H   0  0  0  0  0  0  0  0  0  0  0  0
   55.1496   -4.3021   -8.0210 S   0  0  0  0  0  0  0  0  0  0  0  0
   55.8104   -3.9175   -6.7196 O   0  0  0  0  0  0  0  0  0  0  0  0
   54.3302   -3.0607   -8.4352 O   0  0  0  0  0  0  0  0  0  0  0  0
   58.0156   -4.5948  -11.5294 C   0  0  0  0  0  0  0  0  0  0  0  0
   58.4082   -5.0955  -10.3062 C   0  0  0  0  0  0  0  0  0  0  0  0
   57.5398   -5.0640   -9.2052 C   0  0  0  0  0  0  0  0  0  0  0  0
   56.2924   -4.5504   -9.2798 C   0  0  0  0  0  0  0  0  0  0  0  0
   55.8986   -4.0406  -10.5452 C   0  0  0  0  0  0  0  0  0  0  0  0
   56.7100   -4.0531  -11.6368 C   0  0  0  0  0  0  0  0  0  0  0  0
   59.7631   -3.6307  -12.9786 C   0  0  0  0  0  0  0  0  0  0  0  0
   58.8234   -4.5789  -12.6358 O   0  0  0  0  0  0  0  0  0  0  0  0
   56.3322   -3.5596  -12.8743 O   0  0  0  0  0  0  0  0  0  0  0  0
   56.1370   -4.3226  -14.0250 C   0  0  0  0  0  0  0  0  0  0  0  0
 28 29  1  0  0  0
 29 22  1  0  0  0
 22 23  2  0  0  0
 23 24  1  0  0  0
 24 25  2  0  0  0
 25 26  1  0  0  0
 26 27  2  0  0  0
 27 30  1  0  0  0
 30 31  1  0  0  0
 25 19  1  0  0  0
 19 20  2  0  0  0
 19 21  2  0  0  0
 19 17  1  0  0  0
 17  1  1  0  0  0
  1  2  2  0  0  0
  2  3  1  0  0  0
  3  4  2  0  0  0
  4  5  1  0  0  0
  5  6  2  0  0  0
  5 13  1  0  0  0
 13 14  1  0  0  0
 13 15  1  0  0  0
 13 16  1  0  0  0
  3  7  1  0  0  0
  7  8  1  0  0  0
  7  9  1  0  0  0
  7 10  1  0  0  0
 27 22  1  0  0  0
  6  1  1  0  0  0
 17 18  1  0  0  0
 10 11  1  0  0  0
 10 12  1  0  0  0
M  END
> <minimizedAffinity>
-9.36045

> <CNNscore>
0.2799100876

> <CNNaffinity>
6.3666677475

> <CNN_VS>
1.7820944786

> <CNNaffinity_variance>
0.2216005772

$$$$
[H]c1c([H])c(S(=O)(=O)N([H])c2c([H])c(C(F)(F)F)c([H])c(C(N([H])[H])(C([H])([H])[H])C([H])([H])[H])c2[H])c([H])c(OC([H])([H])[H])c1OC([H])([H])[H]


 31 32  0  0  0  0  0  0  0  0999 V2000
   52.6165   -4.8145   -7.1501 C   0  0  0  0  0  0  0  0  0  0  0  0
   53.6079   -5.5185   -6.4205 C   0  0  0  0  0  0  0  0  0  0  0  0
   53.4445   -5.8572   -5.0932 C   0  0  0  0  0  0  0  0  0  0  0  0
   52.2495   -5.4593   -4.5317 C   0  0  0  0  0  0  0  0  0  0  0  0
   51.2561   -4.7641   -5.2074 C   0  0  0  0  0  0  0  0  0  0  0  0
   51.4868   -4.4581   -6.5399 C   0  0  0  0  0  0  0  0  0  0  0  0
   54.4765   -6.6906   -4.4157 C   0  0  0  0  0  0  0  0  0  0  0  0
   55.5268   -5.7502   -3.8478 C   0  0  0  0  0  0  0  0  0  0  0  0
   55.1833   -7.4662   -5.5076 C   0  0  0  0  0  0  0  0  0  0  0  0
   53.9835   -7.4865   -3.3422 N   0  0  0  0  0  0  0  0  0  0  0  0
   54.7574   -7.7292   -2.6994 H   0  0  0  0  0  0  0  0  0  0  0  0
   53.3799   -8.2848   -3.5586 H   0  0  0  0  0  0  0  0  0  0  0  0
   50.0215   -4.4116   -4.4623 C   0  0  0  0  0  0  0  0  0  0  0  0
   50.1805   -4.1547   -3.1548 F   0  0  0  0  0  0  0  0  0  0  0  0
   49.4089   -3.3395   -5.1476 F   0  0  0  0  0  0  0  0  0  0  0  0
   49.1409   -5.4866   -4.6102 F   0  0  0  0  0  0  0  0  0  0  0  0
   52.9502   -4.7362   -8.5539 N   0  0  0  0  0  0  0  0  0  0  0  0
   52.4032   -5.3767   -9.1981 H   0  0  0  0  0  0  0  0  0  0  0  0
   54.1573   -3.6739   -9.0838 S   0  0  0  0  0  0  0  0  0  0  0  0
   54.1897   -2.4355   -8.2215 O   0  0  0  0  0  0  0  0  0  0  0  0
   53.7378   -3.1752  -10.4835 O   0  0  0  0  0  0  0  0  0  0  0  0
   58.3358   -5.2298   -9.9369 C   0  0  0  0  0  0  0  0  0  0  0  0
   57.8643   -5.2653   -8.6417 C   0  0  0  0  0  0  0  0  0  0  0  0
   56.5647   -4.8337   -8.3386 C   0  0  0  0  0  0  0  0  0  0  0  0
   55.7169   -4.3672   -9.2815 C   0  0  0  0  0  0  0  0  0  0  0  0
   56.2127   -4.3383  -10.6118 C   0  0  0  0  0  0  0  0  0  0  0  0
   57.4657   -4.7481  -10.9470 C   0  0  0  0  0  0  0  0  0  0  0  0
   60.5018   -6.3419   -9.5430 C   0  0  0  0  0  0  0  0  0  0  0  0
   59.6002   -5.6183  -10.2935 O   0  0  0  0  0  0  0  0  0  0  0  0
   57.9554   -4.7246  -12.2422 O   0  0  0  0  0  0  0  0  0  0  0  0
   57.4655   -3.9311  -13.2788 C   0  0  0  0  0  0  0  0  0  0  0  0
 28 29  1  0  0  0
 29 22  1  0  0  0
 22 23  2  0  0  0
 23 24  1  0  0  0
 24 25  2  0  0  0
 25 26  1  0  0  0
 26 27  2  0  0  0
 27 30  1  0  0  0
 30 31  1  0  0  0
 25 19  1  0  0  0
 19 20  2  0  0  0
 19 21  2  0  0  0
 19 17  1  0  0  0
 17  1  1  0  0  0
  1  2  2  0  0  0
  2  3  1  0  0  0
  3  4  2  0  0  0
  4  5  1  0  0  0
  5  6  2  0  0  0
  5 13  1  0  0  0
 13 14  1  0  0  0
 13 15  1  0  0  0
 13 16  1  0  0  0
  3  7  1  0  0  0
  7  8  1  0  0  0
  7  9  1  0  0  0
  7 10  1  0  0  0
 27 22  1  0  0  0
  6  1  1  0  0  0
 17 18  1  0  0  0
 10 11  1  0  0  0
 10 12  1  0  0  0
M  END
> <minimizedAffinity>
-8.97923

> <CNNscore>
0.2764914632

> <CNNaffinity>
6.2058048248

> <CNN_VS>
1.7158520222

> <CNNaffinity_variance>
0.1471840888

$$$$
[H]c1c([H])c(S(=O)(=O)N([H])c2c([H])c(C(F)(F)F)c([H])c(C(N([H])[H])(C([H])([H])[H])C([H])([H])[H])c2[H])c([H])c(OC([H])([H])[H])c1OC([H])([H])[H]


 31 32  0  0  0  0  0  0  0  0999 V2000
   52.7946   -6.0392   -5.9373 C   0  0  0  0  0  0  0  0  0  0  0  0
   52.0778   -5.1472   -6.7748 C   0  0  0  0  0  0  0  0  0  0  0  0
   50.9964   -4.4199   -6.3222 C   0  0  0  0  0  0  0  0  0  0  0  0
   50.6657   -4.6269   -4.9995 C   0  0  0  0  0  0  0  0  0  0  0  0
   51.3359   -5.4941   -4.1479 C   0  0  0  0  0  0  0  0  0  0  0  0
   52.4146   -6.1918   -4.6693 C   0  0  0  0  0  0  0  0  0  0  0  0
   50.3554   -3.4205   -7.2217 C   0  0  0  0  0  0  0  0  0  0  0  0
   51.4648   -2.6740   -7.9442 C   0  0  0  0  0  0  0  0  0  0  0  0
   49.7027   -2.3926   -6.3215 C   0  0  0  0  0  0  0  0  0  0  0  0
   49.4957   -3.9795   -8.2104 N   0  0  0  0  0  0  0  0  0  0  0  0
   49.3927   -3.3198   -9.0011 H   0  0  0  0  0  0  0  0  0  0  0  0
   48.6049   -4.3880   -7.9135 H   0  0  0  0  0  0  0  0  0  0  0  0
   50.8595   -5.6018   -2.7460 C   0  0  0  0  0  0  0  0  0  0  0  0
   50.8644   -6.8362   -2.2196 F   0  0  0  0  0  0  0  0  0  0  0  0
   51.6118   -4.6885   -1.9753 F   0  0  0  0  0  0  0  0  0  0  0  0
   49.5537   -5.1042   -2.7249 F   0  0  0  0  0  0  0  0  0  0  0  0
   53.9799   -6.5418   -6.5935 N   0  0  0  0  0  0  0  0  0  0  0  0
   53.8802   -7.4793   -7.0789 H   0  0  0  0  0  0  0  0  0  0  0  0
   55.4186   -5.6504   -6.5518 S   0  0  0  0  0  0  0  0  0  0  0  0
   56.5198   -6.4512   -5.9003 O   0  0  0  0  0  0  0  0  0  0  0  0
   55.1814   -4.4536   -5.6055 O   0  0  0  0  0  0  0  0  0  0  0  0
   56.9495   -4.2192  -10.5788 C   0  0  0  0  0  0  0  0  0  0  0  0
   55.7059   -3.8026  -10.1536 C   0  0  0  0  0  0  0  0  0  0  0  0
   55.2103   -4.1862   -8.8988 C   0  0  0  0  0  0  0  0  0  0  0  0
   55.9108   -4.9715   -8.0515 C   0  0  0  0  0  0  0  0  0  0  0  0
   57.1911   -5.3917   -8.4992 C   0  0  0  0  0  0  0  0  0  0  0  0
   57.7077   -5.0414   -9.7077 C   0  0  0  0  0  0  0  0  0  0  0  0
   56.8402   -3.8847  -13.0200 C   0  0  0  0  0  0  0  0  0  0  0  0
   57.4804   -3.8952  -11.7995 O   0  0  0  0  0  0  0  0  0  0  0  0
   58.9561   -5.4457  -10.1503 O   0  0  0  0  0  0  0  0  0  0  0  0
   59.9098   -6.1140   -9.3833 C   0  0  0  0  0  0  0  0  0  0  0  0
 28 29  1  0  0  0
 29 22  1  0  0  0
 22 23  2  0  0  0
 23 24  1  0  0  0
 24 25  2  0  0  0
 25 26  1  0  0  0
 26 27  2  0  0  0
 27 30  1  0  0  0
 30 31  1  0  0  0
 25 19  1  0  0  0
 19 20  2  0  0  0
 19 21  2  0  0  0
 19 17  1  0  0  0
 17  1  1  0  0  0
  1  2  2  0  0  0
  2  3  1  0  0  0
  3  4  2  0  0  0
  4  5  1  0  0  0
  5  6  2  0  0  0
  5 13  1  0  0  0
 13 14  1  0  0  0
 13 15  1  0  0  0
 13 16  1  0  0  0
  3  7  1  0  0  0
  7  8  1  0  0  0
  7  9  1  0  0  0
  7 10  1  0  0  0
 27 22  1  0  0  0
  6  1  1  0  0  0
 17 18  1  0  0  0
 10 11  1  0  0  0
 10 12  1  0  0  0
M  END
> <minimizedAffinity>
-8.85432

> <CNNscore>
0.2248471528

> <CNNaffinity>
6.2905645370

> <CNN_VS>
1.4144154787

> <CNNaffinity_variance>
0.2090184391

$$$$
[H]c1c([H])c(S(=O)(=O)N([H])c2c([H])c(C(F)(F)F)c([H])c(C(N([H])[H])(C([H])([H])[H])C([H])([H])[H])c2[H])c([H])c(OC([H])([H])[H])c1OC([H])([H])[H]


 31 32  0  0  0  0  0  0  0  0999 V2000
   54.9057   -5.0120   -8.1797 C   0  0  0  0  0  0  0  0  0  0  0  0
   56.0660   -5.0463   -8.9942 C   0  0  0  0  0  0  0  0  0  0  0  0
   57.2963   -5.4375   -8.5081 C   0  0  0  0  0  0  0  0  0  0  0  0
   57.3125   -5.7894   -7.1749 C   0  0  0  0  0  0  0  0  0  0  0  0
   56.2027   -5.7643   -6.3415 C   0  0  0  0  0  0  0  0  0  0  0  0
   54.9979   -5.3622   -6.8974 C   0  0  0  0  0  0  0  0  0  0  0  0
   58.4510   -5.5551   -9.4416 C   0  0  0  0  0  0  0  0  0  0  0  0
   59.7071   -5.1900   -8.6676 C   0  0  0  0  0  0  0  0  0  0  0  0
   58.2822   -4.4566  -10.4702 C   0  0  0  0  0  0  0  0  0  0  0  0
   58.6421   -6.8576   -9.9857 N   0  0  0  0  0  0  0  0  0  0  0  0
   59.6226   -6.9685  -10.2977 H   0  0  0  0  0  0  0  0  0  0  0  0
   57.9645   -7.2100  -10.6678 H   0  0  0  0  0  0  0  0  0  0  0  0
   56.3830   -6.1787   -4.9275 C   0  0  0  0  0  0  0  0  0  0  0  0
   55.4466   -7.0048   -4.4360 F   0  0  0  0  0  0  0  0  0  0  0  0
   57.6842   -6.7144   -4.8093 F   0  0  0  0  0  0  0  0  0  0  0  0
   56.4022   -5.0084   -4.1639 F   0  0  0  0  0  0  0  0  0  0  0  0
   53.7207   -4.7391   -8.9602 N   0  0  0  0  0  0  0  0  0  0  0  0
   53.4024   -5.5153   -9.6088 H   0  0  0  0  0  0  0  0  0  0  0  0
   52.9308   -3.2486   -8.8156 S   0  0  0  0  0  0  0  0  0  0  0  0
   52.5545   -2.7138  -10.1759 O   0  0  0  0  0  0  0  0  0  0  0  0
   53.9626   -2.2422   -8.2620 O   0  0  0  0  0  0  0  0  0  0  0  0
   49.6996   -3.3605   -5.6287 C   0  0  0  0  0  0  0  0  0  0  0  0
   49.6998   -2.3258   -6.5399 C   0  0  0  0  0  0  0  0  0  0  0  0
   50.6538   -2.2731   -7.5667 C   0  0  0  0  0  0  0  0  0  0  0  0
   51.6093   -3.2163   -7.7179 C   0  0  0  0  0  0  0  0  0  0  0  0
   51.5972   -4.2783   -6.7754 C   0  0  0  0  0  0  0  0  0  0  0  0
   50.6894   -4.3661   -5.7663 C   0  0  0  0  0  0  0  0  0  0  0  0
   47.6202   -2.7759   -4.4381 C   0  0  0  0  0  0  0  0  0  0  0  0
   48.8079   -3.4579   -4.5933 O   0  0  0  0  0  0  0  0  0  0  0  0
   50.6702   -5.3996   -4.8447 O   0  0  0  0  0  0  0  0  0  0  0  0
   51.7777   -5.8880   -4.1526 C   0  0  0  0  0  0  0  0  0  0  0  0
 28 29  1  0  0  0
 29 22  1  0  0  0
 22 23  2  0  0  0
 23 24  1  0  0  0
 24 25  2  0  0  0
 25 26  1  0  0  0
 26 27  2  0  0  0
 27 30  1  0  0  0
 30 31  1  0  0  0
 25 19  1  0  0  0
 19 20  2  0  0  0
 19 21  2  0  0  0
 19 17  1  0  0  0
 17  1  1  0  0  0
  1  2  2  0  0  0
  2  3  1  0  0  0
  3  4  2  0  0  0
  4  5  1  0  0  0
  5  6  2  0  0  0
  5 13  1  0  0  0
 13 14  1  0  0  0
 13 15  1  0  0  0
 13 16  1  0  0  0
  3  7  1  0  0  0
  7  8  1  0  0  0
  7  9  1  0  0  0
  7 10  1  0  0  0
 27 22  1  0  0  0
  6  1  1  0  0  0
 17 18  1  0  0  0
 10 11  1  0  0  0
 10 12  1  0  0  0
M  END
> <minimizedAffinity>
-6.63701

> <CNNscore>
0.2247610390

> <CNNaffinity>
6.2287430763

> <CNN_VS>
1.3999787569

> <CNNaffinity_variance>
0.1375223398

$$$$
[H]c1c([H])c(S(=O)(=O)N([H])c2c([H])c(C(F)(F)F)c([H])c(C(N([H])[H])(C([H])([H])[H])C([H])([H])[H])c2[H])c([H])c(OC([H])([H])[H])c1OC([H])([H])[H]


 31 32  0  0  0  0  0  0  0  0999 V2000
   53.8710   -5.2398   -6.8917 C   0  0  0  0  0  0  0  0  0  0  0  0
   54.4484   -5.8549   -5.7519 C   0  0  0  0  0  0  0  0  0  0  0  0
   53.7191   -6.1282   -4.6132 C   0  0  0  0  0  0  0  0  0  0  0  0
   52.3920   -5.7574   -4.6667 C   0  0  0  0  0  0  0  0  0  0  0  0
   51.7891   -5.1482   -5.7584 C   0  0  0  0  0  0  0  0  0  0  0  0
   52.5815   -4.9047   -6.8698 C   0  0  0  0  0  0  0  0  0  0  0  0
   54.3584   -6.8733   -3.4931 C   0  0  0  0  0  0  0  0  0  0  0  0
   53.2539   -7.3247   -2.5515 C   0  0  0  0  0  0  0  0  0  0  0  0
   55.1621   -5.8578   -2.7084 C   0  0  0  0  0  0  0  0  0  0  0  0
   55.0863   -8.0311   -3.8915 N   0  0  0  0  0  0  0  0  0  0  0  0
   55.1738   -8.6841   -3.0934 H   0  0  0  0  0  0  0  0  0  0  0  0
   55.9644   -7.9079   -4.4038 H   0  0  0  0  0  0  0  0  0  0  0  0
   50.3457   -4.8146   -5.6620 C   0  0  0  0  0  0  0  0  0  0  0  0
   50.0489   -3.5065   -5.6228 F   0  0  0  0  0  0  0  0  0  0  0  0
   49.6890   -5.4809   -6.7198 F   0  0  0  0  0  0  0  0  0  0  0  0
   49.8684   -5.4237   -4.4983 F   0  0  0  0  0  0  0  0  0  0  0  0
   54.7916   -5.2225   -8.0054 N   0  0  0  0  0  0  0  0  0  0  0  0
   55.4105   -6.0772   -8.1102 H   0  0  0  0  0  0  0  0  0  0  0  0
   54.8441   -3.8877   -9.0456 S   0  0  0  0  0  0  0  0  0  0  0  0
   54.8208   -2.6004   -8.2580 O   0  0  0  0  0  0  0  0  0  0  0  0
   53.5254   -3.8887   -9.8488 O   0  0  0  0  0  0  0  0  0  0  0  0
   58.2850   -4.3364  -11.9726 C   0  0  0  0  0  0  0  0  0  0  0  0
   57.1734   -3.6175  -12.3579 C   0  0  0  0  0  0  0  0  0  0  0  0
   56.1046   -3.4181  -11.4719 C   0  0  0  0  0  0  0  0  0  0  0  0
   56.1040   -3.9105  -10.2137 C   0  0  0  0  0  0  0  0  0  0  0  0
   57.2552   -4.6465   -9.8276 C   0  0  0  0  0  0  0  0  0  0  0  0
   58.3123   -4.8616  -10.6561 C   0  0  0  0  0  0  0  0  0  0  0  0
   60.1201   -3.6617  -13.4762 C   0  0  0  0  0  0  0  0  0  0  0  0
   59.3513   -4.5822  -12.7970 O   0  0  0  0  0  0  0  0  0  0  0  0
   59.4391   -5.5765  -10.2860 O   0  0  0  0  0  0  0  0  0  0  0  0
   59.7937   -5.9095   -8.9792 C   0  0  0  0  0  0  0  0  0  0  0  0
 28 29  1  0  0  0
 29 22  1  0  0  0
 22 23  2  0  0  0
 23 24  1  0  0  0
 24 25  2  0  0  0
 25 26  1  0  0  0
 26 27  2  0  0  0
 27 30  1  0  0  0
 30 31  1  0  0  0
 25 19  1  0  0  0
 19 20  2  0  0  0
 19 21  2  0  0  0
 19 17  1  0  0  0
 17  1  1  0  0  0
  1  2  2  0  0  0
  2  3  1  0  0  0
  3  4  2  0  0  0
  4  5  1  0  0  0
  5  6  2  0  0  0
  5 13  1  0  0  0
 13 14  1  0  0  0
 13 15  1  0  0  0
 13 16  1  0  0  0
  3  7  1  0  0  0
  7  8  1  0  0  0
  7  9  1  0  0  0
  7 10  1  0  0  0
 27 22  1  0  0  0
  6  1  1  0  0  0
 17 18  1  0  0  0
 10 11  1  0  0  0
 10 12  1  0  0  0
M  END
> <minimizedAffinity>
-8.52408

> <CNNscore>
0.2215776742

> <CNNaffinity>
5.9621877670

> <CNN_VS>
1.3210877180

> <CNNaffinity_variance>
0.1763386726

$$$$
[H]c1nc([H])c(-c2c([H])c3nc(N([H])C(=O)N([H])C([H])([H])C([H])([H])[H])sc3n(C3([H])C([H])([H])OC([H])([H])C3([H])[H])c2=O)c([H])c1[H]


 29 32  0  0  0  0  0  0  0  0999 V2000
   55.8409   -3.9706  -10.7035 C   0  0  0  0  0  0  0  0  0  0  0  0
   54.6287   -3.6347  -10.2100 N   0  0  0  0  0  0  0  0  0  0  0  0
   54.2895   -4.0289   -9.0377 C   0  0  0  0  0  0  0  0  0  0  0  0
   53.0524   -3.7721   -8.3847 C   0  0  0  0  0  0  0  0  0  0  0  0
   52.7556   -4.2362   -7.1383 C   0  0  0  0  0  0  0  0  0  0  0  0
   53.6871   -4.9887   -6.4748 C   0  0  0  0  0  0  0  0  0  0  0  0
   53.4550   -5.4337   -5.3325 O   0  0  0  0  0  0  0  0  0  0  0  0
   54.8884   -5.2488   -7.0908 N   0  0  0  0  0  0  0  0  0  0  0  0
   55.1789   -4.7868   -8.3163 C   0  0  0  0  0  0  0  0  0  0  0  0
   56.4940   -4.8709   -9.4373 S   0  0  0  0  0  0  0  0  0  0  0  0
   57.4866   -3.7325  -13.9868 N   0  0  0  0  0  0  0  0  0  0  0  0
   57.2746   -4.1681  -12.7758 C   0  0  0  0  0  0  0  0  0  0  0  0
   57.9448   -5.0773  -12.1905 O   0  0  0  0  0  0  0  0  0  0  0  0
   56.2160   -3.5855  -12.0295 N   0  0  0  0  0  0  0  0  0  0  0  0
   58.4779   -4.6722  -14.2420 H   0  0  0  0  0  0  0  0  0  0  0  0
   55.6670   -2.8250  -12.5182 H   0  0  0  0  0  0  0  0  0  0  0  0
   56.6067   -3.3519  -16.2852 C   0  0  0  0  0  0  0  0  0  0  0  0
   57.7263   -3.2599  -15.3189 C   0  0  0  0  0  0  0  0  0  0  0  0
   51.4321   -3.9077   -6.5706 C   0  0  0  0  0  0  0  0  0  0  0  0
   50.7733   -2.8017   -7.1495 C   0  0  0  0  0  0  0  0  0  0  0  0
   49.5318   -2.5097   -6.6642 C   0  0  0  0  0  0  0  0  0  0  0  0
   48.9382   -3.2610   -5.6527 C   0  0  0  0  0  0  0  0  0  0  0  0
   49.5894   -4.3082   -5.1201 N   0  0  0  0  0  0  0  0  0  0  0  0
   50.8080   -4.6078   -5.5851 C   0  0  0  0  0  0  0  0  0  0  0  0
   55.8090   -6.0269   -6.3696 C   0  0  0  0  0  0  0  0  0  0  0  0
   56.2563   -5.4866   -5.0374 C   0  0  0  0  0  0  0  0  0  0  0  0
   56.6790   -6.8202   -4.3809 C   0  0  0  0  0  0  0  0  0  0  0  0
   55.6104   -7.6598   -4.6827 O   0  0  0  0  0  0  0  0  0  0  0  0
   55.2536   -7.3752   -5.9972 C   0  0  0  0  0  0  0  0  0  0  0  0
 17 18  1  0  0  0
 18 11  1  0  0  0
 11 12  1  0  0  0
 12 13  2  0  0  0
 12 14  1  0  0  0
 14  1  1  0  0  0
  1  2  2  0  0  0
  2  3  1  0  0  0
  3  4  1  0  0  0
  4  5  2  0  0  0
  5 19  1  0  0  0
 19 20  2  0  0  0
 20 21  1  0  0  0
 21 22  2  0  0  0
 22 23  1  0  0  0
 23 24  2  0  0  0
  5  6  1  0  0  0
  6  7  2  0  0  0
  6  8  1  0  0  0
  8 25  1  0  0  0
 25 26  1  0  0  0
 26 27  1  0  0  0
 27 28  1  0  0  0
 28 29  1  0  0  0
  8  9  1  0  0  0
  9 10  1  0  0  0
 10  1  1  0  0  0
  9  3  2  0  0  0
 24 19  1  0  0  0
 29 25  1  0  0  0
 11 15  1  0  0  0
 14 16  1  0  0  0
M  END
> <minimizedAffinity>
-9.65463

> <CNNscore>
0.8367060423

> <CNNaffinity>
7.0771460533

> <CNN_VS>
5.9214906693

> <CNNaffinity_variance>
0.1663619727

$$$$
[H]c1nc([H])c(-c2c([H])c3nc(N([H])C(=O)N([H])C([H])([H])C([H])([H])[H])sc3n(C3([H])C([H])([H])OC([H])([H])C3([H])[H])c2=O)c([H])c1[H]


 29 32  0  0  0  0  0  0  0  0999 V2000
   54.4323   -4.1377   -8.6957 C   0  0  0  0  0  0  0  0  0  0  0  0
   54.4519   -3.9481  -10.0333 N   0  0  0  0  0  0  0  0  0  0  0  0
   55.5479   -4.1056  -10.6804 C   0  0  0  0  0  0  0  0  0  0  0  0
   55.7358   -3.9322  -12.0795 C   0  0  0  0  0  0  0  0  0  0  0  0
   56.9375   -4.1051  -12.6985 C   0  0  0  0  0  0  0  0  0  0  0  0
   58.0232   -4.4618  -11.9448 C   0  0  0  0  0  0  0  0  0  0  0  0
   59.1416   -4.6292  -12.4720 O   0  0  0  0  0  0  0  0  0  0  0  0
   57.8613   -4.6323  -10.5902 N   0  0  0  0  0  0  0  0  0  0  0  0
   56.6760   -4.4654   -9.9847 C   0  0  0  0  0  0  0  0  0  0  0  0
   56.0345   -4.5545   -8.3803 S   0  0  0  0  0  0  0  0  0  0  0  0
   51.1881   -2.8679   -7.5088 N   0  0  0  0  0  0  0  0  0  0  0  0
   52.2476   -2.9412   -8.2660 C   0  0  0  0  0  0  0  0  0  0  0  0
   52.4864   -2.2036   -9.2746 O   0  0  0  0  0  0  0  0  0  0  0  0
   53.2319   -3.9148   -7.9494 N   0  0  0  0  0  0  0  0  0  0  0  0
   50.5818   -1.9042   -8.3053 H   0  0  0  0  0  0  0  0  0  0  0  0
   53.0318   -4.5202   -7.1056 H   0  0  0  0  0  0  0  0  0  0  0  0
   49.8850   -3.7724   -5.5891 C   0  0  0  0  0  0  0  0  0  0  0  0
   50.0203   -2.7808   -6.6819 C   0  0  0  0  0  0  0  0  0  0  0  0
   57.0059   -3.8876  -14.1579 C   0  0  0  0  0  0  0  0  0  0  0  0
   58.1406   -3.1877  -14.6216 C   0  0  0  0  0  0  0  0  0  0  0  0
   58.2395   -3.0139  -15.9715 C   0  0  0  0  0  0  0  0  0  0  0  0
   57.2766   -3.5012  -16.8520 C   0  0  0  0  0  0  0  0  0  0  0  0
   56.2067   -4.1633  -16.3817 N   0  0  0  0  0  0  0  0  0  0  0  0
   56.0948   -4.3423  -15.0601 C   0  0  0  0  0  0  0  0  0  0  0  0
   59.0058   -4.9959   -9.8613 C   0  0  0  0  0  0  0  0  0  0  0  0
   58.7806   -5.7477   -8.5764 C   0  0  0  0  0  0  0  0  0  0  0  0
   60.1559   -6.4454   -8.4767 C   0  0  0  0  0  0  0  0  0  0  0  0
   60.3439   -6.9329   -9.7670 O   0  0  0  0  0  0  0  0  0  0  0  0
   59.9003   -5.9330  -10.6271 C   0  0  0  0  0  0  0  0  0  0  0  0
 17 18  1  0  0  0
 18 11  1  0  0  0
 11 12  1  0  0  0
 12 13  2  0  0  0
 12 14  1  0  0  0
 14  1  1  0  0  0
  1  2  2  0  0  0
  2  3  1  0  0  0
  3  4  1  0  0  0
  4  5  2  0  0  0
  5 19  1  0  0  0
 19 20  2  0  0  0
 20 21  1  0  0  0
 21 22  2  0  0  0
 22 23  1  0  0  0
 23 24  2  0  0  0
  5  6  1  0  0  0
  6  7  2  0  0  0
  6  8  1  0  0  0
  8 25  1  0  0  0
 25 26  1  0  0  0
 26 27  1  0  0  0
 27 28  1  0  0  0
 28 29  1  0  0  0
  8  9  1  0  0  0
  9 10  1  0  0  0
 10  1  1  0  0  0
  9  3  2  0  0  0
 24 19  1  0  0  0
 29 25  1  0  0  0
 11 15  1  0  0  0
 14 16  1  0  0  0
M  END
> <minimizedAffinity>
-7.65698

> <CNNscore>
0.7151744962

> <CNNaffinity>
6.5833930969

> <CNN_VS>
4.7082748413

> <CNNaffinity_variance>
0.1111404747

$$$$
[H]c1nc([H])c(-c2c([H])c3nc(N([H])C(=O)N([H])C([H])([H])C([H])([H])[H])sc3n(C3([H])C([H])([H])OC([H])([H])C3([H])[H])c2=O)c([H])c1[H]


 29 32  0  0  0  0  0  0  0  0999 V2000
   54.4008   -4.0856   -8.6801 C   0  0  0  0  0  0  0  0  0  0  0  0
   55.5103   -4.7533   -8.2942 N   0  0  0  0  0  0  0  0  0  0  0  0
   56.5091   -4.8398   -9.0940 C   0  0  0  0  0  0  0  0  0  0  0  0
   57.7361   -5.5143   -8.8440 C   0  0  0  0  0  0  0  0  0  0  0  0
   58.7522   -5.5758   -9.7499 C   0  0  0  0  0  0  0  0  0  0  0  0
   58.5929   -4.9625  -10.9635 C   0  0  0  0  0  0  0  0  0  0  0  0
   59.4982   -4.9958  -11.8214 O   0  0  0  0  0  0  0  0  0  0  0  0
   57.4129   -4.3070  -11.2239 N   0  0  0  0  0  0  0  0  0  0  0  0
   56.4162   -4.2448  -10.3281 C   0  0  0  0  0  0  0  0  0  0  0  0
   54.8238   -3.5753  -10.2295 S   0  0  0  0  0  0  0  0  0  0  0  0
   51.1595   -3.2296   -7.1613 N   0  0  0  0  0  0  0  0  0  0  0  0
   52.1467   -3.1582   -8.0108 C   0  0  0  0  0  0  0  0  0  0  0  0
   52.2095   -2.3665   -9.0046 O   0  0  0  0  0  0  0  0  0  0  0  0
   53.2568   -4.0238   -7.8228 N   0  0  0  0  0  0  0  0  0  0  0  0
   50.3805   -2.3157   -7.8604 H   0  0  0  0  0  0  0  0  0  0  0  0
   53.2027   -4.6746   -6.9909 H   0  0  0  0  0  0  0  0  0  0  0  0
   50.1159   -4.3751   -5.2118 C   0  0  0  0  0  0  0  0  0  0  0  0
   50.0700   -3.3016   -6.2324 C   0  0  0  0  0  0  0  0  0  0  0  0
   59.9753   -6.3139   -9.3743 C   0  0  0  0  0  0  0  0  0  0  0  0
   60.0772   -7.6290   -9.8769 C   0  0  0  0  0  0  0  0  0  0  0  0
   61.2198   -8.3105   -9.5731 C   0  0  0  0  0  0  0  0  0  0  0  0
   62.2375   -7.7437   -8.8097 C   0  0  0  0  0  0  0  0  0  0  0  0
   62.1125   -6.4899   -8.3440 N   0  0  0  0  0  0  0  0  0  0  0  0
   60.9979   -5.8079   -8.6334 C   0  0  0  0  0  0  0  0  0  0  0  0
   57.2980   -3.6962  -12.4836 C   0  0  0  0  0  0  0  0  0  0  0  0
   58.5748   -3.4828  -13.2524 C   0  0  0  0  0  0  0  0  0  0  0  0
   57.9758   -3.4195  -14.6756 C   0  0  0  0  0  0  0  0  0  0  0  0
   57.1055   -4.5058  -14.6878 O   0  0  0  0  0  0  0  0  0  0  0  0
   56.4789   -4.5139  -13.4455 C   0  0  0  0  0  0  0  0  0  0  0  0
 17 18  1  0  0  0
 18 11  1  0  0  0
 11 12  1  0  0  0
 12 13  2  0  0  0
 12 14  1  0  0  0
 14  1  1  0  0  0
  1  2  2  0  0  0
  2  3  1  0  0  0
  3  4  1  0  0  0
  4  5  2  0  0  0
  5 19  1  0  0  0
 19 20  2  0  0  0
 20 21  1  0  0  0
 21 22  2  0  0  0
 22 23  1  0  0  0
 23 24  2  0  0  0
  5  6  1  0  0  0
  6  7  2  0  0  0
  6  8  1  0  0  0
  8 25  1  0  0  0
 25 26  1  0  0  0
 26 27  1  0  0  0
 27 28  1  0  0  0
 28 29  1  0  0  0
  8  9  1  0  0  0
  9 10  1  0  0  0
 10  1  1  0  0  0
  9  3  2  0  0  0
 24 19  1  0  0  0
 29 25  1  0  0  0
 11 15  1  0  0  0
 14 16  1  0  0  0
M  END
> <minimizedAffinity>
-7.60557

> <CNNscore>
0.6538131237

> <CNNaffinity>
6.4893503189

> <CNN_VS>
4.2428221703

> <CNNaffinity_variance>
0.1928830296

$$$$
[H]c1nc([H])c(-c2c([H])c3nc(N([H])C(=O)N([H])C([H])([H])C([H])([H])[H])sc3n(C3([H])C([H])([H])OC([H])([H])C3([H])[H])c2=O)c([H])c1[H]


 29 32  0  0  0  0  0  0  0  0999 V2000
   54.3866   -4.3647   -8.9049 C   0  0  0  0  0  0  0  0  0  0  0  0
   53.1737   -3.9873   -8.4441 N   0  0  0  0  0  0  0  0  0  0  0  0
   52.7952   -4.3583   -7.2762 C   0  0  0  0  0  0  0  0  0  0  0  0
   51.5512   -4.0576   -6.6557 C   0  0  0  0  0  0  0  0  0  0  0  0
   51.2114   -4.4989   -5.4120 C   0  0  0  0  0  0  0  0  0  0  0  0
   52.1039   -5.2715   -4.7187 C   0  0  0  0  0  0  0  0  0  0  0  0
   51.8316   -5.6968   -3.5778 O   0  0  0  0  0  0  0  0  0  0  0  0
   53.3110   -5.5741   -5.3031 N   0  0  0  0  0  0  0  0  0  0  0  0
   53.6441   -5.1344   -6.5259 C   0  0  0  0  0  0  0  0  0  0  0  0
   54.9822   -5.2700   -7.6143 S   0  0  0  0  0  0  0  0  0  0  0  0
   56.3182   -3.9136  -12.0050 N   0  0  0  0  0  0  0  0  0  0  0  0
   56.0855   -4.2777  -10.7744 C   0  0  0  0  0  0  0  0  0  0  0  0
   56.9174   -4.8580  -10.0066 O   0  0  0  0  0  0  0  0  0  0  0  0
   54.8042   -4.0055  -10.2255 N   0  0  0  0  0  0  0  0  0  0  0  0
   57.5789   -4.4972  -12.0287 H   0  0  0  0  0  0  0  0  0  0  0  0
   54.1191   -3.5163  -10.8656 H   0  0  0  0  0  0  0  0  0  0  0  0
   56.1948   -4.4616  -14.4312 C   0  0  0  0  0  0  0  0  0  0  0  0
   56.5822   -3.5170  -13.3571 C   0  0  0  0  0  0  0  0  0  0  0  0
   49.8853   -4.1249   -4.8796 C   0  0  0  0  0  0  0  0  0  0  0  0
   49.2545   -3.0333   -5.5146 C   0  0  0  0  0  0  0  0  0  0  0  0
   48.0110   -2.7007   -5.0616 C   0  0  0  0  0  0  0  0  0  0  0  0
   47.3893   -3.3987   -4.0291 C   0  0  0  0  0  0  0  0  0  0  0  0
   48.0142   -4.4332   -3.4429 N   0  0  0  0  0  0  0  0  0  0  0  0
   49.2344   -4.7724   -3.8757 C   0  0  0  0  0  0  0  0  0  0  0  0
   54.1905   -6.3713   -4.5521 C   0  0  0  0  0  0  0  0  0  0  0  0
   54.9293   -7.4516   -5.2963 C   0  0  0  0  0  0  0  0  0  0  0  0
   56.1325   -7.6059   -4.3387 C   0  0  0  0  0  0  0  0  0  0  0  0
   56.5008   -6.2852   -4.0980 O   0  0  0  0  0  0  0  0  0  0  0  0
   55.3145   -5.5735   -3.9480 C   0  0  0  0  0  0  0  0  0  0  0  0
 17 18  1  0  0  0
 18 11  1  0  0  0
 11 12  1  0  0  0
 12 13  2  0  0  0
 12 14  1  0  0  0
 14  1  1  0  0  0
  1  2  2  0  0  0
  2  3  1  0  0  0
  3  4  1  0  0  0
  4  5  2  0  0  0
  5 19  1  0  0  0
 19 20  2  0  0  0
 20 21  1  0  0  0
 21 22  2  0  0  0
 22 23  1  0  0  0
 23 24  2  0  0  0
  5  6  1  0  0  0
  6  7  2  0  0  0
  6  8  1  0  0  0
  8 25  1  0  0  0
 25 26  1  0  0  0
 26 27  1  0  0  0
 27 28  1  0  0  0
 28 29  1  0  0  0
  8  9  1  0  0  0
  9 10  1  0  0  0
 10  1  1  0  0  0
  9  3  2  0  0  0
 24 19  1  0  0  0
 29 25  1  0  0  0
 11 15  1  0  0  0
 14 16  1  0  0  0
M  END
> <minimizedAffinity>
-9.00217

> <CNNscore>
0.5373051763

> <CNNaffinity>
6.9936323166

> <CNN_VS>
3.7577147484

> <CNNaffinity_variance>
0.5022917986

$$$$
[H]c1nc([H])c(-c2c([H])c3nc(N([H])C(=O)N([H])C([H])([H])C([H])([H])[H])sc3n(C3([H])C([H])([H])OC([H])([H])C3([H])[H])c2=O)c([H])c1[H]


 29 32  0  0  0  0  0  0  0  0999 V2000
   57.7718   -7.7262   -4.2318 C   0  0  0  0  0  0  0  0  0  0  0  0
   58.7452   -7.5364   -3.3140 N   0  0  0  0  0  0  0  0  0  0  0  0
   59.9731   -7.6910   -3.6503 C   0  0  0  0  0  0  0  0  0  0  0  0
   61.1064   -7.5421   -2.8039 C   0  0  0  0  0  0  0  0  0  0  0  0
   62.3864   -7.7359   -3.2292 C   0  0  0  0  0  0  0  0  0  0  0  0
   62.6021   -8.0932   -4.5330 C   0  0  0  0  0  0  0  0  0  0  0  0
   63.7583   -8.2813   -4.9625 O   0  0  0  0  0  0  0  0  0  0  0  0
   61.5186   -8.2437   -5.3658 N   0  0  0  0  0  0  0  0  0  0  0  0
   60.2600   -8.0479   -4.9449 C   0  0  0  0  0  0  0  0  0  0  0  0
   58.6624   -8.1325   -5.6036 S   0  0  0  0  0  0  0  0  0  0  0  0
   54.5913   -7.7495   -2.3799 N   0  0  0  0  0  0  0  0  0  0  0  0
   55.8672   -7.9294   -2.5825 C   0  0  0  0  0  0  0  0  0  0  0  0
   56.6944   -8.3779   -1.7264 O   0  0  0  0  0  0  0  0  0  0  0  0
   56.3944   -7.6106   -3.8622 N   0  0  0  0  0  0  0  0  0  0  0  0
   54.6712   -8.0869   -1.0344 H   0  0  0  0  0  0  0  0  0  0  0  0
   55.7009   -7.2452   -4.5722 H   0  0  0  0  0  0  0  0  0  0  0  0
   52.4489   -6.7213   -3.1245 C   0  0  0  0  0  0  0  0  0  0  0  0
   53.1900   -7.5545   -2.1487 C   0  0  0  0  0  0  0  0  0  0  0  0
   63.4789   -7.5579   -2.2510 C   0  0  0  0  0  0  0  0  0  0  0  0
   64.7424   -7.2385   -2.7934 C   0  0  0  0  0  0  0  0  0  0  0  0
   65.7535   -7.0306   -1.9010 C   0  0  0  0  0  0  0  0  0  0  0  0
   65.5561   -7.1241   -0.5254 C   0  0  0  0  0  0  0  0  0  0  0  0
   64.3425   -7.4303   -0.0379 N   0  0  0  0  0  0  0  0  0  0  0  0
   63.3399   -7.6371   -0.9001 C   0  0  0  0  0  0  0  0  0  0  0  0
   61.7927   -8.6133   -6.6930 C   0  0  0  0  0  0  0  0  0  0  0  0
   63.1618   -9.1744   -6.9715 C   0  0  0  0  0  0  0  0  0  0  0  0
   62.8245   -9.9739   -8.2503 C   0  0  0  0  0  0  0  0  0  0  0  0
   61.6518  -10.6346   -7.8954 O   0  0  0  0  0  0  0  0  0  0  0  0
   60.8908   -9.7153   -7.1799 C   0  0  0  0  0  0  0  0  0  0  0  0
 17 18  1  0  0  0
 18 11  1  0  0  0
 11 12  1  0  0  0
 12 13  2  0  0  0
 12 14  1  0  0  0
 14  1  1  0  0  0
  1  2  2  0  0  0
  2  3  1  0  0  0
  3  4  1  0  0  0
  4  5  2  0  0  0
  5 19  1  0  0  0
 19 20  2  0  0  0
 20 21  1  0  0  0
 21 22  2  0  0  0
 22 23  1  0  0  0
 23 24  2  0  0  0
  5  6  1  0  0  0
  6  7  2  0  0  0
  6  8  1  0  0  0
  8 25  1  0  0  0
 25 26  1  0  0  0
 26 27  1  0  0  0
 27 28  1  0  0  0
 28 29  1  0  0  0
  8  9  1  0  0  0
  9 10  1  0  0  0
 10  1  1  0  0  0
  9  3  2  0  0  0
 24 19  1  0  0  0
 29 25  1  0  0  0
 11 15  1  0  0  0
 14 16  1  0  0  0
M  END
> <minimizedAffinity>
1.66016

> <CNNscore>
0.4565573931

> <CNNaffinity>
5.4404969215

> <CNN_VS>
2.4838991165

> <CNNaffinity_variance>
1.6307590008

$$$$
[H]c1nc([H])c(-c2c([H])c3nc(N([H])C(=O)N([H])C([H])([H])C([H])([H])[H])sc3n(C3([H])C([H])([H])OC([H])([H])C3([H])[H])c2=O)c([H])c1[H]


 29 32  0  0  0  0  0  0  0  0999 V2000
   55.0485   -3.9671   -9.8873 C   0  0  0  0  0  0  0  0  0  0  0  0
   55.5175   -4.5855   -8.7813 N   0  0  0  0  0  0  0  0  0  0  0  0
   54.7253   -4.8168   -7.7996 C   0  0  0  0  0  0  0  0  0  0  0  0
   55.0653   -5.4427   -6.5685 C   0  0  0  0  0  0  0  0  0  0  0  0
   54.1699   -5.6444   -5.5612 C   0  0  0  0  0  0  0  0  0  0  0  0
   52.8777   -5.2260   -5.7328 C   0  0  0  0  0  0  0  0  0  0  0  0
   52.0269   -5.3905   -4.8352 O   0  0  0  0  0  0  0  0  0  0  0  0
   52.5307   -4.6173   -6.9157 N   0  0  0  0  0  0  0  0  0  0  0  0
   53.4137   -4.4242   -7.9069 C   0  0  0  0  0  0  0  0  0  0  0  0
   53.4292   -3.7236   -9.4889 S   0  0  0  0  0  0  0  0  0  0  0  0
   57.8676   -3.9079  -12.2526 N   0  0  0  0  0  0  0  0  0  0  0  0
   57.1811   -4.2795  -11.2077 C   0  0  0  0  0  0  0  0  0  0  0  0
   57.5399   -5.1617  -10.3644 O   0  0  0  0  0  0  0  0  0  0  0  0
   55.9289   -3.6527  -10.9705 N   0  0  0  0  0  0  0  0  0  0  0  0
   58.8537   -4.8657  -12.0506 H   0  0  0  0  0  0  0  0  0  0  0  0
   55.6390   -2.9148  -11.6705 H   0  0  0  0  0  0  0  0  0  0  0  0
   60.1028   -3.6288  -13.3145 C   0  0  0  0  0  0  0  0  0  0  0  0
   58.6285   -3.5056  -13.3991 C   0  0  0  0  0  0  0  0  0  0  0  0
   54.6477   -6.2995   -4.3266 C   0  0  0  0  0  0  0  0  0  0  0  0
   54.9146   -5.4397   -3.2393 C   0  0  0  0  0  0  0  0  0  0  0  0
   55.3178   -6.0328   -2.0784 C   0  0  0  0  0  0  0  0  0  0  0  0
   55.4583   -7.4137   -1.9640 C   0  0  0  0  0  0  0  0  0  0  0  0
   55.1978   -8.2073   -3.0159 N   0  0  0  0  0  0  0  0  0  0  0  0
   54.8011   -7.6412   -4.1620 C   0  0  0  0  0  0  0  0  0  0  0  0
   51.1940   -4.2044   -7.0415 C   0  0  0  0  0  0  0  0  0  0  0  0
   50.4063   -4.0599   -5.7666 C   0  0  0  0  0  0  0  0  0  0  0  0
   49.3410   -3.0595   -6.2692 C   0  0  0  0  0  0  0  0  0  0  0  0
   50.1063   -2.1164   -6.9493 O   0  0  0  0  0  0  0  0  0  0  0  0
   51.0715   -2.8334   -7.6498 C   0  0  0  0  0  0  0  0  0  0  0  0
 17 18  1  0  0  0
 18 11  1  0  0  0
 11 12  1  0  0  0
 12 13  2  0  0  0
 12 14  1  0  0  0
 14  1  1  0  0  0
  1  2  2  0  0  0
  2  3  1  0  0  0
  3  4  1  0  0  0
  4  5  2  0  0  0
  5 19  1  0  0  0
 19 20  2  0  0  0
 20 21  1  0  0  0
 21 22  2  0  0  0
 22 23  1  0  0  0
 23 24  2  0  0  0
  5  6  1  0  0  0
  6  7  2  0  0  0
  6  8  1  0  0  0
  8 25  1  0  0  0
 25 26  1  0  0  0
 26 27  1  0  0  0
 27 28  1  0  0  0
 28 29  1  0  0  0
  8  9  1  0  0  0
  9 10  1  0  0  0
 10  1  1  0  0  0
  9  3  2  0  0  0
 24 19  1  0  0  0
 29 25  1  0  0  0
 11 15  1  0  0  0
 14 16  1  0  0  0
M  END
> <minimizedAffinity>
-9.13766

> <CNNscore>
0.4198317230

> <CNNaffinity>
6.7162690163

> <CNN_VS>
2.8197028637

> <CNNaffinity_variance>
0.2139534205

$$$$
[H]c1nc([H])c(-c2c([H])c3nc(N([H])C(=O)N([H])C([H])([H])C([H])([H])[H])sc3n(C3([H])C([H])([H])OC([H])([H])C3([H])[H])c2=O)c([H])c1[H]


 29 32  0  0  0  0  0  0  0  0999 V2000
   54.9561   -4.3302   -9.3935 C   0  0  0  0  0  0  0  0  0  0  0  0
   55.6709   -4.8182   -8.3559 N   0  0  0  0  0  0  0  0  0  0  0  0
   55.0792   -5.0952   -7.2523 C   0  0  0  0  0  0  0  0  0  0  0  0
   55.6882   -5.6004   -6.0704 C   0  0  0  0  0  0  0  0  0  0  0  0
   54.9953   -5.8601   -4.9261 C   0  0  0  0  0  0  0  0  0  0  0  0
   53.6469   -5.6250   -4.9028 C   0  0  0  0  0  0  0  0  0  0  0  0
   52.9756   -5.8483   -3.8750 O   0  0  0  0  0  0  0  0  0  0  0  0
   53.0409   -5.1350   -6.0354 N   0  0  0  0  0  0  0  0  0  0  0  0
   53.7252   -4.8844   -7.1616 C   0  0  0  0  0  0  0  0  0  0  0  0
   53.3996   -4.2788   -8.7493 S   0  0  0  0  0  0  0  0  0  0  0  0
   57.3559   -4.0111  -12.1655 N   0  0  0  0  0  0  0  0  0  0  0  0
   56.8982   -4.4051  -11.0095 C   0  0  0  0  0  0  0  0  0  0  0  0
   57.5159   -5.1543  -10.1876 O   0  0  0  0  0  0  0  0  0  0  0  0
   55.6069   -3.9652  -10.6144 N   0  0  0  0  0  0  0  0  0  0  0  0
   58.5057   -4.7853  -12.0693 H   0  0  0  0  0  0  0  0  0  0  0  0
   55.1011   -3.3365  -11.2981 H   0  0  0  0  0  0  0  0  0  0  0  0
   56.9346   -3.6081  -14.5867 C   0  0  0  0  0  0  0  0  0  0  0  0
   57.8666   -3.5829  -13.4348 C   0  0  0  0  0  0  0  0  0  0  0  0
   55.7437   -6.3759   -3.7617 C   0  0  0  0  0  0  0  0  0  0  0  0
   55.8708   -7.7797   -3.6867 C   0  0  0  0  0  0  0  0  0  0  0  0
   56.5943   -8.2708   -2.6390 C   0  0  0  0  0  0  0  0  0  0  0  0
   57.1817   -7.4365   -1.6910 C   0  0  0  0  0  0  0  0  0  0  0  0
   57.0433   -6.1039   -1.7876 N   0  0  0  0  0  0  0  0  0  0  0  0
   56.3368   -5.6063   -2.8096 C   0  0  0  0  0  0  0  0  0  0  0  0
   51.6566   -4.9086   -5.9597 C   0  0  0  0  0  0  0  0  0  0  0  0
   51.1367   -3.6604   -6.6218 C   0  0  0  0  0  0  0  0  0  0  0  0
   49.6772   -4.1144   -6.8496 C   0  0  0  0  0  0  0  0  0  0  0  0
   49.8351   -5.3947   -7.3729 O   0  0  0  0  0  0  0  0  0  0  0  0
   50.8603   -5.9878   -6.6424 C   0  0  0  0  0  0  0  0  0  0  0  0
 17 18  1  0  0  0
 18 11  1  0  0  0
 11 12  1  0  0  0
 12 13  2  0  0  0
 12 14  1  0  0  0
 14  1  1  0  0  0
  1  2  2  0  0  0
  2  3  1  0  0  0
  3  4  1  0  0  0
  4  5  2  0  0  0
  5 19  1  0  0  0
 19 20  2  0  0  0
 20 21  1  0  0  0
 21 22  2  0  0  0
 22 23  1  0  0  0
 23 24  2  0  0  0
  5  6  1  0  0  0
  6  7  2  0  0  0
  6  8  1  0  0  0
  8 25  1  0  0  0
 25 26  1  0  0  0
 26 27  1  0  0  0
 27 28  1  0  0  0
 28 29  1  0  0  0
  8  9  1  0  0  0
  9 10  1  0  0  0
 10  1  1  0  0  0
  9  3  2  0  0  0
 24 19  1  0  0  0
 29 25  1  0  0  0
 11 15  1  0  0  0
 14 16  1  0  0  0
M  END
> <minimizedAffinity>
-8.06887

> <CNNscore>
0.3948388100

> <CNNaffinity>
6.6492409706

> <CNN_VS>
2.6253783703

> <CNNaffinity_variance>
0.0776718110

$$$$
[H]c1nc([H])c(-c2c([H])c3nc(N([H])C(=O)N([H])C([H])([H])C([H])([H])[H])sc3n(C3([H])C([H])([H])OC([H])([H])C3([H])[H])c2=O)c([H])c1[H]


 29 32  0  0  0  0  0  0  0  0999 V2000
   51.3723   -3.3756   -6.8539 C   0  0  0  0  0  0  0  0  0  0  0  0
   52.6842   -3.6773   -6.9711 N   0  0  0  0  0  0  0  0  0  0  0  0
   53.1714   -4.6589   -6.3049 C   0  0  0  0  0  0  0  0  0  0  0  0
   54.5258   -5.0932   -6.3084 C   0  0  0  0  0  0  0  0  0  0  0  0
   54.9758   -6.1406   -5.5617 C   0  0  0  0  0  0  0  0  0  0  0  0
   54.0885   -6.8129   -4.7649 C   0  0  0  0  0  0  0  0  0  0  0  0
   54.4596   -7.7767   -4.0648 O   0  0  0  0  0  0  0  0  0  0  0  0
   52.7753   -6.4063   -4.7470 N   0  0  0  0  0  0  0  0  0  0  0  0
   52.3348   -5.3775   -5.4866 C   0  0  0  0  0  0  0  0  0  0  0  0
   50.8439   -4.5429   -5.7591 S   0  0  0  0  0  0  0  0  0  0  0  0
   49.0834   -0.8611   -8.2623 N   0  0  0  0  0  0  0  0  0  0  0  0
   49.4391   -1.9351   -7.6134 C   0  0  0  0  0  0  0  0  0  0  0  0
   48.6467   -2.7415   -7.0301 O   0  0  0  0  0  0  0  0  0  0  0  0
   50.8221   -2.2517   -7.5477 N   0  0  0  0  0  0  0  0  0  0  0  0
   47.7446   -0.9916   -7.9139 H   0  0  0  0  0  0  0  0  0  0  0  0
   51.4757   -1.5820   -8.0406 H   0  0  0  0  0  0  0  0  0  0  0  0
   49.7401    1.3021   -9.3068 C   0  0  0  0  0  0  0  0  0  0  0  0
   48.6838    0.3179   -8.9733 C   0  0  0  0  0  0  0  0  0  0  0  0
   56.4085   -6.4902   -5.6461 C   0  0  0  0  0  0  0  0  0  0  0  0
   57.1041   -5.9646   -6.7562 C   0  0  0  0  0  0  0  0  0  0  0  0
   58.4379   -6.2442   -6.8274 C   0  0  0  0  0  0  0  0  0  0  0  0
   59.0862   -7.0055   -5.8578 C   0  0  0  0  0  0  0  0  0  0  0  0
   58.3981   -7.4933   -4.8124 N   0  0  0  0  0  0  0  0  0  0  0  0
   57.0891   -7.2278   -4.7277 C   0  0  0  0  0  0  0  0  0  0  0  0
   51.9056   -7.1269   -3.9119 C   0  0  0  0  0  0  0  0  0  0  0  0
   52.5184   -7.7938   -2.7091 C   0  0  0  0  0  0  0  0  0  0  0  0
   51.2523   -7.8807   -1.8272 C   0  0  0  0  0  0  0  0  0  0  0  0
   50.7071   -6.6059   -1.9514 O   0  0  0  0  0  0  0  0  0  0  0  0
   50.8513   -6.2518   -3.2893 C   0  0  0  0  0  0  0  0  0  0  0  0
 17 18  1  0  0  0
 18 11  1  0  0  0
 11 12  1  0  0  0
 12 13  2  0  0  0
 12 14  1  0  0  0
 14  1  1  0  0  0
  1  2  2  0  0  0
  2  3  1  0  0  0
  3  4  1  0  0  0
  4  5  2  0  0  0
  5 19  1  0  0  0
 19 20  2  0  0  0
 20 21  1  0  0  0
 21 22  2  0  0  0
 22 23  1  0  0  0
 23 24  2  0  0  0
  5  6  1  0  0  0
  6  7  2  0  0  0
  6  8  1  0  0  0
  8 25  1  0  0  0
 25 26  1  0  0  0
 26 27  1  0  0  0
 27 28  1  0  0  0
 28 29  1  0  0  0
  8  9  1  0  0  0
  9 10  1  0  0  0
 10  1  1  0  0  0
  9  3  2  0  0  0
 24 19  1  0  0  0
 29 25  1  0  0  0
 11 15  1  0  0  0
 14 16  1  0  0  0
M  END
> <minimizedAffinity>
9.37973

> <CNNscore>
0.3855894804

> <CNNaffinity>
6.3507356644

> <CNN_VS>
2.4487769604

> <CNNaffinity_variance>
1.4619625807

$$$$
[H]c1nc([H])c(-c2c([H])c3nc(N([H])C(=O)N([H])C([H])([H])C([H])([H])[H])sc3n(C3([H])C([H])([H])OC([H])([H])C3([H])[H])c2=O)c([H])c1[H]


 29 32  0  0  0  0  0  0  0  0999 V2000
   56.6426   -3.9225  -12.7474 C   0  0  0  0  0  0  0  0  0  0  0  0
   57.8185   -4.5076  -12.4299 N   0  0  0  0  0  0  0  0  0  0  0  0
   58.0357   -4.8810  -11.2224 C   0  0  0  0  0  0  0  0  0  0  0  0
   59.2191   -5.4957  -10.7277 C   0  0  0  0  0  0  0  0  0  0  0  0
   59.3846   -5.8550   -9.4237 C   0  0  0  0  0  0  0  0  0  0  0  0
   58.3682   -5.6151   -8.5385 C   0  0  0  0  0  0  0  0  0  0  0  0
   58.4795   -5.9277   -7.3358 O   0  0  0  0  0  0  0  0  0  0  0  0
   57.2172   -5.0200   -8.9980 N   0  0  0  0  0  0  0  0  0  0  0  0
   57.0559   -4.6715  -10.2833 C   0  0  0  0  0  0  0  0  0  0  0  0
   55.8436   -3.9211  -11.2636 S   0  0  0  0  0  0  0  0  0  0  0  0
   56.0053   -3.7131  -16.3661 N   0  0  0  0  0  0  0  0  0  0  0  0
   56.2455   -4.2825  -15.2175 C   0  0  0  0  0  0  0  0  0  0  0  0
   56.3599   -5.5347  -15.0240 O   0  0  0  0  0  0  0  0  0  0  0  0
   56.4030   -3.4511  -14.0769 N   0  0  0  0  0  0  0  0  0  0  0  0
   55.8417   -4.9239  -17.0279 H   0  0  0  0  0  0  0  0  0  0  0  0
   56.3144   -2.4107  -14.2448 H   0  0  0  0  0  0  0  0  0  0  0  0
   54.8256   -1.9301  -17.6431 C   0  0  0  0  0  0  0  0  0  0  0  0
   55.7408   -3.0955  -17.6325 C   0  0  0  0  0  0  0  0  0  0  0  0
   60.6644   -6.4797   -9.0314 C   0  0  0  0  0  0  0  0  0  0  0  0
   60.8147   -7.8400   -9.3767 C   0  0  0  0  0  0  0  0  0  0  0  0
   62.0074   -8.4213   -9.0578 C   0  0  0  0  0  0  0  0  0  0  0  0
   63.0286   -7.7149   -8.4270 C   0  0  0  0  0  0  0  0  0  0  0  0
   62.8569   -6.4210   -8.1096 N   0  0  0  0  0  0  0  0  0  0  0  0
   61.6928   -5.8360   -8.4159 C   0  0  0  0  0  0  0  0  0  0  0  0
   56.2054   -4.7934   -8.0503 C   0  0  0  0  0  0  0  0  0  0  0  0
   55.8650   -5.9393   -7.1349 C   0  0  0  0  0  0  0  0  0  0  0  0
   55.2635   -5.1264   -5.9663 C   0  0  0  0  0  0  0  0  0  0  0  0
   56.1926   -4.1036   -5.7974 O   0  0  0  0  0  0  0  0  0  0  0  0
   56.5643   -3.7030   -7.0771 C   0  0  0  0  0  0  0  0  0  0  0  0
 17 18  1  0  0  0
 18 11  1  0  0  0
 11 12  1  0  0  0
 12 13  2  0  0  0
 12 14  1  0  0  0
 14  1  1  0  0  0
  1  2  2  0  0  0
  2  3  1  0  0  0
  3  4  1  0  0  0
  4  5  2  0  0  0
  5 19  1  0  0  0
 19 20  2  0  0  0
 20 21  1  0  0  0
 21 22  2  0  0  0
 22 23  1  0  0  0
 23 24  2  0  0  0
  5  6  1  0  0  0
  6  7  2  0  0  0
  6  8  1  0  0  0
  8 25  1  0  0  0
 25 26  1  0  0  0
 26 27  1  0  0  0
 27 28  1  0  0  0
 28 29  1  0  0  0
  8  9  1  0  0  0
  9 10  1  0  0  0
 10  1  1  0  0  0
  9  3  2  0  0  0
 24 19  1  0  0  0
 29 25  1  0  0  0
 11 15  1  0  0  0
 14 16  1  0  0  0
M  END
> <minimizedAffinity>
-6.05797

> <CNNscore>
0.3587857485

> <CNNaffinity>
5.4843339920

> <CNN_VS>
1.9677008390

> <CNNaffinity_variance>
0.2644137740

$$$$
[H]OC(=O)[C@@]([H])(N([H])C(=O)[C@@]([H])(S[H])C([H])([H])C([H])(C([H])([H])[H])C([H])([H])[H])C([H])([H])c1c([H])n([H])c2c([H])c([H])c([H])c([H])c12


 27 28  0  0  0  0  0  0  0  0999 V2000
   51.1072   -5.2055   -4.2373 C   0  0  0  0  0  0  0  0  0  0  0  0
   53.1562   -6.2745   -3.3054 C   0  0  0  0  0  0  0  0  0  0  0  0
   53.8345   -5.3002   -3.7187 O   0  0  0  0  0  0  0  0  0  0  0  0
   51.7639   -6.2845   -3.5387 N   0  0  0  0  0  0  0  0  0  0  0  0
   51.2043   -7.0920   -3.1959 H   0  0  0  0  0  0  0  0  0  0  0  0
   53.8095   -7.4158   -2.5729 C   0  0  0  0  0  0  0  0  0  0  0  0
   52.5342   -8.4217   -1.8624 S   0  0  0  0  0  0  0  0  0  0  0  0
   52.9205   -9.1780   -0.7574 H   0  0  0  0  0  0  0  0  0  0  0  0
   54.7024   -8.0853   -3.5546 C   0  0  0  0  0  0  0  0  0  0  0  0
   56.8117   -7.0606   -4.4395 C   0  0  0  0  0  0  0  0  0  0  0  0
   56.1620   -7.8899   -3.3589 C   0  0  0  0  0  0  0  0  0  0  0  0
   56.5438   -7.4479   -1.9669 C   0  0  0  0  0  0  0  0  0  0  0  0
   49.8982   -4.7749   -3.4690 C   0  0  0  0  0  0  0  0  0  0  0  0
   49.2333   -3.5941   -3.7634 O   0  0  0  0  0  0  0  0  0  0  0  0
   49.4540   -5.4796   -2.5311 O   0  0  0  0  0  0  0  0  0  0  0  0
   49.3569   -3.1572   -4.6639 H   0  0  0  0  0  0  0  0  0  0  0  0
   50.7207   -5.6468   -5.6231 C   0  0  0  0  0  0  0  0  0  0  0  0
   51.0067   -4.5658   -6.5957 C   0  0  0  0  0  0  0  0  0  0  0  0
   50.1433   -3.5636   -7.0311 C   0  0  0  0  0  0  0  0  0  0  0  0
   50.7812   -2.7763   -7.9144 N   0  0  0  0  0  0  0  0  0  0  0  0
   52.0316   -3.2302   -8.0711 C   0  0  0  0  0  0  0  0  0  0  0  0
   53.0783   -2.7667   -8.8675 C   0  0  0  0  0  0  0  0  0  0  0  0
   54.2742   -3.4598   -8.8131 C   0  0  0  0  0  0  0  0  0  0  0  0
   54.4386   -4.5668   -8.0078 C   0  0  0  0  0  0  0  0  0  0  0  0
   53.3989   -5.0129   -7.2277 C   0  0  0  0  0  0  0  0  0  0  0  0
   52.1949   -4.3308   -7.2701 C   0  0  0  0  0  0  0  0  0  0  0  0
   50.3642   -1.9553   -8.3895 H   0  0  0  0  0  0  0  0  0  0  0  0
 10 11  1  0  0  0
 11 12  1  0  0  0
 11  9  1  0  0  0
  9  6  1  0  0  0
  6  7  1  0  0  0
  6  2  1  0  0  0
  2  3  2  0  0  0
  2  4  1  0  0  0
  4  1  1  0  0  0
  1 17  1  0  0  0
 17 18  1  0  0  0
 18 19  2  0  0  0
 19 20  1  0  0  0
 20 21  1  0  0  0
 21 22  2  0  0  0
 22 23  1  0  0  0
 23 24  2  0  0  0
 24 25  1  0  0  0
 25 26  2  0  0  0
  1 13  1  0  0  0
 13 14  1  0  0  0
 13 15  2  0  0  0
 26 18  1  0  0  0
 26 21  1  0  0  0
  7  8  1  0  0  0
  4  5  1  0  0  0
 20 27  1  0  0  0
 14 16  1  0  0  0
M  END
> <minimizedAffinity>
-7.65644

> <CNNscore>
0.6490726471

> <CNNaffinity>
6.4968366623

> <CNN_VS>
4.2169189453

> <CNNaffinity_variance>
0.0619194992

$$$$
[H]OC(=O)[C@@]([H])(N([H])C(=O)[C@@]([H])(S[H])C([H])([H])C([H])(C([H])([H])[H])C([H])([H])[H])C([H])([H])c1c([H])n([H])c2c([H])c([H])c([H])c([H])c12


 27 28  0  0  0  0  0  0  0  0999 V2000
   50.7336   -4.8952   -4.5828 C   0  0  0  0  0  0  0  0  0  0  0  0
   52.5881   -6.2847   -3.6668 C   0  0  0  0  0  0  0  0  0  0  0  0
   53.4131   -5.4354   -4.0889 O   0  0  0  0  0  0  0  0  0  0  0  0
   51.2110   -6.0664   -3.8873 N   0  0  0  0  0  0  0  0  0  0  0  0
   50.5297   -6.7707   -3.5372 H   0  0  0  0  0  0  0  0  0  0  0  0
   53.0522   -7.5169   -2.9372 C   0  0  0  0  0  0  0  0  0  0  0  0
   54.8104   -7.6441   -3.1253 S   0  0  0  0  0  0  0  0  0  0  0  0
   55.3310   -8.9296   -2.9891 H   0  0  0  0  0  0  0  0  0  0  0  0
   52.5489   -7.3916   -1.5443 C   0  0  0  0  0  0  0  0  0  0  0  0
   52.4226   -9.3838   -0.0284 C   0  0  0  0  0  0  0  0  0  0  0  0
   51.7168   -8.5143   -1.0402 C   0  0  0  0  0  0  0  0  0  0  0  0
   50.3309   -8.1066   -0.6024 C   0  0  0  0  0  0  0  0  0  0  0  0
   49.5255   -4.3564   -3.8844 C   0  0  0  0  0  0  0  0  0  0  0  0
   49.0269   -3.0934   -4.1660 O   0  0  0  0  0  0  0  0  0  0  0  0
   48.9302   -5.0422   -3.0190 O   0  0  0  0  0  0  0  0  0  0  0  0
   49.2709   -2.6366   -5.0313 H   0  0  0  0  0  0  0  0  0  0  0  0
   50.4062   -5.2397   -6.0107 C   0  0  0  0  0  0  0  0  0  0  0  0
   50.9297   -4.1901   -6.9165 C   0  0  0  0  0  0  0  0  0  0  0  0
   50.2714   -3.0471   -7.3634 C   0  0  0  0  0  0  0  0  0  0  0  0
   51.0878   -2.3473   -8.1701 N   0  0  0  0  0  0  0  0  0  0  0  0
   52.2568   -2.9943   -8.2656 C   0  0  0  0  0  0  0  0  0  0  0  0
   53.4176   -2.6833   -8.9732 C   0  0  0  0  0  0  0  0  0  0  0  0
   54.4795   -3.5639   -8.8718 C   0  0  0  0  0  0  0  0  0  0  0  0
   54.4070   -4.7075   -8.1051 C   0  0  0  0  0  0  0  0  0  0  0  0
   53.2571   -5.0020   -7.4127 C   0  0  0  0  0  0  0  0  0  0  0  0
   52.1844   -4.1313   -7.5030 C   0  0  0  0  0  0  0  0  0  0  0  0
   50.8427   -1.4547   -8.6358 H   0  0  0  0  0  0  0  0  0  0  0  0
 10 11  1  0  0  0
 11 12  1  0  0  0
 11  9  1  0  0  0
  9  6  1  0  0  0
  6  7  1  0  0  0
  6  2  1  0  0  0
  2  3  2  0  0  0
  2  4  1  0  0  0
  4  1  1  0  0  0
  1 17  1  0  0  0
 17 18  1  0  0  0
 18 19  2  0  0  0
 19 20  1  0  0  0
 20 21  1  0  0  0
 21 22  2  0  0  0
 22 23  1  0  0  0
 23 24  2  0  0  0
 24 25  1  0  0  0
 25 26  2  0  0  0
  1 13  1  0  0  0
 13 14  1  0  0  0
 13 15  2  0  0  0
 26 18  1  0  0  0
 26 21  1  0  0  0
  7  8  1  0  0  0
  4  5  1  0  0  0
 20 27  1  0  0  0
 14 16  1  0  0  0
M  END
> <minimizedAffinity>
-7.88278

> <CNNscore>
0.5772366524

> <CNNaffinity>
6.5557312965

> <CNN_VS>
3.7842082977

> <CNNaffinity_variance>
0.0571742132

$$$$
[H]OC(=O)[C@@]([H])(N([H])C(=O)[C@@]([H])(S[H])C([H])([H])C([H])(C([H])([H])[H])C([H])([H])[H])C([H])([H])c1c([H])n([H])c2c([H])c([H])c([H])c([H])c12


 27 28  0  0  0  0  0  0  0  0999 V2000
   54.6558   -6.3667   -5.6587 C   0  0  0  0  0  0  0  0  0  0  0  0
   52.2364   -6.1825   -6.2259 C   0  0  0  0  0  0  0  0  0  0  0  0
   52.5150   -6.4246   -7.4276 O   0  0  0  0  0  0  0  0  0  0  0  0
   53.2821   -6.1395   -5.2785 N   0  0  0  0  0  0  0  0  0  0  0  0
   53.0494   -5.9389   -4.2843 H   0  0  0  0  0  0  0  0  0  0  0  0
   50.8142   -5.9414   -5.7956 C   0  0  0  0  0  0  0  0  0  0  0  0
   50.8280   -5.4185   -4.1017 S   0  0  0  0  0  0  0  0  0  0  0  0
   49.6479   -5.6518   -3.3982 H   0  0  0  0  0  0  0  0  0  0  0  0
   50.2392   -4.9814   -6.7738 C   0  0  0  0  0  0  0  0  0  0  0  0
   51.3591   -2.9296   -7.6785 C   0  0  0  0  0  0  0  0  0  0  0  0
   50.5600   -3.5472   -6.5569 C   0  0  0  0  0  0  0  0  0  0  0  0
   49.3765   -2.7061   -6.1438 C   0  0  0  0  0  0  0  0  0  0  0  0
   55.3381   -7.1809   -4.6055 C   0  0  0  0  0  0  0  0  0  0  0  0
   56.4504   -6.7055   -3.9273 O   0  0  0  0  0  0  0  0  0  0  0  0
   54.9150   -8.3240   -4.3091 O   0  0  0  0  0  0  0  0  0  0  0  0
   56.6441   -5.7160   -3.9080 H   0  0  0  0  0  0  0  0  0  0  0  0
   55.3636   -5.0524   -5.8487 C   0  0  0  0  0  0  0  0  0  0  0  0
   56.2188   -5.1092   -7.0577 C   0  0  0  0  0  0  0  0  0  0  0  0
   57.5177   -5.6010   -7.1578 C   0  0  0  0  0  0  0  0  0  0  0  0
   57.9465   -5.4770   -8.4258 N   0  0  0  0  0  0  0  0  0  0  0  0
   56.9720   -4.9208   -9.1573 C   0  0  0  0  0  0  0  0  0  0  0  0
   56.9228   -4.5873  -10.5105 C   0  0  0  0  0  0  0  0  0  0  0  0
   55.7555   -4.0147  -10.9826 C   0  0  0  0  0  0  0  0  0  0  0  0
   54.6755   -3.7774  -10.1589 C   0  0  0  0  0  0  0  0  0  0  0  0
   54.7372   -4.1110   -8.8272 C   0  0  0  0  0  0  0  0  0  0  0  0
   55.8983   -4.6851   -8.3380 C   0  0  0  0  0  0  0  0  0  0  0  0
   58.8796   -5.7680   -8.7698 H   0  0  0  0  0  0  0  0  0  0  0  0
 10 11  1  0  0  0
 11 12  1  0  0  0
 11  9  1  0  0  0
  9  6  1  0  0  0
  6  7  1  0  0  0
  6  2  1  0  0  0
  2  3  2  0  0  0
  2  4  1  0  0  0
  4  1  1  0  0  0
  1 17  1  0  0  0
 17 18  1  0  0  0
 18 19  2  0  0  0
 19 20  1  0  0  0
 20 21  1  0  0  0
 21 22  2  0  0  0
 22 23  1  0  0  0
 23 24  2  0  0  0
 24 25  1  0  0  0
 25 26  2  0  0  0
  1 13  1  0  0  0
 13 14  1  0  0  0
 13 15  2  0  0  0
 26 18  1  0  0  0
 26 21  1  0  0  0
  7  8  1  0  0  0
  4  5  1  0  0  0
 20 27  1  0  0  0
 14 16  1  0  0  0
M  END
> <minimizedAffinity>
-7.88443

> <CNNscore>
0.4493455887

> <CNNaffinity>
6.1132168770

> <CNN_VS>
2.7469470501

> <CNNaffinity_variance>
0.0722777843

$$$$
[H]OC(=O)[C@@]([H])(N([H])C(=O)[C@@]([H])(S[H])C([H])([H])C([H])(C([H])([H])[H])C([H])([H])[H])C([H])([H])c1c([H])n([H])c2c([H])c([H])c([H])c([H])c12


 27 28  0  0  0  0  0  0  0  0999 V2000
   54.6670   -6.0305   -6.5170 C   0  0  0  0  0  0  0  0  0  0  0  0
   52.1774   -6.1136   -6.5828 C   0  0  0  0  0  0  0  0  0  0  0  0
   52.2335   -6.3782   -7.8104 O   0  0  0  0  0  0  0  0  0  0  0  0
   53.3811   -5.9255   -5.8697 N   0  0  0  0  0  0  0  0  0  0  0  0
   53.3325   -5.7065   -4.8536 H   0  0  0  0  0  0  0  0  0  0  0  0
   50.8530   -5.9975   -5.8768 C   0  0  0  0  0  0  0  0  0  0  0  0
   51.1642   -5.6403   -4.1685 S   0  0  0  0  0  0  0  0  0  0  0  0
   50.1470   -6.0080   -3.2898 H   0  0  0  0  0  0  0  0  0  0  0  0
   50.0678   -4.9824   -6.6268 C   0  0  0  0  0  0  0  0  0  0  0  0
   50.9763   -2.7928   -7.4410 C   0  0  0  0  0  0  0  0  0  0  0  0
   50.3488   -3.5600   -6.3028 C   0  0  0  0  0  0  0  0  0  0  0  0
   49.1887   -2.8310   -5.6693 C   0  0  0  0  0  0  0  0  0  0  0  0
   55.5684   -6.9013   -5.7004 C   0  0  0  0  0  0  0  0  0  0  0  0
   56.9313   -6.6593   -5.6169 O   0  0  0  0  0  0  0  0  0  0  0  0
   55.1068   -7.8802   -5.0663 O   0  0  0  0  0  0  0  0  0  0  0  0
   57.2966   -5.7483   -5.8486 H   0  0  0  0  0  0  0  0  0  0  0  0
   55.2713   -4.6633   -6.6905 C   0  0  0  0  0  0  0  0  0  0  0  0
   55.3110   -4.3073   -8.1286 C   0  0  0  0  0  0  0  0  0  0  0  0
   54.3356   -3.6416   -8.8668 C   0  0  0  0  0  0  0  0  0  0  0  0
   54.7503   -3.5086  -10.1385 N   0  0  0  0  0  0  0  0  0  0  0  0
   55.9630   -4.0648  -10.2563 C   0  0  0  0  0  0  0  0  0  0  0  0
   56.8094   -4.1855  -11.3581 C   0  0  0  0  0  0  0  0  0  0  0  0
   58.0211   -4.8235  -11.1627 C   0  0  0  0  0  0  0  0  0  0  0  0
   58.3903   -5.3250   -9.9326 C   0  0  0  0  0  0  0  0  0  0  0  0
   57.5468   -5.1992   -8.8549 C   0  0  0  0  0  0  0  0  0  0  0  0
   56.3300   -4.5633   -9.0330 C   0  0  0  0  0  0  0  0  0  0  0  0
   54.2119   -3.0487  -10.8951 H   0  0  0  0  0  0  0  0  0  0  0  0
 10 11  1  0  0  0
 11 12  1  0  0  0
 11  9  1  0  0  0
  9  6  1  0  0  0
  6  7  1  0  0  0
  6  2  1  0  0  0
  2  3  2  0  0  0
  2  4  1  0  0  0
  4  1  1  0  0  0
  1 17  1  0  0  0
 17 18  1  0  0  0
 18 19  2  0  0  0
 19 20  1  0  0  0
 20 21  1  0  0  0
 21 22  2  0  0  0
 22 23  1  0  0  0
 23 24  2  0  0  0
 24 25  1  0  0  0
 25 26  2  0  0  0
  1 13  1  0  0  0
 13 14  1  0  0  0
 13 15  2  0  0  0
 26 18  1  0  0  0
 26 21  1  0  0  0
  7  8  1  0  0  0
  4  5  1  0  0  0
 20 27  1  0  0  0
 14 16  1  0  0  0
M  END
> <minimizedAffinity>
-9.07942

> <CNNscore>
0.4413116276

> <CNNaffinity>
6.0502624512

> <CNN_VS>
2.6700510979

> <CNNaffinity_variance>
0.1504223049

$$$$
[H]OC(=O)[C@@]([H])(N([H])C(=O)[C@@]([H])(S[H])C([H])([H])C([H])(C([H])([H])[H])C([H])([H])[H])C([H])([H])c1c([H])n([H])c2c([H])c([H])c([H])c([H])c12


 27 28  0  0  0  0  0  0  0  0999 V2000
   54.3606   -4.7802   -7.0703 C   0  0  0  0  0  0  0  0  0  0  0  0
   55.7308   -3.8748   -8.9443 C   0  0  0  0  0  0  0  0  0  0  0  0
   55.1898   -2.7524   -8.7779 O   0  0  0  0  0  0  0  0  0  0  0  0
   55.3509   -4.9461   -8.1072 N   0  0  0  0  0  0  0  0  0  0  0  0
   55.7998   -5.8744   -8.2466 H   0  0  0  0  0  0  0  0  0  0  0  0
   56.7675   -4.0819  -10.0159 C   0  0  0  0  0  0  0  0  0  0  0  0
   57.8793   -5.3522   -9.4744 S   0  0  0  0  0  0  0  0  0  0  0  0
   59.1477   -5.3167  -10.0504 H   0  0  0  0  0  0  0  0  0  0  0  0
   56.0208   -4.3553  -11.2717 C   0  0  0  0  0  0  0  0  0  0  0  0
   58.1183   -3.5711  -12.3979 C   0  0  0  0  0  0  0  0  0  0  0  0
   56.6444   -3.8683  -12.5291 C   0  0  0  0  0  0  0  0  0  0  0  0
   56.3172   -4.7032  -13.7434 C   0  0  0  0  0  0  0  0  0  0  0  0
   54.7858   -5.5301   -5.8479 C   0  0  0  0  0  0  0  0  0  0  0  0
   55.8580   -5.1106   -5.0749 O   0  0  0  0  0  0  0  0  0  0  0  0
   54.1757   -6.5664   -5.4909 O   0  0  0  0  0  0  0  0  0  0  0  0
   56.1817   -4.1575   -5.1371 H   0  0  0  0  0  0  0  0  0  0  0  0
   53.0220   -5.2723   -7.5507 C   0  0  0  0  0  0  0  0  0  0  0  0
   52.0064   -4.2040   -7.3979 C   0  0  0  0  0  0  0  0  0  0  0  0
   51.8068   -3.0970   -8.2190 C   0  0  0  0  0  0  0  0  0  0  0  0
   50.7847   -2.3653   -7.7427 N   0  0  0  0  0  0  0  0  0  0  0  0
   50.3099   -2.9564   -6.6385 C   0  0  0  0  0  0  0  0  0  0  0  0
   49.2668   -2.5957   -5.7861 C   0  0  0  0  0  0  0  0  0  0  0  0
   49.0111   -3.4237   -4.7079 C   0  0  0  0  0  0  0  0  0  0  0  0
   49.7504   -4.5635   -4.4733 C   0  0  0  0  0  0  0  0  0  0  0  0
   50.7757   -4.9075   -5.3212 C   0  0  0  0  0  0  0  0  0  0  0  0
   51.0452   -4.0898   -6.4055 C   0  0  0  0  0  0  0  0  0  0  0  0
   50.4303   -1.4897   -8.1686 H   0  0  0  0  0  0  0  0  0  0  0  0
 10 11  1  0  0  0
 11 12  1  0  0  0
 11  9  1  0  0  0
  9  6  1  0  0  0
  6  7  1  0  0  0
  6  2  1  0  0  0
  2  3  2  0  0  0
  2  4  1  0  0  0
  4  1  1  0  0  0
  1 17  1  0  0  0
 17 18  1  0  0  0
 18 19  2  0  0  0
 19 20  1  0  0  0
 20 21  1  0  0  0
 21 22  2  0  0  0
 22 23  1  0  0  0
 23 24  2  0  0  0
 24 25  1  0  0  0
 25 26  2  0  0  0
  1 13  1  0  0  0
 13 14  1  0  0  0
 13 15  2  0  0  0
 26 18  1  0  0  0
 26 21  1  0  0  0
  7  8  1  0  0  0
  4  5  1  0  0  0
 20 27  1  0  0  0
 14 16  1  0  0  0
M  END
> <minimizedAffinity>
-8.80836

> <CNNscore>
0.4142342210

> <CNNaffinity>
6.0960960388

> <CNN_VS>
2.5252115726

> <CNNaffinity_variance>
0.0321838968

$$$$
[H]OC(=O)[C@@]([H])(N([H])C(=O)[C@@]([H])(S[H])C([H])([H])C([H])(C([H])([H])[H])C([H])([H])[H])C([H])([H])c1c([H])n([H])c2c([H])c([H])c([H])c([H])c12


 27 28  0  0  0  0  0  0  0  0999 V2000
   55.1130   -5.8414   -6.4293 C   0  0  0  0  0  0  0  0  0  0  0  0
   52.6724   -5.3387   -6.4336 C   0  0  0  0  0  0  0  0  0  0  0  0
   52.5809   -5.8660   -7.5711 O   0  0  0  0  0  0  0  0  0  0  0  0
   53.9337   -5.2956   -5.8010 N   0  0  0  0  0  0  0  0  0  0  0  0
   54.0073   -4.8587   -4.8595 H   0  0  0  0  0  0  0  0  0  0  0  0
   51.4623   -4.7606   -5.7500 C   0  0  0  0  0  0  0  0  0  0  0  0
   50.5080   -3.8832   -6.9593 S   0  0  0  0  0  0  0  0  0  0  0  0
   49.6824   -2.8816   -6.4520 H   0  0  0  0  0  0  0  0  0  0  0  0
   50.7814   -5.8967   -5.0754 C   0  0  0  0  0  0  0  0  0  0  0  0
   51.6404   -5.4721   -2.7593 C   0  0  0  0  0  0  0  0  0  0  0  0
   50.4389   -5.7036   -3.6427 C   0  0  0  0  0  0  0  0  0  0  0  0
   49.3300   -4.7079   -3.4026 C   0  0  0  0  0  0  0  0  0  0  0  0
   55.7110   -6.8896   -5.5454 C   0  0  0  0  0  0  0  0  0  0  0  0
   55.1350   -8.1444   -5.4151 O   0  0  0  0  0  0  0  0  0  0  0  0
   56.7577   -6.6546   -4.8954 O   0  0  0  0  0  0  0  0  0  0  0  0
   54.4923   -8.4793   -6.1164 H   0  0  0  0  0  0  0  0  0  0  0  0
   56.1102   -4.7463   -6.6959 C   0  0  0  0  0  0  0  0  0  0  0  0
   55.9601   -4.2537   -8.0856 C   0  0  0  0  0  0  0  0  0  0  0  0
   54.9564   -3.4321   -8.5925 C   0  0  0  0  0  0  0  0  0  0  0  0
   55.1771   -3.2110   -9.9000 N   0  0  0  0  0  0  0  0  0  0  0  0
   56.2905   -3.8604  -10.2644 C   0  0  0  0  0  0  0  0  0  0  0  0
   56.9350   -3.9468  -11.4981 C   0  0  0  0  0  0  0  0  0  0  0  0
   58.0881   -4.7083  -11.5615 C   0  0  0  0  0  0  0  0  0  0  0  0
   58.5915   -5.3614  -10.4564 C   0  0  0  0  0  0  0  0  0  0  0  0
   57.9465   -5.2677   -9.2466 C   0  0  0  0  0  0  0  0  0  0  0  0
   56.7909   -4.5096   -9.1654 C   0  0  0  0  0  0  0  0  0  0  0  0
   54.5779   -2.6311  -10.5151 H   0  0  0  0  0  0  0  0  0  0  0  0
 10 11  1  0  0  0
 11 12  1  0  0  0
 11  9  1  0  0  0
  9  6  1  0  0  0
  6  7  1  0  0  0
  6  2  1  0  0  0
  2  3  2  0  0  0
  2  4  1  0  0  0
  4  1  1  0  0  0
  1 17  1  0  0  0
 17 18  1  0  0  0
 18 19  2  0  0  0
 19 20  1  0  0  0
 20 21  1  0  0  0
 21 22  2  0  0  0
 22 23  1  0  0  0
 23 24  2  0  0  0
 24 25  1  0  0  0
 25 26  2  0  0  0
  1 13  1  0  0  0
 13 14  1  0  0  0
 13 15  2  0  0  0
 26 18  1  0  0  0
 26 21  1  0  0  0
  7  8  1  0  0  0
  4  5  1  0  0  0
 20 27  1  0  0  0
 14 16  1  0  0  0
M  END
> <minimizedAffinity>
-7.88899

> <CNNscore>
0.3507326841

> <CNNaffinity>
5.8141412735

> <CNN_VS>
2.0392093658

> <CNNaffinity_variance>
0.1102792993

$$$$
[H]OC(=O)[C@@]([H])(N([H])C(=O)[C@@]([H])(S[H])C([H])([H])C([H])(C([H])([H])[H])C([H])([H])[H])C([H])([H])c1c([H])n([H])c2c([H])c([H])c([H])c([H])c12


 27 28  0  0  0  0  0  0  0  0999 V2000
   53.5702   -5.7419   -5.2719 C   0  0  0  0  0  0  0  0  0  0  0  0
   54.8874   -4.8085   -7.1702 C   0  0  0  0  0  0  0  0  0  0  0  0
   55.6440   -4.2372   -6.3448 O   0  0  0  0  0  0  0  0  0  0  0  0
   53.8145   -5.5881   -6.6862 N   0  0  0  0  0  0  0  0  0  0  0  0
   53.1893   -6.0601   -7.3711 H   0  0  0  0  0  0  0  0  0  0  0  0
   55.1143   -4.6694   -8.6517 C   0  0  0  0  0  0  0  0  0  0  0  0
   53.9676   -3.4715   -9.2787 S   0  0  0  0  0  0  0  0  0  0  0  0
   53.6684   -3.5885  -10.6347 H   0  0  0  0  0  0  0  0  0  0  0  0
   56.5558   -4.3511   -8.8251 C   0  0  0  0  0  0  0  0  0  0  0  0
   57.2814   -3.9912  -11.1972 C   0  0  0  0  0  0  0  0  0  0  0  0
   57.2207   -4.9330  -10.0194 C   0  0  0  0  0  0  0  0  0  0  0  0
   58.5446   -5.5964   -9.7263 C   0  0  0  0  0  0  0  0  0  0  0  0
   54.7147   -6.4715   -4.6431 C   0  0  0  0  0  0  0  0  0  0  0  0
   55.6135   -5.8285   -3.8054 O   0  0  0  0  0  0  0  0  0  0  0  0
   54.8890   -7.6944   -4.8620 O   0  0  0  0  0  0  0  0  0  0  0  0
   55.3598   -4.9554   -3.3692 H   0  0  0  0  0  0  0  0  0  0  0  0
   52.2831   -6.4888   -5.0481 C   0  0  0  0  0  0  0  0  0  0  0  0
   51.2218   -5.5486   -4.6170 C   0  0  0  0  0  0  0  0  0  0  0  0
   50.6120   -5.4700   -3.3675 C   0  0  0  0  0  0  0  0  0  0  0  0
   49.6991   -4.4833   -3.3766 N   0  0  0  0  0  0  0  0  0  0  0  0
   49.6915   -3.9150   -4.5895 C   0  0  0  0  0  0  0  0  0  0  0  0
   48.9325   -2.8624   -5.1001 C   0  0  0  0  0  0  0  0  0  0  0  0
   49.1564   -2.4961   -6.4151 C   0  0  0  0  0  0  0  0  0  0  0  0
   50.0900   -3.1376   -7.2012 C   0  0  0  0  0  0  0  0  0  0  0  0
   50.8314   -4.1733   -6.6854 C   0  0  0  0  0  0  0  0  0  0  0  0
   50.6200   -4.5530   -5.3709 C   0  0  0  0  0  0  0  0  0  0  0  0
   49.1048   -4.2148   -2.5713 H   0  0  0  0  0  0  0  0  0  0  0  0
 10 11  1  0  0  0
 11 12  1  0  0  0
 11  9  1  0  0  0
  9  6  1  0  0  0
  6  7  1  0  0  0
  6  2  1  0  0  0
  2  3  2  0  0  0
  2  4  1  0  0  0
  4  1  1  0  0  0
  1 17  1  0  0  0
 17 18  1  0  0  0
 18 19  2  0  0  0
 19 20  1  0  0  0
 20 21  1  0  0  0
 21 22  2  0  0  0
 22 23  1  0  0  0
 23 24  2  0  0  0
 24 25  1  0  0  0
 25 26  2  0  0  0
  1 13  1  0  0  0
 13 14  1  0  0  0
 13 15  2  0  0  0
 26 18  1  0  0  0
 26 21  1  0  0  0
  7  8  1  0  0  0
  4  5  1  0  0  0
 20 27  1  0  0  0
 14 16  1  0  0  0
M  END
> <minimizedAffinity>
-8.28851

> <CNNscore>
0.2593437731

> <CNNaffinity>
5.9893865585

> <CNN_VS>
1.5533101559

> <CNNaffinity_variance>
0.2695452571

$$$$
[H]OC(=O)[C@@]([H])(N([H])C(=O)[C@@]([H])(S[H])C([H])([H])C([H])(C([H])([H])[H])C([H])([H])[H])C([H])([H])c1c([H])n([H])c2c([H])c([H])c([H])c([H])c12


 27 28  0  0  0  0  0  0  0  0999 V2000
   54.8194   -3.6643   -8.2458 C   0  0  0  0  0  0  0  0  0  0  0  0
   56.4237   -4.2464  -10.0615 C   0  0  0  0  0  0  0  0  0  0  0  0
   56.6359   -5.3507   -9.4997 O   0  0  0  0  0  0  0  0  0  0  0  0
   55.5104   -3.3455   -9.4723 N   0  0  0  0  0  0  0  0  0  0  0  0
   55.3362   -2.4319   -9.9389 H   0  0  0  0  0  0  0  0  0  0  0  0
   57.1271   -3.8826  -11.3417 C   0  0  0  0  0  0  0  0  0  0  0  0
   58.7786   -4.5229  -11.2688 S   0  0  0  0  0  0  0  0  0  0  0  0
   59.7061   -3.8676  -12.0765 H   0  0  0  0  0  0  0  0  0  0  0  0
   56.2738   -4.3932  -12.4465 C   0  0  0  0  0  0  0  0  0  0  0  0
   57.9740   -3.4767  -14.0439 C   0  0  0  0  0  0  0  0  0  0  0  0
   56.5257   -3.8196  -13.7935 C   0  0  0  0  0  0  0  0  0  0  0  0
   55.9012   -4.6017  -14.9235 C   0  0  0  0  0  0  0  0  0  0  0  0
   55.8176   -3.9626   -7.1724 C   0  0  0  0  0  0  0  0  0  0  0  0
   56.1088   -5.2643   -6.7930 O   0  0  0  0  0  0  0  0  0  0  0  0
   56.4200   -3.0321   -6.5851 O   0  0  0  0  0  0  0  0  0  0  0  0
   55.8909   -6.0303   -7.4116 H   0  0  0  0  0  0  0  0  0  0  0  0
   53.9069   -4.8420   -8.4580 C   0  0  0  0  0  0  0  0  0  0  0  0
   52.8925   -4.8960   -7.3790 C   0  0  0  0  0  0  0  0  0  0  0  0
   52.7997   -5.8242   -6.3450 C   0  0  0  0  0  0  0  0  0  0  0  0
   51.7405   -5.5283   -5.5719 N   0  0  0  0  0  0  0  0  0  0  0  0
   51.1382   -4.4386   -6.0658 C   0  0  0  0  0  0  0  0  0  0  0  0
   50.0114   -3.7416   -5.6306 C   0  0  0  0  0  0  0  0  0  0  0  0
   49.6265   -2.6334   -6.3635 C   0  0  0  0  0  0  0  0  0  0  0  0
   50.3203   -2.2229   -7.4821 C   0  0  0  0  0  0  0  0  0  0  0  0
   51.4292   -2.9187   -7.9000 C   0  0  0  0  0  0  0  0  0  0  0  0
   51.8283   -4.0305   -7.1779 C   0  0  0  0  0  0  0  0  0  0  0  0
   51.4478   -6.0622   -4.7335 H   0  0  0  0  0  0  0  0  0  0  0  0
 10 11  1  0  0  0
 11 12  1  0  0  0
 11  9  1  0  0  0
  9  6  1  0  0  0
  6  7  1  0  0  0
  6  2  1  0  0  0
  2  3  2  0  0  0
  2  4  1  0  0  0
  4  1  1  0  0  0
  1 17  1  0  0  0
 17 18  1  0  0  0
 18 19  2  0  0  0
 19 20  1  0  0  0
 20 21  1  0  0  0
 21 22  2  0  0  0
 22 23  1  0  0  0
 23 24  2  0  0  0
 24 25  1  0  0  0
 25 26  2  0  0  0
  1 13  1  0  0  0
 13 14  1  0  0  0
 13 15  2  0  0  0
 26 18  1  0  0  0
 26 21  1  0  0  0
  7  8  1  0  0  0
  4  5  1  0  0  0
 20 27  1  0  0  0
 14 16  1  0  0  0
M  END
> <minimizedAffinity>
-7.94440

> <CNNscore>
0.2474584430

> <CNNaffinity>
5.5964212418

> <CNN_VS>
1.3848817348

> <CNNaffinity_variance>
0.0944266170

$$$$
[H]OC(=O)[C@@]([H])(N([H])C(=O)[C@@]([H])(S[H])C([H])([H])C([H])(C([H])([H])[H])C([H])([H])[H])C([H])([H])c1c([H])n([H])c2c([H])c([H])c([H])c([H])c12


 27 28  0  0  0  0  0  0  0  0999 V2000
   54.0332   -5.9061   -5.7823 C   0  0  0  0  0  0  0  0  0  0  0  0
   55.4745   -4.8878   -7.5416 C   0  0  0  0  0  0  0  0  0  0  0  0
   55.8900   -4.0540   -6.6976 O   0  0  0  0  0  0  0  0  0  0  0  0
   54.5292   -5.8550   -7.1369 N   0  0  0  0  0  0  0  0  0  0  0  0
   54.1865   -6.5443   -7.8371 H   0  0  0  0  0  0  0  0  0  0  0  0
   55.9715   -4.8628   -8.9622 C   0  0  0  0  0  0  0  0  0  0  0  0
   55.1136   -3.5752   -9.8278 S   0  0  0  0  0  0  0  0  0  0  0  0
   55.0423   -3.7341  -11.2104 H   0  0  0  0  0  0  0  0  0  0  0  0
   57.4499   -4.7290   -8.8850 C   0  0  0  0  0  0  0  0  0  0  0  0
   58.2757   -4.8358  -11.2491 C   0  0  0  0  0  0  0  0  0  0  0  0
   58.2345   -5.4911   -9.8902 C   0  0  0  0  0  0  0  0  0  0  0  0
   59.5950   -5.9308   -9.4062 C   0  0  0  0  0  0  0  0  0  0  0  0
   54.7824   -6.9486   -5.0144 C   0  0  0  0  0  0  0  0  0  0  0  0
   55.9773   -7.4754   -5.4809 O   0  0  0  0  0  0  0  0  0  0  0  0
   54.3417   -7.3741   -3.9197 O   0  0  0  0  0  0  0  0  0  0  0  0
   56.5123   -6.9749   -6.1739 H   0  0  0  0  0  0  0  0  0  0  0  0
   52.5594   -6.2104   -5.7828 C   0  0  0  0  0  0  0  0  0  0  0  0
   51.7974   -5.0175   -6.2218 C   0  0  0  0  0  0  0  0  0  0  0  0
   52.0025   -4.2516   -7.3666 C   0  0  0  0  0  0  0  0  0  0  0  0
   51.1004   -3.2557   -7.4061 N   0  0  0  0  0  0  0  0  0  0  0  0
   50.3132   -3.3449   -6.3261 C   0  0  0  0  0  0  0  0  0  0  0  0
   49.2398   -2.5574   -5.9108 C   0  0  0  0  0  0  0  0  0  0  0  0
   48.6143   -2.9074   -4.7277 C   0  0  0  0  0  0  0  0  0  0  0  0
   49.0253   -3.9896   -3.9788 C   0  0  0  0  0  0  0  0  0  0  0  0
   50.0844   -4.7575   -4.3996 C   0  0  0  0  0  0  0  0  0  0  0  0
   50.7220   -4.4212   -5.5816 C   0  0  0  0  0  0  0  0  0  0  0  0
   51.0338   -2.5423   -8.1546 H   0  0  0  0  0  0  0  0  0  0  0  0
 10 11  1  0  0  0
 11 12  1  0  0  0
 11  9  1  0  0  0
  9  6  1  0  0  0
  6  7  1  0  0  0
  6  2  1  0  0  0
  2  3  2  0  0  0
  2  4  1  0  0  0
  4  1  1  0  0  0
  1 17  1  0  0  0
 17 18  1  0  0  0
 18 19  2  0  0  0
 19 20  1  0  0  0
 20 21  1  0  0  0
 21 22  2  0  0  0
 22 23  1  0  0  0
 23 24  2  0  0  0
 24 25  1  0  0  0
 25 26  2  0  0  0
  1 13  1  0  0  0
 13 14  1  0  0  0
 13 15  2  0  0  0
 26 18  1  0  0  0
 26 21  1  0  0  0
  7  8  1  0  0  0
  4  5  1  0  0  0
 20 27  1  0  0  0
 14 16  1  0  0  0
M  END
> <minimizedAffinity>
-8.29029

> <CNNscore>
0.2467806339

> <CNNaffinity>
5.7100486755

> <CNN_VS>
1.4091293812

> <CNNaffinity_variance>
0.0930615216

$$$$
[H]O[C@@](C(=O)N([H])c1c([H])c([H])c([N+](=O)[O-])c(C(F)(F)F)c1[H])(C([H])([H])[H])C([H])([H])N([H])c1c([H])c([H])c(C#N)c(Cl)c1[H]


 33 34  0  0  0  0  0  0  0  0999 V2000
   54.5226   -6.1830   -2.9360 C   0  0  0  0  0  0  0  0  0  0  0  0
   54.6514   -5.0971   -2.3518 O   0  0  0  0  0  0  0  0  0  0  0  0
   53.3383   -6.6049   -3.5303 N   0  0  0  0  0  0  0  0  0  0  0  0
   53.3537   -7.5717   -4.0101 H   0  0  0  0  0  0  0  0  0  0  0  0
   52.0844   -5.9522   -3.6035 C   0  0  0  0  0  0  0  0  0  0  0  0
   51.1541   -5.9429   -2.5955 C   0  0  0  0  0  0  0  0  0  0  0  0
   49.9546   -5.2818   -2.7028 C   0  0  0  0  0  0  0  0  0  0  0  0
   49.6134   -4.5696   -3.8699 C   0  0  0  0  0  0  0  0  0  0  0  0
   50.5268   -4.5705   -4.8768 C   0  0  0  0  0  0  0  0  0  0  0  0
   51.7301   -5.2438   -4.7480 C   0  0  0  0  0  0  0  0  0  0  0  0
   50.2459   -3.8196   -6.1492 C   0  0  0  0  0  0  0  0  0  0  0  0
   51.4098   -3.6084   -6.8028 F   0  0  0  0  0  0  0  0  0  0  0  0
   49.7020   -2.5751   -5.7655 F   0  0  0  0  0  0  0  0  0  0  0  0
   49.3463   -4.5029   -6.8967 F   0  0  0  0  0  0  0  0  0  0  0  0
   48.3419   -3.9568   -3.8968 N   0  0  0  0  0  0  0  0  0  0  0  0
   48.3447   -2.5822   -4.2183 O   0  0  0  0  0  0  0  0  0  0  0  0
   47.2531   -4.4596   -3.7034 O   0  0  0  0  0  0  0  0  0  0  0  0
   56.3430   -7.1292   -1.6035 C   0  0  0  0  0  0  0  0  0  0  0  0
   55.7269   -7.0600   -2.9838 C   0  0  0  0  0  0  0  0  0  0  0  0
   55.4272   -8.3346   -3.4026 O   0  0  0  0  0  0  0  0  0  0  0  0
   54.6903   -8.7676   -2.9072 H   0  0  0  0  0  0  0  0  0  0  0  0
   56.7770   -6.4983   -3.9161 C   0  0  0  0  0  0  0  0  0  0  0  0
   56.6308   -6.9444   -5.2586 N   0  0  0  0  0  0  0  0  0  0  0  0
   57.0491   -7.8380   -5.5717 H   0  0  0  0  0  0  0  0  0  0  0  0
   55.9059   -6.1664   -6.1891 C   0  0  0  0  0  0  0  0  0  0  0  0
   56.4350   -5.0022   -6.7376 C   0  0  0  0  0  0  0  0  0  0  0  0
   55.7071   -4.2651   -7.6426 C   0  0  0  0  0  0  0  0  0  0  0  0
   54.4398   -4.6189   -8.0570 C   0  0  0  0  0  0  0  0  0  0  0  0
   53.9055   -5.7710   -7.5202 C   0  0  0  0  0  0  0  0  0  0  0  0
   52.2989   -6.2343   -8.0360 Cl  0  0  0  0  0  0  0  0  0  0  0  0
   54.6322   -6.5106   -6.6137 C   0  0  0  0  0  0  0  0  0  0  0  0
   53.7087   -3.8147   -9.0113 C   0  0  0  0  0  0  0  0  0  0  0  0
   53.1130   -3.1633   -9.7592 N   0  0  0  0  0  0  0  0  0  0  0  0
 18 19  1  0  0  0
 19 20  1  0  0  0
 19 22  1  0  0  0
 22 23  1  0  0  0
 23 25  1  0  0  0
 25 26  2  0  0  0
 26 27  1  0  0  0
 27 28  2  0  0  0
 28 32  1  0  0  0
 32 33  3  0  0  0
 28 29  1  0  0  0
 29 30  1  0  0  0
 29 31  2  0  0  0
 19  1  1  0  0  0
  1  2  2  0  0  0
  1  3  1  0  0  0
  3  5  1  0  0  0
  5  6  2  0  0  0
  6  7  1  0  0  0
  7  8  2  0  0  0
  8  9  1  0  0  0
  9 10  2  0  0  0
  9 11  1  0  0  0
 11 12  1  0  0  0
 11 13  1  0  0  0
 11 14  1  0  0  0
  8 15  1  0  0  0
 15 16  1  0  0  0
 15 17  2  0  0  0
 31 25  1  0  0  0
 10  5  1  0  0  0
 20 21  1  0  0  0
 23 24  1  0  0  0
  3  4  1  0  0  0
M  CHG 1  15   1
M  CHG 1  16  -1
M  END
> <minimizedAffinity>
-8.74628

> <CNNscore>
0.6643986702

> <CNNaffinity>
7.2077484131

> <CNN_VS>
4.7888183594

> <CNNaffinity_variance>
0.1489289701

$$$$
[H]O[C@@](C(=O)N([H])c1c([H])c([H])c([N+](=O)[O-])c(C(F)(F)F)c1[H])(C([H])([H])[H])C([H])([H])N([H])c1c([H])c([H])c(C#N)c(Cl)c1[H]


 33 34  0  0  0  0  0  0  0  0999 V2000
   54.3372   -6.2988   -4.3500 C   0  0  0  0  0  0  0  0  0  0  0  0
   54.5951   -5.4688   -3.4658 O   0  0  0  0  0  0  0  0  0  0  0  0
   53.1115   -6.3775   -5.0020 N   0  0  0  0  0  0  0  0  0  0  0  0
   53.0109   -7.1438   -5.7555 H   0  0  0  0  0  0  0  0  0  0  0  0
   51.9454   -5.5946   -4.8262 C   0  0  0  0  0  0  0  0  0  0  0  0
   51.1898   -5.5736   -3.6815 C   0  0  0  0  0  0  0  0  0  0  0  0
   50.0727   -4.7851   -3.5476 C   0  0  0  0  0  0  0  0  0  0  0  0
   49.6396   -3.9460   -4.5935 C   0  0  0  0  0  0  0  0  0  0  0  0
   50.3798   -3.9569   -5.7339 C   0  0  0  0  0  0  0  0  0  0  0  0
   51.5024   -4.7597   -5.8480 C   0  0  0  0  0  0  0  0  0  0  0  0
   49.9940   -3.0769   -6.8907 C   0  0  0  0  0  0  0  0  0  0  0  0
   48.7764   -3.4507   -7.3424 F   0  0  0  0  0  0  0  0  0  0  0  0
   50.9503   -3.3075   -7.9028 F   0  0  0  0  0  0  0  0  0  0  0  0
   50.0315   -1.7770   -6.5114 F   0  0  0  0  0  0  0  0  0  0  0  0
   48.4588   -3.2046   -4.3719 N   0  0  0  0  0  0  0  0  0  0  0  0
   47.4065   -3.9203   -3.7608 O   0  0  0  0  0  0  0  0  0  0  0  0
   48.2404   -2.0348   -4.6157 O   0  0  0  0  0  0  0  0  0  0  0  0
   55.8189   -8.0387   -3.4772 C   0  0  0  0  0  0  0  0  0  0  0  0
   55.4272   -7.2504   -4.7080 C   0  0  0  0  0  0  0  0  0  0  0  0
   55.0497   -8.1270   -5.6974 O   0  0  0  0  0  0  0  0  0  0  0  0
   54.2027   -8.6045   -5.5225 H   0  0  0  0  0  0  0  0  0  0  0  0
   56.6616   -6.5163   -5.1822 C   0  0  0  0  0  0  0  0  0  0  0  0
   56.3848   -5.2066   -5.6622 N   0  0  0  0  0  0  0  0  0  0  0  0
   56.1948   -4.4280   -5.0071 H   0  0  0  0  0  0  0  0  0  0  0  0
   56.3662   -4.9501   -7.0517 C   0  0  0  0  0  0  0  0  0  0  0  0
   57.4800   -5.1824   -7.8527 C   0  0  0  0  0  0  0  0  0  0  0  0
   57.4328   -4.9249   -9.2031 C   0  0  0  0  0  0  0  0  0  0  0  0
   56.3111   -4.4335   -9.8380 C   0  0  0  0  0  0  0  0  0  0  0  0
   55.2012   -4.1997   -9.0540 C   0  0  0  0  0  0  0  0  0  0  0  0
   53.7694   -3.5769   -9.8440 Cl  0  0  0  0  0  0  0  0  0  0  0  0
   55.2460   -4.4565   -7.7017 C   0  0  0  0  0  0  0  0  0  0  0  0
   56.3042   -4.1765  -11.2613 C   0  0  0  0  0  0  0  0  0  0  0  0
   56.3157   -3.9595  -12.3976 N   0  0  0  0  0  0  0  0  0  0  0  0
 18 19  1  0  0  0
 19 20  1  0  0  0
 19 22  1  0  0  0
 22 23  1  0  0  0
 23 25  1  0  0  0
 25 26  2  0  0  0
 26 27  1  0  0  0
 27 28  2  0  0  0
 28 32  1  0  0  0
 32 33  3  0  0  0
 28 29  1  0  0  0
 29 30  1  0  0  0
 29 31  2  0  0  0
 19  1  1  0  0  0
  1  2  2  0  0  0
  1  3  1  0  0  0
  3  5  1  0  0  0
  5  6  2  0  0  0
  6  7  1  0  0  0
  7  8  2  0  0  0
  8  9  1  0  0  0
  9 10  2  0  0  0
  9 11  1  0  0  0
 11 12  1  0  0  0
 11 13  1  0  0  0
 11 14  1  0  0  0
  8 15  1  0  0  0
 15 16  1  0  0  0
 15 17  2  0  0  0
 31 25  1  0  0  0
 10  5  1  0  0  0
 20 21  1  0  0  0
 23 24  1  0  0  0
  3  4  1  0  0  0
M  CHG 1  15   1
M  CHG 1  16  -1
M  END
> <minimizedAffinity>
-9.69297

> <CNNscore>
0.5419598222

> <CNNaffinity>
7.1327333450

> <CNN_VS>
3.8656549454

> <CNNaffinity_variance>
0.1324237287

$$$$
[H]O[C@@](C(=O)N([H])c1c([H])c([H])c([N+](=O)[O-])c(C(F)(F)F)c1[H])(C([H])([H])[H])C([H])([H])N([H])c1c([H])c([H])c(C#N)c(Cl)c1[H]


 33 34  0  0  0  0  0  0  0  0999 V2000
   55.6746   -6.7483   -4.8421 C   0  0  0  0  0  0  0  0  0  0  0  0
   55.3077   -7.7289   -5.5061 O   0  0  0  0  0  0  0  0  0  0  0  0
   56.0872   -5.5452   -5.4043 N   0  0  0  0  0  0  0  0  0  0  0  0
   56.3817   -4.7651   -4.7190 H   0  0  0  0  0  0  0  0  0  0  0  0
   56.1881   -5.1750   -6.7669 C   0  0  0  0  0  0  0  0  0  0  0  0
   57.2697   -5.4440   -7.5663 C   0  0  0  0  0  0  0  0  0  0  0  0
   57.3190   -5.0802   -8.8902 C   0  0  0  0  0  0  0  0  0  0  0  0
   56.2464   -4.4026   -9.5034 C   0  0  0  0  0  0  0  0  0  0  0  0
   55.1677   -4.1299   -8.7222 C   0  0  0  0  0  0  0  0  0  0  0  0
   55.1387   -4.5053   -7.3895 C   0  0  0  0  0  0  0  0  0  0  0  0
   53.9744   -3.4245   -9.3054 C   0  0  0  0  0  0  0  0  0  0  0  0
   54.2171   -2.0953   -9.3320 F   0  0  0  0  0  0  0  0  0  0  0  0
   52.8956   -3.6773   -8.4310 F   0  0  0  0  0  0  0  0  0  0  0  0
   53.6980   -3.9273  -10.5325 F   0  0  0  0  0  0  0  0  0  0  0  0
   56.4100   -4.0381  -10.8574 N   0  0  0  0  0  0  0  0  0  0  0  0
   57.1287   -2.8426  -11.0746 O   0  0  0  0  0  0  0  0  0  0  0  0
   56.0358   -4.6265  -11.8521 O   0  0  0  0  0  0  0  0  0  0  0  0
   55.9916   -8.3392   -3.0110 C   0  0  0  0  0  0  0  0  0  0  0  0
   55.6595   -6.9047   -3.3600 C   0  0  0  0  0  0  0  0  0  0  0  0
   56.5622   -6.0745   -2.7389 O   0  0  0  0  0  0  0  0  0  0  0  0
   57.4825   -6.1289   -3.0939 H   0  0  0  0  0  0  0  0  0  0  0  0
   54.2890   -6.6106   -2.7918 C   0  0  0  0  0  0  0  0  0  0  0  0
   53.2298   -6.9602   -3.6742 N   0  0  0  0  0  0  0  0  0  0  0  0
   53.2580   -7.8404   -4.2181 H   0  0  0  0  0  0  0  0  0  0  0  0
   52.1163   -6.1025   -3.8198 C   0  0  0  0  0  0  0  0  0  0  0  0
   51.2590   -5.8312   -2.7580 C   0  0  0  0  0  0  0  0  0  0  0  0
   50.1833   -4.9910   -2.9282 C   0  0  0  0  0  0  0  0  0  0  0  0
   49.8889   -4.3771   -4.1280 C   0  0  0  0  0  0  0  0  0  0  0  0
   50.7319   -4.6386   -5.1873 C   0  0  0  0  0  0  0  0  0  0  0  0
   50.3729   -3.8671   -6.7163 Cl  0  0  0  0  0  0  0  0  0  0  0  0
   51.8095   -5.4797   -5.0194 C   0  0  0  0  0  0  0  0  0  0  0  0
   48.7469   -3.5001   -4.2638 C   0  0  0  0  0  0  0  0  0  0  0  0
   47.8454   -2.7825   -4.3680 N   0  0  0  0  0  0  0  0  0  0  0  0
 18 19  1  0  0  0
 19 20  1  0  0  0
 19 22  1  0  0  0
 22 23  1  0  0  0
 23 25  1  0  0  0
 25 26  2  0  0  0
 26 27  1  0  0  0
 27 28  2  0  0  0
 28 32  1  0  0  0
 32 33  3  0  0  0
 28 29  1  0  0  0
 29 30  1  0  0  0
 29 31  2  0  0  0
 19  1  1  0  0  0
  1  2  2  0  0  0
  1  3  1  0  0  0
  3  5  1  0  0  0
  5  6  2  0  0  0
  6  7  1  0  0  0
  7  8  2  0  0  0
  8  9  1  0  0  0
  9 10  2  0  0  0
  9 11  1  0  0  0
 11 12  1  0  0  0
 11 13  1  0  0  0
 11 14  1  0  0  0
  8 15  1  0  0  0
 15 16  1  0  0  0
 15 17  2  0  0  0
 31 25  1  0  0  0
 10  5  1  0  0  0
 20 21  1  0  0  0
 23 24  1  0  0  0
  3  4  1  0  0  0
M  CHG 1  15   1
M  CHG 1  16  -1
M  END
> <minimizedAffinity>
-8.66374

> <CNNscore>
0.4553413987

> <CNNaffinity>
6.7880921364

> <CNN_VS>
3.0908994675

> <CNNaffinity_variance>
0.2125358582

$$$$
[H]O[C@@](C(=O)N([H])c1c([H])c([H])c([N+](=O)[O-])c(C(F)(F)F)c1[H])(C([H])([H])[H])C([H])([H])N([H])c1c([H])c([H])c(C#N)c(Cl)c1[H]


 33 34  0  0  0  0  0  0  0  0999 V2000
   56.5422   -4.3216   -9.7808 C   0  0  0  0  0  0  0  0  0  0  0  0
   57.4836   -5.1066   -9.5947 O   0  0  0  0  0  0  0  0  0  0  0  0
   56.3678   -3.5874  -10.9488 N   0  0  0  0  0  0  0  0  0  0  0  0
   55.5063   -2.9383  -10.9899 H   0  0  0  0  0  0  0  0  0  0  0  0
   57.1635   -3.5534  -12.1190 C   0  0  0  0  0  0  0  0  0  0  0  0
   58.5351   -3.5619  -12.1256 C   0  0  0  0  0  0  0  0  0  0  0  0
   59.2688   -3.5444  -13.2870 C   0  0  0  0  0  0  0  0  0  0  0  0
   58.6416   -3.5163  -14.5484 C   0  0  0  0  0  0  0  0  0  0  0  0
   57.2821   -3.5078  -14.5564 C   0  0  0  0  0  0  0  0  0  0  0  0
   56.5617   -3.5254  -13.3738 C   0  0  0  0  0  0  0  0  0  0  0  0
   56.5365   -3.4952  -15.8623 C   0  0  0  0  0  0  0  0  0  0  0  0
   56.6431   -4.7110  -16.4428 F   0  0  0  0  0  0  0  0  0  0  0  0
   57.1780   -2.5386  -16.6781 F   0  0  0  0  0  0  0  0  0  0  0  0
   55.2490   -3.1301  -15.6526 F   0  0  0  0  0  0  0  0  0  0  0  0
   59.4833   -3.4605  -15.6805 N   0  0  0  0  0  0  0  0  0  0  0  0
   60.1271   -2.2217  -15.8894 O   0  0  0  0  0  0  0  0  0  0  0  0
   59.7412   -4.3397  -16.4782 O   0  0  0  0  0  0  0  0  0  0  0  0
   56.0827   -4.9223   -7.4544 C   0  0  0  0  0  0  0  0  0  0  0  0
   55.5613   -4.1828   -8.6672 C   0  0  0  0  0  0  0  0  0  0  0  0
   55.3409   -2.8690   -8.3274 O   0  0  0  0  0  0  0  0  0  0  0  0
   56.1606   -2.3478   -8.1477 H   0  0  0  0  0  0  0  0  0  0  0  0
   54.2290   -4.7997   -9.0303 C   0  0  0  0  0  0  0  0  0  0  0  0
   53.1246   -3.9430   -8.7676 N   0  0  0  0  0  0  0  0  0  0  0  0
   52.9033   -3.1510   -9.3961 H   0  0  0  0  0  0  0  0  0  0  0  0
   52.3089   -4.1651   -7.6353 C   0  0  0  0  0  0  0  0  0  0  0  0
   52.5279   -5.2371   -6.7757 C   0  0  0  0  0  0  0  0  0  0  0  0
   51.7187   -5.4281   -5.6800 C   0  0  0  0  0  0  0  0  0  0  0  0
   50.6652   -4.5945   -5.3665 C   0  0  0  0  0  0  0  0  0  0  0  0
   50.4389   -3.5286   -6.2114 C   0  0  0  0  0  0  0  0  0  0  0  0
   49.1067   -2.4609   -5.8276 Cl  0  0  0  0  0  0  0  0  0  0  0  0
   51.2477   -3.3353   -7.3092 C   0  0  0  0  0  0  0  0  0  0  0  0
   49.8385   -4.8318   -4.2038 C   0  0  0  0  0  0  0  0  0  0  0  0
   49.1922   -5.0331   -3.2655 N   0  0  0  0  0  0  0  0  0  0  0  0
 18 19  1  0  0  0
 19 20  1  0  0  0
 19 22  1  0  0  0
 22 23  1  0  0  0
 23 25  1  0  0  0
 25 26  2  0  0  0
 26 27  1  0  0  0
 27 28  2  0  0  0
 28 32  1  0  0  0
 32 33  3  0  0  0
 28 29  1  0  0  0
 29 30  1  0  0  0
 29 31  2  0  0  0
 19  1  1  0  0  0
  1  2  2  0  0  0
  1  3  1  0  0  0
  3  5  1  0  0  0
  5  6  2  0  0  0
  6  7  1  0  0  0
  7  8  2  0  0  0
  8  9  1  0  0  0
  9 10  2  0  0  0
  9 11  1  0  0  0
 11 12  1  0  0  0
 11 13  1  0  0  0
 11 14  1  0  0  0
  8 15  1  0  0  0
 15 16  1  0  0  0
 15 17  2  0  0  0
 31 25  1  0  0  0
 10  5  1  0  0  0
 20 21  1  0  0  0
 23 24  1  0  0  0
  3  4  1  0  0  0
M  CHG 1  15   1
M  CHG 1  16  -1
M  END
> <minimizedAffinity>
-8.56046

> <CNNscore>
0.3863221705

> <CNNaffinity>
6.5717000961

> <CNN_VS>
2.5387935638

> <CNNaffinity_variance>
0.3296670318

$$$$
[H]O[C@@](C(=O)N([H])c1c([H])c([H])c([N+](=O)[O-])c(C(F)(F)F)c1[H])(C([H])([H])[H])C([H])([H])N([H])c1c([H])c([H])c(C#N)c(Cl)c1[H]


 33 34  0  0  0  0  0  0  0  0999 V2000
   56.2930   -4.3013   -9.8043 C   0  0  0  0  0  0  0  0  0  0  0  0
   57.2183   -5.0902   -9.5622 O   0  0  0  0  0  0  0  0  0  0  0  0
   56.1889   -3.5710  -10.9831 N   0  0  0  0  0  0  0  0  0  0  0  0
   55.3346   -2.9178  -11.0754 H   0  0  0  0  0  0  0  0  0  0  0  0
   57.0498   -3.5458  -12.1065 C   0  0  0  0  0  0  0  0  0  0  0  0
   58.4188   -3.5928  -12.0366 C   0  0  0  0  0  0  0  0  0  0  0  0
   59.2168   -3.5826  -13.1548 C   0  0  0  0  0  0  0  0  0  0  0  0
   58.6625   -3.5222  -14.4489 C   0  0  0  0  0  0  0  0  0  0  0  0
   57.3064   -3.4754  -14.5326 C   0  0  0  0  0  0  0  0  0  0  0  0
   56.5204   -3.4865  -13.3925 C   0  0  0  0  0  0  0  0  0  0  0  0
   56.6360   -3.4268  -15.8779 C   0  0  0  0  0  0  0  0  0  0  0  0
   56.7542   -4.6341  -16.4735 F   0  0  0  0  0  0  0  0  0  0  0  0
   57.3388   -2.4681  -16.6388 F   0  0  0  0  0  0  0  0  0  0  0  0
   55.3451   -3.0420  -15.7341 F   0  0  0  0  0  0  0  0  0  0  0  0
   59.5677   -3.4771  -15.5313 N   0  0  0  0  0  0  0  0  0  0  0  0
   60.3922   -2.3321  -15.5770 O   0  0  0  0  0  0  0  0  0  0  0  0
   59.7437   -4.2994  -16.4080 O   0  0  0  0  0  0  0  0  0  0  0  0
   55.4626   -5.2164   -7.6931 C   0  0  0  0  0  0  0  0  0  0  0  0
   55.2514   -4.1529   -8.7485 C   0  0  0  0  0  0  0  0  0  0  0  0
   55.2893   -2.9163   -8.1491 O   0  0  0  0  0  0  0  0  0  0  0  0
   56.1790   -2.6497   -7.8123 H   0  0  0  0  0  0  0  0  0  0  0  0
   53.8638   -4.3531   -9.3158 C   0  0  0  0  0  0  0  0  0  0  0  0
   53.0446   -3.1950   -9.2145 N   0  0  0  0  0  0  0  0  0  0  0  0
   53.1740   -2.3930   -9.8559 H   0  0  0  0  0  0  0  0  0  0  0  0
   52.0349   -3.1251   -8.2283 C   0  0  0  0  0  0  0  0  0  0  0  0
   51.1470   -2.0556   -8.1661 C   0  0  0  0  0  0  0  0  0  0  0  0
   50.1728   -2.0144   -7.1959 C   0  0  0  0  0  0  0  0  0  0  0  0
   50.0131   -3.0017   -6.2458 C   0  0  0  0  0  0  0  0  0  0  0  0
   50.8874   -4.0667   -6.2980 C   0  0  0  0  0  0  0  0  0  0  0  0
   50.6980   -5.3282   -5.1002 Cl  0  0  0  0  0  0  0  0  0  0  0  0
   51.8638   -4.1100   -7.2683 C   0  0  0  0  0  0  0  0  0  0  0  0
   48.9747   -2.9192   -5.2425 C   0  0  0  0  0  0  0  0  0  0  0  0
   48.1519   -2.8697   -4.4306 N   0  0  0  0  0  0  0  0  0  0  0  0
 18 19  1  0  0  0
 19 20  1  0  0  0
 19 22  1  0  0  0
 22 23  1  0  0  0
 23 25  1  0  0  0
 25 26  2  0  0  0
 26 27  1  0  0  0
 27 28  2  0  0  0
 28 32  1  0  0  0
 32 33  3  0  0  0
 28 29  1  0  0  0
 29 30  1  0  0  0
 29 31  2  0  0  0
 19  1  1  0  0  0
  1  2  2  0  0  0
  1  3  1  0  0  0
  3  5  1  0  0  0
  5  6  2  0  0  0
  6  7  1  0  0  0
  7  8  2  0  0  0
  8  9  1  0  0  0
  9 10  2  0  0  0
  9 11  1  0  0  0
 11 12  1  0  0  0
 11 13  1  0  0  0
 11 14  1  0  0  0
  8 15  1  0  0  0
 15 16  1  0  0  0
 15 17  2  0  0  0
 31 25  1  0  0  0
 10  5  1  0  0  0
 20 21  1  0  0  0
 23 24  1  0  0  0
  3  4  1  0  0  0
M  CHG 1  15   1
M  CHG 1  16  -1
M  END
> <minimizedAffinity>
-8.96285

> <CNNscore>
0.3096638024

> <CNNaffinity>
6.4506530762

> <CNN_VS>
1.9975337982

> <CNNaffinity_variance>
0.1074231267

$$$$
[H]O[C@@](C(=O)N([H])c1c([H])c([H])c([N+](=O)[O-])c(C(F)(F)F)c1[H])(C([H])([H])[H])C([H])([H])N([H])c1c([H])c([H])c(C#N)c(Cl)c1[H]


 33 34  0  0  0  0  0  0  0  0999 V2000
   56.5213   -4.3794   -9.8536 C   0  0  0  0  0  0  0  0  0  0  0  0
   57.3767   -5.2761   -9.8911 O   0  0  0  0  0  0  0  0  0  0  0  0
   56.2157   -3.5576  -10.9330 N   0  0  0  0  0  0  0  0  0  0  0  0
   55.4495   -2.8140  -10.7750 H   0  0  0  0  0  0  0  0  0  0  0  0
   56.7672   -3.5398  -12.2365 C   0  0  0  0  0  0  0  0  0  0  0  0
   56.0295   -3.4653  -13.3905 C   0  0  0  0  0  0  0  0  0  0  0  0
   56.6074   -3.4340  -14.6365 C   0  0  0  0  0  0  0  0  0  0  0  0
   58.0068   -3.4777  -14.7954 C   0  0  0  0  0  0  0  0  0  0  0  0
   58.7501   -3.5515  -13.6594 C   0  0  0  0  0  0  0  0  0  0  0  0
   58.1472   -3.5822  -12.4131 C   0  0  0  0  0  0  0  0  0  0  0  0
   60.2513   -3.5849  -13.7424 C   0  0  0  0  0  0  0  0  0  0  0  0
   60.6157   -4.1000  -14.9374 F   0  0  0  0  0  0  0  0  0  0  0  0
   60.6878   -4.4503  -12.7165 F   0  0  0  0  0  0  0  0  0  0  0  0
   60.7503   -2.3422  -13.5378 F   0  0  0  0  0  0  0  0  0  0  0  0
   58.5010   -3.4799  -16.1178 N   0  0  0  0  0  0  0  0  0  0  0  0
   58.3525   -4.7000  -16.8122 O   0  0  0  0  0  0  0  0  0  0  0  0
   59.0121   -2.5691  -16.7383 O   0  0  0  0  0  0  0  0  0  0  0  0
   56.6343   -4.7894   -7.4446 C   0  0  0  0  0  0  0  0  0  0  0  0
   55.8000   -4.2012   -8.5615 C   0  0  0  0  0  0  0  0  0  0  0  0
   55.5500   -2.8786   -8.2822 O   0  0  0  0  0  0  0  0  0  0  0  0
   56.3425   -2.2909   -8.3321 H   0  0  0  0  0  0  0  0  0  0  0  0
   54.4770   -4.9342   -8.5669 C   0  0  0  0  0  0  0  0  0  0  0  0
   53.3868   -4.1195   -8.9794 N   0  0  0  0  0  0  0  0  0  0  0  0
   53.3427   -3.7342   -9.9391 H   0  0  0  0  0  0  0  0  0  0  0  0
   52.3411   -3.8240   -8.0760 C   0  0  0  0  0  0  0  0  0  0  0  0
   51.5579   -2.6822   -8.2129 C   0  0  0  0  0  0  0  0  0  0  0  0
   50.5455   -2.4205   -7.3193 C   0  0  0  0  0  0  0  0  0  0  0  0
   50.2453   -3.2478   -6.2570 C   0  0  0  0  0  0  0  0  0  0  0  0
   51.0149   -4.3826   -6.1116 C   0  0  0  0  0  0  0  0  0  0  0  0
   50.6467   -5.4433   -4.7695 Cl  0  0  0  0  0  0  0  0  0  0  0  0
   52.0293   -4.6467   -7.0050 C   0  0  0  0  0  0  0  0  0  0  0  0
   49.1714   -2.9350   -5.3401 C   0  0  0  0  0  0  0  0  0  0  0  0
   48.3212   -2.6666   -4.6028 N   0  0  0  0  0  0  0  0  0  0  0  0
 18 19  1  0  0  0
 19 20  1  0  0  0
 19 22  1  0  0  0
 22 23  1  0  0  0
 23 25  1  0  0  0
 25 26  2  0  0  0
 26 27  1  0  0  0
 27 28  2  0  0  0
 28 32  1  0  0  0
 32 33  3  0  0  0
 28 29  1  0  0  0
 29 30  1  0  0  0
 29 31  2  0  0  0
 19  1  1  0  0  0
  1  2  2  0  0  0
  1  3  1  0  0  0
  3  5  1  0  0  0
  5  6  2  0  0  0
  6  7  1  0  0  0
  7  8  2  0  0  0
  8  9  1  0  0  0
  9 10  2  0  0  0
  9 11  1  0  0  0
 11 12  1  0  0  0
 11 13  1  0  0  0
 11 14  1  0  0  0
  8 15  1  0  0  0
 15 16  1  0  0  0
 15 17  2  0  0  0
 31 25  1  0  0  0
 10  5  1  0  0  0
 20 21  1  0  0  0
 23 24  1  0  0  0
  3  4  1  0  0  0
M  CHG 1  15   1
M  CHG 1  16  -1
M  END
> <minimizedAffinity>
-8.35673

> <CNNscore>
0.2757631540

> <CNNaffinity>
6.3409757614

> <CNN_VS>
1.7486075163

> <CNNaffinity_variance>
0.0998908579

$$$$
[H]O[C@@](C(=O)N([H])c1c([H])c([H])c([N+](=O)[O-])c(C(F)(F)F)c1[H])(C([H])([H])[H])C([H])([H])N([H])c1c([H])c([H])c(C#N)c(Cl)c1[H]


 33 34  0  0  0  0  0  0  0  0999 V2000
   55.0975   -4.4620   -8.1681 C   0  0  0  0  0  0  0  0  0  0  0  0
   56.2417   -4.8309   -8.4713 O   0  0  0  0  0  0  0  0  0  0  0  0
   54.4488   -4.8394   -6.9974 N   0  0  0  0  0  0  0  0  0  0  0  0
   53.4535   -4.4499   -6.8470 H   0  0  0  0  0  0  0  0  0  0  0  0
   54.8976   -5.6773   -5.9485 C   0  0  0  0  0  0  0  0  0  0  0  0
   54.7757   -7.0435   -5.9403 C   0  0  0  0  0  0  0  0  0  0  0  0
   55.2407   -7.8209   -4.9073 C   0  0  0  0  0  0  0  0  0  0  0  0
   55.8754   -7.2469   -3.7878 C   0  0  0  0  0  0  0  0  0  0  0  0
   56.0030   -5.8934   -3.7833 C   0  0  0  0  0  0  0  0  0  0  0  0
   55.5268   -5.1284   -4.8349 C   0  0  0  0  0  0  0  0  0  0  0  0
   56.6838   -5.2048   -2.6327 C   0  0  0  0  0  0  0  0  0  0  0  0
   55.9181   -5.3329   -1.5265 F   0  0  0  0  0  0  0  0  0  0  0  0
   56.7668   -3.8390   -2.9785 F   0  0  0  0  0  0  0  0  0  0  0  0
   57.9286   -5.7123   -2.4651 F   0  0  0  0  0  0  0  0  0  0  0  0
   56.2826   -8.1272   -2.7619 N   0  0  0  0  0  0  0  0  0  0  0  0
   55.3779   -8.2541   -1.6857 O   0  0  0  0  0  0  0  0  0  0  0  0
   57.2910   -8.8013   -2.6966 O   0  0  0  0  0  0  0  0  0  0  0  0
   54.4975   -2.1376   -8.6390 C   0  0  0  0  0  0  0  0  0  0  0  0
   54.4091   -3.5635   -9.1378 C   0  0  0  0  0  0  0  0  0  0  0  0
   54.9624   -3.6311  -10.3945 O   0  0  0  0  0  0  0  0  0  0  0  0
   55.9413   -3.5005  -10.4203 H   0  0  0  0  0  0  0  0  0  0  0  0
   52.9410   -3.9071   -9.2562 C   0  0  0  0  0  0  0  0  0  0  0  0
   52.0881   -2.9313   -8.6705 N   0  0  0  0  0  0  0  0  0  0  0  0
   52.0212   -1.9766   -9.0647 H   0  0  0  0  0  0  0  0  0  0  0  0
   51.3148   -3.2567   -7.5335 C   0  0  0  0  0  0  0  0  0  0  0  0
   50.2249   -2.4836   -7.1453 C   0  0  0  0  0  0  0  0  0  0  0  0
   49.4889   -2.8250   -6.0345 C   0  0  0  0  0  0  0  0  0  0  0  0
   49.7718   -3.9252   -5.2519 C   0  0  0  0  0  0  0  0  0  0  0  0
   50.8497   -4.6988   -5.6273 C   0  0  0  0  0  0  0  0  0  0  0  0
   51.2217   -6.0986   -4.6454 Cl  0  0  0  0  0  0  0  0  0  0  0  0
   51.5882   -4.3589   -6.7389 C   0  0  0  0  0  0  0  0  0  0  0  0
   48.9716   -4.2484   -4.0913 C   0  0  0  0  0  0  0  0  0  0  0  0
   48.3198   -4.4903   -3.1665 N   0  0  0  0  0  0  0  0  0  0  0  0
 18 19  1  0  0  0
 19 20  1  0  0  0
 19 22  1  0  0  0
 22 23  1  0  0  0
 23 25  1  0  0  0
 25 26  2  0  0  0
 26 27  1  0  0  0
 27 28  2  0  0  0
 28 32  1  0  0  0
 32 33  3  0  0  0
 28 29  1  0  0  0
 29 30  1  0  0  0
 29 31  2  0  0  0
 19  1  1  0  0  0
  1  2  2  0  0  0
  1  3  1  0  0  0
  3  5  1  0  0  0
  5  6  2  0  0  0
  6  7  1  0  0  0
  7  8  2  0  0  0
  8  9  1  0  0  0
  9 10  2  0  0  0
  9 11  1  0  0  0
 11 12  1  0  0  0
 11 13  1  0  0  0
 11 14  1  0  0  0
  8 15  1  0  0  0
 15 16  1  0  0  0
 15 17  2  0  0  0
 31 25  1  0  0  0
 10  5  1  0  0  0
 20 21  1  0  0  0
 23 24  1  0  0  0
  3  4  1  0  0  0
M  CHG 1  15   1
M  CHG 1  16  -1
M  END
> <minimizedAffinity>
-9.07803

> <CNNscore>
0.2407982200

> <CNNaffinity>
6.8334832191

> <CNN_VS>
1.6454906464

> <CNNaffinity_variance>
0.2494246960

$$$$
[H]O[C@@](C(=O)N([H])c1c([H])c([H])c([N+](=O)[O-])c(C(F)(F)F)c1[H])(C([H])([H])[H])C([H])([H])N([H])c1c([H])c([H])c(C#N)c(Cl)c1[H]


 33 34  0  0  0  0  0  0  0  0999 V2000
   56.4843   -4.1279   -9.8860 C   0  0  0  0  0  0  0  0  0  0  0  0
   57.2796   -5.0557   -9.6768 O   0  0  0  0  0  0  0  0  0  0  0  0
   56.5008   -3.3396  -11.0314 N   0  0  0  0  0  0  0  0  0  0  0  0
   55.7540   -2.5630  -11.0968 H   0  0  0  0  0  0  0  0  0  0  0  0
   57.3662   -3.3939  -12.1503 C   0  0  0  0  0  0  0  0  0  0  0  0
   58.7294   -3.5239  -12.0716 C   0  0  0  0  0  0  0  0  0  0  0  0
   59.5312   -3.5890  -13.1853 C   0  0  0  0  0  0  0  0  0  0  0  0
   58.9870   -3.5246  -14.4835 C   0  0  0  0  0  0  0  0  0  0  0  0
   57.6368   -3.3960  -14.5759 C   0  0  0  0  0  0  0  0  0  0  0  0
   56.8469   -3.3319  -13.4402 C   0  0  0  0  0  0  0  0  0  0  0  0
   56.9763   -3.3373  -15.9256 C   0  0  0  0  0  0  0  0  0  0  0  0
   55.6700   -3.0304  -15.7645 F   0  0  0  0  0  0  0  0  0  0  0  0
   57.0795   -4.6327  -16.4763 F   0  0  0  0  0  0  0  0  0  0  0  0
   57.6253   -2.4494  -16.7164 F   0  0  0  0  0  0  0  0  0  0  0  0
   59.8978   -3.5608  -15.5616 N   0  0  0  0  0  0  0  0  0  0  0  0
   60.7108   -2.4150  -15.6994 O   0  0  0  0  0  0  0  0  0  0  0  0
   60.0871   -4.4518  -16.3653 O   0  0  0  0  0  0  0  0  0  0  0  0
   56.1512   -3.8521   -7.4782 C   0  0  0  0  0  0  0  0  0  0  0  0
   55.4665   -3.8723   -8.8275 C   0  0  0  0  0  0  0  0  0  0  0  0
   54.8107   -2.6783   -9.0124 O   0  0  0  0  0  0  0  0  0  0  0  0
   55.4041   -1.8976   -9.1325 H   0  0  0  0  0  0  0  0  0  0  0  0
   54.4291   -4.9721   -8.7876 C   0  0  0  0  0  0  0  0  0  0  0  0
   54.3827   -5.6537   -7.5403 N   0  0  0  0  0  0  0  0  0  0  0  0
   55.1362   -6.3062   -7.2612 H   0  0  0  0  0  0  0  0  0  0  0  0
   53.2977   -5.4460   -6.6591 C   0  0  0  0  0  0  0  0  0  0  0  0
   53.2738   -6.0048   -5.3850 C   0  0  0  0  0  0  0  0  0  0  0  0
   52.2049   -5.7846   -4.5477 C   0  0  0  0  0  0  0  0  0  0  0  0
   51.1152   -5.0168   -4.9025 C   0  0  0  0  0  0  0  0  0  0  0  0
   51.1282   -4.4577   -6.1628 C   0  0  0  0  0  0  0  0  0  0  0  0
   49.7535   -3.4802   -6.6284 Cl  0  0  0  0  0  0  0  0  0  0  0  0
   52.1972   -4.6770   -7.0031 C   0  0  0  0  0  0  0  0  0  0  0  0
   50.0115   -4.8105   -3.9908 C   0  0  0  0  0  0  0  0  0  0  0  0
   49.1393   -4.6552   -3.2467 N   0  0  0  0  0  0  0  0  0  0  0  0
 18 19  1  0  0  0
 19 20  1  0  0  0
 19 22  1  0  0  0
 22 23  1  0  0  0
 23 25  1  0  0  0
 25 26  2  0  0  0
 26 27  1  0  0  0
 27 28  2  0  0  0
 28 32  1  0  0  0
 32 33  3  0  0  0
 28 29  1  0  0  0
 29 30  1  0  0  0
 29 31  2  0  0  0
 19  1  1  0  0  0
  1  2  2  0  0  0
  1  3  1  0  0  0
  3  5  1  0  0  0
  5  6  2  0  0  0
  6  7  1  0  0  0
  7  8  2  0  0  0
  8  9  1  0  0  0
  9 10  2  0  0  0
  9 11  1  0  0  0
 11 12  1  0  0  0
 11 13  1  0  0  0
 11 14  1  0  0  0
  8 15  1  0  0  0
 15 16  1  0  0  0
 15 17  2  0  0  0
 31 25  1  0  0  0
 10  5  1  0  0  0
 20 21  1  0  0  0
 23 24  1  0  0  0
  3  4  1  0  0  0
M  CHG 1  15   1
M  CHG 1  16  -1
M  END
> <minimizedAffinity>
-7.76898

> <CNNscore>
0.2254210413

> <CNNaffinity>
6.3105177879

> <CNN_VS>
1.4225234985

> <CNNaffinity_variance>
0.2914148867

$$$$
[H]O[C@@](C(=O)N([H])c1c([H])c([H])c([N+](=O)[O-])c(C(F)(F)F)c1[H])(C([H])([H])[H])C([H])([H])N([H])c1c([H])c([H])c(C#N)c(Cl)c1[H]


 33 34  0  0  0  0  0  0  0  0999 V2000
   53.6444   -6.2593   -2.5671 C   0  0  0  0  0  0  0  0  0  0  0  0
   53.9716   -5.1134   -2.2250 O   0  0  0  0  0  0  0  0  0  0  0  0
   52.4557   -6.5600   -3.2230 N   0  0  0  0  0  0  0  0  0  0  0  0
   52.2864   -7.5972   -3.4694 H   0  0  0  0  0  0  0  0  0  0  0  0
   51.4057   -5.6999   -3.6248 C   0  0  0  0  0  0  0  0  0  0  0  0
   50.3059   -5.4073   -2.8590 C   0  0  0  0  0  0  0  0  0  0  0  0
   49.3168   -4.5529   -3.2820 C   0  0  0  0  0  0  0  0  0  0  0  0
   49.3818   -3.9246   -4.5416 C   0  0  0  0  0  0  0  0  0  0  0  0
   50.4669   -4.2058   -5.3109 C   0  0  0  0  0  0  0  0  0  0  0  0
   51.4526   -5.0704   -4.8653 C   0  0  0  0  0  0  0  0  0  0  0  0
   50.6197   -3.5626   -6.6616 C   0  0  0  0  0  0  0  0  0  0  0  0
   49.6792   -4.0591   -7.4955 F   0  0  0  0  0  0  0  0  0  0  0  0
   51.8963   -3.9321   -7.1367 F   0  0  0  0  0  0  0  0  0  0  0  0
   50.5476   -2.2154   -6.5397 F   0  0  0  0  0  0  0  0  0  0  0  0
   48.2970   -3.0951   -4.8998 N   0  0  0  0  0  0  0  0  0  0  0  0
   47.2505   -3.0339   -3.9543 O   0  0  0  0  0  0  0  0  0  0  0  0
   48.1588   -2.4151   -5.8968 O   0  0  0  0  0  0  0  0  0  0  0  0
   54.9755   -7.2608   -0.7756 C   0  0  0  0  0  0  0  0  0  0  0  0
   54.6047   -7.3512   -2.2398 C   0  0  0  0  0  0  0  0  0  0  0  0
   54.0820   -8.5977   -2.4911 O   0  0  0  0  0  0  0  0  0  0  0  0
   53.1993   -8.7639   -2.0798 H   0  0  0  0  0  0  0  0  0  0  0  0
   55.8833   -7.2133   -3.0358 C   0  0  0  0  0  0  0  0  0  0  0  0
   55.7939   -7.7714   -4.3408 N   0  0  0  0  0  0  0  0  0  0  0  0
   55.9146   -8.7878   -4.4951 H   0  0  0  0  0  0  0  0  0  0  0  0
   55.5366   -6.9376   -5.4522 C   0  0  0  0  0  0  0  0  0  0  0  0
   54.2764   -6.8691   -6.0382 C   0  0  0  0  0  0  0  0  0  0  0  0
   54.0542   -6.0473   -7.1186 C   0  0  0  0  0  0  0  0  0  0  0  0
   55.0363   -5.2573   -7.6792 C   0  0  0  0  0  0  0  0  0  0  0  0
   56.2892   -5.3169   -7.1065 C   0  0  0  0  0  0  0  0  0  0  0  0
   57.5463   -4.3203   -7.8053 Cl  0  0  0  0  0  0  0  0  0  0  0  0
   56.5141   -6.1391   -6.0248 C   0  0  0  0  0  0  0  0  0  0  0  0
   54.7598   -4.4069   -8.8159 C   0  0  0  0  0  0  0  0  0  0  0  0
   54.5510   -3.7122   -9.7172 N   0  0  0  0  0  0  0  0  0  0  0  0
 18 19  1  0  0  0
 19 20  1  0  0  0
 19 22  1  0  0  0
 22 23  1  0  0  0
 23 25  1  0  0  0
 25 26  2  0  0  0
 26 27  1  0  0  0
 27 28  2  0  0  0
 28 32  1  0  0  0
 32 33  3  0  0  0
 28 29  1  0  0  0
 29 30  1  0  0  0
 29 31  2  0  0  0
 19  1  1  0  0  0
  1  2  2  0  0  0
  1  3  1  0  0  0
  3  5  1  0  0  0
  5  6  2  0  0  0
  6  7  1  0  0  0
  7  8  2  0  0  0
  8  9  1  0  0  0
  9 10  2  0  0  0
  9 11  1  0  0  0
 11 12  1  0  0  0
 11 13  1  0  0  0
 11 14  1  0  0  0
  8 15  1  0  0  0
 15 16  1  0  0  0
 15 17  2  0  0  0
 31 25  1  0  0  0
 10  5  1  0  0  0
 20 21  1  0  0  0
 23 24  1  0  0  0
  3  4  1  0  0  0
M  CHG 1  15   1
M  CHG 1  16  -1
M  END
> <minimizedAffinity>
-8.47475

> <CNNscore>
0.2147354037

> <CNNaffinity>
6.4436540604

> <CNN_VS>
1.3836807013

> <CNNaffinity_variance>
0.1162044555

$$$$
[H]N=C(N([H])[H])N([H])C([H])([H])C([H])([H])C([H])([H])[C@@]([H])(C(=O)N([H])[C@]([H])(C(=O)O[H])C([H])([H])c1c([H])c([H])c([H])c([H])c1[H])N([H])C(=O)[C@@]([H])(N([H])C(=O)[C@@]([H])(N([H])C(=O)[C@@]([H])(N([H])C(=O)[C@@]([H])(N([H])C(=O)C([H])([H])[H])C([H])([H])C([H])([H])C([H])([H])N([H])C(=N[H])N([H])[H])C([H])(C([H])([H])[H])C([H])([H])[H])C([H])([H])C([H])([H])C([H])([H])N([H])C(=N[H])N([H])[H])C([H])([H])C([H])([H])C([H])([H])N([H])C(=N[H])N([H])[H]


 89 89  0  0  0  0  0  0  0  0999 V2000
   57.8800   -4.8792  -10.5366 C   0  0  0  0  0  0  0  0  0  0  0  0
   57.7137   -5.9916  -11.0834 O   0  0  0  0  0  0  0  0  0  0  0  0
   58.2497   -3.7800  -11.3790 N   0  0  0  0  0  0  0  0  0  0  0  0
   58.4302   -2.8815  -10.9347 H   0  0  0  0  0  0  0  0  0  0  0  0
   58.4042   -4.0058  -12.7724 C   0  0  0  0  0  0  0  0  0  0  0  0
   59.8475   -3.9171  -13.1890 C   0  0  0  0  0  0  0  0  0  0  0  0
   60.5938   -4.8546  -12.8116 O   0  0  0  0  0  0  0  0  0  0  0  0
   60.3527   -2.8762  -13.9507 N   0  0  0  0  0  0  0  0  0  0  0  0
   59.7868   -2.0932  -14.2816 H   0  0  0  0  0  0  0  0  0  0  0  0
   61.7999   -2.8589  -14.3321 C   0  0  0  0  0  0  0  0  0  0  0  0
   62.3504   -1.6271  -13.7892 C   0  0  0  0  0  0  0  0  0  0  0  0
   61.5052   -0.8667  -13.1747 O   0  0  0  0  0  0  0  0  0  0  0  0
   63.6476   -1.1608  -13.8498 N   0  0  0  0  0  0  0  0  0  0  0  0
   64.3905   -1.6602  -14.3774 H   0  0  0  0  0  0  0  0  0  0  0  0
   64.0402    0.1277  -13.2160 C   0  0  0  0  0  0  0  0  0  0  0  0
   64.6774    1.0138  -14.1988 C   0  0  0  0  0  0  0  0  0  0  0  0
   65.4828    2.0793  -13.7884 O   0  0  0  0  0  0  0  0  0  0  0  0
   64.5162    0.8383  -15.4280 O   0  0  0  0  0  0  0  0  0  0  0  0
   66.1913    1.8194  -13.0869 H   0  0  0  0  0  0  0  0  0  0  0  0
   64.8936   -0.1231  -12.0097 C   0  0  0  0  0  0  0  0  0  0  0  0
   64.1831    0.1881  -10.7593 C   0  0  0  0  0  0  0  0  0  0  0  0
   62.9206    0.7001  -10.6455 C   0  0  0  0  0  0  0  0  0  0  0  0
   62.3030    0.9653   -9.4444 C   0  0  0  0  0  0  0  0  0  0  0  0
   62.9973    0.7000   -8.2856 C   0  0  0  0  0  0  0  0  0  0  0  0
   64.2826    0.1787   -8.3410 C   0  0  0  0  0  0  0  0  0  0  0  0
   64.8596   -0.0704   -9.5691 C   0  0  0  0  0  0  0  0  0  0  0  0
   61.9364   -3.1505  -15.7883 C   0  0  0  0  0  0  0  0  0  0  0  0
   62.6904   -4.4003  -16.0518 C   0  0  0  0  0  0  0  0  0  0  0  0
   64.1623   -4.2731  -15.6407 C   0  0  0  0  0  0  0  0  0  0  0  0
   64.8752   -3.9375  -16.8729 N   0  0  0  0  0  0  0  0  0  0  0  0
   65.2212   -4.7278  -17.4681 H   0  0  0  0  0  0  0  0  0  0  0  0
   65.1076   -2.6056  -17.2706 C   0  0  0  0  0  0  0  0  0  0  0  0
   65.8874   -1.7292  -16.4676 N   0  0  0  0  0  0  0  0  0  0  0  0
   64.6141   -2.1413  -18.3765 N   0  0  0  0  0  0  0  0  0  0  0  0
   66.9073   -1.6177  -16.6130 H   0  0  0  0  0  0  0  0  0  0  0  0
   65.3662   -1.1962  -15.7126 H   0  0  0  0  0  0  0  0  0  0  0  0
   64.0440   -2.7836  -18.9569 H   0  0  0  0  0  0  0  0  0  0  0  0
   57.4859   -3.3953  -13.7287 C   0  0  0  0  0  0  0  0  0  0  0  0
   56.3814   -4.0065  -14.4307 C   0  0  0  0  0  0  0  0  0  0  0  0
   56.2123   -4.1118  -15.8704 C   0  0  0  0  0  0  0  0  0  0  0  0
   57.2963   -3.7019  -16.7036 N   0  0  0  0  0  0  0  0  0  0  0  0
   58.1468   -3.2010  -16.3042 H   0  0  0  0  0  0  0  0  0  0  0  0
   57.3270   -3.9179  -18.1032 C   0  0  0  0  0  0  0  0  0  0  0  0
   56.9561   -5.1747  -18.6417 N   0  0  0  0  0  0  0  0  0  0  0  0
   57.6865   -2.9892  -18.8967 N   0  0  0  0  0  0  0  0  0  0  0  0
   57.5862   -5.6727  -19.2737 H   0  0  0  0  0  0  0  0  0  0  0  0
   56.0323   -5.5691  -18.3737 H   0  0  0  0  0  0  0  0  0  0  0  0
   57.9594   -2.0642  -18.5055 H   0  0  0  0  0  0  0  0  0  0  0  0
   57.6874   -4.7711   -9.0650 C   0  0  0  0  0  0  0  0  0  0  0  0
   55.4456   -4.3750   -7.9427 C   0  0  0  0  0  0  0  0  0  0  0  0
   55.9782   -3.3261   -7.4200 O   0  0  0  0  0  0  0  0  0  0  0  0
   56.3094   -5.1104   -8.7824 N   0  0  0  0  0  0  0  0  0  0  0  0
   55.9162   -5.9803   -9.2356 H   0  0  0  0  0  0  0  0  0  0  0  0
   54.0536   -4.6888   -7.6357 C   0  0  0  0  0  0  0  0  0  0  0  0
   54.5908   -6.0931   -5.5936 C   0  0  0  0  0  0  0  0  0  0  0  0
   55.4323   -6.8672   -6.0880 O   0  0  0  0  0  0  0  0  0  0  0  0
   53.9075   -5.0532   -6.2611 N   0  0  0  0  0  0  0  0  0  0  0  0
   53.2127   -4.4918   -5.6699 H   0  0  0  0  0  0  0  0  0  0  0  0
   54.2917   -6.3220   -4.0990 C   0  0  0  0  0  0  0  0  0  0  0  0
   50.7154   -5.6807   -2.6834 C   0  0  0  0  0  0  0  0  0  0  0  0
   52.1745   -5.7413   -2.8235 C   0  0  0  0  0  0  0  0  0  0  0  0
   52.8940   -5.2997   -1.8795 O   0  0  0  0  0  0  0  0  0  0  0  0
   52.8657   -6.2615   -3.9499 N   0  0  0  0  0  0  0  0  0  0  0  0
   52.2612   -6.6210   -4.7218 H   0  0  0  0  0  0  0  0  0  0  0  0
   54.8550   -7.6712   -3.8348 C   0  0  0  0  0  0  0  0  0  0  0  0
   55.7773   -7.9270   -2.7241 C   0  0  0  0  0  0  0  0  0  0  0  0
   55.2185   -7.9721   -1.3413 C   0  0  0  0  0  0  0  0  0  0  0  0
   55.1853   -6.7474   -0.6583 N   0  0  0  0  0  0  0  0  0  0  0  0
   54.3868   -6.5215   -0.0024 H   0  0  0  0  0  0  0  0  0  0  0  0
   56.2303   -5.7886   -0.8406 C   0  0  0  0  0  0  0  0  0  0  0  0
   57.5100   -6.0746   -0.2749 N   0  0  0  0  0  0  0  0  0  0  0  0
   56.0212   -4.7188   -1.4855 N   0  0  0  0  0  0  0  0  0  0  0  0
   58.1674   -5.3098   -0.0289 H   0  0  0  0  0  0  0  0  0  0  0  0
   57.7718   -7.0669   -0.1123 H   0  0  0  0  0  0  0  0  0  0  0  0
   56.7607   -4.0051   -1.6323 H   0  0  0  0  0  0  0  0  0  0  0  0
   53.1229   -3.5944   -8.0626 C   0  0  0  0  0  0  0  0  0  0  0  0
   53.0696   -3.5267   -9.5876 C   0  0  0  0  0  0  0  0  0  0  0  0
   51.7277   -3.7037   -7.4954 C   0  0  0  0  0  0  0  0  0  0  0  0
   58.6392   -5.6238   -8.3153 C   0  0  0  0  0  0  0  0  0  0  0  0
   59.9867   -5.7024   -8.9909 C   0  0  0  0  0  0  0  0  0  0  0  0
   60.7742   -6.8439   -8.3828 C   0  0  0  0  0  0  0  0  0  0  0  0
   60.7659   -7.9886   -9.3114 N   0  0  0  0  0  0  0  0  0  0  0  0
   60.3992   -7.8498  -10.2800 H   0  0  0  0  0  0  0  0  0  0  0  0
   61.2549   -9.2331   -8.8568 C   0  0  0  0  0  0  0  0  0  0  0  0
   61.7210  -10.1899   -9.8234 N   0  0  0  0  0  0  0  0  0  0  0  0
   61.2995   -9.5468   -7.6242 N   0  0  0  0  0  0  0  0  0  0  0  0
   62.6562  -10.0321  -10.2315 H   0  0  0  0  0  0  0  0  0  0  0  0
   61.1688  -11.0114  -10.1232 H   0  0  0  0  0  0  0  0  0  0  0  0
   60.9938   -8.9486   -6.8345 H   0  0  0  0  0  0  0  0  0  0  0  0
 60 61  1  0  0  0
 61 62  2  0  0  0
 61 63  1  0  0  0
 63 59  1  0  0  0
 59 65  1  0  0  0
 65 66  1  0  0  0
 66 67  1  0  0  0
 67 68  1  0  0  0
 68 70  1  0  0  0
 70 71  1  0  0  0
 70 72  2  0  0  0
 59 55  1  0  0  0
 55 56  2  0  0  0
 55 57  1  0  0  0
 57 54  1  0  0  0
 54 76  1  0  0  0
 76 77  1  0  0  0
 76 78  1  0  0  0
 54 50  1  0  0  0
 50 51  2  0  0  0
 50 52  1  0  0  0
 52 49  1  0  0  0
 49 79  1  0  0  0
 79 80  1  0  0  0
 80 81  1  0  0  0
 81 82  1  0  0  0
 82 84  1  0  0  0
 84 85  1  0  0  0
 84 86  2  0  0  0
 49  1  1  0  0  0
  1  2  2  0  0  0
  1  3  1  0  0  0
  3  5  1  0  0  0
  5 38  1  0  0  0
 38 39  1  0  0  0
 39 40  1  0  0  0
 40 41  1  0  0  0
 41 43  1  0  0  0
 43 44  1  0  0  0
 43 45  2  0  0  0
  5  6  1  0  0  0
  6  7  2  0  0  0
  6  8  1  0  0  0
  8 10  1  0  0  0
 10 27  1  0  0  0
 27 28  1  0  0  0
 28 29  1  0  0  0
 29 30  1  0  0  0
 30 32  1  0  0  0
 32 33  1  0  0  0
 32 34  2  0  0  0
 10 11  1  0  0  0
 11 12  2  0  0  0
 11 13  1  0  0  0
 13 15  1  0  0  0
 15 20  1  0  0  0
 20 21  1  0  0  0
 21 22  2  0  0  0
 22 23  1  0  0  0
 23 24  2  0  0  0
 24 25  1  0  0  0
 25 26  2  0  0  0
 15 16  1  0  0  0
 16 17  1  0  0  0
 16 18  2  0  0  0
 26 21  1  0  0  0
 63 64  1  0  0  0
 68 69  1  0  0  0
 71 73  1  0  0  0
 71 74  1  0  0  0
 72 75  1  0  0  0
 57 58  1  0  0  0
 52 53  1  0  0  0
 82 83  1  0  0  0
 85 87  1  0  0  0
 85 88  1  0  0  0
 86 89  1  0  0  0
  3  4  1  0  0  0
 41 42  1  0  0  0
 44 46  1  0  0  0
 44 47  1  0  0  0
 45 48  1  0  0  0
  8  9  1  0  0  0
 30 31  1  0  0  0
 33 35  1  0  0  0
 33 36  1  0  0  0
 34 37  1  0  0  0
 13 14  1  0  0  0
 17 19  1  0  0  0
M  END
> <minimizedAffinity>
-6.58111

> <CNNscore>
0.3565188348

> <CNNaffinity>
7.1386857033

> <CNN_VS>
2.5450758934

> <CNNaffinity_variance>
1.0773876905

$$$$
[H]N=C(N([H])[H])N([H])C([H])([H])C([H])([H])C([H])([H])[C@@]([H])(C(=O)N([H])[C@]([H])(C(=O)O[H])C([H])([H])c1c([H])c([H])c([H])c([H])c1[H])N([H])C(=O)[C@@]([H])(N([H])C(=O)[C@@]([H])(N([H])C(=O)[C@@]([H])(N([H])C(=O)[C@@]([H])(N([H])C(=O)C([H])([H])[H])C([H])([H])C([H])([H])C([H])([H])N([H])C(=N[H])N([H])[H])C([H])(C([H])([H])[H])C([H])([H])[H])C([H])([H])C([H])([H])C([H])([H])N([H])C(=N[H])N([H])[H])C([H])([H])C([H])([H])C([H])([H])N([H])C(=N[H])N([H])[H]


 89 89  0  0  0  0  0  0  0  0999 V2000
   57.6374   -4.6836  -10.8280 C   0  0  0  0  0  0  0  0  0  0  0  0
   57.6177   -5.8340  -11.3182 O   0  0  0  0  0  0  0  0  0  0  0  0
   57.9710   -3.5998  -11.7048 N   0  0  0  0  0  0  0  0  0  0  0  0
   58.0324   -2.6660  -11.3029 H   0  0  0  0  0  0  0  0  0  0  0  0
   58.2563   -3.8827  -13.0667 C   0  0  0  0  0  0  0  0  0  0  0  0
   59.7368   -3.8660  -13.3353 C   0  0  0  0  0  0  0  0  0  0  0  0
   60.4075   -4.7900  -12.8110 O   0  0  0  0  0  0  0  0  0  0  0  0
   60.3534   -2.9030  -14.1173 N   0  0  0  0  0  0  0  0  0  0  0  0
   59.8519   -2.1341  -14.5647 H   0  0  0  0  0  0  0  0  0  0  0  0
   61.8317   -2.9548  -14.3451 C   0  0  0  0  0  0  0  0  0  0  0  0
   62.3675   -1.7031  -13.8339 C   0  0  0  0  0  0  0  0  0  0  0  0
   61.5032   -0.9136  -13.2861 O   0  0  0  0  0  0  0  0  0  0  0  0
   63.6688   -1.2450  -13.8632 N   0  0  0  0  0  0  0  0  0  0  0  0
   64.4289   -1.7695  -14.3393 H   0  0  0  0  0  0  0  0  0  0  0  0
   64.0436    0.0678  -13.2699 C   0  0  0  0  0  0  0  0  0  0  0  0
   64.5933    0.9612  -14.2979 C   0  0  0  0  0  0  0  0  0  0  0  0
   64.5525    0.6106  -15.6498 O   0  0  0  0  0  0  0  0  0  0  0  0
   65.1122    2.0586  -13.9907 O   0  0  0  0  0  0  0  0  0  0  0  0
   63.6270    0.2891  -15.9687 H   0  0  0  0  0  0  0  0  0  0  0  0
   64.9682   -0.1301  -12.1071 C   0  0  0  0  0  0  0  0  0  0  0  0
   64.3017    0.1382  -10.8229 C   0  0  0  0  0  0  0  0  0  0  0  0
   64.8313   -0.0460   -9.5761 C   0  0  0  0  0  0  0  0  0  0  0  0
   64.1603    0.2300   -8.4065 C   0  0  0  0  0  0  0  0  0  0  0  0
   62.8773    0.7211   -8.4952 C   0  0  0  0  0  0  0  0  0  0  0  0
   62.2891    0.9286   -9.7353 C   0  0  0  0  0  0  0  0  0  0  0  0
   63.0021    0.6370  -10.8799 C   0  0  0  0  0  0  0  0  0  0  0  0
   62.1064   -3.3550  -15.7552 C   0  0  0  0  0  0  0  0  0  0  0  0
   63.1994   -4.3518  -15.8629 C   0  0  0  0  0  0  0  0  0  0  0  0
   62.8744   -5.6367  -15.0913 C   0  0  0  0  0  0  0  0  0  0  0  0
   63.9671   -5.7927  -14.1319 N   0  0  0  0  0  0  0  0  0  0  0  0
   64.9461   -5.6518  -14.4789 H   0  0  0  0  0  0  0  0  0  0  0  0
   63.7427   -6.1247  -12.7808 C   0  0  0  0  0  0  0  0  0  0  0  0
   64.7679   -5.9633  -11.8091 N   0  0  0  0  0  0  0  0  0  0  0  0
   62.5979   -6.5899  -12.3869 N   0  0  0  0  0  0  0  0  0  0  0  0
   64.8604   -5.0944  -11.2522 H   0  0  0  0  0  0  0  0  0  0  0  0
   65.4312   -6.7822  -11.6867 H   0  0  0  0  0  0  0  0  0  0  0  0
   61.8548   -6.7082  -13.0998 H   0  0  0  0  0  0  0  0  0  0  0  0
   57.4667   -3.2723  -14.1320 C   0  0  0  0  0  0  0  0  0  0  0  0
   56.6503   -3.9217  -15.1311 C   0  0  0  0  0  0  0  0  0  0  0  0
   56.6312   -3.6454  -16.5579 C   0  0  0  0  0  0  0  0  0  0  0  0
   57.8661   -3.3146  -17.1924 N   0  0  0  0  0  0  0  0  0  0  0  0
   58.5264   -4.0684  -17.5524 H   0  0  0  0  0  0  0  0  0  0  0  0
   58.3092   -1.9832  -17.3867 C   0  0  0  0  0  0  0  0  0  0  0  0
   57.8415   -1.2271  -18.4897 N   0  0  0  0  0  0  0  0  0  0  0  0
   59.1314   -1.4467  -16.5759 N   0  0  0  0  0  0  0  0  0  0  0  0
   58.5029   -0.7806  -19.1282 H   0  0  0  0  0  0  0  0  0  0  0  0
   56.8143   -1.1443  -18.6265 H   0  0  0  0  0  0  0  0  0  0  0  0
   59.4773   -1.9984  -15.7640 H   0  0  0  0  0  0  0  0  0  0  0  0
   57.3187   -4.5172   -9.3841 C   0  0  0  0  0  0  0  0  0  0  0  0
   55.0760   -4.4272   -8.1990 C   0  0  0  0  0  0  0  0  0  0  0  0
   55.6015   -3.5351   -7.4342 O   0  0  0  0  0  0  0  0  0  0  0  0
   55.9439   -4.9265   -9.1938 N   0  0  0  0  0  0  0  0  0  0  0  0
   55.5565   -5.6611   -9.8473 H   0  0  0  0  0  0  0  0  0  0  0  0
   53.6870   -4.8180   -7.9789 C   0  0  0  0  0  0  0  0  0  0  0  0
   53.9967   -6.2155   -5.8857 C   0  0  0  0  0  0  0  0  0  0  0  0
   54.7571   -7.0952   -6.3325 O   0  0  0  0  0  0  0  0  0  0  0  0
   53.4587   -5.1235   -6.6011 N   0  0  0  0  0  0  0  0  0  0  0  0
   52.8164   -4.4691   -6.0475 H   0  0  0  0  0  0  0  0  0  0  0  0
   53.6286   -6.3654   -4.3964 C   0  0  0  0  0  0  0  0  0  0  0  0
   56.1283   -5.3263   -1.5898 C   0  0  0  0  0  0  0  0  0  0  0  0
   55.0834   -6.0287   -2.3430 C   0  0  0  0  0  0  0  0  0  0  0  0
   54.5139   -7.0247   -1.8068 O   0  0  0  0  0  0  0  0  0  0  0  0
   54.6464   -5.6832   -3.6494 N   0  0  0  0  0  0  0  0  0  0  0  0
   55.1247   -4.8613   -4.0809 H   0  0  0  0  0  0  0  0  0  0  0  0
   52.2945   -5.7181   -4.3017 C   0  0  0  0  0  0  0  0  0  0  0  0
   51.1964   -6.3056   -3.5279 C   0  0  0  0  0  0  0  0  0  0  0  0
   50.9418   -5.7786   -2.1554 C   0  0  0  0  0  0  0  0  0  0  0  0
   51.6260   -6.4283   -1.1175 N   0  0  0  0  0  0  0  0  0  0  0  0
   52.4423   -5.9574   -0.6372 H   0  0  0  0  0  0  0  0  0  0  0  0
   51.2291   -7.7358   -0.6964 C   0  0  0  0  0  0  0  0  0  0  0  0
   50.1184   -7.8458    0.1944 N   0  0  0  0  0  0  0  0  0  0  0  0
   51.8484   -8.7625   -1.1045 N   0  0  0  0  0  0  0  0  0  0  0  0
   50.0194   -8.6647    0.8248 H   0  0  0  0  0  0  0  0  0  0  0  0
   49.4085   -7.0872    0.2009 H   0  0  0  0  0  0  0  0  0  0  0  0
   51.5828   -9.7233   -0.8144 H   0  0  0  0  0  0  0  0  0  0  0  0
   52.7249   -3.8104   -8.5316 C   0  0  0  0  0  0  0  0  0  0  0  0
   51.6416   -3.5089   -7.4980 C   0  0  0  0  0  0  0  0  0  0  0  0
   53.3664   -2.5281   -9.0054 C   0  0  0  0  0  0  0  0  0  0  0  0
   58.2530   -5.2731   -8.5176 C   0  0  0  0  0  0  0  0  0  0  0  0
   59.3882   -5.8849   -9.3022 C   0  0  0  0  0  0  0  0  0  0  0  0
   60.4920   -6.2771   -8.3427 C   0  0  0  0  0  0  0  0  0  0  0  0
   61.7492   -6.4488   -9.0927 N   0  0  0  0  0  0  0  0  0  0  0  0
   61.7020   -6.7038  -10.1051 H   0  0  0  0  0  0  0  0  0  0  0  0
   62.9737   -6.2620   -8.4142 C   0  0  0  0  0  0  0  0  0  0  0  0
   63.1153   -6.7851   -7.0825 N   0  0  0  0  0  0  0  0  0  0  0  0
   63.9606   -5.6468   -8.9313 N   0  0  0  0  0  0  0  0  0  0  0  0
   63.2796   -7.8000   -6.9885 H   0  0  0  0  0  0  0  0  0  0  0  0
   63.0578   -6.1995   -6.2319 H   0  0  0  0  0  0  0  0  0  0  0  0
   63.9838   -5.2246   -9.8779 H   0  0  0  0  0  0  0  0  0  0  0  0
 60 61  1  0  0  0
 61 62  2  0  0  0
 61 63  1  0  0  0
 63 59  1  0  0  0
 59 65  1  0  0  0
 65 66  1  0  0  0
 66 67  1  0  0  0
 67 68  1  0  0  0
 68 70  1  0  0  0
 70 71  1  0  0  0
 70 72  2  0  0  0
 59 55  1  0  0  0
 55 56  2  0  0  0
 55 57  1  0  0  0
 57 54  1  0  0  0
 54 76  1  0  0  0
 76 77  1  0  0  0
 76 78  1  0  0  0
 54 50  1  0  0  0
 50 51  2  0  0  0
 50 52  1  0  0  0
 52 49  1  0  0  0
 49 79  1  0  0  0
 79 80  1  0  0  0
 80 81  1  0  0  0
 81 82  1  0  0  0
 82 84  1  0  0  0
 84 85  1  0  0  0
 84 86  2  0  0  0
 49  1  1  0  0  0
  1  2  2  0  0  0
  1  3  1  0  0  0
  3  5  1  0  0  0
  5 38  1  0  0  0
 38 39  1  0  0  0
 39 40  1  0  0  0
 40 41  1  0  0  0
 41 43  1  0  0  0
 43 44  1  0  0  0
 43 45  2  0  0  0
  5  6  1  0  0  0
  6  7  2  0  0  0
  6  8  1  0  0  0
  8 10  1  0  0  0
 10 27  1  0  0  0
 27 28  1  0  0  0
 28 29  1  0  0  0
 29 30  1  0  0  0
 30 32  1  0  0  0
 32 33  1  0  0  0
 32 34  2  0  0  0
 10 11  1  0  0  0
 11 12  2  0  0  0
 11 13  1  0  0  0
 13 15  1  0  0  0
 15 20  1  0  0  0
 20 21  1  0  0  0
 21 22  2  0  0  0
 22 23  1  0  0  0
 23 24  2  0  0  0
 24 25  1  0  0  0
 25 26  2  0  0  0
 15 16  1  0  0  0
 16 17  1  0  0  0
 16 18  2  0  0  0
 26 21  1  0  0  0
 63 64  1  0  0  0
 68 69  1  0  0  0
 71 73  1  0  0  0
 71 74  1  0  0  0
 72 75  1  0  0  0
 57 58  1  0  0  0
 52 53  1  0  0  0
 82 83  1  0  0  0
 85 87  1  0  0  0
 85 88  1  0  0  0
 86 89  1  0  0  0
  3  4  1  0  0  0
 41 42  1  0  0  0
 44 46  1  0  0  0
 44 47  1  0  0  0
 45 48  1  0  0  0
  8  9  1  0  0  0
 30 31  1  0  0  0
 33 35  1  0  0  0
 33 36  1  0  0  0
 34 37  1  0  0  0
 13 14  1  0  0  0
 17 19  1  0  0  0
M  END
> <minimizedAffinity>
-7.19963

> <CNNscore>
0.2597379982

> <CNNaffinity>
6.9917540550

> <CNN_VS>
1.8160241842

> <CNNaffinity_variance>
0.9622328877

$$$$
[H]N=C(N([H])[H])N([H])C([H])([H])C([H])([H])C([H])([H])[C@@]([H])(C(=O)N([H])[C@]([H])(C(=O)O[H])C([H])([H])c1c([H])c([H])c([H])c([H])c1[H])N([H])C(=O)[C@@]([H])(N([H])C(=O)[C@@]([H])(N([H])C(=O)[C@@]([H])(N([H])C(=O)[C@@]([H])(N([H])C(=O)C([H])([H])[H])C([H])([H])C([H])([H])C([H])([H])N([H])C(=N[H])N([H])[H])C([H])(C([H])([H])[H])C([H])([H])[H])C([H])([H])C([H])([H])C([H])([H])N([H])C(=N[H])N([H])[H])C([H])([H])C([H])([H])C([H])([H])N([H])C(=N[H])N([H])[H]


 89 89  0  0  0  0  0  0  0  0999 V2000
   60.1264   -6.2096   -9.3422 C   0  0  0  0  0  0  0  0  0  0  0  0
   60.0723   -5.6115  -10.4393 O   0  0  0  0  0  0  0  0  0  0  0  0
   59.0761   -5.9548   -8.4008 N   0  0  0  0  0  0  0  0  0  0  0  0
   59.1372   -6.4040   -7.4887 H   0  0  0  0  0  0  0  0  0  0  0  0
   58.0408   -5.0505   -8.7567 C   0  0  0  0  0  0  0  0  0  0  0  0
   57.0203   -4.9203   -7.6585 C   0  0  0  0  0  0  0  0  0  0  0  0
   56.8901   -3.7775   -7.1531 O   0  0  0  0  0  0  0  0  0  0  0  0
   56.2485   -5.9808   -7.2129 N   0  0  0  0  0  0  0  0  0  0  0  0
   56.3169   -6.9265   -7.5921 H   0  0  0  0  0  0  0  0  0  0  0  0
   55.2481   -5.7735   -6.1191 C   0  0  0  0  0  0  0  0  0  0  0  0
   55.5166   -6.7968   -5.1211 C   0  0  0  0  0  0  0  0  0  0  0  0
   55.3822   -8.0160   -5.5283 O   0  0  0  0  0  0  0  0  0  0  0  0
   55.8863   -6.6394   -3.8011 N   0  0  0  0  0  0  0  0  0  0  0  0
   55.9565   -5.7039   -3.3544 H   0  0  0  0  0  0  0  0  0  0  0  0
   56.1397   -7.8125   -2.9203 C   0  0  0  0  0  0  0  0  0  0  0  0
   55.3536   -7.7094   -1.6839 C   0  0  0  0  0  0  0  0  0  0  0  0
   55.5105   -8.6404   -0.6540 O   0  0  0  0  0  0  0  0  0  0  0  0
   54.5236   -6.7862   -1.5204 O   0  0  0  0  0  0  0  0  0  0  0  0
   56.4926   -8.8120   -0.3939 H   0  0  0  0  0  0  0  0  0  0  0  0
   57.6092   -7.9704   -2.6716 C   0  0  0  0  0  0  0  0  0  0  0  0
   58.1268   -6.9368   -1.7612 C   0  0  0  0  0  0  0  0  0  0  0  0
   58.7409   -7.1446   -0.5577 C   0  0  0  0  0  0  0  0  0  0  0  0
   59.2123   -6.1351    0.2504 C   0  0  0  0  0  0  0  0  0  0  0  0
   59.0565   -4.8358   -0.1773 C   0  0  0  0  0  0  0  0  0  0  0  0
   58.4408   -4.5655   -1.3916 C   0  0  0  0  0  0  0  0  0  0  0  0
   57.9846   -5.6115   -2.1668 C   0  0  0  0  0  0  0  0  0  0  0  0
   53.8826   -5.6548   -6.7067 C   0  0  0  0  0  0  0  0  0  0  0  0
   52.8279   -5.5075   -5.6742 C   0  0  0  0  0  0  0  0  0  0  0  0
   51.4596   -5.2084   -6.2986 C   0  0  0  0  0  0  0  0  0  0  0  0
   51.6718   -4.0286   -7.1364 N   0  0  0  0  0  0  0  0  0  0  0  0
   52.5181   -4.0138   -7.7545 H   0  0  0  0  0  0  0  0  0  0  0  0
   50.7874   -2.9313   -7.1314 C   0  0  0  0  0  0  0  0  0  0  0  0
   50.8753   -1.9181   -8.1248 N   0  0  0  0  0  0  0  0  0  0  0  0
   49.8726   -2.8128   -6.2197 N   0  0  0  0  0  0  0  0  0  0  0  0
   50.3181   -1.9592   -8.9975 H   0  0  0  0  0  0  0  0  0  0  0  0
   51.5424   -1.1185   -7.9215 H   0  0  0  0  0  0  0  0  0  0  0  0
   49.8146   -3.5528   -5.4962 H   0  0  0  0  0  0  0  0  0  0  0  0
   57.4540   -5.0841  -10.0928 C   0  0  0  0  0  0  0  0  0  0  0  0
   56.4899   -4.1793  -10.6744 C   0  0  0  0  0  0  0  0  0  0  0  0
   56.0780   -4.1189  -12.0669 C   0  0  0  0  0  0  0  0  0  0  0  0
   56.8510   -3.3174  -12.9597 N   0  0  0  0  0  0  0  0  0  0  0  0
   57.2875   -2.3981  -12.6463 H   0  0  0  0  0  0  0  0  0  0  0  0
   57.0919   -3.6685  -14.3107 C   0  0  0  0  0  0  0  0  0  0  0  0
   56.1002   -4.3465  -15.0617 N   0  0  0  0  0  0  0  0  0  0  0  0
   58.1992   -3.3810  -14.8698 N   0  0  0  0  0  0  0  0  0  0  0  0
   56.3235   -5.2197  -15.5436 H   0  0  0  0  0  0  0  0  0  0  0  0
   55.1483   -3.9310  -15.1038 H   0  0  0  0  0  0  0  0  0  0  0  0
   58.9304   -2.8825  -14.3220 H   0  0  0  0  0  0  0  0  0  0  0  0
   61.2645   -7.1341   -9.0885 C   0  0  0  0  0  0  0  0  0  0  0  0
   62.8992   -7.0537   -7.1485 C   0  0  0  0  0  0  0  0  0  0  0  0
   63.8325   -7.1495   -8.0299 O   0  0  0  0  0  0  0  0  0  0  0  0
   61.5926   -7.0417   -7.6823 N   0  0  0  0  0  0  0  0  0  0  0  0
   60.7923   -6.9635   -6.9966 H   0  0  0  0  0  0  0  0  0  0  0  0
   63.2649   -6.9635   -5.7384 C   0  0  0  0  0  0  0  0  0  0  0  0
   61.8532   -8.5251   -4.3246 C   0  0  0  0  0  0  0  0  0  0  0  0
   60.8660   -7.7918   -4.1258 O   0  0  0  0  0  0  0  0  0  0  0  0
   63.0086   -8.2000   -5.0683 N   0  0  0  0  0  0  0  0  0  0  0  0
   63.7601   -8.9611   -5.1264 H   0  0  0  0  0  0  0  0  0  0  0  0
   61.7691   -9.9226   -3.6797 C   0  0  0  0  0  0  0  0  0  0  0  0
   59.0194  -10.8062   -1.0599 C   0  0  0  0  0  0  0  0  0  0  0  0
   60.2817  -10.7750   -1.8069 C   0  0  0  0  0  0  0  0  0  0  0  0
   61.2319  -11.5200   -1.4248 O   0  0  0  0  0  0  0  0  0  0  0  0
   60.5375   -9.9640   -2.9444 N   0  0  0  0  0  0  0  0  0  0  0  0
   59.7467   -9.3534   -3.2482 H   0  0  0  0  0  0  0  0  0  0  0  0
   61.7908  -10.8445   -4.8448 C   0  0  0  0  0  0  0  0  0  0  0  0
   60.9768  -10.6079   -6.0411 C   0  0  0  0  0  0  0  0  0  0  0  0
   60.9479  -11.6656   -7.0933 C   0  0  0  0  0  0  0  0  0  0  0  0
   61.3635  -12.9415   -6.6849 N   0  0  0  0  0  0  0  0  0  0  0  0
   60.8197  -13.4716   -5.9487 H   0  0  0  0  0  0  0  0  0  0  0  0
   62.5279  -13.5413   -7.2584 C   0  0  0  0  0  0  0  0  0  0  0  0
   62.3693  -14.3073   -8.4531 N   0  0  0  0  0  0  0  0  0  0  0  0
   63.6640  -13.3943   -6.7181 N   0  0  0  0  0  0  0  0  0  0  0  0
   63.0428  -15.0581   -8.6987 H   0  0  0  0  0  0  0  0  0  0  0  0
   61.5630  -14.0992   -9.0745 H   0  0  0  0  0  0  0  0  0  0  0  0
   64.5255  -13.8191   -7.1118 H   0  0  0  0  0  0  0  0  0  0  0  0
   64.6661   -6.4655   -5.5515 C   0  0  0  0  0  0  0  0  0  0  0  0
   64.6421   -4.9888   -5.1616 C   0  0  0  0  0  0  0  0  0  0  0  0
   65.4827   -7.2553   -4.5567 C   0  0  0  0  0  0  0  0  0  0  0  0
   60.9555   -8.5231   -9.5014 C   0  0  0  0  0  0  0  0  0  0  0  0
   61.8422   -8.9921  -10.6294 C   0  0  0  0  0  0  0  0  0  0  0  0
   62.6221  -10.2052  -10.1679 C   0  0  0  0  0  0  0  0  0  0  0  0
   63.8973   -9.7656   -9.5735 N   0  0  0  0  0  0  0  0  0  0  0  0
   64.2906   -8.8383   -9.8519 H   0  0  0  0  0  0  0  0  0  0  0  0
   64.5418  -10.6155   -8.6479 C   0  0  0  0  0  0  0  0  0  0  0  0
   64.5276  -10.2610   -7.2546 N   0  0  0  0  0  0  0  0  0  0  0  0
   65.1387  -11.6847   -8.9945 N   0  0  0  0  0  0  0  0  0  0  0  0
   63.6563  -10.4396   -6.7304 H   0  0  0  0  0  0  0  0  0  0  0  0
   65.3364   -9.8404   -6.7660 H   0  0  0  0  0  0  0  0  0  0  0  0
   65.2204  -12.0473   -9.9624 H   0  0  0  0  0  0  0  0  0  0  0  0
 60 61  1  0  0  0
 61 62  2  0  0  0
 61 63  1  0  0  0
 63 59  1  0  0  0
 59 65  1  0  0  0
 65 66  1  0  0  0
 66 67  1  0  0  0
 67 68  1  0  0  0
 68 70  1  0  0  0
 70 71  1  0  0  0
 70 72  2  0  0  0
 59 55  1  0  0  0
 55 56  2  0  0  0
 55 57  1  0  0  0
 57 54  1  0  0  0
 54 76  1  0  0  0
 76 77  1  0  0  0
 76 78  1  0  0  0
 54 50  1  0  0  0
 50 51  2  0  0  0
 50 52  1  0  0  0
 52 49  1  0  0  0
 49 79  1  0  0  0
 79 80  1  0  0  0
 80 81  1  0  0  0
 81 82  1  0  0  0
 82 84  1  0  0  0
 84 85  1  0  0  0
 84 86  2  0  0  0
 49  1  1  0  0  0
  1  2  2  0  0  0
  1  3  1  0  0  0
  3  5  1  0  0  0
  5 38  1  0  0  0
 38 39  1  0  0  0
 39 40  1  0  0  0
 40 41  1  0  0  0
 41 43  1  0  0  0
 43 44  1  0  0  0
 43 45  2  0  0  0
  5  6  1  0  0  0
  6  7  2  0  0  0
  6  8  1  0  0  0
  8 10  1  0  0  0
 10 27  1  0  0  0
 27 28  1  0  0  0
 28 29  1  0  0  0
 29 30  1  0  0  0
 30 32  1  0  0  0
 32 33  1  0  0  0
 32 34  2  0  0  0
 10 11  1  0  0  0
 11 12  2  0  0  0
 11 13  1  0  0  0
 13 15  1  0  0  0
 15 20  1  0  0  0
 20 21  1  0  0  0
 21 22  2  0  0  0
 22 23  1  0  0  0
 23 24  2  0  0  0
 24 25  1  0  0  0
 25 26  2  0  0  0
 15 16  1  0  0  0
 16 17  1  0  0  0
 16 18  2  0  0  0
 26 21  1  0  0  0
 63 64  1  0  0  0
 68 69  1  0  0  0
 71 73  1  0  0  0
 71 74  1  0  0  0
 72 75  1  0  0  0
 57 58  1  0  0  0
 52 53  1  0  0  0
 82 83  1  0  0  0
 85 87  1  0  0  0
 85 88  1  0  0  0
 86 89  1  0  0  0
  3  4  1  0  0  0
 41 42  1  0  0  0
 44 46  1  0  0  0
 44 47  1  0  0  0
 45 48  1  0  0  0
  8  9  1  0  0  0
 30 31  1  0  0  0
 33 35  1  0  0  0
 33 36  1  0  0  0
 34 37  1  0  0  0
 13 14  1  0  0  0
 17 19  1  0  0  0
M  END
> <minimizedAffinity>
-6.31752

> <CNNscore>
0.2394827902

> <CNNaffinity>
7.1652574539

> <CNN_VS>
1.7159558535

> <CNNaffinity_variance>
1.0979825258

$$$$
[H]N=C(N([H])[H])N([H])C([H])([H])C([H])([H])C([H])([H])[C@@]([H])(C(=O)N([H])[C@]([H])(C(=O)O[H])C([H])([H])c1c([H])c([H])c([H])c([H])c1[H])N([H])C(=O)[C@@]([H])(N([H])C(=O)[C@@]([H])(N([H])C(=O)[C@@]([H])(N([H])C(=O)[C@@]([H])(N([H])C(=O)C([H])([H])[H])C([H])([H])C([H])([H])C([H])([H])N([H])C(=N[H])N([H])[H])C([H])(C([H])([H])[H])C([H])([H])[H])C([H])([H])C([H])([H])C([H])([H])N([H])C(=N[H])N([H])[H])C([H])([H])C([H])([H])C([H])([H])N([H])C(=N[H])N([H])[H]


 89 89  0  0  0  0  0  0  0  0999 V2000
   60.3076   -6.3263   -9.0660 C   0  0  0  0  0  0  0  0  0  0  0  0
   60.3818   -5.7993  -10.1978 O   0  0  0  0  0  0  0  0  0  0  0  0
   59.1600   -6.0115   -8.2670 N   0  0  0  0  0  0  0  0  0  0  0  0
   59.1146   -6.4016   -7.3273 H   0  0  0  0  0  0  0  0  0  0  0  0
   58.1782   -5.1312   -8.7939 C   0  0  0  0  0  0  0  0  0  0  0  0
   57.0508   -4.9161   -7.8208 C   0  0  0  0  0  0  0  0  0  0  0  0
   56.8302   -3.7273   -7.4793 O   0  0  0  0  0  0  0  0  0  0  0  0
   56.2781   -5.9497   -7.3172 N   0  0  0  0  0  0  0  0  0  0  0  0
   56.4177   -6.9305   -7.5649 H   0  0  0  0  0  0  0  0  0  0  0  0
   55.1683   -5.6577   -6.3564 C   0  0  0  0  0  0  0  0  0  0  0  0
   55.2101   -6.7095   -5.3527 C   0  0  0  0  0  0  0  0  0  0  0  0
   55.3078   -7.9123   -5.8152 O   0  0  0  0  0  0  0  0  0  0  0  0
   55.1516   -6.5947   -3.9789 N   0  0  0  0  0  0  0  0  0  0  0  0
   55.0050   -5.6810   -3.5062 H   0  0  0  0  0  0  0  0  0  0  0  0
   55.2269   -7.7906   -3.0957 C   0  0  0  0  0  0  0  0  0  0  0  0
   54.2447   -7.6922   -2.0081 C   0  0  0  0  0  0  0  0  0  0  0  0
   54.1539   -8.6867   -1.0310 O   0  0  0  0  0  0  0  0  0  0  0  0
   53.4642   -6.7164   -1.9280 O   0  0  0  0  0  0  0  0  0  0  0  0
   55.0609   -8.9492   -0.6186 H   0  0  0  0  0  0  0  0  0  0  0  0
   56.6292   -7.9897   -2.6056 C   0  0  0  0  0  0  0  0  0  0  0  0
   57.0596   -6.9011   -1.7140 C   0  0  0  0  0  0  0  0  0  0  0  0
   57.1738   -6.9598   -0.3530 C   0  0  0  0  0  0  0  0  0  0  0  0
   57.5895   -5.9074    0.4306 C   0  0  0  0  0  0  0  0  0  0  0  0
   57.9102   -4.7222   -0.1922 C   0  0  0  0  0  0  0  0  0  0  0  0
   57.8137   -4.6056   -1.5720 C   0  0  0  0  0  0  0  0  0  0  0  0
   57.3920   -5.6888   -2.3149 C   0  0  0  0  0  0  0  0  0  0  0  0
   53.9068   -5.4066   -7.1112 C   0  0  0  0  0  0  0  0  0  0  0  0
   52.7158   -5.9813   -6.4394 C   0  0  0  0  0  0  0  0  0  0  0  0
   51.7164   -4.8939   -6.0268 C   0  0  0  0  0  0  0  0  0  0  0  0
   51.7010   -3.9467   -7.1411 N   0  0  0  0  0  0  0  0  0  0  0  0
   52.4035   -4.0818   -7.9072 H   0  0  0  0  0  0  0  0  0  0  0  0
   50.7867   -2.8764   -7.2084 C   0  0  0  0  0  0  0  0  0  0  0  0
   50.9426   -1.8422   -8.1715 N   0  0  0  0  0  0  0  0  0  0  0  0
   49.7812   -2.8024   -6.3926 N   0  0  0  0  0  0  0  0  0  0  0  0
   50.4780   -1.8832   -9.0968 H   0  0  0  0  0  0  0  0  0  0  0  0
   51.5605   -1.0273   -7.8888 H   0  0  0  0  0  0  0  0  0  0  0  0
   49.6737   -3.5574   -5.6906 H   0  0  0  0  0  0  0  0  0  0  0  0
   57.7330   -5.2603  -10.1781 C   0  0  0  0  0  0  0  0  0  0  0  0
   57.3763   -4.2151  -11.1090 C   0  0  0  0  0  0  0  0  0  0  0  0
   56.1776   -4.1466  -11.9280 C   0  0  0  0  0  0  0  0  0  0  0  0
   56.2148   -3.3372  -13.1030 N   0  0  0  0  0  0  0  0  0  0  0  0
   55.7881   -2.3618  -13.1208 H   0  0  0  0  0  0  0  0  0  0  0  0
   56.8055   -3.7582  -14.3198 C   0  0  0  0  0  0  0  0  0  0  0  0
   56.0674   -4.5431  -15.2397 N   0  0  0  0  0  0  0  0  0  0  0  0
   58.0045   -3.4386  -14.6053 N   0  0  0  0  0  0  0  0  0  0  0  0
   56.4438   -5.4297  -15.5815 H   0  0  0  0  0  0  0  0  0  0  0  0
   55.1398   -4.1911  -15.5501 H   0  0  0  0  0  0  0  0  0  0  0  0
   58.5503   -2.8618  -13.9326 H   0  0  0  0  0  0  0  0  0  0  0  0
   61.4028   -7.2333   -8.6276 C   0  0  0  0  0  0  0  0  0  0  0  0
   61.7580   -7.8957   -6.2033 C   0  0  0  0  0  0  0  0  0  0  0  0
   62.9107   -7.3303   -6.2969 O   0  0  0  0  0  0  0  0  0  0  0  0
   60.9867   -7.8455   -7.3843 N   0  0  0  0  0  0  0  0  0  0  0  0
   60.0313   -8.2962   -7.3558 H   0  0  0  0  0  0  0  0  0  0  0  0
   61.3702   -8.5049   -4.9349 C   0  0  0  0  0  0  0  0  0  0  0  0
   61.5609  -10.9379   -5.6237 C   0  0  0  0  0  0  0  0  0  0  0  0
   60.7373  -10.9556   -6.5581 O   0  0  0  0  0  0  0  0  0  0  0  0
   61.9038   -9.8264   -4.8232 N   0  0  0  0  0  0  0  0  0  0  0  0
   62.6338  -10.0040   -4.0597 H   0  0  0  0  0  0  0  0  0  0  0  0
   62.2584  -12.2833   -5.3424 C   0  0  0  0  0  0  0  0  0  0  0  0
   61.0310  -12.7208   -1.6671 C   0  0  0  0  0  0  0  0  0  0  0  0
   61.0532  -12.5194   -3.1202 C   0  0  0  0  0  0  0  0  0  0  0  0
   59.9528  -12.3724   -3.7296 O   0  0  0  0  0  0  0  0  0  0  0  0
   62.2255  -12.4756   -3.9207 N   0  0  0  0  0  0  0  0  0  0  0  0
   63.1259  -12.5996   -3.4065 H   0  0  0  0  0  0  0  0  0  0  0  0
   61.4311  -13.2661   -6.0891 C   0  0  0  0  0  0  0  0  0  0  0  0
   62.0124  -14.4569   -6.7167 C   0  0  0  0  0  0  0  0  0  0  0  0
   62.5967  -14.3185   -8.0827 C   0  0  0  0  0  0  0  0  0  0  0  0
   61.6738  -14.2800   -9.1382 N   0  0  0  0  0  0  0  0  0  0  0  0
   61.1252  -15.1452   -9.4016 H   0  0  0  0  0  0  0  0  0  0  0  0
   61.4635  -13.0709   -9.8719 C   0  0  0  0  0  0  0  0  0  0  0  0
   60.9636  -13.1734  -11.2057 N   0  0  0  0  0  0  0  0  0  0  0  0
   61.7151  -11.9451   -9.3492 N   0  0  0  0  0  0  0  0  0  0  0  0
   61.1481  -12.4270  -11.9032 H   0  0  0  0  0  0  0  0  0  0  0  0
   60.4102  -14.0131  -11.4668 H   0  0  0  0  0  0  0  0  0  0  0  0
   61.5730  -11.0518   -9.8586 H   0  0  0  0  0  0  0  0  0  0  0  0
   61.7028   -7.6288   -3.7653 C   0  0  0  0  0  0  0  0  0  0  0  0
   60.4720   -7.4644   -2.8760 C   0  0  0  0  0  0  0  0  0  0  0  0
   62.8802   -8.1005   -2.9458 C   0  0  0  0  0  0  0  0  0  0  0  0
   61.7395   -8.2392   -9.6620 C   0  0  0  0  0  0  0  0  0  0  0  0
   63.1164   -8.0210  -10.2410 C   0  0  0  0  0  0  0  0  0  0  0  0
   64.0338   -9.1220   -9.7524 C   0  0  0  0  0  0  0  0  0  0  0  0
   64.3607   -8.8882   -8.3342 N   0  0  0  0  0  0  0  0  0  0  0  0
   64.3983   -7.9055   -7.9805 H   0  0  0  0  0  0  0  0  0  0  0  0
   64.6116  -10.0029   -7.5041 C   0  0  0  0  0  0  0  0  0  0  0  0
   64.4992  -11.3228   -8.0629 N   0  0  0  0  0  0  0  0  0  0  0  0
   64.9322   -9.8899   -6.2777 N   0  0  0  0  0  0  0  0  0  0  0  0
   65.2790  -11.6542   -8.6528 H   0  0  0  0  0  0  0  0  0  0  0  0
   63.6849  -11.9406   -7.9043 H   0  0  0  0  0  0  0  0  0  0  0  0
   65.0441   -8.9989   -5.7595 H   0  0  0  0  0  0  0  0  0  0  0  0
 60 61  1  0  0  0
 61 62  2  0  0  0
 61 63  1  0  0  0
 63 59  1  0  0  0
 59 65  1  0  0  0
 65 66  1  0  0  0
 66 67  1  0  0  0
 67 68  1  0  0  0
 68 70  1  0  0  0
 70 71  1  0  0  0
 70 72  2  0  0  0
 59 55  1  0  0  0
 55 56  2  0  0  0
 55 57  1  0  0  0
 57 54  1  0  0  0
 54 76  1  0  0  0
 76 77  1  0  0  0
 76 78  1  0  0  0
 54 50  1  0  0  0
 50 51  2  0  0  0
 50 52  1  0  0  0
 52 49  1  0  0  0
 49 79  1  0  0  0
 79 80  1  0  0  0
 80 81  1  0  0  0
 81 82  1  0  0  0
 82 84  1  0  0  0
 84 85  1  0  0  0
 84 86  2  0  0  0
 49  1  1  0  0  0
  1  2  2  0  0  0
  1  3  1  0  0  0
  3  5  1  0  0  0
  5 38  1  0  0  0
 38 39  1  0  0  0
 39 40  1  0  0  0
 40 41  1  0  0  0
 41 43  1  0  0  0
 43 44  1  0  0  0
 43 45  2  0  0  0
  5  6  1  0  0  0
  6  7  2  0  0  0
  6  8  1  0  0  0
  8 10  1  0  0  0
 10 27  1  0  0  0
 27 28  1  0  0  0
 28 29  1  0  0  0
 29 30  1  0  0  0
 30 32  1  0  0  0
 32 33  1  0  0  0
 32 34  2  0  0  0
 10 11  1  0  0  0
 11 12  2  0  0  0
 11 13  1  0  0  0
 13 15  1  0  0  0
 15 20  1  0  0  0
 20 21  1  0  0  0
 21 22  2  0  0  0
 22 23  1  0  0  0
 23 24  2  0  0  0
 24 25  1  0  0  0
 25 26  2  0  0  0
 15 16  1  0  0  0
 16 17  1  0  0  0
 16 18  2  0  0  0
 26 21  1  0  0  0
 63 64  1  0  0  0
 68 69  1  0  0  0
 71 73  1  0  0  0
 71 74  1  0  0  0
 72 75  1  0  0  0
 57 58  1  0  0  0
 52 53  1  0  0  0
 82 83  1  0  0  0
 85 87  1  0  0  0
 85 88  1  0  0  0
 86 89  1  0  0  0
  3  4  1  0  0  0
 41 42  1  0  0  0
 44 46  1  0  0  0
 44 47  1  0  0  0
 45 48  1  0  0  0
  8  9  1  0  0  0
 30 31  1  0  0  0
 33 35  1  0  0  0
 33 36  1  0  0  0
 34 37  1  0  0  0
 13 14  1  0  0  0
 17 19  1  0  0  0
M  END
> <minimizedAffinity>
-6.53981

> <CNNscore>
0.2254721522

> <CNNaffinity>
7.4402365685

> <CNN_VS>
1.6775661707

> <CNNaffinity_variance>
0.6976071596

$$$$
[H]N=C(N([H])[H])N([H])C([H])([H])C([H])([H])C([H])([H])[C@@]([H])(C(=O)N([H])[C@]([H])(C(=O)O[H])C([H])([H])c1c([H])c([H])c([H])c([H])c1[H])N([H])C(=O)[C@@]([H])(N([H])C(=O)[C@@]([H])(N([H])C(=O)[C@@]([H])(N([H])C(=O)[C@@]([H])(N([H])C(=O)C([H])([H])[H])C([H])([H])C([H])([H])C([H])([H])N([H])C(=N[H])N([H])[H])C([H])(C([H])([H])[H])C([H])([H])[H])C([H])([H])C([H])([H])C([H])([H])N([H])C(=N[H])N([H])[H])C([H])([H])C([H])([H])C([H])([H])N([H])C(=N[H])N([H])[H]


 89 89  0  0  0  0  0  0  0  0999 V2000
   55.9336   -5.2948   -5.3338 C   0  0  0  0  0  0  0  0  0  0  0  0
   56.0664   -4.2933   -4.5966 O   0  0  0  0  0  0  0  0  0  0  0  0
   56.3891   -6.5539   -4.8223 N   0  0  0  0  0  0  0  0  0  0  0  0
   56.3250   -7.3657   -5.4341 H   0  0  0  0  0  0  0  0  0  0  0  0
   56.9582   -6.6005   -3.5223 C   0  0  0  0  0  0  0  0  0  0  0  0
   57.8919   -7.7708   -3.3702 C   0  0  0  0  0  0  0  0  0  0  0  0
   57.4041   -8.8081   -2.8560 O   0  0  0  0  0  0  0  0  0  0  0  0
   59.2176   -7.7384   -3.7708 N   0  0  0  0  0  0  0  0  0  0  0  0
   59.6590   -6.9205   -4.1939 H   0  0  0  0  0  0  0  0  0  0  0  0
   60.0850   -8.9450   -3.5930 C   0  0  0  0  0  0  0  0  0  0  0  0
   60.7222   -8.8016   -2.2935 C   0  0  0  0  0  0  0  0  0  0  0  0
   60.6161   -9.8233   -1.5092 O   0  0  0  0  0  0  0  0  0  0  0  0
   61.4149   -7.7215   -1.7861 N   0  0  0  0  0  0  0  0  0  0  0  0
   61.5010   -6.8261   -2.3062 H   0  0  0  0  0  0  0  0  0  0  0  0
   62.0222   -7.7570   -0.4274 C   0  0  0  0  0  0  0  0  0  0  0  0
   61.2972   -6.8640    0.4859 C   0  0  0  0  0  0  0  0  0  0  0  0
   60.4916   -5.8341   -0.0065 O   0  0  0  0  0  0  0  0  0  0  0  0
   61.3816   -7.0019    1.7276 O   0  0  0  0  0  0  0  0  0  0  0  0
   59.8385   -6.1333   -0.7450 H   0  0  0  0  0  0  0  0  0  0  0  0
   63.4885   -7.4563   -0.5034 C   0  0  0  0  0  0  0  0  0  0  0  0
   64.1176   -8.0811   -1.6777 C   0  0  0  0  0  0  0  0  0  0  0  0
   64.2304   -9.4208   -1.9253 C   0  0  0  0  0  0  0  0  0  0  0  0
   64.8255   -9.9485   -3.0486 C   0  0  0  0  0  0  0  0  0  0  0  0
   65.3395   -9.0756   -3.9810 C   0  0  0  0  0  0  0  0  0  0  0  0
   65.2525   -7.7046   -3.7821 C   0  0  0  0  0  0  0  0  0  0  0  0
   64.6466   -7.2235   -2.6399 C   0  0  0  0  0  0  0  0  0  0  0  0
   60.9245   -9.1408   -4.8099 C   0  0  0  0  0  0  0  0  0  0  0  0
   61.7887   -7.9709   -5.1012 C   0  0  0  0  0  0  0  0  0  0  0  0
   62.4080   -8.0568   -6.5014 C   0  0  0  0  0  0  0  0  0  0  0  0
   61.2831   -8.3085   -7.4017 N   0  0  0  0  0  0  0  0  0  0  0  0
   60.3609   -7.8697   -7.1660 H   0  0  0  0  0  0  0  0  0  0  0  0
   61.4038   -9.1126   -8.5527 C   0  0  0  0  0  0  0  0  0  0  0  0
   60.6252   -8.8488   -9.7127 N   0  0  0  0  0  0  0  0  0  0  0  0
   62.2242  -10.1166   -8.5851 N   0  0  0  0  0  0  0  0  0  0  0  0
   60.9759   -8.2480  -10.4807 H   0  0  0  0  0  0  0  0  0  0  0  0
   59.6665   -9.3021   -9.7471 H   0  0  0  0  0  0  0  0  0  0  0  0
   62.7874  -10.3062   -7.7359 H   0  0  0  0  0  0  0  0  0  0  0  0
   56.1329   -6.3599   -2.3426 C   0  0  0  0  0  0  0  0  0  0  0  0
   55.7758   -7.2839   -1.2914 C   0  0  0  0  0  0  0  0  0  0  0  0
   54.4357   -7.6096   -0.8326 C   0  0  0  0  0  0  0  0  0  0  0  0
   53.8476   -6.7740    0.1639 N   0  0  0  0  0  0  0  0  0  0  0  0
   52.8575   -6.9421    0.5178 H   0  0  0  0  0  0  0  0  0  0  0  0
   54.5167   -5.6706    0.7484 C   0  0  0  0  0  0  0  0  0  0  0  0
   55.3990   -5.8650    1.8396 N   0  0  0  0  0  0  0  0  0  0  0  0
   54.3368   -4.4912    0.3036 N   0  0  0  0  0  0  0  0  0  0  0  0
   55.2780   -5.3325    2.7035 H   0  0  0  0  0  0  0  0  0  0  0  0
   56.1639   -6.5609    1.7332 H   0  0  0  0  0  0  0  0  0  0  0  0
   53.6898   -4.3438   -0.4982 H   0  0  0  0  0  0  0  0  0  0  0  0
   55.3205   -5.1158   -6.6778 C   0  0  0  0  0  0  0  0  0  0  0  0
   52.9118   -4.7977   -7.4122 C   0  0  0  0  0  0  0  0  0  0  0  0
   53.2491   -5.3805   -8.5093 O   0  0  0  0  0  0  0  0  0  0  0  0
   53.9605   -4.6644   -6.4769 N   0  0  0  0  0  0  0  0  0  0  0  0
   53.7313   -4.1925   -5.5595 H   0  0  0  0  0  0  0  0  0  0  0  0
   51.5318   -4.3537   -7.2427 C   0  0  0  0  0  0  0  0  0  0  0  0
   50.9347   -5.2448   -4.9448 C   0  0  0  0  0  0  0  0  0  0  0  0
   50.9160   -6.4654   -5.1926 O   0  0  0  0  0  0  0  0  0  0  0  0
   51.2142   -4.2037   -5.8569 N   0  0  0  0  0  0  0  0  0  0  0  0
   51.1791   -3.2092   -5.4606 H   0  0  0  0  0  0  0  0  0  0  0  0
   50.6178   -4.8700   -3.4837 C   0  0  0  0  0  0  0  0  0  0  0  0
   46.8023   -4.0695   -3.5663 C   0  0  0  0  0  0  0  0  0  0  0  0
   48.2576   -3.9644   -3.7199 C   0  0  0  0  0  0  0  0  0  0  0  0
   48.7393   -2.9127   -4.2354 O   0  0  0  0  0  0  0  0  0  0  0  0
   49.1934   -4.9607   -3.3344 N   0  0  0  0  0  0  0  0  0  0  0  0
   48.7835   -5.8233   -2.9121 H   0  0  0  0  0  0  0  0  0  0  0  0
   51.3588   -5.8885   -2.6955 C   0  0  0  0  0  0  0  0  0  0  0  0
   50.7235   -6.6543   -1.6186 C   0  0  0  0  0  0  0  0  0  0  0  0
   50.8679   -8.1394   -1.6312 C   0  0  0  0  0  0  0  0  0  0  0  0
   50.8500   -8.7631   -0.3749 N   0  0  0  0  0  0  0  0  0  0  0  0
   50.5179   -8.2360    0.4799 H   0  0  0  0  0  0  0  0  0  0  0  0
   51.2813  -10.1191   -0.2340 C   0  0  0  0  0  0  0  0  0  0  0  0
   52.1473  -10.6555   -1.2348 N   0  0  0  0  0  0  0  0  0  0  0  0
   50.9030  -10.8190    0.7514 N   0  0  0  0  0  0  0  0  0  0  0  0
   52.1842  -11.6770   -1.4163 H   0  0  0  0  0  0  0  0  0  0  0  0
   52.7416  -10.0016   -1.7814 H   0  0  0  0  0  0  0  0  0  0  0  0
   51.1994  -11.8058    0.8783 H   0  0  0  0  0  0  0  0  0  0  0  0
   51.2299   -3.1324   -8.0572 C   0  0  0  0  0  0  0  0  0  0  0  0
   50.3198   -2.1952   -7.2658 C   0  0  0  0  0  0  0  0  0  0  0  0
   52.4504   -2.3880   -8.5436 C   0  0  0  0  0  0  0  0  0  0  0  0
   56.1005   -4.1839   -7.5253 C   0  0  0  0  0  0  0  0  0  0  0  0
   57.1363   -4.9017   -8.3562 C   0  0  0  0  0  0  0  0  0  0  0  0
   56.7714   -4.7655   -9.8194 C   0  0  0  0  0  0  0  0  0  0  0  0
   57.9921   -4.8825  -10.6374 N   0  0  0  0  0  0  0  0  0  0  0  0
   58.7454   -5.5376  -10.3285 H   0  0  0  0  0  0  0  0  0  0  0  0
   58.0986   -4.1035  -11.8105 C   0  0  0  0  0  0  0  0  0  0  0  0
   57.1298   -3.0675  -12.0453 N   0  0  0  0  0  0  0  0  0  0  0  0
   59.0172   -4.2802  -12.6734 N   0  0  0  0  0  0  0  0  0  0  0  0
   57.2403   -2.1883  -11.5157 H   0  0  0  0  0  0  0  0  0  0  0  0
   56.3409   -3.1653  -12.7071 H   0  0  0  0  0  0  0  0  0  0  0  0
   59.7703   -4.9909  -12.6208 H   0  0  0  0  0  0  0  0  0  0  0  0
 60 61  1  0  0  0
 61 62  2  0  0  0
 61 63  1  0  0  0
 63 59  1  0  0  0
 59 65  1  0  0  0
 65 66  1  0  0  0
 66 67  1  0  0  0
 67 68  1  0  0  0
 68 70  1  0  0  0
 70 71  1  0  0  0
 70 72  2  0  0  0
 59 55  1  0  0  0
 55 56  2  0  0  0
 55 57  1  0  0  0
 57 54  1  0  0  0
 54 76  1  0  0  0
 76 77  1  0  0  0
 76 78  1  0  0  0
 54 50  1  0  0  0
 50 51  2  0  0  0
 50 52  1  0  0  0
 52 49  1  0  0  0
 49 79  1  0  0  0
 79 80  1  0  0  0
 80 81  1  0  0  0
 81 82  1  0  0  0
 82 84  1  0  0  0
 84 85  1  0  0  0
 84 86  2  0  0  0
 49  1  1  0  0  0
  1  2  2  0  0  0
  1  3  1  0  0  0
  3  5  1  0  0  0
  5 38  1  0  0  0
 38 39  1  0  0  0
 39 40  1  0  0  0
 40 41  1  0  0  0
 41 43  1  0  0  0
 43 44  1  0  0  0
 43 45  2  0  0  0
  5  6  1  0  0  0
  6  7  2  0  0  0
  6  8  1  0  0  0
  8 10  1  0  0  0
 10 27  1  0  0  0
 27 28  1  0  0  0
 28 29  1  0  0  0
 29 30  1  0  0  0
 30 32  1  0  0  0
 32 33  1  0  0  0
 32 34  2  0  0  0
 10 11  1  0  0  0
 11 12  2  0  0  0
 11 13  1  0  0  0
 13 15  1  0  0  0
 15 20  1  0  0  0
 20 21  1  0  0  0
 21 22  2  0  0  0
 22 23  1  0  0  0
 23 24  2  0  0  0
 24 25  1  0  0  0
 25 26  2  0  0  0
 15 16  1  0  0  0
 16 17  1  0  0  0
 16 18  2  0  0  0
 26 21  1  0  0  0
 63 64  1  0  0  0
 68 69  1  0  0  0
 71 73  1  0  0  0
 71 74  1  0  0  0
 72 75  1  0  0  0
 57 58  1  0  0  0
 52 53  1  0  0  0
 82 83  1  0  0  0
 85 87  1  0  0  0
 85 88  1  0  0  0
 86 89  1  0  0  0
  3  4  1  0  0  0
 41 42  1  0  0  0
 44 46  1  0  0  0
 44 47  1  0  0  0
 45 48  1  0  0  0
  8  9  1  0  0  0
 30 31  1  0  0  0
 33 35  1  0  0  0
 33 36  1  0  0  0
 34 37  1  0  0  0
 13 14  1  0  0  0
 17 19  1  0  0  0
M  END
> <minimizedAffinity>
-7.11930

> <CNNscore>
0.2193602175

> <CNNaffinity>
7.0069327354

> <CNN_VS>
1.5370422602

> <CNNaffinity_variance>
1.3800480366

$$$$
[H]N=C(N([H])[H])N([H])C([H])([H])C([H])([H])C([H])([H])[C@@]([H])(C(=O)N([H])[C@]([H])(C(=O)O[H])C([H])([H])c1c([H])c([H])c([H])c([H])c1[H])N([H])C(=O)[C@@]([H])(N([H])C(=O)[C@@]([H])(N([H])C(=O)[C@@]([H])(N([H])C(=O)[C@@]([H])(N([H])C(=O)C([H])([H])[H])C([H])([H])C([H])([H])C([H])([H])N([H])C(=N[H])N([H])[H])C([H])(C([H])([H])[H])C([H])([H])[H])C([H])([H])C([H])([H])C([H])([H])N([H])C(=N[H])N([H])[H])C([H])([H])C([H])([H])C([H])([H])N([H])C(=N[H])N([H])[H]


 89 89  0  0  0  0  0  0  0  0999 V2000
   56.7321   -4.9547   -6.5598 C   0  0  0  0  0  0  0  0  0  0  0  0
   56.2320   -3.8926   -6.1286 O   0  0  0  0  0  0  0  0  0  0  0  0
   56.6293   -6.1166   -5.7269 N   0  0  0  0  0  0  0  0  0  0  0  0
   57.0730   -6.9740   -6.0517 H   0  0  0  0  0  0  0  0  0  0  0  0
   55.9726   -6.0053   -4.4728 C   0  0  0  0  0  0  0  0  0  0  0  0
   54.5230   -6.3965   -4.5725 C   0  0  0  0  0  0  0  0  0  0  0  0
   54.1214   -6.7583   -5.7066 O   0  0  0  0  0  0  0  0  0  0  0  0
   53.6572   -6.3750   -3.4913 N   0  0  0  0  0  0  0  0  0  0  0  0
   53.9360   -6.0899   -2.5512 H   0  0  0  0  0  0  0  0  0  0  0  0
   52.2282   -6.7842   -3.6660 C   0  0  0  0  0  0  0  0  0  0  0  0
   51.4710   -5.5556   -3.8461 C   0  0  0  0  0  0  0  0  0  0  0  0
   51.5971   -4.6839   -2.9004 O   0  0  0  0  0  0  0  0  0  0  0  0
   50.6333   -5.2020   -4.8841 N   0  0  0  0  0  0  0  0  0  0  0  0
   50.4089   -5.8552   -5.6604 H   0  0  0  0  0  0  0  0  0  0  0  0
   49.9467   -3.8815   -4.9127 C   0  0  0  0  0  0  0  0  0  0  0  0
   48.7471   -3.9046   -4.0657 C   0  0  0  0  0  0  0  0  0  0  0  0
   48.5649   -4.9041   -3.1066 O   0  0  0  0  0  0  0  0  0  0  0  0
   47.8576   -3.0308   -4.1804 O   0  0  0  0  0  0  0  0  0  0  0  0
   49.3852   -5.0552   -2.5017 H   0  0  0  0  0  0  0  0  0  0  0  0
   49.6611   -3.4725   -6.3261 C   0  0  0  0  0  0  0  0  0  0  0  0
   50.8899   -3.3793   -7.1303 C   0  0  0  0  0  0  0  0  0  0  0  0
   51.8940   -4.3047   -7.1940 C   0  0  0  0  0  0  0  0  0  0  0  0
   53.0206   -4.1657   -7.9722 C   0  0  0  0  0  0  0  0  0  0  0  0
   53.1463   -3.0255   -8.7335 C   0  0  0  0  0  0  0  0  0  0  0  0
   52.1570   -2.0521   -8.7086 C   0  0  0  0  0  0  0  0  0  0  0  0
   51.0456   -2.2368   -7.9124 C   0  0  0  0  0  0  0  0  0  0  0  0
   51.8451   -7.7362   -2.5838 C   0  0  0  0  0  0  0  0  0  0  0  0
   53.0157   -8.2338   -1.8209 C   0  0  0  0  0  0  0  0  0  0  0  0
   52.6774   -8.4544   -0.3415 C   0  0  0  0  0  0  0  0  0  0  0  0
   52.2012   -9.8348   -0.2604 N   0  0  0  0  0  0  0  0  0  0  0  0
   52.8804  -10.6003   -0.4871 H   0  0  0  0  0  0  0  0  0  0  0  0
   50.8782  -10.1559    0.1039 C   0  0  0  0  0  0  0  0  0  0  0  0
   49.8054   -9.2690   -0.1856 N   0  0  0  0  0  0  0  0  0  0  0  0
   50.6029  -11.2656    0.7161 N   0  0  0  0  0  0  0  0  0  0  0  0
   49.2501   -9.3498   -1.0568 H   0  0  0  0  0  0  0  0  0  0  0  0
   49.6059   -8.5214    0.5403 H   0  0  0  0  0  0  0  0  0  0  0  0
   51.3890  -11.9074    0.9273 H   0  0  0  0  0  0  0  0  0  0  0  0
   56.2031   -4.8467   -3.6154 C   0  0  0  0  0  0  0  0  0  0  0  0
   57.1340   -4.7101   -2.5195 C   0  0  0  0  0  0  0  0  0  0  0  0
   56.8764   -4.9832   -1.1154 C   0  0  0  0  0  0  0  0  0  0  0  0
   55.6770   -5.6792   -0.7777 N   0  0  0  0  0  0  0  0  0  0  0  0
   55.5772   -6.7270   -0.9390 H   0  0  0  0  0  0  0  0  0  0  0  0
   54.5409   -5.0456   -0.2168 C   0  0  0  0  0  0  0  0  0  0  0  0
   54.3765   -4.9850    1.1890 N   0  0  0  0  0  0  0  0  0  0  0  0
   53.6532   -4.5218   -0.9644 N   0  0  0  0  0  0  0  0  0  0  0  0
   53.5140   -5.3195    1.6235 H   0  0  0  0  0  0  0  0  0  0  0  0
   55.1548   -4.5946    1.7569 H   0  0  0  0  0  0  0  0  0  0  0  0
   53.7701   -4.5637   -1.9977 H   0  0  0  0  0  0  0  0  0  0  0  0
   57.3943   -4.9425   -7.8923 C   0  0  0  0  0  0  0  0  0  0  0  0
   59.6153   -5.8091   -8.7635 C   0  0  0  0  0  0  0  0  0  0  0  0
   59.3932   -5.1000   -9.8146 O   0  0  0  0  0  0  0  0  0  0  0  0
   58.6038   -5.7292   -7.7823 N   0  0  0  0  0  0  0  0  0  0  0  0
   58.7422   -6.2941   -6.8999 H   0  0  0  0  0  0  0  0  0  0  0  0
   60.8447   -6.5918   -8.6854 C   0  0  0  0  0  0  0  0  0  0  0  0
   62.0533   -7.4982   -6.6487 C   0  0  0  0  0  0  0  0  0  0  0  0
   63.1988   -7.0642   -6.8753 O   0  0  0  0  0  0  0  0  0  0  0  0
   60.9079   -7.3148   -7.4537 N   0  0  0  0  0  0  0  0  0  0  0  0
   60.0052   -7.7686   -7.0977 H   0  0  0  0  0  0  0  0  0  0  0  0
   61.9088   -8.3120   -5.3476 C   0  0  0  0  0  0  0  0  0  0  0  0
   64.0483   -7.4264   -2.2101 C   0  0  0  0  0  0  0  0  0  0  0  0
   63.3236   -8.1738   -3.2439 C   0  0  0  0  0  0  0  0  0  0  0  0
   63.3149   -9.4389   -3.1848 O   0  0  0  0  0  0  0  0  0  0  0  0
   62.6172   -7.5906   -4.3292 N   0  0  0  0  0  0  0  0  0  0  0  0
   62.6333   -6.5472   -4.3674 H   0  0  0  0  0  0  0  0  0  0  0  0
   60.4402   -8.3545   -5.1260 C   0  0  0  0  0  0  0  0  0  0  0  0
   59.8202   -7.8248   -3.9075 C   0  0  0  0  0  0  0  0  0  0  0  0
   59.3881   -8.7945   -2.8589 C   0  0  0  0  0  0  0  0  0  0  0  0
   60.2193   -9.9105   -2.6826 N   0  0  0  0  0  0  0  0  0  0  0  0
   61.2323   -9.8768   -2.9852 H   0  0  0  0  0  0  0  0  0  0  0  0
   59.7075  -11.1081   -2.0924 C   0  0  0  0  0  0  0  0  0  0  0  0
   59.0739  -11.0099   -0.8164 N   0  0  0  0  0  0  0  0  0  0  0  0
   59.8160  -12.2204   -2.6883 N   0  0  0  0  0  0  0  0  0  0  0  0
   59.0347  -11.8261   -0.1762 H   0  0  0  0  0  0  0  0  0  0  0  0
   58.6518  -10.1020   -0.5387 H   0  0  0  0  0  0  0  0  0  0  0  0
   59.4548  -13.1053   -2.2831 H   0  0  0  0  0  0  0  0  0  0  0  0
   61.0379   -7.4576   -9.8934 C   0  0  0  0  0  0  0  0  0  0  0  0
   62.2921   -7.0204  -10.6475 C   0  0  0  0  0  0  0  0  0  0  0  0
   61.0946   -8.9376   -9.5990 C   0  0  0  0  0  0  0  0  0  0  0  0
   56.4988   -5.4392   -8.9631 C   0  0  0  0  0  0  0  0  0  0  0  0
   56.1137   -4.3493   -9.9339 C   0  0  0  0  0  0  0  0  0  0  0  0
   56.6021   -4.7290  -11.3160 C   0  0  0  0  0  0  0  0  0  0  0  0
   56.5907   -3.5349  -12.1802 N   0  0  0  0  0  0  0  0  0  0  0  0
   56.2295   -2.6345  -11.7918 H   0  0  0  0  0  0  0  0  0  0  0  0
   57.0695   -3.6520  -13.5037 C   0  0  0  0  0  0  0  0  0  0  0  0
   56.1304   -3.9156  -14.5599 N   0  0  0  0  0  0  0  0  0  0  0  0
   58.3009   -3.5358  -13.8033 N   0  0  0  0  0  0  0  0  0  0  0  0
   55.5595   -3.1226  -14.8935 H   0  0  0  0  0  0  0  0  0  0  0  0
   56.0032   -4.8481  -14.9890 H   0  0  0  0  0  0  0  0  0  0  0  0
   59.0723   -3.3478  -13.1366 H   0  0  0  0  0  0  0  0  0  0  0  0
 60 61  1  0  0  0
 61 62  2  0  0  0
 61 63  1  0  0  0
 63 59  1  0  0  0
 59 65  1  0  0  0
 65 66  1  0  0  0
 66 67  1  0  0  0
 67 68  1  0  0  0
 68 70  1  0  0  0
 70 71  1  0  0  0
 70 72  2  0  0  0
 59 55  1  0  0  0
 55 56  2  0  0  0
 55 57  1  0  0  0
 57 54  1  0  0  0
 54 76  1  0  0  0
 76 77  1  0  0  0
 76 78  1  0  0  0
 54 50  1  0  0  0
 50 51  2  0  0  0
 50 52  1  0  0  0
 52 49  1  0  0  0
 49 79  1  0  0  0
 79 80  1  0  0  0
 80 81  1  0  0  0
 81 82  1  0  0  0
 82 84  1  0  0  0
 84 85  1  0  0  0
 84 86  2  0  0  0
 49  1  1  0  0  0
  1  2  2  0  0  0
  1  3  1  0  0  0
  3  5  1  0  0  0
  5 38  1  0  0  0
 38 39  1  0  0  0
 39 40  1  0  0  0
 40 41  1  0  0  0
 41 43  1  0  0  0
 43 44  1  0  0  0
 43 45  2  0  0  0
  5  6  1  0  0  0
  6  7  2  0  0  0
  6  8  1  0  0  0
  8 10  1  0  0  0
 10 27  1  0  0  0
 27 28  1  0  0  0
 28 29  1  0  0  0
 29 30  1  0  0  0
 30 32  1  0  0  0
 32 33  1  0  0  0
 32 34  2  0  0  0
 10 11  1  0  0  0
 11 12  2  0  0  0
 11 13  1  0  0  0
 13 15  1  0  0  0
 15 20  1  0  0  0
 20 21  1  0  0  0
 21 22  2  0  0  0
 22 23  1  0  0  0
 23 24  2  0  0  0
 24 25  1  0  0  0
 25 26  2  0  0  0
 15 16  1  0  0  0
 16 17  1  0  0  0
 16 18  2  0  0  0
 26 21  1  0  0  0
 63 64  1  0  0  0
 68 69  1  0  0  0
 71 73  1  0  0  0
 71 74  1  0  0  0
 72 75  1  0  0  0
 57 58  1  0  0  0
 52 53  1  0  0  0
 82 83  1  0  0  0
 85 87  1  0  0  0
 85 88  1  0  0  0
 86 89  1  0  0  0
  3  4  1  0  0  0
 41 42  1  0  0  0
 44 46  1  0  0  0
 44 47  1  0  0  0
 45 48  1  0  0  0
  8  9  1  0  0  0
 30 31  1  0  0  0
 33 35  1  0  0  0
 33 36  1  0  0  0
 34 37  1  0  0  0
 13 14  1  0  0  0
 17 19  1  0  0  0
M  END
> <minimizedAffinity>
-7.50774

> <CNNscore>
0.1823738962

> <CNNaffinity>
7.5242218971

> <CNN_VS>
1.3722217083

> <CNNaffinity_variance>
0.6769661903

$$$$
[H]N=C(N([H])[H])N([H])C([H])([H])C([H])([H])C([H])([H])[C@@]([H])(C(=O)N([H])[C@]([H])(C(=O)O[H])C([H])([H])c1c([H])c([H])c([H])c([H])c1[H])N([H])C(=O)[C@@]([H])(N([H])C(=O)[C@@]([H])(N([H])C(=O)[C@@]([H])(N([H])C(=O)[C@@]([H])(N([H])C(=O)C([H])([H])[H])C([H])([H])C([H])([H])C([H])([H])N([H])C(=N[H])N([H])[H])C([H])(C([H])([H])[H])C([H])([H])[H])C([H])([H])C([H])([H])C([H])([H])N([H])C(=N[H])N([H])[H])C([H])([H])C([H])([H])C([H])([H])N([H])C(=N[H])N([H])[H]


 89 89  0  0  0  0  0  0  0  0999 V2000
   60.2429   -6.0245   -9.2922 C   0  0  0  0  0  0  0  0  0  0  0  0
   60.1788   -5.6027  -10.4678 O   0  0  0  0  0  0  0  0  0  0  0  0
   59.1594   -5.6940   -8.4140 N   0  0  0  0  0  0  0  0  0  0  0  0
   59.2260   -5.9963   -7.4437 H   0  0  0  0  0  0  0  0  0  0  0  0
   58.0822   -4.9171   -8.9164 C   0  0  0  0  0  0  0  0  0  0  0  0
   56.9773   -4.7854   -7.9033 C   0  0  0  0  0  0  0  0  0  0  0  0
   56.4467   -3.6510   -7.8035 O   0  0  0  0  0  0  0  0  0  0  0  0
   56.5437   -5.8388   -7.1151 N   0  0  0  0  0  0  0  0  0  0  0  0
   56.9422   -6.7780   -7.1600 H   0  0  0  0  0  0  0  0  0  0  0  0
   55.4338   -5.6335   -6.1322 C   0  0  0  0  0  0  0  0  0  0  0  0
   55.8848   -6.2185   -4.8794 C   0  0  0  0  0  0  0  0  0  0  0  0
   57.1111   -6.6265   -4.8687 O   0  0  0  0  0  0  0  0  0  0  0  0
   55.1781   -6.4023   -3.7086 N   0  0  0  0  0  0  0  0  0  0  0  0
   54.1678   -6.1722   -3.6307 H   0  0  0  0  0  0  0  0  0  0  0  0
   55.8120   -7.0084   -2.5057 C   0  0  0  0  0  0  0  0  0  0  0  0
   55.9706   -8.4581   -2.6805 C   0  0  0  0  0  0  0  0  0  0  0  0
   57.0161   -9.1457   -2.0591 O   0  0  0  0  0  0  0  0  0  0  0  0
   55.1746   -9.1148   -3.3897 O   0  0  0  0  0  0  0  0  0  0  0  0
   57.1163   -8.9327   -1.0560 H   0  0  0  0  0  0  0  0  0  0  0  0
   55.0427   -6.6454   -1.2717 C   0  0  0  0  0  0  0  0  0  0  0  0
   53.5931   -6.6012   -1.5209 C   0  0  0  0  0  0  0  0  0  0  0  0
   52.7231   -7.6538   -1.4573 C   0  0  0  0  0  0  0  0  0  0  0  0
   51.3714   -7.5505   -1.6947 C   0  0  0  0  0  0  0  0  0  0  0  0
   50.8621   -6.3126   -2.0164 C   0  0  0  0  0  0  0  0  0  0  0  0
   51.6990   -5.2079   -2.0946 C   0  0  0  0  0  0  0  0  0  0  0  0
   53.0476   -5.3616   -1.8479 C   0  0  0  0  0  0  0  0  0  0  0  0
   54.1444   -6.0797   -6.7340 C   0  0  0  0  0  0  0  0  0  0  0  0
   52.9879   -5.2787   -6.2639 C   0  0  0  0  0  0  0  0  0  0  0  0
   52.2482   -4.6108   -7.4294 C   0  0  0  0  0  0  0  0  0  0  0  0
   53.2994   -4.0502   -8.2778 N   0  0  0  0  0  0  0  0  0  0  0  0
   54.1433   -4.6426   -8.4662 H   0  0  0  0  0  0  0  0  0  0  0  0
   53.2104   -2.7586   -8.8345 C   0  0  0  0  0  0  0  0  0  0  0  0
   54.3565   -1.9222   -8.9255 N   0  0  0  0  0  0  0  0  0  0  0  0
   52.0819   -2.2956   -9.2750 N   0  0  0  0  0  0  0  0  0  0  0  0
   54.9527   -1.9032   -9.7729 H   0  0  0  0  0  0  0  0  0  0  0  0
   54.5657   -1.3193   -8.0779 H   0  0  0  0  0  0  0  0  0  0  0  0
   51.2489   -2.9083   -9.2037 H   0  0  0  0  0  0  0  0  0  0  0  0
   57.5988   -5.1137  -10.2796 C   0  0  0  0  0  0  0  0  0  0  0  0
   56.5395   -4.4132  -10.9678 C   0  0  0  0  0  0  0  0  0  0  0  0
   56.4390   -4.1680  -12.3968 C   0  0  0  0  0  0  0  0  0  0  0  0
   57.5813   -3.6360  -13.0669 N   0  0  0  0  0  0  0  0  0  0  0  0
   58.4411   -3.3114  -12.5291 H   0  0  0  0  0  0  0  0  0  0  0  0
   57.6619   -3.4932  -14.4739 C   0  0  0  0  0  0  0  0  0  0  0  0
   56.5027   -3.6371  -15.2754 N   0  0  0  0  0  0  0  0  0  0  0  0
   58.7733   -3.2336  -15.0385 N   0  0  0  0  0  0  0  0  0  0  0  0
   56.4952   -4.2908  -16.0611 H   0  0  0  0  0  0  0  0  0  0  0  0
   55.6691   -3.0630  -15.0387 H   0  0  0  0  0  0  0  0  0  0  0  0
   59.6274   -3.1265  -14.4535 H   0  0  0  0  0  0  0  0  0  0  0  0
   61.4260   -6.8307   -8.8865 C   0  0  0  0  0  0  0  0  0  0  0  0
   61.6906   -7.7991   -6.5553 C   0  0  0  0  0  0  0  0  0  0  0  0
   62.7433   -7.0654   -6.4524 O   0  0  0  0  0  0  0  0  0  0  0  0
   61.0159   -7.6802   -7.7892 N   0  0  0  0  0  0  0  0  0  0  0  0
   60.1443   -8.2633   -7.9204 H   0  0  0  0  0  0  0  0  0  0  0  0
   61.3058   -8.6453   -5.4301 C   0  0  0  0  0  0  0  0  0  0  0  0
   61.6287  -10.9413   -6.4570 C   0  0  0  0  0  0  0  0  0  0  0  0
   60.7664  -10.8917   -7.3547 O   0  0  0  0  0  0  0  0  0  0  0  0
   61.9319   -9.9271   -5.5225 N   0  0  0  0  0  0  0  0  0  0  0  0
   62.7063  -10.1532   -4.8178 H   0  0  0  0  0  0  0  0  0  0  0  0
   62.4276  -12.2578   -6.3908 C   0  0  0  0  0  0  0  0  0  0  0  0
   61.1417  -13.4228   -2.8987 C   0  0  0  0  0  0  0  0  0  0  0  0
   61.1863  -12.9611   -4.2906 C   0  0  0  0  0  0  0  0  0  0  0  0
   60.0939  -12.7701   -4.9022 O   0  0  0  0  0  0  0  0  0  0  0  0
   62.3725  -12.7056   -5.0286 N   0  0  0  0  0  0  0  0  0  0  0  0
   63.2663  -12.8683   -4.5135 H   0  0  0  0  0  0  0  0  0  0  0  0
   61.7050  -13.1501   -7.3339 C   0  0  0  0  0  0  0  0  0  0  0  0
   62.2294  -14.4636   -7.7209 C   0  0  0  0  0  0  0  0  0  0  0  0
   63.6956  -14.5915   -7.9670 C   0  0  0  0  0  0  0  0  0  0  0  0
   64.1835  -13.9200   -9.0977 N   0  0  0  0  0  0  0  0  0  0  0  0
   63.8831  -14.2164  -10.0676 H   0  0  0  0  0  0  0  0  0  0  0  0
   65.0937  -12.8268   -8.9534 C   0  0  0  0  0  0  0  0  0  0  0  0
   65.8075  -12.7056   -7.7225 N   0  0  0  0  0  0  0  0  0  0  0  0
   65.2578  -11.9934   -9.8929 N   0  0  0  0  0  0  0  0  0  0  0  0
   66.1612  -11.7846   -7.3995 H   0  0  0  0  0  0  0  0  0  0  0  0
   65.9662  -13.5600   -7.1528 H   0  0  0  0  0  0  0  0  0  0  0  0
   65.9108  -11.1901   -9.8152 H   0  0  0  0  0  0  0  0  0  0  0  0
   61.5320   -7.9669   -4.1129 C   0  0  0  0  0  0  0  0  0  0  0  0
   60.1917   -7.7088   -3.4274 C   0  0  0  0  0  0  0  0  0  0  0  0
   62.4618   -8.7062   -3.1806 C   0  0  0  0  0  0  0  0  0  0  0  0
   61.9842   -7.6076  -10.0179 C   0  0  0  0  0  0  0  0  0  0  0  0
   61.3203   -8.9552  -10.1653 C   0  0  0  0  0  0  0  0  0  0  0  0
   62.3583   -9.9681  -10.6005 C   0  0  0  0  0  0  0  0  0  0  0  0
   61.9247  -11.3154  -10.1887 N   0  0  0  0  0  0  0  0  0  0  0  0
   61.5931  -11.4611   -9.2085 H   0  0  0  0  0  0  0  0  0  0  0  0
   61.9734  -12.3617  -11.1361 C   0  0  0  0  0  0  0  0  0  0  0  0
   60.8767  -13.2890  -11.2020 N   0  0  0  0  0  0  0  0  0  0  0  0
   62.9503  -12.5214  -11.9360 N   0  0  0  0  0  0  0  0  0  0  0  0
   60.0169  -12.9711  -11.6769 H   0  0  0  0  0  0  0  0  0  0  0  0
   60.9112  -14.2410  -10.7991 H   0  0  0  0  0  0  0  0  0  0  0  0
   63.7965  -11.9246  -11.9868 H   0  0  0  0  0  0  0  0  0  0  0  0
 60 61  1  0  0  0
 61 62  2  0  0  0
 61 63  1  0  0  0
 63 59  1  0  0  0
 59 65  1  0  0  0
 65 66  1  0  0  0
 66 67  1  0  0  0
 67 68  1  0  0  0
 68 70  1  0  0  0
 70 71  1  0  0  0
 70 72  2  0  0  0
 59 55  1  0  0  0
 55 56  2  0  0  0
 55 57  1  0  0  0
 57 54  1  0  0  0
 54 76  1  0  0  0
 76 77  1  0  0  0
 76 78  1  0  0  0
 54 50  1  0  0  0
 50 51  2  0  0  0
 50 52  1  0  0  0
 52 49  1  0  0  0
 49 79  1  0  0  0
 79 80  1  0  0  0
 80 81  1  0  0  0
 81 82  1  0  0  0
 82 84  1  0  0  0
 84 85  1  0  0  0
 84 86  2  0  0  0
 49  1  1  0  0  0
  1  2  2  0  0  0
  1  3  1  0  0  0
  3  5  1  0  0  0
  5 38  1  0  0  0
 38 39  1  0  0  0
 39 40  1  0  0  0
 40 41  1  0  0  0
 41 43  1  0  0  0
 43 44  1  0  0  0
 43 45  2  0  0  0
  5  6  1  0  0  0
  6  7  2  0  0  0
  6  8  1  0  0  0
  8 10  1  0  0  0
 10 27  1  0  0  0
 27 28  1  0  0  0
 28 29  1  0  0  0
 29 30  1  0  0  0
 30 32  1  0  0  0
 32 33  1  0  0  0
 32 34  2  0  0  0
 10 11  1  0  0  0
 11 12  2  0  0  0
 11 13  1  0  0  0
 13 15  1  0  0  0
 15 20  1  0  0  0
 20 21  1  0  0  0
 21 22  2  0  0  0
 22 23  1  0  0  0
 23 24  2  0  0  0
 24 25  1  0  0  0
 25 26  2  0  0  0
 15 16  1  0  0  0
 16 17  1  0  0  0
 16 18  2  0  0  0
 26 21  1  0  0  0
 63 64  1  0  0  0
 68 69  1  0  0  0
 71 73  1  0  0  0
 71 74  1  0  0  0
 72 75  1  0  0  0
 57 58  1  0  0  0
 52 53  1  0  0  0
 82 83  1  0  0  0
 85 87  1  0  0  0
 85 88  1  0  0  0
 86 89  1  0  0  0
  3  4  1  0  0  0
 41 42  1  0  0  0
 44 46  1  0  0  0
 44 47  1  0  0  0
 45 48  1  0  0  0
  8  9  1  0  0  0
 30 31  1  0  0  0
 33 35  1  0  0  0
 33 36  1  0  0  0
 34 37  1  0  0  0
 13 14  1  0  0  0
 17 19  1  0  0  0
M  END
> <minimizedAffinity>
-6.75967

> <CNNscore>
0.1781252176

> <CNNaffinity>
6.9545927048

> <CNN_VS>
1.2387883663

> <CNNaffinity_variance>
0.6887434125

$$$$
[H]N=C(N([H])[H])N([H])C([H])([H])C([H])([H])C([H])([H])[C@@]([H])(C(=O)N([H])[C@]([H])(C(=O)O[H])C([H])([H])c1c([H])c([H])c([H])c([H])c1[H])N([H])C(=O)[C@@]([H])(N([H])C(=O)[C@@]([H])(N([H])C(=O)[C@@]([H])(N([H])C(=O)[C@@]([H])(N([H])C(=O)C([H])([H])[H])C([H])([H])C([H])([H])C([H])([H])N([H])C(=N[H])N([H])[H])C([H])(C([H])([H])[H])C([H])([H])[H])C([H])([H])C([H])([H])C([H])([H])N([H])C(=N[H])N([H])[H])C([H])([H])C([H])([H])C([H])([H])N([H])C(=N[H])N([H])[H]


 89 89  0  0  0  0  0  0  0  0999 V2000
   57.3700   -5.3466   -7.8064 C   0  0  0  0  0  0  0  0  0  0  0  0
   57.5489   -6.0191   -6.7673 O   0  0  0  0  0  0  0  0  0  0  0  0
   56.0942   -4.7140   -7.9699 N   0  0  0  0  0  0  0  0  0  0  0  0
   55.9259   -4.2017   -8.8339 H   0  0  0  0  0  0  0  0  0  0  0  0
   55.1125   -4.8788   -6.9573 C   0  0  0  0  0  0  0  0  0  0  0  0
   55.6513   -4.5110   -5.6013 C   0  0  0  0  0  0  0  0  0  0  0  0
   56.1389   -3.3584   -5.4906 O   0  0  0  0  0  0  0  0  0  0  0  0
   55.6198   -5.3709   -4.5157 N   0  0  0  0  0  0  0  0  0  0  0  0
   55.2337   -6.3155   -4.5555 H   0  0  0  0  0  0  0  0  0  0  0  0
   56.1700   -4.9323   -3.1947 C   0  0  0  0  0  0  0  0  0  0  0  0
   57.2272   -5.8734   -2.8602 C   0  0  0  0  0  0  0  0  0  0  0  0
   57.8540   -5.6323   -1.7560 O   0  0  0  0  0  0  0  0  0  0  0  0
   57.6534   -6.9798   -3.5661 N   0  0  0  0  0  0  0  0  0  0  0  0
   57.2640   -7.2249   -4.4977 H   0  0  0  0  0  0  0  0  0  0  0  0
   58.7500   -7.8496   -3.0591 C   0  0  0  0  0  0  0  0  0  0  0  0
   59.6486   -8.2387   -4.1537 C   0  0  0  0  0  0  0  0  0  0  0  0
   59.7686   -7.4479   -5.2992 O   0  0  0  0  0  0  0  0  0  0  0  0
   60.3297   -9.2875   -4.0894 O   0  0  0  0  0  0  0  0  0  0  0  0
   59.9219   -6.4485   -5.1010 H   0  0  0  0  0  0  0  0  0  0  0  0
   58.1847   -9.0225   -2.3169 C   0  0  0  0  0  0  0  0  0  0  0  0
   58.7599   -9.1489   -0.9684 C   0  0  0  0  0  0  0  0  0  0  0  0
   58.4782  -10.1218   -0.0504 C   0  0  0  0  0  0  0  0  0  0  0  0
   59.0546  -10.1929    1.1974 C   0  0  0  0  0  0  0  0  0  0  0  0
   59.9710   -9.2259    1.5444 C   0  0  0  0  0  0  0  0  0  0  0  0
   60.2962   -8.2141    0.6515 C   0  0  0  0  0  0  0  0  0  0  0  0
   59.6915   -8.1852   -0.5881 C   0  0  0  0  0  0  0  0  0  0  0  0
   55.0496   -4.7085   -2.2362 C   0  0  0  0  0  0  0  0  0  0  0  0
   54.3131   -5.9561   -1.9179 C   0  0  0  0  0  0  0  0  0  0  0  0
   53.3214   -5.7521   -0.7662 C   0  0  0  0  0  0  0  0  0  0  0  0
   52.2117   -4.9970   -1.3469 N   0  0  0  0  0  0  0  0  0  0  0  0
   52.1992   -3.9587   -1.2040 H   0  0  0  0  0  0  0  0  0  0  0  0
   51.1775   -5.6173   -2.0761 C   0  0  0  0  0  0  0  0  0  0  0  0
   50.7550   -5.0977   -3.3303 N   0  0  0  0  0  0  0  0  0  0  0  0
   50.5801   -6.6754   -1.6228 N   0  0  0  0  0  0  0  0  0  0  0  0
   51.1579   -5.4333   -4.2240 H   0  0  0  0  0  0  0  0  0  0  0  0
   50.0045   -4.3483   -3.2987 H   0  0  0  0  0  0  0  0  0  0  0  0
   50.8900   -7.0486   -0.7068 H   0  0  0  0  0  0  0  0  0  0  0  0
   54.2562   -6.0608   -6.9401 C   0  0  0  0  0  0  0  0  0  0  0  0
   52.8444   -6.1528   -7.2312 C   0  0  0  0  0  0  0  0  0  0  0  0
   51.7821   -5.3339   -6.6715 C   0  0  0  0  0  0  0  0  0  0  0  0
   51.6864   -3.9761   -7.1009 N   0  0  0  0  0  0  0  0  0  0  0  0
   52.4606   -3.5161   -7.6691 H   0  0  0  0  0  0  0  0  0  0  0  0
   50.5786   -3.1433   -6.8078 C   0  0  0  0  0  0  0  0  0  0  0  0
   50.3130   -2.0001   -7.6013 N   0  0  0  0  0  0  0  0  0  0  0  0
   49.8066   -3.4083   -5.8305 N   0  0  0  0  0  0  0  0  0  0  0  0
   50.2055   -1.0819   -7.1655 H   0  0  0  0  0  0  0  0  0  0  0  0
   50.2337   -2.1256   -8.6302 H   0  0  0  0  0  0  0  0  0  0  0  0
   49.9977   -4.2473   -5.2452 H   0  0  0  0  0  0  0  0  0  0  0  0
   58.4790   -5.2496   -8.7938 C   0  0  0  0  0  0  0  0  0  0  0  0
   60.6999   -6.4515   -9.0489 C   0  0  0  0  0  0  0  0  0  0  0  0
   60.7025   -6.0290  -10.2648 O   0  0  0  0  0  0  0  0  0  0  0  0
   59.5737   -6.0547   -8.2965 N   0  0  0  0  0  0  0  0  0  0  0  0
   59.5273   -6.3771   -7.2911 H   0  0  0  0  0  0  0  0  0  0  0  0
   61.8191   -7.2625   -8.5798 C   0  0  0  0  0  0  0  0  0  0  0  0
   61.8028   -9.6417   -7.7025 C   0  0  0  0  0  0  0  0  0  0  0  0
   62.3825   -9.4668   -6.6138 O   0  0  0  0  0  0  0  0  0  0  0  0
   61.5083   -8.6551   -8.6687 N   0  0  0  0  0  0  0  0  0  0  0  0
   61.0054   -8.9960   -9.5509 H   0  0  0  0  0  0  0  0  0  0  0  0
   61.3764  -11.0949   -7.9893 C   0  0  0  0  0  0  0  0  0  0  0  0
   63.9848  -12.3931  -10.5809 C   0  0  0  0  0  0  0  0  0  0  0  0
   62.8253  -11.7286   -9.9757 C   0  0  0  0  0  0  0  0  0  0  0  0
   62.0352  -11.0832  -10.7262 O   0  0  0  0  0  0  0  0  0  0  0  0
   62.5051  -11.7445   -8.5921 N   0  0  0  0  0  0  0  0  0  0  0  0
   63.1650  -12.2786   -7.9840 H   0  0  0  0  0  0  0  0  0  0  0  0
   61.0380  -11.6292   -6.6448 C   0  0  0  0  0  0  0  0  0  0  0  0
   61.8293  -12.6838   -6.0034 C   0  0  0  0  0  0  0  0  0  0  0  0
   61.1139  -13.8919   -5.4980 C   0  0  0  0  0  0  0  0  0  0  0  0
   60.0577  -13.6458   -4.6084 N   0  0  0  0  0  0  0  0  0  0  0  0
   59.0565  -13.8105   -4.9072 H   0  0  0  0  0  0  0  0  0  0  0  0
   60.3213  -13.1684   -3.2866 C   0  0  0  0  0  0  0  0  0  0  0  0
   61.0739  -14.0057   -2.4081 N   0  0  0  0  0  0  0  0  0  0  0  0
   59.8970  -12.0355   -2.9115 N   0  0  0  0  0  0  0  0  0  0  0  0
   60.9758  -13.9227   -1.3780 H   0  0  0  0  0  0  0  0  0  0  0  0
   61.7236  -14.7037   -2.8207 H   0  0  0  0  0  0  0  0  0  0  0  0
   60.0726  -11.6644   -1.9580 H   0  0  0  0  0  0  0  0  0  0  0  0
   63.1034   -6.8956   -9.2595 C   0  0  0  0  0  0  0  0  0  0  0  0
   64.1415   -6.4855   -8.2168 C   0  0  0  0  0  0  0  0  0  0  0  0
   63.6636   -7.9709  -10.1596 C   0  0  0  0  0  0  0  0  0  0  0  0
   58.0525   -5.6617  -10.1516 C   0  0  0  0  0  0  0  0  0  0  0  0
   57.9254   -4.4858  -11.0895 C   0  0  0  0  0  0  0  0  0  0  0  0
   56.4717   -4.3272  -11.4826 C   0  0  0  0  0  0  0  0  0  0  0  0
   56.3784   -3.4249  -12.6444 N   0  0  0  0  0  0  0  0  0  0  0  0
   56.0006   -2.4606  -12.5052 H   0  0  0  0  0  0  0  0  0  0  0  0
   56.8039   -3.8978  -13.9053 C   0  0  0  0  0  0  0  0  0  0  0  0
   56.0372   -4.9259  -14.5551 N   0  0  0  0  0  0  0  0  0  0  0  0
   57.8415   -3.4533  -14.4931 N   0  0  0  0  0  0  0  0  0  0  0  0
   55.1600   -4.6398  -15.0182 H   0  0  0  0  0  0  0  0  0  0  0  0
   56.3205   -5.9205  -14.5751 H   0  0  0  0  0  0  0  0  0  0  0  0
   58.4757   -2.7176  -14.1307 H   0  0  0  0  0  0  0  0  0  0  0  0
 60 61  1  0  0  0
 61 62  2  0  0  0
 61 63  1  0  0  0
 63 59  1  0  0  0
 59 65  1  0  0  0
 65 66  1  0  0  0
 66 67  1  0  0  0
 67 68  1  0  0  0
 68 70  1  0  0  0
 70 71  1  0  0  0
 70 72  2  0  0  0
 59 55  1  0  0  0
 55 56  2  0  0  0
 55 57  1  0  0  0
 57 54  1  0  0  0
 54 76  1  0  0  0
 76 77  1  0  0  0
 76 78  1  0  0  0
 54 50  1  0  0  0
 50 51  2  0  0  0
 50 52  1  0  0  0
 52 49  1  0  0  0
 49 79  1  0  0  0
 79 80  1  0  0  0
 80 81  1  0  0  0
 81 82  1  0  0  0
 82 84  1  0  0  0
 84 85  1  0  0  0
 84 86  2  0  0  0
 49  1  1  0  0  0
  1  2  2  0  0  0
  1  3  1  0  0  0
  3  5  1  0  0  0
  5 38  1  0  0  0
 38 39  1  0  0  0
 39 40  1  0  0  0
 40 41  1  0  0  0
 41 43  1  0  0  0
 43 44  1  0  0  0
 43 45  2  0  0  0
  5  6  1  0  0  0
  6  7  2  0  0  0
  6  8  1  0  0  0
  8 10  1  0  0  0
 10 27  1  0  0  0
 27 28  1  0  0  0
 28 29  1  0  0  0
 29 30  1  0  0  0
 30 32  1  0  0  0
 32 33  1  0  0  0
 32 34  2  0  0  0
 10 11  1  0  0  0
 11 12  2  0  0  0
 11 13  1  0  0  0
 13 15  1  0  0  0
 15 20  1  0  0  0
 20 21  1  0  0  0
 21 22  2  0  0  0
 22 23  1  0  0  0
 23 24  2  0  0  0
 24 25  1  0  0  0
 25 26  2  0  0  0
 15 16  1  0  0  0
 16 17  1  0  0  0
 16 18  2  0  0  0
 26 21  1  0  0  0
 63 64  1  0  0  0
 68 69  1  0  0  0
 71 73  1  0  0  0
 71 74  1  0  0  0
 72 75  1  0  0  0
 57 58  1  0  0  0
 52 53  1  0  0  0
 82 83  1  0  0  0
 85 87  1  0  0  0
 85 88  1  0  0  0
 86 89  1  0  0  0
  3  4  1  0  0  0
 41 42  1  0  0  0
 44 46  1  0  0  0
 44 47  1  0  0  0
 45 48  1  0  0  0
  8  9  1  0  0  0
 30 31  1  0  0  0
 33 35  1  0  0  0
 33 36  1  0  0  0
 34 37  1  0  0  0
 13 14  1  0  0  0
 17 19  1  0  0  0
M  END
> <minimizedAffinity>
-6.37025

> <CNNscore>
0.1534333080

> <CNNaffinity>
7.4374756813

> <CNN_VS>
1.1411565542

> <CNNaffinity_variance>
0.1719841808

$$$$
[H]N=C(N([H])[H])N([H])C([H])([H])C([H])([H])C([H])([H])[C@@]([H])(C(=O)N([H])[C@]([H])(C(=O)O[H])C([H])([H])c1c([H])c([H])c([H])c([H])c1[H])N([H])C(=O)[C@@]([H])(N([H])C(=O)[C@@]([H])(N([H])C(=O)[C@@]([H])(N([H])C(=O)[C@@]([H])(N([H])C(=O)C([H])([H])[H])C([H])([H])C([H])([H])C([H])([H])N([H])C(=N[H])N([H])[H])C([H])(C([H])([H])[H])C([H])([H])[H])C([H])([H])C([H])([H])C([H])([H])N([H])C(=N[H])N([H])[H])C([H])([H])C([H])([H])C([H])([H])N([H])C(=N[H])N([H])[H]


 89 89  0  0  0  0  0  0  0  0999 V2000
   60.0464   -6.1979   -9.4131 C   0  0  0  0  0  0  0  0  0  0  0  0
   59.9488   -5.6184  -10.5170 O   0  0  0  0  0  0  0  0  0  0  0  0
   59.0259   -5.9385   -8.4406 N   0  0  0  0  0  0  0  0  0  0  0  0
   59.1226   -6.3720   -7.5241 H   0  0  0  0  0  0  0  0  0  0  0  0
   57.9695   -5.0507   -8.7755 C   0  0  0  0  0  0  0  0  0  0  0  0
   56.9722   -4.9320   -7.6549 C   0  0  0  0  0  0  0  0  0  0  0  0
   56.5037   -3.7851   -7.4466 O   0  0  0  0  0  0  0  0  0  0  0  0
   56.5694   -6.0095   -6.8830 N   0  0  0  0  0  0  0  0  0  0  0  0
   56.9202   -6.9595   -7.0140 H   0  0  0  0  0  0  0  0  0  0  0  0
   55.5676   -5.8154   -5.7881 C   0  0  0  0  0  0  0  0  0  0  0  0
   56.3144   -5.8510   -4.5407 C   0  0  0  0  0  0  0  0  0  0  0  0
   56.2176   -4.7913   -3.8071 O   0  0  0  0  0  0  0  0  0  0  0  0
   57.1154   -6.8580   -4.0423 N   0  0  0  0  0  0  0  0  0  0  0  0
   57.3155   -7.7232   -4.5818 H   0  0  0  0  0  0  0  0  0  0  0  0
   57.7965   -6.7286   -2.7250 C   0  0  0  0  0  0  0  0  0  0  0  0
   59.2327   -7.0068   -2.8565 C   0  0  0  0  0  0  0  0  0  0  0  0
   59.7795   -7.3927   -4.0830 O   0  0  0  0  0  0  0  0  0  0  0  0
   60.0035   -6.9057   -1.8750 O   0  0  0  0  0  0  0  0  0  0  0  0
   59.4975   -6.7927   -4.8718 H   0  0  0  0  0  0  0  0  0  0  0  0
   57.1216   -7.5911   -1.7018 C   0  0  0  0  0  0  0  0  0  0  0  0
   55.8915   -6.9706   -1.1850 C   0  0  0  0  0  0  0  0  0  0  0  0
   54.6120   -7.4081   -1.3856 C   0  0  0  0  0  0  0  0  0  0  0  0
   53.4968   -6.7882   -0.8696 C   0  0  0  0  0  0  0  0  0  0  0  0
   53.6785   -5.6581   -0.1048 C   0  0  0  0  0  0  0  0  0  0  0  0
   54.9557   -5.1688    0.1326 C   0  0  0  0  0  0  0  0  0  0  0  0
   56.0429   -5.8252   -0.4064 C   0  0  0  0  0  0  0  0  0  0  0  0
   54.4206   -6.7471   -5.9893 C   0  0  0  0  0  0  0  0  0  0  0  0
   53.5563   -6.3506   -7.1277 C   0  0  0  0  0  0  0  0  0  0  0  0
   53.1621   -4.8705   -7.0531 C   0  0  0  0  0  0  0  0  0  0  0  0
   53.4857   -4.3223   -8.3698 N   0  0  0  0  0  0  0  0  0  0  0  0
   53.9069   -4.9694   -9.0786 H   0  0  0  0  0  0  0  0  0  0  0  0
   53.2539   -2.9725   -8.7023 C   0  0  0  0  0  0  0  0  0  0  0  0
   51.9325   -2.4513   -8.7604 N   0  0  0  0  0  0  0  0  0  0  0  0
   54.2375   -2.1701   -8.9683 N   0  0  0  0  0  0  0  0  0  0  0  0
   51.4881   -1.9975   -7.9416 H   0  0  0  0  0  0  0  0  0  0  0  0
   51.4285   -2.5528   -9.6885 H   0  0  0  0  0  0  0  0  0  0  0  0
   55.1987   -2.5558   -8.9273 H   0  0  0  0  0  0  0  0  0  0  0  0
   57.3531   -5.0971  -10.0979 C   0  0  0  0  0  0  0  0  0  0  0  0
   56.6399   -4.0521  -10.7947 C   0  0  0  0  0  0  0  0  0  0  0  0
   57.0205   -3.4199  -12.0469 C   0  0  0  0  0  0  0  0  0  0  0  0
   57.4873   -4.2568  -13.1046 N   0  0  0  0  0  0  0  0  0  0  0  0
   58.1259   -5.0878  -12.9165 H   0  0  0  0  0  0  0  0  0  0  0  0
   57.1512   -4.0518  -14.4654 C   0  0  0  0  0  0  0  0  0  0  0  0
   57.7676   -3.0134  -15.2062 N   0  0  0  0  0  0  0  0  0  0  0  0
   56.2933   -4.7951  -15.0423 N   0  0  0  0  0  0  0  0  0  0  0  0
   57.1988   -2.3267  -15.7057 H   0  0  0  0  0  0  0  0  0  0  0  0
   58.8062   -2.9735  -15.2229 H   0  0  0  0  0  0  0  0  0  0  0  0
   55.8383   -5.5594  -14.5020 H   0  0  0  0  0  0  0  0  0  0  0  0
   61.2023   -7.1065   -9.1835 C   0  0  0  0  0  0  0  0  0  0  0  0
   63.0012   -6.8334   -7.4140 C   0  0  0  0  0  0  0  0  0  0  0  0
   63.8541   -6.9667   -8.3689 O   0  0  0  0  0  0  0  0  0  0  0  0
   61.6523   -6.9001   -7.8239 N   0  0  0  0  0  0  0  0  0  0  0  0
   60.9148   -6.7950   -7.0743 H   0  0  0  0  0  0  0  0  0  0  0  0
   63.4892   -6.6278   -6.0538 C   0  0  0  0  0  0  0  0  0  0  0  0
   63.0760   -7.9231   -3.9132 C   0  0  0  0  0  0  0  0  0  0  0  0
   62.8536   -6.9757   -3.1355 O   0  0  0  0  0  0  0  0  0  0  0  0
   63.3801   -7.8307   -5.2890 N   0  0  0  0  0  0  0  0  0  0  0  0
   63.5458   -8.7588   -5.7974 H   0  0  0  0  0  0  0  0  0  0  0  0
   63.0010   -9.3238   -3.2744 C   0  0  0  0  0  0  0  0  0  0  0  0
   59.5621  -10.6566   -2.0083 C   0  0  0  0  0  0  0  0  0  0  0  0
   60.9874  -10.3185   -2.0902 C   0  0  0  0  0  0  0  0  0  0  0  0
   61.7408  -10.6246   -1.1193 O   0  0  0  0  0  0  0  0  0  0  0  0
   61.6094   -9.6627   -3.1856 N   0  0  0  0  0  0  0  0  0  0  0  0
   60.9772   -9.4144   -3.9789 H   0  0  0  0  0  0  0  0  0  0  0  0
   63.7563  -10.1800   -4.2253 C   0  0  0  0  0  0  0  0  0  0  0  0
   63.5250  -11.6243   -4.3265 C   0  0  0  0  0  0  0  0  0  0  0  0
   62.7203  -12.1293   -5.4772 C   0  0  0  0  0  0  0  0  0  0  0  0
   62.4570  -11.1967   -6.4913 N   0  0  0  0  0  0  0  0  0  0  0  0
   63.2315  -10.8714   -7.1340 H   0  0  0  0  0  0  0  0  0  0  0  0
   61.1381  -10.6735   -6.6685 C   0  0  0  0  0  0  0  0  0  0  0  0
   60.2237  -11.4172   -7.4747 N   0  0  0  0  0  0  0  0  0  0  0  0
   60.7967   -9.5820   -6.1243 N   0  0  0  0  0  0  0  0  0  0  0  0
   59.4314  -10.9477   -7.9539 H   0  0  0  0  0  0  0  0  0  0  0  0
   60.3671  -12.4414   -7.5744 H   0  0  0  0  0  0  0  0  0  0  0  0
   59.8470   -9.1784   -6.2367 H   0  0  0  0  0  0  0  0  0  0  0  0
   64.8648   -6.0332   -6.0336 C   0  0  0  0  0  0  0  0  0  0  0  0
   64.8602   -4.7476   -5.2089 C   0  0  0  0  0  0  0  0  0  0  0  0
   65.9424   -6.9679   -5.5382 C   0  0  0  0  0  0  0  0  0  0  0  0
   60.8582   -8.5227   -9.4506 C   0  0  0  0  0  0  0  0  0  0  0  0
   61.7184   -9.1223  -10.5364 C   0  0  0  0  0  0  0  0  0  0  0  0
   62.8473   -9.9004   -9.8938 C   0  0  0  0  0  0  0  0  0  0  0  0
   63.0361  -11.1701  -10.6184 N   0  0  0  0  0  0  0  0  0  0  0  0
   63.6961  -11.1955  -11.4282 H   0  0  0  0  0  0  0  0  0  0  0  0
   62.3165  -12.3076  -10.1907 C   0  0  0  0  0  0  0  0  0  0  0  0
   61.2727  -12.8249  -11.0332 N   0  0  0  0  0  0  0  0  0  0  0  0
   62.5513  -12.8960   -9.0870 N   0  0  0  0  0  0  0  0  0  0  0  0
   61.5601  -13.3815  -11.8539 H   0  0  0  0  0  0  0  0  0  0  0  0
   60.2664  -12.6637  -10.8568 H   0  0  0  0  0  0  0  0  0  0  0  0
   63.2726  -12.6215   -8.3946 H   0  0  0  0  0  0  0  0  0  0  0  0
 60 61  1  0  0  0
 61 62  2  0  0  0
 61 63  1  0  0  0
 63 59  1  0  0  0
 59 65  1  0  0  0
 65 66  1  0  0  0
 66 67  1  0  0  0
 67 68  1  0  0  0
 68 70  1  0  0  0
 70 71  1  0  0  0
 70 72  2  0  0  0
 59 55  1  0  0  0
 55 56  2  0  0  0
 55 57  1  0  0  0
 57 54  1  0  0  0
 54 76  1  0  0  0
 76 77  1  0  0  0
 76 78  1  0  0  0
 54 50  1  0  0  0
 50 51  2  0  0  0
 50 52  1  0  0  0
 52 49  1  0  0  0
 49 79  1  0  0  0
 79 80  1  0  0  0
 80 81  1  0  0  0
 81 82  1  0  0  0
 82 84  1  0  0  0
 84 85  1  0  0  0
 84 86  2  0  0  0
 49  1  1  0  0  0
  1  2  2  0  0  0
  1  3  1  0  0  0
  3  5  1  0  0  0
  5 38  1  0  0  0
 38 39  1  0  0  0
 39 40  1  0  0  0
 40 41  1  0  0  0
 41 43  1  0  0  0
 43 44  1  0  0  0
 43 45  2  0  0  0
  5  6  1  0  0  0
  6  7  2  0  0  0
  6  8  1  0  0  0
  8 10  1  0  0  0
 10 27  1  0  0  0
 27 28  1  0  0  0
 28 29  1  0  0  0
 29 30  1  0  0  0
 30 32  1  0  0  0
 32 33  1  0  0  0
 32 34  2  0  0  0
 10 11  1  0  0  0
 11 12  2  0  0  0
 11 13  1  0  0  0
 13 15  1  0  0  0
 15 20  1  0  0  0
 20 21  1  0  0  0
 21 22  2  0  0  0
 22 23  1  0  0  0
 23 24  2  0  0  0
 24 25  1  0  0  0
 25 26  2  0  0  0
 15 16  1  0  0  0
 16 17  1  0  0  0
 16 18  2  0  0  0
 26 21  1  0  0  0
 63 64  1  0  0  0
 68 69  1  0  0  0
 71 73  1  0  0  0
 71 74  1  0  0  0
 72 75  1  0  0  0
 57 58  1  0  0  0
 52 53  1  0  0  0
 82 83  1  0  0  0
 85 87  1  0  0  0
 85 88  1  0  0  0
 86 89  1  0  0  0
  3  4  1  0  0  0
 41 42  1  0  0  0
 44 46  1  0  0  0
 44 47  1  0  0  0
 45 48  1  0  0  0
  8  9  1  0  0  0
 30 31  1  0  0  0
 33 35  1  0  0  0
 33 36  1  0  0  0
 34 37  1  0  0  0
 13 14  1  0  0  0
 17 19  1  0  0  0
M  END
> <minimizedAffinity>
-6.56629

> <CNNscore>
0.1491223723

> <CNNaffinity>
6.4801282883

> <CNN_VS>
0.9663320780

> <CNNaffinity_variance>
1.9910093546

$$$$
[H]N=C(N([H])[H])N([H])C([H])([H])C([H])([H])C([H])([H])[C@@]([H])(C(=O)O[H])N([H])C(=O)[C@@]([H])(N([H])[H])C([H])([H])c1c([H])c([H])c(O[H])c([H])c1[H]


 33 33  0  0  0  0  0  0  0  0999 V2000
   52.6624   -4.3790   -8.0249 C   0  0  0  0  0  0  0  0  0  0  0  0
   52.6045   -5.6093   -7.8927 O   0  0  0  0  0  0  0  0  0  0  0  0
   51.7353   -3.5466   -7.3835 N   0  0  0  0  0  0  0  0  0  0  0  0
   51.7713   -2.4951   -7.4860 H   0  0  0  0  0  0  0  0  0  0  0  0
   53.3632   -2.4902   -9.3730 N   0  0  0  0  0  0  0  0  0  0  0  0
   53.7235   -3.8096   -8.8676 C   0  0  0  0  0  0  0  0  0  0  0  0
   54.0608   -2.2622  -10.1190 H   0  0  0  0  0  0  0  0  0  0  0  0
   52.4509   -2.5770   -9.8694 H   0  0  0  0  0  0  0  0  0  0  0  0
   54.9539   -3.6866   -7.9551 C   0  0  0  0  0  0  0  0  0  0  0  0
   56.1375   -4.2494   -8.6114 C   0  0  0  0  0  0  0  0  0  0  0  0
   57.1333   -4.8376   -7.8801 C   0  0  0  0  0  0  0  0  0  0  0  0
   58.2396   -5.3638   -8.5047 C   0  0  0  0  0  0  0  0  0  0  0  0
   58.3237   -5.2863   -9.8805 C   0  0  0  0  0  0  0  0  0  0  0  0
   59.4379   -5.8161  -10.5117 O   0  0  0  0  0  0  0  0  0  0  0  0
   57.3307   -4.6984  -10.6232 C   0  0  0  0  0  0  0  0  0  0  0  0
   56.2013   -4.1599  -10.0003 C   0  0  0  0  0  0  0  0  0  0  0  0
   60.1888   -6.2575   -9.9877 H   0  0  0  0  0  0  0  0  0  0  0  0
   50.6522   -4.0283   -6.5303 C   0  0  0  0  0  0  0  0  0  0  0  0
   49.6786   -2.9408   -6.4484 C   0  0  0  0  0  0  0  0  0  0  0  0
   49.4807   -2.0728   -7.5022 O   0  0  0  0  0  0  0  0  0  0  0  0
   48.9653   -2.7264   -5.4218 O   0  0  0  0  0  0  0  0  0  0  0  0
   48.6042   -1.9021   -7.9529 H   0  0  0  0  0  0  0  0  0  0  0  0
   51.2142   -4.5246   -5.2485 C   0  0  0  0  0  0  0  0  0  0  0  0
   50.5647   -5.7244   -4.6659 C   0  0  0  0  0  0  0  0  0  0  0  0
   51.6202   -6.4836   -3.8317 C   0  0  0  0  0  0  0  0  0  0  0  0
   52.4752   -5.5247   -3.1660 N   0  0  0  0  0  0  0  0  0  0  0  0
   53.1583   -4.9061   -3.6715 H   0  0  0  0  0  0  0  0  0  0  0  0
   52.3636   -5.4347   -1.7368 C   0  0  0  0  0  0  0  0  0  0  0  0
   51.7997   -6.5444   -1.0783 N   0  0  0  0  0  0  0  0  0  0  0  0
   52.7711   -4.3739   -1.1301 N   0  0  0  0  0  0  0  0  0  0  0  0
   52.3940   -7.1653   -0.5109 H   0  0  0  0  0  0  0  0  0  0  0  0
   50.7876   -6.7446   -1.1580 H   0  0  0  0  0  0  0  0  0  0  0  0
   53.1743   -3.5961   -1.6720 H   0  0  0  0  0  0  0  0  0  0  0  0
  5  6  1  0  0  0
  6  9  1  0  0  0
  9 10  1  0  0  0
 10 11  2  0  0  0
 11 12  1  0  0  0
 12 13  2  0  0  0
 13 14  1  0  0  0
 13 15  1  0  0  0
 15 16  2  0  0  0
  6  1  1  0  0  0
  1  2  2  0  0  0
  1  3  1  0  0  0
  3 18  1  0  0  0
 18 23  1  0  0  0
 23 24  1  0  0  0
 24 25  1  0  0  0
 25 26  1  0  0  0
 26 28  1  0  0  0
 28 29  1  0  0  0
 28 30  2  0  0  0
 18 19  1  0  0  0
 19 20  1  0  0  0
 19 21  2  0  0  0
 16 10  1  0  0  0
  5  7  1  0  0  0
  5  8  1  0  0  0
 14 17  1  0  0  0
  3  4  1  0  0  0
 26 27  1  0  0  0
 29 31  1  0  0  0
 29 32  1  0  0  0
 30 33  1  0  0  0
 20 22  1  0  0  0
M  END
> <minimizedAffinity>
-8.04730

> <CNNscore>
0.5443236828

> <CNNaffinity>
5.9032077789

> <CNN_VS>
3.2132558823

> <CNNaffinity_variance>
0.0376736186

$$$$
[H]N=C(N([H])[H])N([H])C([H])([H])C([H])([H])C([H])([H])[C@@]([H])(C(=O)O[H])N([H])C(=O)[C@@]([H])(N([H])[H])C([H])([H])c1c([H])c([H])c(O[H])c([H])c1[H]


 33 33  0  0  0  0  0  0  0  0999 V2000
   54.2401   -3.4492   -8.3589 C   0  0  0  0  0  0  0  0  0  0  0  0
   55.0730   -2.5460   -8.5163 O   0  0  0  0  0  0  0  0  0  0  0  0
   54.6509   -4.7753   -8.1683 N   0  0  0  0  0  0  0  0  0  0  0  0
   53.9528   -5.5574   -8.0324 H   0  0  0  0  0  0  0  0  0  0  0  0
   52.3447   -2.7995   -9.7233 N   0  0  0  0  0  0  0  0  0  0  0  0
   52.8119   -3.1021   -8.3756 C   0  0  0  0  0  0  0  0  0  0  0  0
   51.4004   -2.3620   -9.6141 H   0  0  0  0  0  0  0  0  0  0  0  0
   52.9520   -2.0457  -10.1097 H   0  0  0  0  0  0  0  0  0  0  0  0
   52.0786   -4.3461   -7.8500 C   0  0  0  0  0  0  0  0  0  0  0  0
   51.0592   -3.9641   -6.8685 C   0  0  0  0  0  0  0  0  0  0  0  0
   50.2739   -2.8608   -7.0644 C   0  0  0  0  0  0  0  0  0  0  0  0
   49.3194   -2.5107   -6.1386 C   0  0  0  0  0  0  0  0  0  0  0  0
   49.1709   -3.2935   -5.0111 C   0  0  0  0  0  0  0  0  0  0  0  0
   48.2094   -2.9422   -4.0769 O   0  0  0  0  0  0  0  0  0  0  0  0
   49.9534   -4.4019   -4.8050 C   0  0  0  0  0  0  0  0  0  0  0  0
   50.9270   -4.7682   -5.7385 C   0  0  0  0  0  0  0  0  0  0  0  0
   47.6155   -2.1270   -4.2029 H   0  0  0  0  0  0  0  0  0  0  0  0
   56.0461   -5.2063   -8.1380 C   0  0  0  0  0  0  0  0  0  0  0  0
   56.4151   -5.3064   -6.7270 C   0  0  0  0  0  0  0  0  0  0  0  0
   57.2754   -6.2865   -6.2772 O   0  0  0  0  0  0  0  0  0  0  0  0
   55.9760   -4.5143   -5.8390 O   0  0  0  0  0  0  0  0  0  0  0  0
   58.1266   -6.1228   -5.7780 H   0  0  0  0  0  0  0  0  0  0  0  0
   56.8634   -4.2993   -8.9833 C   0  0  0  0  0  0  0  0  0  0  0  0
   57.1788   -4.7805  -10.3507 C   0  0  0  0  0  0  0  0  0  0  0  0
   57.1997   -3.5589  -11.2960 C   0  0  0  0  0  0  0  0  0  0  0  0
   56.2762   -3.7890  -12.3858 N   0  0  0  0  0  0  0  0  0  0  0  0
   55.2310   -3.7694  -12.2757 H   0  0  0  0  0  0  0  0  0  0  0  0
   56.8460   -4.0567  -13.6770 C   0  0  0  0  0  0  0  0  0  0  0  0
   56.0819   -4.8562  -14.5487 N   0  0  0  0  0  0  0  0  0  0  0  0
   57.9999   -3.5700  -13.9790 N   0  0  0  0  0  0  0  0  0  0  0  0
   55.6264   -4.4348  -15.3706 H   0  0  0  0  0  0  0  0  0  0  0  0
   55.9723   -5.8699  -14.3721 H   0  0  0  0  0  0  0  0  0  0  0  0
   58.5080   -2.9921  -13.2941 H   0  0  0  0  0  0  0  0  0  0  0  0
  5  6  1  0  0  0
  6  9  1  0  0  0
  9 10  1  0  0  0
 10 11  2  0  0  0
 11 12  1  0  0  0
 12 13  2  0  0  0
 13 14  1  0  0  0
 13 15  1  0  0  0
 15 16  2  0  0  0
  6  1  1  0  0  0
  1  2  2  0  0  0
  1  3  1  0  0  0
  3 18  1  0  0  0
 18 23  1  0  0  0
 23 24  1  0  0  0
 24 25  1  0  0  0
 25 26  1  0  0  0
 26 28  1  0  0  0
 28 29  1  0  0  0
 28 30  2  0  0  0
 18 19  1  0  0  0
 19 20  1  0  0  0
 19 21  2  0  0  0
 16 10  1  0  0  0
  5  7  1  0  0  0
  5  8  1  0  0  0
 14 17  1  0  0  0
  3  4  1  0  0  0
 26 27  1  0  0  0
 29 31  1  0  0  0
 29 32  1  0  0  0
 30 33  1  0  0  0
 20 22  1  0  0  0
M  END
> <minimizedAffinity>
-8.30708

> <CNNscore>
0.4226019382

> <CNNaffinity>
5.8765263557

> <CNN_VS>
2.4834313393

> <CNNaffinity_variance>
0.0855453461

$$$$
[H]N=C(N([H])[H])N([H])C([H])([H])C([H])([H])C([H])([H])[C@@]([H])(C(=O)O[H])N([H])C(=O)[C@@]([H])(N([H])[H])C([H])([H])c1c([H])c([H])c(O[H])c([H])c1[H]


 33 33  0  0  0  0  0  0  0  0999 V2000
   50.6838   -4.6913   -6.6333 C   0  0  0  0  0  0  0  0  0  0  0  0
   50.0008   -5.6666   -6.9751 O   0  0  0  0  0  0  0  0  0  0  0  0
   50.4995   -4.0935   -5.3794 N   0  0  0  0  0  0  0  0  0  0  0  0
   51.0742   -3.2609   -5.0728 H   0  0  0  0  0  0  0  0  0  0  0  0
   51.5139   -2.7488   -7.8224 N   0  0  0  0  0  0  0  0  0  0  0  0
   51.6919   -4.1737   -7.5695 C   0  0  0  0  0  0  0  0  0  0  0  0
   52.1197   -2.5197   -8.6444 H   0  0  0  0  0  0  0  0  0  0  0  0
   50.5366   -2.6034   -8.1543 H   0  0  0  0  0  0  0  0  0  0  0  0
   53.0480   -4.4035   -6.8841 C   0  0  0  0  0  0  0  0  0  0  0  0
   54.1296   -4.4004   -7.8733 C   0  0  0  0  0  0  0  0  0  0  0  0
   53.8849   -4.0801   -9.1810 C   0  0  0  0  0  0  0  0  0  0  0  0
   54.9061   -4.0789  -10.1017 C   0  0  0  0  0  0  0  0  0  0  0  0
   56.1792   -4.4064   -9.6800 C   0  0  0  0  0  0  0  0  0  0  0  0
   57.2098   -4.4057  -10.6066 O   0  0  0  0  0  0  0  0  0  0  0  0
   56.4354   -4.7293   -8.3710 C   0  0  0  0  0  0  0  0  0  0  0  0
   55.4060   -4.7342   -7.4256 C   0  0  0  0  0  0  0  0  0  0  0  0
   57.0500   -4.1707  -11.5825 H   0  0  0  0  0  0  0  0  0  0  0  0
   49.5226   -4.5432   -4.3911 C   0  0  0  0  0  0  0  0  0  0  0  0
   48.5354   -3.4716   -4.2715 C   0  0  0  0  0  0  0  0  0  0  0  0
   47.3120   -3.6856   -3.6711 O   0  0  0  0  0  0  0  0  0  0  0  0
   48.7340   -2.2962   -4.7047 O   0  0  0  0  0  0  0  0  0  0  0  0
   46.9520   -3.1689   -2.8939 H   0  0  0  0  0  0  0  0  0  0  0  0
   50.2262   -4.9501   -3.1483 C   0  0  0  0  0  0  0  0  0  0  0  0
   51.2091   -6.0535   -3.2798 C   0  0  0  0  0  0  0  0  0  0  0  0
   51.4250   -6.6725   -1.8810 C   0  0  0  0  0  0  0  0  0  0  0  0
   51.3316   -8.1128   -1.9822 N   0  0  0  0  0  0  0  0  0  0  0  0
   50.4729   -8.6173   -2.3184 H   0  0  0  0  0  0  0  0  0  0  0  0
   52.4899   -8.8694   -1.5955 C   0  0  0  0  0  0  0  0  0  0  0  0
   52.2787   -9.9216   -0.6837 N   0  0  0  0  0  0  0  0  0  0  0  0
   53.6430   -8.5654   -2.0826 N   0  0  0  0  0  0  0  0  0  0  0  0
   52.3402  -10.8997   -1.0002 H   0  0  0  0  0  0  0  0  0  0  0  0
   52.0613   -9.7222    0.3081 H   0  0  0  0  0  0  0  0  0  0  0  0
   53.7291   -7.7821   -2.7461 H   0  0  0  0  0  0  0  0  0  0  0  0
  5  6  1  0  0  0
  6  9  1  0  0  0
  9 10  1  0  0  0
 10 11  2  0  0  0
 11 12  1  0  0  0
 12 13  2  0  0  0
 13 14  1  0  0  0
 13 15  1  0  0  0
 15 16  2  0  0  0
  6  1  1  0  0  0
  1  2  2  0  0  0
  1  3  1  0  0  0
  3 18  1  0  0  0
 18 23  1  0  0  0
 23 24  1  0  0  0
 24 25  1  0  0  0
 25 26  1  0  0  0
 26 28  1  0  0  0
 28 29  1  0  0  0
 28 30  2  0  0  0
 18 19  1  0  0  0
 19 20  1  0  0  0
 19 21  2  0  0  0
 16 10  1  0  0  0
  5  7  1  0  0  0
  5  8  1  0  0  0
 14 17  1  0  0  0
  3  4  1  0  0  0
 26 27  1  0  0  0
 29 31  1  0  0  0
 29 32  1  0  0  0
 30 33  1  0  0  0
 20 22  1  0  0  0
M  END
> <minimizedAffinity>
-7.13929

> <CNNscore>
0.4079828560

> <CNNaffinity>
5.9244008064

> <CNN_VS>
2.4170539379

> <CNNaffinity_variance>
0.0219305549

$$$$
[H]N=C(N([H])[H])N([H])C([H])([H])C([H])([H])C([H])([H])[C@@]([H])(C(=O)O[H])N([H])C(=O)[C@@]([H])(N([H])[H])C([H])([H])c1c([H])c([H])c(O[H])c([H])c1[H]


 33 33  0  0  0  0  0  0  0  0999 V2000
   54.2687   -3.9256   -8.4165 C   0  0  0  0  0  0  0  0  0  0  0  0
   54.6554   -4.1310   -9.5753 O   0  0  0  0  0  0  0  0  0  0  0  0
   54.9111   -4.5343   -7.3300 N   0  0  0  0  0  0  0  0  0  0  0  0
   54.5935   -4.3691   -6.3353 H   0  0  0  0  0  0  0  0  0  0  0  0
   53.0743   -1.9677   -9.2016 N   0  0  0  0  0  0  0  0  0  0  0  0
   53.1227   -3.0300   -8.2039 C   0  0  0  0  0  0  0  0  0  0  0  0
   52.3757   -1.2708   -8.8530 H   0  0  0  0  0  0  0  0  0  0  0  0
   53.9898   -1.4699   -9.1821 H   0  0  0  0  0  0  0  0  0  0  0  0
   51.8750   -3.9163   -8.3431 C   0  0  0  0  0  0  0  0  0  0  0  0
   51.0142   -3.7786   -7.1648 C   0  0  0  0  0  0  0  0  0  0  0  0
   50.1028   -2.7619   -7.0754 C   0  0  0  0  0  0  0  0  0  0  0  0
   49.2988   -2.6413   -5.9664 C   0  0  0  0  0  0  0  0  0  0  0  0
   49.4302   -3.5649   -4.9488 C   0  0  0  0  0  0  0  0  0  0  0  0
   48.6207   -3.4450   -3.8304 O   0  0  0  0  0  0  0  0  0  0  0  0
   50.3412   -4.5883   -5.0284 C   0  0  0  0  0  0  0  0  0  0  0  0
   51.1641   -4.7216   -6.1502 C   0  0  0  0  0  0  0  0  0  0  0  0
   47.9372   -2.6976   -3.7438 H   0  0  0  0  0  0  0  0  0  0  0  0
   56.0540   -5.4354   -7.4517 C   0  0  0  0  0  0  0  0  0  0  0  0
   56.0172   -6.3071   -6.2787 C   0  0  0  0  0  0  0  0  0  0  0  0
   57.1491   -6.5501   -5.5285 O   0  0  0  0  0  0  0  0  0  0  0  0
   54.9622   -6.8879   -5.8809 O   0  0  0  0  0  0  0  0  0  0  0  0
   57.2380   -6.3819   -4.5464 H   0  0  0  0  0  0  0  0  0  0  0  0
   57.2914   -4.6412   -7.6598 C   0  0  0  0  0  0  0  0  0  0  0  0
   58.3533   -5.2792   -8.4759 C   0  0  0  0  0  0  0  0  0  0  0  0
   57.8272   -5.4209   -9.9214 C   0  0  0  0  0  0  0  0  0  0  0  0
   57.5365   -4.1055  -10.4493 N   0  0  0  0  0  0  0  0  0  0  0  0
   57.4542   -3.2446   -9.8517 H   0  0  0  0  0  0  0  0  0  0  0  0
   57.3550   -3.9994  -11.8703 C   0  0  0  0  0  0  0  0  0  0  0  0
   56.1548   -3.4078  -12.3092 N   0  0  0  0  0  0  0  0  0  0  0  0
   58.2695   -4.4368  -12.6652 N   0  0  0  0  0  0  0  0  0  0  0  0
   56.1650   -2.4656  -12.7249 H   0  0  0  0  0  0  0  0  0  0  0  0
   55.2560   -3.9125  -12.2185 H   0  0  0  0  0  0  0  0  0  0  0  0
   59.1254   -4.8602  -12.2787 H   0  0  0  0  0  0  0  0  0  0  0  0
  5  6  1  0  0  0
  6  9  1  0  0  0
  9 10  1  0  0  0
 10 11  2  0  0  0
 11 12  1  0  0  0
 12 13  2  0  0  0
 13 14  1  0  0  0
 13 15  1  0  0  0
 15 16  2  0  0  0
  6  1  1  0  0  0
  1  2  2  0  0  0
  1  3  1  0  0  0
  3 18  1  0  0  0
 18 23  1  0  0  0
 23 24  1  0  0  0
 24 25  1  0  0  0
 25 26  1  0  0  0
 26 28  1  0  0  0
 28 29  1  0  0  0
 28 30  2  0  0  0
 18 19  1  0  0  0
 19 20  1  0  0  0
 19 21  2  0  0  0
 16 10  1  0  0  0
  5  7  1  0  0  0
  5  8  1  0  0  0
 14 17  1  0  0  0
  3  4  1  0  0  0
 26 27  1  0  0  0
 29 31  1  0  0  0
 29 32  1  0  0  0
 30 33  1  0  0  0
 20 22  1  0  0  0
M  END
> <minimizedAffinity>
-7.78226

> <CNNscore>
0.4035651684

> <CNNaffinity>
5.8981614113

> <CNN_VS>
2.3802924156

> <CNNaffinity_variance>
0.0819771886

$$$$
[H]N=C(N([H])[H])N([H])C([H])([H])C([H])([H])C([H])([H])[C@@]([H])(C(=O)O[H])N([H])C(=O)[C@@]([H])(N([H])[H])C([H])([H])c1c([H])c([H])c(O[H])c([H])c1[H]


 33 33  0  0  0  0  0  0  0  0999 V2000
   52.9049   -4.3783   -7.7356 C   0  0  0  0  0  0  0  0  0  0  0  0
   52.5761   -5.3818   -8.3831 O   0  0  0  0  0  0  0  0  0  0  0  0
   54.2448   -4.1584   -7.3892 N   0  0  0  0  0  0  0  0  0  0  0  0
   54.5417   -3.3071   -6.8372 H   0  0  0  0  0  0  0  0  0  0  0  0
   51.5988   -2.4422   -8.3851 N   0  0  0  0  0  0  0  0  0  0  0  0
   51.8614   -3.4224   -7.3381 C   0  0  0  0  0  0  0  0  0  0  0  0
   51.0180   -1.6918   -7.9441 H   0  0  0  0  0  0  0  0  0  0  0  0
   52.5027   -1.9824   -8.6255 H   0  0  0  0  0  0  0  0  0  0  0  0
   50.5984   -4.2652   -7.1014 C   0  0  0  0  0  0  0  0  0  0  0  0
   50.5434   -4.7277   -5.7116 C   0  0  0  0  0  0  0  0  0  0  0  0
   51.3081   -5.7817   -5.2911 C   0  0  0  0  0  0  0  0  0  0  0  0
   51.2505   -6.2079   -3.9851 C   0  0  0  0  0  0  0  0  0  0  0  0
   50.4079   -5.5519   -3.1101 C   0  0  0  0  0  0  0  0  0  0  0  0
   50.3487   -5.9800   -1.7934 O   0  0  0  0  0  0  0  0  0  0  0  0
   49.6368   -4.4939   -3.5217 C   0  0  0  0  0  0  0  0  0  0  0  0
   49.6862   -4.0512   -4.8464 C   0  0  0  0  0  0  0  0  0  0  0  0
   50.9082   -6.7605   -1.4602 H   0  0  0  0  0  0  0  0  0  0  0  0
   55.3421   -5.0550   -7.7430 C   0  0  0  0  0  0  0  0  0  0  0  0
   55.9356   -5.4962   -6.4820 C   0  0  0  0  0  0  0  0  0  0  0  0
   57.2193   -5.9987   -6.4291 O   0  0  0  0  0  0  0  0  0  0  0  0
   55.3209   -5.4483   -5.3736 O   0  0  0  0  0  0  0  0  0  0  0  0
   57.9566   -5.6401   -5.8561 H   0  0  0  0  0  0  0  0  0  0  0  0
   56.2438   -4.3777   -8.7092 C   0  0  0  0  0  0  0  0  0  0  0  0
   55.6744   -4.0860  -10.0476 C   0  0  0  0  0  0  0  0  0  0  0  0
   56.8430   -3.7721  -11.0078 C   0  0  0  0  0  0  0  0  0  0  0  0
   56.3093   -3.4681  -12.3179 N   0  0  0  0  0  0  0  0  0  0  0  0
   55.4348   -2.9060  -12.4730 H   0  0  0  0  0  0  0  0  0  0  0  0
   57.0340   -3.9748  -13.4500 C   0  0  0  0  0  0  0  0  0  0  0  0
   58.2735   -3.3668  -13.7274 N   0  0  0  0  0  0  0  0  0  0  0  0
   56.5370   -4.9369  -14.1477 N   0  0  0  0  0  0  0  0  0  0  0  0
   59.1505   -3.8757  -13.5468 H   0  0  0  0  0  0  0  0  0  0  0  0
   58.3139   -2.4077  -14.1138 H   0  0  0  0  0  0  0  0  0  0  0  0
   55.6234   -5.3378  -13.8910 H   0  0  0  0  0  0  0  0  0  0  0  0
  5  6  1  0  0  0
  6  9  1  0  0  0
  9 10  1  0  0  0
 10 11  2  0  0  0
 11 12  1  0  0  0
 12 13  2  0  0  0
 13 14  1  0  0  0
 13 15  1  0  0  0
 15 16  2  0  0  0
  6  1  1  0  0  0
  1  2  2  0  0  0
  1  3  1  0  0  0
  3 18  1  0  0  0
 18 23  1  0  0  0
 23 24  1  0  0  0
 24 25  1  0  0  0
 25 26  1  0  0  0
 26 28  1  0  0  0
 28 29  1  0  0  0
 28 30  2  0  0  0
 18 19  1  0  0  0
 19 20  1  0  0  0
 19 21  2  0  0  0
 16 10  1  0  0  0
  5  7  1  0  0  0
  5  8  1  0  0  0
 14 17  1  0  0  0
  3  4  1  0  0  0
 26 27  1  0  0  0
 29 31  1  0  0  0
 29 32  1  0  0  0
 30 33  1  0  0  0
 20 22  1  0  0  0
M  END
> <minimizedAffinity>
-7.59064

> <CNNscore>
0.3460490108

> <CNNaffinity>
5.6852340698

> <CNN_VS>
1.9673696756

> <CNNaffinity_variance>
0.0460112207

$$$$
[H]N=C(N([H])[H])N([H])C([H])([H])C([H])([H])C([H])([H])[C@@]([H])(C(=O)O[H])N([H])C(=O)[C@@]([H])(N([H])[H])C([H])([H])c1c([H])c([H])c(O[H])c([H])c1[H]


 33 33  0  0  0  0  0  0  0  0999 V2000
   52.1945   -5.3002   -7.1663 C   0  0  0  0  0  0  0  0  0  0  0  0
   51.9533   -6.4703   -7.4935 O   0  0  0  0  0  0  0  0  0  0  0  0
   51.6893   -4.7736   -5.9700 N   0  0  0  0  0  0  0  0  0  0  0  0
   51.8861   -3.7773   -5.6765 H   0  0  0  0  0  0  0  0  0  0  0  0
   52.4484   -3.1487   -8.2541 N   0  0  0  0  0  0  0  0  0  0  0  0
   53.0217   -4.4750   -8.0581 C   0  0  0  0  0  0  0  0  0  0  0  0
   52.9709   -2.7193   -9.0525 H   0  0  0  0  0  0  0  0  0  0  0  0
   51.4729   -3.2710   -8.6002 H   0  0  0  0  0  0  0  0  0  0  0  0
   54.3815   -4.3427   -7.3543 C   0  0  0  0  0  0  0  0  0  0  0  0
   55.4750   -4.5235   -8.3135 C   0  0  0  0  0  0  0  0  0  0  0  0
   56.6905   -5.0059   -7.9105 C   0  0  0  0  0  0  0  0  0  0  0  0
   57.7102   -5.1731   -8.8177 C   0  0  0  0  0  0  0  0  0  0  0  0
   57.4822   -4.8450  -10.1392 C   0  0  0  0  0  0  0  0  0  0  0  0
   58.5088   -5.0128  -11.0549 O   0  0  0  0  0  0  0  0  0  0  0  0
   56.2671   -4.3602  -10.5537 C   0  0  0  0  0  0  0  0  0  0  0  0
   55.2227   -4.1858   -9.6414 C   0  0  0  0  0  0  0  0  0  0  0  0
   59.4190   -5.3698  -10.7770 H   0  0  0  0  0  0  0  0  0  0  0  0
   50.8611   -5.5226   -5.0285 C   0  0  0  0  0  0  0  0  0  0  0  0
   49.8010   -4.6122   -4.5988 C   0  0  0  0  0  0  0  0  0  0  0  0
   48.9035   -4.9686   -3.6137 O   0  0  0  0  0  0  0  0  0  0  0  0
   49.6382   -3.4563   -5.0949 O   0  0  0  0  0  0  0  0  0  0  0  0
   48.7393   -4.4573   -2.7698 H   0  0  0  0  0  0  0  0  0  0  0  0
   51.7203   -6.1024   -3.9651 C   0  0  0  0  0  0  0  0  0  0  0  0
   51.7673   -5.3621   -2.6804 C   0  0  0  0  0  0  0  0  0  0  0  0
   52.2583   -6.3340   -1.5846 C   0  0  0  0  0  0  0  0  0  0  0  0
   53.7013   -6.4220   -1.6433 N   0  0  0  0  0  0  0  0  0  0  0  0
   54.2200   -7.2997   -1.8991 H   0  0  0  0  0  0  0  0  0  0  0  0
   54.4398   -5.2305   -1.3298 C   0  0  0  0  0  0  0  0  0  0  0  0
   55.3256   -4.7605   -2.3186 N   0  0  0  0  0  0  0  0  0  0  0  0
   54.2690   -4.6546   -0.1902 N   0  0  0  0  0  0  0  0  0  0  0  0
   55.1029   -3.9054   -2.8474 H   0  0  0  0  0  0  0  0  0  0  0  0
   56.2044   -5.2680   -2.5212 H   0  0  0  0  0  0  0  0  0  0  0  0
   53.6047   -5.0509    0.4902 H   0  0  0  0  0  0  0  0  0  0  0  0
  5  6  1  0  0  0
  6  9  1  0  0  0
  9 10  1  0  0  0
 10 11  2  0  0  0
 11 12  1  0  0  0
 12 13  2  0  0  0
 13 14  1  0  0  0
 13 15  1  0  0  0
 15 16  2  0  0  0
  6  1  1  0  0  0
  1  2  2  0  0  0
  1  3  1  0  0  0
  3 18  1  0  0  0
 18 23  1  0  0  0
 23 24  1  0  0  0
 24 25  1  0  0  0
 25 26  1  0  0  0
 26 28  1  0  0  0
 28 29  1  0  0  0
 28 30  2  0  0  0
 18 19  1  0  0  0
 19 20  1  0  0  0
 19 21  2  0  0  0
 16 10  1  0  0  0
  5  7  1  0  0  0
  5  8  1  0  0  0
 14 17  1  0  0  0
  3  4  1  0  0  0
 26 27  1  0  0  0
 29 31  1  0  0  0
 29 32  1  0  0  0
 30 33  1  0  0  0
 20 22  1  0  0  0
M  END
> <minimizedAffinity>
-7.49413

> <CNNscore>
0.3152666986

> <CNNaffinity>
5.6101193428

> <CNN_VS>
1.7686837912

> <CNNaffinity_variance>
0.0565519035

$$$$
[H]N=C(N([H])[H])N([H])C([H])([H])C([H])([H])C([H])([H])[C@@]([H])(C(=O)O[H])N([H])C(=O)[C@@]([H])(N([H])[H])C([H])([H])c1c([H])c([H])c(O[H])c([H])c1[H]


 33 33  0  0  0  0  0  0  0  0999 V2000
   53.9522   -2.7003   -8.7187 C   0  0  0  0  0  0  0  0  0  0  0  0
   54.4700   -1.5761   -8.7686 O   0  0  0  0  0  0  0  0  0  0  0  0
   54.7451   -3.8551   -8.7587 N   0  0  0  0  0  0  0  0  0  0  0  0
   54.3187   -4.8215   -8.7169 H   0  0  0  0  0  0  0  0  0  0  0  0
   51.8655   -2.9650   -9.9236 N   0  0  0  0  0  0  0  0  0  0  0  0
   52.4892   -2.7988   -8.6162 C   0  0  0  0  0  0  0  0  0  0  0  0
   50.8406   -2.8094   -9.7807 H   0  0  0  0  0  0  0  0  0  0  0  0
   52.1796   -2.1770  -10.5293 H   0  0  0  0  0  0  0  0  0  0  0  0
   52.2186   -4.0466   -7.7609 C   0  0  0  0  0  0  0  0  0  0  0  0
   51.1431   -3.7860   -6.7997 C   0  0  0  0  0  0  0  0  0  0  0  0
   50.3054   -2.7154   -6.9558 C   0  0  0  0  0  0  0  0  0  0  0  0
   49.2986   -2.4794   -6.0495 C   0  0  0  0  0  0  0  0  0  0  0  0
   49.1515   -3.3429   -4.9824 C   0  0  0  0  0  0  0  0  0  0  0  0
   48.1374   -3.1067   -4.0679 O   0  0  0  0  0  0  0  0  0  0  0  0
   49.9863   -4.4195   -4.8165 C   0  0  0  0  0  0  0  0  0  0  0  0
   51.0134   -4.6701   -5.7307 C   0  0  0  0  0  0  0  0  0  0  0  0
   47.5040   -2.3177   -4.1652 H   0  0  0  0  0  0  0  0  0  0  0  0
   56.2021   -3.8474   -8.8596 C   0  0  0  0  0  0  0  0  0  0  0  0
   56.5246   -4.3496  -10.1942 C   0  0  0  0  0  0  0  0  0  0  0  0
   57.7372   -4.9502  -10.4621 O   0  0  0  0  0  0  0  0  0  0  0  0
   55.7263   -4.2668  -11.1763 O   0  0  0  0  0  0  0  0  0  0  0  0
   57.8556   -5.8694  -10.8385 H   0  0  0  0  0  0  0  0  0  0  0  0
   56.7826   -4.5823   -7.7071 C   0  0  0  0  0  0  0  0  0  0  0  0
   56.2996   -4.1842   -6.3621 C   0  0  0  0  0  0  0  0  0  0  0  0
   56.5666   -5.3554   -5.3907 C   0  0  0  0  0  0  0  0  0  0  0  0
   56.1900   -6.5964   -6.0322 N   0  0  0  0  0  0  0  0  0  0  0  0
   56.8022   -7.1046   -6.7191 H   0  0  0  0  0  0  0  0  0  0  0  0
   54.9044   -7.1406   -5.6938 C   0  0  0  0  0  0  0  0  0  0  0  0
   53.8686   -6.9344   -6.6254 N   0  0  0  0  0  0  0  0  0  0  0  0
   54.7524   -7.7771   -4.5842 N   0  0  0  0  0  0  0  0  0  0  0  0
   53.5172   -7.7209   -7.1898 H   0  0  0  0  0  0  0  0  0  0  0  0
   53.4530   -5.9950   -6.7501 H   0  0  0  0  0  0  0  0  0  0  0  0
   55.5524   -7.8925   -3.9455 H   0  0  0  0  0  0  0  0  0  0  0  0
  5  6  1  0  0  0
  6  9  1  0  0  0
  9 10  1  0  0  0
 10 11  2  0  0  0
 11 12  1  0  0  0
 12 13  2  0  0  0
 13 14  1  0  0  0
 13 15  1  0  0  0
 15 16  2  0  0  0
  6  1  1  0  0  0
  1  2  2  0  0  0
  1  3  1  0  0  0
  3 18  1  0  0  0
 18 23  1  0  0  0
 23 24  1  0  0  0
 24 25  1  0  0  0
 25 26  1  0  0  0
 26 28  1  0  0  0
 28 29  1  0  0  0
 28 30  2  0  0  0
 18 19  1  0  0  0
 19 20  1  0  0  0
 19 21  2  0  0  0
 16 10  1  0  0  0
  5  7  1  0  0  0
  5  8  1  0  0  0
 14 17  1  0  0  0
  3  4  1  0  0  0
 26 27  1  0  0  0
 29 31  1  0  0  0
 29 32  1  0  0  0
 30 33  1  0  0  0
 20 22  1  0  0  0
M  END
> <minimizedAffinity>
-7.12185

> <CNNscore>
0.2723186314

> <CNNaffinity>
5.5913896561

> <CNN_VS>
1.5226396322

> <CNNaffinity_variance>
0.0700991303

$$$$
[H]N=C(N([H])[H])N([H])C([H])([H])C([H])([H])C([H])([H])[C@@]([H])(C(=O)O[H])N([H])C(=O)[C@@]([H])(N([H])[H])C([H])([H])c1c([H])c([H])c(O[H])c([H])c1[H]


 33 33  0  0  0  0  0  0  0  0999 V2000
   55.0166   -3.3911   -8.8338 C   0  0  0  0  0  0  0  0  0  0  0  0
   55.7118   -3.2925   -7.8133 O   0  0  0  0  0  0  0  0  0  0  0  0
   55.5868   -3.7840  -10.0521 N   0  0  0  0  0  0  0  0  0  0  0  0
   55.0073   -3.8730  -10.9317 H   0  0  0  0  0  0  0  0  0  0  0  0
   52.9731   -2.9430  -10.0585 N   0  0  0  0  0  0  0  0  0  0  0  0
   53.5813   -3.0879   -8.7412 C   0  0  0  0  0  0  0  0  0  0  0  0
   52.0279   -2.5231   -9.8996 H   0  0  0  0  0  0  0  0  0  0  0  0
   53.5102   -2.2176  -10.5797 H   0  0  0  0  0  0  0  0  0  0  0  0
   52.9515   -4.2894   -8.0191 C   0  0  0  0  0  0  0  0  0  0  0  0
   51.7722   -3.8690   -7.2569 C   0  0  0  0  0  0  0  0  0  0  0  0
   51.0913   -2.7292   -7.5879 C   0  0  0  0  0  0  0  0  0  0  0  0
   49.9855   -2.3432   -6.8675 C   0  0  0  0  0  0  0  0  0  0  0  0
   49.5782   -3.1277   -5.8070 C   0  0  0  0  0  0  0  0  0  0  0  0
   48.4638   -2.7403   -5.0799 O   0  0  0  0  0  0  0  0  0  0  0  0
   50.2541   -4.2726   -5.4667 C   0  0  0  0  0  0  0  0  0  0  0  0
   51.3794   -4.6756   -6.1909 C   0  0  0  0  0  0  0  0  0  0  0  0
   47.9435   -1.8977   -5.3089 H   0  0  0  0  0  0  0  0  0  0  0  0
   57.0006   -4.1031  -10.2318 C   0  0  0  0  0  0  0  0  0  0  0  0
   57.2512   -4.0644  -11.6715 C   0  0  0  0  0  0  0  0  0  0  0  0
   56.5210   -3.2437  -12.5060 O   0  0  0  0  0  0  0  0  0  0  0  0
   58.1393   -4.7704  -12.2386 O   0  0  0  0  0  0  0  0  0  0  0  0
   56.9062   -2.5511  -13.1163 H   0  0  0  0  0  0  0  0  0  0  0  0
   57.3153   -5.3730   -9.5292 C   0  0  0  0  0  0  0  0  0  0  0  0
   58.5168   -5.3634   -8.6591 C   0  0  0  0  0  0  0  0  0  0  0  0
   59.7060   -5.9129   -9.4779 C   0  0  0  0  0  0  0  0  0  0  0  0
   60.5901   -6.6429   -8.5952 N   0  0  0  0  0  0  0  0  0  0  0  0
   61.0585   -6.2144   -7.7574 H   0  0  0  0  0  0  0  0  0  0  0  0
   60.8225   -8.0263   -8.9043 C   0  0  0  0  0  0  0  0  0  0  0  0
   61.5061   -8.7822   -7.9325 N   0  0  0  0  0  0  0  0  0  0  0  0
   60.4094   -8.5082  -10.0253 N   0  0  0  0  0  0  0  0  0  0  0  0
   61.0016   -9.4887   -7.3784 H   0  0  0  0  0  0  0  0  0  0  0  0
   62.5171   -8.6353   -7.7676 H   0  0  0  0  0  0  0  0  0  0  0  0
   59.9152   -7.9000  -10.6940 H   0  0  0  0  0  0  0  0  0  0  0  0
  5  6  1  0  0  0
  6  9  1  0  0  0
  9 10  1  0  0  0
 10 11  2  0  0  0
 11 12  1  0  0  0
 12 13  2  0  0  0
 13 14  1  0  0  0
 13 15  1  0  0  0
 15 16  2  0  0  0
  6  1  1  0  0  0
  1  2  2  0  0  0
  1  3  1  0  0  0
  3 18  1  0  0  0
 18 23  1  0  0  0
 23 24  1  0  0  0
 24 25  1  0  0  0
 25 26  1  0  0  0
 26 28  1  0  0  0
 28 29  1  0  0  0
 28 30  2  0  0  0
 18 19  1  0  0  0
 19 20  1  0  0  0
 19 21  2  0  0  0
 16 10  1  0  0  0
  5  7  1  0  0  0
  5  8  1  0  0  0
 14 17  1  0  0  0
  3  4  1  0  0  0
 26 27  1  0  0  0
 29 31  1  0  0  0
 29 32  1  0  0  0
 30 33  1  0  0  0
 20 22  1  0  0  0
M  END
> <minimizedAffinity>
-8.73896

> <CNNscore>
0.2667838931

> <CNNaffinity>
5.4868974686

> <CNN_VS>
1.4638158083

> <CNNaffinity_variance>
0.0578742698

$$$$
[H]N=C(N([H])[H])N([H])C([H])([H])C([H])([H])C([H])([H])[C@@]([H])(C(=O)O[H])N([H])C(=O)[C@@]([H])(N([H])[H])C([H])([H])c1c([H])c([H])c(O[H])c([H])c1[H]


 33 33  0  0  0  0  0  0  0  0999 V2000
   54.6017   -3.3298   -8.2760 C   0  0  0  0  0  0  0  0  0  0  0  0
   55.3228   -2.3242   -8.2185 O   0  0  0  0  0  0  0  0  0  0  0  0
   55.1248   -4.6012   -8.0045 N   0  0  0  0  0  0  0  0  0  0  0  0
   54.5227   -5.4689   -8.0492 H   0  0  0  0  0  0  0  0  0  0  0  0
   52.9953   -3.1208  -10.0793 N   0  0  0  0  0  0  0  0  0  0  0  0
   53.1860   -3.1627   -8.6344 C   0  0  0  0  0  0  0  0  0  0  0  0
   52.0154   -2.7884  -10.2355 H   0  0  0  0  0  0  0  0  0  0  0  0
   53.6040   -2.3650  -10.4596 H   0  0  0  0  0  0  0  0  0  0  0  0
   52.4672   -4.3944   -8.0616 C   0  0  0  0  0  0  0  0  0  0  0  0
   51.4108   -3.9852   -7.1316 C   0  0  0  0  0  0  0  0  0  0  0  0
   50.6593   -2.8668   -7.3699 C   0  0  0  0  0  0  0  0  0  0  0  0
   49.6697   -2.4913   -6.4922 C   0  0  0  0  0  0  0  0  0  0  0  0
   49.4513   -3.2641   -5.3693 C   0  0  0  0  0  0  0  0  0  0  0  0
   48.4543   -2.8871   -4.4835 O   0  0  0  0  0  0  0  0  0  0  0  0
   50.1994   -4.3875   -5.1207 C   0  0  0  0  0  0  0  0  0  0  0  0
   51.2081   -4.7797   -6.0051 C   0  0  0  0  0  0  0  0  0  0  0  0
   47.8845   -2.0605   -4.6416 H   0  0  0  0  0  0  0  0  0  0  0  0
   56.5164   -4.8560   -7.6418 C   0  0  0  0  0  0  0  0  0  0  0  0
   57.2130   -5.1797   -8.8857 C   0  0  0  0  0  0  0  0  0  0  0  0
   58.4135   -5.8593   -8.8809 O   0  0  0  0  0  0  0  0  0  0  0  0
   56.7687   -4.8622  -10.0305 O   0  0  0  0  0  0  0  0  0  0  0  0
   58.5931   -6.7174   -9.3626 H   0  0  0  0  0  0  0  0  0  0  0  0
   56.5685   -5.8710   -6.5591 C   0  0  0  0  0  0  0  0  0  0  0  0
   55.2656   -6.4142   -6.1032 C   0  0  0  0  0  0  0  0  0  0  0  0
   55.2195   -6.3197   -4.5619 C   0  0  0  0  0  0  0  0  0  0  0  0
   55.6961   -5.0157   -4.1542 N   0  0  0  0  0  0  0  0  0  0  0  0
   56.0454   -4.2880   -4.8276 H   0  0  0  0  0  0  0  0  0  0  0  0
   55.6801   -4.7271   -2.7472 C   0  0  0  0  0  0  0  0  0  0  0  0
   56.8873   -4.2695   -2.1847 N   0  0  0  0  0  0  0  0  0  0  0  0
   54.5946   -4.8931   -2.0736 N   0  0  0  0  0  0  0  0  0  0  0  0
   56.9825   -3.2855   -1.8960 H   0  0  0  0  0  0  0  0  0  0  0  0
   57.6857   -4.9152   -2.0568 H   0  0  0  0  0  0  0  0  0  0  0  0
   53.7444   -5.2319   -2.5464 H   0  0  0  0  0  0  0  0  0  0  0  0
  5  6  1  0  0  0
  6  9  1  0  0  0
  9 10  1  0  0  0
 10 11  2  0  0  0
 11 12  1  0  0  0
 12 13  2  0  0  0
 13 14  1  0  0  0
 13 15  1  0  0  0
 15 16  2  0  0  0
  6  1  1  0  0  0
  1  2  2  0  0  0
  1  3  1  0  0  0
  3 18  1  0  0  0
 18 23  1  0  0  0
 23 24  1  0  0  0
 24 25  1  0  0  0
 25 26  1  0  0  0
 26 28  1  0  0  0
 28 29  1  0  0  0
 28 30  2  0  0  0
 18 19  1  0  0  0
 19 20  1  0  0  0
 19 21  2  0  0  0
 16 10  1  0  0  0
  5  7  1  0  0  0
  5  8  1  0  0  0
 14 17  1  0  0  0
  3  4  1  0  0  0
 26 27  1  0  0  0
 29 31  1  0  0  0
 29 32  1  0  0  0
 30 33  1  0  0  0
 20 22  1  0  0  0
M  END
> <minimizedAffinity>
-7.63684

> <CNNscore>
0.2589980662

> <CNNaffinity>
5.7925806046

> <CNN_VS>
1.5002671480

> <CNNaffinity_variance>
0.0282396134

$$$$
[H]c1c(F)c([H])c2c(C3=C(c4c([H])n([H])c5c([H])c([H])c([H])c([H])c45)C(=O)N([H])C3=O)nc(N3C([H])([H])C([H])([H])N(C([H])([H])[H])C([H])([H])C3([H])[H])nc2c1[H]


 36 41  0  0  0  0  0  0  0  0999 V2000
   56.1033   -5.2432   -5.9411 C   0  0  0  0  0  0  0  0  0  0  0  0
   54.8950   -4.7530   -6.2725 N   0  0  0  0  0  0  0  0  0  0  0  0
   54.5526   -4.3847   -7.5349 C   0  0  0  0  0  0  0  0  0  0  0  0
   55.5112   -4.5270   -8.5110 C   0  0  0  0  0  0  0  0  0  0  0  0
   55.2623   -4.1563   -9.8025 C   0  0  0  0  0  0  0  0  0  0  0  0
   56.2407   -4.2859  -10.7740 C   0  0  0  0  0  0  0  0  0  0  0  0
   55.9441   -3.9055  -12.0384 F   0  0  0  0  0  0  0  0  0  0  0  0
   57.4767   -4.7908  -10.4394 C   0  0  0  0  0  0  0  0  0  0  0  0
   57.7598   -5.1705   -9.1487 C   0  0  0  0  0  0  0  0  0  0  0  0
   56.7784   -5.0372   -8.1868 C   0  0  0  0  0  0  0  0  0  0  0  0
   57.0189   -5.3738   -6.9138 N   0  0  0  0  0  0  0  0  0  0  0  0
   53.2177   -3.8607   -7.8048 C   0  0  0  0  0  0  0  0  0  0  0  0
   52.1220   -4.2593   -7.1157 C   0  0  0  0  0  0  0  0  0  0  0  0
   50.9819   -3.5377   -7.6603 C   0  0  0  0  0  0  0  0  0  0  0  0
   49.7779   -3.6456   -7.2594 O   0  0  0  0  0  0  0  0  0  0  0  0
   51.4211   -2.6977   -8.7013 N   0  0  0  0  0  0  0  0  0  0  0  0
   52.8121   -2.8852   -8.8091 C   0  0  0  0  0  0  0  0  0  0  0  0
   53.5195   -2.2727   -9.6644 O   0  0  0  0  0  0  0  0  0  0  0  0
   50.7876   -2.0667   -9.2637 H   0  0  0  0  0  0  0  0  0  0  0  0
   52.1167   -5.2094   -6.0112 C   0  0  0  0  0  0  0  0  0  0  0  0
   52.9107   -6.3450   -5.9605 C   0  0  0  0  0  0  0  0  0  0  0  0
   52.6564   -7.0108   -4.8298 N   0  0  0  0  0  0  0  0  0  0  0  0
   51.7133   -6.3638   -4.1089 C   0  0  0  0  0  0  0  0  0  0  0  0
   51.1227   -6.6500   -2.8997 C   0  0  0  0  0  0  0  0  0  0  0  0
   50.1663   -5.7843   -2.4177 C   0  0  0  0  0  0  0  0  0  0  0  0
   49.8315   -4.6689   -3.1524 C   0  0  0  0  0  0  0  0  0  0  0  0
   50.4265   -4.3855   -4.3652 C   0  0  0  0  0  0  0  0  0  0  0  0
   51.3760   -5.2334   -4.8537 C   0  0  0  0  0  0  0  0  0  0  0  0
   53.0894   -7.9112   -4.4878 H   0  0  0  0  0  0  0  0  0  0  0  0
   54.6091   -6.8933   -1.6258 C   0  0  0  0  0  0  0  0  0  0  0  0
   55.9455   -6.7944   -2.1442 N   0  0  0  0  0  0  0  0  0  0  0  0
   56.4531   -5.4728   -2.2241 C   0  0  0  0  0  0  0  0  0  0  0  0
   56.0534   -4.7300   -3.5056 C   0  0  0  0  0  0  0  0  0  0  0  0
   56.3751   -5.6058   -4.5994 N   0  0  0  0  0  0  0  0  0  0  0  0
   56.9827   -6.8714   -4.2974 C   0  0  0  0  0  0  0  0  0  0  0  0
   56.0467   -7.5660   -3.3347 C   0  0  0  0  0  0  0  0  0  0  0  0
 30 31  1  0  0  0
 31 32  1  0  0  0
 32 33  1  0  0  0
 33 34  1  0  0  0
 34 35  1  0  0  0
 35 36  1  0  0  0
 34  1  1  0  0  0
  1  2  2  0  0  0
  2  3  1  0  0  0
  3 12  1  0  0  0
 12 13  2  0  0  0
 13 14  1  0  0  0
 14 15  2  0  0  0
 14 16  1  0  0  0
 16 17  1  0  0  0
 17 18  2  0  0  0
 13 20  1  0  0  0
 20 21  2  0  0  0
 21 22  1  0  0  0
 22 23  1  0  0  0
 23 24  2  0  0  0
 24 25  1  0  0  0
 25 26  2  0  0  0
 26 27  1  0  0  0
 27 28  2  0  0  0
  3  4  2  0  0  0
  4  5  1  0  0  0
  5  6  2  0  0  0
  6  7  1  0  0  0
  6  8  1  0  0  0
  8  9  2  0  0  0
  9 10  1  0  0  0
 10 11  2  0  0  0
 36 31  1  0  0  0
 11  1  1  0  0  0
 17 12  1  0  0  0
 28 20  1  0  0  0
 10  4  1  0  0  0
 28 23  1  0  0  0
 16 19  1  0  0  0
 22 29  1  0  0  0
M  END
> <minimizedAffinity>
-11.47336

> <CNNscore>
0.8134275675

> <CNNaffinity>
7.7153272629

> <CNN_VS>
6.2758598328

> <CNNaffinity_variance>
0.0194744729

$$$$
[H]c1c(F)c([H])c2c(C3=C(c4c([H])n([H])c5c([H])c([H])c([H])c([H])c45)C(=O)N([H])C3=O)nc(N3C([H])([H])C([H])([H])N(C([H])([H])[H])C([H])([H])C3([H])[H])nc2c1[H]


 36 41  0  0  0  0  0  0  0  0999 V2000
   53.8811   -6.3088   -4.5528 C   0  0  0  0  0  0  0  0  0  0  0  0
   53.6205   -5.6231   -5.6805 N   0  0  0  0  0  0  0  0  0  0  0  0
   52.4663   -4.9389   -5.8957 C   0  0  0  0  0  0  0  0  0  0  0  0
   51.5259   -4.9653   -4.8923 C   0  0  0  0  0  0  0  0  0  0  0  0
   50.3256   -4.3275   -5.0344 C   0  0  0  0  0  0  0  0  0  0  0  0
   49.3779   -4.3761   -4.0258 C   0  0  0  0  0  0  0  0  0  0  0  0
   48.2055   -3.7272   -4.2150 F   0  0  0  0  0  0  0  0  0  0  0  0
   49.6427   -5.0733   -2.8690 C   0  0  0  0  0  0  0  0  0  0  0  0
   50.8393   -5.7278   -2.6959 C   0  0  0  0  0  0  0  0  0  0  0  0
   51.7780   -5.6743   -3.7070 C   0  0  0  0  0  0  0  0  0  0  0  0
   52.9469   -6.3156   -3.5891 N   0  0  0  0  0  0  0  0  0  0  0  0
   52.2666   -4.2224   -7.1511 C   0  0  0  0  0  0  0  0  0  0  0  0
   53.2952   -3.8041   -7.9265 C   0  0  0  0  0  0  0  0  0  0  0  0
   52.7208   -3.1279   -9.0798 C   0  0  0  0  0  0  0  0  0  0  0  0
   53.3807   -2.6047  -10.0352 O   0  0  0  0  0  0  0  0  0  0  0  0
   51.3169   -3.1452   -8.9738 N   0  0  0  0  0  0  0  0  0  0  0  0
   51.0127   -3.8215   -7.7772 C   0  0  0  0  0  0  0  0  0  0  0  0
   49.8229   -4.0060   -7.3806 O   0  0  0  0  0  0  0  0  0  0  0  0
   50.6617   -2.7180   -9.6835 H   0  0  0  0  0  0  0  0  0  0  0  0
   54.7078   -4.0338   -7.6540 C   0  0  0  0  0  0  0  0  0  0  0  0
   55.2961   -3.8627   -6.4101 C   0  0  0  0  0  0  0  0  0  0  0  0
   56.6015   -4.1358   -6.4983 N   0  0  0  0  0  0  0  0  0  0  0  0
   56.9206   -4.4873   -7.7641 C   0  0  0  0  0  0  0  0  0  0  0  0
   58.1147   -4.8456   -8.3460 C   0  0  0  0  0  0  0  0  0  0  0  0
   58.1231   -5.1472   -9.6897 C   0  0  0  0  0  0  0  0  0  0  0  0
   56.9484   -5.0816  -10.4052 C   0  0  0  0  0  0  0  0  0  0  0  0
   55.7526   -4.7216   -9.8175 C   0  0  0  0  0  0  0  0  0  0  0  0
   55.7295   -4.4216   -8.4876 C   0  0  0  0  0  0  0  0  0  0  0  0
   57.3310   -4.1029   -5.7356 H   0  0  0  0  0  0  0  0  0  0  0  0
   57.8691   -7.3353   -1.9798 C   0  0  0  0  0  0  0  0  0  0  0  0
   57.3134   -8.0333   -3.1060 N   0  0  0  0  0  0  0  0  0  0  0  0
   57.4631   -7.3665   -4.3484 C   0  0  0  0  0  0  0  0  0  0  0  0
   56.3693   -6.3290   -4.6326 C   0  0  0  0  0  0  0  0  0  0  0  0
   55.1132   -6.9922   -4.4101 N   0  0  0  0  0  0  0  0  0  0  0  0
   55.1365   -8.3778   -4.0335 C   0  0  0  0  0  0  0  0  0  0  0  0
   55.9935   -8.4596   -2.7909 C   0  0  0  0  0  0  0  0  0  0  0  0
 30 31  1  0  0  0
 31 32  1  0  0  0
 32 33  1  0  0  0
 33 34  1  0  0  0
 34 35  1  0  0  0
 35 36  1  0  0  0
 34  1  1  0  0  0
  1  2  2  0  0  0
  2  3  1  0  0  0
  3 12  1  0  0  0
 12 13  2  0  0  0
 13 14  1  0  0  0
 14 15  2  0  0  0
 14 16  1  0  0  0
 16 17  1  0  0  0
 17 18  2  0  0  0
 13 20  1  0  0  0
 20 21  2  0  0  0
 21 22  1  0  0  0
 22 23  1  0  0  0
 23 24  2  0  0  0
 24 25  1  0  0  0
 25 26  2  0  0  0
 26 27  1  0  0  0
 27 28  2  0  0  0
  3  4  2  0  0  0
  4  5  1  0  0  0
  5  6  2  0  0  0
  6  7  1  0  0  0
  6  8  1  0  0  0
  8  9  2  0  0  0
  9 10  1  0  0  0
 10 11  2  0  0  0
 36 31  1  0  0  0
 11  1  1  0  0  0
 17 12  1  0  0  0
 28 20  1  0  0  0
 10  4  1  0  0  0
 28 23  1  0  0  0
 16 19  1  0  0  0
 22 29  1  0  0  0
M  END
> <minimizedAffinity>
-10.00746

> <CNNscore>
0.6737615466

> <CNNaffinity>
7.5891890526

> <CNN_VS>
5.1133036613

> <CNNaffinity_variance>
0.1851436198

$$$$
[H]c1c(F)c([H])c2c(C3=C(c4c([H])n([H])c5c([H])c([H])c([H])c([H])c45)C(=O)N([H])C3=O)nc(N3C([H])([H])C([H])([H])N(C([H])([H])[H])C([H])([H])C3([H])[H])nc2c1[H]


 36 41  0  0  0  0  0  0  0  0999 V2000
   54.2743   -6.0122   -5.0265 C   0  0  0  0  0  0  0  0  0  0  0  0
   53.1659   -5.5002   -4.4613 N   0  0  0  0  0  0  0  0  0  0  0  0
   51.9163   -5.6679   -4.9680 C   0  0  0  0  0  0  0  0  0  0  0  0
   51.8028   -6.4031   -6.1251 C   0  0  0  0  0  0  0  0  0  0  0  0
   50.5878   -6.5992   -6.7190 C   0  0  0  0  0  0  0  0  0  0  0  0
   50.4867   -7.3248   -7.8942 C   0  0  0  0  0  0  0  0  0  0  0  0
   49.2606   -7.4915   -8.4422 F   0  0  0  0  0  0  0  0  0  0  0  0
   51.6180   -7.8536   -8.4731 C   0  0  0  0  0  0  0  0  0  0  0  0
   52.8555   -7.6722   -7.9022 C   0  0  0  0  0  0  0  0  0  0  0  0
   52.9466   -6.9469   -6.7309 C   0  0  0  0  0  0  0  0  0  0  0  0
   54.1341   -6.7275   -6.1536 N   0  0  0  0  0  0  0  0  0  0  0  0
   50.7686   -5.0753   -4.2893 C   0  0  0  0  0  0  0  0  0  0  0  0
   50.0195   -4.0915   -4.8418 C   0  0  0  0  0  0  0  0  0  0  0  0
   48.9800   -3.7486   -3.8832 C   0  0  0  0  0  0  0  0  0  0  0  0
   48.0776   -2.8663   -4.0543 O   0  0  0  0  0  0  0  0  0  0  0  0
   49.1281   -4.5495   -2.7347 N   0  0  0  0  0  0  0  0  0  0  0  0
   50.2388   -5.3827   -2.9665 C   0  0  0  0  0  0  0  0  0  0  0  0
   50.6470   -6.2290   -2.1155 O   0  0  0  0  0  0  0  0  0  0  0  0
   48.4995   -4.4964   -1.8876 H   0  0  0  0  0  0  0  0  0  0  0  0
   50.2153   -3.5234   -6.1690 C   0  0  0  0  0  0  0  0  0  0  0  0
   49.1951   -2.9954   -6.9455 C   0  0  0  0  0  0  0  0  0  0  0  0
   49.6994   -2.5750   -8.1097 N   0  0  0  0  0  0  0  0  0  0  0  0
   51.0317   -2.8007   -8.1503 C   0  0  0  0  0  0  0  0  0  0  0  0
   51.9774   -2.5537   -9.1185 C   0  0  0  0  0  0  0  0  0  0  0  0
   53.2826   -2.9120   -8.8646 C   0  0  0  0  0  0  0  0  0  0  0  0
   53.6005   -3.5017   -7.6615 C   0  0  0  0  0  0  0  0  0  0  0  0
   52.6486   -3.7478   -6.6928 C   0  0  0  0  0  0  0  0  0  0  0  0
   51.3526   -3.3969   -6.9305 C   0  0  0  0  0  0  0  0  0  0  0  0
   49.1922   -2.1254   -8.9195 H   0  0  0  0  0  0  0  0  0  0  0  0
   57.5686   -7.0365   -1.6096 C   0  0  0  0  0  0  0  0  0  0  0  0
   57.7382   -6.3267   -2.8472 N   0  0  0  0  0  0  0  0  0  0  0  0
   57.1670   -5.0291   -2.8685 C   0  0  0  0  0  0  0  0  0  0  0  0
   55.6755   -5.0126   -3.2280 C   0  0  0  0  0  0  0  0  0  0  0  0
   55.5390   -5.7913   -4.4289 N   0  0  0  0  0  0  0  0  0  0  0  0
   56.7265   -6.3479   -5.0137 C   0  0  0  0  0  0  0  0  0  0  0  0
   57.3783   -7.1760   -3.9299 C   0  0  0  0  0  0  0  0  0  0  0  0
 30 31  1  0  0  0
 31 32  1  0  0  0
 32 33  1  0  0  0
 33 34  1  0  0  0
 34 35  1  0  0  0
 35 36  1  0  0  0
 34  1  1  0  0  0
  1  2  2  0  0  0
  2  3  1  0  0  0
  3 12  1  0  0  0
 12 13  2  0  0  0
 13 14  1  0  0  0
 14 15  2  0  0  0
 14 16  1  0  0  0
 16 17  1  0  0  0
 17 18  2  0  0  0
 13 20  1  0  0  0
 20 21  2  0  0  0
 21 22  1  0  0  0
 22 23  1  0  0  0
 23 24  2  0  0  0
 24 25  1  0  0  0
 25 26  2  0  0  0
 26 27  1  0  0  0
 27 28  2  0  0  0
  3  4  2  0  0  0
  4  5  1  0  0  0
  5  6  2  0  0  0
  6  7  1  0  0  0
  6  8  1  0  0  0
  8  9  2  0  0  0
  9 10  1  0  0  0
 10 11  2  0  0  0
 36 31  1  0  0  0
 11  1  1  0  0  0
 17 12  1  0  0  0
 28 20  1  0  0  0
 10  4  1  0  0  0
 28 23  1  0  0  0
 16 19  1  0  0  0
 22 29  1  0  0  0
M  END
> <minimizedAffinity>
-4.31538

> <CNNscore>
0.6630683541

> <CNNaffinity>
7.5082345009

> <CNN_VS>
4.9784727097

> <CNNaffinity_variance>
0.4963145256

$$$$
[H]c1c(F)c([H])c2c(C3=C(c4c([H])n([H])c5c([H])c([H])c([H])c([H])c45)C(=O)N([H])C3=O)nc(N3C([H])([H])C([H])([H])N(C([H])([H])[H])C([H])([H])C3([H])[H])nc2c1[H]


 36 41  0  0  0  0  0  0  0  0999 V2000
   56.3718   -4.8282   -5.5202 C   0  0  0  0  0  0  0  0  0  0  0  0
   55.1083   -4.5132   -5.8586 N   0  0  0  0  0  0  0  0  0  0  0  0
   54.6838   -4.3804   -7.1426 C   0  0  0  0  0  0  0  0  0  0  0  0
   55.6154   -4.5811   -8.1345 C   0  0  0  0  0  0  0  0  0  0  0  0
   55.2826   -4.4417   -9.4526 C   0  0  0  0  0  0  0  0  0  0  0  0
   56.2326   -4.6272  -10.4429 C   0  0  0  0  0  0  0  0  0  0  0  0
   55.8524   -4.4785  -11.7331 F   0  0  0  0  0  0  0  0  0  0  0  0
   57.5252   -4.9536  -10.1006 C   0  0  0  0  0  0  0  0  0  0  0  0
   57.8930   -5.0988   -8.7838 C   0  0  0  0  0  0  0  0  0  0  0  0
   56.9392   -4.9114   -7.8033 C   0  0  0  0  0  0  0  0  0  0  0  0
   57.2594   -5.0210   -6.5083 N   0  0  0  0  0  0  0  0  0  0  0  0
   53.2934   -4.0346   -7.4188 C   0  0  0  0  0  0  0  0  0  0  0  0
   52.2631   -4.4879   -6.6656 C   0  0  0  0  0  0  0  0  0  0  0  0
   51.0385   -3.9498   -7.2384 C   0  0  0  0  0  0  0  0  0  0  0  0
   49.8623   -4.1537   -6.7948 O   0  0  0  0  0  0  0  0  0  0  0  0
   51.3600   -3.1646   -8.3620 N   0  0  0  0  0  0  0  0  0  0  0  0
   52.7610   -3.2056   -8.4932 C   0  0  0  0  0  0  0  0  0  0  0  0
   53.3781   -2.5988   -9.4194 O   0  0  0  0  0  0  0  0  0  0  0  0
   50.6487   -2.6616   -8.9592 H   0  0  0  0  0  0  0  0  0  0  0  0
   52.3863   -5.3282   -5.4819 C   0  0  0  0  0  0  0  0  0  0  0  0
   51.6472   -5.1490   -4.3225 C   0  0  0  0  0  0  0  0  0  0  0  0
   52.0082   -6.0690   -3.4227 N   0  0  0  0  0  0  0  0  0  0  0  0
   52.9707   -6.8692   -3.9334 C   0  0  0  0  0  0  0  0  0  0  0  0
   53.6561   -7.9376   -3.4026 C   0  0  0  0  0  0  0  0  0  0  0  0
   54.6058   -8.5585   -4.1830 C   0  0  0  0  0  0  0  0  0  0  0  0
   54.8403   -8.0967   -5.4588 C   0  0  0  0  0  0  0  0  0  0  0  0
   54.1505   -7.0245   -5.9876 C   0  0  0  0  0  0  0  0  0  0  0  0
   53.2064   -6.4011   -5.2264 C   0  0  0  0  0  0  0  0  0  0  0  0
   51.6392   -6.2079   -2.4431 H   0  0  0  0  0  0  0  0  0  0  0  0
   55.2220   -5.9478   -0.9375 C   0  0  0  0  0  0  0  0  0  0  0  0
   56.5201   -5.7871   -1.5320 N   0  0  0  0  0  0  0  0  0  0  0  0
   56.8714   -4.4467   -1.8329 C   0  0  0  0  0  0  0  0  0  0  0  0
   56.3467   -3.9562   -3.1886 C   0  0  0  0  0  0  0  0  0  0  0  0
   56.7283   -4.9498   -4.1551 N   0  0  0  0  0  0  0  0  0  0  0  0
   57.4855   -6.0817   -3.6997 C   0  0  0  0  0  0  0  0  0  0  0  0
   56.6677   -6.7168   -2.5982 C   0  0  0  0  0  0  0  0  0  0  0  0
 30 31  1  0  0  0
 31 32  1  0  0  0
 32 33  1  0  0  0
 33 34  1  0  0  0
 34 35  1  0  0  0
 35 36  1  0  0  0
 34  1  1  0  0  0
  1  2  2  0  0  0
  2  3  1  0  0  0
  3 12  1  0  0  0
 12 13  2  0  0  0
 13 14  1  0  0  0
 14 15  2  0  0  0
 14 16  1  0  0  0
 16 17  1  0  0  0
 17 18  2  0  0  0
 13 20  1  0  0  0
 20 21  2  0  0  0
 21 22  1  0  0  0
 22 23  1  0  0  0
 23 24  2  0  0  0
 24 25  1  0  0  0
 25 26  2  0  0  0
 26 27  1  0  0  0
 27 28  2  0  0  0
  3  4  2  0  0  0
  4  5  1  0  0  0
  5  6  2  0  0  0
  6  7  1  0  0  0
  6  8  1  0  0  0
  8  9  2  0  0  0
  9 10  1  0  0  0
 10 11  2  0  0  0
 36 31  1  0  0  0
 11  1  1  0  0  0
 17 12  1  0  0  0
 28 20  1  0  0  0
 10  4  1  0  0  0
 28 23  1  0  0  0
 16 19  1  0  0  0
 22 29  1  0  0  0
M  END
> <minimizedAffinity>
-7.56225

> <CNNscore>
0.5319129825

> <CNNaffinity>
7.3679451942

> <CNN_VS>
3.9191057682

> <CNNaffinity_variance>
0.1803721935

$$$$
[H]c1c(F)c([H])c2c(C3=C(c4c([H])n([H])c5c([H])c([H])c([H])c([H])c45)C(=O)N([H])C3=O)nc(N3C([H])([H])C([H])([H])N(C([H])([H])[H])C([H])([H])C3([H])[H])nc2c1[H]


 36 41  0  0  0  0  0  0  0  0999 V2000
   54.8812   -5.2286   -4.6025 C   0  0  0  0  0  0  0  0  0  0  0  0
   54.9298   -4.6812   -5.8305 N   0  0  0  0  0  0  0  0  0  0  0  0
   53.8821   -4.6799   -6.6959 C   0  0  0  0  0  0  0  0  0  0  0  0
   52.7189   -5.2795   -6.2725 C   0  0  0  0  0  0  0  0  0  0  0  0
   51.6241   -5.3480   -7.0877 C   0  0  0  0  0  0  0  0  0  0  0  0
   50.4639   -5.9707   -6.6589 C   0  0  0  0  0  0  0  0  0  0  0  0
   49.4074   -6.0112   -7.5035 F   0  0  0  0  0  0  0  0  0  0  0  0
   50.4093   -6.5282   -5.4016 C   0  0  0  0  0  0  0  0  0  0  0  0
   51.4939   -6.4785   -4.5581 C   0  0  0  0  0  0  0  0  0  0  0  0
   52.6466   -5.8561   -4.9945 C   0  0  0  0  0  0  0  0  0  0  0  0
   53.7329   -5.8047   -4.2142 N   0  0  0  0  0  0  0  0  0  0  0  0
   54.0234   -4.0635   -8.0110 C   0  0  0  0  0  0  0  0  0  0  0  0
   55.1659   -4.1370   -8.7346 C   0  0  0  0  0  0  0  0  0  0  0  0
   54.9413   -3.4076   -9.9734 C   0  0  0  0  0  0  0  0  0  0  0  0
   55.7907   -3.2631  -10.9114 O   0  0  0  0  0  0  0  0  0  0  0  0
   53.6331   -2.8873   -9.9728 N   0  0  0  0  0  0  0  0  0  0  0  0
   53.0439   -3.2833   -8.7571 C   0  0  0  0  0  0  0  0  0  0  0  0
   51.8574   -2.9699   -8.4392 O   0  0  0  0  0  0  0  0  0  0  0  0
   53.2202   -2.3151  -10.7587 H   0  0  0  0  0  0  0  0  0  0  0  0
   56.3723   -4.8523   -8.3404 C   0  0  0  0  0  0  0  0  0  0  0  0
   56.5807   -5.3858   -7.0776 C   0  0  0  0  0  0  0  0  0  0  0  0
   57.7872   -5.9592   -7.0347 N   0  0  0  0  0  0  0  0  0  0  0  0
   58.4073   -5.8325   -8.2294 C   0  0  0  0  0  0  0  0  0  0  0  0
   59.6429   -6.2442   -8.6726 C   0  0  0  0  0  0  0  0  0  0  0  0
   60.0029   -5.9534   -9.9697 C   0  0  0  0  0  0  0  0  0  0  0  0
   59.1252   -5.2653  -10.7773 C   0  0  0  0  0  0  0  0  0  0  0  0
   57.8864   -4.8540  -10.3286 C   0  0  0  0  0  0  0  0  0  0  0  0
   57.5165   -5.1364   -9.0470 C   0  0  0  0  0  0  0  0  0  0  0  0
   58.2493   -6.4541   -6.2244 H   0  0  0  0  0  0  0  0  0  0  0  0
   56.8687   -5.2810   -0.1725 C   0  0  0  0  0  0  0  0  0  0  0  0
   57.4944   -5.4933   -1.4483 N   0  0  0  0  0  0  0  0  0  0  0  0
   57.6366   -4.3253   -2.2396 C   0  0  0  0  0  0  0  0  0  0  0  0
   56.3917   -3.9800   -3.0672 C   0  0  0  0  0  0  0  0  0  0  0  0
   56.0206   -5.1823   -3.7627 N   0  0  0  0  0  0  0  0  0  0  0  0
   56.8388   -6.3486   -3.5829 C   0  0  0  0  0  0  0  0  0  0  0  0
   56.8829   -6.6036   -2.0935 C   0  0  0  0  0  0  0  0  0  0  0  0
 30 31  1  0  0  0
 31 32  1  0  0  0
 32 33  1  0  0  0
 33 34  1  0  0  0
 34 35  1  0  0  0
 35 36  1  0  0  0
 34  1  1  0  0  0
  1  2  2  0  0  0
  2  3  1  0  0  0
  3 12  1  0  0  0
 12 13  2  0  0  0
 13 14  1  0  0  0
 14 15  2  0  0  0
 14 16  1  0  0  0
 16 17  1  0  0  0
 17 18  2  0  0  0
 13 20  1  0  0  0
 20 21  2  0  0  0
 21 22  1  0  0  0
 22 23  1  0  0  0
 23 24  2  0  0  0
 24 25  1  0  0  0
 25 26  2  0  0  0
 26 27  1  0  0  0
 27 28  2  0  0  0
  3  4  2  0  0  0
  4  5  1  0  0  0
  5  6  2  0  0  0
  6  7  1  0  0  0
  6  8  1  0  0  0
  8  9  2  0  0  0
  9 10  1  0  0  0
 10 11  2  0  0  0
 36 31  1  0  0  0
 11  1  1  0  0  0
 17 12  1  0  0  0
 28 20  1  0  0  0
 10  4  1  0  0  0
 28 23  1  0  0  0
 16 19  1  0  0  0
 22 29  1  0  0  0
M  END
> <minimizedAffinity>
-8.33141

> <CNNscore>
0.4956733882

> <CNNaffinity>
7.2371954918

> <CNN_VS>
3.5872852802

> <CNNaffinity_variance>
0.2846856713

$$$$
[H]c1c(F)c([H])c2c(C3=C(c4c([H])n([H])c5c([H])c([H])c([H])c([H])c45)C(=O)N([H])C3=O)nc(N3C([H])([H])C([H])([H])N(C([H])([H])[H])C([H])([H])C3([H])[H])nc2c1[H]


 36 41  0  0  0  0  0  0  0  0999 V2000
   62.4482   -5.9628  -11.8546 C   0  0  0  0  0  0  0  0  0  0  0  0
   63.2949   -5.4780  -12.7810 N   0  0  0  0  0  0  0  0  0  0  0  0
   62.9375   -4.5673  -13.7241 C   0  0  0  0  0  0  0  0  0  0  0  0
   61.6323   -4.1335  -13.7136 C   0  0  0  0  0  0  0  0  0  0  0  0
   61.1793   -3.2391  -14.6422 C   0  0  0  0  0  0  0  0  0  0  0  0
   59.8584   -2.8232  -14.6347 C   0  0  0  0  0  0  0  0  0  0  0  0
   59.4597   -1.9354  -15.5750 F   0  0  0  0  0  0  0  0  0  0  0  0
   58.9904   -3.3140  -13.6859 C   0  0  0  0  0  0  0  0  0  0  0  0
   59.4139   -4.2169  -12.7394 C   0  0  0  0  0  0  0  0  0  0  0  0
   60.7324   -4.6261  -12.7550 C   0  0  0  0  0  0  0  0  0  0  0  0
   61.1811   -5.5204  -11.8659 N   0  0  0  0  0  0  0  0  0  0  0  0
   63.9219   -4.0960  -14.6927 C   0  0  0  0  0  0  0  0  0  0  0  0
   64.2112   -4.7722  -15.8299 C   0  0  0  0  0  0  0  0  0  0  0  0
   65.2329   -4.0142  -16.5362 C   0  0  0  0  0  0  0  0  0  0  0  0
   65.7528   -4.3358  -17.6535 O   0  0  0  0  0  0  0  0  0  0  0  0
   65.5555   -2.8655  -15.7888 N   0  0  0  0  0  0  0  0  0  0  0  0
   64.7505   -2.8981  -14.6344 C   0  0  0  0  0  0  0  0  0  0  0  0
   64.8007   -2.0000  -13.7412 O   0  0  0  0  0  0  0  0  0  0  0  0
   66.2722   -2.1472  -16.0819 H   0  0  0  0  0  0  0  0  0  0  0  0
   63.5759   -6.0096  -16.2632 C   0  0  0  0  0  0  0  0  0  0  0  0
   62.3473   -6.0685  -16.9033 C   0  0  0  0  0  0  0  0  0  0  0  0
   62.0393   -7.3455  -17.1499 N   0  0  0  0  0  0  0  0  0  0  0  0
   63.0201   -8.1584  -16.6970 C   0  0  0  0  0  0  0  0  0  0  0  0
   63.1602   -9.5269  -16.7110 C   0  0  0  0  0  0  0  0  0  0  0  0
   64.2940  -10.0741  -16.1528 C   0  0  0  0  0  0  0  0  0  0  0  0
   65.2448   -9.2445  -15.6018 C   0  0  0  0  0  0  0  0  0  0  0  0
   65.1003   -7.8719  -15.5898 C   0  0  0  0  0  0  0  0  0  0  0  0
   63.9833   -7.3165  -16.1403 C   0  0  0  0  0  0  0  0  0  0  0  0
   61.1780   -7.7325  -17.6227 H   0  0  0  0  0  0  0  0  0  0  0  0
   62.0357   -8.1602   -7.5444 C   0  0  0  0  0  0  0  0  0  0  0  0
   62.7897   -8.5648   -8.6986 N   0  0  0  0  0  0  0  0  0  0  0  0
   63.9469   -7.7857   -8.9526 C   0  0  0  0  0  0  0  0  0  0  0  0
   63.6719   -6.5082   -9.7564 C   0  0  0  0  0  0  0  0  0  0  0  0
   62.9057   -6.9087  -10.9052 N   0  0  0  0  0  0  0  0  0  0  0  0
   62.6098   -8.3043  -11.0687 C   0  0  0  0  0  0  0  0  0  0  0  0
   61.9074   -8.7346   -9.8012 C   0  0  0  0  0  0  0  0  0  0  0  0
 30 31  1  0  0  0
 31 32  1  0  0  0
 32 33  1  0  0  0
 33 34  1  0  0  0
 34 35  1  0  0  0
 35 36  1  0  0  0
 34  1  1  0  0  0
  1  2  2  0  0  0
  2  3  1  0  0  0
  3 12  1  0  0  0
 12 13  2  0  0  0
 13 14  1  0  0  0
 14 15  2  0  0  0
 14 16  1  0  0  0
 16 17  1  0  0  0
 17 18  2  0  0  0
 13 20  1  0  0  0
 20 21  2  0  0  0
 21 22  1  0  0  0
 22 23  1  0  0  0
 23 24  2  0  0  0
 24 25  1  0  0  0
 25 26  2  0  0  0
 26 27  1  0  0  0
 27 28  2  0  0  0
  3  4  2  0  0  0
  4  5  1  0  0  0
  5  6  2  0  0  0
  6  7  1  0  0  0
  6  8  1  0  0  0
  8  9  2  0  0  0
  9 10  1  0  0  0
 10 11  2  0  0  0
 36 31  1  0  0  0
 11  1  1  0  0  0
 17 12  1  0  0  0
 28 20  1  0  0  0
 10  4  1  0  0  0
 28 23  1  0  0  0
 16 19  1  0  0  0
 22 29  1  0  0  0
M  END
> <minimizedAffinity>
-1.42730

> <CNNscore>
0.4742675424

> <CNNaffinity>
5.2234997749

> <CNN_VS>
2.4773364067

> <CNNaffinity_variance>
0.2717580795

$$$$
[H]c1c(F)c([H])c2c(C3=C(c4c([H])n([H])c5c([H])c([H])c([H])c([H])c45)C(=O)N([H])C3=O)nc(N3C([H])([H])C([H])([H])N(C([H])([H])[H])C([H])([H])C3([H])[H])nc2c1[H]


 36 41  0  0  0  0  0  0  0  0999 V2000
   54.8048   -6.0782   -4.8003 C   0  0  0  0  0  0  0  0  0  0  0  0
   53.7233   -6.5972   -5.4094 N   0  0  0  0  0  0  0  0  0  0  0  0
   53.2630   -6.1734   -6.6157 C   0  0  0  0  0  0  0  0  0  0  0  0
   53.9553   -5.1546   -7.2279 C   0  0  0  0  0  0  0  0  0  0  0  0
   53.5473   -4.6480   -8.4297 C   0  0  0  0  0  0  0  0  0  0  0  0
   54.2402   -3.6093   -9.0286 C   0  0  0  0  0  0  0  0  0  0  0  0
   53.7961   -3.1438  -10.2192 F   0  0  0  0  0  0  0  0  0  0  0  0
   55.3495   -3.0786   -8.4103 C   0  0  0  0  0  0  0  0  0  0  0  0
   55.7845   -3.5639   -7.1997 C   0  0  0  0  0  0  0  0  0  0  0  0
   55.0870   -4.5993   -6.6099 C   0  0  0  0  0  0  0  0  0  0  0  0
   55.4628   -5.0868   -5.4213 N   0  0  0  0  0  0  0  0  0  0  0  0
   52.0797   -6.7930   -7.2032 C   0  0  0  0  0  0  0  0  0  0  0  0
   50.8319   -6.5961   -6.7150 C   0  0  0  0  0  0  0  0  0  0  0  0
   49.9170   -7.3704   -7.5400 C   0  0  0  0  0  0  0  0  0  0  0  0
   48.6538   -7.4292   -7.3890 O   0  0  0  0  0  0  0  0  0  0  0  0
   50.6501   -8.0445   -8.5353 N   0  0  0  0  0  0  0  0  0  0  0  0
   52.0011   -7.6995   -8.3421 C   0  0  0  0  0  0  0  0  0  0  0  0
   52.9321   -8.1475   -9.0766 O   0  0  0  0  0  0  0  0  0  0  0  0
   50.2209   -8.6770   -9.2642 H   0  0  0  0  0  0  0  0  0  0  0  0
   50.4893   -5.7333   -5.5921 C   0  0  0  0  0  0  0  0  0  0  0  0
   50.6877   -6.0739   -4.2628 C   0  0  0  0  0  0  0  0  0  0  0  0
   50.2540   -5.0787   -3.4831 N   0  0  0  0  0  0  0  0  0  0  0  0
   49.7658   -4.0708   -4.2404 C   0  0  0  0  0  0  0  0  0  0  0  0
   49.2105   -2.8566   -3.9086 C   0  0  0  0  0  0  0  0  0  0  0  0
   48.7896   -2.0298   -4.9263 C   0  0  0  0  0  0  0  0  0  0  0  0
   48.9346   -2.4380   -6.2333 C   0  0  0  0  0  0  0  0  0  0  0  0
   49.4922   -3.6570   -6.5620 C   0  0  0  0  0  0  0  0  0  0  0  0
   49.9144   -4.4851   -5.5643 C   0  0  0  0  0  0  0  0  0  0  0  0
   50.2611   -5.0214   -2.4287 H   0  0  0  0  0  0  0  0  0  0  0  0
   58.0179   -6.2426   -1.1636 C   0  0  0  0  0  0  0  0  0  0  0  0
   56.6513   -6.6856   -1.1852 N   0  0  0  0  0  0  0  0  0  0  0  0
   56.4229   -7.8642   -1.9397 C   0  0  0  0  0  0  0  0  0  0  0  0
   56.2160   -7.6120   -3.4389 C   0  0  0  0  0  0  0  0  0  0  0  0
   55.2178   -6.5825   -3.5431 N   0  0  0  0  0  0  0  0  0  0  0  0
   54.6445   -6.0699   -2.3305 C   0  0  0  0  0  0  0  0  0  0  0  0
   55.8045   -5.5845   -1.4914 C   0  0  0  0  0  0  0  0  0  0  0  0
 30 31  1  0  0  0
 31 32  1  0  0  0
 32 33  1  0  0  0
 33 34  1  0  0  0
 34 35  1  0  0  0
 35 36  1  0  0  0
 34  1  1  0  0  0
  1  2  2  0  0  0
  2  3  1  0  0  0
  3 12  1  0  0  0
 12 13  2  0  0  0
 13 14  1  0  0  0
 14 15  2  0  0  0
 14 16  1  0  0  0
 16 17  1  0  0  0
 17 18  2  0  0  0
 13 20  1  0  0  0
 20 21  2  0  0  0
 21 22  1  0  0  0
 22 23  1  0  0  0
 23 24  2  0  0  0
 24 25  1  0  0  0
 25 26  2  0  0  0
 26 27  1  0  0  0
 27 28  2  0  0  0
  3  4  2  0  0  0
  4  5  1  0  0  0
  5  6  2  0  0  0
  6  7  1  0  0  0
  6  8  1  0  0  0
  8  9  2  0  0  0
  9 10  1  0  0  0
 10 11  2  0  0  0
 36 31  1  0  0  0
 11  1  1  0  0  0
 17 12  1  0  0  0
 28 20  1  0  0  0
 10  4  1  0  0  0
 28 23  1  0  0  0
 16 19  1  0  0  0
 22 29  1  0  0  0
M  END
> <minimizedAffinity>
-4.16931

> <CNNscore>
0.4498584569

> <CNNaffinity>
7.0381722450

> <CNN_VS>
3.1661813259

> <CNNaffinity_variance>
0.3994568884

$$$$
[H]c1c(F)c([H])c2c(C3=C(c4c([H])n([H])c5c([H])c([H])c([H])c([H])c45)C(=O)N([H])C3=O)nc(N3C([H])([H])C([H])([H])N(C([H])([H])[H])C([H])([H])C3([H])[H])nc2c1[H]


 36 41  0  0  0  0  0  0  0  0999 V2000
   55.2121   -6.4597   -5.5935 C   0  0  0  0  0  0  0  0  0  0  0  0
   54.0053   -6.8811   -6.0132 N   0  0  0  0  0  0  0  0  0  0  0  0
   53.2691   -6.2368   -6.9563 C   0  0  0  0  0  0  0  0  0  0  0  0
   53.8062   -5.0911   -7.4957 C   0  0  0  0  0  0  0  0  0  0  0  0
   53.1232   -4.3648   -8.4303 C   0  0  0  0  0  0  0  0  0  0  0  0
   53.6646   -3.2024   -8.9532 C   0  0  0  0  0  0  0  0  0  0  0  0
   52.9487   -2.5198   -9.8768 F   0  0  0  0  0  0  0  0  0  0  0  0
   54.9007   -2.7704   -8.5291 C   0  0  0  0  0  0  0  0  0  0  0  0
   55.6124   -3.4767   -7.5885 C   0  0  0  0  0  0  0  0  0  0  0  0
   55.0645   -4.6342   -7.0724 C   0  0  0  0  0  0  0  0  0  0  0  0
   55.7133   -5.3402   -6.1385 N   0  0  0  0  0  0  0  0  0  0  0  0
   51.9674   -6.7646   -7.3514 C   0  0  0  0  0  0  0  0  0  0  0  0
   50.8308   -6.4982   -6.6647 C   0  0  0  0  0  0  0  0  0  0  0  0
   49.7446   -7.1924   -7.3395 C   0  0  0  0  0  0  0  0  0  0  0  0
   48.5212   -7.1724   -6.9862 O   0  0  0  0  0  0  0  0  0  0  0  0
   50.2602   -7.8898   -8.4486 N   0  0  0  0  0  0  0  0  0  0  0  0
   51.6450   -7.6378   -8.4731 C   0  0  0  0  0  0  0  0  0  0  0  0
   52.4128   -8.1285   -9.3544 O   0  0  0  0  0  0  0  0  0  0  0  0
   49.6773   -8.4762   -9.1058 H   0  0  0  0  0  0  0  0  0  0  0  0
   50.7330   -5.6408   -5.4909 C   0  0  0  0  0  0  0  0  0  0  0  0
   50.1661   -4.3754   -5.4991 C   0  0  0  0  0  0  0  0  0  0  0  0
   50.2485   -3.8474   -4.2740 N   0  0  0  0  0  0  0  0  0  0  0  0
   50.8543   -4.7140   -3.4316 C   0  0  0  0  0  0  0  0  0  0  0  0
   51.1701   -4.6292   -2.0952 C   0  0  0  0  0  0  0  0  0  0  0  0
   51.8084   -5.6971   -1.5048 C   0  0  0  0  0  0  0  0  0  0  0  0
   52.1098   -6.8075   -2.2612 C   0  0  0  0  0  0  0  0  0  0  0  0
   51.7912   -6.8886   -3.6017 C   0  0  0  0  0  0  0  0  0  0  0  0
   51.1579   -5.8390   -4.1988 C   0  0  0  0  0  0  0  0  0  0  0  0
   49.9120   -2.9025   -3.9435 H   0  0  0  0  0  0  0  0  0  0  0  0
   57.1509   -6.7904   -1.1540 C   0  0  0  0  0  0  0  0  0  0  0  0
   56.8381   -7.8382   -2.0859 N   0  0  0  0  0  0  0  0  0  0  0  0
   57.7018   -7.9097   -3.2082 C   0  0  0  0  0  0  0  0  0  0  0  0
   57.3106   -6.9679   -4.3544 C   0  0  0  0  0  0  0  0  0  0  0  0
   55.9136   -7.1948   -4.6071 N   0  0  0  0  0  0  0  0  0  0  0  0
   55.2377   -8.1930   -3.8268 C   0  0  0  0  0  0  0  0  0  0  0  0
   55.4470   -7.8063   -2.3805 C   0  0  0  0  0  0  0  0  0  0  0  0
 30 31  1  0  0  0
 31 32  1  0  0  0
 32 33  1  0  0  0
 33 34  1  0  0  0
 34 35  1  0  0  0
 35 36  1  0  0  0
 34  1  1  0  0  0
  1  2  2  0  0  0
  2  3  1  0  0  0
  3 12  1  0  0  0
 12 13  2  0  0  0
 13 14  1  0  0  0
 14 15  2  0  0  0
 14 16  1  0  0  0
 16 17  1  0  0  0
 17 18  2  0  0  0
 13 20  1  0  0  0
 20 21  2  0  0  0
 21 22  1  0  0  0
 22 23  1  0  0  0
 23 24  2  0  0  0
 24 25  1  0  0  0
 25 26  2  0  0  0
 26 27  1  0  0  0
 27 28  2  0  0  0
  3  4  2  0  0  0
  4  5  1  0  0  0
  5  6  2  0  0  0
  6  7  1  0  0  0
  6  8  1  0  0  0
  8  9  2  0  0  0
  9 10  1  0  0  0
 10 11  2  0  0  0
 36 31  1  0  0  0
 11  1  1  0  0  0
 17 12  1  0  0  0
 28 20  1  0  0  0
 10  4  1  0  0  0
 28 23  1  0  0  0
 16 19  1  0  0  0
 22 29  1  0  0  0
M  END
> <minimizedAffinity>
-4.12904

> <CNNscore>
0.4226211905

> <CNNaffinity>
6.8954758644

> <CNN_VS>
2.9141743183

> <CNNaffinity_variance>
0.2817707658

$$$$
[H]c1c(F)c([H])c2c(C3=C(c4c([H])n([H])c5c([H])c([H])c([H])c([H])c45)C(=O)N([H])C3=O)nc(N3C([H])([H])C([H])([H])N(C([H])([H])[H])C([H])([H])C3([H])[H])nc2c1[H]


 36 41  0  0  0  0  0  0  0  0999 V2000
   60.4519   -7.3655   -6.0427 C   0  0  0  0  0  0  0  0  0  0  0  0
   61.4214   -7.5774   -6.9511 N   0  0  0  0  0  0  0  0  0  0  0  0
   61.3590   -7.1371   -8.2351 C   0  0  0  0  0  0  0  0  0  0  0  0
   60.2317   -6.4411   -8.6048 C   0  0  0  0  0  0  0  0  0  0  0  0
   60.0727   -5.9848   -9.8831 C   0  0  0  0  0  0  0  0  0  0  0  0
   58.9254   -5.3017  -10.2501 C   0  0  0  0  0  0  0  0  0  0  0  0
   58.8166   -4.8697  -11.5280 F   0  0  0  0  0  0  0  0  0  0  0  0
   57.9332   -5.0796   -9.3223 C   0  0  0  0  0  0  0  0  0  0  0  0
   58.0612   -5.5277   -8.0289 C   0  0  0  0  0  0  0  0  0  0  0  0
   59.2083   -6.2083   -7.6723 C   0  0  0  0  0  0  0  0  0  0  0  0
   59.3641   -6.6813   -6.4298 N   0  0  0  0  0  0  0  0  0  0  0  0
   62.4576   -7.4135   -9.1549 C   0  0  0  0  0  0  0  0  0  0  0  0
   63.7020   -6.9079   -8.9814 C   0  0  0  0  0  0  0  0  0  0  0  0
   64.5209   -7.3851  -10.0854 C   0  0  0  0  0  0  0  0  0  0  0  0
   65.7548   -7.1219  -10.2590 O   0  0  0  0  0  0  0  0  0  0  0  0
   63.7327   -8.1873  -10.9324 N   0  0  0  0  0  0  0  0  0  0  0  0
   62.4420   -8.2167  -10.3713 C   0  0  0  0  0  0  0  0  0  0  0  0
   61.4823   -8.8551  -10.8990 O   0  0  0  0  0  0  0  0  0  0  0  0
   64.0893   -8.6551  -11.8097 H   0  0  0  0  0  0  0  0  0  0  0  0
   64.1278   -6.0728   -7.8661 C   0  0  0  0  0  0  0  0  0  0  0  0
   64.0798   -4.6871   -7.8715 C   0  0  0  0  0  0  0  0  0  0  0  0
   64.5561   -4.2248   -6.7114 N   0  0  0  0  0  0  0  0  0  0  0  0
   64.9274   -5.2530   -5.9160 C   0  0  0  0  0  0  0  0  0  0  0  0
   65.4705   -5.2889   -4.6525 C   0  0  0  0  0  0  0  0  0  0  0  0
   65.7545   -6.5167   -4.0971 C   0  0  0  0  0  0  0  0  0  0  0  0
   65.4900   -7.6615   -4.8152 C   0  0  0  0  0  0  0  0  0  0  0  0
   64.9451   -7.6210   -6.0827 C   0  0  0  0  0  0  0  0  0  0  0  0
   64.6578   -6.4121   -6.6442 C   0  0  0  0  0  0  0  0  0  0  0  0
   64.6558   -3.2217   -6.3969 H   0  0  0  0  0  0  0  0  0  0  0  0
   60.1620  -10.9948   -2.8300 C   0  0  0  0  0  0  0  0  0  0  0  0
   60.8537   -9.7404   -2.7191 N   0  0  0  0  0  0  0  0  0  0  0  0
   60.0112   -8.6133   -2.5441 C   0  0  0  0  0  0  0  0  0  0  0  0
   59.4667   -8.0348   -3.8566 C   0  0  0  0  0  0  0  0  0  0  0  0
   60.6002   -7.8575   -4.7230 N   0  0  0  0  0  0  0  0  0  0  0  0
   61.9000   -8.1964   -4.2155 C   0  0  0  0  0  0  0  0  0  0  0  0
   61.8113   -9.6369   -3.7656 C   0  0  0  0  0  0  0  0  0  0  0  0
 30 31  1  0  0  0
 31 32  1  0  0  0
 32 33  1  0  0  0
 33 34  1  0  0  0
 34 35  1  0  0  0
 35 36  1  0  0  0
 34  1  1  0  0  0
  1  2  2  0  0  0
  2  3  1  0  0  0
  3 12  1  0  0  0
 12 13  2  0  0  0
 13 14  1  0  0  0
 14 15  2  0  0  0
 14 16  1  0  0  0
 16 17  1  0  0  0
 17 18  2  0  0  0
 13 20  1  0  0  0
 20 21  2  0  0  0
 21 22  1  0  0  0
 22 23  1  0  0  0
 23 24  2  0  0  0
 24 25  1  0  0  0
 25 26  2  0  0  0
 26 27  1  0  0  0
 27 28  2  0  0  0
  3  4  2  0  0  0
  4  5  1  0  0  0
  5  6  2  0  0  0
  6  7  1  0  0  0
  6  8  1  0  0  0
  8  9  2  0  0  0
  9 10  1  0  0  0
 10 11  2  0  0  0
 36 31  1  0  0  0
 11  1  1  0  0  0
 17 12  1  0  0  0
 28 20  1  0  0  0
 10  4  1  0  0  0
 28 23  1  0  0  0
 16 19  1  0  0  0
 22 29  1  0  0  0
M  END
> <minimizedAffinity>
-0.46874

> <CNNscore>
0.4084137082

> <CNNaffinity>
5.4612340927

> <CNN_VS>
2.2304427624

> <CNNaffinity_variance>
0.1891301125

$$$$
[H]c1c([H])c(Cl)c(-c2c([H])c3c([H])nc(N([H])c4c([H])c([H])c(N5C([H])([H])C([H])([H])N(C([H])([H])[H])C([H])([H])C5([H])[H])c([H])c4OC([H])([H])[H])nc3n(C([H])([H])[H])c2=O)c(Cl)c1[H]


 37 41  0  0  0  0  0  0  0  0999 V2000
   58.6503   -5.4294   -8.9923 C   0  0  0  0  0  0  0  0  0  0  0  0
   58.3488   -5.5769   -7.7088 N   0  0  0  0  0  0  0  0  0  0  0  0
   57.1458   -5.3446   -7.1631 C   0  0  0  0  0  0  0  0  0  0  0  0
   56.0992   -4.9101   -7.9826 C   0  0  0  0  0  0  0  0  0  0  0  0
   54.8598   -4.6588   -7.4604 C   0  0  0  0  0  0  0  0  0  0  0  0
   53.8553   -4.2280   -8.2992 C   0  0  0  0  0  0  0  0  0  0  0  0
   54.1550   -4.0713   -9.6362 C   0  0  0  0  0  0  0  0  0  0  0  0
   53.2114   -3.6712  -10.4019 O   0  0  0  0  0  0  0  0  0  0  0  0
   55.3750   -4.3270  -10.1040 N   0  0  0  0  0  0  0  0  0  0  0  0
   55.6284   -4.1467  -11.5141 C   0  0  0  0  0  0  0  0  0  0  0  0
   56.3854   -4.7520   -9.3025 C   0  0  0  0  0  0  0  0  0  0  0  0
   57.6049   -5.0016   -9.7795 N   0  0  0  0  0  0  0  0  0  0  0  0
   52.5103   -3.9320   -7.8309 C   0  0  0  0  0  0  0  0  0  0  0  0
   51.9167   -2.6944   -7.9202 C   0  0  0  0  0  0  0  0  0  0  0  0
   52.8348   -1.3899   -8.6400 Cl  0  0  0  0  0  0  0  0  0  0  0  0
   50.6143   -2.4799   -7.4483 C   0  0  0  0  0  0  0  0  0  0  0  0
   49.8970   -3.5118   -6.8822 C   0  0  0  0  0  0  0  0  0  0  0  0
   50.4967   -4.7464   -6.7962 C   0  0  0  0  0  0  0  0  0  0  0  0
   51.7842   -4.9537   -7.2635 C   0  0  0  0  0  0  0  0  0  0  0  0
   52.4841   -6.5453   -7.1235 Cl  0  0  0  0  0  0  0  0  0  0  0  0
   59.9108   -5.6569   -9.6044 N   0  0  0  0  0  0  0  0  0  0  0  0
   60.1230   -5.0374  -10.4664 H   0  0  0  0  0  0  0  0  0  0  0  0
   61.8568   -6.8761  -10.2233 C   0  0  0  0  0  0  0  0  0  0  0  0
   62.8561   -7.7675   -9.9399 C   0  0  0  0  0  0  0  0  0  0  0  0
   62.9587   -8.3819   -8.7129 C   0  0  0  0  0  0  0  0  0  0  0  0
   62.0275   -8.0922   -7.7392 C   0  0  0  0  0  0  0  0  0  0  0  0
   61.0150   -7.1920   -8.0206 C   0  0  0  0  0  0  0  0  0  0  0  0
   60.9069   -6.5759   -9.2402 C   0  0  0  0  0  0  0  0  0  0  0  0
   64.0262   -9.3056   -8.4488 N   0  0  0  0  0  0  0  0  0  0  0  0
   64.6695   -9.2379   -7.1768 C   0  0  0  0  0  0  0  0  0  0  0  0
   65.7549  -10.2297   -6.9509 C   0  0  0  0  0  0  0  0  0  0  0  0
   65.6939  -11.3841   -7.7902 N   0  0  0  0  0  0  0  0  0  0  0  0
   64.5992  -12.2676   -7.4989 C   0  0  0  0  0  0  0  0  0  0  0  0
   65.7110  -10.9570   -9.1734 C   0  0  0  0  0  0  0  0  0  0  0  0
   64.4146  -10.2602   -9.4559 C   0  0  0  0  0  0  0  0  0  0  0  0
   62.8163   -6.4715  -12.4385 C   0  0  0  0  0  0  0  0  0  0  0  0
   61.7990   -6.2806  -11.4847 O   0  0  0  0  0  0  0  0  0  0  0  0
 36 37  1  0  0  0
 37 23  1  0  0  0
 23 24  2  0  0  0
 24 25  1  0  0  0
 25 26  2  0  0  0
 26 27  1  0  0  0
 27 28  2  0  0  0
 28 21  1  0  0  0
 21  1  1  0  0  0
  1  2  2  0  0  0
  2  3  1  0  0  0
  3  4  2  0  0  0
  4  5  1  0  0  0
  5  6  2  0  0  0
  6 13  1  0  0  0
 13 14  2  0  0  0
 14 15  1  0  0  0
 14 16  1  0  0  0
 16 17  2  0  0  0
 17 18  1  0  0  0
 18 19  2  0  0  0
 19 20  1  0  0  0
  6  7  1  0  0  0
  7  8  2  0  0  0
  7  9  1  0  0  0
  9 10  1  0  0  0
  9 11  1  0  0  0
 11 12  2  0  0  0
 25 29  1  0  0  0
 29 30  1  0  0  0
 30 31  1  0  0  0
 31 32  1  0  0  0
 32 33  1  0  0  0
 32 34  1  0  0  0
 34 35  1  0  0  0
 28 23  1  0  0  0
 12  1  1  0  0  0
 35 29  1  0  0  0
 11  4  1  0  0  0
 19 13  1  0  0  0
 21 22  1  0  0  0
M  END
> <minimizedAffinity>
-8.15453

> <CNNscore>
0.3952833116

> <CNNaffinity>
6.7562017441

> <CNN_VS>
2.6706137657

> <CNNaffinity_variance>
0.1609955132

$$$$
[H]c1c([H])c(Cl)c(-c2c([H])c3c([H])nc(N([H])c4c([H])c([H])c(N5C([H])([H])C([H])([H])N(C([H])([H])[H])C([H])([H])C5([H])[H])c([H])c4OC([H])([H])[H])nc3n(C([H])([H])[H])c2=O)c(Cl)c1[H]


 37 41  0  0  0  0  0  0  0  0999 V2000
   54.9277   -3.8072   -9.6658 C   0  0  0  0  0  0  0  0  0  0  0  0
   54.3297   -2.6264   -9.5768 N   0  0  0  0  0  0  0  0  0  0  0  0
   53.2781   -2.3468   -8.7926 C   0  0  0  0  0  0  0  0  0  0  0  0
   52.7407   -3.3573   -7.9889 C   0  0  0  0  0  0  0  0  0  0  0  0
   51.6655   -3.1101   -7.1797 C   0  0  0  0  0  0  0  0  0  0  0  0
   51.1618   -4.1326   -6.4057 C   0  0  0  0  0  0  0  0  0  0  0  0
   51.7748   -5.3651   -6.4879 C   0  0  0  0  0  0  0  0  0  0  0  0
   51.2956   -6.3038   -5.7626 O   0  0  0  0  0  0  0  0  0  0  0  0
   52.8198   -5.5637   -7.2887 N   0  0  0  0  0  0  0  0  0  0  0  0
   53.4214   -6.8757   -7.3307 C   0  0  0  0  0  0  0  0  0  0  0  0
   53.3382   -4.5764   -8.0637 C   0  0  0  0  0  0  0  0  0  0  0  0
   54.3822   -4.7860   -8.8656 N   0  0  0  0  0  0  0  0  0  0  0  0
   50.0196   -3.9621   -5.5211 C   0  0  0  0  0  0  0  0  0  0  0  0
   49.9432   -4.4826   -4.2502 C   0  0  0  0  0  0  0  0  0  0  0  0
   51.3027   -5.4112   -3.6566 Cl  0  0  0  0  0  0  0  0  0  0  0  0
   48.8101   -4.2782   -3.4507 C   0  0  0  0  0  0  0  0  0  0  0  0
   47.7427   -3.5461   -3.9246 C   0  0  0  0  0  0  0  0  0  0  0  0
   47.8262   -3.0286   -5.1961 C   0  0  0  0  0  0  0  0  0  0  0  0
   48.9478   -3.2335   -5.9829 C   0  0  0  0  0  0  0  0  0  0  0  0
   48.9875   -2.5482   -7.5864 Cl  0  0  0  0  0  0  0  0  0  0  0  0
   56.0350   -4.1433  -10.4881 N   0  0  0  0  0  0  0  0  0  0  0  0
   55.9094   -3.9266  -11.5413 H   0  0  0  0  0  0  0  0  0  0  0  0
   58.1755   -4.9423  -11.1486 C   0  0  0  0  0  0  0  0  0  0  0  0
   59.3897   -5.5037  -10.8587 C   0  0  0  0  0  0  0  0  0  0  0  0
   59.7421   -5.8568   -9.5763 C   0  0  0  0  0  0  0  0  0  0  0  0
   58.8460   -5.6397   -8.5519 C   0  0  0  0  0  0  0  0  0  0  0  0
   57.6170   -5.0728   -8.8397 C   0  0  0  0  0  0  0  0  0  0  0  0
   57.2595   -4.7181  -10.1145 C   0  0  0  0  0  0  0  0  0  0  0  0
   61.0288   -6.4359   -9.3086 N   0  0  0  0  0  0  0  0  0  0  0  0
   61.2982   -6.8811   -7.9798 C   0  0  0  0  0  0  0  0  0  0  0  0
   62.6386   -7.4890   -7.7642 C   0  0  0  0  0  0  0  0  0  0  0  0
   63.2704   -7.9787   -8.9481 N   0  0  0  0  0  0  0  0  0  0  0  0
   62.6479   -9.1455   -9.5090 C   0  0  0  0  0  0  0  0  0  0  0  0
   63.3803   -6.8944   -9.9011 C   0  0  0  0  0  0  0  0  0  0  0  0
   61.9983   -6.5507  -10.3683 C   0  0  0  0  0  0  0  0  0  0  0  0
   58.7310   -3.8065  -13.2445 C   0  0  0  0  0  0  0  0  0  0  0  0
   57.8685   -4.6022  -12.4674 O   0  0  0  0  0  0  0  0  0  0  0  0
 36 37  1  0  0  0
 37 23  1  0  0  0
 23 24  2  0  0  0
 24 25  1  0  0  0
 25 26  2  0  0  0
 26 27  1  0  0  0
 27 28  2  0  0  0
 28 21  1  0  0  0
 21  1  1  0  0  0
  1  2  2  0  0  0
  2  3  1  0  0  0
  3  4  2  0  0  0
  4  5  1  0  0  0
  5  6  2  0  0  0
  6 13  1  0  0  0
 13 14  2  0  0  0
 14 15  1  0  0  0
 14 16  1  0  0  0
 16 17  2  0  0  0
 17 18  1  0  0  0
 18 19  2  0  0  0
 19 20  1  0  0  0
  6  7  1  0  0  0
  7  8  2  0  0  0
  7  9  1  0  0  0
  9 10  1  0  0  0
  9 11  1  0  0  0
 11 12  2  0  0  0
 25 29  1  0  0  0
 29 30  1  0  0  0
 30 31  1  0  0  0
 31 32  1  0  0  0
 32 33  1  0  0  0
 32 34  1  0  0  0
 34 35  1  0  0  0
 28 23  1  0  0  0
 12  1  1  0  0  0
 35 29  1  0  0  0
 11  4  1  0  0  0
 19 13  1  0  0  0
 21 22  1  0  0  0
M  END
> <minimizedAffinity>
-8.61206

> <CNNscore>
0.3936211169

> <CNNaffinity>
7.3179082870

> <CNN_VS>
2.8804831505

> <CNNaffinity_variance>
0.1327963620

$$$$
[H]c1c([H])c(Cl)c(-c2c([H])c3c([H])nc(N([H])c4c([H])c([H])c(N5C([H])([H])C([H])([H])N(C([H])([H])[H])C([H])([H])C5([H])[H])c([H])c4OC([H])([H])[H])nc3n(C([H])([H])[H])c2=O)c(Cl)c1[H]


 37 41  0  0  0  0  0  0  0  0999 V2000
   58.8953   -5.5462   -8.9826 C   0  0  0  0  0  0  0  0  0  0  0  0
   58.5552   -5.6901   -7.7083 N   0  0  0  0  0  0  0  0  0  0  0  0
   57.3416   -5.4371   -7.1962 C   0  0  0  0  0  0  0  0  0  0  0  0
   56.3263   -4.9831   -8.0441 C   0  0  0  0  0  0  0  0  0  0  0  0
   55.0773   -4.7106   -7.5564 C   0  0  0  0  0  0  0  0  0  0  0  0
   54.1046   -4.2609   -8.4224 C   0  0  0  0  0  0  0  0  0  0  0  0
   54.4445   -4.1078   -9.7501 C   0  0  0  0  0  0  0  0  0  0  0  0
   53.5300   -3.6900  -10.5413 O   0  0  0  0  0  0  0  0  0  0  0  0
   55.6725   -4.3846  -10.1839 N   0  0  0  0  0  0  0  0  0  0  0  0
   55.9686   -4.2069  -11.5860 C   0  0  0  0  0  0  0  0  0  0  0  0
   56.6522   -4.8284   -9.3551 C   0  0  0  0  0  0  0  0  0  0  0  0
   57.8800   -5.0989   -9.7981 N   0  0  0  0  0  0  0  0  0  0  0  0
   52.7524   -3.9418   -7.9914 C   0  0  0  0  0  0  0  0  0  0  0  0
   51.8610   -4.8662   -7.4985 C   0  0  0  0  0  0  0  0  0  0  0  0
   52.3815   -6.5330   -7.3829 Cl  0  0  0  0  0  0  0  0  0  0  0  0
   50.5713   -4.4879   -7.1002 C   0  0  0  0  0  0  0  0  0  0  0  0
   50.1678   -3.1733   -7.1943 C   0  0  0  0  0  0  0  0  0  0  0  0
   51.0643   -2.2546   -7.6879 C   0  0  0  0  0  0  0  0  0  0  0  0
   52.3377   -2.6330   -8.0807 C   0  0  0  0  0  0  0  0  0  0  0  0
   53.4244   -1.4160   -8.6975 Cl  0  0  0  0  0  0  0  0  0  0  0  0
   60.1682   -5.7952   -9.5594 N   0  0  0  0  0  0  0  0  0  0  0  0
   60.5825   -4.9759  -10.1330 H   0  0  0  0  0  0  0  0  0  0  0  0
   62.2336   -6.8039   -8.9484 C   0  0  0  0  0  0  0  0  0  0  0  0
   63.0539   -7.8950   -8.8481 C   0  0  0  0  0  0  0  0  0  0  0  0
   62.6561   -9.1465   -9.2591 C   0  0  0  0  0  0  0  0  0  0  0  0
   61.3938   -9.3075   -9.7884 C   0  0  0  0  0  0  0  0  0  0  0  0
   60.5606   -8.2076   -9.8924 C   0  0  0  0  0  0  0  0  0  0  0  0
   60.9500   -6.9582   -9.4846 C   0  0  0  0  0  0  0  0  0  0  0  0
   63.5412  -10.2701   -9.1303 N   0  0  0  0  0  0  0  0  0  0  0  0
   63.6119  -10.9237   -7.8637 C   0  0  0  0  0  0  0  0  0  0  0  0
   64.5301  -12.0919   -7.7928 C   0  0  0  0  0  0  0  0  0  0  0  0
   64.8356  -12.6895   -9.0538 N   0  0  0  0  0  0  0  0  0  0  0  0
   63.7330  -13.3824   -9.6604 C   0  0  0  0  0  0  0  0  0  0  0  0
   65.4046  -11.6810   -9.9228 C   0  0  0  0  0  0  0  0  0  0  0  0
   64.3217  -10.7019  -10.2619 C   0  0  0  0  0  0  0  0  0  0  0  0
   63.9295   -5.4047   -7.8726 C   0  0  0  0  0  0  0  0  0  0  0  0
   62.6869   -5.5562   -8.5161 O   0  0  0  0  0  0  0  0  0  0  0  0
 36 37  1  0  0  0
 37 23  1  0  0  0
 23 24  2  0  0  0
 24 25  1  0  0  0
 25 26  2  0  0  0
 26 27  1  0  0  0
 27 28  2  0  0  0
 28 21  1  0  0  0
 21  1  1  0  0  0
  1  2  2  0  0  0
  2  3  1  0  0  0
  3  4  2  0  0  0
  4  5  1  0  0  0
  5  6  2  0  0  0
  6 13  1  0  0  0
 13 14  2  0  0  0
 14 15  1  0  0  0
 14 16  1  0  0  0
 16 17  2  0  0  0
 17 18  1  0  0  0
 18 19  2  0  0  0
 19 20  1  0  0  0
  6  7  1  0  0  0
  7  8  2  0  0  0
  7  9  1  0  0  0
  9 10  1  0  0  0
  9 11  1  0  0  0
 11 12  2  0  0  0
 25 29  1  0  0  0
 29 30  1  0  0  0
 30 31  1  0  0  0
 31 32  1  0  0  0
 32 33  1  0  0  0
 32 34  1  0  0  0
 34 35  1  0  0  0
 28 23  1  0  0  0
 12  1  1  0  0  0
 35 29  1  0  0  0
 11  4  1  0  0  0
 19 13  1  0  0  0
 21 22  1  0  0  0
M  END
> <minimizedAffinity>
-7.73069

> <CNNscore>
0.3812401891

> <CNNaffinity>
6.6424713135

> <CNN_VS>
2.5323770046

> <CNNaffinity_variance>
0.1342419982

$$$$
[H]c1c([H])c(Cl)c(-c2c([H])c3c([H])nc(N([H])c4c([H])c([H])c(N5C([H])([H])C([H])([H])N(C([H])([H])[H])C([H])([H])C5([H])[H])c([H])c4OC([H])([H])[H])nc3n(C([H])([H])[H])c2=O)c(Cl)c1[H]


 37 41  0  0  0  0  0  0  0  0999 V2000
   58.3594   -5.1046  -10.4443 C   0  0  0  0  0  0  0  0  0  0  0  0
   57.4968   -4.6523  -11.3450 N   0  0  0  0  0  0  0  0  0  0  0  0
   56.2144   -4.3421  -11.1034 C   0  0  0  0  0  0  0  0  0  0  0  0
   55.7097   -4.4950   -9.8081 C   0  0  0  0  0  0  0  0  0  0  0  0
   54.4056   -4.1929   -9.5253 C   0  0  0  0  0  0  0  0  0  0  0  0
   53.9441   -4.3608   -8.2380 C   0  0  0  0  0  0  0  0  0  0  0  0
   54.8308   -4.8295   -7.2915 C   0  0  0  0  0  0  0  0  0  0  0  0
   54.3869   -4.9795   -6.1010 O   0  0  0  0  0  0  0  0  0  0  0  0
   56.0927   -5.1117   -7.6086 N   0  0  0  0  0  0  0  0  0  0  0  0
   56.9754   -5.5972   -6.5741 C   0  0  0  0  0  0  0  0  0  0  0  0
   56.5765   -4.9573   -8.8680 C   0  0  0  0  0  0  0  0  0  0  0  0
   57.8406   -5.2466   -9.1768 N   0  0  0  0  0  0  0  0  0  0  0  0
   52.5731   -4.0702   -7.8482 C   0  0  0  0  0  0  0  0  0  0  0  0
   51.7000   -5.0047   -7.3418 C   0  0  0  0  0  0  0  0  0  0  0  0
   52.2696   -6.6489   -7.1550 Cl  0  0  0  0  0  0  0  0  0  0  0  0
   50.3904   -4.6542   -6.9853 C   0  0  0  0  0  0  0  0  0  0  0  0
   49.9482   -3.3573   -7.1354 C   0  0  0  0  0  0  0  0  0  0  0  0
   50.8266   -2.4283   -7.6422 C   0  0  0  0  0  0  0  0  0  0  0  0
   52.1198   -2.7793   -7.9935 C   0  0  0  0  0  0  0  0  0  0  0  0
   53.1817   -1.5506   -8.6300 Cl  0  0  0  0  0  0  0  0  0  0  0  0
   59.7187   -5.4507  -10.6630 N   0  0  0  0  0  0  0  0  0  0  0  0
   60.1333   -5.1174  -11.6058 H   0  0  0  0  0  0  0  0  0  0  0  0
   61.7392   -6.6822  -10.4230 C   0  0  0  0  0  0  0  0  0  0  0  0
   62.6287   -7.3943   -9.6645 C   0  0  0  0  0  0  0  0  0  0  0  0
   62.4251   -7.6207   -8.3226 C   0  0  0  0  0  0  0  0  0  0  0  0
   61.2913   -7.1162   -7.7230 C   0  0  0  0  0  0  0  0  0  0  0  0
   60.3887   -6.3959   -8.4854 C   0  0  0  0  0  0  0  0  0  0  0  0
   60.5852   -6.1661   -9.8223 C   0  0  0  0  0  0  0  0  0  0  0  0
   63.3849   -8.3653   -7.5566 N   0  0  0  0  0  0  0  0  0  0  0  0
   63.0078   -8.7958   -6.2493 C   0  0  0  0  0  0  0  0  0  0  0  0
   64.0334   -9.5784   -5.5088 C   0  0  0  0  0  0  0  0  0  0  0  0
   65.0248  -10.1947   -6.3323 N   0  0  0  0  0  0  0  0  0  0  0  0
   64.5336  -11.2816   -7.1329 C   0  0  0  0  0  0  0  0  0  0  0  0
   65.6766   -9.1719   -7.1227 C   0  0  0  0  0  0  0  0  0  0  0  0
   64.6810   -8.6539   -8.1160 C   0  0  0  0  0  0  0  0  0  0  0  0
   63.2943   -6.2307  -12.2585 C   0  0  0  0  0  0  0  0  0  0  0  0
   61.9943   -6.4812  -11.7808 O   0  0  0  0  0  0  0  0  0  0  0  0
 36 37  1  0  0  0
 37 23  1  0  0  0
 23 24  2  0  0  0
 24 25  1  0  0  0
 25 26  2  0  0  0
 26 27  1  0  0  0
 27 28  2  0  0  0
 28 21  1  0  0  0
 21  1  1  0  0  0
  1  2  2  0  0  0
  2  3  1  0  0  0
  3  4  2  0  0  0
  4  5  1  0  0  0
  5  6  2  0  0  0
  6 13  1  0  0  0
 13 14  2  0  0  0
 14 15  1  0  0  0
 14 16  1  0  0  0
 16 17  2  0  0  0
 17 18  1  0  0  0
 18 19  2  0  0  0
 19 20  1  0  0  0
  6  7  1  0  0  0
  7  8  2  0  0  0
  7  9  1  0  0  0
  9 10  1  0  0  0
  9 11  1  0  0  0
 11 12  2  0  0  0
 25 29  1  0  0  0
 29 30  1  0  0  0
 30 31  1  0  0  0
 31 32  1  0  0  0
 32 33  1  0  0  0
 32 34  1  0  0  0
 34 35  1  0  0  0
 28 23  1  0  0  0
 12  1  1  0  0  0
 35 29  1  0  0  0
 11  4  1  0  0  0
 19 13  1  0  0  0
 21 22  1  0  0  0
M  END
> <minimizedAffinity>
-8.04184

> <CNNscore>
0.2861815393

> <CNNaffinity>
6.5966591835

> <CNN_VS>
1.8878420591

> <CNNaffinity_variance>
0.1624957919

$$$$
[H]c1c([H])c(Cl)c(-c2c([H])c3c([H])nc(N([H])c4c([H])c([H])c(N5C([H])([H])C([H])([H])N(C([H])([H])[H])C([H])([H])C5([H])[H])c([H])c4OC([H])([H])[H])nc3n(C([H])([H])[H])c2=O)c(Cl)c1[H]


 37 41  0  0  0  0  0  0  0  0999 V2000
   55.9000   -4.0931  -10.6824 C   0  0  0  0  0  0  0  0  0  0  0  0
   56.6847   -4.9030   -9.9838 N   0  0  0  0  0  0  0  0  0  0  0  0
   56.4058   -5.3942   -8.7673 C   0  0  0  0  0  0  0  0  0  0  0  0
   55.1983   -5.0464   -8.1533 C   0  0  0  0  0  0  0  0  0  0  0  0
   54.8819   -5.5247   -6.9111 C   0  0  0  0  0  0  0  0  0  0  0  0
   53.6848   -5.1559   -6.3374 C   0  0  0  0  0  0  0  0  0  0  0  0
   52.8590   -4.3150   -7.0534 C   0  0  0  0  0  0  0  0  0  0  0  0
   51.7509   -3.9823   -6.5071 O   0  0  0  0  0  0  0  0  0  0  0  0
   53.2049   -3.8719   -8.2603 N   0  0  0  0  0  0  0  0  0  0  0  0
   52.2978   -2.9953   -8.9631 C   0  0  0  0  0  0  0  0  0  0  0  0
   54.3777   -4.2170   -8.8515 C   0  0  0  0  0  0  0  0  0  0  0  0
   54.7171   -3.7649  -10.0587 N   0  0  0  0  0  0  0  0  0  0  0  0
   53.2689   -5.6115   -5.0200 C   0  0  0  0  0  0  0  0  0  0  0  0
   52.0791   -6.2529   -4.7651 C   0  0  0  0  0  0  0  0  0  0  0  0
   50.9929   -6.5390   -6.1071 Cl  0  0  0  0  0  0  0  0  0  0  0  0
   51.7422   -6.6661   -3.4687 C   0  0  0  0  0  0  0  0  0  0  0  0
   52.6022   -6.4373   -2.4162 C   0  0  0  0  0  0  0  0  0  0  0  0
   53.7901   -5.7956   -2.6784 C   0  0  0  0  0  0  0  0  0  0  0  0
   54.1187   -5.3886   -3.9611 C   0  0  0  0  0  0  0  0  0  0  0  0
   55.6420   -4.5803   -4.2231 Cl  0  0  0  0  0  0  0  0  0  0  0  0
   56.1635   -3.5471  -11.9660 N   0  0  0  0  0  0  0  0  0  0  0  0
   55.3236   -3.0540  -12.4385 H   0  0  0  0  0  0  0  0  0  0  0  0
   57.2362   -3.5048  -14.0883 C   0  0  0  0  0  0  0  0  0  0  0  0
   58.3633   -3.5237  -14.8648 C   0  0  0  0  0  0  0  0  0  0  0  0
   59.6238   -3.6020  -14.3186 C   0  0  0  0  0  0  0  0  0  0  0  0
   59.7569   -3.6639  -12.9482 C   0  0  0  0  0  0  0  0  0  0  0  0
   58.6207   -3.6455  -12.1586 C   0  0  0  0  0  0  0  0  0  0  0  0
   57.3621   -3.5672  -12.6958 C   0  0  0  0  0  0  0  0  0  0  0  0
   60.7842   -3.6107  -15.1647 N   0  0  0  0  0  0  0  0  0  0  0  0
   62.0255   -4.0213  -14.5928 C   0  0  0  0  0  0  0  0  0  0  0  0
   63.1894   -4.0289  -15.5190 C   0  0  0  0  0  0  0  0  0  0  0  0
   62.8502   -4.0989  -16.9048 N   0  0  0  0  0  0  0  0  0  0  0  0
   62.3041   -5.3628  -17.3151 C   0  0  0  0  0  0  0  0  0  0  0  0
   61.9826   -2.9864  -17.2298 C   0  0  0  0  0  0  0  0  0  0  0  0
   60.6689   -3.2120  -16.5445 C   0  0  0  0  0  0  0  0  0  0  0  0
   55.8385   -3.3678  -16.0930 C   0  0  0  0  0  0  0  0  0  0  0  0
   55.9809   -3.4240  -14.6939 O   0  0  0  0  0  0  0  0  0  0  0  0
 36 37  1  0  0  0
 37 23  1  0  0  0
 23 24  2  0  0  0
 24 25  1  0  0  0
 25 26  2  0  0  0
 26 27  1  0  0  0
 27 28  2  0  0  0
 28 21  1  0  0  0
 21  1  1  0  0  0
  1  2  2  0  0  0
  2  3  1  0  0  0
  3  4  2  0  0  0
  4  5  1  0  0  0
  5  6  2  0  0  0
  6 13  1  0  0  0
 13 14  2  0  0  0
 14 15  1  0  0  0
 14 16  1  0  0  0
 16 17  2  0  0  0
 17 18  1  0  0  0
 18 19  2  0  0  0
 19 20  1  0  0  0
  6  7  1  0  0  0
  7  8  2  0  0  0
  7  9  1  0  0  0
  9 10  1  0  0  0
  9 11  1  0  0  0
 11 12  2  0  0  0
 25 29  1  0  0  0
 29 30  1  0  0  0
 30 31  1  0  0  0
 31 32  1  0  0  0
 32 33  1  0  0  0
 32 34  1  0  0  0
 34 35  1  0  0  0
 28 23  1  0  0  0
 12  1  1  0  0  0
 35 29  1  0  0  0
 11  4  1  0  0  0
 19 13  1  0  0  0
 21 22  1  0  0  0
M  END
> <minimizedAffinity>
-8.11195

> <CNNscore>
0.2458984852

> <CNNaffinity>
6.9590353966

> <CNN_VS>
1.7112162113

> <CNNaffinity_variance>
0.1725545228

$$$$
[H]c1c([H])c(Cl)c(-c2c([H])c3c([H])nc(N([H])c4c([H])c([H])c(N5C([H])([H])C([H])([H])N(C([H])([H])[H])C([H])([H])C5([H])[H])c([H])c4OC([H])([H])[H])nc3n(C([H])([H])[H])c2=O)c(Cl)c1[H]


 37 41  0  0  0  0  0  0  0  0999 V2000
   55.9378   -4.0996  -10.7121 C   0  0  0  0  0  0  0  0  0  0  0  0
   56.7285   -4.9042  -10.0139 N   0  0  0  0  0  0  0  0  0  0  0  0
   56.4596   -5.3866   -8.7916 C   0  0  0  0  0  0  0  0  0  0  0  0
   55.2571   -5.0347   -8.1705 C   0  0  0  0  0  0  0  0  0  0  0  0
   54.9509   -5.5040   -6.9223 C   0  0  0  0  0  0  0  0  0  0  0  0
   53.7583   -5.1315   -6.3415 C   0  0  0  0  0  0  0  0  0  0  0  0
   52.9264   -4.2961   -7.0569 C   0  0  0  0  0  0  0  0  0  0  0  0
   51.8227   -3.9599   -6.5041 O   0  0  0  0  0  0  0  0  0  0  0  0
   53.2623   -3.8617   -8.2698 N   0  0  0  0  0  0  0  0  0  0  0  0
   52.3492   -2.9906   -8.9716 C   0  0  0  0  0  0  0  0  0  0  0  0
   54.4304   -4.2107   -8.8680 C   0  0  0  0  0  0  0  0  0  0  0  0
   54.7599   -3.7673  -10.0812 N   0  0  0  0  0  0  0  0  0  0  0  0
   53.3534   -5.5776   -5.0175 C   0  0  0  0  0  0  0  0  0  0  0  0
   54.0970   -5.3836   -3.8767 C   0  0  0  0  0  0  0  0  0  0  0  0
   55.6287   -4.5499   -4.0230 Cl  0  0  0  0  0  0  0  0  0  0  0  0
   53.6447   -5.8401   -2.6309 C   0  0  0  0  0  0  0  0  0  0  0  0
   52.4374   -6.4963   -2.5229 C   0  0  0  0  0  0  0  0  0  0  0  0
   51.6992   -6.6866   -3.6676 C   0  0  0  0  0  0  0  0  0  0  0  0
   52.1503   -6.2341   -4.8967 C   0  0  0  0  0  0  0  0  0  0  0  0
   51.1633   -6.5088   -6.3084 Cl  0  0  0  0  0  0  0  0  0  0  0  0
   56.1907   -3.5630  -12.0017 N   0  0  0  0  0  0  0  0  0  0  0  0
   55.3396   -3.0976  -12.4823 H   0  0  0  0  0  0  0  0  0  0  0  0
   57.2683   -3.4919  -14.1207 C   0  0  0  0  0  0  0  0  0  0  0  0
   58.3976   -3.4895  -14.8942 C   0  0  0  0  0  0  0  0  0  0  0  0
   59.6577   -3.5529  -14.3449 C   0  0  0  0  0  0  0  0  0  0  0  0
   59.7880   -3.6213  -12.9746 C   0  0  0  0  0  0  0  0  0  0  0  0
   58.6495   -3.6244  -12.1881 C   0  0  0  0  0  0  0  0  0  0  0  0
   57.3913   -3.5610  -12.7282 C   0  0  0  0  0  0  0  0  0  0  0  0
   60.8204   -3.5395  -15.1879 N   0  0  0  0  0  0  0  0  0  0  0  0
   62.1012   -3.5936  -14.5610 C   0  0  0  0  0  0  0  0  0  0  0  0
   63.2690   -3.5956  -15.4824 C   0  0  0  0  0  0  0  0  0  0  0  0
   62.9781   -4.0200  -16.8150 N   0  0  0  0  0  0  0  0  0  0  0  0
   62.6705   -5.4181  -16.9347 C   0  0  0  0  0  0  0  0  0  0  0  0
   61.9371   -3.1729  -17.3579 C   0  0  0  0  0  0  0  0  0  0  0  0
   60.6680   -3.4728  -16.6191 C   0  0  0  0  0  0  0  0  0  0  0  0
   55.8736   -3.3778  -16.1290 C   0  0  0  0  0  0  0  0  0  0  0  0
   56.0136   -3.4256  -14.7293 O   0  0  0  0  0  0  0  0  0  0  0  0
 36 37  1  0  0  0
 37 23  1  0  0  0
 23 24  2  0  0  0
 24 25  1  0  0  0
 25 26  2  0  0  0
 26 27  1  0  0  0
 27 28  2  0  0  0
 28 21  1  0  0  0
 21  1  1  0  0  0
  1  2  2  0  0  0
  2  3  1  0  0  0
  3  4  2  0  0  0
  4  5  1  0  0  0
  5  6  2  0  0  0
  6 13  1  0  0  0
 13 14  2  0  0  0
 14 15  1  0  0  0
 14 16  1  0  0  0
 16 17  2  0  0  0
 17 18  1  0  0  0
 18 19  2  0  0  0
 19 20  1  0  0  0
  6  7  1  0  0  0
  7  8  2  0  0  0
  7  9  1  0  0  0
  9 10  1  0  0  0
  9 11  1  0  0  0
 11 12  2  0  0  0
 25 29  1  0  0  0
 29 30  1  0  0  0
 30 31  1  0  0  0
 31 32  1  0  0  0
 32 33  1  0  0  0
 32 34  1  0  0  0
 34 35  1  0  0  0
 28 23  1  0  0  0
 12  1  1  0  0  0
 35 29  1  0  0  0
 11  4  1  0  0  0
 19 13  1  0  0  0
 21 22  1  0  0  0
M  END
> <minimizedAffinity>
-8.05140

> <CNNscore>
0.2423607558

> <CNNaffinity>
6.9456100464

> <CNN_VS>
1.6833432913

> <CNNaffinity_variance>
0.1637383997

$$$$
[H]c1c([H])c(Cl)c(-c2c([H])c3c([H])nc(N([H])c4c([H])c([H])c(N5C([H])([H])C([H])([H])N(C([H])([H])[H])C([H])([H])C5([H])[H])c([H])c4OC([H])([H])[H])nc3n(C([H])([H])[H])c2=O)c(Cl)c1[H]


 37 41  0  0  0  0  0  0  0  0999 V2000
   59.2557   -5.6739   -9.2255 C   0  0  0  0  0  0  0  0  0  0  0  0
   58.6004   -5.2489  -10.2979 N   0  0  0  0  0  0  0  0  0  0  0  0
   57.3152   -4.8660  -10.3202 C   0  0  0  0  0  0  0  0  0  0  0  0
   56.5730   -4.9042   -9.1354 C   0  0  0  0  0  0  0  0  0  0  0  0
   55.2584   -4.5254   -9.1209 C   0  0  0  0  0  0  0  0  0  0  0  0
   54.5593   -4.5812   -7.9350 C   0  0  0  0  0  0  0  0  0  0  0  0
   55.2288   -5.0203   -6.8123 C   0  0  0  0  0  0  0  0  0  0  0  0
   54.5659   -5.0657   -5.7190 O   0  0  0  0  0  0  0  0  0  0  0  0
   56.5095   -5.3798   -6.8695 N   0  0  0  0  0  0  0  0  0  0  0  0
   57.1579   -5.8293   -5.6601 C   0  0  0  0  0  0  0  0  0  0  0  0
   57.2246   -5.3366   -8.0231 C   0  0  0  0  0  0  0  0  0  0  0  0
   58.5055   -5.7026   -8.0713 N   0  0  0  0  0  0  0  0  0  0  0  0
   53.1587   -4.2033   -7.8275 C   0  0  0  0  0  0  0  0  0  0  0  0
   52.1557   -5.0604   -7.4382 C   0  0  0  0  0  0  0  0  0  0  0  0
   52.5869   -6.7112   -7.0490 Cl  0  0  0  0  0  0  0  0  0  0  0  0
   50.8249   -4.6278   -7.3555 C   0  0  0  0  0  0  0  0  0  0  0  0
   50.4922   -3.3263   -7.6638 C   0  0  0  0  0  0  0  0  0  0  0  0
   51.5001   -2.4750   -8.0521 C   0  0  0  0  0  0  0  0  0  0  0  0
   52.8139   -2.9068   -8.1329 C   0  0  0  0  0  0  0  0  0  0  0  0
   54.0428   -1.7741   -8.6320 Cl  0  0  0  0  0  0  0  0  0  0  0  0
   60.6102   -6.0944   -9.1641 N   0  0  0  0  0  0  0  0  0  0  0  0
   61.3081   -5.3497   -8.8033 H   0  0  0  0  0  0  0  0  0  0  0  0
   61.8608   -7.3885  -10.7191 C   0  0  0  0  0  0  0  0  0  0  0  0
   62.4176   -8.5717  -11.1233 C   0  0  0  0  0  0  0  0  0  0  0  0
   62.3071   -9.7222  -10.3766 C   0  0  0  0  0  0  0  0  0  0  0  0
   61.6147   -9.6834   -9.1856 C   0  0  0  0  0  0  0  0  0  0  0  0
   61.0495   -8.4898   -8.7725 C   0  0  0  0  0  0  0  0  0  0  0  0
   61.1559   -7.3400   -9.5109 C   0  0  0  0  0  0  0  0  0  0  0  0
   62.9122  -10.9438  -10.8285 N   0  0  0  0  0  0  0  0  0  0  0  0
   62.2721  -12.1728  -10.4876 C   0  0  0  0  0  0  0  0  0  0  0  0
   62.9317  -13.4049  -10.9971 C   0  0  0  0  0  0  0  0  0  0  0  0
   63.7957  -13.2011  -12.1164 N   0  0  0  0  0  0  0  0  0  0  0  0
   63.1129  -12.8632  -13.3343 C   0  0  0  0  0  0  0  0  0  0  0  0
   64.8048  -12.2276  -11.7560 C   0  0  0  0  0  0  0  0  0  0  0  0
   64.1281  -10.8995  -11.6003 C   0  0  0  0  0  0  0  0  0  0  0  0
   62.8320   -6.2434  -12.6522 C   0  0  0  0  0  0  0  0  0  0  0  0
   62.0030   -6.2501  -11.5148 O   0  0  0  0  0  0  0  0  0  0  0  0
 36 37  1  0  0  0
 37 23  1  0  0  0
 23 24  2  0  0  0
 24 25  1  0  0  0
 25 26  2  0  0  0
 26 27  1  0  0  0
 27 28  2  0  0  0
 28 21  1  0  0  0
 21  1  1  0  0  0
  1  2  2  0  0  0
  2  3  1  0  0  0
  3  4  2  0  0  0
  4  5  1  0  0  0
  5  6  2  0  0  0
  6 13  1  0  0  0
 13 14  2  0  0  0
 14 15  1  0  0  0
 14 16  1  0  0  0
 16 17  2  0  0  0
 17 18  1  0  0  0
 18 19  2  0  0  0
 19 20  1  0  0  0
  6  7  1  0  0  0
  7  8  2  0  0  0
  7  9  1  0  0  0
  9 10  1  0  0  0
  9 11  1  0  0  0
 11 12  2  0  0  0
 25 29  1  0  0  0
 29 30  1  0  0  0
 30 31  1  0  0  0
 31 32  1  0  0  0
 32 33  1  0  0  0
 32 34  1  0  0  0
 34 35  1  0  0  0
 28 23  1  0  0  0
 12  1  1  0  0  0
 35 29  1  0  0  0
 11  4  1  0  0  0
 19 13  1  0  0  0
 21 22  1  0  0  0
M  END
> <minimizedAffinity>
-7.69315

> <CNNscore>
0.2261049300

> <CNNaffinity>
6.2849578857

> <CNN_VS>
1.4210599661

> <CNNaffinity_variance>
0.1055325121

$$$$
[H]c1c([H])c(Cl)c(-c2c([H])c3c([H])nc(N([H])c4c([H])c([H])c(N5C([H])([H])C([H])([H])N(C([H])([H])[H])C([H])([H])C5([H])[H])c([H])c4OC([H])([H])[H])nc3n(C([H])([H])[H])c2=O)c(Cl)c1[H]


 37 41  0  0  0  0  0  0  0  0999 V2000
   55.1405   -3.9758   -9.5674 C   0  0  0  0  0  0  0  0  0  0  0  0
   54.7954   -2.7333   -9.2553 N   0  0  0  0  0  0  0  0  0  0  0  0
   53.7663   -2.3890   -8.4671 C   0  0  0  0  0  0  0  0  0  0  0  0
   52.9692   -3.3944   -7.9106 C   0  0  0  0  0  0  0  0  0  0  0  0
   51.9083   -3.0808   -7.1055 C   0  0  0  0  0  0  0  0  0  0  0  0
   51.1439   -4.0992   -6.5794 C   0  0  0  0  0  0  0  0  0  0  0  0
   51.4922   -5.3956   -6.8951 C   0  0  0  0  0  0  0  0  0  0  0  0
   50.7728   -6.3297   -6.3983 O   0  0  0  0  0  0  0  0  0  0  0  0
   52.5330   -5.6577   -7.6829 N   0  0  0  0  0  0  0  0  0  0  0  0
   52.8506   -7.0355   -7.9764 C   0  0  0  0  0  0  0  0  0  0  0  0
   53.3045   -4.6761   -8.2168 C   0  0  0  0  0  0  0  0  0  0  0  0
   54.3423   -4.9483   -9.0080 N   0  0  0  0  0  0  0  0  0  0  0  0
   49.9958   -3.8590   -5.7189 C   0  0  0  0  0  0  0  0  0  0  0  0
   48.9089   -3.0959   -6.0773 C   0  0  0  0  0  0  0  0  0  0  0  0
   48.9037   -2.3640   -7.6669 Cl  0  0  0  0  0  0  0  0  0  0  0  0
   47.8348   -2.9067   -5.1967 C   0  0  0  0  0  0  0  0  0  0  0  0
   47.8456   -3.4858   -3.9460 C   0  0  0  0  0  0  0  0  0  0  0  0
   48.9354   -4.2475   -3.5946 C   0  0  0  0  0  0  0  0  0  0  0  0
   49.9950   -4.4315   -4.4679 C   0  0  0  0  0  0  0  0  0  0  0  0
   51.3457   -5.4102   -3.9578 Cl  0  0  0  0  0  0  0  0  0  0  0  0
   56.2152   -4.3787  -10.4027 N   0  0  0  0  0  0  0  0  0  0  0  0
   56.0453   -4.2543  -11.4646 H   0  0  0  0  0  0  0  0  0  0  0  0
   58.3762   -5.1158  -11.0685 C   0  0  0  0  0  0  0  0  0  0  0  0
   59.6076   -5.6401  -10.7813 C   0  0  0  0  0  0  0  0  0  0  0  0
   59.9747   -5.9789   -9.4991 C   0  0  0  0  0  0  0  0  0  0  0  0
   59.0761   -5.7854   -8.4722 C   0  0  0  0  0  0  0  0  0  0  0  0
   57.8298   -5.2560   -8.7572 C   0  0  0  0  0  0  0  0  0  0  0  0
   57.4575   -4.9159  -10.0317 C   0  0  0  0  0  0  0  0  0  0  0  0
   61.2789   -6.5187   -9.2344 N   0  0  0  0  0  0  0  0  0  0  0  0
   62.2042   -6.5933  -10.3182 C   0  0  0  0  0  0  0  0  0  0  0  0
   63.5451   -7.1430   -9.9829 C   0  0  0  0  0  0  0  0  0  0  0  0
   63.8915   -7.0714   -8.5989 N   0  0  0  0  0  0  0  0  0  0  0  0
   64.1345   -5.7389   -8.1201 C   0  0  0  0  0  0  0  0  0  0  0  0
   62.8800   -7.7635   -7.8281 C   0  0  0  0  0  0  0  0  0  0  0  0
   61.6150   -6.9636   -7.9057 C   0  0  0  0  0  0  0  0  0  0  0  0
   58.6263   -3.6761  -13.0322 C   0  0  0  0  0  0  0  0  0  0  0  0
   58.0547   -4.7889  -12.3872 O   0  0  0  0  0  0  0  0  0  0  0  0
 36 37  1  0  0  0
 37 23  1  0  0  0
 23 24  2  0  0  0
 24 25  1  0  0  0
 25 26  2  0  0  0
 26 27  1  0  0  0
 27 28  2  0  0  0
 28 21  1  0  0  0
 21  1  1  0  0  0
  1  2  2  0  0  0
  2  3  1  0  0  0
  3  4  2  0  0  0
  4  5  1  0  0  0
  5  6  2  0  0  0
  6 13  1  0  0  0
 13 14  2  0  0  0
 14 15  1  0  0  0
 14 16  1  0  0  0
 16 17  2  0  0  0
 17 18  1  0  0  0
 18 19  2  0  0  0
 19 20  1  0  0  0
  6  7  1  0  0  0
  7  8  2  0  0  0
  7  9  1  0  0  0
  9 10  1  0  0  0
  9 11  1  0  0  0
 11 12  2  0  0  0
 25 29  1  0  0  0
 29 30  1  0  0  0
 30 31  1  0  0  0
 31 32  1  0  0  0
 32 33  1  0  0  0
 32 34  1  0  0  0
 34 35  1  0  0  0
 28 23  1  0  0  0
 12  1  1  0  0  0
 35 29  1  0  0  0
 11  4  1  0  0  0
 19 13  1  0  0  0
 21 22  1  0  0  0
M  END
> <minimizedAffinity>
-7.46942

> <CNNscore>
0.2185822278

> <CNNaffinity>
6.9245100021

> <CNN_VS>
1.5135748386

> <CNNaffinity_variance>
0.0494099259

$$$$
[H]c1c([H])c(Cl)c(-c2c([H])c3c([H])nc(N([H])c4c([H])c([H])c(N5C([H])([H])C([H])([H])N(C([H])([H])[H])C([H])([H])C5([H])[H])c([H])c4OC([H])([H])[H])nc3n(C([H])([H])[H])c2=O)c(Cl)c1[H]


 37 41  0  0  0  0  0  0  0  0999 V2000
   59.0533   -5.6120   -8.9518 C   0  0  0  0  0  0  0  0  0  0  0  0
   58.4212   -5.1746  -10.0330 N   0  0  0  0  0  0  0  0  0  0  0  0
   57.1344   -4.7991  -10.0803 C   0  0  0  0  0  0  0  0  0  0  0  0
   56.3644   -4.8600   -8.9145 C   0  0  0  0  0  0  0  0  0  0  0  0
   55.0474   -4.4893   -8.9258 C   0  0  0  0  0  0  0  0  0  0  0  0
   54.3205   -4.5674   -7.7580 C   0  0  0  0  0  0  0  0  0  0  0  0
   54.9657   -5.0197   -6.6263 C   0  0  0  0  0  0  0  0  0  0  0  0
   54.2771   -5.0858   -5.5501 O   0  0  0  0  0  0  0  0  0  0  0  0
   56.2497   -5.3706   -6.6582 N   0  0  0  0  0  0  0  0  0  0  0  0
   56.8718   -5.8347   -5.4406 C   0  0  0  0  0  0  0  0  0  0  0  0
   56.9919   -5.3054   -7.7935 C   0  0  0  0  0  0  0  0  0  0  0  0
   58.2759   -5.6630   -7.8165 N   0  0  0  0  0  0  0  0  0  0  0  0
   52.9153   -4.1996   -7.6784 C   0  0  0  0  0  0  0  0  0  0  0  0
   51.9165   -5.0516   -7.2679 C   0  0  0  0  0  0  0  0  0  0  0  0
   52.3593   -6.6828   -6.8140 Cl  0  0  0  0  0  0  0  0  0  0  0  0
   50.5809   -4.6295   -7.2144 C   0  0  0  0  0  0  0  0  0  0  0  0
   50.2391   -3.3434   -7.5737 C   0  0  0  0  0  0  0  0  0  0  0  0
   51.2429   -2.4971   -7.9830 C   0  0  0  0  0  0  0  0  0  0  0  0
   52.5615   -2.9187   -8.0347 C   0  0  0  0  0  0  0  0  0  0  0  0
   53.7847   -1.7930   -8.5629 Cl  0  0  0  0  0  0  0  0  0  0  0  0
   60.4085   -6.0254   -8.8642 N   0  0  0  0  0  0  0  0  0  0  0  0
   61.1157   -5.2400   -8.6299 H   0  0  0  0  0  0  0  0  0  0  0  0
   61.4884   -7.9150   -7.9052 C   0  0  0  0  0  0  0  0  0  0  0  0
   62.0326   -9.1669   -8.0064 C   0  0  0  0  0  0  0  0  0  0  0  0
   62.0628   -9.8546   -9.1978 C   0  0  0  0  0  0  0  0  0  0  0  0
   61.5296   -9.2661  -10.3242 C   0  0  0  0  0  0  0  0  0  0  0  0
   60.9785   -8.0005  -10.2274 C   0  0  0  0  0  0  0  0  0  0  0  0
   60.9446   -7.3098   -9.0440 C   0  0  0  0  0  0  0  0  0  0  0  0
   62.6344  -11.1704   -9.2641 N   0  0  0  0  0  0  0  0  0  0  0  0
   63.0543  -11.7791   -8.0436 C   0  0  0  0  0  0  0  0  0  0  0  0
   63.6215  -13.1485   -8.1694 C   0  0  0  0  0  0  0  0  0  0  0  0
   63.2435  -13.8453   -9.3578 N   0  0  0  0  0  0  0  0  0  0  0  0
   61.8613  -14.2344   -9.3987 C   0  0  0  0  0  0  0  0  0  0  0  0
   63.6330  -13.0547  -10.5063 C   0  0  0  0  0  0  0  0  0  0  0  0
   62.7678  -11.8313  -10.5375 C   0  0  0  0  0  0  0  0  0  0  0  0
   61.8540   -7.9210   -5.4849 C   0  0  0  0  0  0  0  0  0  0  0  0
   61.4833   -7.2612   -6.6716 O   0  0  0  0  0  0  0  0  0  0  0  0
 36 37  1  0  0  0
 37 23  1  0  0  0
 23 24  2  0  0  0
 24 25  1  0  0  0
 25 26  2  0  0  0
 26 27  1  0  0  0
 27 28  2  0  0  0
 28 21  1  0  0  0
 21  1  1  0  0  0
  1  2  2  0  0  0
  2  3  1  0  0  0
  3  4  2  0  0  0
  4  5  1  0  0  0
  5  6  2  0  0  0
  6 13  1  0  0  0
 13 14  2  0  0  0
 14 15  1  0  0  0
 14 16  1  0  0  0
 16 17  2  0  0  0
 17 18  1  0  0  0
 18 19  2  0  0  0
 19 20  1  0  0  0
  6  7  1  0  0  0
  7  8  2  0  0  0
  7  9  1  0  0  0
  9 10  1  0  0  0
  9 11  1  0  0  0
 11 12  2  0  0  0
 25 29  1  0  0  0
 29 30  1  0  0  0
 30 31  1  0  0  0
 31 32  1  0  0  0
 32 33  1  0  0  0
 32 34  1  0  0  0
 34 35  1  0  0  0
 28 23  1  0  0  0
 12  1  1  0  0  0
 35 29  1  0  0  0
 11  4  1  0  0  0
 19 13  1  0  0  0
 21 22  1  0  0  0
M  END
> <minimizedAffinity>
-8.04662

> <CNNscore>
0.2181999236

> <CNNaffinity>
6.5169687271

> <CNN_VS>
1.4220020771

> <CNNaffinity_variance>
0.0972238928

$$$$
[H]c1c([H])c([H])c(S(=O)(=O)N2C([H])([H])[C@@]([H])(c3c([H])c([H])c(F)c([H])c3[H])[C@@]([H])(N([H])C(=O)c3c([H])c(OC([H])([H])[H])c(OC([H])([H])[H])c(OC([H])([H])[H])c3[H])C2([H])[H])c([H])c1[H]


 37 40  0  0  0  0  0  0  0  0999 V2000
   54.8210   -5.2831   -8.8780 C   0  0  0  0  0  0  0  0  0  0  0  0
   55.1016   -4.7046  -10.2476 C   0  0  0  0  0  0  0  0  0  0  0  0
   56.1119   -3.6890  -10.0462 N   0  0  0  0  0  0  0  0  0  0  0  0
   56.6138   -3.7768   -8.7151 C   0  0  0  0  0  0  0  0  0  0  0  0
   56.1718   -5.1140   -8.2196 C   0  0  0  0  0  0  0  0  0  0  0  0
   56.1584   -5.3012   -6.7799 C   0  0  0  0  0  0  0  0  0  0  0  0
   56.1400   -6.5793   -6.2283 C   0  0  0  0  0  0  0  0  0  0  0  0
   56.1412   -6.6764   -4.8522 C   0  0  0  0  0  0  0  0  0  0  0  0
   56.1587   -5.5689   -4.0375 C   0  0  0  0  0  0  0  0  0  0  0  0
   56.1584   -5.6672   -2.6880 F   0  0  0  0  0  0  0  0  0  0  0  0
   56.1770   -4.2795   -4.5720 C   0  0  0  0  0  0  0  0  0  0  0  0
   56.1763   -4.1992   -5.9486 C   0  0  0  0  0  0  0  0  0  0  0  0
   52.8445   -5.1835   -7.4276 C   0  0  0  0  0  0  0  0  0  0  0  0
   52.9047   -6.4444   -7.2123 O   0  0  0  0  0  0  0  0  0  0  0  0
   53.7867   -4.5370   -8.2615 N   0  0  0  0  0  0  0  0  0  0  0  0
   53.6934   -3.5121   -8.4073 H   0  0  0  0  0  0  0  0  0  0  0  0
   50.1069   -4.3149   -4.9807 C   0  0  0  0  0  0  0  0  0  0  0  0
   51.1567   -4.9812   -5.5856 C   0  0  0  0  0  0  0  0  0  0  0  0
   51.7459   -4.4956   -6.7515 C   0  0  0  0  0  0  0  0  0  0  0  0
   51.2329   -3.3211   -7.2743 C   0  0  0  0  0  0  0  0  0  0  0  0
   50.1815   -2.6549   -6.6682 C   0  0  0  0  0  0  0  0  0  0  0  0
   49.5955   -3.1483   -5.4979 C   0  0  0  0  0  0  0  0  0  0  0  0
   50.2623   -5.3824   -2.7543 C   0  0  0  0  0  0  0  0  0  0  0  0
   49.5499   -4.8310   -3.8247 O   0  0  0  0  0  0  0  0  0  0  0  0
   49.6575   -1.4849   -7.1778 O   0  0  0  0  0  0  0  0  0  0  0  0
   50.2150   -0.6951   -8.1926 C   0  0  0  0  0  0  0  0  0  0  0  0
   48.5411   -2.4435   -4.9259 O   0  0  0  0  0  0  0  0  0  0  0  0
   47.3472   -3.1191   -4.5382 C   0  0  0  0  0  0  0  0  0  0  0  0
   57.3615   -3.8630  -11.1882 S   0  0  0  0  0  0  0  0  0  0  0  0
   58.2362   -5.0460  -10.8020 O   0  0  0  0  0  0  0  0  0  0  0  0
   58.2652   -2.6707  -11.2480 O   0  0  0  0  0  0  0  0  0  0  0  0
   56.6912   -4.2396  -12.7622 C   0  0  0  0  0  0  0  0  0  0  0  0
   56.3614   -5.4916  -13.1618 C   0  0  0  0  0  0  0  0  0  0  0  0
   55.8318   -5.7290  -14.4206 C   0  0  0  0  0  0  0  0  0  0  0  0
   55.6298   -4.6944  -15.2924 C   0  0  0  0  0  0  0  0  0  0  0  0
   55.9600   -3.4322  -14.8967 C   0  0  0  0  0  0  0  0  0  0  0  0
   56.4860   -3.1760  -13.6531 C   0  0  0  0  0  0  0  0  0  0  0  0
 23 24  1  0  0  0
 24 17  1  0  0  0
 17 18  2  0  0  0
 18 19  1  0  0  0
 19 20  2  0  0  0
 20 21  1  0  0  0
 21 25  1  0  0  0
 25 26  1  0  0  0
 21 22  2  0  0  0
 22 27  1  0  0  0
 27 28  1  0  0  0
 19 13  1  0  0  0
 13 14  2  0  0  0
 13 15  1  0  0  0
 15  1  1  0  0  0
  1  2  1  0  0  0
  2  3  1  0  0  0
  3  4  1  0  0  0
  4  5  1  0  0  0
  5  6  1  0  0  0
  6  7  2  0  0  0
  7  8  1  0  0  0
  8  9  2  0  0  0
  9 10  1  0  0  0
  9 11  1  0  0  0
 11 12  2  0  0  0
  3 29  1  0  0  0
 29 30  2  0  0  0
 29 31  2  0  0  0
 29 32  1  0  0  0
 32 33  2  0  0  0
 33 34  1  0  0  0
 34 35  2  0  0  0
 35 36  1  0  0  0
 36 37  2  0  0  0
 22 17  1  0  0  0
  5  1  1  0  0  0
 12  6  1  0  0  0
 37 32  1  0  0  0
 15 16  1  0  0  0
M  END
> <minimizedAffinity>
-5.17918

> <CNNscore>
0.3951973319

> <CNNaffinity>
7.1078033447

> <CNN_VS>
2.8089849949

> <CNNaffinity_variance>
0.2409593612

$$$$
[H]c1c([H])c([H])c(S(=O)(=O)N2C([H])([H])[C@@]([H])(c3c([H])c([H])c(F)c([H])c3[H])[C@@]([H])(N([H])C(=O)c3c([H])c(OC([H])([H])[H])c(OC([H])([H])[H])c(OC([H])([H])[H])c3[H])C2([H])[H])c([H])c1[H]


 37 40  0  0  0  0  0  0  0  0999 V2000
   55.1075   -5.4200   -8.8651 C   0  0  0  0  0  0  0  0  0  0  0  0
   55.2847   -4.9035  -10.2761 C   0  0  0  0  0  0  0  0  0  0  0  0
   56.1237   -3.7305  -10.1632 N   0  0  0  0  0  0  0  0  0  0  0  0
   56.6418   -3.6439   -8.8382 C   0  0  0  0  0  0  0  0  0  0  0  0
   56.4190   -4.9952   -8.2437 C   0  0  0  0  0  0  0  0  0  0  0  0
   56.4445   -5.0793   -6.7945 C   0  0  0  0  0  0  0  0  0  0  0  0
   56.2131   -3.9514   -6.0117 C   0  0  0  0  0  0  0  0  0  0  0  0
   56.2410   -4.1133   -4.6420 C   0  0  0  0  0  0  0  0  0  0  0  0
   56.4865   -5.3301   -4.0508 C   0  0  0  0  0  0  0  0  0  0  0  0
   56.5147   -5.4856   -2.7070 F   0  0  0  0  0  0  0  0  0  0  0  0
   56.7209   -6.4719   -4.8189 C   0  0  0  0  0  0  0  0  0  0  0  0
   56.6891   -6.2940   -6.1859 C   0  0  0  0  0  0  0  0  0  0  0  0
   53.1819   -5.5094   -7.3470 C   0  0  0  0  0  0  0  0  0  0  0  0
   53.4714   -6.7094   -7.0060 O   0  0  0  0  0  0  0  0  0  0  0  0
   53.9726   -4.8033   -8.2837 N   0  0  0  0  0  0  0  0  0  0  0  0
   53.6944   -3.8324   -8.5298 H   0  0  0  0  0  0  0  0  0  0  0  0
   50.1553   -3.3869   -6.5917 C   0  0  0  0  0  0  0  0  0  0  0  0
   51.2629   -3.9006   -7.2409 C   0  0  0  0  0  0  0  0  0  0  0  0
   51.9957   -4.9543   -6.6976 C   0  0  0  0  0  0  0  0  0  0  0  0
   51.5659   -5.4597   -5.4828 C   0  0  0  0  0  0  0  0  0  0  0  0
   50.4571   -4.9445   -4.8334 C   0  0  0  0  0  0  0  0  0  0  0  0
   49.7265   -3.8871   -5.3851 C   0  0  0  0  0  0  0  0  0  0  0  0
   50.0260   -1.2398   -7.8139 C   0  0  0  0  0  0  0  0  0  0  0  0
   49.4559   -2.3404   -7.1648 O   0  0  0  0  0  0  0  0  0  0  0  0
   50.0175   -5.4355   -3.6214 O   0  0  0  0  0  0  0  0  0  0  0  0
   50.8178   -5.9413   -2.5880 C   0  0  0  0  0  0  0  0  0  0  0  0
   48.6196   -3.4032   -4.6948 O   0  0  0  0  0  0  0  0  0  0  0  0
   48.4077   -1.9997   -4.5633 C   0  0  0  0  0  0  0  0  0  0  0  0
   57.3779   -3.7875  -11.3121 S   0  0  0  0  0  0  0  0  0  0  0  0
   58.3033   -4.9511  -10.9910 O   0  0  0  0  0  0  0  0  0  0  0  0
   58.2293   -2.5558  -11.3054 O   0  0  0  0  0  0  0  0  0  0  0  0
   56.7218   -4.1053  -12.9049 C   0  0  0  0  0  0  0  0  0  0  0  0
   56.4559   -3.1399  -13.8177 C   0  0  0  0  0  0  0  0  0  0  0  0
   55.9382   -3.4519  -15.0651 C   0  0  0  0  0  0  0  0  0  0  0  0
   55.6833   -4.7529  -15.4024 C   0  0  0  0  0  0  0  0  0  0  0  0
   55.9482   -5.7292  -14.4883 C   0  0  0  0  0  0  0  0  0  0  0  0
   56.4614   -5.4404  -13.2466 C   0  0  0  0  0  0  0  0  0  0  0  0
 23 24  1  0  0  0
 24 17  1  0  0  0
 17 18  2  0  0  0
 18 19  1  0  0  0
 19 20  2  0  0  0
 20 21  1  0  0  0
 21 25  1  0  0  0
 25 26  1  0  0  0
 21 22  2  0  0  0
 22 27  1  0  0  0
 27 28  1  0  0  0
 19 13  1  0  0  0
 13 14  2  0  0  0
 13 15  1  0  0  0
 15  1  1  0  0  0
  1  2  1  0  0  0
  2  3  1  0  0  0
  3  4  1  0  0  0
  4  5  1  0  0  0
  5  6  1  0  0  0
  6  7  2  0  0  0
  7  8  1  0  0  0
  8  9  2  0  0  0
  9 10  1  0  0  0
  9 11  1  0  0  0
 11 12  2  0  0  0
  3 29  1  0  0  0
 29 30  2  0  0  0
 29 31  2  0  0  0
 29 32  1  0  0  0
 32 33  2  0  0  0
 33 34  1  0  0  0
 34 35  2  0  0  0
 35 36  1  0  0  0
 36 37  2  0  0  0
 22 17  1  0  0  0
  5  1  1  0  0  0
 12  6  1  0  0  0
 37 32  1  0  0  0
 15 16  1  0  0  0
M  END
> <minimizedAffinity>
-4.38899

> <CNNscore>
0.3781936765

> <CNNaffinity>
7.0844182968

> <CNN_VS>
2.6792821884

> <CNNaffinity_variance>
0.1798723638

$$$$
[H]c1c([H])c([H])c(S(=O)(=O)N2C([H])([H])[C@@]([H])(c3c([H])c([H])c(F)c([H])c3[H])[C@@]([H])(N([H])C(=O)c3c([H])c(OC([H])([H])[H])c(OC([H])([H])[H])c(OC([H])([H])[H])c3[H])C2([H])[H])c([H])c1[H]


 37 40  0  0  0  0  0  0  0  0999 V2000
   54.0917   -4.5103   -6.5188 C   0  0  0  0  0  0  0  0  0  0  0  0
   52.7650   -4.7053   -7.2195 C   0  0  0  0  0  0  0  0  0  0  0  0
   52.4585   -6.1137   -7.0968 N   0  0  0  0  0  0  0  0  0  0  0  0
   53.3752   -6.7212   -6.1900 C   0  0  0  0  0  0  0  0  0  0  0  0
   54.0099   -5.5852   -5.4582 C   0  0  0  0  0  0  0  0  0  0  0  0
   55.2715   -5.8633   -4.7958 C   0  0  0  0  0  0  0  0  0  0  0  0
   56.1236   -6.8548   -5.2746 C   0  0  0  0  0  0  0  0  0  0  0  0
   57.3103   -7.0518   -4.5994 C   0  0  0  0  0  0  0  0  0  0  0  0
   57.6586   -6.3112   -3.4945 C   0  0  0  0  0  0  0  0  0  0  0  0
   58.8227   -6.5076   -2.8333 F   0  0  0  0  0  0  0  0  0  0  0  0
   56.8174   -5.3132   -2.9996 C   0  0  0  0  0  0  0  0  0  0  0  0
   55.6357   -5.1280   -3.6856 C   0  0  0  0  0  0  0  0  0  0  0  0
   55.1141   -4.0421   -8.6996 C   0  0  0  0  0  0  0  0  0  0  0  0
   54.1502   -3.2601   -9.0147 O   0  0  0  0  0  0  0  0  0  0  0  0
   55.1417   -4.7040   -7.4497 N   0  0  0  0  0  0  0  0  0  0  0  0
   55.9446   -5.3308   -7.2423 H   0  0  0  0  0  0  0  0  0  0  0  0
   57.0131   -3.8249  -11.9527 C   0  0  0  0  0  0  0  0  0  0  0  0
   56.0196   -3.6595  -11.0053 C   0  0  0  0  0  0  0  0  0  0  0  0
   56.1517   -4.1820   -9.7200 C   0  0  0  0  0  0  0  0  0  0  0  0
   57.3178   -4.8721   -9.4374 C   0  0  0  0  0  0  0  0  0  0  0  0
   58.3117   -5.0375  -10.3868 C   0  0  0  0  0  0  0  0  0  0  0  0
   58.1721   -4.5100  -11.6747 C   0  0  0  0  0  0  0  0  0  0  0  0
   56.3914   -3.9909  -14.3416 C   0  0  0  0  0  0  0  0  0  0  0  0
   56.8425   -3.2911  -13.2171 O   0  0  0  0  0  0  0  0  0  0  0  0
   59.4783   -5.7245  -10.1217 O   0  0  0  0  0  0  0  0  0  0  0  0
   60.0619   -5.9201   -8.8625 C   0  0  0  0  0  0  0  0  0  0  0  0
   59.1983   -4.7026  -12.5943 O   0  0  0  0  0  0  0  0  0  0  0  0
   59.9471   -3.5926  -13.0835 C   0  0  0  0  0  0  0  0  0  0  0  0
   50.8506   -6.3266   -6.5818 S   0  0  0  0  0  0  0  0  0  0  0  0
   50.8365   -7.1383   -5.2956 O   0  0  0  0  0  0  0  0  0  0  0  0
   50.0189   -7.0848   -7.5695 O   0  0  0  0  0  0  0  0  0  0  0  0
   50.1321   -4.7768   -6.1938 C   0  0  0  0  0  0  0  0  0  0  0  0
   49.8894   -3.8075   -7.1088 C   0  0  0  0  0  0  0  0  0  0  0  0
   49.3159   -2.5998   -6.7428 C   0  0  0  0  0  0  0  0  0  0  0  0
   48.9804   -2.3605   -5.4384 C   0  0  0  0  0  0  0  0  0  0  0  0
   49.2225   -3.3316   -4.5125 C   0  0  0  0  0  0  0  0  0  0  0  0
   49.7901   -4.5354   -4.8551 C   0  0  0  0  0  0  0  0  0  0  0  0
 23 24  1  0  0  0
 24 17  1  0  0  0
 17 18  2  0  0  0
 18 19  1  0  0  0
 19 20  2  0  0  0
 20 21  1  0  0  0
 21 25  1  0  0  0
 25 26  1  0  0  0
 21 22  2  0  0  0
 22 27  1  0  0  0
 27 28  1  0  0  0
 19 13  1  0  0  0
 13 14  2  0  0  0
 13 15  1  0  0  0
 15  1  1  0  0  0
  1  2  1  0  0  0
  2  3  1  0  0  0
  3  4  1  0  0  0
  4  5  1  0  0  0
  5  6  1  0  0  0
  6  7  2  0  0  0
  7  8  1  0  0  0
  8  9  2  0  0  0
  9 10  1  0  0  0
  9 11  1  0  0  0
 11 12  2  0  0  0
  3 29  1  0  0  0
 29 30  2  0  0  0
 29 31  2  0  0  0
 29 32  1  0  0  0
 32 33  2  0  0  0
 33 34  1  0  0  0
 34 35  2  0  0  0
 35 36  1  0  0  0
 36 37  2  0  0  0
 22 17  1  0  0  0
  5  1  1  0  0  0
 12  6  1  0  0  0
 37 32  1  0  0  0
 15 16  1  0  0  0
M  END
> <minimizedAffinity>
-9.40237

> <CNNscore>
0.3722469807

> <CNNaffinity>
7.1410050392

> <CNN_VS>
2.6582176685

> <CNNaffinity_variance>
0.0651228279

$$$$
[H]c1c([H])c([H])c(S(=O)(=O)N2C([H])([H])[C@@]([H])(c3c([H])c([H])c(F)c([H])c3[H])[C@@]([H])(N([H])C(=O)c3c([H])c(OC([H])([H])[H])c(OC([H])([H])[H])c(OC([H])([H])[H])c3[H])C2([H])[H])c([H])c1[H]


 37 40  0  0  0  0  0  0  0  0999 V2000
   54.1261   -4.5351   -6.5535 C   0  0  0  0  0  0  0  0  0  0  0  0
   52.8014   -4.7379   -7.2558 C   0  0  0  0  0  0  0  0  0  0  0  0
   52.4805   -6.1391   -7.0936 N   0  0  0  0  0  0  0  0  0  0  0  0
   53.3862   -6.7283   -6.1640 C   0  0  0  0  0  0  0  0  0  0  0  0
   54.0278   -5.5773   -5.4622 C   0  0  0  0  0  0  0  0  0  0  0  0
   55.2830   -5.8479   -4.7845 C   0  0  0  0  0  0  0  0  0  0  0  0
   56.1292   -6.8596   -5.2305 C   0  0  0  0  0  0  0  0  0  0  0  0
   57.3101   -7.0480   -4.5427 C   0  0  0  0  0  0  0  0  0  0  0  0
   57.6583   -6.2802   -3.4566 C   0  0  0  0  0  0  0  0  0  0  0  0
   58.8166   -6.4682   -2.7830 F   0  0  0  0  0  0  0  0  0  0  0  0
   56.8229   -5.2617   -2.9946 C   0  0  0  0  0  0  0  0  0  0  0  0
   55.6469   -5.0854   -3.6928 C   0  0  0  0  0  0  0  0  0  0  0  0
   55.1865   -4.1088   -8.7247 C   0  0  0  0  0  0  0  0  0  0  0  0
   54.2517   -3.2974   -9.0531 O   0  0  0  0  0  0  0  0  0  0  0  0
   55.1792   -4.7662   -7.4721 N   0  0  0  0  0  0  0  0  0  0  0  0
   55.9592   -5.4176   -7.2537 H   0  0  0  0  0  0  0  0  0  0  0  0
   58.3940   -5.1000  -10.4468 C   0  0  0  0  0  0  0  0  0  0  0  0
   57.4193   -4.9654   -9.4753 C   0  0  0  0  0  0  0  0  0  0  0  0
   56.2300   -4.2860   -9.7331 C   0  0  0  0  0  0  0  0  0  0  0  0
   56.0711   -3.7534  -11.0008 C   0  0  0  0  0  0  0  0  0  0  0  0
   57.0477   -3.8883  -11.9727 C   0  0  0  0  0  0  0  0  0  0  0  0
   58.2386   -4.5719  -11.7065 C   0  0  0  0  0  0  0  0  0  0  0  0
   60.1017   -5.9485   -8.8706 C   0  0  0  0  0  0  0  0  0  0  0  0
   59.5603   -5.7814  -10.1499 O   0  0  0  0  0  0  0  0  0  0  0  0
   56.9055   -3.3615  -13.2397 O   0  0  0  0  0  0  0  0  0  0  0  0
   56.3042   -3.9882  -14.3397 C   0  0  0  0  0  0  0  0  0  0  0  0
   59.1904   -4.6810  -12.7155 O   0  0  0  0  0  0  0  0  0  0  0  0
   59.9811   -3.5545  -13.0869 C   0  0  0  0  0  0  0  0  0  0  0  0
   50.8678   -6.3212   -6.5819 S   0  0  0  0  0  0  0  0  0  0  0  0
   50.8380   -7.1019   -5.2769 O   0  0  0  0  0  0  0  0  0  0  0  0
   50.0322   -7.0932   -7.5556 O   0  0  0  0  0  0  0  0  0  0  0  0
   50.1653   -4.7546   -6.2345 C   0  0  0  0  0  0  0  0  0  0  0  0
   49.9236   -3.8106   -7.1760 C   0  0  0  0  0  0  0  0  0  0  0  0
   49.3631   -2.5878   -6.8416 C   0  0  0  0  0  0  0  0  0  0  0  0
   49.0399   -2.3071   -5.5423 C   0  0  0  0  0  0  0  0  0  0  0  0
   49.2810   -3.2526   -4.5899 C   0  0  0  0  0  0  0  0  0  0  0  0
   49.8358   -4.4708   -4.9011 C   0  0  0  0  0  0  0  0  0  0  0  0
 23 24  1  0  0  0
 24 17  1  0  0  0
 17 18  2  0  0  0
 18 19  1  0  0  0
 19 20  2  0  0  0
 20 21  1  0  0  0
 21 25  1  0  0  0
 25 26  1  0  0  0
 21 22  2  0  0  0
 22 27  1  0  0  0
 27 28  1  0  0  0
 19 13  1  0  0  0
 13 14  2  0  0  0
 13 15  1  0  0  0
 15  1  1  0  0  0
  1  2  1  0  0  0
  2  3  1  0  0  0
  3  4  1  0  0  0
  4  5  1  0  0  0
  5  6  1  0  0  0
  6  7  2  0  0  0
  7  8  1  0  0  0
  8  9  2  0  0  0
  9 10  1  0  0  0
  9 11  1  0  0  0
 11 12  2  0  0  0
  3 29  1  0  0  0
 29 30  2  0  0  0
 29 31  2  0  0  0
 29 32  1  0  0  0
 32 33  2  0  0  0
 33 34  1  0  0  0
 34 35  2  0  0  0
 35 36  1  0  0  0
 36 37  2  0  0  0
 22 17  1  0  0  0
  5  1  1  0  0  0
 12  6  1  0  0  0
 37 32  1  0  0  0
 15 16  1  0  0  0
M  END
> <minimizedAffinity>
-9.47814

> <CNNscore>
0.3566365838

> <CNNaffinity>
7.1194419861

> <CNN_VS>
2.5390534401

> <CNNaffinity_variance>
0.0754028708

$$$$
[H]c1c([H])c([H])c(S(=O)(=O)N2C([H])([H])[C@@]([H])(c3c([H])c([H])c(F)c([H])c3[H])[C@@]([H])(N([H])C(=O)c3c([H])c(OC([H])([H])[H])c(OC([H])([H])[H])c(OC([H])([H])[H])c3[H])C2([H])[H])c([H])c1[H]


 37 40  0  0  0  0  0  0  0  0999 V2000
   54.9719   -6.4617   -6.8436 C   0  0  0  0  0  0  0  0  0  0  0  0
   55.4458   -5.7582   -8.0964 C   0  0  0  0  0  0  0  0  0  0  0  0
   56.5384   -4.9064   -7.6801 N   0  0  0  0  0  0  0  0  0  0  0  0
   56.8967   -5.2178   -6.3361 C   0  0  0  0  0  0  0  0  0  0  0  0
   56.2633   -6.5414   -6.0607 C   0  0  0  0  0  0  0  0  0  0  0  0
   56.0904   -6.9008   -4.6647 C   0  0  0  0  0  0  0  0  0  0  0  0
   56.7366   -6.1855   -3.6602 C   0  0  0  0  0  0  0  0  0  0  0  0
   56.5128   -6.5787   -2.3570 C   0  0  0  0  0  0  0  0  0  0  0  0
   55.6891   -7.6327   -2.0388 C   0  0  0  0  0  0  0  0  0  0  0  0
   55.4725   -8.0171   -0.7596 F   0  0  0  0  0  0  0  0  0  0  0  0
   55.0329   -8.3618   -3.0319 C   0  0  0  0  0  0  0  0  0  0  0  0
   55.2663   -7.9562   -4.3290 C   0  0  0  0  0  0  0  0  0  0  0  0
   52.6237   -5.7821   -6.6334 C   0  0  0  0  0  0  0  0  0  0  0  0
   52.2791   -6.5831   -7.5712 O   0  0  0  0  0  0  0  0  0  0  0  0
   53.9722   -5.6759   -6.2194 N   0  0  0  0  0  0  0  0  0  0  0  0
   54.2015   -5.0090   -5.4558 H   0  0  0  0  0  0  0  0  0  0  0  0
   49.9396   -3.1868   -6.0888 C   0  0  0  0  0  0  0  0  0  0  0  0
   50.9642   -3.9042   -6.6784 C   0  0  0  0  0  0  0  0  0  0  0  0
   51.5274   -5.0121   -6.0479 C   0  0  0  0  0  0  0  0  0  0  0  0
   51.0168   -5.3589   -4.8090 C   0  0  0  0  0  0  0  0  0  0  0  0
   49.9912   -4.6398   -4.2193 C   0  0  0  0  0  0  0  0  0  0  0  0
   49.4307   -3.5291   -4.8585 C   0  0  0  0  0  0  0  0  0  0  0  0
   50.0754   -1.3143   -7.6999 C   0  0  0  0  0  0  0  0  0  0  0  0
   49.4085   -2.0930   -6.7479 O   0  0  0  0  0  0  0  0  0  0  0  0
   49.4730   -4.9711   -2.9845 O   0  0  0  0  0  0  0  0  0  0  0  0
   50.0353   -5.8574   -2.0557 C   0  0  0  0  0  0  0  0  0  0  0  0
   48.4020   -2.8382   -4.2257 O   0  0  0  0  0  0  0  0  0  0  0  0
   47.0704   -3.3465   -4.2480 C   0  0  0  0  0  0  0  0  0  0  0  0
   57.8653   -5.0908   -8.7295 S   0  0  0  0  0  0  0  0  0  0  0  0
   58.2048   -6.5679   -8.8583 O   0  0  0  0  0  0  0  0  0  0  0  0
   59.1031   -4.4147   -8.2266 O   0  0  0  0  0  0  0  0  0  0  0  0
   57.4423   -4.5409  -10.3380 C   0  0  0  0  0  0  0  0  0  0  0  0
   58.3315   -4.4244  -11.3536 C   0  0  0  0  0  0  0  0  0  0  0  0
   57.9377   -3.9850  -12.6079 C   0  0  0  0  0  0  0  0  0  0  0  0
   56.6314   -3.6573  -12.8474 C   0  0  0  0  0  0  0  0  0  0  0  0
   55.7315   -3.7718  -11.8295 C   0  0  0  0  0  0  0  0  0  0  0  0
   56.1019   -4.2055  -10.5791 C   0  0  0  0  0  0  0  0  0  0  0  0
 23 24  1  0  0  0
 24 17  1  0  0  0
 17 18  2  0  0  0
 18 19  1  0  0  0
 19 20  2  0  0  0
 20 21  1  0  0  0
 21 25  1  0  0  0
 25 26  1  0  0  0
 21 22  2  0  0  0
 22 27  1  0  0  0
 27 28  1  0  0  0
 19 13  1  0  0  0
 13 14  2  0  0  0
 13 15  1  0  0  0
 15  1  1  0  0  0
  1  2  1  0  0  0
  2  3  1  0  0  0
  3  4  1  0  0  0
  4  5  1  0  0  0
  5  6  1  0  0  0
  6  7  2  0  0  0
  7  8  1  0  0  0
  8  9  2  0  0  0
  9 10  1  0  0  0
  9 11  1  0  0  0
 11 12  2  0  0  0
  3 29  1  0  0  0
 29 30  2  0  0  0
 29 31  2  0  0  0
 29 32  1  0  0  0
 32 33  2  0  0  0
 33 34  1  0  0  0
 34 35  2  0  0  0
 35 36  1  0  0  0
 36 37  2  0  0  0
 22 17  1  0  0  0
  5  1  1  0  0  0
 12  6  1  0  0  0
 37 32  1  0  0  0
 15 16  1  0  0  0
M  END
> <minimizedAffinity>
-5.53872

> <CNNscore>
0.3154675364

> <CNNaffinity>
7.0205259323

> <CNN_VS>
2.2147479057

> <CNNaffinity_variance>
0.2680362761

$$$$
[H]c1c([H])c([H])c(S(=O)(=O)N2C([H])([H])[C@@]([H])(c3c([H])c([H])c(F)c([H])c3[H])[C@@]([H])(N([H])C(=O)c3c([H])c(OC([H])([H])[H])c(OC([H])([H])[H])c(OC([H])([H])[H])c3[H])C2([H])[H])c([H])c1[H]


 37 40  0  0  0  0  0  0  0  0999 V2000
   55.0429   -6.4139   -6.6878 C   0  0  0  0  0  0  0  0  0  0  0  0
   55.4531   -5.7879   -8.0027 C   0  0  0  0  0  0  0  0  0  0  0  0
   56.5178   -4.8624   -7.6826 N   0  0  0  0  0  0  0  0  0  0  0  0
   56.9240   -5.0563   -6.3303 C   0  0  0  0  0  0  0  0  0  0  0  0
   56.3564   -6.3806   -5.9390 C   0  0  0  0  0  0  0  0  0  0  0  0
   56.2355   -6.6404   -4.5158 C   0  0  0  0  0  0  0  0  0  0  0  0
   55.7829   -7.8731   -4.0531 C   0  0  0  0  0  0  0  0  0  0  0  0
   55.7073   -8.0490   -2.6869 C   0  0  0  0  0  0  0  0  0  0  0  0
   56.0585   -7.0603   -1.7983 C   0  0  0  0  0  0  0  0  0  0  0  0
   55.9820   -7.2352   -0.4587 F   0  0  0  0  0  0  0  0  0  0  0  0
   56.5142   -5.8181   -2.2431 C   0  0  0  0  0  0  0  0  0  0  0  0
   56.5848   -5.6581   -3.6109 C   0  0  0  0  0  0  0  0  0  0  0  0
   52.6867   -5.7475   -6.5326 C   0  0  0  0  0  0  0  0  0  0  0  0
   52.3653   -6.5652   -7.4643 O   0  0  0  0  0  0  0  0  0  0  0  0
   54.0263   -5.6256   -6.0949 N   0  0  0  0  0  0  0  0  0  0  0  0
   54.2367   -4.9455   -5.3375 H   0  0  0  0  0  0  0  0  0  0  0  0
   49.8979   -4.5599   -4.2857 C   0  0  0  0  0  0  0  0  0  0  0  0
   50.9599   -5.3001   -4.7718 C   0  0  0  0  0  0  0  0  0  0  0  0
   51.5744   -4.9762   -5.9800 C   0  0  0  0  0  0  0  0  0  0  0  0
   51.0737   -3.8848   -6.6685 C   0  0  0  0  0  0  0  0  0  0  0  0
   50.0102   -3.1445   -6.1812 C   0  0  0  0  0  0  0  0  0  0  0  0
   49.3988   -3.4755   -4.9676 C   0  0  0  0  0  0  0  0  0  0  0  0
   49.8798   -5.7658   -2.1256 C   0  0  0  0  0  0  0  0  0  0  0  0
   49.3157   -4.9151   -3.0825 O   0  0  0  0  0  0  0  0  0  0  0  0
   49.4983   -2.0558   -6.8564 O   0  0  0  0  0  0  0  0  0  0  0  0
   50.1570   -1.2961   -7.8328 C   0  0  0  0  0  0  0  0  0  0  0  0
   48.3329   -2.7016   -4.5194 O   0  0  0  0  0  0  0  0  0  0  0  0
   47.0772   -3.3064   -4.2203 C   0  0  0  0  0  0  0  0  0  0  0  0
   57.8239   -5.0700   -8.7536 S   0  0  0  0  0  0  0  0  0  0  0  0
   58.1438   -6.5518   -8.8773 O   0  0  0  0  0  0  0  0  0  0  0  0
   59.0781   -4.4049   -8.2774 O   0  0  0  0  0  0  0  0  0  0  0  0
   57.3792   -4.5268  -10.3585 C   0  0  0  0  0  0  0  0  0  0  0  0
   58.2559   -4.4086  -11.3848 C   0  0  0  0  0  0  0  0  0  0  0  0
   57.8452   -3.9747  -12.6356 C   0  0  0  0  0  0  0  0  0  0  0  0
   56.5345   -3.6544  -12.8607 C   0  0  0  0  0  0  0  0  0  0  0  0
   55.6472   -3.7706  -11.8320 C   0  0  0  0  0  0  0  0  0  0  0  0
   56.0345   -4.1989  -10.5849 C   0  0  0  0  0  0  0  0  0  0  0  0
 23 24  1  0  0  0
 24 17  1  0  0  0
 17 18  2  0  0  0
 18 19  1  0  0  0
 19 20  2  0  0  0
 20 21  1  0  0  0
 21 25  1  0  0  0
 25 26  1  0  0  0
 21 22  2  0  0  0
 22 27  1  0  0  0
 27 28  1  0  0  0
 19 13  1  0  0  0
 13 14  2  0  0  0
 13 15  1  0  0  0
 15  1  1  0  0  0
  1  2  1  0  0  0
  2  3  1  0  0  0
  3  4  1  0  0  0
  4  5  1  0  0  0
  5  6  1  0  0  0
  6  7  2  0  0  0
  7  8  1  0  0  0
  8  9  2  0  0  0
  9 10  1  0  0  0
  9 11  1  0  0  0
 11 12  2  0  0  0
  3 29  1  0  0  0
 29 30  2  0  0  0
 29 31  2  0  0  0
 29 32  1  0  0  0
 32 33  2  0  0  0
 33 34  1  0  0  0
 34 35  2  0  0  0
 35 36  1  0  0  0
 36 37  2  0  0  0
 22 17  1  0  0  0
  5  1  1  0  0  0
 12  6  1  0  0  0
 37 32  1  0  0  0
 15 16  1  0  0  0
M  END
> <minimizedAffinity>
-5.52808

> <CNNscore>
0.2704204917

> <CNNaffinity>
6.9799499512

> <CNN_VS>
1.8875215054

> <CNNaffinity_variance>
0.2787973583

$$$$
[H]c1c([H])c([H])c(S(=O)(=O)N2C([H])([H])[C@@]([H])(c3c([H])c([H])c(F)c([H])c3[H])[C@@]([H])(N([H])C(=O)c3c([H])c(OC([H])([H])[H])c(OC([H])([H])[H])c(OC([H])([H])[H])c3[H])C2([H])[H])c([H])c1[H]


 37 40  0  0  0  0  0  0  0  0999 V2000
   55.0267   -4.9316   -5.6989 C   0  0  0  0  0  0  0  0  0  0  0  0
   53.8021   -4.8816   -6.5860 C   0  0  0  0  0  0  0  0  0  0  0  0
   53.2142   -6.2017   -6.5197 N   0  0  0  0  0  0  0  0  0  0  0  0
   53.8557   -6.9555   -5.4942 C   0  0  0  0  0  0  0  0  0  0  0  0
   54.5866   -5.9482   -4.6695 C   0  0  0  0  0  0  0  0  0  0  0  0
   55.6618   -6.4505   -3.8332 C   0  0  0  0  0  0  0  0  0  0  0  0
   56.5923   -5.5806   -3.2712 C   0  0  0  0  0  0  0  0  0  0  0  0
   57.5772   -6.1315   -2.4777 C   0  0  0  0  0  0  0  0  0  0  0  0
   57.6573   -7.4830   -2.2381 C   0  0  0  0  0  0  0  0  0  0  0  0
   58.6253   -8.0207   -1.4605 F   0  0  0  0  0  0  0  0  0  0  0  0
   56.7338   -8.3707   -2.7928 C   0  0  0  0  0  0  0  0  0  0  0  0
   55.7554   -7.8048   -3.5827 C   0  0  0  0  0  0  0  0  0  0  0  0
   56.5123   -4.6192   -7.6265 C   0  0  0  0  0  0  0  0  0  0  0  0
   55.8556   -3.5853   -8.0002 O   0  0  0  0  0  0  0  0  0  0  0  0
   56.1419   -5.3433   -6.4691 N   0  0  0  0  0  0  0  0  0  0  0  0
   56.7052   -6.1774   -6.2090 H   0  0  0  0  0  0  0  0  0  0  0  0
   58.7175   -5.1430  -10.6430 C   0  0  0  0  0  0  0  0  0  0  0  0
   57.6347   -4.7838   -9.8616 C   0  0  0  0  0  0  0  0  0  0  0  0
   57.6458   -4.9701   -8.4804 C   0  0  0  0  0  0  0  0  0  0  0  0
   58.7856   -5.5301   -7.9297 C   0  0  0  0  0  0  0  0  0  0  0  0
   59.8690   -5.8898   -8.7129 C   0  0  0  0  0  0  0  0  0  0  0  0
   59.8506   -5.6994  -10.0985 C   0  0  0  0  0  0  0  0  0  0  0  0
   58.0037   -3.8903  -12.6534 C   0  0  0  0  0  0  0  0  0  0  0  0
   58.6657   -4.9418  -12.0103 O   0  0  0  0  0  0  0  0  0  0  0  0
   61.0109   -6.4509   -8.1797 O   0  0  0  0  0  0  0  0  0  0  0  0
   61.0690   -7.4198   -7.1687 C   0  0  0  0  0  0  0  0  0  0  0  0
   60.9634   -6.0770  -10.8433 O   0  0  0  0  0  0  0  0  0  0  0  0
   61.4548   -7.4136  -10.7800 C   0  0  0  0  0  0  0  0  0  0  0  0
   51.5385   -6.0899   -6.2450 S   0  0  0  0  0  0  0  0  0  0  0  0
   51.2521   -6.3312   -4.7708 O   0  0  0  0  0  0  0  0  0  0  0  0
   50.7551   -7.1174   -7.0016 O   0  0  0  0  0  0  0  0  0  0  0  0
   50.9772   -4.4682   -6.5965 C   0  0  0  0  0  0  0  0  0  0  0  0
   51.4876   -3.6901   -7.5814 C   0  0  0  0  0  0  0  0  0  0  0  0
   51.0012   -2.4133   -7.8146 C   0  0  0  0  0  0  0  0  0  0  0  0
   49.9867   -1.9088   -7.0481 C   0  0  0  0  0  0  0  0  0  0  0  0
   49.4690   -2.6864   -6.0550 C   0  0  0  0  0  0  0  0  0  0  0  0
   49.9373   -3.9546   -5.8078 C   0  0  0  0  0  0  0  0  0  0  0  0
 23 24  1  0  0  0
 24 17  1  0  0  0
 17 18  2  0  0  0
 18 19  1  0  0  0
 19 20  2  0  0  0
 20 21  1  0  0  0
 21 25  1  0  0  0
 25 26  1  0  0  0
 21 22  2  0  0  0
 22 27  1  0  0  0
 27 28  1  0  0  0
 19 13  1  0  0  0
 13 14  2  0  0  0
 13 15  1  0  0  0
 15  1  1  0  0  0
  1  2  1  0  0  0
  2  3  1  0  0  0
  3  4  1  0  0  0
  4  5  1  0  0  0
  5  6  1  0  0  0
  6  7  2  0  0  0
  7  8  1  0  0  0
  8  9  2  0  0  0
  9 10  1  0  0  0
  9 11  1  0  0  0
 11 12  2  0  0  0
  3 29  1  0  0  0
 29 30  2  0  0  0
 29 31  2  0  0  0
 29 32  1  0  0  0
 32 33  2  0  0  0
 33 34  1  0  0  0
 34 35  2  0  0  0
 35 36  1  0  0  0
 36 37  2  0  0  0
 22 17  1  0  0  0
  5  1  1  0  0  0
 12  6  1  0  0  0
 37 32  1  0  0  0
 15 16  1  0  0  0
M  END
> <minimizedAffinity>
-7.96032

> <CNNscore>
0.2693786323

> <CNNaffinity>
6.6586127281

> <CNN_VS>
1.7936879396

> <CNNaffinity_variance>
0.1983942688

$$$$
[H]c1c([H])c([H])c(S(=O)(=O)N2C([H])([H])[C@@]([H])(c3c([H])c([H])c(F)c([H])c3[H])[C@@]([H])(N([H])C(=O)c3c([H])c(OC([H])([H])[H])c(OC([H])([H])[H])c(OC([H])([H])[H])c3[H])C2([H])[H])c([H])c1[H]


 37 40  0  0  0  0  0  0  0  0999 V2000
   58.6477   -4.8787   -8.9435 C   0  0  0  0  0  0  0  0  0  0  0  0
   59.5356   -5.8494   -8.1963 C   0  0  0  0  0  0  0  0  0  0  0  0
   59.7170   -6.9786   -9.0821 N   0  0  0  0  0  0  0  0  0  0  0  0
   59.2019   -6.6572  -10.3716 C   0  0  0  0  0  0  0  0  0  0  0  0
   59.0502   -5.1719  -10.3714 C   0  0  0  0  0  0  0  0  0  0  0  0
   58.1561   -4.6103  -11.3679 C   0  0  0  0  0  0  0  0  0  0  0  0
   58.6579   -4.0489  -12.5390 C   0  0  0  0  0  0  0  0  0  0  0  0
   57.7453   -3.5472  -13.4437 C   0  0  0  0  0  0  0  0  0  0  0  0
   56.3894   -3.5882  -13.2189 C   0  0  0  0  0  0  0  0  0  0  0  0
   55.4966   -3.0940  -14.1075 F   0  0  0  0  0  0  0  0  0  0  0  0
   55.8675   -4.1467  -12.0509 C   0  0  0  0  0  0  0  0  0  0  0  0
   56.7922   -4.6443  -11.1571 C   0  0  0  0  0  0  0  0  0  0  0  0
   56.6106   -4.4732   -7.6373 C   0  0  0  0  0  0  0  0  0  0  0  0
   57.1968   -3.5624   -6.9541 O   0  0  0  0  0  0  0  0  0  0  0  0
   57.2922   -5.1753   -8.6589 N   0  0  0  0  0  0  0  0  0  0  0  0
   56.7733   -5.9078   -9.1832 H   0  0  0  0  0  0  0  0  0  0  0  0
   53.5082   -5.8051   -5.9529 C   0  0  0  0  0  0  0  0  0  0  0  0
   54.8392   -5.5887   -6.2588 C   0  0  0  0  0  0  0  0  0  0  0  0
   55.2145   -4.7118   -7.2749 C   0  0  0  0  0  0  0  0  0  0  0  0
   54.1976   -4.0713   -7.9616 C   0  0  0  0  0  0  0  0  0  0  0  0
   52.8652   -4.2890   -7.6548 C   0  0  0  0  0  0  0  0  0  0  0  0
   52.4963   -5.1704   -6.6333 C   0  0  0  0  0  0  0  0  0  0  0  0
   52.9537   -6.3358   -3.6010 C   0  0  0  0  0  0  0  0  0  0  0  0
   53.1782   -6.6841   -4.9373 O   0  0  0  0  0  0  0  0  0  0  0  0
   51.8402   -3.6604   -8.3311 O   0  0  0  0  0  0  0  0  0  0  0  0
   51.5056   -2.3013   -8.2597 C   0  0  0  0  0  0  0  0  0  0  0  0
   51.1444   -5.3564   -6.3623 O   0  0  0  0  0  0  0  0  0  0  0  0
   50.4380   -6.4550   -6.9334 C   0  0  0  0  0  0  0  0  0  0  0  0
   61.3619   -7.4068   -9.1654 S   0  0  0  0  0  0  0  0  0  0  0  0
   62.2130   -6.2280   -8.7187 O   0  0  0  0  0  0  0  0  0  0  0  0
   61.8051   -7.7459  -10.5549 O   0  0  0  0  0  0  0  0  0  0  0  0
   61.7023   -8.7114   -8.0470 C   0  0  0  0  0  0  0  0  0  0  0  0
   61.6544  -10.0236   -8.3815 C   0  0  0  0  0  0  0  0  0  0  0  0
   61.9361  -11.0135   -7.4530 C   0  0  0  0  0  0  0  0  0  0  0  0
   62.2712  -10.6822   -6.1688 C   0  0  0  0  0  0  0  0  0  0  0  0
   62.3207   -9.3636   -5.8256 C   0  0  0  0  0  0  0  0  0  0  0  0
   62.0450   -8.3674   -6.7312 C   0  0  0  0  0  0  0  0  0  0  0  0
 23 24  1  0  0  0
 24 17  1  0  0  0
 17 18  2  0  0  0
 18 19  1  0  0  0
 19 20  2  0  0  0
 20 21  1  0  0  0
 21 25  1  0  0  0
 25 26  1  0  0  0
 21 22  2  0  0  0
 22 27  1  0  0  0
 27 28  1  0  0  0
 19 13  1  0  0  0
 13 14  2  0  0  0
 13 15  1  0  0  0
 15  1  1  0  0  0
  1  2  1  0  0  0
  2  3  1  0  0  0
  3  4  1  0  0  0
  4  5  1  0  0  0
  5  6  1  0  0  0
  6  7  2  0  0  0
  7  8  1  0  0  0
  8  9  2  0  0  0
  9 10  1  0  0  0
  9 11  1  0  0  0
 11 12  2  0  0  0
  3 29  1  0  0  0
 29 30  2  0  0  0
 29 31  2  0  0  0
 29 32  1  0  0  0
 32 33  2  0  0  0
 33 34  1  0  0  0
 34 35  2  0  0  0
 35 36  1  0  0  0
 36 37  2  0  0  0
 22 17  1  0  0  0
  5  1  1  0  0  0
 12  6  1  0  0  0
 37 32  1  0  0  0
 15 16  1  0  0  0
M  END
> <minimizedAffinity>
-5.82173

> <CNNscore>
0.2484644353

> <CNNaffinity>
6.5046296120

> <CNN_VS>
1.6161690950

> <CNNaffinity_variance>
0.1360711753

$$$$
[H]c1c([H])c([H])c(S(=O)(=O)N2C([H])([H])[C@@]([H])(c3c([H])c([H])c(F)c([H])c3[H])[C@@]([H])(N([H])C(=O)c3c([H])c(OC([H])([H])[H])c(OC([H])([H])[H])c(OC([H])([H])[H])c3[H])C2([H])[H])c([H])c1[H]


 37 40  0  0  0  0  0  0  0  0999 V2000
   54.9997   -4.7900   -6.1664 C   0  0  0  0  0  0  0  0  0  0  0  0
   53.8001   -4.9355   -7.0768 C   0  0  0  0  0  0  0  0  0  0  0  0
   53.2582   -6.2493   -6.8066 N   0  0  0  0  0  0  0  0  0  0  0  0
   53.8966   -6.7981   -5.6564 C   0  0  0  0  0  0  0  0  0  0  0  0
   54.5669   -5.6406   -4.9933 C   0  0  0  0  0  0  0  0  0  0  0  0
   55.6350   -5.9552   -4.0617 C   0  0  0  0  0  0  0  0  0  0  0  0
   56.1395   -4.9829   -3.2023 C   0  0  0  0  0  0  0  0  0  0  0  0
   57.1451   -5.3612   -2.3369 C   0  0  0  0  0  0  0  0  0  0  0  0
   57.6457   -6.6414   -2.3071 C   0  0  0  0  0  0  0  0  0  0  0  0
   58.6331   -7.0093   -1.4581 F   0  0  0  0  0  0  0  0  0  0  0  0
   57.1529   -7.6296   -3.1610 C   0  0  0  0  0  0  0  0  0  0  0  0
   56.1479   -7.2362   -4.0192 C   0  0  0  0  0  0  0  0  0  0  0  0
   56.6337   -4.6213   -7.9891 C   0  0  0  0  0  0  0  0  0  0  0  0
   56.0485   -3.5816   -8.4545 O   0  0  0  0  0  0  0  0  0  0  0  0
   56.1506   -5.2777   -6.8329 N   0  0  0  0  0  0  0  0  0  0  0  0
   56.6591   -6.1195   -6.4962 H   0  0  0  0  0  0  0  0  0  0  0  0
   59.9660   -6.1432   -8.8921 C   0  0  0  0  0  0  0  0  0  0  0  0
   58.8574   -5.7655   -8.1570 C   0  0  0  0  0  0  0  0  0  0  0  0
   57.8114   -5.0527   -8.7402 C   0  0  0  0  0  0  0  0  0  0  0  0
   57.9337   -4.7407  -10.0832 C   0  0  0  0  0  0  0  0  0  0  0  0
   59.0442   -5.1190  -10.8182 C   0  0  0  0  0  0  0  0  0  0  0  0
   60.0899   -5.8345  -10.2260 C   0  0  0  0  0  0  0  0  0  0  0  0
   62.1836   -6.3049   -7.8074 C   0  0  0  0  0  0  0  0  0  0  0  0
   60.9826   -6.8493   -8.2751 O   0  0  0  0  0  0  0  0  0  0  0  0
   59.1821   -4.8138  -12.1566 O   0  0  0  0  0  0  0  0  0  0  0  0
   58.5798   -3.7445  -12.8334 C   0  0  0  0  0  0  0  0  0  0  0  0
   61.1853   -6.1920  -11.0058 O   0  0  0  0  0  0  0  0  0  0  0  0
   61.6973   -7.5218  -10.9651 C   0  0  0  0  0  0  0  0  0  0  0  0
   51.5723   -6.1611   -6.5917 S   0  0  0  0  0  0  0  0  0  0  0  0
   51.2263   -6.5381   -5.1593 O   0  0  0  0  0  0  0  0  0  0  0  0
   50.8230   -7.1125   -7.4722 O   0  0  0  0  0  0  0  0  0  0  0  0
   51.0221   -4.5128   -6.8135 C   0  0  0  0  0  0  0  0  0  0  0  0
   51.5542   -3.6551   -7.7174 C   0  0  0  0  0  0  0  0  0  0  0  0
   51.0756   -2.3609   -7.8496 C   0  0  0  0  0  0  0  0  0  0  0  0
   50.0471   -1.9200   -7.0629 C   0  0  0  0  0  0  0  0  0  0  0  0
   49.5075   -2.7780   -6.1509 C   0  0  0  0  0  0  0  0  0  0  0  0
   49.9677   -4.0647   -6.0045 C   0  0  0  0  0  0  0  0  0  0  0  0
 23 24  1  0  0  0
 24 17  1  0  0  0
 17 18  2  0  0  0
 18 19  1  0  0  0
 19 20  2  0  0  0
 20 21  1  0  0  0
 21 25  1  0  0  0
 25 26  1  0  0  0
 21 22  2  0  0  0
 22 27  1  0  0  0
 27 28  1  0  0  0
 19 13  1  0  0  0
 13 14  2  0  0  0
 13 15  1  0  0  0
 15  1  1  0  0  0
  1  2  1  0  0  0
  2  3  1  0  0  0
  3  4  1  0  0  0
  4  5  1  0  0  0
  5  6  1  0  0  0
  6  7  2  0  0  0
  7  8  1  0  0  0
  8  9  2  0  0  0
  9 10  1  0  0  0
  9 11  1  0  0  0
 11 12  2  0  0  0
  3 29  1  0  0  0
 29 30  2  0  0  0
 29 31  2  0  0  0
 29 32  1  0  0  0
 32 33  2  0  0  0
 33 34  1  0  0  0
 34 35  2  0  0  0
 35 36  1  0  0  0
 36 37  2  0  0  0
 22 17  1  0  0  0
  5  1  1  0  0  0
 12  6  1  0  0  0
 37 32  1  0  0  0
 15 16  1  0  0  0
M  END
> <minimizedAffinity>
-8.30605

> <CNNscore>
0.2401771545

> <CNNaffinity>
6.5582199097

> <CNN_VS>
1.5751346350

> <CNNaffinity_variance>
0.2002238482

$$$$
[H]C1=C([H])C([H])(F)C([H])([H])C([H])=C1N([H])C(=O)C1(C(=O)N([H])c2c([H])c([H])c(Oc3c([H])c([H])nc4c([H])c(OC([H])([H])C([H])([H])C([H])([H])N(C([H])([H])[H])C([H])([H])[H])c(OC([H])([H])[H])c([H])c34)c(F)c2[H])C([H])([H])C1([H])[H]


 45 49  0  0  0  0  0  0  0  0999 V2000
   55.4695   -4.2293   -9.1985 C   0  0  0  0  0  0  0  0  0  0  0  0
   56.0783   -4.3938   -7.9550 C   0  0  0  0  0  0  0  0  0  0  0  0
   57.3758   -4.8483   -7.7910 C   0  0  0  0  0  0  0  0  0  0  0  0
   58.1512   -5.1706   -8.9020 C   0  0  0  0  0  0  0  0  0  0  0  0
   57.6004   -5.0235  -10.1376 C   0  0  0  0  0  0  0  0  0  0  0  0
   56.3220   -4.5747  -10.2719 C   0  0  0  0  0  0  0  0  0  0  0  0
   55.8088   -4.4408  -11.5212 F   0  0  0  0  0  0  0  0  0  0  0  0
   59.4707   -5.6132   -8.6126 N   0  0  0  0  0  0  0  0  0  0  0  0
   60.0650   -6.7093   -9.2541 C   0  0  0  0  0  0  0  0  0  0  0  0
   59.3323   -7.3222  -10.1184 O   0  0  0  0  0  0  0  0  0  0  0  0
   59.9652   -5.0750   -7.8472 H   0  0  0  0  0  0  0  0  0  0  0  0
   61.4247   -7.2157   -9.0144 C   0  0  0  0  0  0  0  0  0  0  0  0
   62.4539   -6.6649   -9.9678 C   0  0  0  0  0  0  0  0  0  0  0  0
   62.4754   -6.1626   -8.5873 C   0  0  0  0  0  0  0  0  0  0  0  0
   61.6863   -8.5476   -8.4844 C   0  0  0  0  0  0  0  0  0  0  0  0
   62.6912   -8.6322   -7.6477 O   0  0  0  0  0  0  0  0  0  0  0  0
   61.0421   -9.7632   -8.7074 N   0  0  0  0  0  0  0  0  0  0  0  0
   60.1985   -9.8669   -9.2837 H   0  0  0  0  0  0  0  0  0  0  0  0
   61.4981  -10.9802   -8.0829 C   0  0  0  0  0  0  0  0  0  0  0  0
   62.4490  -11.6863   -8.6491 C   0  0  0  0  0  0  0  0  0  0  0  0
   62.9690  -12.9330   -8.0884 C   0  0  0  0  0  0  0  0  0  0  0  0
   62.4765  -13.2956   -6.7458 C   0  0  0  0  0  0  0  0  0  0  0  0
   61.9453  -14.6142   -6.8193 F   0  0  0  0  0  0  0  0  0  0  0  0
   61.4323  -12.4596   -6.2113 C   0  0  0  0  0  0  0  0  0  0  0  0
   60.9472  -11.3840   -6.7877 C   0  0  0  0  0  0  0  0  0  0  0  0
   54.2343   -3.8111   -9.4566 O   0  0  0  0  0  0  0  0  0  0  0  0
   53.1324   -6.0812   -6.3189 C   0  0  0  0  0  0  0  0  0  0  0  0
   53.4665   -5.2610   -7.3812 C   0  0  0  0  0  0  0  0  0  0  0  0
   52.7334   -4.1319   -7.7120 C   0  0  0  0  0  0  0  0  0  0  0  0
   53.1672   -3.3767   -8.8286 C   0  0  0  0  0  0  0  0  0  0  0  0
   52.3712   -2.2724   -9.0879 C   0  0  0  0  0  0  0  0  0  0  0  0
   51.2684   -1.9671   -8.3138 C   0  0  0  0  0  0  0  0  0  0  0  0
   50.9213   -2.7310   -7.2748 N   0  0  0  0  0  0  0  0  0  0  0  0
   51.6431   -3.8166   -6.9624 C   0  0  0  0  0  0  0  0  0  0  0  0
   51.2950   -4.6370   -5.8869 C   0  0  0  0  0  0  0  0  0  0  0  0
   52.0166   -5.7506   -5.5588 C   0  0  0  0  0  0  0  0  0  0  0  0
   55.2083   -7.0737   -5.5135 C   0  0  0  0  0  0  0  0  0  0  0  0
   53.8869   -7.2240   -6.0015 O   0  0  0  0  0  0  0  0  0  0  0  0
   51.6692   -6.5327   -4.5115 O   0  0  0  0  0  0  0  0  0  0  0  0
   51.6158   -6.3321   -3.1587 C   0  0  0  0  0  0  0  0  0  0  0  0
   52.9516   -5.9628   -2.5839 C   0  0  0  0  0  0  0  0  0  0  0  0
   52.7589   -5.0940   -1.3339 C   0  0  0  0  0  0  0  0  0  0  0  0
   53.8276   -5.3327   -0.3877 N   0  0  0  0  0  0  0  0  0  0  0  0
   53.5146   -6.5321    0.3605 C   0  0  0  0  0  0  0  0  0  0  0  0
   55.1327   -5.4151   -0.9999 C   0  0  0  0  0  0  0  0  0  0  0  0
 37 38  1  0  0  0
 38 27  1  0  0  0
 27 28  2  0  0  0
 28 29  1  0  0  0
 29 30  2  0  0  0
 30 26  1  0  0  0
 26  1  1  0  0  0
  1  2  2  0  0  0
  2  3  1  0  0  0
  3  4  2  0  0  0
  4  8  1  0  0  0
  8  9  1  0  0  0
  9 10  2  0  0  0
  9 12  1  0  0  0
 12 13  1  0  0  0
 13 14  1  0  0  0
 12 15  1  0  0  0
 15 16  2  0  0  0
 15 17  1  0  0  0
 17 19  1  0  0  0
 19 20  2  0  0  0
 20 21  1  0  0  0
 21 22  1  0  0  0
 22 23  1  0  0  0
 22 24  1  0  0  0
 24 25  2  0  0  0
  4  5  1  0  0  0
  5  6  2  0  0  0
  6  7  1  0  0  0
 30 31  1  0  0  0
 31 32  2  0  0  0
 32 33  1  0  0  0
 33 34  2  0  0  0
 34 35  1  0  0  0
 35 36  2  0  0  0
 36 39  1  0  0  0
 39 40  1  0  0  0
 40 41  1  0  0  0
 41 42  1  0  0  0
 42 43  1  0  0  0
 43 44  1  0  0  0
 43 45  1  0  0  0
 36 27  1  0  0  0
 34 29  1  0  0  0
  6  1  1  0  0  0
 14 12  1  0  0  0
 25 19  1  0  0  0
  8 11  1  0  0  0
 17 18  1  0  0  0
M  END
> <minimizedAffinity>
-9.16194

> <CNNscore>
0.7043803930

> <CNNaffinity>
7.5972709656

> <CNN_VS>
5.3513689041

> <CNNaffinity_variance>
0.0655351281

$$$$
[H]C1=C([H])C([H])(F)C([H])([H])C([H])=C1N([H])C(=O)C1(C(=O)N([H])c2c([H])c([H])c(Oc3c([H])c([H])nc4c([H])c(OC([H])([H])C([H])([H])C([H])([H])N(C([H])([H])[H])C([H])([H])[H])c(OC([H])([H])[H])c([H])c34)c(F)c2[H])C([H])([H])C1([H])[H]


 45 49  0  0  0  0  0  0  0  0999 V2000
   55.8575   -5.3667   -5.4870 C   0  0  0  0  0  0  0  0  0  0  0  0
   56.1938   -4.7516   -4.2818 C   0  0  0  0  0  0  0  0  0  0  0  0
   56.0579   -5.3613   -3.0461 C   0  0  0  0  0  0  0  0  0  0  0  0
   55.5620   -6.6595   -2.9558 C   0  0  0  0  0  0  0  0  0  0  0  0
   55.2225   -7.3017   -4.1065 C   0  0  0  0  0  0  0  0  0  0  0  0
   55.3656   -6.6801   -5.3093 C   0  0  0  0  0  0  0  0  0  0  0  0
   55.0166   -7.3542   -6.4343 F   0  0  0  0  0  0  0  0  0  0  0  0
   55.4794   -7.1867   -1.6383 N   0  0  0  0  0  0  0  0  0  0  0  0
   56.5770   -7.7513   -0.9730 C   0  0  0  0  0  0  0  0  0  0  0  0
   57.6798   -7.7915   -1.6376 O   0  0  0  0  0  0  0  0  0  0  0  0
   54.5150   -7.1551   -1.2035 H   0  0  0  0  0  0  0  0  0  0  0  0
   56.5683   -8.3046    0.3896 C   0  0  0  0  0  0  0  0  0  0  0  0
   55.8370   -7.4450    1.3885 C   0  0  0  0  0  0  0  0  0  0  0  0
   55.1803   -8.6866    0.9579 C   0  0  0  0  0  0  0  0  0  0  0  0
   57.6569   -9.1178    0.9156 C   0  0  0  0  0  0  0  0  0  0  0  0
   57.9981   -8.8661    2.1556 O   0  0  0  0  0  0  0  0  0  0  0  0
   58.4048  -10.1359    0.3269 N   0  0  0  0  0  0  0  0  0  0  0  0
   58.2291  -10.5037   -0.6156 H   0  0  0  0  0  0  0  0  0  0  0  0
   59.4689  -10.7955    1.0421 C   0  0  0  0  0  0  0  0  0  0  0  0
   60.6788  -10.2863    1.0251 C   0  0  0  0  0  0  0  0  0  0  0  0
   61.8166  -10.8899    1.7180 C   0  0  0  0  0  0  0  0  0  0  0  0
   61.5098  -12.0417    2.5875 C   0  0  0  0  0  0  0  0  0  0  0  0
   62.3457  -13.1225    2.1878 F   0  0  0  0  0  0  0  0  0  0  0  0
   60.1546  -12.5271    2.5345 C   0  0  0  0  0  0  0  0  0  0  0  0
   59.1793  -11.9895    1.8388 C   0  0  0  0  0  0  0  0  0  0  0  0
   55.9423   -4.8637   -6.7147 O   0  0  0  0  0  0  0  0  0  0  0  0
   57.6841   -4.9945  -10.3425 C   0  0  0  0  0  0  0  0  0  0  0  0
   57.0326   -4.9341   -9.1241 C   0  0  0  0  0  0  0  0  0  0  0  0
   55.7222   -4.4994   -8.9989 C   0  0  0  0  0  0  0  0  0  0  0  0
   55.1661   -4.4709   -7.6969 C   0  0  0  0  0  0  0  0  0  0  0  0
   53.8571   -4.0168   -7.6683 C   0  0  0  0  0  0  0  0  0  0  0  0
   53.1894   -3.6358   -8.8160 C   0  0  0  0  0  0  0  0  0  0  0  0
   53.7836   -3.6897  -10.0108 N   0  0  0  0  0  0  0  0  0  0  0  0
   55.0494   -4.1181  -10.1179 C   0  0  0  0  0  0  0  0  0  0  0  0
   55.6963   -4.1744  -11.3545 C   0  0  0  0  0  0  0  0  0  0  0  0
   56.9882   -4.6029  -11.4802 C   0  0  0  0  0  0  0  0  0  0  0  0
   59.6759   -5.9385   -9.3008 C   0  0  0  0  0  0  0  0  0  0  0  0
   59.0148   -5.4352  -10.4483 O   0  0  0  0  0  0  0  0  0  0  0  0
   57.5995   -4.6559  -12.6855 O   0  0  0  0  0  0  0  0  0  0  0  0
   58.3205   -3.7540  -13.4203 C   0  0  0  0  0  0  0  0  0  0  0  0
   57.7263   -3.5200  -14.7780 C   0  0  0  0  0  0  0  0  0  0  0  0
   58.7694   -2.8730  -15.6989 C   0  0  0  0  0  0  0  0  0  0  0  0
   58.1589   -2.4822  -16.9514 N   0  0  0  0  0  0  0  0  0  0  0  0
   59.1096   -2.7229  -18.0165 C   0  0  0  0  0  0  0  0  0  0  0  0
   56.8981   -3.1374  -17.2081 C   0  0  0  0  0  0  0  0  0  0  0  0
 37 38  1  0  0  0
 38 27  1  0  0  0
 27 28  2  0  0  0
 28 29  1  0  0  0
 29 30  2  0  0  0
 30 26  1  0  0  0
 26  1  1  0  0  0
  1  2  2  0  0  0
  2  3  1  0  0  0
  3  4  2  0  0  0
  4  8  1  0  0  0
  8  9  1  0  0  0
  9 10  2  0  0  0
  9 12  1  0  0  0
 12 13  1  0  0  0
 13 14  1  0  0  0
 12 15  1  0  0  0
 15 16  2  0  0  0
 15 17  1  0  0  0
 17 19  1  0  0  0
 19 20  2  0  0  0
 20 21  1  0  0  0
 21 22  1  0  0  0
 22 23  1  0  0  0
 22 24  1  0  0  0
 24 25  2  0  0  0
  4  5  1  0  0  0
  5  6  2  0  0  0
  6  7  1  0  0  0
 30 31  1  0  0  0
 31 32  2  0  0  0
 32 33  1  0  0  0
 33 34  2  0  0  0
 34 35  1  0  0  0
 35 36  2  0  0  0
 36 39  1  0  0  0
 39 40  1  0  0  0
 40 41  1  0  0  0
 41 42  1  0  0  0
 42 43  1  0  0  0
 43 44  1  0  0  0
 43 45  1  0  0  0
 36 27  1  0  0  0
 34 29  1  0  0  0
  6  1  1  0  0  0
 14 12  1  0  0  0
 25 19  1  0  0  0
  8 11  1  0  0  0
 17 18  1  0  0  0
M  END
> <minimizedAffinity>
-6.91323

> <CNNscore>
0.5314359665

> <CNNaffinity>
6.8715958595

> <CNN_VS>
3.6518132687

> <CNNaffinity_variance>
0.2434201688

$$$$
[H]C1=C([H])C([H])(F)C([H])([H])C([H])=C1N([H])C(=O)C1(C(=O)N([H])c2c([H])c([H])c(Oc3c([H])c([H])nc4c([H])c(OC([H])([H])C([H])([H])C([H])([H])N(C([H])([H])[H])C([H])([H])[H])c(OC([H])([H])[H])c([H])c34)c(F)c2[H])C([H])([H])C1([H])[H]


 45 49  0  0  0  0  0  0  0  0999 V2000
   55.4683   -5.8613   -5.3581 C   0  0  0  0  0  0  0  0  0  0  0  0
   55.4570   -5.2519   -4.1042 C   0  0  0  0  0  0  0  0  0  0  0  0
   55.1372   -5.9160   -2.9321 C   0  0  0  0  0  0  0  0  0  0  0  0
   54.8022   -7.2674   -2.9613 C   0  0  0  0  0  0  0  0  0  0  0  0
   54.8020   -7.9060   -4.1629 C   0  0  0  0  0  0  0  0  0  0  0  0
   55.1202   -7.2303   -5.3012 C   0  0  0  0  0  0  0  0  0  0  0  0
   55.1094   -7.9027   -6.4801 F   0  0  0  0  0  0  0  0  0  0  0  0
   54.5060   -7.8459   -1.6971 N   0  0  0  0  0  0  0  0  0  0  0  0
   53.2011   -7.9550   -1.1956 C   0  0  0  0  0  0  0  0  0  0  0  0
   52.2680   -7.4731   -1.9417 O   0  0  0  0  0  0  0  0  0  0  0  0
   55.3494   -8.1596   -1.1401 H   0  0  0  0  0  0  0  0  0  0  0  0
   52.8197   -8.5494    0.0944 C   0  0  0  0  0  0  0  0  0  0  0  0
   53.9944   -8.9823    0.9335 C   0  0  0  0  0  0  0  0  0  0  0  0
   53.2701   -7.7763    1.3572 C   0  0  0  0  0  0  0  0  0  0  0  0
   51.5847   -9.2998    0.2805 C   0  0  0  0  0  0  0  0  0  0  0  0
   51.5359  -10.4610   -0.3248 O   0  0  0  0  0  0  0  0  0  0  0  0
   50.4327   -8.9998    1.0054 N   0  0  0  0  0  0  0  0  0  0  0  0
   50.3258   -8.1621    1.5897 H   0  0  0  0  0  0  0  0  0  0  0  0
   49.3042   -9.8970    1.0270 C   0  0  0  0  0  0  0  0  0  0  0  0
   49.0819  -10.6388    2.0870 C   0  0  0  0  0  0  0  0  0  0  0  0
   47.9653  -11.5774    2.1935 C   0  0  0  0  0  0  0  0  0  0  0  0
   46.9832  -11.5446    1.0930 C   0  0  0  0  0  0  0  0  0  0  0  0
   46.8586  -12.8676    0.5823 F   0  0  0  0  0  0  0  0  0  0  0  0
   47.3187  -10.7008   -0.0252 C   0  0  0  0  0  0  0  0  0  0  0  0
   48.3749   -9.9246   -0.1042 C   0  0  0  0  0  0  0  0  0  0  0  0
   55.7504   -5.3096   -6.5343 O   0  0  0  0  0  0  0  0  0  0  0  0
   57.9263   -5.2607   -9.9218 C   0  0  0  0  0  0  0  0  0  0  0  0
   57.1312   -5.2541   -8.7902 C   0  0  0  0  0  0  0  0  0  0  0  0
   55.8587   -4.7044   -8.7750 C   0  0  0  0  0  0  0  0  0  0  0  0
   55.1443   -4.7472   -7.5531 C   0  0  0  0  0  0  0  0  0  0  0  0
   53.8872   -4.1690   -7.6310 C   0  0  0  0  0  0  0  0  0  0  0  0
   53.4086   -3.6131   -8.8015 C   0  0  0  0  0  0  0  0  0  0  0  0
   54.1447   -3.6098   -9.9159 N   0  0  0  0  0  0  0  0  0  0  0  0
   55.3713   -4.1505   -9.9178 C   0  0  0  0  0  0  0  0  0  0  0  0
   56.1646   -4.1508  -11.0675 C   0  0  0  0  0  0  0  0  0  0  0  0
   57.4195   -4.6925  -11.0846 C   0  0  0  0  0  0  0  0  0  0  0  0
   59.9251   -5.9249   -8.6940 C   0  0  0  0  0  0  0  0  0  0  0  0
   59.2159   -5.8203   -9.9160 O   0  0  0  0  0  0  0  0  0  0  0  0
   58.1737   -4.6889  -12.2072 O   0  0  0  0  0  0  0  0  0  0  0  0
   58.5882   -3.7059  -13.0646 C   0  0  0  0  0  0  0  0  0  0  0  0
   60.0769   -3.7033  -13.2520 C   0  0  0  0  0  0  0  0  0  0  0  0
   60.4223   -3.2412  -14.6739 C   0  0  0  0  0  0  0  0  0  0  0  0
   61.4080   -4.1227  -15.2620 N   0  0  0  0  0  0  0  0  0  0  0  0
   62.1885   -3.3622  -16.2152 C   0  0  0  0  0  0  0  0  0  0  0  0
   62.2505   -4.7773  -14.2890 C   0  0  0  0  0  0  0  0  0  0  0  0
 37 38  1  0  0  0
 38 27  1  0  0  0
 27 28  2  0  0  0
 28 29  1  0  0  0
 29 30  2  0  0  0
 30 26  1  0  0  0
 26  1  1  0  0  0
  1  2  2  0  0  0
  2  3  1  0  0  0
  3  4  2  0  0  0
  4  8  1  0  0  0
  8  9  1  0  0  0
  9 10  2  0  0  0
  9 12  1  0  0  0
 12 13  1  0  0  0
 13 14  1  0  0  0
 12 15  1  0  0  0
 15 16  2  0  0  0
 15 17  1  0  0  0
 17 19  1  0  0  0
 19 20  2  0  0  0
 20 21  1  0  0  0
 21 22  1  0  0  0
 22 23  1  0  0  0
 22 24  1  0  0  0
 24 25  2  0  0  0
  4  5  1  0  0  0
  5  6  2  0  0  0
  6  7  1  0  0  0
 30 31  1  0  0  0
 31 32  2  0  0  0
 32 33  1  0  0  0
 33 34  2  0  0  0
 34 35  1  0  0  0
 35 36  2  0  0  0
 36 39  1  0  0  0
 39 40  1  0  0  0
 40 41  1  0  0  0
 41 42  1  0  0  0
 42 43  1  0  0  0
 43 44  1  0  0  0
 43 45  1  0  0  0
 36 27  1  0  0  0
 34 29  1  0  0  0
  6  1  1  0  0  0
 14 12  1  0  0  0
 25 19  1  0  0  0
  8 11  1  0  0  0
 17 18  1  0  0  0
M  END
> <minimizedAffinity>
-9.48380

> <CNNscore>
0.4449390471

> <CNNaffinity>
6.8481063843

> <CNN_VS>
3.0469899178

> <CNNaffinity_variance>
0.0958897248

$$$$
[H]C1=C([H])C([H])(F)C([H])([H])C([H])=C1N([H])C(=O)C1(C(=O)N([H])c2c([H])c([H])c(Oc3c([H])c([H])nc4c([H])c(OC([H])([H])C([H])([H])C([H])([H])N(C([H])([H])[H])C([H])([H])[H])c(OC([H])([H])[H])c([H])c34)c(F)c2[H])C([H])([H])C1([H])[H]


 45 49  0  0  0  0  0  0  0  0999 V2000
   55.5608   -4.2725   -9.1796 C   0  0  0  0  0  0  0  0  0  0  0  0
   56.1788   -4.4600   -7.9440 C   0  0  0  0  0  0  0  0  0  0  0  0
   57.4787   -4.9139   -7.7982 C   0  0  0  0  0  0  0  0  0  0  0  0
   58.2471   -5.2117   -8.9208 C   0  0  0  0  0  0  0  0  0  0  0  0
   57.6871   -5.0417  -10.1493 C   0  0  0  0  0  0  0  0  0  0  0  0
   56.4067   -4.5940  -10.2657 C   0  0  0  0  0  0  0  0  0  0  0  0
   55.8842   -4.4367  -11.5084 F   0  0  0  0  0  0  0  0  0  0  0  0
   59.5698   -5.6562   -8.6495 N   0  0  0  0  0  0  0  0  0  0  0  0
   60.1399   -6.7767   -9.2704 C   0  0  0  0  0  0  0  0  0  0  0  0
   59.3817   -7.4101  -10.0971 O   0  0  0  0  0  0  0  0  0  0  0  0
   60.0870   -5.0985   -7.9136 H   0  0  0  0  0  0  0  0  0  0  0  0
   61.5011   -7.2868   -9.0478 C   0  0  0  0  0  0  0  0  0  0  0  0
   62.1572   -7.8277  -10.2921 C   0  0  0  0  0  0  0  0  0  0  0  0
   62.6362   -6.5352   -9.7839 C   0  0  0  0  0  0  0  0  0  0  0  0
   61.9208   -7.8851   -7.7872 C   0  0  0  0  0  0  0  0  0  0  0  0
   61.6606   -7.1778   -6.7151 O   0  0  0  0  0  0  0  0  0  0  0  0
   62.5520   -9.0977   -7.5158 N   0  0  0  0  0  0  0  0  0  0  0  0
   62.7710   -9.8018   -8.2305 H   0  0  0  0  0  0  0  0  0  0  0  0
   62.9000   -9.4781   -6.1692 C   0  0  0  0  0  0  0  0  0  0  0  0
   62.0891  -10.2458   -5.4790 C   0  0  0  0  0  0  0  0  0  0  0  0
   62.3601  -10.6766   -4.1078 C   0  0  0  0  0  0  0  0  0  0  0  0
   63.6899  -10.3312   -3.5703 C   0  0  0  0  0  0  0  0  0  0  0  0
   63.4953   -9.6331   -2.3450 F   0  0  0  0  0  0  0  0  0  0  0  0
   64.5047   -9.4838   -4.4027 C   0  0  0  0  0  0  0  0  0  0  0  0
   64.1862   -9.0636   -5.6054 C   0  0  0  0  0  0  0  0  0  0  0  0
   54.3226   -3.8529   -9.4207 O   0  0  0  0  0  0  0  0  0  0  0  0
   53.3822   -6.1703   -6.2651 C   0  0  0  0  0  0  0  0  0  0  0  0
   53.6592   -5.3360   -7.3328 C   0  0  0  0  0  0  0  0  0  0  0  0
   52.8678   -4.2434   -7.6515 C   0  0  0  0  0  0  0  0  0  0  0  0
   53.2466   -3.4693   -8.7752 C   0  0  0  0  0  0  0  0  0  0  0  0
   52.3947   -2.4043   -9.0212 C   0  0  0  0  0  0  0  0  0  0  0  0
   51.2916   -2.1513   -8.2290 C   0  0  0  0  0  0  0  0  0  0  0  0
   50.9985   -2.9300   -7.1844 N   0  0  0  0  0  0  0  0  0  0  0  0
   51.7762   -3.9797   -6.8840 C   0  0  0  0  0  0  0  0  0  0  0  0
   51.4855   -4.8149   -5.8028 C   0  0  0  0  0  0  0  0  0  0  0  0
   52.2646   -5.8926   -5.4867 C   0  0  0  0  0  0  0  0  0  0  0  0
   55.4088   -7.0756   -5.2568 C   0  0  0  0  0  0  0  0  0  0  0  0
   54.1954   -7.2756   -5.9602 O   0  0  0  0  0  0  0  0  0  0  0  0
   51.9723   -6.6895   -4.4337 O   0  0  0  0  0  0  0  0  0  0  0  0
   51.9081   -6.4843   -3.0820 C   0  0  0  0  0  0  0  0  0  0  0  0
   52.9367   -7.2814   -2.3350 C   0  0  0  0  0  0  0  0  0  0  0  0
   52.2914   -8.5426   -1.7455 C   0  0  0  0  0  0  0  0  0  0  0  0
   51.2995   -8.1823   -0.7552 N   0  0  0  0  0  0  0  0  0  0  0  0
   50.2802   -9.2104   -0.7361 C   0  0  0  0  0  0  0  0  0  0  0  0
   51.8518   -7.9587    0.5600 C   0  0  0  0  0  0  0  0  0  0  0  0
 37 38  1  0  0  0
 38 27  1  0  0  0
 27 28  2  0  0  0
 28 29  1  0  0  0
 29 30  2  0  0  0
 30 26  1  0  0  0
 26  1  1  0  0  0
  1  2  2  0  0  0
  2  3  1  0  0  0
  3  4  2  0  0  0
  4  8  1  0  0  0
  8  9  1  0  0  0
  9 10  2  0  0  0
  9 12  1  0  0  0
 12 13  1  0  0  0
 13 14  1  0  0  0
 12 15  1  0  0  0
 15 16  2  0  0  0
 15 17  1  0  0  0
 17 19  1  0  0  0
 19 20  2  0  0  0
 20 21  1  0  0  0
 21 22  1  0  0  0
 22 23  1  0  0  0
 22 24  1  0  0  0
 24 25  2  0  0  0
  4  5  1  0  0  0
  5  6  2  0  0  0
  6  7  1  0  0  0
 30 31  1  0  0  0
 31 32  2  0  0  0
 32 33  1  0  0  0
 33 34  2  0  0  0
 34 35  1  0  0  0
 35 36  2  0  0  0
 36 39  1  0  0  0
 39 40  1  0  0  0
 40 41  1  0  0  0
 41 42  1  0  0  0
 42 43  1  0  0  0
 43 44  1  0  0  0
 43 45  1  0  0  0
 36 27  1  0  0  0
 34 29  1  0  0  0
  6  1  1  0  0  0
 14 12  1  0  0  0
 25 19  1  0  0  0
  8 11  1  0  0  0
 17 18  1  0  0  0
M  END
> <minimizedAffinity>
-8.59793

> <CNNscore>
0.3650117815

> <CNNaffinity>
7.2161927223

> <CNN_VS>
2.6339952946

> <CNNaffinity_variance>
0.0568623245

$$$$
[H]C1=C([H])C([H])(F)C([H])([H])C([H])=C1N([H])C(=O)C1(C(=O)N([H])c2c([H])c([H])c(Oc3c([H])c([H])nc4c([H])c(OC([H])([H])C([H])([H])C([H])([H])N(C([H])([H])[H])C([H])([H])[H])c(OC([H])([H])[H])c([H])c34)c(F)c2[H])C([H])([H])C1([H])[H]


 45 49  0  0  0  0  0  0  0  0999 V2000
   55.7819   -4.3609  -10.0226 C   0  0  0  0  0  0  0  0  0  0  0  0
   55.5705   -3.7908  -11.2773 C   0  0  0  0  0  0  0  0  0  0  0  0
   56.5797   -3.5725  -12.1999 C   0  0  0  0  0  0  0  0  0  0  0  0
   57.8926   -3.9266  -11.8994 C   0  0  0  0  0  0  0  0  0  0  0  0
   58.1474   -4.4892  -10.6868 C   0  0  0  0  0  0  0  0  0  0  0  0
   57.1373   -4.6933   -9.7970 C   0  0  0  0  0  0  0  0  0  0  0  0
   57.4318   -5.2576   -8.5984 F   0  0  0  0  0  0  0  0  0  0  0  0
   58.8404   -3.6682  -12.9267 N   0  0  0  0  0  0  0  0  0  0  0  0
   60.1400   -4.1944  -12.9147 C   0  0  0  0  0  0  0  0  0  0  0  0
   60.4461   -4.9181  -11.8940 O   0  0  0  0  0  0  0  0  0  0  0  0
   58.5057   -3.0165  -13.6905 H   0  0  0  0  0  0  0  0  0  0  0  0
   61.1672   -3.9792  -13.9450 C   0  0  0  0  0  0  0  0  0  0  0  0
   60.6896   -3.1587  -15.1155 C   0  0  0  0  0  0  0  0  0  0  0  0
   61.6076   -2.5124  -14.1679 C   0  0  0  0  0  0  0  0  0  0  0  0
   62.2157   -4.9513  -14.2259 C   0  0  0  0  0  0  0  0  0  0  0  0
   62.1351   -5.5439  -15.3919 O   0  0  0  0  0  0  0  0  0  0  0  0
   63.3092   -5.3622  -13.4657 N   0  0  0  0  0  0  0  0  0  0  0  0
   63.5593   -4.9562  -12.5562 H   0  0  0  0  0  0  0  0  0  0  0  0
   64.2179   -6.3745  -13.9435 C   0  0  0  0  0  0  0  0  0  0  0  0
   65.4574   -6.0532  -14.2331 C   0  0  0  0  0  0  0  0  0  0  0  0
   66.4442   -7.0133  -14.7265 C   0  0  0  0  0  0  0  0  0  0  0  0
   66.0229   -8.4272  -14.7404 C   0  0  0  0  0  0  0  0  0  0  0  0
   66.2219   -8.9269  -16.0584 F   0  0  0  0  0  0  0  0  0  0  0  0
   64.6434   -8.6763  -14.4088 C   0  0  0  0  0  0  0  0  0  0  0  0
   63.7728   -7.7664  -14.0369 C   0  0  0  0  0  0  0  0  0  0  0  0
   54.8855   -4.6006   -9.0705 O   0  0  0  0  0  0  0  0  0  0  0  0
   53.6273   -6.3279   -5.6580 C   0  0  0  0  0  0  0  0  0  0  0  0
   54.0119   -5.6951   -6.8260 C   0  0  0  0  0  0  0  0  0  0  0  0
   53.2544   -4.6967   -7.4186 C   0  0  0  0  0  0  0  0  0  0  0  0
   53.7463   -4.1308   -8.6199 C   0  0  0  0  0  0  0  0  0  0  0  0
   52.9210   -3.1478   -9.1426 C   0  0  0  0  0  0  0  0  0  0  0  0
   51.7399   -2.7805   -8.5274 C   0  0  0  0  0  0  0  0  0  0  0  0
   51.3415   -3.3633   -7.3937 N   0  0  0  0  0  0  0  0  0  0  0  0
   52.0873   -4.3231   -6.8283 C   0  0  0  0  0  0  0  0  0  0  0  0
   51.6875   -4.9547   -5.6484 C   0  0  0  0  0  0  0  0  0  0  0  0
   52.4331   -5.9391   -5.0623 C   0  0  0  0  0  0  0  0  0  0  0  0
   55.8206   -7.2601   -5.1446 C   0  0  0  0  0  0  0  0  0  0  0  0
   54.4080   -7.3408   -5.0743 O   0  0  0  0  0  0  0  0  0  0  0  0
   52.0347   -6.5382   -3.9170 O   0  0  0  0  0  0  0  0  0  0  0  0
   51.4615   -6.0816   -2.7611 C   0  0  0  0  0  0  0  0  0  0  0  0
   52.3417   -6.2958   -1.5650 C   0  0  0  0  0  0  0  0  0  0  0  0
   53.1623   -7.5798   -1.7452 C   0  0  0  0  0  0  0  0  0  0  0  0
   52.8119   -8.5460   -0.7264 N   0  0  0  0  0  0  0  0  0  0  0  0
   52.3998   -7.8272    0.4610 C   0  0  0  0  0  0  0  0  0  0  0  0
   51.8061   -9.4917   -1.1494 C   0  0  0  0  0  0  0  0  0  0  0  0
 37 38  1  0  0  0
 38 27  1  0  0  0
 27 28  2  0  0  0
 28 29  1  0  0  0
 29 30  2  0  0  0
 30 26  1  0  0  0
 26  1  1  0  0  0
  1  2  2  0  0  0
  2  3  1  0  0  0
  3  4  2  0  0  0
  4  8  1  0  0  0
  8  9  1  0  0  0
  9 10  2  0  0  0
  9 12  1  0  0  0
 12 13  1  0  0  0
 13 14  1  0  0  0
 12 15  1  0  0  0
 15 16  2  0  0  0
 15 17  1  0  0  0
 17 19  1  0  0  0
 19 20  2  0  0  0
 20 21  1  0  0  0
 21 22  1  0  0  0
 22 23  1  0  0  0
 22 24  1  0  0  0
 24 25  2  0  0  0
  4  5  1  0  0  0
  5  6  2  0  0  0
  6  7  1  0  0  0
 30 31  1  0  0  0
 31 32  2  0  0  0
 32 33  1  0  0  0
 33 34  2  0  0  0
 34 35  1  0  0  0
 35 36  2  0  0  0
 36 39  1  0  0  0
 39 40  1  0  0  0
 40 41  1  0  0  0
 41 42  1  0  0  0
 42 43  1  0  0  0
 43 44  1  0  0  0
 43 45  1  0  0  0
 36 27  1  0  0  0
 34 29  1  0  0  0
  6  1  1  0  0  0
 14 12  1  0  0  0
 25 19  1  0  0  0
  8 11  1  0  0  0
 17 18  1  0  0  0
M  END
> <minimizedAffinity>
-7.60502

> <CNNscore>
0.3355482817

> <CNNaffinity>
6.9001502991

> <CNN_VS>
2.3153336048

> <CNNaffinity_variance>
0.2533471882

$$$$
[H]C1=C([H])C([H])(F)C([H])([H])C([H])=C1N([H])C(=O)C1(C(=O)N([H])c2c([H])c([H])c(Oc3c([H])c([H])nc4c([H])c(OC([H])([H])C([H])([H])C([H])([H])N(C([H])([H])[H])C([H])([H])[H])c(OC([H])([H])[H])c([H])c34)c(F)c2[H])C([H])([H])C1([H])[H]


 45 49  0  0  0  0  0  0  0  0999 V2000
   56.2842   -4.4100  -10.4591 C   0  0  0  0  0  0  0  0  0  0  0  0
   56.1354   -3.7090  -11.6551 C   0  0  0  0  0  0  0  0  0  0  0  0
   57.1819   -3.4385  -12.5203 C   0  0  0  0  0  0  0  0  0  0  0  0
   58.4706   -3.8717  -12.2186 C   0  0  0  0  0  0  0  0  0  0  0  0
   58.6646   -4.5628  -11.0625 C   0  0  0  0  0  0  0  0  0  0  0  0
   57.6186   -4.8158  -10.2284 C   0  0  0  0  0  0  0  0  0  0  0  0
   57.8526   -5.5087   -9.0851 F   0  0  0  0  0  0  0  0  0  0  0  0
   59.4609   -3.5484  -13.1858 N   0  0  0  0  0  0  0  0  0  0  0  0
   60.6952   -4.2092  -13.2632 C   0  0  0  0  0  0  0  0  0  0  0  0
   60.9008   -5.1254  -12.3814 O   0  0  0  0  0  0  0  0  0  0  0  0
   59.2140   -2.7433  -13.8268 H   0  0  0  0  0  0  0  0  0  0  0  0
   61.7596   -3.9365  -14.2407 C   0  0  0  0  0  0  0  0  0  0  0  0
   62.5092   -5.1677  -14.6805 C   0  0  0  0  0  0  0  0  0  0  0  0
   61.5730   -4.5684  -15.6411 C   0  0  0  0  0  0  0  0  0  0  0  0
   62.5078   -2.6862  -14.2609 C   0  0  0  0  0  0  0  0  0  0  0  0
   61.8070   -1.6077  -14.0099 O   0  0  0  0  0  0  0  0  0  0  0  0
   63.8579   -2.4322  -14.4957 N   0  0  0  0  0  0  0  0  0  0  0  0
   64.5609   -3.1656  -14.6456 H   0  0  0  0  0  0  0  0  0  0  0  0
   64.3811   -1.0886  -14.4896 C   0  0  0  0  0  0  0  0  0  0  0  0
   64.6307   -0.4918  -13.3473 C   0  0  0  0  0  0  0  0  0  0  0  0
   65.1578    0.8688  -13.2476 C   0  0  0  0  0  0  0  0  0  0  0  0
   65.5538    1.5057  -14.5182 C   0  0  0  0  0  0  0  0  0  0  0  0
   64.8716    2.7517  -14.6107 F   0  0  0  0  0  0  0  0  0  0  0  0
   65.2360    0.7716  -15.7162 C   0  0  0  0  0  0  0  0  0  0  0  0
   64.6958   -0.4246  -15.7562 C   0  0  0  0  0  0  0  0  0  0  0  0
   55.3486   -4.7092   -9.5634 O   0  0  0  0  0  0  0  0  0  0  0  0
   54.2133   -6.3892   -6.0847 C   0  0  0  0  0  0  0  0  0  0  0  0
   54.5564   -5.7720   -7.2738 C   0  0  0  0  0  0  0  0  0  0  0  0
   53.7872   -4.7693   -7.8437 C   0  0  0  0  0  0  0  0  0  0  0  0
   54.2353   -4.2207   -9.0699 C   0  0  0  0  0  0  0  0  0  0  0  0
   53.4011   -3.2319   -9.5669 C   0  0  0  0  0  0  0  0  0  0  0  0
   52.2516   -2.8438   -8.9064 C   0  0  0  0  0  0  0  0  0  0  0  0
   51.8939   -3.4111   -7.7515 N   0  0  0  0  0  0  0  0  0  0  0  0
   52.6507   -4.3753   -7.2086 C   0  0  0  0  0  0  0  0  0  0  0  0
   52.2930   -4.9910   -6.0070 C   0  0  0  0  0  0  0  0  0  0  0  0
   53.0502   -5.9797   -5.4433 C   0  0  0  0  0  0  0  0  0  0  0  0
   56.1939   -7.0648   -4.8341 C   0  0  0  0  0  0  0  0  0  0  0  0
   55.0051   -7.4067   -5.5246 O   0  0  0  0  0  0  0  0  0  0  0  0
   52.6928   -6.5632   -4.2766 O   0  0  0  0  0  0  0  0  0  0  0  0
   51.6385   -6.3960   -3.4200 C   0  0  0  0  0  0  0  0  0  0  0  0
   52.0772   -6.2973   -1.9885 C   0  0  0  0  0  0  0  0  0  0  0  0
   53.6094   -6.2592   -1.9145 C   0  0  0  0  0  0  0  0  0  0  0  0
   54.0814   -7.1171   -0.8488 N   0  0  0  0  0  0  0  0  0  0  0  0
   53.0553   -8.0985   -0.5655 C   0  0  0  0  0  0  0  0  0  0  0  0
   55.3509   -7.7440   -1.1320 C   0  0  0  0  0  0  0  0  0  0  0  0
 37 38  1  0  0  0
 38 27  1  0  0  0
 27 28  2  0  0  0
 28 29  1  0  0  0
 29 30  2  0  0  0
 30 26  1  0  0  0
 26  1  1  0  0  0
  1  2  2  0  0  0
  2  3  1  0  0  0
  3  4  2  0  0  0
  4  8  1  0  0  0
  8  9  1  0  0  0
  9 10  2  0  0  0
  9 12  1  0  0  0
 12 13  1  0  0  0
 13 14  1  0  0  0
 12 15  1  0  0  0
 15 16  2  0  0  0
 15 17  1  0  0  0
 17 19  1  0  0  0
 19 20  2  0  0  0
 20 21  1  0  0  0
 21 22  1  0  0  0
 22 23  1  0  0  0
 22 24  1  0  0  0
 24 25  2  0  0  0
  4  5  1  0  0  0
  5  6  2  0  0  0
  6  7  1  0  0  0
 30 31  1  0  0  0
 31 32  2  0  0  0
 32 33  1  0  0  0
 33 34  2  0  0  0
 34 35  1  0  0  0
 35 36  2  0  0  0
 36 39  1  0  0  0
 39 40  1  0  0  0
 40 41  1  0  0  0
 41 42  1  0  0  0
 42 43  1  0  0  0
 43 44  1  0  0  0
 43 45  1  0  0  0
 36 27  1  0  0  0
 34 29  1  0  0  0
  6  1  1  0  0  0
 14 12  1  0  0  0
 25 19  1  0  0  0
  8 11  1  0  0  0
 17 18  1  0  0  0
M  END
> <minimizedAffinity>
-8.10844

> <CNNscore>
0.2854363024

> <CNNaffinity>
6.5766801834

> <CNN_VS>
1.8772232533

> <CNNaffinity_variance>
0.1530048996

$$$$
[H]C1=C([H])C([H])(F)C([H])([H])C([H])=C1N([H])C(=O)C1(C(=O)N([H])c2c([H])c([H])c(Oc3c([H])c([H])nc4c([H])c(OC([H])([H])C([H])([H])C([H])([H])N(C([H])([H])[H])C([H])([H])[H])c(OC([H])([H])[H])c([H])c34)c(F)c2[H])C([H])([H])C1([H])[H]


 45 49  0  0  0  0  0  0  0  0999 V2000
   56.4891   -4.2485   -8.6213 C   0  0  0  0  0  0  0  0  0  0  0  0
   56.8210   -4.2735   -9.9753 C   0  0  0  0  0  0  0  0  0  0  0  0
   57.9052   -4.9669  -10.4860 C   0  0  0  0  0  0  0  0  0  0  0  0
   58.7365   -5.6924   -9.6363 C   0  0  0  0  0  0  0  0  0  0  0  0
   58.4505   -5.6999   -8.3059 C   0  0  0  0  0  0  0  0  0  0  0  0
   57.3783   -5.0098   -7.8287 C   0  0  0  0  0  0  0  0  0  0  0  0
   57.1259   -5.0425   -6.4956 F   0  0  0  0  0  0  0  0  0  0  0  0
   59.8086   -6.3742  -10.2737 N   0  0  0  0  0  0  0  0  0  0  0  0
   61.0654   -6.5459   -9.6762 C   0  0  0  0  0  0  0  0  0  0  0  0
   61.2105   -6.0234   -8.5077 O   0  0  0  0  0  0  0  0  0  0  0  0
   59.6017   -6.7157  -11.2538 H   0  0  0  0  0  0  0  0  0  0  0  0
   62.2140   -7.2470  -10.2695 C   0  0  0  0  0  0  0  0  0  0  0  0
   63.0172   -8.0451   -9.2749 C   0  0  0  0  0  0  0  0  0  0  0  0
   62.1685   -8.7929  -10.2124 C   0  0  0  0  0  0  0  0  0  0  0  0
   62.9450   -6.7278  -11.4181 C   0  0  0  0  0  0  0  0  0  0  0  0
   62.2105   -6.1537  -12.3391 O   0  0  0  0  0  0  0  0  0  0  0  0
   64.3076   -6.7271  -11.7107 N   0  0  0  0  0  0  0  0  0  0  0  0
   65.0307   -7.0780  -11.0714 H   0  0  0  0  0  0  0  0  0  0  0  0
   64.8111   -6.1689  -12.9411 C   0  0  0  0  0  0  0  0  0  0  0  0
   65.2327   -4.9259  -12.9681 C   0  0  0  0  0  0  0  0  0  0  0  0
   65.7547   -4.2784  -14.1711 C   0  0  0  0  0  0  0  0  0  0  0  0
   65.9370   -5.1482  -15.3487 C   0  0  0  0  0  0  0  0  0  0  0  0
   65.2357   -4.5577  -16.4378 F   0  0  0  0  0  0  0  0  0  0  0  0
   65.4406   -6.4943  -15.2200 C   0  0  0  0  0  0  0  0  0  0  0  0
   64.9134   -7.0115  -14.1342 C   0  0  0  0  0  0  0  0  0  0  0  0
   55.4808   -3.6089   -8.0370 O   0  0  0  0  0  0  0  0  0  0  0  0
   53.4255   -5.8112   -5.3653 C   0  0  0  0  0  0  0  0  0  0  0  0
   54.0778   -5.0296   -6.3014 C   0  0  0  0  0  0  0  0  0  0  0  0
   53.4004   -4.2343   -7.2126 C   0  0  0  0  0  0  0  0  0  0  0  0
   54.1777   -3.4867   -8.1303 C   0  0  0  0  0  0  0  0  0  0  0  0
   53.4163   -2.7285   -9.0055 C   0  0  0  0  0  0  0  0  0  0  0  0
   52.0356   -2.7259   -8.9609 C   0  0  0  0  0  0  0  0  0  0  0  0
   51.3722   -3.4609   -8.0647 N   0  0  0  0  0  0  0  0  0  0  0  0
   52.0405   -4.2205   -7.1853 C   0  0  0  0  0  0  0  0  0  0  0  0
   51.3697   -5.0056   -6.2447 C   0  0  0  0  0  0  0  0  0  0  0  0
   52.0358   -5.7903   -5.3452 C   0  0  0  0  0  0  0  0  0  0  0  0
   55.0415   -7.5851   -4.9351 C   0  0  0  0  0  0  0  0  0  0  0  0
   54.1307   -6.6137   -4.4517 O   0  0  0  0  0  0  0  0  0  0  0  0
   51.3720   -6.5417   -4.4375 O   0  0  0  0  0  0  0  0  0  0  0  0
   51.0961   -6.3905   -3.1055 C   0  0  0  0  0  0  0  0  0  0  0  0
   51.5872   -7.5479   -2.2866 C   0  0  0  0  0  0  0  0  0  0  0  0
   51.5602   -7.1810   -0.7970 C   0  0  0  0  0  0  0  0  0  0  0  0
   52.8892   -7.2785   -0.2324 N   0  0  0  0  0  0  0  0  0  0  0  0
   53.5111   -5.9729   -0.3025 C   0  0  0  0  0  0  0  0  0  0  0  0
   52.9078   -7.8032    1.1127 C   0  0  0  0  0  0  0  0  0  0  0  0
 37 38  1  0  0  0
 38 27  1  0  0  0
 27 28  2  0  0  0
 28 29  1  0  0  0
 29 30  2  0  0  0
 30 26  1  0  0  0
 26  1  1  0  0  0
  1  2  2  0  0  0
  2  3  1  0  0  0
  3  4  2  0  0  0
  4  8  1  0  0  0
  8  9  1  0  0  0
  9 10  2  0  0  0
  9 12  1  0  0  0
 12 13  1  0  0  0
 13 14  1  0  0  0
 12 15  1  0  0  0
 15 16  2  0  0  0
 15 17  1  0  0  0
 17 19  1  0  0  0
 19 20  2  0  0  0
 20 21  1  0  0  0
 21 22  1  0  0  0
 22 23  1  0  0  0
 22 24  1  0  0  0
 24 25  2  0  0  0
  4  5  1  0  0  0
  5  6  2  0  0  0
  6  7  1  0  0  0
 30 31  1  0  0  0
 31 32  2  0  0  0
 32 33  1  0  0  0
 33 34  2  0  0  0
 34 35  1  0  0  0
 35 36  2  0  0  0
 36 39  1  0  0  0
 39 40  1  0  0  0
 40 41  1  0  0  0
 41 42  1  0  0  0
 42 43  1  0  0  0
 43 44  1  0  0  0
 43 45  1  0  0  0
 36 27  1  0  0  0
 34 29  1  0  0  0
  6  1  1  0  0  0
 14 12  1  0  0  0
 25 19  1  0  0  0
  8 11  1  0  0  0
 17 18  1  0  0  0
M  END
> <minimizedAffinity>
-7.20932

> <CNNscore>
0.2718322575

> <CNNaffinity>
6.9369153976

> <CNN_VS>
1.8856773376

> <CNNaffinity_variance>
0.1275165379

$$$$
[H]C1=C([H])C([H])(F)C([H])([H])C([H])=C1N([H])C(=O)C1(C(=O)N([H])c2c([H])c([H])c(Oc3c([H])c([H])nc4c([H])c(OC([H])([H])C([H])([H])C([H])([H])N(C([H])([H])[H])C([H])([H])[H])c(OC([H])([H])[H])c([H])c34)c(F)c2[H])C([H])([H])C1([H])[H]


 45 49  0  0  0  0  0  0  0  0999 V2000
   56.2769   -4.3558  -10.4470 C   0  0  0  0  0  0  0  0  0  0  0  0
   56.0794   -3.7381  -11.6813 C   0  0  0  0  0  0  0  0  0  0  0  0
   57.0954   -3.5035  -12.5922 C   0  0  0  0  0  0  0  0  0  0  0  0
   58.4013   -3.8892  -12.3003 C   0  0  0  0  0  0  0  0  0  0  0  0
   58.6425   -4.4986  -11.1077 C   0  0  0  0  0  0  0  0  0  0  0  0
   57.6259   -4.7178  -10.2291 C   0  0  0  0  0  0  0  0  0  0  0  0
   57.9069   -5.3291   -9.0504 F   0  0  0  0  0  0  0  0  0  0  0  0
   59.3571   -3.6097  -13.3147 N   0  0  0  0  0  0  0  0  0  0  0  0
   60.6083   -4.2395  -13.3776 C   0  0  0  0  0  0  0  0  0  0  0  0
   60.8631   -5.0827  -12.4377 O   0  0  0  0  0  0  0  0  0  0  0  0
   59.0703   -2.8608  -14.0054 H   0  0  0  0  0  0  0  0  0  0  0  0
   61.6394   -4.0091  -14.4006 C   0  0  0  0  0  0  0  0  0  0  0  0
   61.7009   -2.5849  -14.8897 C   0  0  0  0  0  0  0  0  0  0  0  0
   62.7821   -3.0425  -14.0065 C   0  0  0  0  0  0  0  0  0  0  0  0
   62.0462   -5.0345  -15.3526 C   0  0  0  0  0  0  0  0  0  0  0  0
   62.4221   -6.1737  -14.8252 O   0  0  0  0  0  0  0  0  0  0  0  0
   62.0994   -5.0199  -16.7452 N   0  0  0  0  0  0  0  0  0  0  0  0
   61.7813   -4.2322  -17.3221 H   0  0  0  0  0  0  0  0  0  0  0  0
   62.5667   -6.1622  -17.4907 C   0  0  0  0  0  0  0  0  0  0  0  0
   61.7059   -7.0531  -17.9252 C   0  0  0  0  0  0  0  0  0  0  0  0
   62.0914   -8.2422  -18.6845 C   0  0  0  0  0  0  0  0  0  0  0  0
   63.5086   -8.3238  -19.0864 C   0  0  0  0  0  0  0  0  0  0  0  0
   64.0204   -9.5690  -18.6237 F   0  0  0  0  0  0  0  0  0  0  0  0
   64.3731   -7.3004  -18.5570 C   0  0  0  0  0  0  0  0  0  0  0  0
   63.9887   -6.2856  -17.8176 C   0  0  0  0  0  0  0  0  0  0  0  0
   55.3732   -4.6147   -9.5070 O   0  0  0  0  0  0  0  0  0  0  0  0
   54.1406   -6.3694   -6.0990 C   0  0  0  0  0  0  0  0  0  0  0  0
   54.5172   -5.7264   -7.2641 C   0  0  0  0  0  0  0  0  0  0  0  0
   53.7680   -4.7063   -7.8296 C   0  0  0  0  0  0  0  0  0  0  0  0
   54.2501   -4.1317   -9.0307 C   0  0  0  0  0  0  0  0  0  0  0  0
   53.4340   -3.1268   -9.5254 C   0  0  0  0  0  0  0  0  0  0  0  0
   52.2698   -2.7479   -8.8854 C   0  0  0  0  0  0  0  0  0  0  0  0
   51.8798   -3.3401   -7.7537 N   0  0  0  0  0  0  0  0  0  0  0  0
   52.6175   -4.3210   -7.2146 C   0  0  0  0  0  0  0  0  0  0  0  0
   52.2260   -4.9627   -6.0374 C   0  0  0  0  0  0  0  0  0  0  0  0
   52.9635   -5.9685   -5.4780 C   0  0  0  0  0  0  0  0  0  0  0  0
   56.0907   -7.0860   -4.8233 C   0  0  0  0  0  0  0  0  0  0  0  0
   54.9127   -7.4043   -5.5431 O   0  0  0  0  0  0  0  0  0  0  0  0
   52.5734   -6.5772   -4.3350 O   0  0  0  0  0  0  0  0  0  0  0  0
   51.5836   -6.3301   -3.4226 C   0  0  0  0  0  0  0  0  0  0  0  0
   52.0610   -6.4823   -2.0083 C   0  0  0  0  0  0  0  0  0  0  0  0
   53.5823   -6.6815   -1.9904 C   0  0  0  0  0  0  0  0  0  0  0  0
   53.9152   -7.9462   -1.3706 N   0  0  0  0  0  0  0  0  0  0  0  0
   55.1974   -7.8079   -0.7127 C   0  0  0  0  0  0  0  0  0  0  0  0
   52.9020   -8.4277   -0.4615 C   0  0  0  0  0  0  0  0  0  0  0  0
 37 38  1  0  0  0
 38 27  1  0  0  0
 27 28  2  0  0  0
 28 29  1  0  0  0
 29 30  2  0  0  0
 30 26  1  0  0  0
 26  1  1  0  0  0
  1  2  2  0  0  0
  2  3  1  0  0  0
  3  4  2  0  0  0
  4  8  1  0  0  0
  8  9  1  0  0  0
  9 10  2  0  0  0
  9 12  1  0  0  0
 12 13  1  0  0  0
 13 14  1  0  0  0
 12 15  1  0  0  0
 15 16  2  0  0  0
 15 17  1  0  0  0
 17 19  1  0  0  0
 19 20  2  0  0  0
 20 21  1  0  0  0
 21 22  1  0  0  0
 22 23  1  0  0  0
 22 24  1  0  0  0
 24 25  2  0  0  0
  4  5  1  0  0  0
  5  6  2  0  0  0
  6  7  1  0  0  0
 30 31  1  0  0  0
 31 32  2  0  0  0
 32 33  1  0  0  0
 33 34  2  0  0  0
 34 35  1  0  0  0
 35 36  2  0  0  0
 36 39  1  0  0  0
 39 40  1  0  0  0
 40 41  1  0  0  0
 41 42  1  0  0  0
 42 43  1  0  0  0
 43 44  1  0  0  0
 43 45  1  0  0  0
 36 27  1  0  0  0
 34 29  1  0  0  0
  6  1  1  0  0  0
 14 12  1  0  0  0
 25 19  1  0  0  0
  8 11  1  0  0  0
 17 18  1  0  0  0
M  END
> <minimizedAffinity>
-7.27294

> <CNNscore>
0.2676629126

> <CNNaffinity>
6.4840269089

> <CNN_VS>
1.7355334759

> <CNNaffinity_variance>
0.1497617662

$$$$
[H]C1=C([H])C([H])(F)C([H])([H])C([H])=C1N([H])C(=O)C1(C(=O)N([H])c2c([H])c([H])c(Oc3c([H])c([H])nc4c([H])c(OC([H])([H])C([H])([H])C([H])([H])N(C([H])([H])[H])C([H])([H])[H])c(OC([H])([H])[H])c([H])c34)c(F)c2[H])C([H])([H])C1([H])[H]


 45 49  0  0  0  0  0  0  0  0999 V2000
   55.7088   -5.6832   -5.5198 C   0  0  0  0  0  0  0  0  0  0  0  0
   55.8738   -5.0304   -4.2989 C   0  0  0  0  0  0  0  0  0  0  0  0
   55.5308   -5.5884   -3.0790 C   0  0  0  0  0  0  0  0  0  0  0  0
   54.9880   -6.8696   -3.0221 C   0  0  0  0  0  0  0  0  0  0  0  0
   54.8107   -7.5473   -4.1887 C   0  0  0  0  0  0  0  0  0  0  0  0
   55.1561   -6.9763   -5.3754 C   0  0  0  0  0  0  0  0  0  0  0  0
   54.9644   -7.6847   -6.5171 F   0  0  0  0  0  0  0  0  0  0  0  0
   54.6876   -7.3432   -1.7159 N   0  0  0  0  0  0  0  0  0  0  0  0
   53.4209   -7.2102   -1.1295 C   0  0  0  0  0  0  0  0  0  0  0  0
   52.5323   -6.6036   -1.8378 O   0  0  0  0  0  0  0  0  0  0  0  0
   55.5032   -7.7758   -1.1984 H   0  0  0  0  0  0  0  0  0  0  0  0
   53.0359   -7.6839    0.2085 C   0  0  0  0  0  0  0  0  0  0  0  0
   54.2008   -8.1403    1.0488 C   0  0  0  0  0  0  0  0  0  0  0  0
   53.5752   -6.8588    1.4016 C   0  0  0  0  0  0  0  0  0  0  0  0
   51.7572   -8.3289    0.4770 C   0  0  0  0  0  0  0  0  0  0  0  0
   51.8298   -9.4990    1.0626 O   0  0  0  0  0  0  0  0  0  0  0  0
   50.4516   -7.9115    0.2245 N   0  0  0  0  0  0  0  0  0  0  0  0
   50.2098   -6.9947   -0.1699 H   0  0  0  0  0  0  0  0  0  0  0  0
   49.3203   -8.7402    0.5598 C   0  0  0  0  0  0  0  0  0  0  0  0
   48.6415   -8.5026    1.6580 C   0  0  0  0  0  0  0  0  0  0  0  0
   47.4849   -9.2937    2.0770 C   0  0  0  0  0  0  0  0  0  0  0  0
   47.0041  -10.3011    1.1122 C   0  0  0  0  0  0  0  0  0  0  0  0
   46.9585  -11.5566    1.7815 F   0  0  0  0  0  0  0  0  0  0  0  0
   47.8189  -10.4884   -0.0608 C   0  0  0  0  0  0  0  0  0  0  0  0
   48.8941   -9.7965   -0.3603 C   0  0  0  0  0  0  0  0  0  0  0  0
   55.9969   -5.2303   -6.7360 O   0  0  0  0  0  0  0  0  0  0  0  0
   58.2587   -5.1717  -10.0667 C   0  0  0  0  0  0  0  0  0  0  0  0
   57.4344   -5.1701   -8.9562 C   0  0  0  0  0  0  0  0  0  0  0  0
   56.1481   -4.6538   -8.9818 C   0  0  0  0  0  0  0  0  0  0  0  0
   55.4034   -4.6982   -7.7782 C   0  0  0  0  0  0  0  0  0  0  0  0
   54.1342   -4.1543   -7.8969 C   0  0  0  0  0  0  0  0  0  0  0  0
   53.6722   -3.6274   -9.0874 C   0  0  0  0  0  0  0  0  0  0  0  0
   54.4368   -3.6204  -10.1823 N   0  0  0  0  0  0  0  0  0  0  0  0
   55.6767   -4.1288  -10.1447 C   0  0  0  0  0  0  0  0  0  0  0  0
   56.4994   -4.1243  -11.2734 C   0  0  0  0  0  0  0  0  0  0  0  0
   57.7679   -4.6332  -11.2503 C   0  0  0  0  0  0  0  0  0  0  0  0
   60.1167   -6.0741   -8.7717 C   0  0  0  0  0  0  0  0  0  0  0  0
   59.5616   -5.6972  -10.0194 O   0  0  0  0  0  0  0  0  0  0  0  0
   58.5509   -4.6255  -12.3531 O   0  0  0  0  0  0  0  0  0  0  0  0
   59.0125   -3.6357  -13.1780 C   0  0  0  0  0  0  0  0  0  0  0  0
   60.4711   -3.7908  -13.4939 C   0  0  0  0  0  0  0  0  0  0  0  0
   60.8117   -3.0185  -14.7753 C   0  0  0  0  0  0  0  0  0  0  0  0
   60.1092   -3.5876  -15.9054 N   0  0  0  0  0  0  0  0  0  0  0  0
   59.2994   -2.5498  -16.5083 C   0  0  0  0  0  0  0  0  0  0  0  0
   60.9816   -4.2091  -16.8738 C   0  0  0  0  0  0  0  0  0  0  0  0
 37 38  1  0  0  0
 38 27  1  0  0  0
 27 28  2  0  0  0
 28 29  1  0  0  0
 29 30  2  0  0  0
 30 26  1  0  0  0
 26  1  1  0  0  0
  1  2  2  0  0  0
  2  3  1  0  0  0
  3  4  2  0  0  0
  4  8  1  0  0  0
  8  9  1  0  0  0
  9 10  2  0  0  0
  9 12  1  0  0  0
 12 13  1  0  0  0
 13 14  1  0  0  0
 12 15  1  0  0  0
 15 16  2  0  0  0
 15 17  1  0  0  0
 17 19  1  0  0  0
 19 20  2  0  0  0
 20 21  1  0  0  0
 21 22  1  0  0  0
 22 23  1  0  0  0
 22 24  1  0  0  0
 24 25  2  0  0  0
  4  5  1  0  0  0
  5  6  2  0  0  0
  6  7  1  0  0  0
 30 31  1  0  0  0
 31 32  2  0  0  0
 32 33  1  0  0  0
 33 34  2  0  0  0
 34 35  1  0  0  0
 35 36  2  0  0  0
 36 39  1  0  0  0
 39 40  1  0  0  0
 40 41  1  0  0  0
 41 42  1  0  0  0
 42 43  1  0  0  0
 43 44  1  0  0  0
 43 45  1  0  0  0
 36 27  1  0  0  0
 34 29  1  0  0  0
  6  1  1  0  0  0
 14 12  1  0  0  0
 25 19  1  0  0  0
  8 11  1  0  0  0
 17 18  1  0  0  0
M  END
> <minimizedAffinity>
-9.35256

> <CNNscore>
0.2566130757

> <CNNaffinity>
6.6896300316

> <CNN_VS>
1.7166465521

> <CNNaffinity_variance>
0.1376522034

$$$$
[H]N=C(c1c([H])c([H])c([H])c(C([H])([H])[C@@]([H])(C(=O)N2C([H])([H])C([H])([H])C([H])([H])[C@@]2([H])C(=O)N([H])C([H])(C([H])=O)C([H])([H])C([H])([H])C([H])([H])N([H])C(=N[H])N([H])[H])N([H])C(=O)OC(C([H])([H])[H])(C([H])([H])[H])C([H])([H])[H])c1[H])N([H])[H]


 48 49  0  0  0  0  0  0  0  0999 V2000
   55.1270   -6.6189   -5.2229 C   0  0  0  0  0  0  0  0  0  0  0  0
   55.2361   -7.9038   -5.3863 O   0  0  0  0  0  0  0  0  0  0  0  0
   55.4270   -6.0614   -3.9618 N   0  0  0  0  0  0  0  0  0  0  0  0
   55.3767   -4.6934   -3.5337 C   0  0  0  0  0  0  0  0  0  0  0  0
   56.7864   -4.5360   -2.9378 C   0  0  0  0  0  0  0  0  0  0  0  0
   56.9372   -5.8189   -2.1711 C   0  0  0  0  0  0  0  0  0  0  0  0
   55.9156   -6.7832   -2.8102 C   0  0  0  0  0  0  0  0  0  0  0  0
   54.8706   -7.1300   -1.8419 C   0  0  0  0  0  0  0  0  0  0  0  0
   55.0856   -7.1100   -0.6253 O   0  0  0  0  0  0  0  0  0  0  0  0
   53.5726   -7.5018   -2.2809 N   0  0  0  0  0  0  0  0  0  0  0  0
   53.3658   -7.5271   -3.2921 H   0  0  0  0  0  0  0  0  0  0  0  0
   52.5046   -7.8539   -1.3796 C   0  0  0  0  0  0  0  0  0  0  0  0
   52.1092   -9.2923   -1.5599 C   0  0  0  0  0  0  0  0  0  0  0  0
   50.9396   -9.5648   -1.4947 O   0  0  0  0  0  0  0  0  0  0  0  0
   51.3323   -6.9417   -1.6580 C   0  0  0  0  0  0  0  0  0  0  0  0
   51.7103   -5.8776   -2.6644 C   0  0  0  0  0  0  0  0  0  0  0  0
   50.4605   -5.6158   -3.5121 C   0  0  0  0  0  0  0  0  0  0  0  0
   50.1731   -4.1888   -3.5599 N   0  0  0  0  0  0  0  0  0  0  0  0
   50.9616   -3.5091   -3.3645 H   0  0  0  0  0  0  0  0  0  0  0  0
   48.8632   -3.7839   -3.8633 C   0  0  0  0  0  0  0  0  0  0  0  0
   48.6498   -2.6917   -4.7374 N   0  0  0  0  0  0  0  0  0  0  0  0
   47.8563   -4.3875   -3.3610 N   0  0  0  0  0  0  0  0  0  0  0  0
   48.4935   -1.7149   -4.3965 H   0  0  0  0  0  0  0  0  0  0  0  0
   48.6411   -2.8249   -5.7870 H   0  0  0  0  0  0  0  0  0  0  0  0
   47.9402   -5.1951   -2.7134 H   0  0  0  0  0  0  0  0  0  0  0  0
   54.7007   -5.8972   -6.4184 C   0  0  0  0  0  0  0  0  0  0  0  0
   55.8579   -4.2542   -7.9397 C   0  0  0  0  0  0  0  0  0  0  0  0
   54.9202   -3.4319   -7.7852 O   0  0  0  0  0  0  0  0  0  0  0  0
   55.8187   -5.5143   -7.2851 N   0  0  0  0  0  0  0  0  0  0  0  0
   56.5959   -6.1876   -7.4172 H   0  0  0  0  0  0  0  0  0  0  0  0
   56.9053   -3.8779   -8.7621 O   0  0  0  0  0  0  0  0  0  0  0  0
   57.4187   -3.2550  -11.0429 C   0  0  0  0  0  0  0  0  0  0  0  0
   56.9657   -4.3468  -10.0769 C   0  0  0  0  0  0  0  0  0  0  0  0
   55.5376   -4.7092  -10.4970 C   0  0  0  0  0  0  0  0  0  0  0  0
   57.8252   -5.5761  -10.2598 C   0  0  0  0  0  0  0  0  0  0  0  0
   53.6386   -6.5722   -7.2487 C   0  0  0  0  0  0  0  0  0  0  0  0
   52.3186   -5.9311   -7.1896 C   0  0  0  0  0  0  0  0  0  0  0  0
   51.2056   -6.6541   -6.8639 C   0  0  0  0  0  0  0  0  0  0  0  0
   49.9799   -5.9839   -6.8393 C   0  0  0  0  0  0  0  0  0  0  0  0
   49.9337   -4.6409   -7.1383 C   0  0  0  0  0  0  0  0  0  0  0  0
   51.0458   -3.9063   -7.4658 C   0  0  0  0  0  0  0  0  0  0  0  0
   52.2496   -4.5772   -7.4873 C   0  0  0  0  0  0  0  0  0  0  0  0
   50.9762   -2.4749   -7.7825 C   0  0  0  0  0  0  0  0  0  0  0  0
   51.9922   -1.9141   -8.6074 N   0  0  0  0  0  0  0  0  0  0  0  0
   50.0603   -1.7046   -7.3631 N   0  0  0  0  0  0  0  0  0  0  0  0
   51.7851   -1.4672   -9.5258 H   0  0  0  0  0  0  0  0  0  0  0  0
   52.9970   -1.9396   -8.2999 H   0  0  0  0  0  0  0  0  0  0  0  0
   49.2541   -1.9520   -6.7591 H   0  0  0  0  0  0  0  0  0  0  0  0
 32 33  1  0  0  0
 33 34  1  0  0  0
 33 35  1  0  0  0
 33 31  1  0  0  0
 31 27  1  0  0  0
 27 28  2  0  0  0
 27 29  1  0  0  0
 29 26  1  0  0  0
 26 36  1  0  0  0
 36 37  1  0  0  0
 37 38  2  0  0  0
 38 39  1  0  0  0
 39 40  2  0  0  0
 40 41  1  0  0  0
 41 42  2  0  0  0
 41 43  1  0  0  0
 43 44  1  0  0  0
 43 45  2  0  0  0
 26  1  1  0  0  0
  1  2  2  0  0  0
  1  3  1  0  0  0
  3  4  1  0  0  0
  4  5  1  0  0  0
  5  6  1  0  0  0
  6  7  1  0  0  0
  7  8  1  0  0  0
  8  9  2  0  0  0
  8 10  1  0  0  0
 10 12  1  0  0  0
 12 15  1  0  0  0
 15 16  1  0  0  0
 16 17  1  0  0  0
 17 18  1  0  0  0
 18 20  1  0  0  0
 20 21  1  0  0  0
 20 22  2  0  0  0
 12 13  1  0  0  0
 13 14  2  0  0  0
 42 37  1  0  0  0
  7  3  1  0  0  0
 29 30  1  0  0  0
 44 46  1  0  0  0
 44 47  1  0  0  0
 45 48  1  0  0  0
 10 11  1  0  0  0
 18 19  1  0  0  0
 21 23  1  0  0  0
 21 24  1  0  0  0
 22 25  1  0  0  0
M  END
> <minimizedAffinity>
-7.44042

> <CNNscore>
0.2626361847

> <CNNaffinity>
7.1116700172

> <CNN_VS>
1.8677818775

> <CNNaffinity_variance>
0.0313666798

$$$$
[H]N=C(c1c([H])c([H])c([H])c(C([H])([H])[C@@]([H])(C(=O)N2C([H])([H])C([H])([H])C([H])([H])[C@@]2([H])C(=O)N([H])C([H])(C([H])=O)C([H])([H])C([H])([H])C([H])([H])N([H])C(=N[H])N([H])[H])N([H])C(=O)OC(C([H])([H])[H])(C([H])([H])[H])C([H])([H])[H])c1[H])N([H])[H]


 48 49  0  0  0  0  0  0  0  0999 V2000
   56.3371   -4.3866   -6.8317 C   0  0  0  0  0  0  0  0  0  0  0  0
   56.5185   -3.1803   -6.3827 O   0  0  0  0  0  0  0  0  0  0  0  0
   55.7864   -5.3611   -5.9724 N   0  0  0  0  0  0  0  0  0  0  0  0
   55.5007   -6.7437   -6.2254 C   0  0  0  0  0  0  0  0  0  0  0  0
   54.0311   -6.8113   -5.7748 C   0  0  0  0  0  0  0  0  0  0  0  0
   54.0666   -6.0139   -4.5022 C   0  0  0  0  0  0  0  0  0  0  0  0
   55.3329   -5.1395   -4.6193 C   0  0  0  0  0  0  0  0  0  0  0  0
   56.3111   -5.5235   -3.5968 C   0  0  0  0  0  0  0  0  0  0  0  0
   57.3939   -4.9384   -3.4873 O   0  0  0  0  0  0  0  0  0  0  0  0
   56.0376   -6.5880   -2.6980 N   0  0  0  0  0  0  0  0  0  0  0  0
   55.1405   -7.0942   -2.7675 H   0  0  0  0  0  0  0  0  0  0  0  0
   56.9577   -7.0128   -1.6733 C   0  0  0  0  0  0  0  0  0  0  0  0
   57.8226   -8.1372   -2.1684 C   0  0  0  0  0  0  0  0  0  0  0  0
   57.3303   -9.2319   -2.2442 O   0  0  0  0  0  0  0  0  0  0  0  0
   56.1546   -7.4501   -0.4701 C   0  0  0  0  0  0  0  0  0  0  0  0
   54.8245   -6.7312   -0.4251 C   0  0  0  0  0  0  0  0  0  0  0  0
   53.8056   -7.7338    0.1281 C   0  0  0  0  0  0  0  0  0  0  0  0
   52.4689   -7.1561    0.1109 N   0  0  0  0  0  0  0  0  0  0  0  0
   52.2618   -6.3453    0.7603 H   0  0  0  0  0  0  0  0  0  0  0  0
   51.5192   -7.7029   -0.7672 C   0  0  0  0  0  0  0  0  0  0  0  0
   51.8828   -8.7740   -1.6175 N   0  0  0  0  0  0  0  0  0  0  0  0
   50.3271   -7.2473   -0.8119 N   0  0  0  0  0  0  0  0  0  0  0  0
   52.1929   -8.6324   -2.6067 H   0  0  0  0  0  0  0  0  0  0  0  0
   51.8548   -9.7756   -1.2777 H   0  0  0  0  0  0  0  0  0  0  0  0
   49.9933   -6.4643   -0.2170 H   0  0  0  0  0  0  0  0  0  0  0  0
   56.7351   -4.5736   -8.2239 C   0  0  0  0  0  0  0  0  0  0  0  0
   58.4437   -5.8350   -9.5813 C   0  0  0  0  0  0  0  0  0  0  0  0
   58.3769   -4.9708  -10.4913 O   0  0  0  0  0  0  0  0  0  0  0  0
   57.6489   -5.7039   -8.4113 N   0  0  0  0  0  0  0  0  0  0  0  0
   57.7094   -6.4207   -7.6647 H   0  0  0  0  0  0  0  0  0  0  0  0
   59.3104   -6.8965   -9.7742 O   0  0  0  0  0  0  0  0  0  0  0  0
   60.8457   -5.7412   -8.3040 C   0  0  0  0  0  0  0  0  0  0  0  0
   60.6535   -6.7785   -9.4074 C   0  0  0  0  0  0  0  0  0  0  0  0
   61.4120   -6.2387  -10.6241 C   0  0  0  0  0  0  0  0  0  0  0  0
   61.3035   -8.0804   -9.0001 C   0  0  0  0  0  0  0  0  0  0  0  0
   55.6083   -4.6769   -9.2204 C   0  0  0  0  0  0  0  0  0  0  0  0
   54.3884   -3.9531   -8.8395 C   0  0  0  0  0  0  0  0  0  0  0  0
   54.2221   -2.6396   -9.1778 C   0  0  0  0  0  0  0  0  0  0  0  0
   53.0434   -2.0087   -8.7721 C   0  0  0  0  0  0  0  0  0  0  0  0
   52.1044   -2.7178   -8.0576 C   0  0  0  0  0  0  0  0  0  0  0  0
   52.2620   -4.0371   -7.7137 C   0  0  0  0  0  0  0  0  0  0  0  0
   53.4284   -4.6497   -8.1188 C   0  0  0  0  0  0  0  0  0  0  0  0
   51.2495   -4.7762   -6.9505 C   0  0  0  0  0  0  0  0  0  0  0  0
   50.5618   -4.0978   -5.9046 N   0  0  0  0  0  0  0  0  0  0  0  0
   50.9496   -5.9889   -7.1686 N   0  0  0  0  0  0  0  0  0  0  0  0
   49.5282   -3.9642   -5.9081 H   0  0  0  0  0  0  0  0  0  0  0  0
   51.0949   -3.7080   -5.0869 H   0  0  0  0  0  0  0  0  0  0  0  0
   51.3526   -6.6201   -7.8863 H   0  0  0  0  0  0  0  0  0  0  0  0
 32 33  1  0  0  0
 33 34  1  0  0  0
 33 35  1  0  0  0
 33 31  1  0  0  0
 31 27  1  0  0  0
 27 28  2  0  0  0
 27 29  1  0  0  0
 29 26  1  0  0  0
 26 36  1  0  0  0
 36 37  1  0  0  0
 37 38  2  0  0  0
 38 39  1  0  0  0
 39 40  2  0  0  0
 40 41  1  0  0  0
 41 42  2  0  0  0
 41 43  1  0  0  0
 43 44  1  0  0  0
 43 45  2  0  0  0
 26  1  1  0  0  0
  1  2  2  0  0  0
  1  3  1  0  0  0
  3  4  1  0  0  0
  4  5  1  0  0  0
  5  6  1  0  0  0
  6  7  1  0  0  0
  7  8  1  0  0  0
  8  9  2  0  0  0
  8 10  1  0  0  0
 10 12  1  0  0  0
 12 15  1  0  0  0
 15 16  1  0  0  0
 16 17  1  0  0  0
 17 18  1  0  0  0
 18 20  1  0  0  0
 20 21  1  0  0  0
 20 22  2  0  0  0
 12 13  1  0  0  0
 13 14  2  0  0  0
 42 37  1  0  0  0
  7  3  1  0  0  0
 29 30  1  0  0  0
 44 46  1  0  0  0
 44 47  1  0  0  0
 45 48  1  0  0  0
 10 11  1  0  0  0
 18 19  1  0  0  0
 21 23  1  0  0  0
 21 24  1  0  0  0
 22 25  1  0  0  0
M  END
> <minimizedAffinity>
-6.74859

> <CNNscore>
0.2442111671

> <CNNaffinity>
6.5928673744

> <CNN_VS>
1.6100518703

> <CNNaffinity_variance>
0.2948106825

$$$$
[H]N=C(c1c([H])c([H])c([H])c(C([H])([H])[C@@]([H])(C(=O)N2C([H])([H])C([H])([H])C([H])([H])[C@@]2([H])C(=O)N([H])C([H])(C([H])=O)C([H])([H])C([H])([H])C([H])([H])N([H])C(=N[H])N([H])[H])N([H])C(=O)OC(C([H])([H])[H])(C([H])([H])[H])C([H])([H])[H])c1[H])N([H])[H]


 48 49  0  0  0  0  0  0  0  0999 V2000
   55.3103   -6.9819   -5.9820 C   0  0  0  0  0  0  0  0  0  0  0  0
   54.2384   -7.7099   -6.0846 O   0  0  0  0  0  0  0  0  0  0  0  0
   55.9828   -6.9247   -4.7427 N   0  0  0  0  0  0  0  0  0  0  0  0
   57.1642   -6.1976   -4.3785 C   0  0  0  0  0  0  0  0  0  0  0  0
   58.0094   -7.3281   -3.7664 C   0  0  0  0  0  0  0  0  0  0  0  0
   56.9889   -8.0569   -2.9395 C   0  0  0  0  0  0  0  0  0  0  0  0
   55.6287   -7.6600   -3.5512 C   0  0  0  0  0  0  0  0  0  0  0  0
   54.8460   -6.8817   -2.5861 C   0  0  0  0  0  0  0  0  0  0  0  0
   55.3881   -6.1077   -1.7899 O   0  0  0  0  0  0  0  0  0  0  0  0
   53.4318   -6.9985   -2.5401 N   0  0  0  0  0  0  0  0  0  0  0  0
   52.9530   -7.6382   -3.1939 H   0  0  0  0  0  0  0  0  0  0  0  0
   52.6079   -6.2618   -1.6151 C   0  0  0  0  0  0  0  0  0  0  0  0
   52.4238   -7.0315   -0.3379 C   0  0  0  0  0  0  0  0  0  0  0  0
   51.9436   -8.1319   -0.4104 O   0  0  0  0  0  0  0  0  0  0  0  0
   51.2739   -6.0015   -2.2757 C   0  0  0  0  0  0  0  0  0  0  0  0
   51.4151   -5.9961   -3.7816 C   0  0  0  0  0  0  0  0  0  0  0  0
   50.2186   -5.2098   -4.3288 C   0  0  0  0  0  0  0  0  0  0  0  0
   50.6470   -4.3188   -5.3983 N   0  0  0  0  0  0  0  0  0  0  0  0
   51.6646   -4.3363   -5.6916 H   0  0  0  0  0  0  0  0  0  0  0  0
   49.6884   -3.4797   -5.9888 C   0  0  0  0  0  0  0  0  0  0  0  0
   48.9105   -2.6206   -5.1768 N   0  0  0  0  0  0  0  0  0  0  0  0
   49.5056   -3.4790   -7.2526 N   0  0  0  0  0  0  0  0  0  0  0  0
   47.9562   -2.8764   -4.8324 H   0  0  0  0  0  0  0  0  0  0  0  0
   49.2723   -1.6710   -4.8821 H   0  0  0  0  0  0  0  0  0  0  0  0
   50.0404   -4.0831   -7.9065 H   0  0  0  0  0  0  0  0  0  0  0  0
   55.6934   -6.3026   -7.2163 C   0  0  0  0  0  0  0  0  0  0  0  0
   53.7563   -4.6975   -7.0612 C   0  0  0  0  0  0  0  0  0  0  0  0
   53.9547   -4.5579   -5.8281 O   0  0  0  0  0  0  0  0  0  0  0  0
   54.5888   -5.5573   -7.8263 N   0  0  0  0  0  0  0  0  0  0  0  0
   54.4192   -5.6674   -8.8431 H   0  0  0  0  0  0  0  0  0  0  0  0
   52.7087   -3.9878   -7.6215 O   0  0  0  0  0  0  0  0  0  0  0  0
   51.8936   -1.9336   -8.6061 C   0  0  0  0  0  0  0  0  0  0  0  0
   52.9615   -3.0245   -8.6016 C   0  0  0  0  0  0  0  0  0  0  0  0
   52.8529   -3.7201   -9.9623 C   0  0  0  0  0  0  0  0  0  0  0  0
   54.3320   -2.3941   -8.5150 C   0  0  0  0  0  0  0  0  0  0  0  0
   56.9037   -5.4082   -7.1246 C   0  0  0  0  0  0  0  0  0  0  0  0
   57.7520   -5.4045   -8.3235 C   0  0  0  0  0  0  0  0  0  0  0  0
   59.0306   -5.8845   -8.2751 C   0  0  0  0  0  0  0  0  0  0  0  0
   59.7865   -5.8388   -9.4492 C   0  0  0  0  0  0  0  0  0  0  0  0
   59.2289   -5.3212  -10.5965 C   0  0  0  0  0  0  0  0  0  0  0  0
   57.9458   -4.8375  -10.6553 C   0  0  0  0  0  0  0  0  0  0  0  0
   57.2091   -4.8872   -9.4914 C   0  0  0  0  0  0  0  0  0  0  0  0
   57.3691   -4.2885  -11.8882 C   0  0  0  0  0  0  0  0  0  0  0  0
   56.1747   -3.5195  -11.7926 N   0  0  0  0  0  0  0  0  0  0  0  0
   57.8742   -4.4594  -13.0387 N   0  0  0  0  0  0  0  0  0  0  0  0
   56.1248   -2.5225  -12.0918 H   0  0  0  0  0  0  0  0  0  0  0  0
   55.2968   -3.9517  -11.4091 H   0  0  0  0  0  0  0  0  0  0  0  0
   58.7334   -4.9884  -13.2793 H   0  0  0  0  0  0  0  0  0  0  0  0
 32 33  1  0  0  0
 33 34  1  0  0  0
 33 35  1  0  0  0
 33 31  1  0  0  0
 31 27  1  0  0  0
 27 28  2  0  0  0
 27 29  1  0  0  0
 29 26  1  0  0  0
 26 36  1  0  0  0
 36 37  1  0  0  0
 37 38  2  0  0  0
 38 39  1  0  0  0
 39 40  2  0  0  0
 40 41  1  0  0  0
 41 42  2  0  0  0
 41 43  1  0  0  0
 43 44  1  0  0  0
 43 45  2  0  0  0
 26  1  1  0  0  0
  1  2  2  0  0  0
  1  3  1  0  0  0
  3  4  1  0  0  0
  4  5  1  0  0  0
  5  6  1  0  0  0
  6  7  1  0  0  0
  7  8  1  0  0  0
  8  9  2  0  0  0
  8 10  1  0  0  0
 10 12  1  0  0  0
 12 15  1  0  0  0
 15 16  1  0  0  0
 16 17  1  0  0  0
 17 18  1  0  0  0
 18 20  1  0  0  0
 20 21  1  0  0  0
 20 22  2  0  0  0
 12 13  1  0  0  0
 13 14  2  0  0  0
 42 37  1  0  0  0
  7  3  1  0  0  0
 29 30  1  0  0  0
 44 46  1  0  0  0
 44 47  1  0  0  0
 45 48  1  0  0  0
 10 11  1  0  0  0
 18 19  1  0  0  0
 21 23  1  0  0  0
 21 24  1  0  0  0
 22 25  1  0  0  0
M  END
> <minimizedAffinity>
-6.70000

> <CNNscore>
0.1791880876

> <CNNaffinity>
6.7458510399

> <CNN_VS>
1.2087761164

> <CNNaffinity_variance>
0.2658904493

$$$$
[H]N=C(c1c([H])c([H])c([H])c(C([H])([H])[C@@]([H])(C(=O)N2C([H])([H])C([H])([H])C([H])([H])[C@@]2([H])C(=O)N([H])C([H])(C([H])=O)C([H])([H])C([H])([H])C([H])([H])N([H])C(=N[H])N([H])[H])N([H])C(=O)OC(C([H])([H])[H])(C([H])([H])[H])C([H])([H])[H])c1[H])N([H])[H]


 48 49  0  0  0  0  0  0  0  0999 V2000
   53.5873   -5.0542   -7.5589 C   0  0  0  0  0  0  0  0  0  0  0  0
   52.7103   -4.2666   -8.1068 O   0  0  0  0  0  0  0  0  0  0  0  0
   54.9548   -4.8637   -7.8501 N   0  0  0  0  0  0  0  0  0  0  0  0
   56.0973   -5.5953   -7.3845 C   0  0  0  0  0  0  0  0  0  0  0  0
   56.9713   -4.4427   -6.8604 C   0  0  0  0  0  0  0  0  0  0  0  0
   56.8140   -3.4219   -7.9511 C   0  0  0  0  0  0  0  0  0  0  0  0
   55.5081   -3.8145   -8.6740 C   0  0  0  0  0  0  0  0  0  0  0  0
   55.7955   -4.2317  -10.0499 C   0  0  0  0  0  0  0  0  0  0  0  0
   54.9152   -4.7000  -10.7796 O   0  0  0  0  0  0  0  0  0  0  0  0
   57.1049   -4.1082  -10.5845 N   0  0  0  0  0  0  0  0  0  0  0  0
   57.8596   -3.7203   -9.9964 H   0  0  0  0  0  0  0  0  0  0  0  0
   57.4502   -4.5008  -11.9275 C   0  0  0  0  0  0  0  0  0  0  0  0
   58.9379   -4.4473  -12.1311 C   0  0  0  0  0  0  0  0  0  0  0  0
   59.3912   -3.4936  -12.7072 O   0  0  0  0  0  0  0  0  0  0  0  0
   56.7486   -3.5676  -12.8869 C   0  0  0  0  0  0  0  0  0  0  0  0
   56.1291   -4.3419  -14.0291 C   0  0  0  0  0  0  0  0  0  0  0  0
   56.5706   -3.6429  -15.3197 C   0  0  0  0  0  0  0  0  0  0  0  0
   57.8651   -3.0032  -15.1296 N   0  0  0  0  0  0  0  0  0  0  0  0
   58.2017   -2.8309  -14.1402 H   0  0  0  0  0  0  0  0  0  0  0  0
   58.6043   -2.6463  -16.2689 C   0  0  0  0  0  0  0  0  0  0  0  0
   58.8060   -3.5932  -17.3011 N   0  0  0  0  0  0  0  0  0  0  0  0
   59.1005   -1.4759  -16.3897 N   0  0  0  0  0  0  0  0  0  0  0  0
   59.6650   -4.1870  -17.3657 H   0  0  0  0  0  0  0  0  0  0  0  0
   58.0819   -3.7387  -18.0587 H   0  0  0  0  0  0  0  0  0  0  0  0
   58.9914   -0.7334  -15.6719 H   0  0  0  0  0  0  0  0  0  0  0  0
   53.0148   -6.0636   -6.6729 C   0  0  0  0  0  0  0  0  0  0  0  0
   54.3891   -6.9426   -4.7516 C   0  0  0  0  0  0  0  0  0  0  0  0
   54.7596   -7.9209   -5.4480 O   0  0  0  0  0  0  0  0  0  0  0  0
   53.5126   -5.9674   -5.2979 N   0  0  0  0  0  0  0  0  0  0  0  0
   53.2114   -5.1629   -4.7175 H   0  0  0  0  0  0  0  0  0  0  0  0
   54.8672   -6.8670   -3.4551 O   0  0  0  0  0  0  0  0  0  0  0  0
   57.2276   -6.7432   -3.9711 C   0  0  0  0  0  0  0  0  0  0  0  0
   56.0497   -6.1734   -3.1849 C   0  0  0  0  0  0  0  0  0  0  0  0
   56.3843   -6.4023   -1.7075 C   0  0  0  0  0  0  0  0  0  0  0  0
   55.9613   -4.6820   -3.4112 C   0  0  0  0  0  0  0  0  0  0  0  0
   51.5091   -6.1394   -6.6506 C   0  0  0  0  0  0  0  0  0  0  0  0
   50.8905   -5.6277   -5.4207 C   0  0  0  0  0  0  0  0  0  0  0  0
   50.0566   -4.5457   -5.4570 C   0  0  0  0  0  0  0  0  0  0  0  0
   49.5131   -4.1037   -4.2482 C   0  0  0  0  0  0  0  0  0  0  0  0
   49.8292   -4.7608   -3.0805 C   0  0  0  0  0  0  0  0  0  0  0  0
   50.6649   -5.8485   -3.0339 C   0  0  0  0  0  0  0  0  0  0  0  0
   51.1957   -6.2760   -4.2321 C   0  0  0  0  0  0  0  0  0  0  0  0
   50.9909   -6.5354   -1.7786 C   0  0  0  0  0  0  0  0  0  0  0  0
   52.3572   -6.6162   -1.3864 N   0  0  0  0  0  0  0  0  0  0  0  0
   50.1235   -7.0635   -1.0191 N   0  0  0  0  0  0  0  0  0  0  0  0
   52.7106   -6.2011   -0.4983 H   0  0  0  0  0  0  0  0  0  0  0  0
   53.0551   -7.1083   -1.9992 H   0  0  0  0  0  0  0  0  0  0  0  0
   49.0959   -7.0922   -1.1578 H   0  0  0  0  0  0  0  0  0  0  0  0
 32 33  1  0  0  0
 33 34  1  0  0  0
 33 35  1  0  0  0
 33 31  1  0  0  0
 31 27  1  0  0  0
 27 28  2  0  0  0
 27 29  1  0  0  0
 29 26  1  0  0  0
 26 36  1  0  0  0
 36 37  1  0  0  0
 37 38  2  0  0  0
 38 39  1  0  0  0
 39 40  2  0  0  0
 40 41  1  0  0  0
 41 42  2  0  0  0
 41 43  1  0  0  0
 43 44  1  0  0  0
 43 45  2  0  0  0
 26  1  1  0  0  0
  1  2  2  0  0  0
  1  3  1  0  0  0
  3  4  1  0  0  0
  4  5  1  0  0  0
  5  6  1  0  0  0
  6  7  1  0  0  0
  7  8  1  0  0  0
  8  9  2  0  0  0
  8 10  1  0  0  0
 10 12  1  0  0  0
 12 15  1  0  0  0
 15 16  1  0  0  0
 16 17  1  0  0  0
 17 18  1  0  0  0
 18 20  1  0  0  0
 20 21  1  0  0  0
 20 22  2  0  0  0
 12 13  1  0  0  0
 13 14  2  0  0  0
 42 37  1  0  0  0
  7  3  1  0  0  0
 29 30  1  0  0  0
 44 46  1  0  0  0
 44 47  1  0  0  0
 45 48  1  0  0  0
 10 11  1  0  0  0
 18 19  1  0  0  0
 21 23  1  0  0  0
 21 24  1  0  0  0
 22 25  1  0  0  0
M  END
> <minimizedAffinity>
-7.39223

> <CNNscore>
0.1738853753

> <CNNaffinity>
6.4564232826

> <CNN_VS>
1.1226775646

> <CNNaffinity_variance>
0.2151474953

$$$$
[H]N=C(c1c([H])c([H])c([H])c(C([H])([H])[C@@]([H])(C(=O)N2C([H])([H])C([H])([H])C([H])([H])[C@@]2([H])C(=O)N([H])C([H])(C([H])=O)C([H])([H])C([H])([H])C([H])([H])N([H])C(=N[H])N([H])[H])N([H])C(=O)OC(C([H])([H])[H])(C([H])([H])[H])C([H])([H])[H])c1[H])N([H])[H]


 48 49  0  0  0  0  0  0  0  0999 V2000
   56.3787   -4.3271   -8.9410 C   0  0  0  0  0  0  0  0  0  0  0  0
   57.0235   -4.2871   -7.8131 O   0  0  0  0  0  0  0  0  0  0  0  0
   54.9760   -4.1731   -8.9335 N   0  0  0  0  0  0  0  0  0  0  0  0
   54.0507   -4.1874  -10.0293 C   0  0  0  0  0  0  0  0  0  0  0  0
   53.2968   -2.8707   -9.7744 C   0  0  0  0  0  0  0  0  0  0  0  0
   53.0874   -2.9234   -8.2878 C   0  0  0  0  0  0  0  0  0  0  0  0
   54.1585   -3.9081   -7.7729 C   0  0  0  0  0  0  0  0  0  0  0  0
   53.5210   -5.1036   -7.2124 C   0  0  0  0  0  0  0  0  0  0  0  0
   54.1060   -6.1915   -7.1789 O   0  0  0  0  0  0  0  0  0  0  0  0
   52.2025   -5.0423   -6.6894 N   0  0  0  0  0  0  0  0  0  0  0  0
   51.6906   -4.1459   -6.7051 H   0  0  0  0  0  0  0  0  0  0  0  0
   51.5222   -6.1814   -6.1265 C   0  0  0  0  0  0  0  0  0  0  0  0
   50.3663   -6.5923   -6.9941 C   0  0  0  0  0  0  0  0  0  0  0  0
   50.5398   -7.4964   -7.7682 O   0  0  0  0  0  0  0  0  0  0  0  0
   51.0419   -5.8077   -4.7432 C   0  0  0  0  0  0  0  0  0  0  0  0
   52.1751   -5.8863   -3.7445 C   0  0  0  0  0  0  0  0  0  0  0  0
   51.5948   -6.5207   -2.4757 C   0  0  0  0  0  0  0  0  0  0  0  0
   52.6663   -6.8950   -1.5632 N   0  0  0  0  0  0  0  0  0  0  0  0
   53.0130   -6.1731   -0.8699 H   0  0  0  0  0  0  0  0  0  0  0  0
   53.1875   -8.1962   -1.6473 C   0  0  0  0  0  0  0  0  0  0  0  0
   54.2032   -8.4870   -2.5887 N   0  0  0  0  0  0  0  0  0  0  0  0
   52.7579   -9.1262   -0.8850 N   0  0  0  0  0  0  0  0  0  0  0  0
   54.0022   -8.8882   -3.5338 H   0  0  0  0  0  0  0  0  0  0  0  0
   55.2219   -8.3054   -2.3676 H   0  0  0  0  0  0  0  0  0  0  0  0
   52.0155   -8.9828   -0.1732 H   0  0  0  0  0  0  0  0  0  0  0  0
   57.2299   -4.5244  -10.1108 C   0  0  0  0  0  0  0  0  0  0  0  0
   59.0971   -6.0490   -9.3746 C   0  0  0  0  0  0  0  0  0  0  0  0
   59.6017   -5.1220   -8.6925 O   0  0  0  0  0  0  0  0  0  0  0  0
   57.9055   -5.8248  -10.1146 N   0  0  0  0  0  0  0  0  0  0  0  0
   57.4949   -6.5944  -10.6750 H   0  0  0  0  0  0  0  0  0  0  0  0
   59.7478   -7.2704   -9.3685 O   0  0  0  0  0  0  0  0  0  0  0  0
   61.5305   -8.7287  -10.1091 C   0  0  0  0  0  0  0  0  0  0  0  0
   61.1162   -7.3352   -9.6434 C   0  0  0  0  0  0  0  0  0  0  0  0
   61.8574   -7.0990   -8.3236 C   0  0  0  0  0  0  0  0  0  0  0  0
   61.6010   -6.3029  -10.6347 C   0  0  0  0  0  0  0  0  0  0  0  0
   56.5686   -4.3056  -11.4480 C   0  0  0  0  0  0  0  0  0  0  0  0
   57.4934   -3.9700  -12.5385 C   0  0  0  0  0  0  0  0  0  0  0  0
   58.8304   -3.8207  -12.2985 C   0  0  0  0  0  0  0  0  0  0  0  0
   59.6511   -3.4882  -13.3791 C   0  0  0  0  0  0  0  0  0  0  0  0
   59.0965   -3.3248  -14.6285 C   0  0  0  0  0  0  0  0  0  0  0  0
   57.7554   -3.4732  -14.8796 C   0  0  0  0  0  0  0  0  0  0  0  0
   56.9549   -3.8011  -13.8065 C   0  0  0  0  0  0  0  0  0  0  0  0
   57.1826   -3.2939  -16.2189 C   0  0  0  0  0  0  0  0  0  0  0  0
   57.8534   -2.4317  -17.1320 N   0  0  0  0  0  0  0  0  0  0  0  0
   56.1206   -3.8643  -16.6126 N   0  0  0  0  0  0  0  0  0  0  0  0
   58.2311   -2.7661  -18.0439 H   0  0  0  0  0  0  0  0  0  0  0  0
   57.9849   -1.4150  -16.9000 H   0  0  0  0  0  0  0  0  0  0  0  0
   55.5178   -4.5165  -16.0768 H   0  0  0  0  0  0  0  0  0  0  0  0
 32 33  1  0  0  0
 33 34  1  0  0  0
 33 35  1  0  0  0
 33 31  1  0  0  0
 31 27  1  0  0  0
 27 28  2  0  0  0
 27 29  1  0  0  0
 29 26  1  0  0  0
 26 36  1  0  0  0
 36 37  1  0  0  0
 37 38  2  0  0  0
 38 39  1  0  0  0
 39 40  2  0  0  0
 40 41  1  0  0  0
 41 42  2  0  0  0
 41 43  1  0  0  0
 43 44  1  0  0  0
 43 45  2  0  0  0
 26  1  1  0  0  0
  1  2  2  0  0  0
  1  3  1  0  0  0
  3  4  1  0  0  0
  4  5  1  0  0  0
  5  6  1  0  0  0
  6  7  1  0  0  0
  7  8  1  0  0  0
  8  9  2  0  0  0
  8 10  1  0  0  0
 10 12  1  0  0  0
 12 15  1  0  0  0
 15 16  1  0  0  0
 16 17  1  0  0  0
 17 18  1  0  0  0
 18 20  1  0  0  0
 20 21  1  0  0  0
 20 22  2  0  0  0
 12 13  1  0  0  0
 13 14  2  0  0  0
 42 37  1  0  0  0
  7  3  1  0  0  0
 29 30  1  0  0  0
 44 46  1  0  0  0
 44 47  1  0  0  0
 45 48  1  0  0  0
 10 11  1  0  0  0
 18 19  1  0  0  0
 21 23  1  0  0  0
 21 24  1  0  0  0
 22 25  1  0  0  0
M  END
> <minimizedAffinity>
-6.90027

> <CNNscore>
0.1637710929

> <CNNaffinity>
6.1843023300

> <CNN_VS>
1.0128099918

> <CNNaffinity_variance>
0.7876783609

$$$$
[H]N=C(c1c([H])c([H])c([H])c(C([H])([H])[C@@]([H])(C(=O)N2C([H])([H])C([H])([H])C([H])([H])[C@@]2([H])C(=O)N([H])C([H])(C([H])=O)C([H])([H])C([H])([H])C([H])([H])N([H])C(=N[H])N([H])[H])N([H])C(=O)OC(C([H])([H])[H])(C([H])([H])[H])C([H])([H])[H])c1[H])N([H])[H]


 48 49  0  0  0  0  0  0  0  0999 V2000
   54.7462   -7.4363   -4.3827 C   0  0  0  0  0  0  0  0  0  0  0  0
   55.4477   -8.1762   -5.1888 O   0  0  0  0  0  0  0  0  0  0  0  0
   53.8349   -6.5059   -4.9260 N   0  0  0  0  0  0  0  0  0  0  0  0
   52.9648   -5.5832   -4.2562 C   0  0  0  0  0  0  0  0  0  0  0  0
   51.6230   -5.9308   -4.9239 C   0  0  0  0  0  0  0  0  0  0  0  0
   52.0254   -6.0595   -6.3655 C   0  0  0  0  0  0  0  0  0  0  0  0
   53.5457   -6.3226   -6.3291 C   0  0  0  0  0  0  0  0  0  0  0  0
   54.2692   -5.2038   -6.9413 C   0  0  0  0  0  0  0  0  0  0  0  0
   55.2874   -4.7330   -6.4234 O   0  0  0  0  0  0  0  0  0  0  0  0
   53.8140   -4.6265   -8.1558 N   0  0  0  0  0  0  0  0  0  0  0  0
   52.9655   -5.0003   -8.6099 H   0  0  0  0  0  0  0  0  0  0  0  0
   54.4802   -3.5260   -8.8057 C   0  0  0  0  0  0  0  0  0  0  0  0
   53.5012   -2.4382   -9.1461 C   0  0  0  0  0  0  0  0  0  0  0  0
   52.3969   -2.7658   -9.4925 O   0  0  0  0  0  0  0  0  0  0  0  0
   55.1476   -4.0507  -10.0560 C   0  0  0  0  0  0  0  0  0  0  0  0
   56.5281   -4.5829   -9.7418 C   0  0  0  0  0  0  0  0  0  0  0  0
   57.3634   -4.4065  -11.0148 C   0  0  0  0  0  0  0  0  0  0  0  0
   56.5772   -3.7443  -12.0465 N   0  0  0  0  0  0  0  0  0  0  0  0
   55.8369   -3.0485  -11.7471 H   0  0  0  0  0  0  0  0  0  0  0  0
   56.8398   -4.0612  -13.3890 C   0  0  0  0  0  0  0  0  0  0  0  0
   57.8016   -3.3162  -14.1118 N   0  0  0  0  0  0  0  0  0  0  0  0
   56.2221   -5.0149  -13.9716 N   0  0  0  0  0  0  0  0  0  0  0  0
   57.5485   -2.5054  -14.7227 H   0  0  0  0  0  0  0  0  0  0  0  0
   58.8308   -3.5556  -14.0595 H   0  0  0  0  0  0  0  0  0  0  0  0
   55.5053   -5.6013  -13.5017 H   0  0  0  0  0  0  0  0  0  0  0  0
   55.0003   -7.6860   -2.9668 C   0  0  0  0  0  0  0  0  0  0  0  0
   53.4527   -7.6942   -0.9773 C   0  0  0  0  0  0  0  0  0  0  0  0
   54.1367   -6.7957   -0.4259 O   0  0  0  0  0  0  0  0  0  0  0  0
   53.8239   -8.1927   -2.2546 N   0  0  0  0  0  0  0  0  0  0  0  0
   53.2547   -8.9340   -2.7034 H   0  0  0  0  0  0  0  0  0  0  0  0
   52.3459   -8.1627   -0.2912 O   0  0  0  0  0  0  0  0  0  0  0  0
   50.7617   -6.9241   -1.6364 C   0  0  0  0  0  0  0  0  0  0  0  0
   51.1052   -8.2330   -0.9299 C   0  0  0  0  0  0  0  0  0  0  0  0
   50.0421   -8.4107    0.1588 C   0  0  0  0  0  0  0  0  0  0  0  0
   50.9689   -9.3846   -1.8987 C   0  0  0  0  0  0  0  0  0  0  0  0
   56.1842   -8.5671   -2.6578 C   0  0  0  0  0  0  0  0  0  0  0  0
   57.4314   -7.8406   -2.3867 C   0  0  0  0  0  0  0  0  0  0  0  0
   57.4095   -6.6272   -1.7583 C   0  0  0  0  0  0  0  0  0  0  0  0
   58.6315   -5.9848   -1.5437 C   0  0  0  0  0  0  0  0  0  0  0  0
   59.7973   -6.5842   -1.9644 C   0  0  0  0  0  0  0  0  0  0  0  0
   59.8295   -7.8025   -2.5955 C   0  0  0  0  0  0  0  0  0  0  0  0
   58.6184   -8.4274   -2.8023 C   0  0  0  0  0  0  0  0  0  0  0  0
   61.0828   -8.4252   -3.0376 C   0  0  0  0  0  0  0  0  0  0  0  0
   62.0218   -7.6253   -3.7487 N   0  0  0  0  0  0  0  0  0  0  0  0
   61.3802   -9.6390   -2.8225 N   0  0  0  0  0  0  0  0  0  0  0  0
   62.9871   -7.4491   -3.3977 H   0  0  0  0  0  0  0  0  0  0  0  0
   61.7547   -7.1850   -4.6650 H   0  0  0  0  0  0  0  0  0  0  0  0
   60.8125  -10.3498   -2.3241 H   0  0  0  0  0  0  0  0  0  0  0  0
 32 33  1  0  0  0
 33 34  1  0  0  0
 33 35  1  0  0  0
 33 31  1  0  0  0
 31 27  1  0  0  0
 27 28  2  0  0  0
 27 29  1  0  0  0
 29 26  1  0  0  0
 26 36  1  0  0  0
 36 37  1  0  0  0
 37 38  2  0  0  0
 38 39  1  0  0  0
 39 40  2  0  0  0
 40 41  1  0  0  0
 41 42  2  0  0  0
 41 43  1  0  0  0
 43 44  1  0  0  0
 43 45  2  0  0  0
 26  1  1  0  0  0
  1  2  2  0  0  0
  1  3  1  0  0  0
  3  4  1  0  0  0
  4  5  1  0  0  0
  5  6  1  0  0  0
  6  7  1  0  0  0
  7  8  1  0  0  0
  8  9  2  0  0  0
  8 10  1  0  0  0
 10 12  1  0  0  0
 12 15  1  0  0  0
 15 16  1  0  0  0
 16 17  1  0  0  0
 17 18  1  0  0  0
 18 20  1  0  0  0
 20 21  1  0  0  0
 20 22  2  0  0  0
 12 13  1  0  0  0
 13 14  2  0  0  0
 42 37  1  0  0  0
  7  3  1  0  0  0
 29 30  1  0  0  0
 44 46  1  0  0  0
 44 47  1  0  0  0
 45 48  1  0  0  0
 10 11  1  0  0  0
 18 19  1  0  0  0
 21 23  1  0  0  0
 21 24  1  0  0  0
 22 25  1  0  0  0
M  END
> <minimizedAffinity>
-7.26909

> <CNNscore>
0.1524704993

> <CNNaffinity>
6.2537531853

> <CNN_VS>
0.9535128474

> <CNNaffinity_variance>
0.3325207233

$$$$
[H]N=C(c1c([H])c([H])c([H])c(C([H])([H])[C@@]([H])(C(=O)N2C([H])([H])C([H])([H])C([H])([H])[C@@]2([H])C(=O)N([H])C([H])(C([H])=O)C([H])([H])C([H])([H])C([H])([H])N([H])C(=N[H])N([H])[H])N([H])C(=O)OC(C([H])([H])[H])(C([H])([H])[H])C([H])([H])[H])c1[H])N([H])[H]


 48 49  0  0  0  0  0  0  0  0999 V2000
   55.9868   -5.8492   -3.6504 C   0  0  0  0  0  0  0  0  0  0  0  0
   56.8512   -4.9528   -3.2780 O   0  0  0  0  0  0  0  0  0  0  0  0
   55.7581   -6.9665   -2.8193 N   0  0  0  0  0  0  0  0  0  0  0  0
   54.8739   -8.0796   -3.0098 C   0  0  0  0  0  0  0  0  0  0  0  0
   54.1096   -8.0598   -1.6747 C   0  0  0  0  0  0  0  0  0  0  0  0
   55.2205   -7.8219   -0.6921 C   0  0  0  0  0  0  0  0  0  0  0  0
   56.3594   -7.1990   -1.5269 C   0  0  0  0  0  0  0  0  0  0  0  0
   57.5134   -8.1027   -1.5650 C   0  0  0  0  0  0  0  0  0  0  0  0
   57.4878   -9.2061   -1.0094 O   0  0  0  0  0  0  0  0  0  0  0  0
   58.7016   -7.7299   -2.2469 N   0  0  0  0  0  0  0  0  0  0  0  0
   58.7502   -6.8134   -2.7196 H   0  0  0  0  0  0  0  0  0  0  0  0
   59.8684   -8.5728   -2.3193 C   0  0  0  0  0  0  0  0  0  0  0  0
   61.0314   -7.9322   -1.6161 C   0  0  0  0  0  0  0  0  0  0  0  0
   61.8371   -7.3430   -2.2872 O   0  0  0  0  0  0  0  0  0  0  0  0
   60.1918   -8.8064   -3.7770 C   0  0  0  0  0  0  0  0  0  0  0  0
   60.7542  -10.1952   -3.9839 C   0  0  0  0  0  0  0  0  0  0  0  0
   61.3581  -10.2155   -5.3924 C   0  0  0  0  0  0  0  0  0  0  0  0
   60.7451  -11.2694   -6.1891 N   0  0  0  0  0  0  0  0  0  0  0  0
   60.2398  -12.0524   -5.6857 H   0  0  0  0  0  0  0  0  0  0  0  0
   60.8542  -11.1952   -7.5871 C   0  0  0  0  0  0  0  0  0  0  0  0
   60.9396   -9.9321   -8.2194 N   0  0  0  0  0  0  0  0  0  0  0  0
   60.8773  -12.2536   -8.3011 N   0  0  0  0  0  0  0  0  0  0  0  0
   60.1058   -9.4379   -8.6135 H   0  0  0  0  0  0  0  0  0  0  0  0
   61.8665   -9.4315   -8.3180 H   0  0  0  0  0  0  0  0  0  0  0  0
   60.8187  -13.2112   -7.9034 H   0  0  0  0  0  0  0  0  0  0  0  0
   55.3365   -5.5609   -4.9254 C   0  0  0  0  0  0  0  0  0  0  0  0
   53.0439   -6.1250   -5.8078 C   0  0  0  0  0  0  0  0  0  0  0  0
   53.5546   -6.7137   -6.7936 O   0  0  0  0  0  0  0  0  0  0  0  0
   53.8749   -5.5211   -4.8267 N   0  0  0  0  0  0  0  0  0  0  0  0
   53.4464   -5.0373   -4.0160 H   0  0  0  0  0  0  0  0  0  0  0  0
   51.6625   -6.0953   -5.7299 O   0  0  0  0  0  0  0  0  0  0  0  0
   50.1647   -4.2459   -5.2950 C   0  0  0  0  0  0  0  0  0  0  0  0
   50.9505   -5.0514   -6.3264 C   0  0  0  0  0  0  0  0  0  0  0  0
   49.9029   -5.6834   -7.2484 C   0  0  0  0  0  0  0  0  0  0  0  0
   51.7969   -4.1194   -7.1620 C   0  0  0  0  0  0  0  0  0  0  0  0
   55.8185   -4.3258   -5.6435 C   0  0  0  0  0  0  0  0  0  0  0  0
   56.3494   -4.5712   -6.9907 C   0  0  0  0  0  0  0  0  0  0  0  0
   57.5273   -5.2418   -7.1649 C   0  0  0  0  0  0  0  0  0  0  0  0
   57.9808   -5.4289   -8.4731 C   0  0  0  0  0  0  0  0  0  0  0  0
   57.2398   -4.9405   -9.5255 C   0  0  0  0  0  0  0  0  0  0  0  0
   56.0556   -4.2664   -9.3607 C   0  0  0  0  0  0  0  0  0  0  0  0
   55.6176   -4.0874   -8.0661 C   0  0  0  0  0  0  0  0  0  0  0  0
   55.2800   -3.7523  -10.4956 C   0  0  0  0  0  0  0  0  0  0  0  0
   53.9380   -3.3364  -10.2651 N   0  0  0  0  0  0  0  0  0  0  0  0
   55.7367   -3.6560  -11.6747 N   0  0  0  0  0  0  0  0  0  0  0  0
   53.6169   -2.3598  -10.4358 H   0  0  0  0  0  0  0  0  0  0  0  0
   53.2255   -4.0223   -9.9093 H   0  0  0  0  0  0  0  0  0  0  0  0
   56.6848   -3.9128  -12.0079 H   0  0  0  0  0  0  0  0  0  0  0  0
 32 33  1  0  0  0
 33 34  1  0  0  0
 33 35  1  0  0  0
 33 31  1  0  0  0
 31 27  1  0  0  0
 27 28  2  0  0  0
 27 29  1  0  0  0
 29 26  1  0  0  0
 26 36  1  0  0  0
 36 37  1  0  0  0
 37 38  2  0  0  0
 38 39  1  0  0  0
 39 40  2  0  0  0
 40 41  1  0  0  0
 41 42  2  0  0  0
 41 43  1  0  0  0
 43 44  1  0  0  0
 43 45  2  0  0  0
 26  1  1  0  0  0
  1  2  2  0  0  0
  1  3  1  0  0  0
  3  4  1  0  0  0
  4  5  1  0  0  0
  5  6  1  0  0  0
  6  7  1  0  0  0
  7  8  1  0  0  0
  8  9  2  0  0  0
  8 10  1  0  0  0
 10 12  1  0  0  0
 12 15  1  0  0  0
 15 16  1  0  0  0
 16 17  1  0  0  0
 17 18  1  0  0  0
 18 20  1  0  0  0
 20 21  1  0  0  0
 20 22  2  0  0  0
 12 13  1  0  0  0
 13 14  2  0  0  0
 42 37  1  0  0  0
  7  3  1  0  0  0
 29 30  1  0  0  0
 44 46  1  0  0  0
 44 47  1  0  0  0
 45 48  1  0  0  0
 10 11  1  0  0  0
 18 19  1  0  0  0
 21 23  1  0  0  0
 21 24  1  0  0  0
 22 25  1  0  0  0
M  END
> <minimizedAffinity>
-6.85500

> <CNNscore>
0.1453995407

> <CNNaffinity>
6.4961380959

> <CNN_VS>
0.9445354939

> <CNNaffinity_variance>
0.0941540152

$$$$
[H]N=C(c1c([H])c([H])c([H])c(C([H])([H])[C@@]([H])(C(=O)N2C([H])([H])C([H])([H])C([H])([H])[C@@]2([H])C(=O)N([H])C([H])(C([H])=O)C([H])([H])C([H])([H])C([H])([H])N([H])C(=N[H])N([H])[H])N([H])C(=O)OC(C([H])([H])[H])(C([H])([H])[H])C([H])([H])[H])c1[H])N([H])[H]


 48 49  0  0  0  0  0  0  0  0999 V2000
   55.9867   -5.8171   -4.3003 C   0  0  0  0  0  0  0  0  0  0  0  0
   56.8463   -4.9335   -3.8882 O   0  0  0  0  0  0  0  0  0  0  0  0
   55.8274   -7.0115   -3.5658 N   0  0  0  0  0  0  0  0  0  0  0  0
   54.9625   -8.1279   -3.8161 C   0  0  0  0  0  0  0  0  0  0  0  0
   54.2653   -8.2517   -2.4501 C   0  0  0  0  0  0  0  0  0  0  0  0
   55.4177   -8.0718   -1.5035 C   0  0  0  0  0  0  0  0  0  0  0  0
   56.4978   -7.3429   -2.3303 C   0  0  0  0  0  0  0  0  0  0  0  0
   57.6704   -8.2054   -2.5062 C   0  0  0  0  0  0  0  0  0  0  0  0
   57.6709   -9.3801   -2.1228 O   0  0  0  0  0  0  0  0  0  0  0  0
   58.8469   -7.7088   -3.1265 N   0  0  0  0  0  0  0  0  0  0  0  0
   58.8738   -6.7308   -3.4561 H   0  0  0  0  0  0  0  0  0  0  0  0
   60.0308   -8.5058   -3.3272 C   0  0  0  0  0  0  0  0  0  0  0  0
   61.0505   -8.2209   -2.2610 C   0  0  0  0  0  0  0  0  0  0  0  0
   61.0486   -7.1269   -1.7613 O   0  0  0  0  0  0  0  0  0  0  0  0
   60.5885   -8.1861   -4.6949 C   0  0  0  0  0  0  0  0  0  0  0  0
   62.0198   -8.6607   -4.8130 C   0  0  0  0  0  0  0  0  0  0  0  0
   61.9942   -9.9046   -5.7081 C   0  0  0  0  0  0  0  0  0  0  0  0
   61.0586   -9.7154   -6.8081 N   0  0  0  0  0  0  0  0  0  0  0  0
   60.0342   -9.5727   -6.5796 H   0  0  0  0  0  0  0  0  0  0  0  0
   61.5614   -9.7312   -8.1191 C   0  0  0  0  0  0  0  0  0  0  0  0
   62.8217  -10.3188   -8.3815 N   0  0  0  0  0  0  0  0  0  0  0  0
   60.8974   -9.2214   -9.0833 N   0  0  0  0  0  0  0  0  0  0  0  0
   63.7075   -9.7637   -8.4273 H   0  0  0  0  0  0  0  0  0  0  0  0
   62.9166  -11.3601   -8.5431 H   0  0  0  0  0  0  0  0  0  0  0  0
   59.9677   -8.7747   -8.9621 H   0  0  0  0  0  0  0  0  0  0  0  0
   55.2669   -5.4332   -5.5111 C   0  0  0  0  0  0  0  0  0  0  0  0
   52.9175   -6.0139   -6.2154 C   0  0  0  0  0  0  0  0  0  0  0  0
   53.3585   -6.6527   -7.2038 O   0  0  0  0  0  0  0  0  0  0  0  0
   53.8151   -5.3739   -5.3197 N   0  0  0  0  0  0  0  0  0  0  0  0
   53.4440   -4.8488   -4.5064 H   0  0  0  0  0  0  0  0  0  0  0  0
   51.5444   -5.9665   -6.0496 O   0  0  0  0  0  0  0  0  0  0  0  0
   50.1180   -4.1798   -5.2582 C   0  0  0  0  0  0  0  0  0  0  0  0
   50.8313   -4.8304   -6.4407 C   0  0  0  0  0  0  0  0  0  0  0  0
   49.7238   -5.2932   -7.3926 C   0  0  0  0  0  0  0  0  0  0  0  0
   51.6596   -3.7958   -7.1665 C   0  0  0  0  0  0  0  0  0  0  0  0
   55.7314   -4.1619   -6.1756 C   0  0  0  0  0  0  0  0  0  0  0  0
   56.0862   -4.3087   -7.5932 C   0  0  0  0  0  0  0  0  0  0  0  0
   55.2176   -3.9195   -8.5738 C   0  0  0  0  0  0  0  0  0  0  0  0
   55.6138   -4.0998   -9.9014 C   0  0  0  0  0  0  0  0  0  0  0  0
   56.8443   -4.6535  -10.1740 C   0  0  0  0  0  0  0  0  0  0  0  0
   57.7237   -5.0467   -9.1964 C   0  0  0  0  0  0  0  0  0  0  0  0
   57.3228   -4.8645   -7.8902 C   0  0  0  0  0  0  0  0  0  0  0  0
   59.0313   -5.6361   -9.5070 C   0  0  0  0  0  0  0  0  0  0  0  0
   59.7100   -6.3553   -8.4827 N   0  0  0  0  0  0  0  0  0  0  0  0
   59.5950   -5.5423  -10.6391 N   0  0  0  0  0  0  0  0  0  0  0  0
   59.9562   -7.3637   -8.5750 H   0  0  0  0  0  0  0  0  0  0  0  0
   59.9838   -5.8725   -7.5901 H   0  0  0  0  0  0  0  0  0  0  0  0
   59.2384   -5.0578  -11.4842 H   0  0  0  0  0  0  0  0  0  0  0  0
 32 33  1  0  0  0
 33 34  1  0  0  0
 33 35  1  0  0  0
 33 31  1  0  0  0
 31 27  1  0  0  0
 27 28  2  0  0  0
 27 29  1  0  0  0
 29 26  1  0  0  0
 26 36  1  0  0  0
 36 37  1  0  0  0
 37 38  2  0  0  0
 38 39  1  0  0  0
 39 40  2  0  0  0
 40 41  1  0  0  0
 41 42  2  0  0  0
 41 43  1  0  0  0
 43 44  1  0  0  0
 43 45  2  0  0  0
 26  1  1  0  0  0
  1  2  2  0  0  0
  1  3  1  0  0  0
  3  4  1  0  0  0
  4  5  1  0  0  0
  5  6  1  0  0  0
  6  7  1  0  0  0
  7  8  1  0  0  0
  8  9  2  0  0  0
  8 10  1  0  0  0
 10 12  1  0  0  0
 12 15  1  0  0  0
 15 16  1  0  0  0
 16 17  1  0  0  0
 17 18  1  0  0  0
 18 20  1  0  0  0
 20 21  1  0  0  0
 20 22  2  0  0  0
 12 13  1  0  0  0
 13 14  2  0  0  0
 42 37  1  0  0  0
  7  3  1  0  0  0
 29 30  1  0  0  0
 44 46  1  0  0  0
 44 47  1  0  0  0
 45 48  1  0  0  0
 10 11  1  0  0  0
 18 19  1  0  0  0
 21 23  1  0  0  0
 21 24  1  0  0  0
 22 25  1  0  0  0
M  END
> <minimizedAffinity>
-7.39103

> <CNNscore>
0.1401886642

> <CNNaffinity>
6.2836804390

> <CNN_VS>
0.8809007406

> <CNNaffinity_variance>
0.1193490624

$$$$
[H]N=C(c1c([H])c([H])c([H])c(C([H])([H])[C@@]([H])(C(=O)N2C([H])([H])C([H])([H])C([H])([H])[C@@]2([H])C(=O)N([H])C([H])(C([H])=O)C([H])([H])C([H])([H])C([H])([H])N([H])C(=N[H])N([H])[H])N([H])C(=O)OC(C([H])([H])[H])(C([H])([H])[H])C([H])([H])[H])c1[H])N([H])[H]


 48 49  0  0  0  0  0  0  0  0999 V2000
   55.4087   -7.0419   -5.4201 C   0  0  0  0  0  0  0  0  0  0  0  0
   54.8276   -8.1393   -5.8041 O   0  0  0  0  0  0  0  0  0  0  0  0
   56.1757   -7.0517   -4.2356 N   0  0  0  0  0  0  0  0  0  0  0  0
   56.8972   -5.9834   -3.6070 C   0  0  0  0  0  0  0  0  0  0  0  0
   58.2787   -6.6401   -3.4414 C   0  0  0  0  0  0  0  0  0  0  0  0
   57.9065   -8.0139   -2.9612 C   0  0  0  0  0  0  0  0  0  0  0  0
   56.4414   -8.2045   -3.4072 C   0  0  0  0  0  0  0  0  0  0  0  0
   55.5640   -8.3073   -2.2370 C   0  0  0  0  0  0  0  0  0  0  0  0
   55.9931   -8.6774   -1.1390 O   0  0  0  0  0  0  0  0  0  0  0  0
   54.1856   -7.9819   -2.3359 N   0  0  0  0  0  0  0  0  0  0  0  0
   53.8005   -7.6701   -3.2416 H   0  0  0  0  0  0  0  0  0  0  0  0
   53.2729   -8.0633   -1.2234 C   0  0  0  0  0  0  0  0  0  0  0  0
   51.9854   -8.7169   -1.6389 C   0  0  0  0  0  0  0  0  0  0  0  0
   51.0263   -8.0106   -1.8061 O   0  0  0  0  0  0  0  0  0  0  0  0
   53.0187   -6.6618   -0.7183 C   0  0  0  0  0  0  0  0  0  0  0  0
   53.2167   -5.6505   -1.8255 C   0  0  0  0  0  0  0  0  0  0  0  0
   54.4160   -4.7875   -1.4181 C   0  0  0  0  0  0  0  0  0  0  0  0
   54.9229   -5.2087   -0.1194 N   0  0  0  0  0  0  0  0  0  0  0  0
   54.2252   -5.4300    0.6463 H   0  0  0  0  0  0  0  0  0  0  0  0
   56.3132   -5.3012    0.0539 C   0  0  0  0  0  0  0  0  0  0  0  0
   57.0940   -4.1225    0.1148 N   0  0  0  0  0  0  0  0  0  0  0  0
   56.8880   -6.4368    0.1576 N   0  0  0  0  0  0  0  0  0  0  0  0
   57.5818   -3.7219   -0.7196 H   0  0  0  0  0  0  0  0  0  0  0  0
   57.2146   -3.5929    1.0227 H   0  0  0  0  0  0  0  0  0  0  0  0
   56.3769   -7.3401    0.1214 H   0  0  0  0  0  0  0  0  0  0  0  0
   55.1875   -5.9045   -6.3085 C   0  0  0  0  0  0  0  0  0  0  0  0
   52.9128   -4.9504   -6.8263 C   0  0  0  0  0  0  0  0  0  0  0  0
   52.9289   -5.4943   -7.9591 O   0  0  0  0  0  0  0  0  0  0  0  0
   54.0117   -5.1108   -5.9406 N   0  0  0  0  0  0  0  0  0  0  0  0
   53.9913   -4.6592   -5.0076 H   0  0  0  0  0  0  0  0  0  0  0  0
   51.7959   -4.2035   -6.4948 O   0  0  0  0  0  0  0  0  0  0  0  0
   51.1913   -5.7301   -4.7181 C   0  0  0  0  0  0  0  0  0  0  0  0
   50.7200   -4.8074   -5.8391 C   0  0  0  0  0  0  0  0  0  0  0  0
   50.0167   -5.7120   -6.8561 C   0  0  0  0  0  0  0  0  0  0  0  0
   49.6952   -3.8360   -5.3010 C   0  0  0  0  0  0  0  0  0  0  0  0
   56.3659   -4.9840   -6.5020 C   0  0  0  0  0  0  0  0  0  0  0  0
   56.9132   -4.9715   -7.8648 C   0  0  0  0  0  0  0  0  0  0  0  0
   56.2078   -4.4158   -8.8949 C   0  0  0  0  0  0  0  0  0  0  0  0
   56.7820   -4.4500  -10.1682 C   0  0  0  0  0  0  0  0  0  0  0  0
   58.0177   -5.0318  -10.3409 C   0  0  0  0  0  0  0  0  0  0  0  0
   58.7339   -5.5918   -9.3127 C   0  0  0  0  0  0  0  0  0  0  0  0
   58.1582   -5.5527   -8.0609 C   0  0  0  0  0  0  0  0  0  0  0  0
   60.0499   -6.2084   -9.5169 C   0  0  0  0  0  0  0  0  0  0  0  0
   60.6071   -6.9804   -8.4583 N   0  0  0  0  0  0  0  0  0  0  0  0
   60.7231   -6.0938  -10.5855 N   0  0  0  0  0  0  0  0  0  0  0  0
   60.8350   -7.9920   -8.5624 H   0  0  0  0  0  0  0  0  0  0  0  0
   60.8053   -6.5355   -7.5269 H   0  0  0  0  0  0  0  0  0  0  0  0
   60.4629   -5.5716  -11.4431 H   0  0  0  0  0  0  0  0  0  0  0  0
 32 33  1  0  0  0
 33 34  1  0  0  0
 33 35  1  0  0  0
 33 31  1  0  0  0
 31 27  1  0  0  0
 27 28  2  0  0  0
 27 29  1  0  0  0
 29 26  1  0  0  0
 26 36  1  0  0  0
 36 37  1  0  0  0
 37 38  2  0  0  0
 38 39  1  0  0  0
 39 40  2  0  0  0
 40 41  1  0  0  0
 41 42  2  0  0  0
 41 43  1  0  0  0
 43 44  1  0  0  0
 43 45  2  0  0  0
 26  1  1  0  0  0
  1  2  2  0  0  0
  1  3  1  0  0  0
  3  4  1  0  0  0
  4  5  1  0  0  0
  5  6  1  0  0  0
  6  7  1  0  0  0
  7  8  1  0  0  0
  8  9  2  0  0  0
  8 10  1  0  0  0
 10 12  1  0  0  0
 12 15  1  0  0  0
 15 16  1  0  0  0
 16 17  1  0  0  0
 17 18  1  0  0  0
 18 20  1  0  0  0
 20 21  1  0  0  0
 20 22  2  0  0  0
 12 13  1  0  0  0
 13 14  2  0  0  0
 42 37  1  0  0  0
  7  3  1  0  0  0
 29 30  1  0  0  0
 44 46  1  0  0  0
 44 47  1  0  0  0
 45 48  1  0  0  0
 10 11  1  0  0  0
 18 19  1  0  0  0
 21 23  1  0  0  0
 21 24  1  0  0  0
 22 25  1  0  0  0
M  END
> <minimizedAffinity>
-6.92334

> <CNNscore>
0.1339742392

> <CNNaffinity>
6.2477817535

> <CNN_VS>
0.8370417953

> <CNNaffinity_variance>
0.3573262990

$$$$
[H]c1c([H])c([H])c(-c2c([H])c([H])c([H])c([H])c2OC([H])(C2=NC([H])([H])C([H])([H])N2[H])C([H])([H])[H])c([H])c1[H]


 21 23  0  0  0  0  0  0  0  0999 V2000
   54.9892   -4.3752   -8.2518 C   0  0  0  0  0  0  0  0  0  0  0  0
   55.2431   -3.9819   -9.5592 C   0  0  0  0  0  0  0  0  0  0  0  0
   56.4499   -4.1969  -10.1991 C   0  0  0  0  0  0  0  0  0  0  0  0
   57.4277   -4.8391   -9.4660 C   0  0  0  0  0  0  0  0  0  0  0  0
   57.1871   -5.2336   -8.1689 C   0  0  0  0  0  0  0  0  0  0  0  0
   55.9735   -5.0164   -7.5282 C   0  0  0  0  0  0  0  0  0  0  0  0
   55.8140   -5.4760   -6.1466 C   0  0  0  0  0  0  0  0  0  0  0  0
   55.5841   -6.8430   -5.9488 C   0  0  0  0  0  0  0  0  0  0  0  0
   55.4220   -7.3971   -4.7155 C   0  0  0  0  0  0  0  0  0  0  0  0
   55.4842   -6.5927   -3.6078 C   0  0  0  0  0  0  0  0  0  0  0  0
   55.7097   -5.2416   -3.7712 C   0  0  0  0  0  0  0  0  0  0  0  0
   55.8735   -4.6899   -5.0419 C   0  0  0  0  0  0  0  0  0  0  0  0
   53.7950   -4.1561   -7.6385 O   0  0  0  0  0  0  0  0  0  0  0  0
   52.4160   -6.1504   -7.5308 C   0  0  0  0  0  0  0  0  0  0  0  0
   52.5437   -4.6842   -7.8873 C   0  0  0  0  0  0  0  0  0  0  0  0
   51.4485   -3.8977   -7.2125 C   0  0  0  0  0  0  0  0  0  0  0  0
   50.7498   -4.2176   -6.1871 N   0  0  0  0  0  0  0  0  0  0  0  0
   49.7847   -3.2147   -5.8161 C   0  0  0  0  0  0  0  0  0  0  0  0
   49.6764   -2.3758   -7.0691 C   0  0  0  0  0  0  0  0  0  0  0  0
   50.9925   -2.5987   -7.6398 N   0  0  0  0  0  0  0  0  0  0  0  0
   51.5470   -1.9804   -8.2447 H   0  0  0  0  0  0  0  0  0  0  0  0
 14 15  1  0  0  0
 15 13  1  0  0  0
 13  1  1  0  0  0
  1  2  2  0  0  0
  2  3  1  0  0  0
  3  4  2  0  0  0
  4  5  1  0  0  0
  5  6  2  0  0  0
  6  7  1  0  0  0
  7  8  2  0  0  0
  8  9  1  0  0  0
  9 10  2  0  0  0
 10 11  1  0  0  0
 11 12  2  0  0  0
 15 16  1  0  0  0
 16 17  2  0  0  0
 17 18  1  0  0  0
 18 19  1  0  0  0
 19 20  1  0  0  0
  6  1  1  0  0  0
 12  7  1  0  0  0
 20 16  1  0  0  0
 20 21  1  0  0  0
M  END
> <minimizedAffinity>
-7.91013

> <CNNscore>
0.5698103905

> <CNNaffinity>
5.8566923141

> <CNN_VS>
3.3372042179

> <CNNaffinity_variance>
0.0740021318

$$$$
[H]c1c([H])c([H])c(-c2c([H])c([H])c([H])c([H])c2OC([H])(C2=NC([H])([H])C([H])([H])N2[H])C([H])([H])[H])c([H])c1[H]


 21 23  0  0  0  0  0  0  0  0999 V2000
   60.9538   -9.7851   -4.0975 C   0  0  0  0  0  0  0  0  0  0  0  0
   60.1666   -8.6411   -4.0939 C   0  0  0  0  0  0  0  0  0  0  0  0
   60.2791   -7.6414   -3.1452 C   0  0  0  0  0  0  0  0  0  0  0  0
   61.2357   -7.8277   -2.1674 C   0  0  0  0  0  0  0  0  0  0  0  0
   62.0219   -8.9581   -2.1610 C   0  0  0  0  0  0  0  0  0  0  0  0
   61.9069   -9.9613   -3.1155 C   0  0  0  0  0  0  0  0  0  0  0  0
   62.7917  -11.1251   -3.0247 C   0  0  0  0  0  0  0  0  0  0  0  0
   64.0646  -11.0080   -3.5961 C   0  0  0  0  0  0  0  0  0  0  0  0
   64.9818  -12.0144   -3.5767 C   0  0  0  0  0  0  0  0  0  0  0  0
   64.6585  -13.2019   -2.9739 C   0  0  0  0  0  0  0  0  0  0  0  0
   63.4115  -13.3469   -2.4020 C   0  0  0  0  0  0  0  0  0  0  0  0
   62.4835  -12.3058   -2.4308 C   0  0  0  0  0  0  0  0  0  0  0  0
   60.8297  -10.7582   -5.0397 O   0  0  0  0  0  0  0  0  0  0  0  0
   60.5875  -11.5772   -7.3116 C   0  0  0  0  0  0  0  0  0  0  0  0
   61.4544  -10.9151   -6.2611 C   0  0  0  0  0  0  0  0  0  0  0  0
   61.9984   -9.6140   -6.7945 C   0  0  0  0  0  0  0  0  0  0  0  0
   63.1773   -9.1281   -6.6671 N   0  0  0  0  0  0  0  0  0  0  0  0
   63.3437   -7.8519   -7.3137 C   0  0  0  0  0  0  0  0  0  0  0  0
   61.9183   -7.3849   -7.5028 C   0  0  0  0  0  0  0  0  0  0  0  0
   61.2370   -8.6652   -7.5678 N   0  0  0  0  0  0  0  0  0  0  0  0
   60.3685   -8.9101   -8.0590 H   0  0  0  0  0  0  0  0  0  0  0  0
 14 15  1  0  0  0
 15 13  1  0  0  0
 13  1  1  0  0  0
  1  2  2  0  0  0
  2  3  1  0  0  0
  3  4  2  0  0  0
  4  5  1  0  0  0
  5  6  2  0  0  0
  6  7  1  0  0  0
  7  8  2  0  0  0
  8  9  1  0  0  0
  9 10  2  0  0  0
 10 11  1  0  0  0
 11 12  2  0  0  0
 15 16  1  0  0  0
 16 17  2  0  0  0
 17 18  1  0  0  0
 18 19  1  0  0  0
 19 20  1  0  0  0
  6  1  1  0  0  0
 12  7  1  0  0  0
 20 16  1  0  0  0
 20 21  1  0  0  0
M  END
> <minimizedAffinity>
-2.48710

> <CNNscore>
0.5220242739

> <CNNaffinity>
3.7315604687

> <CNN_VS>
1.9479651451

> <CNNaffinity_variance>
0.0302043594

$$$$
[H]c1c([H])c([H])c(-c2c([H])c([H])c([H])c([H])c2OC([H])(C2=NC([H])([H])C([H])([H])N2[H])C([H])([H])[H])c([H])c1[H]


 21 23  0  0  0  0  0  0  0  0999 V2000
   62.5265  -11.0060   -9.0416 C   0  0  0  0  0  0  0  0  0  0  0  0
   62.1632  -12.3456   -8.9945 C   0  0  0  0  0  0  0  0  0  0  0  0
   61.2014  -12.8448   -8.1355 C   0  0  0  0  0  0  0  0  0  0  0  0
   60.5938  -11.9319   -7.2970 C   0  0  0  0  0  0  0  0  0  0  0  0
   60.9459  -10.6013   -7.3349 C   0  0  0  0  0  0  0  0  0  0  0  0
   61.9127  -10.1021   -8.1990 C   0  0  0  0  0  0  0  0  0  0  0  0
   62.2154   -8.6693   -8.1658 C   0  0  0  0  0  0  0  0  0  0  0  0
   61.4630   -7.8362   -9.0027 C   0  0  0  0  0  0  0  0  0  0  0  0
   61.6432   -6.4878   -9.0634 C   0  0  0  0  0  0  0  0  0  0  0  0
   62.6011   -5.9052   -8.2753 C   0  0  0  0  0  0  0  0  0  0  0  0
   63.3582   -6.7006   -7.4403 C   0  0  0  0  0  0  0  0  0  0  0  0
   63.1607   -8.0806   -7.3902 C   0  0  0  0  0  0  0  0  0  0  0  0
   63.4746  -10.5325   -9.8941 O   0  0  0  0  0  0  0  0  0  0  0  0
   64.1642   -8.9564  -11.6063 C   0  0  0  0  0  0  0  0  0  0  0  0
   63.4013  -10.2108  -11.2350 C   0  0  0  0  0  0  0  0  0  0  0  0
   63.8347  -11.3523  -12.1196 C   0  0  0  0  0  0  0  0  0  0  0  0
   63.1055  -12.1890  -12.7601 N   0  0  0  0  0  0  0  0  0  0  0  0
   63.8662  -13.1540  -13.5116 C   0  0  0  0  0  0  0  0  0  0  0  0
   65.2354  -13.0676  -12.8764 C   0  0  0  0  0  0  0  0  0  0  0  0
   65.2069  -11.6986  -12.3939 N   0  0  0  0  0  0  0  0  0  0  0  0
   65.9889  -11.0474  -12.2530 H   0  0  0  0  0  0  0  0  0  0  0  0
 14 15  1  0  0  0
 15 13  1  0  0  0
 13  1  1  0  0  0
  1  2  2  0  0  0
  2  3  1  0  0  0
  3  4  2  0  0  0
  4  5  1  0  0  0
  5  6  2  0  0  0
  6  7  1  0  0  0
  7  8  2  0  0  0
  8  9  1  0  0  0
  9 10  2  0  0  0
 10 11  1  0  0  0
 11 12  2  0  0  0
 15 16  1  0  0  0
 16 17  2  0  0  0
 17 18  1  0  0  0
 18 19  1  0  0  0
 19 20  1  0  0  0
  6  1  1  0  0  0
 12  7  1  0  0  0
 20 16  1  0  0  0
 20 21  1  0  0  0
M  END
> <minimizedAffinity>
-2.70691

> <CNNscore>
0.4931460917

> <CNNaffinity>
3.6393713951

> <CNN_VS>
1.7947417498

> <CNNaffinity_variance>
0.2380480319

$$$$
[H]c1c([H])c([H])c(-c2c([H])c([H])c([H])c([H])c2OC([H])(C2=NC([H])([H])C([H])([H])N2[H])C([H])([H])[H])c([H])c1[H]


 21 23  0  0  0  0  0  0  0  0999 V2000
   63.6907   -8.0645  -10.4938 C   0  0  0  0  0  0  0  0  0  0  0  0
   63.6351   -9.3401   -9.9474 C   0  0  0  0  0  0  0  0  0  0  0  0
   63.7208  -10.4964  -10.7010 C   0  0  0  0  0  0  0  0  0  0  0  0
   63.8688  -10.3316  -12.0636 C   0  0  0  0  0  0  0  0  0  0  0  0
   63.9251   -9.0717  -12.6163 C   0  0  0  0  0  0  0  0  0  0  0  0
   63.8388   -7.9114  -11.8570 C   0  0  0  0  0  0  0  0  0  0  0  0
   63.9117   -6.6165  -12.5379 C   0  0  0  0  0  0  0  0  0  0  0  0
   62.7239   -6.1097  -13.0790 C   0  0  0  0  0  0  0  0  0  0  0  0
   62.6563   -4.9171  -13.7328 C   0  0  0  0  0  0  0  0  0  0  0  0
   63.7946   -4.1676  -13.8757 C   0  0  0  0  0  0  0  0  0  0  0  0
   64.9801   -4.6411  -13.3529 C   0  0  0  0  0  0  0  0  0  0  0  0
   65.0321   -5.8651  -12.6858 C   0  0  0  0  0  0  0  0  0  0  0  0
   63.6056   -6.9378   -9.7366 O   0  0  0  0  0  0  0  0  0  0  0  0
   61.2066   -6.5741   -9.6803 C   0  0  0  0  0  0  0  0  0  0  0  0
   62.5541   -6.4194   -9.0069 C   0  0  0  0  0  0  0  0  0  0  0  0
   62.4950   -6.9859   -7.6108 C   0  0  0  0  0  0  0  0  0  0  0  0
   61.4726   -7.4002   -6.9587 N   0  0  0  0  0  0  0  0  0  0  0  0
   61.7913   -7.8800   -5.6386 C   0  0  0  0  0  0  0  0  0  0  0  0
   63.1547   -7.2781   -5.3846 C   0  0  0  0  0  0  0  0  0  0  0  0
   63.6374   -7.1555   -6.7483 N   0  0  0  0  0  0  0  0  0  0  0  0
   64.6041   -7.1777   -7.0953 H   0  0  0  0  0  0  0  0  0  0  0  0
 14 15  1  0  0  0
 15 13  1  0  0  0
 13  1  1  0  0  0
  1  2  2  0  0  0
  2  3  1  0  0  0
  3  4  2  0  0  0
  4  5  1  0  0  0
  5  6  2  0  0  0
  6  7  1  0  0  0
  7  8  2  0  0  0
  8  9  1  0  0  0
  9 10  2  0  0  0
 10 11  1  0  0  0
 11 12  2  0  0  0
 15 16  1  0  0  0
 16 17  2  0  0  0
 17 18  1  0  0  0
 18 19  1  0  0  0
 19 20  1  0  0  0
  6  1  1  0  0  0
 12  7  1  0  0  0
 20 16  1  0  0  0
 20 21  1  0  0  0
M  END
> <minimizedAffinity>
-2.61592

> <CNNscore>
0.4016535282

> <CNNaffinity>
3.4823718071

> <CNN_VS>
1.3987069130

> <CNNaffinity_variance>
0.1197850108

$$$$
[H]c1c([H])c([H])c(-c2c([H])c([H])c([H])c([H])c2OC([H])(C2=NC([H])([H])C([H])([H])N2[H])C([H])([H])[H])c([H])c1[H]


 21 23  0  0  0  0  0  0  0  0999 V2000
   52.6250   -5.3344   -6.2086 C   0  0  0  0  0  0  0  0  0  0  0  0
   51.4596   -5.3524   -5.4535 C   0  0  0  0  0  0  0  0  0  0  0  0
   50.4183   -4.4615   -5.6377 C   0  0  0  0  0  0  0  0  0  0  0  0
   50.5843   -3.5204   -6.6340 C   0  0  0  0  0  0  0  0  0  0  0  0
   51.7355   -3.4932   -7.3889 C   0  0  0  0  0  0  0  0  0  0  0  0
   52.7805   -4.3896   -7.2020 C   0  0  0  0  0  0  0  0  0  0  0  0
   53.9638   -4.2809   -8.0584 C   0  0  0  0  0  0  0  0  0  0  0  0
   53.7506   -3.9934   -9.4120 C   0  0  0  0  0  0  0  0  0  0  0  0
   54.7647   -3.8633  -10.3115 C   0  0  0  0  0  0  0  0  0  0  0  0
   56.0586   -4.0182   -9.8871 C   0  0  0  0  0  0  0  0  0  0  0  0
   56.2999   -4.3019   -8.5588 C   0  0  0  0  0  0  0  0  0  0  0  0
   55.2493   -4.4319   -7.6504 C   0  0  0  0  0  0  0  0  0  0  0  0
   53.6391   -6.2197   -6.0139 O   0  0  0  0  0  0  0  0  0  0  0  0
   55.0019   -8.0128   -5.1091 C   0  0  0  0  0  0  0  0  0  0  0  0
   54.1019   -6.8207   -4.8600 C   0  0  0  0  0  0  0  0  0  0  0  0
   54.7932   -5.8417   -3.9451 C   0  0  0  0  0  0  0  0  0  0  0  0
   55.8422   -5.1409   -4.1700 N   0  0  0  0  0  0  0  0  0  0  0  0
   56.2224   -4.3064   -3.0592 C   0  0  0  0  0  0  0  0  0  0  0  0
   55.4821   -4.9350   -1.9005 C   0  0  0  0  0  0  0  0  0  0  0  0
   54.3607   -5.5284   -2.6062 N   0  0  0  0  0  0  0  0  0  0  0  0
   53.4098   -5.7158   -2.2654 H   0  0  0  0  0  0  0  0  0  0  0  0
 14 15  1  0  0  0
 15 13  1  0  0  0
 13  1  1  0  0  0
  1  2  2  0  0  0
  2  3  1  0  0  0
  3  4  2  0  0  0
  4  5  1  0  0  0
  5  6  2  0  0  0
  6  7  1  0  0  0
  7  8  2  0  0  0
  8  9  1  0  0  0
  9 10  2  0  0  0
 10 11  1  0  0  0
 11 12  2  0  0  0
 15 16  1  0  0  0
 16 17  2  0  0  0
 17 18  1  0  0  0
 18 19  1  0  0  0
 19 20  1  0  0  0
  6  1  1  0  0  0
 12  7  1  0  0  0
 20 16  1  0  0  0
 20 21  1  0  0  0
M  END
> <minimizedAffinity>
-7.98754

> <CNNscore>
0.4005074501

> <CNNaffinity>
5.5715355873

> <CNN_VS>
2.2314414978

> <CNNaffinity_variance>
0.1008360386

$$$$
[H]c1c([H])c([H])c(-c2c([H])c([H])c([H])c([H])c2OC([H])(C2=NC([H])([H])C([H])([H])N2[H])C([H])([H])[H])c([H])c1[H]


 21 23  0  0  0  0  0  0  0  0999 V2000
   63.4557   -6.6033   -6.8089 C   0  0  0  0  0  0  0  0  0  0  0  0
   64.0114   -5.6437   -7.6450 C   0  0  0  0  0  0  0  0  0  0  0  0
   64.8391   -4.6303   -7.1977 C   0  0  0  0  0  0  0  0  0  0  0  0
   65.1025   -4.6057   -5.8428 C   0  0  0  0  0  0  0  0  0  0  0  0
   64.5571   -5.5520   -5.0044 C   0  0  0  0  0  0  0  0  0  0  0  0
   63.7257   -6.5694   -5.4563 C   0  0  0  0  0  0  0  0  0  0  0  0
   63.1967   -7.5305   -4.4857 C   0  0  0  0  0  0  0  0  0  0  0  0
   64.0832   -8.4945   -3.9905 C   0  0  0  0  0  0  0  0  0  0  0  0
   63.7179   -9.4414   -3.0825 C   0  0  0  0  0  0  0  0  0  0  0  0
   62.4269   -9.4644   -2.6233 C   0  0  0  0  0  0  0  0  0  0  0  0
   61.5305   -8.5270   -3.0932 C   0  0  0  0  0  0  0  0  0  0  0  0
   61.9212   -7.5637   -4.0234 C   0  0  0  0  0  0  0  0  0  0  0  0
   62.6440   -7.5940   -7.2669 O   0  0  0  0  0  0  0  0  0  0  0  0
   64.3960   -9.2320   -7.6388 C   0  0  0  0  0  0  0  0  0  0  0  0
   62.9451   -8.8304   -7.8029 C   0  0  0  0  0  0  0  0  0  0  0  0
   62.0506   -9.9184   -7.2646 C   0  0  0  0  0  0  0  0  0  0  0  0
   62.1983  -10.6238   -6.2051 N   0  0  0  0  0  0  0  0  0  0  0  0
   61.1391  -11.5781   -6.0001 C   0  0  0  0  0  0  0  0  0  0  0  0
   60.5054  -11.6729   -7.3695 C   0  0  0  0  0  0  0  0  0  0  0  0
   60.8294  -10.3577   -7.8920 N   0  0  0  0  0  0  0  0  0  0  0  0
   60.3196   -9.7943   -8.5835 H   0  0  0  0  0  0  0  0  0  0  0  0
 14 15  1  0  0  0
 15 13  1  0  0  0
 13  1  1  0  0  0
  1  2  2  0  0  0
  2  3  1  0  0  0
  3  4  2  0  0  0
  4  5  1  0  0  0
  5  6  2  0  0  0
  6  7  1  0  0  0
  7  8  2  0  0  0
  8  9  1  0  0  0
  9 10  2  0  0  0
 10 11  1  0  0  0
 11 12  2  0  0  0
 15 16  1  0  0  0
 16 17  2  0  0  0
 17 18  1  0  0  0
 18 19  1  0  0  0
 19 20  1  0  0  0
  6  1  1  0  0  0
 12  7  1  0  0  0
 20 16  1  0  0  0
 20 21  1  0  0  0
M  END
> <minimizedAffinity>
-3.09945

> <CNNscore>
0.3860999644

> <CNNaffinity>
3.5503082275

> <CNN_VS>
1.3707739115

> <CNNaffinity_variance>
0.3061224818

$$$$
[H]c1c([H])c([H])c(-c2c([H])c([H])c([H])c([H])c2OC([H])(C2=NC([H])([H])C([H])([H])N2[H])C([H])([H])[H])c([H])c1[H]


 21 23  0  0  0  0  0  0  0  0999 V2000
   62.8736   -7.6996  -11.1387 C   0  0  0  0  0  0  0  0  0  0  0  0
   62.8318   -9.0085  -10.6766 C   0  0  0  0  0  0  0  0  0  0  0  0
   63.3395  -10.0830  -11.3837 C   0  0  0  0  0  0  0  0  0  0  0  0
   63.9093   -9.7980  -12.6084 C   0  0  0  0  0  0  0  0  0  0  0  0
   63.9563   -8.5039  -13.0766 C   0  0  0  0  0  0  0  0  0  0  0  0
   63.4456   -7.4259  -12.3642 C   0  0  0  0  0  0  0  0  0  0  0  0
   63.5457   -6.0855  -12.9463 C   0  0  0  0  0  0  0  0  0  0  0  0
   62.3574   -5.4851  -13.3797 C   0  0  0  0  0  0  0  0  0  0  0  0
   62.3139   -4.2423  -13.9349 C   0  0  0  0  0  0  0  0  0  0  0  0
   63.4783   -3.5350  -14.0826 C   0  0  0  0  0  0  0  0  0  0  0  0
   64.6650   -4.1008  -13.6647 C   0  0  0  0  0  0  0  0  0  0  0  0
   64.6920   -5.3751  -13.0979 C   0  0  0  0  0  0  0  0  0  0  0  0
   62.3698   -6.6544  -10.4287 O   0  0  0  0  0  0  0  0  0  0  0  0
   62.6709   -5.8095   -8.1735 C   0  0  0  0  0  0  0  0  0  0  0  0
   61.8358   -6.6031   -9.1564 C   0  0  0  0  0  0  0  0  0  0  0  0
   60.4183   -6.0892   -9.1533 C   0  0  0  0  0  0  0  0  0  0  0  0
   59.6412   -5.8929   -8.1535 N   0  0  0  0  0  0  0  0  0  0  0  0
   58.3440   -5.3900   -8.5265 C   0  0  0  0  0  0  0  0  0  0  0  0
   58.2667   -5.7248   -9.9988 C   0  0  0  0  0  0  0  0  0  0  0  0
   59.6790   -5.7228  -10.3352 N   0  0  0  0  0  0  0  0  0  0  0  0
   60.1281   -5.5081  -11.2340 H   0  0  0  0  0  0  0  0  0  0  0  0
 14 15  1  0  0  0
 15 13  1  0  0  0
 13  1  1  0  0  0
  1  2  2  0  0  0
  2  3  1  0  0  0
  3  4  2  0  0  0
  4  5  1  0  0  0
  5  6  2  0  0  0
  6  7  1  0  0  0
  7  8  2  0  0  0
  8  9  1  0  0  0
  9 10  2  0  0  0
 10 11  1  0  0  0
 11 12  2  0  0  0
 15 16  1  0  0  0
 16 17  2  0  0  0
 17 18  1  0  0  0
 18 19  1  0  0  0
 19 20  1  0  0  0
  6  1  1  0  0  0
 12  7  1  0  0  0
 20 16  1  0  0  0
 20 21  1  0  0  0
M  END
> <minimizedAffinity>
-2.99528

> <CNNscore>
0.3860370517

> <CNNaffinity>
3.7654147148

> <CNN_VS>
1.4535895586

> <CNNaffinity_variance>
0.2930694222

$$$$
[H]c1c([H])c([H])c(-c2c([H])c([H])c([H])c([H])c2OC([H])(C2=NC([H])([H])C([H])([H])N2[H])C([H])([H])[H])c([H])c1[H]


 21 23  0  0  0  0  0  0  0  0999 V2000
   62.1196   -7.7234   -7.2357 C   0  0  0  0  0  0  0  0  0  0  0  0
   62.4970   -6.5288   -7.8349 C   0  0  0  0  0  0  0  0  0  0  0  0
   63.2091   -6.4615   -9.0184 C   0  0  0  0  0  0  0  0  0  0  0  0
   63.5431   -7.6664   -9.6034 C   0  0  0  0  0  0  0  0  0  0  0  0
   63.1741   -8.8569   -9.0183 C   0  0  0  0  0  0  0  0  0  0  0  0
   62.4585   -8.9220   -7.8291 C   0  0  0  0  0  0  0  0  0  0  0  0
   62.1105  -10.2376   -7.2871 C   0  0  0  0  0  0  0  0  0  0  0  0
   63.1233  -10.9488   -6.6322 C   0  0  0  0  0  0  0  0  0  0  0  0
   62.9290  -12.1793   -6.0820 C   0  0  0  0  0  0  0  0  0  0  0  0
   61.6909  -12.7608   -6.1654 C   0  0  0  0  0  0  0  0  0  0  0  0
   60.6730  -12.0840   -6.8047 C   0  0  0  0  0  0  0  0  0  0  0  0
   60.8890  -10.8240   -7.3630 C   0  0  0  0  0  0  0  0  0  0  0  0
   61.4181   -7.7705   -6.0713 O   0  0  0  0  0  0  0  0  0  0  0  0
   61.5994   -8.9481   -3.9567 C   0  0  0  0  0  0  0  0  0  0  0  0
   61.8419   -7.6873   -4.7597 C   0  0  0  0  0  0  0  0  0  0  0  0
   63.2913   -7.2854   -4.6534 C   0  0  0  0  0  0  0  0  0  0  0  0
   63.7852   -6.1209   -4.4482 N   0  0  0  0  0  0  0  0  0  0  0  0
   65.2248   -6.1088   -4.4057 C   0  0  0  0  0  0  0  0  0  0  0  0
   65.5897   -7.4145   -5.0747 C   0  0  0  0  0  0  0  0  0  0  0  0
   64.4029   -8.1950   -4.7748 N   0  0  0  0  0  0  0  0  0  0  0  0
   64.3112   -9.2117   -4.6589 H   0  0  0  0  0  0  0  0  0  0  0  0
 14 15  1  0  0  0
 15 13  1  0  0  0
 13  1  1  0  0  0
  1  2  2  0  0  0
  2  3  1  0  0  0
  3  4  2  0  0  0
  4  5  1  0  0  0
  5  6  2  0  0  0
  6  7  1  0  0  0
  7  8  2  0  0  0
  8  9  1  0  0  0
  9 10  2  0  0  0
 10 11  1  0  0  0
 11 12  2  0  0  0
 15 16  1  0  0  0
 16 17  2  0  0  0
 17 18  1  0  0  0
 18 19  1  0  0  0
 19 20  1  0  0  0
  6  1  1  0  0  0
 12  7  1  0  0  0
 20 16  1  0  0  0
 20 21  1  0  0  0
M  END
> <minimizedAffinity>
-3.06507

> <CNNscore>
0.3185167015

> <CNNaffinity>
3.4220428467

> <CNN_VS>
1.0899777412

> <CNNaffinity_variance>
0.2043687552

$$$$
[H]c1c([H])c([H])c(-c2c([H])c([H])c([H])c([H])c2OC([H])(C2=NC([H])([H])C([H])([H])N2[H])C([H])([H])[H])c([H])c1[H]


 21 23  0  0  0  0  0  0  0  0999 V2000
   62.5649   -9.6481  -10.2464 C   0  0  0  0  0  0  0  0  0  0  0  0
   62.2359  -10.9545   -9.9092 C   0  0  0  0  0  0  0  0  0  0  0  0
   62.6648  -12.0574  -10.6246 C   0  0  0  0  0  0  0  0  0  0  0  0
   63.4597  -11.8045  -11.7246 C   0  0  0  0  0  0  0  0  0  0  0  0
   63.7923  -10.5133  -12.0683 C   0  0  0  0  0  0  0  0  0  0  0  0
   63.3601   -9.4067  -11.3478 C   0  0  0  0  0  0  0  0  0  0  0  0
   63.7700   -8.0725  -11.7921 C   0  0  0  0  0  0  0  0  0  0  0  0
   65.0480   -7.6381  -11.4200 C   0  0  0  0  0  0  0  0  0  0  0  0
   65.5495   -6.4218  -11.7712 C   0  0  0  0  0  0  0  0  0  0  0  0
   64.7798   -5.5732  -12.5232 C   0  0  0  0  0  0  0  0  0  0  0  0
   63.5162   -5.9737  -12.9050 C   0  0  0  0  0  0  0  0  0  0  0  0
   63.0175   -7.2233  -12.5367 C   0  0  0  0  0  0  0  0  0  0  0  0
   62.1344   -8.5749   -9.5301 O   0  0  0  0  0  0  0  0  0  0  0  0
   62.8077   -6.4291   -8.6173 C   0  0  0  0  0  0  0  0  0  0  0  0
   62.6974   -7.9298   -8.4468 C   0  0  0  0  0  0  0  0  0  0  0  0
   61.9795   -8.2456   -7.1590 C   0  0  0  0  0  0  0  0  0  0  0  0
   61.8715   -7.5235   -6.1059 N   0  0  0  0  0  0  0  0  0  0  0  0
   61.1066   -8.1494   -5.0582 C   0  0  0  0  0  0  0  0  0  0  0  0
   61.1188   -9.6066   -5.4608 C   0  0  0  0  0  0  0  0  0  0  0  0
   61.2694   -9.4727   -6.8985 N   0  0  0  0  0  0  0  0  0  0  0  0
   60.9494  -10.1046   -7.6428 H   0  0  0  0  0  0  0  0  0  0  0  0
 14 15  1  0  0  0
 15 13  1  0  0  0
 13  1  1  0  0  0
  1  2  2  0  0  0
  2  3  1  0  0  0
  3  4  2  0  0  0
  4  5  1  0  0  0
  5  6  2  0  0  0
  6  7  1  0  0  0
  7  8  2  0  0  0
  8  9  1  0  0  0
  9 10  2  0  0  0
 10 11  1  0  0  0
 11 12  2  0  0  0
 15 16  1  0  0  0
 16 17  2  0  0  0
 17 18  1  0  0  0
 18 19  1  0  0  0
 19 20  1  0  0  0
  6  1  1  0  0  0
 12  7  1  0  0  0
 20 16  1  0  0  0
 20 21  1  0  0  0
M  END
> <minimizedAffinity>
-2.93712

> <CNNscore>
0.3119168878

> <CNNaffinity>
3.5212814808

> <CNN_VS>
1.0983471870

> <CNNaffinity_variance>
0.0839645714

$$$$
[H]c1c([H])c([H])c(C([H])([H])OC(=O)[C@@]([H])(N([H])C(=O)[C@@]([H])(N([H])C(=O)[C@]2([H])OC(=O)[C@@]2([H])[C@@]([H])(C([H])([H])[H])C([H])([H])C([H])([H])[H])C([H])(C([H])([H])[H])C([H])([H])[H])C([H])([H])C([H])(C([H])([H])[H])C([H])([H])[H])c([H])c1[H]


 36 37  0  0  0  0  0  0  0  0999 V2000
   57.3490   -4.9806   -9.3937 C   0  0  0  0  0  0  0  0  0  0  0  0
   57.3073   -5.6680  -10.4368 O   0  0  0  0  0  0  0  0  0  0  0  0
   56.5163   -3.8405   -9.3486 N   0  0  0  0  0  0  0  0  0  0  0  0
   56.5633   -3.2686   -8.4566 H   0  0  0  0  0  0  0  0  0  0  0  0
   58.2512   -5.4041   -8.3032 C   0  0  0  0  0  0  0  0  0  0  0  0
   56.6968   -5.3696   -6.3182 C   0  0  0  0  0  0  0  0  0  0  0  0
   56.5808   -4.1196   -6.5325 O   0  0  0  0  0  0  0  0  0  0  0  0
   57.5460   -6.0502   -7.2159 N   0  0  0  0  0  0  0  0  0  0  0  0
   57.6690   -7.0747   -7.1009 H   0  0  0  0  0  0  0  0  0  0  0  0
   55.7645   -5.1333   -3.9516 C   0  0  0  0  0  0  0  0  0  0  0  0
   55.9480   -5.9109   -5.1968 C   0  0  0  0  0  0  0  0  0  0  0  0
   54.5345   -5.6730   -5.3878 O   0  0  0  0  0  0  0  0  0  0  0  0
   54.4159   -5.7543   -4.0223 C   0  0  0  0  0  0  0  0  0  0  0  0
   53.5131   -6.1855   -3.2783 O   0  0  0  0  0  0  0  0  0  0  0  0
   56.5575   -5.5155   -2.7419 C   0  0  0  0  0  0  0  0  0  0  0  0
   57.6179   -6.5260   -3.0797 C   0  0  0  0  0  0  0  0  0  0  0  0
   58.5629   -4.7043   -1.4594 C   0  0  0  0  0  0  0  0  0  0  0  0
   57.2884   -4.3267   -2.1399 C   0  0  0  0  0  0  0  0  0  0  0  0
   59.4122   -6.2331   -8.7957 C   0  0  0  0  0  0  0  0  0  0  0  0
   60.5818   -6.2218   -7.8469 C   0  0  0  0  0  0  0  0  0  0  0  0
   59.8392   -5.6824  -10.1289 C   0  0  0  0  0  0  0  0  0  0  0  0
   55.6385   -3.3985  -10.3691 C   0  0  0  0  0  0  0  0  0  0  0  0
   54.2410   -3.4106   -9.8026 C   0  0  0  0  0  0  0  0  0  0  0  0
   53.2311   -3.2199  -10.5526 O   0  0  0  0  0  0  0  0  0  0  0  0
   53.9947   -3.6259   -8.4632 O   0  0  0  0  0  0  0  0  0  0  0  0
   53.0359   -4.5843   -8.0706 C   0  0  0  0  0  0  0  0  0  0  0  0
   51.8677   -3.9965   -7.4034 C   0  0  0  0  0  0  0  0  0  0  0  0
   51.3489   -4.6718   -6.3168 C   0  0  0  0  0  0  0  0  0  0  0  0
   50.2459   -4.2052   -5.6116 C   0  0  0  0  0  0  0  0  0  0  0  0
   49.6453   -3.0412   -5.9950 C   0  0  0  0  0  0  0  0  0  0  0  0
   50.1588   -2.3582   -7.0827 C   0  0  0  0  0  0  0  0  0  0  0  0
   51.2576   -2.8294   -7.7799 C   0  0  0  0  0  0  0  0  0  0  0  0
   55.6269   -4.2648  -11.5972 C   0  0  0  0  0  0  0  0  0  0  0  0
   56.2904   -3.6150  -12.7819 C   0  0  0  0  0  0  0  0  0  0  0  0
   57.7912   -3.4575  -12.5478 C   0  0  0  0  0  0  0  0  0  0  0  0
   56.1627   -4.4435  -14.0444 C   0  0  0  0  0  0  0  0  0  0  0  0
 17 18  1  0  0  0
 18 15  1  0  0  0
 15 16  1  0  0  0
 15 10  1  0  0  0
 10 11  1  0  0  0
 11 12  1  0  0  0
 12 13  1  0  0  0
 13 14  2  0  0  0
 11  6  1  0  0  0
  6  7  2  0  0  0
  6  8  1  0  0  0
  8  5  1  0  0  0
  5 19  1  0  0  0
 19 20  1  0  0  0
 19 21  1  0  0  0
  5  1  1  0  0  0
  1  2  2  0  0  0
  1  3  1  0  0  0
  3 22  1  0  0  0
 22 33  1  0  0  0
 33 34  1  0  0  0
 34 35  1  0  0  0
 34 36  1  0  0  0
 22 23  1  0  0  0
 23 24  2  0  0  0
 23 25  1  0  0  0
 25 26  1  0  0  0
 26 27  1  0  0  0
 27 28  2  0  0  0
 28 29  1  0  0  0
 29 30  2  0  0  0
 30 31  1  0  0  0
 31 32  2  0  0  0
 13 10  1  0  0  0
 32 27  1  0  0  0
  8  9  1  0  0  0
  3  4  1  0  0  0
M  END
> <minimizedAffinity>
-6.68532

> <CNNscore>
0.5511705875

> <CNNaffinity>
6.8235654831

> <CNN_VS>
3.7609486580

> <CNNaffinity_variance>
0.1467342377

$$$$
[H]c1c([H])c([H])c(C([H])([H])OC(=O)[C@@]([H])(N([H])C(=O)[C@@]([H])(N([H])C(=O)[C@]2([H])OC(=O)[C@@]2([H])[C@@]([H])(C([H])([H])[H])C([H])([H])C([H])([H])[H])C([H])(C([H])([H])[H])C([H])([H])[H])C([H])([H])C([H])(C([H])([H])[H])C([H])([H])[H])c([H])c1[H]


 36 37  0  0  0  0  0  0  0  0999 V2000
   57.1724   -4.8100   -9.3299 C   0  0  0  0  0  0  0  0  0  0  0  0
   57.0480   -5.7345  -10.1618 O   0  0  0  0  0  0  0  0  0  0  0  0
   56.3628   -3.6682   -9.5208 N   0  0  0  0  0  0  0  0  0  0  0  0
   56.4802   -2.8934   -8.8062 H   0  0  0  0  0  0  0  0  0  0  0  0
   58.1408   -4.9765   -8.2268 C   0  0  0  0  0  0  0  0  0  0  0  0
   56.6051   -5.4071   -6.2738 C   0  0  0  0  0  0  0  0  0  0  0  0
   56.1414   -4.2399   -6.4846 O   0  0  0  0  0  0  0  0  0  0  0  0
   57.6293   -5.8081   -7.1573 N   0  0  0  0  0  0  0  0  0  0  0  0
   58.0373   -6.7561   -7.0446 H   0  0  0  0  0  0  0  0  0  0  0  0
   54.5642   -6.3971   -5.0989 C   0  0  0  0  0  0  0  0  0  0  0  0
   56.0214   -6.1510   -5.1706 C   0  0  0  0  0  0  0  0  0  0  0  0
   56.1065   -7.5703   -5.4340 O   0  0  0  0  0  0  0  0  0  0  0  0
   55.0335   -7.7122   -4.5891 C   0  0  0  0  0  0  0  0  0  0  0  0
   54.7049   -8.6076   -3.7862 O   0  0  0  0  0  0  0  0  0  0  0  0
   53.7496   -5.6109   -4.1209 C   0  0  0  0  0  0  0  0  0  0  0  0
   52.4868   -6.3380   -3.7513 C   0  0  0  0  0  0  0  0  0  0  0  0
   53.5940   -5.3312   -1.6265 C   0  0  0  0  0  0  0  0  0  0  0  0
   54.4943   -5.3756   -2.8171 C   0  0  0  0  0  0  0  0  0  0  0  0
   59.4952   -5.4400   -8.7049 C   0  0  0  0  0  0  0  0  0  0  0  0
   59.5179   -5.7563  -10.1773 C   0  0  0  0  0  0  0  0  0  0  0  0
   59.8658   -6.6684   -7.9197 C   0  0  0  0  0  0  0  0  0  0  0  0
   55.4238   -3.4670  -10.5625 C   0  0  0  0  0  0  0  0  0  0  0  0
   54.0686   -3.8672  -10.0358 C   0  0  0  0  0  0  0  0  0  0  0  0
   53.8491   -5.0543   -9.6341 O   0  0  0  0  0  0  0  0  0  0  0  0
   53.0175   -2.9778   -9.9656 O   0  0  0  0  0  0  0  0  0  0  0  0
   52.8307   -2.2018   -8.8015 C   0  0  0  0  0  0  0  0  0  0  0  0
   51.8242   -2.7581   -7.8889 C   0  0  0  0  0  0  0  0  0  0  0  0
   50.6746   -2.0217   -7.6844 C   0  0  0  0  0  0  0  0  0  0  0  0
   49.6574   -2.4541   -6.8418 C   0  0  0  0  0  0  0  0  0  0  0  0
   49.7857   -3.6452   -6.1880 C   0  0  0  0  0  0  0  0  0  0  0  0
   50.9345   -4.3894   -6.3874 C   0  0  0  0  0  0  0  0  0  0  0  0
   51.9432   -3.9519   -7.2281 C   0  0  0  0  0  0  0  0  0  0  0  0
   55.6797   -4.2858  -11.7966 C   0  0  0  0  0  0  0  0  0  0  0  0
   56.4346   -3.5307  -12.8576 C   0  0  0  0  0  0  0  0  0  0  0  0
   57.9418   -3.7012  -12.6801 C   0  0  0  0  0  0  0  0  0  0  0  0
   56.1323   -4.0353  -14.2543 C   0  0  0  0  0  0  0  0  0  0  0  0
 17 18  1  0  0  0
 18 15  1  0  0  0
 15 16  1  0  0  0
 15 10  1  0  0  0
 10 11  1  0  0  0
 11 12  1  0  0  0
 12 13  1  0  0  0
 13 14  2  0  0  0
 11  6  1  0  0  0
  6  7  2  0  0  0
  6  8  1  0  0  0
  8  5  1  0  0  0
  5 19  1  0  0  0
 19 20  1  0  0  0
 19 21  1  0  0  0
  5  1  1  0  0  0
  1  2  2  0  0  0
  1  3  1  0  0  0
  3 22  1  0  0  0
 22 33  1  0  0  0
 33 34  1  0  0  0
 34 35  1  0  0  0
 34 36  1  0  0  0
 22 23  1  0  0  0
 23 24  2  0  0  0
 23 25  1  0  0  0
 25 26  1  0  0  0
 26 27  1  0  0  0
 27 28  2  0  0  0
 28 29  1  0  0  0
 29 30  2  0  0  0
 30 31  1  0  0  0
 31 32  2  0  0  0
 13 10  1  0  0  0
 32 27  1  0  0  0
  8  9  1  0  0  0
  3  4  1  0  0  0
M  END
> <minimizedAffinity>
-6.28338

> <CNNscore>
0.4206607938

> <CNNaffinity>
6.5024147034

> <CNN_VS>
2.7353110313

> <CNNaffinity_variance>
0.1683781445

$$$$
[H]c1c([H])c([H])c(C([H])([H])OC(=O)[C@@]([H])(N([H])C(=O)[C@@]([H])(N([H])C(=O)[C@]2([H])OC(=O)[C@@]2([H])[C@@]([H])(C([H])([H])[H])C([H])([H])C([H])([H])[H])C([H])(C([H])([H])[H])C([H])([H])[H])C([H])([H])C([H])(C([H])([H])[H])C([H])([H])[H])c([H])c1[H]


 36 37  0  0  0  0  0  0  0  0999 V2000
   56.5472   -4.8786   -7.5035 C   0  0  0  0  0  0  0  0  0  0  0  0
   56.1236   -3.9494   -8.2244 O   0  0  0  0  0  0  0  0  0  0  0  0
   57.4785   -5.7648   -8.0888 N   0  0  0  0  0  0  0  0  0  0  0  0
   57.8282   -6.5471   -7.4638 H   0  0  0  0  0  0  0  0  0  0  0  0
   56.0509   -4.9797   -6.1158 C   0  0  0  0  0  0  0  0  0  0  0  0
   53.6815   -5.2309   -6.9410 C   0  0  0  0  0  0  0  0  0  0  0  0
   54.1715   -5.9199   -7.8933 O   0  0  0  0  0  0  0  0  0  0  0  0
   54.6262   -4.7408   -6.0148 N   0  0  0  0  0  0  0  0  0  0  0  0
   54.2853   -4.1839   -5.2075 H   0  0  0  0  0  0  0  0  0  0  0  0
   51.5455   -4.4268   -5.7935 C   0  0  0  0  0  0  0  0  0  0  0  0
   52.2398   -5.0506   -6.9415 C   0  0  0  0  0  0  0  0  0  0  0  0
   51.8965   -3.8282   -7.6336 O   0  0  0  0  0  0  0  0  0  0  0  0
   50.7428   -3.8227   -6.8891 C   0  0  0  0  0  0  0  0  0  0  0  0
   49.5806   -3.4459   -7.1376 O   0  0  0  0  0  0  0  0  0  0  0  0
   50.7634   -5.3009   -4.8649 C   0  0  0  0  0  0  0  0  0  0  0  0
   51.6420   -6.3337   -4.2158 C   0  0  0  0  0  0  0  0  0  0  0  0
   48.6446   -4.4971   -3.7744 C   0  0  0  0  0  0  0  0  0  0  0  0
   50.1372   -4.5097   -3.7284 C   0  0  0  0  0  0  0  0  0  0  0  0
   56.4569   -6.2686   -5.4438 C   0  0  0  0  0  0  0  0  0  0  0  0
   55.3906   -7.3294   -5.5225 C   0  0  0  0  0  0  0  0  0  0  0  0
   56.7576   -5.9622   -4.0021 C   0  0  0  0  0  0  0  0  0  0  0  0
   57.9798   -5.7052   -9.4126 C   0  0  0  0  0  0  0  0  0  0  0  0
   59.4750   -5.8878   -9.3406 C   0  0  0  0  0  0  0  0  0  0  0  0
   60.1895   -5.8406  -10.3922 O   0  0  0  0  0  0  0  0  0  0  0  0
   60.1296   -6.1114   -8.1479 O   0  0  0  0  0  0  0  0  0  0  0  0
   61.0418   -7.1828   -8.0376 C   0  0  0  0  0  0  0  0  0  0  0  0
   62.3896   -6.7583   -7.6392 C   0  0  0  0  0  0  0  0  0  0  0  0
   62.9117   -7.3013   -6.4824 C   0  0  0  0  0  0  0  0  0  0  0  0
   64.1774   -6.9700   -6.0135 C   0  0  0  0  0  0  0  0  0  0  0  0
   64.9413   -6.0791   -6.7103 C   0  0  0  0  0  0  0  0  0  0  0  0
   64.4257   -5.5304   -7.8707 C   0  0  0  0  0  0  0  0  0  0  0  0
   63.1642   -5.8653   -8.3311 C   0  0  0  0  0  0  0  0  0  0  0  0
   57.7254   -4.4012  -10.1154 C   0  0  0  0  0  0  0  0  0  0  0  0
   57.3883   -4.5740  -11.5722 C   0  0  0  0  0  0  0  0  0  0  0  0
   55.9905   -4.0390  -11.8756 C   0  0  0  0  0  0  0  0  0  0  0  0
   58.3234   -3.7998  -12.4793 C   0  0  0  0  0  0  0  0  0  0  0  0
 17 18  1  0  0  0
 18 15  1  0  0  0
 15 16  1  0  0  0
 15 10  1  0  0  0
 10 11  1  0  0  0
 11 12  1  0  0  0
 12 13  1  0  0  0
 13 14  2  0  0  0
 11  6  1  0  0  0
  6  7  2  0  0  0
  6  8  1  0  0  0
  8  5  1  0  0  0
  5 19  1  0  0  0
 19 20  1  0  0  0
 19 21  1  0  0  0
  5  1  1  0  0  0
  1  2  2  0  0  0
  1  3  1  0  0  0
  3 22  1  0  0  0
 22 33  1  0  0  0
 33 34  1  0  0  0
 34 35  1  0  0  0
 34 36  1  0  0  0
 22 23  1  0  0  0
 23 24  2  0  0  0
 23 25  1  0  0  0
 25 26  1  0  0  0
 26 27  1  0  0  0
 27 28  2  0  0  0
 28 29  1  0  0  0
 29 30  2  0  0  0
 30 31  1  0  0  0
 31 32  2  0  0  0
 13 10  1  0  0  0
 32 27  1  0  0  0
  8  9  1  0  0  0
  3  4  1  0  0  0
M  END
> <minimizedAffinity>
-6.73779

> <CNNscore>
0.3734457791

> <CNNaffinity>
6.3581542969

> <CNN_VS>
2.3744258881

> <CNNaffinity_variance>
0.1331533641

$$$$
[H]c1c([H])c([H])c(C([H])([H])OC(=O)[C@@]([H])(N([H])C(=O)[C@@]([H])(N([H])C(=O)[C@]2([H])OC(=O)[C@@]2([H])[C@@]([H])(C([H])([H])[H])C([H])([H])C([H])([H])[H])C([H])(C([H])([H])[H])C([H])([H])[H])C([H])([H])C([H])(C([H])([H])[H])C([H])([H])[H])c([H])c1[H]


 36 37  0  0  0  0  0  0  0  0999 V2000
   57.1690   -5.0207   -7.3832 C   0  0  0  0  0  0  0  0  0  0  0  0
   57.5761   -3.8403   -7.3272 O   0  0  0  0  0  0  0  0  0  0  0  0
   57.8576   -5.8910   -8.2573 N   0  0  0  0  0  0  0  0  0  0  0  0
   57.5000   -6.8889   -8.2928 H   0  0  0  0  0  0  0  0  0  0  0  0
   56.0171   -5.4123   -6.5454 C   0  0  0  0  0  0  0  0  0  0  0  0
   53.5527   -4.8797   -6.5103 C   0  0  0  0  0  0  0  0  0  0  0  0
   53.6653   -4.8217   -5.2431 O   0  0  0  0  0  0  0  0  0  0  0  0
   54.7468   -5.1779   -7.2000 N   0  0  0  0  0  0  0  0  0  0  0  0
   54.7213   -5.2244   -8.2369 H   0  0  0  0  0  0  0  0  0  0  0  0
   51.1160   -4.1792   -6.1979 C   0  0  0  0  0  0  0  0  0  0  0  0
   52.2304   -4.6325   -7.0592 C   0  0  0  0  0  0  0  0  0  0  0  0
   52.1662   -3.2954   -7.6062 O   0  0  0  0  0  0  0  0  0  0  0  0
   50.8102   -3.3603   -7.4002 C   0  0  0  0  0  0  0  0  0  0  0  0
   49.8388   -2.8912   -8.0252 O   0  0  0  0  0  0  0  0  0  0  0  0
   50.0471   -5.1592   -5.8303 C   0  0  0  0  0  0  0  0  0  0  0  0
   50.4424   -6.5628   -6.1957 C   0  0  0  0  0  0  0  0  0  0  0  0
   51.0258   -5.1765   -3.5137 C   0  0  0  0  0  0  0  0  0  0  0  0
   49.7783   -5.1757   -4.3345 C   0  0  0  0  0  0  0  0  0  0  0  0
   56.1306   -6.8226   -6.0202 C   0  0  0  0  0  0  0  0  0  0  0  0
   54.8323   -7.5818   -6.1001 C   0  0  0  0  0  0  0  0  0  0  0  0
   56.5826   -6.7461   -4.5875 C   0  0  0  0  0  0  0  0  0  0  0  0
   58.9639   -5.5580   -9.0774 C   0  0  0  0  0  0  0  0  0  0  0  0
   58.4266   -5.1897  -10.4374 C   0  0  0  0  0  0  0  0  0  0  0  0
   59.2104   -5.0237  -11.4257 O   0  0  0  0  0  0  0  0  0  0  0  0
   57.0787   -5.0177  -10.6711 O   0  0  0  0  0  0  0  0  0  0  0  0
   56.6275   -3.8810  -11.3756 C   0  0  0  0  0  0  0  0  0  0  0  0
   56.6146   -4.0684  -12.8317 C   0  0  0  0  0  0  0  0  0  0  0  0
   55.9038   -5.1424  -13.3286 C   0  0  0  0  0  0  0  0  0  0  0  0
   55.8245   -5.4131  -14.6895 C   0  0  0  0  0  0  0  0  0  0  0  0
   56.4660   -4.5979  -15.5763 C   0  0  0  0  0  0  0  0  0  0  0  0
   57.1805   -3.5193  -15.0868 C   0  0  0  0  0  0  0  0  0  0  0  0
   57.2547   -3.2565  -13.7300 C   0  0  0  0  0  0  0  0  0  0  0  0
   59.9483   -6.6761   -9.2771 C   0  0  0  0  0  0  0  0  0  0  0  0
   61.3476   -6.3095   -8.8605 C   0  0  0  0  0  0  0  0  0  0  0  0
   61.8057   -7.1619   -7.6792 C   0  0  0  0  0  0  0  0  0  0  0  0
   62.3631   -6.5593   -9.9574 C   0  0  0  0  0  0  0  0  0  0  0  0
 17 18  1  0  0  0
 18 15  1  0  0  0
 15 16  1  0  0  0
 15 10  1  0  0  0
 10 11  1  0  0  0
 11 12  1  0  0  0
 12 13  1  0  0  0
 13 14  2  0  0  0
 11  6  1  0  0  0
  6  7  2  0  0  0
  6  8  1  0  0  0
  8  5  1  0  0  0
  5 19  1  0  0  0
 19 20  1  0  0  0
 19 21  1  0  0  0
  5  1  1  0  0  0
  1  2  2  0  0  0
  1  3  1  0  0  0
  3 22  1  0  0  0
 22 33  1  0  0  0
 33 34  1  0  0  0
 34 35  1  0  0  0
 34 36  1  0  0  0
 22 23  1  0  0  0
 23 24  2  0  0  0
 23 25  1  0  0  0
 25 26  1  0  0  0
 26 27  1  0  0  0
 27 28  2  0  0  0
 28 29  1  0  0  0
 29 30  2  0  0  0
 30 31  1  0  0  0
 31 32  2  0  0  0
 13 10  1  0  0  0
 32 27  1  0  0  0
  8  9  1  0  0  0
  3  4  1  0  0  0
M  END
> <minimizedAffinity>
-5.95768

> <CNNscore>
0.3464065790

> <CNNaffinity>
6.5222501755

> <CNN_VS>
2.2593502998

> <CNNaffinity_variance>
0.2708857656

$$$$
[H]c1c([H])c([H])c(C([H])([H])OC(=O)[C@@]([H])(N([H])C(=O)[C@@]([H])(N([H])C(=O)[C@]2([H])OC(=O)[C@@]2([H])[C@@]([H])(C([H])([H])[H])C([H])([H])C([H])([H])[H])C([H])(C([H])([H])[H])C([H])([H])[H])C([H])([H])C([H])(C([H])([H])[H])C([H])([H])[H])c([H])c1[H]


 36 37  0  0  0  0  0  0  0  0999 V2000
   56.8501   -5.0136   -8.2755 C   0  0  0  0  0  0  0  0  0  0  0  0
   57.6685   -4.5223   -7.4686 O   0  0  0  0  0  0  0  0  0  0  0  0
   57.3494   -5.3809   -9.5449 N   0  0  0  0  0  0  0  0  0  0  0  0
   56.6423   -5.7965  -10.2174 H   0  0  0  0  0  0  0  0  0  0  0  0
   55.4444   -5.1713   -7.8495 C   0  0  0  0  0  0  0  0  0  0  0  0
   55.1567   -6.1735   -5.5537 C   0  0  0  0  0  0  0  0  0  0  0  0
   55.2035   -7.3077   -6.1310 O   0  0  0  0  0  0  0  0  0  0  0  0
   55.2816   -5.0628   -6.4146 N   0  0  0  0  0  0  0  0  0  0  0  0
   55.2657   -4.1110   -6.0004 H   0  0  0  0  0  0  0  0  0  0  0  0
   55.6811   -5.2004   -3.2506 C   0  0  0  0  0  0  0  0  0  0  0  0
   54.9856   -6.1830   -4.1109 C   0  0  0  0  0  0  0  0  0  0  0  0
   53.7951   -5.4450   -3.7512 O   0  0  0  0  0  0  0  0  0  0  0  0
   54.3835   -5.2450   -2.5269 C   0  0  0  0  0  0  0  0  0  0  0  0
   53.9201   -5.1572   -1.3727 O   0  0  0  0  0  0  0  0  0  0  0  0
   56.8547   -5.6562   -2.4425 C   0  0  0  0  0  0  0  0  0  0  0  0
   57.1387   -4.7106   -1.3089 C   0  0  0  0  0  0  0  0  0  0  0  0
   57.5362   -8.0736   -2.3150 C   0  0  0  0  0  0  0  0  0  0  0  0
   56.6152   -7.0147   -1.8047 C   0  0  0  0  0  0  0  0  0  0  0  0
   54.5030   -4.2578   -8.5958 C   0  0  0  0  0  0  0  0  0  0  0  0
   54.8943   -2.8070   -8.4947 C   0  0  0  0  0  0  0  0  0  0  0  0
   53.1248   -4.4493   -8.0241 C   0  0  0  0  0  0  0  0  0  0  0  0
   58.6864   -5.2470   -9.9943 C   0  0  0  0  0  0  0  0  0  0  0  0
   58.6402   -4.9201  -11.4657 C   0  0  0  0  0  0  0  0  0  0  0  0
   59.7074   -4.6744  -12.1134 O   0  0  0  0  0  0  0  0  0  0  0  0
   57.4555   -4.8726  -12.1693 O   0  0  0  0  0  0  0  0  0  0  0  0
   57.0170   -3.6514  -12.7247 C   0  0  0  0  0  0  0  0  0  0  0  0
   57.1384   -3.6025  -14.1870 C   0  0  0  0  0  0  0  0  0  0  0  0
   56.0322   -3.9634  -14.9297 C   0  0  0  0  0  0  0  0  0  0  0  0
   56.0368   -3.9532  -16.3195 C   0  0  0  0  0  0  0  0  0  0  0  0
   57.1664   -3.5754  -16.9859 C   0  0  0  0  0  0  0  0  0  0  0  0
   58.2794   -3.2121  -16.2493 C   0  0  0  0  0  0  0  0  0  0  0  0
   58.2669   -3.2250  -14.8654 C   0  0  0  0  0  0  0  0  0  0  0  0
   59.5206   -6.4878   -9.8414 C   0  0  0  0  0  0  0  0  0  0  0  0
   60.9241   -6.1999   -9.3796 C   0  0  0  0  0  0  0  0  0  0  0  0
   61.2274   -6.9264   -8.0710 C   0  0  0  0  0  0  0  0  0  0  0  0
   61.9692   -6.6859  -10.3636 C   0  0  0  0  0  0  0  0  0  0  0  0
 17 18  1  0  0  0
 18 15  1  0  0  0
 15 16  1  0  0  0
 15 10  1  0  0  0
 10 11  1  0  0  0
 11 12  1  0  0  0
 12 13  1  0  0  0
 13 14  2  0  0  0
 11  6  1  0  0  0
  6  7  2  0  0  0
  6  8  1  0  0  0
  8  5  1  0  0  0
  5 19  1  0  0  0
 19 20  1  0  0  0
 19 21  1  0  0  0
  5  1  1  0  0  0
  1  2  2  0  0  0
  1  3  1  0  0  0
  3 22  1  0  0  0
 22 33  1  0  0  0
 33 34  1  0  0  0
 34 35  1  0  0  0
 34 36  1  0  0  0
 22 23  1  0  0  0
 23 24  2  0  0  0
 23 25  1  0  0  0
 25 26  1  0  0  0
 26 27  1  0  0  0
 27 28  2  0  0  0
 28 29  1  0  0  0
 29 30  2  0  0  0
 30 31  1  0  0  0
 31 32  2  0  0  0
 13 10  1  0  0  0
 32 27  1  0  0  0
  8  9  1  0  0  0
  3  4  1  0  0  0
M  END
> <minimizedAffinity>
-6.43730

> <CNNscore>
0.2812618017

> <CNNaffinity>
6.0266876221

> <CNN_VS>
1.6950770617

> <CNNaffinity_variance>
0.5262634158

$$$$
[H]c1c([H])c([H])c(C([H])([H])OC(=O)[C@@]([H])(N([H])C(=O)[C@@]([H])(N([H])C(=O)[C@]2([H])OC(=O)[C@@]2([H])[C@@]([H])(C([H])([H])[H])C([H])([H])C([H])([H])[H])C([H])(C([H])([H])[H])C([H])([H])[H])C([H])([H])C([H])(C([H])([H])[H])C([H])([H])[H])c([H])c1[H]


 36 37  0  0  0  0  0  0  0  0999 V2000
   55.6309   -4.8685   -6.6840 C   0  0  0  0  0  0  0  0  0  0  0  0
   56.0204   -3.7503   -6.2838 O   0  0  0  0  0  0  0  0  0  0  0  0
   55.1760   -4.9442   -8.0191 N   0  0  0  0  0  0  0  0  0  0  0  0
   54.8496   -5.9000   -8.3430 H   0  0  0  0  0  0  0  0  0  0  0  0
   55.6743   -6.0096   -5.7467 C   0  0  0  0  0  0  0  0  0  0  0  0
   57.0381   -6.3901   -3.6603 C   0  0  0  0  0  0  0  0  0  0  0  0
   57.4480   -7.4581   -4.2199 O   0  0  0  0  0  0  0  0  0  0  0  0
   56.1301   -5.6288   -4.4260 N   0  0  0  0  0  0  0  0  0  0  0  0
   55.7716   -4.7392   -4.0286 H   0  0  0  0  0  0  0  0  0  0  0  0
   59.0124   -6.0946   -2.0664 C   0  0  0  0  0  0  0  0  0  0  0  0
   57.5571   -6.1093   -2.3326 C   0  0  0  0  0  0  0  0  0  0  0  0
   57.6477   -4.6802   -2.1313 O   0  0  0  0  0  0  0  0  0  0  0  0
   58.6202   -4.9516   -1.2008 C   0  0  0  0  0  0  0  0  0  0  0  0
   58.9386   -4.4010   -0.1284 O   0  0  0  0  0  0  0  0  0  0  0  0
   59.6203   -7.2464   -1.3302 C   0  0  0  0  0  0  0  0  0  0  0  0
   58.5777   -8.0283   -0.5809 C   0  0  0  0  0  0  0  0  0  0  0  0
   60.8872   -7.5867   -3.4759 C   0  0  0  0  0  0  0  0  0  0  0  0
   60.2899   -8.2350   -2.2705 C   0  0  0  0  0  0  0  0  0  0  0  0
   54.3736   -6.7735   -5.6975 C   0  0  0  0  0  0  0  0  0  0  0  0
   53.5636   -6.6292   -6.9590 C   0  0  0  0  0  0  0  0  0  0  0  0
   53.5806   -6.2587   -4.5275 C   0  0  0  0  0  0  0  0  0  0  0  0
   55.1169   -3.8776   -8.9498 C   0  0  0  0  0  0  0  0  0  0  0  0
   53.6741   -3.4541   -9.0642 C   0  0  0  0  0  0  0  0  0  0  0  0
   53.2161   -2.9855  -10.1548 O   0  0  0  0  0  0  0  0  0  0  0  0
   52.7949   -3.5534   -8.0068 O   0  0  0  0  0  0  0  0  0  0  0  0
   51.5517   -2.8875   -8.0622 C   0  0  0  0  0  0  0  0  0  0  0  0
   50.7090   -3.1335   -6.8854 C   0  0  0  0  0  0  0  0  0  0  0  0
   51.0247   -4.2184   -6.0924 C   0  0  0  0  0  0  0  0  0  0  0  0
   50.2945   -4.5430   -4.9553 C   0  0  0  0  0  0  0  0  0  0  0  0
   49.2267   -3.7716   -4.5984 C   0  0  0  0  0  0  0  0  0  0  0  0
   48.9035   -2.6825   -5.3875 C   0  0  0  0  0  0  0  0  0  0  0  0
   49.6357   -2.3659   -6.5186 C   0  0  0  0  0  0  0  0  0  0  0  0
   55.5861   -4.2327  -10.3328 C   0  0  0  0  0  0  0  0  0  0  0  0
   57.0526   -3.9660  -10.5432 C   0  0  0  0  0  0  0  0  0  0  0  0
   57.8901   -5.1789  -10.1439 C   0  0  0  0  0  0  0  0  0  0  0  0
   57.3910   -3.7016  -11.9966 C   0  0  0  0  0  0  0  0  0  0  0  0
 17 18  1  0  0  0
 18 15  1  0  0  0
 15 16  1  0  0  0
 15 10  1  0  0  0
 10 11  1  0  0  0
 11 12  1  0  0  0
 12 13  1  0  0  0
 13 14  2  0  0  0
 11  6  1  0  0  0
  6  7  2  0  0  0
  6  8  1  0  0  0
  8  5  1  0  0  0
  5 19  1  0  0  0
 19 20  1  0  0  0
 19 21  1  0  0  0
  5  1  1  0  0  0
  1  2  2  0  0  0
  1  3  1  0  0  0
  3 22  1  0  0  0
 22 33  1  0  0  0
 33 34  1  0  0  0
 34 35  1  0  0  0
 34 36  1  0  0  0
 22 23  1  0  0  0
 23 24  2  0  0  0
 23 25  1  0  0  0
 25 26  1  0  0  0
 26 27  1  0  0  0
 27 28  2  0  0  0
 28 29  1  0  0  0
 29 30  2  0  0  0
 30 31  1  0  0  0
 31 32  2  0  0  0
 13 10  1  0  0  0
 32 27  1  0  0  0
  8  9  1  0  0  0
  3  4  1  0  0  0
M  END
> <minimizedAffinity>
-8.75214

> <CNNscore>
0.2777569294

> <CNNaffinity>
6.6361908913

> <CNN_VS>
1.8432480097

> <CNNaffinity_variance>
0.1142085642

$$$$
[H]c1c([H])c([H])c(C([H])([H])OC(=O)[C@@]([H])(N([H])C(=O)[C@@]([H])(N([H])C(=O)[C@]2([H])OC(=O)[C@@]2([H])[C@@]([H])(C([H])([H])[H])C([H])([H])C([H])([H])[H])C([H])(C([H])([H])[H])C([H])([H])[H])C([H])([H])C([H])(C([H])([H])[H])C([H])([H])[H])c([H])c1[H]


 36 37  0  0  0  0  0  0  0  0999 V2000
   57.1645   -5.0328   -7.7707 C   0  0  0  0  0  0  0  0  0  0  0  0
   57.7789   -4.0347   -7.3365 O   0  0  0  0  0  0  0  0  0  0  0  0
   57.8186   -5.8039   -8.7570 N   0  0  0  0  0  0  0  0  0  0  0  0
   57.2840   -6.6473   -9.1145 H   0  0  0  0  0  0  0  0  0  0  0  0
   55.8218   -5.3273   -7.2297 C   0  0  0  0  0  0  0  0  0  0  0  0
   55.6359   -5.6387   -4.7344 C   0  0  0  0  0  0  0  0  0  0  0  0
   55.8132   -6.8800   -4.9571 O   0  0  0  0  0  0  0  0  0  0  0  0
   55.6398   -4.8221   -5.8848 N   0  0  0  0  0  0  0  0  0  0  0  0
   55.5146   -3.7983   -5.7657 H   0  0  0  0  0  0  0  0  0  0  0  0
   55.2776   -6.2536   -2.2810 C   0  0  0  0  0  0  0  0  0  0  0  0
   55.4589   -5.2441   -3.3473 C   0  0  0  0  0  0  0  0  0  0  0  0
   56.7479   -5.0268   -2.7288 O   0  0  0  0  0  0  0  0  0  0  0  0
   56.1313   -5.2948   -1.5316 C   0  0  0  0  0  0  0  0  0  0  0  0
   56.3038   -4.8562   -0.3773 O   0  0  0  0  0  0  0  0  0  0  0  0
   53.9127   -6.4489   -1.7006 C   0  0  0  0  0  0  0  0  0  0  0  0
   53.1686   -5.1464   -1.6016 C   0  0  0  0  0  0  0  0  0  0  0  0
   52.1315   -8.2233   -1.7637 C   0  0  0  0  0  0  0  0  0  0  0  0
   53.0516   -7.3588   -2.5612 C   0  0  0  0  0  0  0  0  0  0  0  0
   54.7118   -4.8886   -8.1534 C   0  0  0  0  0  0  0  0  0  0  0  0
   54.7127   -3.4034   -8.4032 C   0  0  0  0  0  0  0  0  0  0  0  0
   53.4048   -5.2939   -7.5286 C   0  0  0  0  0  0  0  0  0  0  0  0
   59.1025   -5.5578   -9.3033 C   0  0  0  0  0  0  0  0  0  0  0  0
   58.9160   -5.1918  -10.7543 C   0  0  0  0  0  0  0  0  0  0  0  0
   59.9181   -5.0473  -11.5248 O   0  0  0  0  0  0  0  0  0  0  0  0
   57.6678   -4.9989  -11.3071 O   0  0  0  0  0  0  0  0  0  0  0  0
   57.3581   -3.7714  -11.9313 C   0  0  0  0  0  0  0  0  0  0  0  0
   57.1938   -3.8855  -13.3857 C   0  0  0  0  0  0  0  0  0  0  0  0
   56.1501   -4.6611  -13.8491 C   0  0  0  0  0  0  0  0  0  0  0  0
   55.9026   -4.8373  -15.2054 C   0  0  0  0  0  0  0  0  0  0  0  0
   56.7107   -4.2286  -16.1214 C   0  0  0  0  0  0  0  0  0  0  0  0
   57.7589   -3.4496  -15.6656 C   0  0  0  0  0  0  0  0  0  0  0  0
   57.9988   -3.2791  -14.3132 C   0  0  0  0  0  0  0  0  0  0  0  0
   60.0332   -6.7371   -9.2592 C   0  0  0  0  0  0  0  0  0  0  0  0
   61.3559   -6.4190   -8.6148 C   0  0  0  0  0  0  0  0  0  0  0  0
   61.6643   -7.4029   -7.4884 C   0  0  0  0  0  0  0  0  0  0  0  0
   62.5156   -6.5365   -9.5833 C   0  0  0  0  0  0  0  0  0  0  0  0
 17 18  1  0  0  0
 18 15  1  0  0  0
 15 16  1  0  0  0
 15 10  1  0  0  0
 10 11  1  0  0  0
 11 12  1  0  0  0
 12 13  1  0  0  0
 13 14  2  0  0  0
 11  6  1  0  0  0
  6  7  2  0  0  0
  6  8  1  0  0  0
  8  5  1  0  0  0
  5 19  1  0  0  0
 19 20  1  0  0  0
 19 21  1  0  0  0
  5  1  1  0  0  0
  1  2  2  0  0  0
  1  3  1  0  0  0
  3 22  1  0  0  0
 22 33  1  0  0  0
 33 34  1  0  0  0
 34 35  1  0  0  0
 34 36  1  0  0  0
 22 23  1  0  0  0
 23 24  2  0  0  0
 23 25  1  0  0  0
 25 26  1  0  0  0
 26 27  1  0  0  0
 27 28  2  0  0  0
 28 29  1  0  0  0
 29 30  2  0  0  0
 30 31  1  0  0  0
 31 32  2  0  0  0
 13 10  1  0  0  0
 32 27  1  0  0  0
  8  9  1  0  0  0
  3  4  1  0  0  0
M  END
> <minimizedAffinity>
-6.38911

> <CNNscore>
0.2497946322

> <CNNaffinity>
6.0640454292

> <CNN_VS>
1.5147659779

> <CNNaffinity_variance>
0.2912998497

$$$$
[H]c1c([H])c([H])c(C([H])([H])OC(=O)[C@@]([H])(N([H])C(=O)[C@@]([H])(N([H])C(=O)[C@]2([H])OC(=O)[C@@]2([H])[C@@]([H])(C([H])([H])[H])C([H])([H])C([H])([H])[H])C([H])(C([H])([H])[H])C([H])([H])[H])C([H])([H])C([H])(C([H])([H])[H])C([H])([H])[H])c([H])c1[H]


 36 37  0  0  0  0  0  0  0  0999 V2000
   52.5138   -5.4446   -7.1434 C   0  0  0  0  0  0  0  0  0  0  0  0
   52.7118   -6.4666   -7.8352 O   0  0  0  0  0  0  0  0  0  0  0  0
   53.6175   -4.5852   -6.9465 N   0  0  0  0  0  0  0  0  0  0  0  0
   53.4326   -3.7225   -6.3578 H   0  0  0  0  0  0  0  0  0  0  0  0
   51.1628   -5.2147   -6.5918 C   0  0  0  0  0  0  0  0  0  0  0  0
   51.6796   -6.1634   -4.3135 C   0  0  0  0  0  0  0  0  0  0  0  0
   52.7119   -5.4178   -4.3258 O   0  0  0  0  0  0  0  0  0  0  0  0
   50.8679   -6.0737   -5.4639 N   0  0  0  0  0  0  0  0  0  0  0  0
   50.0036   -6.6474   -5.5060 H   0  0  0  0  0  0  0  0  0  0  0  0
   52.2124   -6.7085   -1.8753 C   0  0  0  0  0  0  0  0  0  0  0  0
   51.4852   -6.9880   -3.1331 C   0  0  0  0  0  0  0  0  0  0  0  0
   50.3252   -6.5323   -2.3996 O   0  0  0  0  0  0  0  0  0  0  0  0
   50.9027   -7.0967   -1.2891 C   0  0  0  0  0  0  0  0  0  0  0  0
   50.4256   -7.6625   -0.2858 O   0  0  0  0  0  0  0  0  0  0  0  0
   53.3501   -7.5999   -1.4893 C   0  0  0  0  0  0  0  0  0  0  0  0
   54.0857   -8.1034   -2.6997 C   0  0  0  0  0  0  0  0  0  0  0  0
   54.0459   -5.4370   -0.4112 C   0  0  0  0  0  0  0  0  0  0  0  0
   54.3829   -6.8731   -0.6438 C   0  0  0  0  0  0  0  0  0  0  0  0
   50.9000   -3.7617   -6.2796 C   0  0  0  0  0  0  0  0  0  0  0  0
   49.6347   -3.5537   -5.4896 C   0  0  0  0  0  0  0  0  0  0  0  0
   50.8073   -3.0191   -7.5846 C   0  0  0  0  0  0  0  0  0  0  0  0
   54.9272   -4.7672   -7.4553 C   0  0  0  0  0  0  0  0  0  0  0  0
   55.8953   -4.3596   -6.3734 C   0  0  0  0  0  0  0  0  0  0  0  0
   56.5061   -3.2449   -6.4303 O   0  0  0  0  0  0  0  0  0  0  0  0
   56.1610   -5.1646   -5.2860 O   0  0  0  0  0  0  0  0  0  0  0  0
   55.8835   -4.6989   -3.9829 C   0  0  0  0  0  0  0  0  0  0  0  0
   56.7933   -5.2423   -2.9667 C   0  0  0  0  0  0  0  0  0  0  0  0
   57.1908   -4.3963   -1.9510 C   0  0  0  0  0  0  0  0  0  0  0  0
   58.0490   -4.8065   -0.9377 C   0  0  0  0  0  0  0  0  0  0  0  0
   58.5225   -6.0865   -0.9340 C   0  0  0  0  0  0  0  0  0  0  0  0
   58.1290   -6.9409   -1.9481 C   0  0  0  0  0  0  0  0  0  0  0  0
   57.2740   -6.5248   -2.9538 C   0  0  0  0  0  0  0  0  0  0  0  0
   55.2433   -3.9386   -8.6688 C   0  0  0  0  0  0  0  0  0  0  0  0
   56.0017   -4.7021   -9.7213 C   0  0  0  0  0  0  0  0  0  0  0  0
   56.0140   -3.9404  -11.0448 C   0  0  0  0  0  0  0  0  0  0  0  0
   57.4589   -4.9013   -9.3557 C   0  0  0  0  0  0  0  0  0  0  0  0
 17 18  1  0  0  0
 18 15  1  0  0  0
 15 16  1  0  0  0
 15 10  1  0  0  0
 10 11  1  0  0  0
 11 12  1  0  0  0
 12 13  1  0  0  0
 13 14  2  0  0  0
 11  6  1  0  0  0
  6  7  2  0  0  0
  6  8  1  0  0  0
  8  5  1  0  0  0
  5 19  1  0  0  0
 19 20  1  0  0  0
 19 21  1  0  0  0
  5  1  1  0  0  0
  1  2  2  0  0  0
  1  3  1  0  0  0
  3 22  1  0  0  0
 22 33  1  0  0  0
 33 34  1  0  0  0
 34 35  1  0  0  0
 34 36  1  0  0  0
 22 23  1  0  0  0
 23 24  2  0  0  0
 23 25  1  0  0  0
 25 26  1  0  0  0
 26 27  1  0  0  0
 27 28  2  0  0  0
 28 29  1  0  0  0
 29 30  2  0  0  0
 30 31  1  0  0  0
 31 32  2  0  0  0
 13 10  1  0  0  0
 32 27  1  0  0  0
  8  9  1  0  0  0
  3  4  1  0  0  0
M  END
> <minimizedAffinity>
-7.45837

> <CNNscore>
0.2382754683

> <CNNaffinity>
6.5803337097

> <CNN_VS>
1.5679321289

> <CNNaffinity_variance>
0.5073763132

$$$$
[H]c1c([H])c([H])c(C([H])([H])OC(=O)[C@@]([H])(N([H])C(=O)[C@@]([H])(N([H])C(=O)[C@]2([H])OC(=O)[C@@]2([H])[C@@]([H])(C([H])([H])[H])C([H])([H])C([H])([H])[H])C([H])(C([H])([H])[H])C([H])([H])[H])C([H])([H])C([H])(C([H])([H])[H])C([H])([H])[H])c([H])c1[H]


 36 37  0  0  0  0  0  0  0  0999 V2000
   57.0288   -5.3713   -8.0775 C   0  0  0  0  0  0  0  0  0  0  0  0
   57.7125   -5.6664   -7.0735 O   0  0  0  0  0  0  0  0  0  0  0  0
   55.6250   -5.4281   -7.9311 N   0  0  0  0  0  0  0  0  0  0  0  0
   55.0597   -5.1744   -8.7919 H   0  0  0  0  0  0  0  0  0  0  0  0
   57.7276   -4.9913   -9.3223 C   0  0  0  0  0  0  0  0  0  0  0  0
   59.9720   -6.1390   -9.3789 C   0  0  0  0  0  0  0  0  0  0  0  0
   60.3523   -5.2607   -8.5388 O   0  0  0  0  0  0  0  0  0  0  0  0
   58.6283   -6.0230   -9.7928 N   0  0  0  0  0  0  0  0  0  0  0  0
   58.2558   -6.7199  -10.4662 H   0  0  0  0  0  0  0  0  0  0  0  0
   61.6993   -7.9250   -8.7850 C   0  0  0  0  0  0  0  0  0  0  0  0
   60.9605   -7.1233   -9.7853 C   0  0  0  0  0  0  0  0  0  0  0  0
   60.3084   -8.3750  -10.1005 O   0  0  0  0  0  0  0  0  0  0  0  0
   61.5062   -8.9815   -9.8127 C   0  0  0  0  0  0  0  0  0  0  0  0
   62.0777   -9.9851  -10.2825 O   0  0  0  0  0  0  0  0  0  0  0  0
   63.1302   -7.5875   -8.5080 C   0  0  0  0  0  0  0  0  0  0  0  0
   63.7211   -6.7593   -9.6147 C   0  0  0  0  0  0  0  0  0  0  0  0
   64.1713   -5.5746   -7.4175 C   0  0  0  0  0  0  0  0  0  0  0  0
   63.2870   -6.7648   -7.2397 C   0  0  0  0  0  0  0  0  0  0  0  0
   56.7820   -4.5301  -10.4043 C   0  0  0  0  0  0  0  0  0  0  0  0
   57.4980   -4.0192  -11.6269 C   0  0  0  0  0  0  0  0  0  0  0  0
   55.9223   -3.4373   -9.8303 C   0  0  0  0  0  0  0  0  0  0  0  0
   54.9149   -5.7869   -6.7588 C   0  0  0  0  0  0  0  0  0  0  0  0
   53.4473   -5.5775   -7.0349 C   0  0  0  0  0  0  0  0  0  0  0  0
   53.0605   -4.9770   -8.0877 O   0  0  0  0  0  0  0  0  0  0  0  0
   52.4683   -6.0209   -6.1711 O   0  0  0  0  0  0  0  0  0  0  0  0
   51.1140   -5.9860   -6.5671 C   0  0  0  0  0  0  0  0  0  0  0  0
   50.3489   -4.9111   -5.9232 C   0  0  0  0  0  0  0  0  0  0  0  0
   50.0076   -3.8209   -6.6982 C   0  0  0  0  0  0  0  0  0  0  0  0
   49.2846   -2.7478   -6.1908 C   0  0  0  0  0  0  0  0  0  0  0  0
   48.8920   -2.7589   -4.8838 C   0  0  0  0  0  0  0  0  0  0  0  0
   49.2297   -3.8475   -4.1002 C   0  0  0  0  0  0  0  0  0  0  0  0
   49.9501   -4.9124   -4.6129 C   0  0  0  0  0  0  0  0  0  0  0  0
   55.2600   -4.9667   -5.5475 C   0  0  0  0  0  0  0  0  0  0  0  0
   55.5627   -5.8061   -4.3353 C   0  0  0  0  0  0  0  0  0  0  0  0
   54.4446   -5.6939   -3.3012 C   0  0  0  0  0  0  0  0  0  0  0  0
   55.6638   -7.2823   -4.6629 C   0  0  0  0  0  0  0  0  0  0  0  0
 17 18  1  0  0  0
 18 15  1  0  0  0
 15 16  1  0  0  0
 15 10  1  0  0  0
 10 11  1  0  0  0
 11 12  1  0  0  0
 12 13  1  0  0  0
 13 14  2  0  0  0
 11  6  1  0  0  0
  6  7  2  0  0  0
  6  8  1  0  0  0
  8  5  1  0  0  0
  5 19  1  0  0  0
 19 20  1  0  0  0
 19 21  1  0  0  0
  5  1  1  0  0  0
  1  2  2  0  0  0
  1  3  1  0  0  0
  3 22  1  0  0  0
 22 33  1  0  0  0
 33 34  1  0  0  0
 34 35  1  0  0  0
 34 36  1  0  0  0
 22 23  1  0  0  0
 23 24  2  0  0  0
 23 25  1  0  0  0
 25 26  1  0  0  0
 26 27  1  0  0  0
 27 28  2  0  0  0
 28 29  1  0  0  0
 29 30  2  0  0  0
 30 31  1  0  0  0
 31 32  2  0  0  0
 13 10  1  0  0  0
 32 27  1  0  0  0
  8  9  1  0  0  0
  3  4  1  0  0  0
M  END
> <minimizedAffinity>
-7.64188

> <CNNscore>
0.2376619130

> <CNNaffinity>
6.0801458359

> <CNN_VS>
1.4450191259

> <CNNaffinity_variance>
0.2521157265

$$$$
[H]Oc1c([H])c(-n2c3c(c4c2C([H])([H])C(C([H])([H])[H])(C([H])([H])[H])C([H])([H])C4=O)C([H])([H])C([H])([H])N(C([H])([H])[H])C3([H])[H])c([H])c([H])c1F


 26 29  0  0  0  0  0  0  0  0999 V2000
   63.5784   -5.3948   -8.0331 C   0  0  0  0  0  0  0  0  0  0  0  0
   62.9794   -6.5807   -8.5731 N   0  0  0  0  0  0  0  0  0  0  0  0
   61.8817   -7.0955   -7.8324 C   0  0  0  0  0  0  0  0  0  0  0  0
   60.5492   -6.5426   -8.1861 C   0  0  0  0  0  0  0  0  0  0  0  0
   60.4606   -6.0897   -9.5805 C   0  0  0  0  0  0  0  0  0  0  0  0
   61.5287   -6.1009  -10.4464 C   0  0  0  0  0  0  0  0  0  0  0  0
   62.8426   -6.5860   -9.9857 C   0  0  0  0  0  0  0  0  0  0  0  0
   61.1451   -5.6251  -11.6655 N   0  0  0  0  0  0  0  0  0  0  0  0
   59.8378   -5.3146  -11.5679 C   0  0  0  0  0  0  0  0  0  0  0  0
   58.8690   -4.7588  -12.5535 C   0  0  0  0  0  0  0  0  0  0  0  0
   57.7315   -4.0193  -11.8827 C   0  0  0  0  0  0  0  0  0  0  0  0
   58.1918   -2.7820  -11.1583 C   0  0  0  0  0  0  0  0  0  0  0  0
   56.7298   -3.6877  -12.9737 C   0  0  0  0  0  0  0  0  0  0  0  0
   57.0114   -4.9824  -10.9344 C   0  0  0  0  0  0  0  0  0  0  0  0
   57.9982   -5.3520   -9.8913 C   0  0  0  0  0  0  0  0  0  0  0  0
   57.6869   -5.4688   -8.6826 O   0  0  0  0  0  0  0  0  0  0  0  0
   59.3732   -5.5842  -10.3008 C   0  0  0  0  0  0  0  0  0  0  0  0
   61.9970   -5.4987  -12.7955 C   0  0  0  0  0  0  0  0  0  0  0  0
   61.9498   -4.3599  -13.5664 C   0  0  0  0  0  0  0  0  0  0  0  0
   62.7624   -4.2081  -14.6668 C   0  0  0  0  0  0  0  0  0  0  0  0
   63.6667   -5.2172  -15.0346 C   0  0  0  0  0  0  0  0  0  0  0  0
   64.4683   -5.0736  -16.1155 F   0  0  0  0  0  0  0  0  0  0  0  0
   63.7162   -6.3599  -14.2636 C   0  0  0  0  0  0  0  0  0  0  0  0
   64.5896   -7.3893  -14.5789 O   0  0  0  0  0  0  0  0  0  0  0  0
   62.9003   -6.5073  -13.1623 C   0  0  0  0  0  0  0  0  0  0  0  0
   64.6845   -8.2358  -14.0790 H   0  0  0  0  0  0  0  0  0  0  0  0
  1  2  1  0  0  0
  2  3  1  0  0  0
  3  4  1  0  0  0
  4  5  1  0  0  0
  5  6  2  0  0  0
  6  7  1  0  0  0
  6  8  1  0  0  0
  8  9  1  0  0  0
  9 10  1  0  0  0
 10 11  1  0  0  0
 11 12  1  0  0  0
 11 13  1  0  0  0
 11 14  1  0  0  0
 14 15  1  0  0  0
 15 16  2  0  0  0
 15 17  1  0  0  0
  8 18  1  0  0  0
 18 19  2  0  0  0
 19 20  1  0  0  0
 20 21  2  0  0  0
 21 22  1  0  0  0
 21 23  1  0  0  0
 23 24  1  0  0  0
 23 25  2  0  0  0
  7  2  1  0  0  0
 17  9  2  0  0  0
 25 18  1  0  0  0
 17  5  1  0  0  0
 24 26  1  0  0  0
M  END
> <minimizedAffinity>
1.53070

> <CNNscore>
0.4831801355

> <CNNaffinity>
4.5229268074

> <CNN_VS>
2.1853883266

> <CNNaffinity_variance>
0.0561085232

$$$$
[H]Oc1c([H])c(-n2c3c(c4c2C([H])([H])C(C([H])([H])[H])(C([H])([H])[H])C([H])([H])C4=O)C([H])([H])C([H])([H])N(C([H])([H])[H])C3([H])[H])c([H])c([H])c1F


 26 29  0  0  0  0  0  0  0  0999 V2000
   54.0865   -1.9382   -8.6997 C   0  0  0  0  0  0  0  0  0  0  0  0
   53.4879   -3.1901   -9.0621 N   0  0  0  0  0  0  0  0  0  0  0  0
   54.4025   -4.2195   -9.4121 C   0  0  0  0  0  0  0  0  0  0  0  0
   54.9003   -5.0500   -8.2857 C   0  0  0  0  0  0  0  0  0  0  0  0
   53.9536   -5.1363   -7.1660 C   0  0  0  0  0  0  0  0  0  0  0  0
   52.7626   -4.4501   -7.1308 C   0  0  0  0  0  0  0  0  0  0  0  0
   52.3851   -3.5758   -8.2565 C   0  0  0  0  0  0  0  0  0  0  0  0
   52.0994   -4.7272   -5.9719 N   0  0  0  0  0  0  0  0  0  0  0  0
   52.8711   -5.5864   -5.2782 C   0  0  0  0  0  0  0  0  0  0  0  0
   52.6885   -6.2446   -3.9544 C   0  0  0  0  0  0  0  0  0  0  0  0
   54.0083   -6.6157   -3.3134 C   0  0  0  0  0  0  0  0  0  0  0  0
   54.8385   -5.4110   -2.9567 C   0  0  0  0  0  0  0  0  0  0  0  0
   53.6741   -7.4465   -2.0879 C   0  0  0  0  0  0  0  0  0  0  0  0
   54.7666   -7.5526   -4.2580 C   0  0  0  0  0  0  0  0  0  0  0  0
   55.0546   -6.7644   -5.4804 C   0  0  0  0  0  0  0  0  0  0  0  0
   56.1457   -6.8472   -6.0922 O   0  0  0  0  0  0  0  0  0  0  0  0
   54.0241   -5.8670   -5.9753 C   0  0  0  0  0  0  0  0  0  0  0  0
   50.8361   -4.1887   -5.6075 C   0  0  0  0  0  0  0  0  0  0  0  0
   50.2797   -3.1770   -6.3559 C   0  0  0  0  0  0  0  0  0  0  0  0
   49.0578   -2.6351   -6.0282 C   0  0  0  0  0  0  0  0  0  0  0  0
   48.3417   -3.1029   -4.9147 C   0  0  0  0  0  0  0  0  0  0  0  0
   47.1397   -2.5741   -4.5875 F   0  0  0  0  0  0  0  0  0  0  0  0
   48.8971   -4.1171   -4.1625 C   0  0  0  0  0  0  0  0  0  0  0  0
   48.2356   -4.6187   -3.0523 O   0  0  0  0  0  0  0  0  0  0  0  0
   50.1213   -4.6567   -4.4948 C   0  0  0  0  0  0  0  0  0  0  0  0
   48.5652   -5.3409   -2.4646 H   0  0  0  0  0  0  0  0  0  0  0  0
  1  2  1  0  0  0
  2  3  1  0  0  0
  3  4  1  0  0  0
  4  5  1  0  0  0
  5  6  2  0  0  0
  6  7  1  0  0  0
  6  8  1  0  0  0
  8  9  1  0  0  0
  9 10  1  0  0  0
 10 11  1  0  0  0
 11 12  1  0  0  0
 11 13  1  0  0  0
 11 14  1  0  0  0
 14 15  1  0  0  0
 15 16  2  0  0  0
 15 17  1  0  0  0
  8 18  1  0  0  0
 18 19  2  0  0  0
 19 20  1  0  0  0
 20 21  2  0  0  0
 21 22  1  0  0  0
 21 23  1  0  0  0
 23 24  1  0  0  0
 23 25  2  0  0  0
  7  2  1  0  0  0
 17  9  2  0  0  0
 25 18  1  0  0  0
 17  5  1  0  0  0
 24 26  1  0  0  0
M  END
> <minimizedAffinity>
-10.31463

> <CNNscore>
0.4460545778

> <CNNaffinity>
7.0125856400

> <CNN_VS>
3.1279959679

> <CNNaffinity_variance>
0.1524981111

$$$$
[H]Oc1c([H])c(-n2c3c(c4c2C([H])([H])C(C([H])([H])[H])(C([H])([H])[H])C([H])([H])C4=O)C([H])([H])C([H])([H])N(C([H])([H])[H])C3([H])[H])c([H])c([H])c1F


 26 29  0  0  0  0  0  0  0  0999 V2000
   57.6437   -4.8284  -13.2146 C   0  0  0  0  0  0  0  0  0  0  0  0
   58.4912   -4.0430  -12.3650 N   0  0  0  0  0  0  0  0  0  0  0  0
   58.3682   -4.3090  -10.9747 C   0  0  0  0  0  0  0  0  0  0  0  0
   59.2361   -5.3924  -10.4463 C   0  0  0  0  0  0  0  0  0  0  0  0
   60.4789   -5.5646  -11.2101 C   0  0  0  0  0  0  0  0  0  0  0  0
   60.7699   -4.8499  -12.3481 C   0  0  0  0  0  0  0  0  0  0  0  0
   59.8095   -3.8522  -12.8545 C   0  0  0  0  0  0  0  0  0  0  0  0
   61.9874   -5.2245  -12.8349 N   0  0  0  0  0  0  0  0  0  0  0  0
   62.4626   -6.1737  -12.0052 C   0  0  0  0  0  0  0  0  0  0  0  0
   63.7289   -6.9581  -12.0093 C   0  0  0  0  0  0  0  0  0  0  0  0
   63.5825   -8.2840  -11.2942 C   0  0  0  0  0  0  0  0  0  0  0  0
   62.6292   -9.2171  -11.9928 C   0  0  0  0  0  0  0  0  0  0  0  0
   64.9758   -8.8782  -11.1978 C   0  0  0  0  0  0  0  0  0  0  0  0
   63.1422   -8.0179   -9.8518 C   0  0  0  0  0  0  0  0  0  0  0  0
   61.8013   -7.3907   -9.9370 C   0  0  0  0  0  0  0  0  0  0  0  0
   60.8757   -7.6720   -9.1396 O   0  0  0  0  0  0  0  0  0  0  0  0
   61.5666   -6.4159  -10.9891 C   0  0  0  0  0  0  0  0  0  0  0  0
   62.5992   -4.6882  -13.9997 C   0  0  0  0  0  0  0  0  0  0  0  0
   63.4616   -3.6214  -13.8925 C   0  0  0  0  0  0  0  0  0  0  0  0
   64.0695   -3.0801  -15.0023 C   0  0  0  0  0  0  0  0  0  0  0  0
   63.8246   -3.6050  -16.2813 C   0  0  0  0  0  0  0  0  0  0  0  0
   64.4196   -3.0771  -17.3762 F   0  0  0  0  0  0  0  0  0  0  0  0
   62.9605   -4.6745  -16.3917 C   0  0  0  0  0  0  0  0  0  0  0  0
   62.6811   -5.2340  -17.6290 O   0  0  0  0  0  0  0  0  0  0  0  0
   62.3540   -5.2133  -15.2772 C   0  0  0  0  0  0  0  0  0  0  0  0
   62.0761   -5.9976  -17.7909 H   0  0  0  0  0  0  0  0  0  0  0  0
  1  2  1  0  0  0
  2  3  1  0  0  0
  3  4  1  0  0  0
  4  5  1  0  0  0
  5  6  2  0  0  0
  6  7  1  0  0  0
  6  8  1  0  0  0
  8  9  1  0  0  0
  9 10  1  0  0  0
 10 11  1  0  0  0
 11 12  1  0  0  0
 11 13  1  0  0  0
 11 14  1  0  0  0
 14 15  1  0  0  0
 15 16  2  0  0  0
 15 17  1  0  0  0
  8 18  1  0  0  0
 18 19  2  0  0  0
 19 20  1  0  0  0
 20 21  2  0  0  0
 21 22  1  0  0  0
 21 23  1  0  0  0
 23 24  1  0  0  0
 23 25  2  0  0  0
  7  2  1  0  0  0
 17  9  2  0  0  0
 25 18  1  0  0  0
 17  5  1  0  0  0
 24 26  1  0  0  0
M  END
> <minimizedAffinity>
1.12711

> <CNNscore>
0.4118136168

> <CNNaffinity>
4.4729895592

> <CNN_VS>
1.8420380354

> <CNNaffinity_variance>
0.1236553639

$$$$
[H]Oc1c([H])c(-n2c3c(c4c2C([H])([H])C(C([H])([H])[H])(C([H])([H])[H])C([H])([H])C4=O)C([H])([H])C([H])([H])N(C([H])([H])[H])C3([H])[H])c([H])c([H])c1F


 26 29  0  0  0  0  0  0  0  0999 V2000
   57.0386   -4.2411   -4.0120 C   0  0  0  0  0  0  0  0  0  0  0  0
   57.2100   -4.2881   -2.5889 N   0  0  0  0  0  0  0  0  0  0  0  0
   56.2450   -3.5637   -1.8387 C   0  0  0  0  0  0  0  0  0  0  0  0
   55.0126   -4.3116   -1.4806 C   0  0  0  0  0  0  0  0  0  0  0  0
   55.2262   -5.7602   -1.3652 C   0  0  0  0  0  0  0  0  0  0  0  0
   56.4273   -6.3699   -1.6416 C   0  0  0  0  0  0  0  0  0  0  0  0
   57.5793   -5.5593   -2.0772 C   0  0  0  0  0  0  0  0  0  0  0  0
   56.3226   -7.7154   -1.4458 N   0  0  0  0  0  0  0  0  0  0  0  0
   55.0580   -7.9531   -1.0469 C   0  0  0  0  0  0  0  0  0  0  0  0
   54.3469   -9.2107   -0.6840 C   0  0  0  0  0  0  0  0  0  0  0  0
   52.8517   -9.1028   -0.8924 C   0  0  0  0  0  0  0  0  0  0  0  0
   52.4791   -8.9347   -2.3416 C   0  0  0  0  0  0  0  0  0  0  0  0
   52.2419  -10.3607   -0.3011 C   0  0  0  0  0  0  0  0  0  0  0  0
   52.3203   -7.9437   -0.0443 C   0  0  0  0  0  0  0  0  0  0  0  0
   52.9497   -6.7138   -0.5827 C   0  0  0  0  0  0  0  0  0  0  0  0
   52.3228   -5.6347   -0.7019 O   0  0  0  0  0  0  0  0  0  0  0  0
   54.3454   -6.7774   -0.9828 C   0  0  0  0  0  0  0  0  0  0  0  0
   57.3745   -8.6509   -1.6385 C   0  0  0  0  0  0  0  0  0  0  0  0
   58.2031   -8.5363   -2.7310 C   0  0  0  0  0  0  0  0  0  0  0  0
   59.2305   -9.4268   -2.9448 C   0  0  0  0  0  0  0  0  0  0  0  0
   59.4621  -10.4824   -2.0485 C   0  0  0  0  0  0  0  0  0  0  0  0
   60.4708  -11.3611   -2.2533 F   0  0  0  0  0  0  0  0  0  0  0  0
   58.6330  -10.5997   -0.9523 C   0  0  0  0  0  0  0  0  0  0  0  0
   58.8142  -11.6222   -0.0338 O   0  0  0  0  0  0  0  0  0  0  0  0
   57.6053   -9.7053   -0.7425 C   0  0  0  0  0  0  0  0  0  0  0  0
   58.2654  -11.7737    0.7732 H   0  0  0  0  0  0  0  0  0  0  0  0
  1  2  1  0  0  0
  2  3  1  0  0  0
  3  4  1  0  0  0
  4  5  1  0  0  0
  5  6  2  0  0  0
  6  7  1  0  0  0
  6  8  1  0  0  0
  8  9  1  0  0  0
  9 10  1  0  0  0
 10 11  1  0  0  0
 11 12  1  0  0  0
 11 13  1  0  0  0
 11 14  1  0  0  0
 14 15  1  0  0  0
 15 16  2  0  0  0
 15 17  1  0  0  0
  8 18  1  0  0  0
 18 19  2  0  0  0
 19 20  1  0  0  0
 20 21  2  0  0  0
 21 22  1  0  0  0
 21 23  1  0  0  0
 23 24  1  0  0  0
 23 25  2  0  0  0
  7  2  1  0  0  0
 17  9  2  0  0  0
 25 18  1  0  0  0
 17  5  1  0  0  0
 24 26  1  0  0  0
M  END
> <minimizedAffinity>
3.21562

> <CNNscore>
0.3557782769

> <CNNaffinity>
5.4200716019

> <CNN_VS>
1.9283437729

> <CNNaffinity_variance>
1.1628870964

$$$$
[H]Oc1c([H])c(-n2c3c(c4c2C([H])([H])C(C([H])([H])[H])(C([H])([H])[H])C([H])([H])C4=O)C([H])([H])C([H])([H])N(C([H])([H])[H])C3([H])[H])c([H])c([H])c1F


 26 29  0  0  0  0  0  0  0  0999 V2000
   57.7296   -5.9499  -11.3347 C   0  0  0  0  0  0  0  0  0  0  0  0
   58.6231   -4.9817  -10.7680 N   0  0  0  0  0  0  0  0  0  0  0  0
   58.7714   -5.0482   -9.3565 C   0  0  0  0  0  0  0  0  0  0  0  0
   59.8275   -5.9680   -8.8617 C   0  0  0  0  0  0  0  0  0  0  0  0
   60.9306   -6.1505   -9.8144 C   0  0  0  0  0  0  0  0  0  0  0  0
   60.9429   -5.5908  -11.0703 C   0  0  0  0  0  0  0  0  0  0  0  0
   59.8091   -4.7598  -11.5151 C   0  0  0  0  0  0  0  0  0  0  0  0
   62.0906   -5.9339  -11.7219 N   0  0  0  0  0  0  0  0  0  0  0  0
   62.8001   -6.7085  -10.8783 C   0  0  0  0  0  0  0  0  0  0  0  0
   64.1225   -7.3802  -11.0154 C   0  0  0  0  0  0  0  0  0  0  0  0
   64.2435   -8.5932  -10.1183 C   0  0  0  0  0  0  0  0  0  0  0  0
   63.2882   -9.6932  -10.4988 C   0  0  0  0  0  0  0  0  0  0  0  0
   65.6876   -9.0523  -10.2061 C   0  0  0  0  0  0  0  0  0  0  0  0
   64.0336   -8.1530   -8.6666 C   0  0  0  0  0  0  0  0  0  0  0  0
   62.6394   -7.6556   -8.5819 C   0  0  0  0  0  0  0  0  0  0  0  0
   61.9009   -7.8895   -7.5963 O   0  0  0  0  0  0  0  0  0  0  0  0
   62.1242   -6.8692   -9.6903 C   0  0  0  0  0  0  0  0  0  0  0  0
   62.4313   -5.5282  -13.0403 C   0  0  0  0  0  0  0  0  0  0  0  0
   62.9608   -6.4407  -13.9237 C   0  0  0  0  0  0  0  0  0  0  0  0
   63.3005   -6.0780  -15.2071 C   0  0  0  0  0  0  0  0  0  0  0  0
   63.1149   -4.7593  -15.6522 C   0  0  0  0  0  0  0  0  0  0  0  0
   63.4469   -4.3968  -16.9131 F   0  0  0  0  0  0  0  0  0  0  0  0
   62.5842   -3.8425  -14.7687 C   0  0  0  0  0  0  0  0  0  0  0  0
   62.3787   -2.5264  -15.1528 O   0  0  0  0  0  0  0  0  0  0  0  0
   62.2454   -4.2106  -13.4842 C   0  0  0  0  0  0  0  0  0  0  0  0
   62.0049   -1.8127  -14.5814 H   0  0  0  0  0  0  0  0  0  0  0  0
  1  2  1  0  0  0
  2  3  1  0  0  0
  3  4  1  0  0  0
  4  5  1  0  0  0
  5  6  2  0  0  0
  6  7  1  0  0  0
  6  8  1  0  0  0
  8  9  1  0  0  0
  9 10  1  0  0  0
 10 11  1  0  0  0
 11 12  1  0  0  0
 11 13  1  0  0  0
 11 14  1  0  0  0
 14 15  1  0  0  0
 15 16  2  0  0  0
 15 17  1  0  0  0
  8 18  1  0  0  0
 18 19  2  0  0  0
 19 20  1  0  0  0
 20 21  2  0  0  0
 21 22  1  0  0  0
 21 23  1  0  0  0
 23 24  1  0  0  0
 23 25  2  0  0  0
  7  2  1  0  0  0
 17  9  2  0  0  0
 25 18  1  0  0  0
 17  5  1  0  0  0
 24 26  1  0  0  0
M  END
> <minimizedAffinity>
0.69077

> <CNNscore>
0.3489624560

> <CNNaffinity>
4.4412684441

> <CNN_VS>
1.5498359203

> <CNNaffinity_variance>
0.1162479892

$$$$
[H]Oc1c([H])c(-n2c3c(c4c2C([H])([H])C(C([H])([H])[H])(C([H])([H])[H])C([H])([H])C4=O)C([H])([H])C([H])([H])N(C([H])([H])[H])C3([H])[H])c([H])c([H])c1F


 26 29  0  0  0  0  0  0  0  0999 V2000
   54.9851   -7.7468   -5.4659 C   0  0  0  0  0  0  0  0  0  0  0  0
   55.5569   -6.4566   -5.2103 N   0  0  0  0  0  0  0  0  0  0  0  0
   56.9717   -6.3887   -5.3216 C   0  0  0  0  0  0  0  0  0  0  0  0
   57.4982   -6.0945   -6.6790 C   0  0  0  0  0  0  0  0  0  0  0  0
   56.5694   -5.3110   -7.5042 C   0  0  0  0  0  0  0  0  0  0  0  0
   55.3071   -4.9568   -7.0897 C   0  0  0  0  0  0  0  0  0  0  0  0
   54.8301   -5.3666   -5.7561 C   0  0  0  0  0  0  0  0  0  0  0  0
   54.6821   -4.2357   -8.0639 N   0  0  0  0  0  0  0  0  0  0  0  0
   55.5489   -4.1358   -9.0904 C   0  0  0  0  0  0  0  0  0  0  0  0
   55.4459   -3.4749  -10.4213 C   0  0  0  0  0  0  0  0  0  0  0  0
   56.3602   -4.1092  -11.4471 C   0  0  0  0  0  0  0  0  0  0  0  0
   55.9750   -5.5292  -11.7676 C   0  0  0  0  0  0  0  0  0  0  0  0
   56.3061   -3.2241  -12.6790 C   0  0  0  0  0  0  0  0  0  0  0  0
   57.8020   -4.0265  -10.9375 C   0  0  0  0  0  0  0  0  0  0  0  0
   57.8535   -4.8486   -9.7046 C   0  0  0  0  0  0  0  0  0  0  0  0
   58.8274   -5.5886   -9.4303 O   0  0  0  0  0  0  0  0  0  0  0  0
   56.7256   -4.7835   -8.7904 C   0  0  0  0  0  0  0  0  0  0  0  0
   53.3657   -3.7097   -7.9702 C   0  0  0  0  0  0  0  0  0  0  0  0
   53.0403   -2.5516   -8.6384 C   0  0  0  0  0  0  0  0  0  0  0  0
   51.7739   -2.0176   -8.5672 C   0  0  0  0  0  0  0  0  0  0  0  0
   50.7738   -2.6438   -7.8062 C   0  0  0  0  0  0  0  0  0  0  0  0
   49.5266   -2.1235   -7.7325 F   0  0  0  0  0  0  0  0  0  0  0  0
   51.0970   -3.8049   -7.1353 C   0  0  0  0  0  0  0  0  0  0  0  0
   50.1502   -4.4665   -6.3687 O   0  0  0  0  0  0  0  0  0  0  0  0
   52.3670   -4.3359   -7.2098 C   0  0  0  0  0  0  0  0  0  0  0  0
   50.3025   -5.2994   -5.8602 H   0  0  0  0  0  0  0  0  0  0  0  0
  1  2  1  0  0  0
  2  3  1  0  0  0
  3  4  1  0  0  0
  4  5  1  0  0  0
  5  6  2  0  0  0
  6  7  1  0  0  0
  6  8  1  0  0  0
  8  9  1  0  0  0
  9 10  1  0  0  0
 10 11  1  0  0  0
 11 12  1  0  0  0
 11 13  1  0  0  0
 11 14  1  0  0  0
 14 15  1  0  0  0
 15 16  2  0  0  0
 15 17  1  0  0  0
  8 18  1  0  0  0
 18 19  2  0  0  0
 19 20  1  0  0  0
 20 21  2  0  0  0
 21 22  1  0  0  0
 21 23  1  0  0  0
 23 24  1  0  0  0
 23 25  2  0  0  0
  7  2  1  0  0  0
 17  9  2  0  0  0
 25 18  1  0  0  0
 17  5  1  0  0  0
 24 26  1  0  0  0
M  END
> <minimizedAffinity>
-5.64257

> <CNNscore>
0.3316657245

> <CNNaffinity>
6.3486294746

> <CNN_VS>
2.1056227684

> <CNNaffinity_variance>
0.1950430125

$$$$
[H]Oc1c([H])c(-n2c3c(c4c2C([H])([H])C(C([H])([H])[H])(C([H])([H])[H])C([H])([H])C4=O)C([H])([H])C([H])([H])N(C([H])([H])[H])C3([H])[H])c([H])c([H])c1F


 26 29  0  0  0  0  0  0  0  0999 V2000
   54.8873   -8.8676   -3.7766 C   0  0  0  0  0  0  0  0  0  0  0  0
   55.2282   -7.5342   -3.3732 N   0  0  0  0  0  0  0  0  0  0  0  0
   56.4948   -7.0715   -3.8209 C   0  0  0  0  0  0  0  0  0  0  0  0
   56.5084   -6.4209   -5.1561 C   0  0  0  0  0  0  0  0  0  0  0  0
   55.2303   -5.7868   -5.5055 C   0  0  0  0  0  0  0  0  0  0  0  0
   54.1102   -5.8598   -4.7114 C   0  0  0  0  0  0  0  0  0  0  0  0
   54.1593   -6.6028   -3.4387 C   0  0  0  0  0  0  0  0  0  0  0  0
   53.0820   -5.1783   -5.2925 N   0  0  0  0  0  0  0  0  0  0  0  0
   53.5533   -4.6768   -6.4507 C   0  0  0  0  0  0  0  0  0  0  0  0
   52.9136   -3.8517   -7.5133 C   0  0  0  0  0  0  0  0  0  0  0  0
   53.5821   -4.0339   -8.8588 C   0  0  0  0  0  0  0  0  0  0  0  0
   53.4219   -5.4293   -9.4015 C   0  0  0  0  0  0  0  0  0  0  0  0
   52.9716   -3.0000   -9.7873 C   0  0  0  0  0  0  0  0  0  0  0  0
   55.0602   -3.6553   -8.7280 C   0  0  0  0  0  0  0  0  0  0  0  0
   55.6556   -4.6305   -7.7829 C   0  0  0  0  0  0  0  0  0  0  0  0
   56.7984   -5.1176   -7.9507 O   0  0  0  0  0  0  0  0  0  0  0  0
   54.8731   -5.0264   -6.6239 C   0  0  0  0  0  0  0  0  0  0  0  0
   51.7778   -5.0483   -4.7441 C   0  0  0  0  0  0  0  0  0  0  0  0
   50.8081   -4.3592   -5.4357 C   0  0  0  0  0  0  0  0  0  0  0  0
   49.5358   -4.2164   -4.9306 C   0  0  0  0  0  0  0  0  0  0  0  0
   49.1910   -4.7733   -3.6887 C   0  0  0  0  0  0  0  0  0  0  0  0
   47.9416   -4.6362   -3.1869 F   0  0  0  0  0  0  0  0  0  0  0  0
   50.1611   -5.4646   -2.9931 C   0  0  0  0  0  0  0  0  0  0  0  0
   49.8780   -6.0358   -1.7621 O   0  0  0  0  0  0  0  0  0  0  0  0
   51.4340   -5.6050   -3.5032 C   0  0  0  0  0  0  0  0  0  0  0  0
   50.5151   -6.5441   -1.2043 H   0  0  0  0  0  0  0  0  0  0  0  0
  1  2  1  0  0  0
  2  3  1  0  0  0
  3  4  1  0  0  0
  4  5  1  0  0  0
  5  6  2  0  0  0
  6  7  1  0  0  0
  6  8  1  0  0  0
  8  9  1  0  0  0
  9 10  1  0  0  0
 10 11  1  0  0  0
 11 12  1  0  0  0
 11 13  1  0  0  0
 11 14  1  0  0  0
 14 15  1  0  0  0
 15 16  2  0  0  0
 15 17  1  0  0  0
  8 18  1  0  0  0
 18 19  2  0  0  0
 19 20  1  0  0  0
 20 21  2  0  0  0
 21 22  1  0  0  0
 21 23  1  0  0  0
 23 24  1  0  0  0
 23 25  2  0  0  0
  7  2  1  0  0  0
 17  9  2  0  0  0
 25 18  1  0  0  0
 17  5  1  0  0  0
 24 26  1  0  0  0
M  END
> <minimizedAffinity>
-7.01900

> <CNNscore>
0.3294807673

> <CNNaffinity>
6.6076827049

> <CNN_VS>
2.1771044731

> <CNNaffinity_variance>
0.2732423842

$$$$
[H]Oc1c([H])c(-n2c3c(c4c2C([H])([H])C(C([H])([H])[H])(C([H])([H])[H])C([H])([H])C4=O)C([H])([H])C([H])([H])N(C([H])([H])[H])C3([H])[H])c([H])c([H])c1F


 26 29  0  0  0  0  0  0  0  0999 V2000
   56.6567   -7.3193   -4.4372 C   0  0  0  0  0  0  0  0  0  0  0  0
   57.5251   -6.9692   -3.3507 N   0  0  0  0  0  0  0  0  0  0  0  0
   57.1560   -7.5001   -2.0856 C   0  0  0  0  0  0  0  0  0  0  0  0
   57.6913   -8.8496   -1.7716 C   0  0  0  0  0  0  0  0  0  0  0  0
   58.9630   -9.1407   -2.4467 C   0  0  0  0  0  0  0  0  0  0  0  0
   59.5549   -8.2821   -3.3428 C   0  0  0  0  0  0  0  0  0  0  0  0
   58.9089   -6.9964   -3.6646 C   0  0  0  0  0  0  0  0  0  0  0  0
   60.7205   -8.8199   -3.8029 N   0  0  0  0  0  0  0  0  0  0  0  0
   60.8626  -10.0153   -3.1980 C   0  0  0  0  0  0  0  0  0  0  0  0
   61.9210  -11.0595   -3.2900 C   0  0  0  0  0  0  0  0  0  0  0  0
   61.3978  -12.4363   -2.9417 C   0  0  0  0  0  0  0  0  0  0  0  0
   60.3746  -12.9342   -3.9279 C   0  0  0  0  0  0  0  0  0  0  0  0
   62.6056  -13.3534   -2.8788 C   0  0  0  0  0  0  0  0  0  0  0  0
   60.8277  -12.3998   -1.5208 C   0  0  0  0  0  0  0  0  0  0  0  0
   59.6762  -11.4666   -1.5602 C   0  0  0  0  0  0  0  0  0  0  0  0
   58.6102  -11.6876   -0.9386 O   0  0  0  0  0  0  0  0  0  0  0  0
   59.8031  -10.2552   -2.3531 C   0  0  0  0  0  0  0  0  0  0  0  0
   61.5885   -8.2010   -4.7422 C   0  0  0  0  0  0  0  0  0  0  0  0
   62.6156   -7.3981   -4.3019 C   0  0  0  0  0  0  0  0  0  0  0  0
   63.4727   -6.7851   -5.1871 C   0  0  0  0  0  0  0  0  0  0  0  0
   63.3213   -6.9633   -6.5716 C   0  0  0  0  0  0  0  0  0  0  0  0
   64.1610   -6.3632   -7.4469 F   0  0  0  0  0  0  0  0  0  0  0  0
   62.2924   -7.7677   -7.0158 C   0  0  0  0  0  0  0  0  0  0  0  0
   62.0946   -7.9800   -8.3714 O   0  0  0  0  0  0  0  0  0  0  0  0
   61.4365   -8.3796   -6.1252 C   0  0  0  0  0  0  0  0  0  0  0  0
   61.3839   -8.5395   -8.7678 H   0  0  0  0  0  0  0  0  0  0  0  0
  1  2  1  0  0  0
  2  3  1  0  0  0
  3  4  1  0  0  0
  4  5  1  0  0  0
  5  6  2  0  0  0
  6  7  1  0  0  0
  6  8  1  0  0  0
  8  9  1  0  0  0
  9 10  1  0  0  0
 10 11  1  0  0  0
 11 12  1  0  0  0
 11 13  1  0  0  0
 11 14  1  0  0  0
 14 15  1  0  0  0
 15 16  2  0  0  0
 15 17  1  0  0  0
  8 18  1  0  0  0
 18 19  2  0  0  0
 19 20  1  0  0  0
 20 21  2  0  0  0
 21 22  1  0  0  0
 21 23  1  0  0  0
 23 24  1  0  0  0
 23 25  2  0  0  0
  7  2  1  0  0  0
 17  9  2  0  0  0
 25 18  1  0  0  0
 17  5  1  0  0  0
 24 26  1  0  0  0
M  END
> <minimizedAffinity>
-4.07037

> <CNNscore>
0.2907022238

> <CNNaffinity>
4.6784672737

> <CNN_VS>
1.3600407839

> <CNNaffinity_variance>
0.2107816041

$$$$
[H]Oc1c([H])c(-n2c3c(c4c2C([H])([H])C(C([H])([H])[H])(C([H])([H])[H])C([H])([H])C4=O)C([H])([H])C([H])([H])N(C([H])([H])[H])C3([H])[H])c([H])c([H])c1F


 26 29  0  0  0  0  0  0  0  0999 V2000
   53.2051   -2.0824   -8.7521 C   0  0  0  0  0  0  0  0  0  0  0  0
   52.9838   -3.4833   -8.9650 N   0  0  0  0  0  0  0  0  0  0  0  0
   54.0835   -4.1925   -9.5186 C   0  0  0  0  0  0  0  0  0  0  0  0
   55.0605   -4.7337   -8.5394 C   0  0  0  0  0  0  0  0  0  0  0  0
   54.4653   -5.0307   -7.2298 C   0  0  0  0  0  0  0  0  0  0  0  0
   53.1543   -4.7577   -6.9178 C   0  0  0  0  0  0  0  0  0  0  0  0
   52.2737   -4.1369   -7.9244 C   0  0  0  0  0  0  0  0  0  0  0  0
   52.8906   -5.1421   -5.6363 N   0  0  0  0  0  0  0  0  0  0  0  0
   54.0335   -5.6563   -5.1417 C   0  0  0  0  0  0  0  0  0  0  0  0
   54.3723   -6.2356   -3.8119 C   0  0  0  0  0  0  0  0  0  0  0  0
   55.8479   -6.1185   -3.4963 C   0  0  0  0  0  0  0  0  0  0  0  0
   56.2961   -4.6891   -3.3429 C   0  0  0  0  0  0  0  0  0  0  0  0
   56.0821   -6.9166   -2.2267 C   0  0  0  0  0  0  0  0  0  0  0  0
   56.6427   -6.8351   -4.5917 C   0  0  0  0  0  0  0  0  0  0  0  0
   56.3805   -6.0916   -5.8475 C   0  0  0  0  0  0  0  0  0  0  0  0
   57.2755   -5.8700   -6.6969 O   0  0  0  0  0  0  0  0  0  0  0  0
   55.0311   -5.6084   -6.0884 C   0  0  0  0  0  0  0  0  0  0  0  0
   51.6341   -5.0066   -4.9873 C   0  0  0  0  0  0  0  0  0  0  0  0
   50.6230   -4.2950   -5.5913 C   0  0  0  0  0  0  0  0  0  0  0  0
   49.3951   -4.1463   -4.9878 C   0  0  0  0  0  0  0  0  0  0  0  0
   49.1394   -4.7200   -3.7321 C   0  0  0  0  0  0  0  0  0  0  0  0
   47.9339   -4.5773   -3.1337 F   0  0  0  0  0  0  0  0  0  0  0  0
   50.1511   -5.4340   -3.1242 C   0  0  0  0  0  0  0  0  0  0  0  0
   49.9560   -6.0225   -1.8843 O   0  0  0  0  0  0  0  0  0  0  0  0
   51.3794   -5.5802   -3.7327 C   0  0  0  0  0  0  0  0  0  0  0  0
   50.6275   -6.5474   -1.3853 H   0  0  0  0  0  0  0  0  0  0  0  0
  1  2  1  0  0  0
  2  3  1  0  0  0
  3  4  1  0  0  0
  4  5  1  0  0  0
  5  6  2  0  0  0
  6  7  1  0  0  0
  6  8  1  0  0  0
  8  9  1  0  0  0
  9 10  1  0  0  0
 10 11  1  0  0  0
 11 12  1  0  0  0
 11 13  1  0  0  0
 11 14  1  0  0  0
 14 15  1  0  0  0
 15 16  2  0  0  0
 15 17  1  0  0  0
  8 18  1  0  0  0
 18 19  2  0  0  0
 19 20  1  0  0  0
 20 21  2  0  0  0
 21 22  1  0  0  0
 21 23  1  0  0  0
 23 24  1  0  0  0
 23 25  2  0  0  0
  7  2  1  0  0  0
 17  9  2  0  0  0
 25 18  1  0  0  0
 17  5  1  0  0  0
 24 26  1  0  0  0
M  END
> <minimizedAffinity>
-9.19296

> <CNNscore>
0.2829436064

> <CNNaffinity>
6.6188797951

> <CNN_VS>
1.8727697134

> <CNNaffinity_variance>
0.0722655281

$$$$
[H]OC(=O)c1[se]c(-c2c([H])c([H])c(OC([H])(C([H])([H])[H])C([H])([H])[H])c(C#N)c2[H])nc1C([H])([H])[H]


 22 23  0  0  0  0  0  0  0  0999 V2000
   52.6978   -4.6846   -6.6648 C   0  0  0  0  0  0  0  0  0  0  0  0
   53.8103   -5.4792   -6.7797 C   0  0  0  0  0  0  0  0  0  0  0  0
   54.6772   -5.3558   -7.8458 C   0  0  0  0  0  0  0  0  0  0  0  0
   54.4481   -4.4224   -8.8344 C   0  0  0  0  0  0  0  0  0  0  0  0
   53.3342   -3.6334   -8.7107 C   0  0  0  0  0  0  0  0  0  0  0  0
   52.4579   -3.7329   -7.6662 C   0  0  0  0  0  0  0  0  0  0  0  0
   55.3519   -4.2939   -9.9457 C   0  0  0  0  0  0  0  0  0  0  0  0
   55.4746   -4.0485  -11.1600 N   0  0  0  0  0  0  0  0  0  0  0  0
   56.4243   -3.9861  -11.9890 C   0  0  0  0  0  0  0  0  0  0  0  0
   56.1474   -3.6347  -13.4823 C   0  0  0  0  0  0  0  0  0  0  0  0
   57.7263   -4.2061  -11.6988 C   0  0  0  0  0  0  0  0  0  0  0  0
   57.4541   -4.6136   -9.6434 Se  0  0  0  0  0  0  0  0  0  0  0  0
   59.0149   -4.2423  -12.2595 C   0  0  0  0  0  0  0  0  0  0  0  0
   59.3320   -3.5198  -13.3979 O   0  0  0  0  0  0  0  0  0  0  0  0
   59.9110   -4.9165  -11.7615 O   0  0  0  0  0  0  0  0  0  0  0  0
   59.0566   -3.8953  -14.3148 H   0  0  0  0  0  0  0  0  0  0  0  0
   51.3018   -2.8764   -7.5875 C   0  0  0  0  0  0  0  0  0  0  0  0
   50.3758   -2.2145   -7.5370 N   0  0  0  0  0  0  0  0  0  0  0  0
   51.7840   -4.7309   -5.6512 O   0  0  0  0  0  0  0  0  0  0  0  0
   49.8270   -5.2825   -4.4112 C   0  0  0  0  0  0  0  0  0  0  0  0
   50.9218   -5.7629   -5.3516 C   0  0  0  0  0  0  0  0  0  0  0  0
   50.2005   -6.3212   -6.5676 C   0  0  0  0  0  0  0  0  0  0  0  0
 20 21  1  0  0  0
 21 22  1  0  0  0
 21 19  1  0  0  0
 19  1  1  0  0  0
  1  2  2  0  0  0
  2  3  1  0  0  0
  3  4  2  0  0  0
  4  5  1  0  0  0
  5  6  2  0  0  0
  6 17  1  0  0  0
 17 18  3  0  0  0
  4  7  1  0  0  0
  7  8  2  0  0  0
  8  9  1  0  0  0
  9 10  1  0  0  0
  9 11  2  0  0  0
 11 12  1  0  0  0
 11 13  1  0  0  0
 13 14  1  0  0  0
 13 15  2  0  0  0
  6  1  1  0  0  0
 12  7  1  0  0  0
 14 16  1  0  0  0
M  END
> <minimizedAffinity>
-7.32057

> <CNNscore>
0.7096954584

> <CNNaffinity>
5.9262266159

> <CNN_VS>
4.2058162689

> <CNNaffinity_variance>
0.0928405970

$$$$
[H]OC(=O)c1[se]c(-c2c([H])c([H])c(OC([H])(C([H])([H])[H])C([H])([H])[H])c(C#N)c2[H])nc1C([H])([H])[H]


 22 23  0  0  0  0  0  0  0  0999 V2000
   55.9069   -4.7946   -8.0975 C   0  0  0  0  0  0  0  0  0  0  0  0
   57.1483   -5.0918   -8.6005 C   0  0  0  0  0  0  0  0  0  0  0  0
   57.4699   -4.8442   -9.9191 C   0  0  0  0  0  0  0  0  0  0  0  0
   56.5450   -4.2864  -10.7759 C   0  0  0  0  0  0  0  0  0  0  0  0
   55.3077   -3.9931  -10.2641 C   0  0  0  0  0  0  0  0  0  0  0  0
   54.9607   -4.2271   -8.9627 C   0  0  0  0  0  0  0  0  0  0  0  0
   56.8804   -4.0283  -12.1505 C   0  0  0  0  0  0  0  0  0  0  0  0
   56.4557   -3.8724  -13.3102 N   0  0  0  0  0  0  0  0  0  0  0  0
   56.9580   -3.6399  -14.4445 C   0  0  0  0  0  0  0  0  0  0  0  0
   56.0448   -3.5125  -15.7016 C   0  0  0  0  0  0  0  0  0  0  0  0
   58.2774   -3.4830  -14.6941 C   0  0  0  0  0  0  0  0  0  0  0  0
   58.9373   -3.7564  -12.7054 Se  0  0  0  0  0  0  0  0  0  0  0  0
   59.2083   -3.2316  -15.7169 C   0  0  0  0  0  0  0  0  0  0  0  0
   59.3257   -4.0690  -16.8139 O   0  0  0  0  0  0  0  0  0  0  0  0
   59.9549   -2.2586  -15.6779 O   0  0  0  0  0  0  0  0  0  0  0  0
   59.8573   -4.9437  -16.7140 H   0  0  0  0  0  0  0  0  0  0  0  0
   53.6439   -3.8984   -8.4786 C   0  0  0  0  0  0  0  0  0  0  0  0
   52.5945   -3.6571   -8.1061 N   0  0  0  0  0  0  0  0  0  0  0  0
   55.4951   -5.0016   -6.8122 O   0  0  0  0  0  0  0  0  0  0  0  0
   55.9213   -5.2230   -4.4795 C   0  0  0  0  0  0  0  0  0  0  0  0
   56.0798   -5.8192   -5.8699 C   0  0  0  0  0  0  0  0  0  0  0  0
   55.4527   -7.2020   -5.7960 C   0  0  0  0  0  0  0  0  0  0  0  0
 20 21  1  0  0  0
 21 22  1  0  0  0
 21 19  1  0  0  0
 19  1  1  0  0  0
  1  2  2  0  0  0
  2  3  1  0  0  0
  3  4  2  0  0  0
  4  5  1  0  0  0
  5  6  2  0  0  0
  6 17  1  0  0  0
 17 18  3  0  0  0
  4  7  1  0  0  0
  7  8  2  0  0  0
  8  9  1  0  0  0
  9 10  1  0  0  0
  9 11  2  0  0  0
 11 12  1  0  0  0
 11 13  1  0  0  0
 13 14  1  0  0  0
 13 15  2  0  0  0
  6  1  1  0  0  0
 12  7  1  0  0  0
 14 16  1  0  0  0
M  END
> <minimizedAffinity>
-6.93231

> <CNNscore>
0.6719124317

> <CNNaffinity>
5.4147024155

> <CNN_VS>
3.6382057667

> <CNNaffinity_variance>
0.1205705553

$$$$
[H]OC(=O)c1[se]c(-c2c([H])c([H])c(OC([H])(C([H])([H])[H])C([H])([H])[H])c(C#N)c2[H])nc1C([H])([H])[H]


 22 23  0  0  0  0  0  0  0  0999 V2000
   51.1301   -4.4748   -6.4933 C   0  0  0  0  0  0  0  0  0  0  0  0
   51.9499   -5.5632   -6.3327 C   0  0  0  0  0  0  0  0  0  0  0  0
   53.1668   -5.6502   -6.9766 C   0  0  0  0  0  0  0  0  0  0  0  0
   53.5975   -4.6372   -7.8068 C   0  0  0  0  0  0  0  0  0  0  0  0
   52.7716   -3.5541   -7.9609 C   0  0  0  0  0  0  0  0  0  0  0  0
   51.5610   -3.4404   -7.3361 C   0  0  0  0  0  0  0  0  0  0  0  0
   54.8662   -4.7281   -8.4781 C   0  0  0  0  0  0  0  0  0  0  0  0
   55.5058   -4.5031   -9.5220 N   0  0  0  0  0  0  0  0  0  0  0  0
   56.6900   -4.6743   -9.9238 C   0  0  0  0  0  0  0  0  0  0  0  0
   57.1069   -4.2393  -11.3616 C   0  0  0  0  0  0  0  0  0  0  0  0
   57.6865   -5.2271   -9.1962 C   0  0  0  0  0  0  0  0  0  0  0  0
   56.5479   -5.5838   -7.4523 Se  0  0  0  0  0  0  0  0  0  0  0  0
   59.0452   -5.5852   -9.2359 C   0  0  0  0  0  0  0  0  0  0  0  0
   59.7527   -5.8789   -8.0818 O   0  0  0  0  0  0  0  0  0  0  0  0
   59.6590   -5.6517  -10.2962 O   0  0  0  0  0  0  0  0  0  0  0  0
   60.1012   -5.1029   -7.5041 H   0  0  0  0  0  0  0  0  0  0  0  0
   50.7333   -2.2778   -7.5350 C   0  0  0  0  0  0  0  0  0  0  0  0
   50.0843   -1.3512   -7.6715 N   0  0  0  0  0  0  0  0  0  0  0  0
   49.9126   -4.2972   -5.9013 O   0  0  0  0  0  0  0  0  0  0  0  0
   48.4688   -2.8030   -4.7373 C   0  0  0  0  0  0  0  0  0  0  0  0
   49.6586   -3.7477   -4.6636 C   0  0  0  0  0  0  0  0  0  0  0  0
   49.2974   -4.7787   -3.6066 C   0  0  0  0  0  0  0  0  0  0  0  0
 20 21  1  0  0  0
 21 22  1  0  0  0
 21 19  1  0  0  0
 19  1  1  0  0  0
  1  2  2  0  0  0
  2  3  1  0  0  0
  3  4  2  0  0  0
  4  5  1  0  0  0
  5  6  2  0  0  0
  6 17  1  0  0  0
 17 18  3  0  0  0
  4  7  1  0  0  0
  7  8  2  0  0  0
  8  9  1  0  0  0
  9 10  1  0  0  0
  9 11  2  0  0  0
 11 12  1  0  0  0
 11 13  1  0  0  0
 13 14  1  0  0  0
 13 15  2  0  0  0
  6  1  1  0  0  0
 12  7  1  0  0  0
 14 16  1  0  0  0
M  END
> <minimizedAffinity>
-8.41797

> <CNNscore>
0.6354292035

> <CNNaffinity>
6.0963826180

> <CNN_VS>
3.8738195896

> <CNNaffinity_variance>
0.1686417758

$$$$
[H]OC(=O)c1[se]c(-c2c([H])c([H])c(OC([H])(C([H])([H])[H])C([H])([H])[H])c(C#N)c2[H])nc1C([H])([H])[H]


 22 23  0  0  0  0  0  0  0  0999 V2000
   55.0608   -4.3706   -7.7749 C   0  0  0  0  0  0  0  0  0  0  0  0
   55.5989   -4.1650   -9.0201 C   0  0  0  0  0  0  0  0  0  0  0  0
   56.8769   -4.5814   -9.3307 C   0  0  0  0  0  0  0  0  0  0  0  0
   57.6563   -5.2214   -8.3905 C   0  0  0  0  0  0  0  0  0  0  0  0
   57.1099   -5.4222   -7.1496 C   0  0  0  0  0  0  0  0  0  0  0  0
   55.8471   -5.0208   -6.8132 C   0  0  0  0  0  0  0  0  0  0  0  0
   58.9886   -5.6555   -8.7145 C   0  0  0  0  0  0  0  0  0  0  0  0
   60.0781   -6.0723   -8.2801 N   0  0  0  0  0  0  0  0  0  0  0  0
   61.1887   -6.4143   -8.7729 C   0  0  0  0  0  0  0  0  0  0  0  0
   62.3479   -6.8965   -7.8488 C   0  0  0  0  0  0  0  0  0  0  0  0
   61.4920   -6.4030  -10.0903 C   0  0  0  0  0  0  0  0  0  0  0  0
   59.6203   -5.6930  -10.7668 Se  0  0  0  0  0  0  0  0  0  0  0  0
   62.5166   -6.6772  -11.0128 C   0  0  0  0  0  0  0  0  0  0  0  0
   63.7089   -5.9722  -11.0044 O   0  0  0  0  0  0  0  0  0  0  0  0
   62.3949   -7.5533  -11.8632 O   0  0  0  0  0  0  0  0  0  0  0  0
   63.7358   -5.0404  -11.4387 H   0  0  0  0  0  0  0  0  0  0  0  0
   55.3237   -5.2584   -5.4919 C   0  0  0  0  0  0  0  0  0  0  0  0
   54.9297   -5.4394   -4.4382 N   0  0  0  0  0  0  0  0  0  0  0  0
   53.8105   -3.9967   -7.3731 O   0  0  0  0  0  0  0  0  0  0  0  0
   52.3743   -5.8902   -7.5271 C   0  0  0  0  0  0  0  0  0  0  0  0
   52.6059   -4.4296   -7.8828 C   0  0  0  0  0  0  0  0  0  0  0  0
   51.4079   -3.6780   -7.3254 C   0  0  0  0  0  0  0  0  0  0  0  0
 20 21  1  0  0  0
 21 22  1  0  0  0
 21 19  1  0  0  0
 19  1  1  0  0  0
  1  2  2  0  0  0
  2  3  1  0  0  0
  3  4  2  0  0  0
  4  5  1  0  0  0
  5  6  2  0  0  0
  6 17  1  0  0  0
 17 18  3  0  0  0
  4  7  1  0  0  0
  7  8  2  0  0  0
  8  9  1  0  0  0
  9 10  1  0  0  0
  9 11  2  0  0  0
 11 12  1  0  0  0
 11 13  1  0  0  0
 13 14  1  0  0  0
 13 15  2  0  0  0
  6  1  1  0  0  0
 12  7  1  0  0  0
 14 16  1  0  0  0
M  END
> <minimizedAffinity>
-5.85417

> <CNNscore>
0.4709334970

> <CNNaffinity>
5.3208246231

> <CNN_VS>
2.5057544708

> <CNNaffinity_variance>
0.1485282481

$$$$
[H]OC(=O)c1[se]c(-c2c([H])c([H])c(OC([H])(C([H])([H])[H])C([H])([H])[H])c(C#N)c2[H])nc1C([H])([H])[H]


 22 23  0  0  0  0  0  0  0  0999 V2000
   55.9087   -4.4612   -8.4910 C   0  0  0  0  0  0  0  0  0  0  0  0
   56.6436   -5.1412   -7.5530 C   0  0  0  0  0  0  0  0  0  0  0  0
   56.0641   -5.6344   -6.4023 C   0  0  0  0  0  0  0  0  0  0  0  0
   54.7185   -5.4564   -6.1602 C   0  0  0  0  0  0  0  0  0  0  0  0
   53.9928   -4.7759   -7.1030 C   0  0  0  0  0  0  0  0  0  0  0  0
   54.5395   -4.2760   -8.2520 C   0  0  0  0  0  0  0  0  0  0  0  0
   54.1146   -5.9707   -4.9605 C   0  0  0  0  0  0  0  0  0  0  0  0
   54.3034   -6.4743   -3.8378 N   0  0  0  0  0  0  0  0  0  0  0  0
   53.5826   -6.8765   -2.8830 C   0  0  0  0  0  0  0  0  0  0  0  0
   54.2341   -7.4687   -1.5965 C   0  0  0  0  0  0  0  0  0  0  0  0
   52.2311   -6.8458   -2.8616 C   0  0  0  0  0  0  0  0  0  0  0  0
   51.9749   -5.9891   -4.7761 Se  0  0  0  0  0  0  0  0  0  0  0  0
   51.1095   -7.1614   -2.0753 C   0  0  0  0  0  0  0  0  0  0  0  0
   50.2075   -6.1898   -1.6738 O   0  0  0  0  0  0  0  0  0  0  0  0
   50.8849   -8.3119   -1.7130 O   0  0  0  0  0  0  0  0  0  0  0  0
   50.4478   -5.5928   -0.8717 H   0  0  0  0  0  0  0  0  0  0  0  0
   53.7279   -3.5679   -9.2091 C   0  0  0  0  0  0  0  0  0  0  0  0
   53.0768   -2.9960   -9.9489 N   0  0  0  0  0  0  0  0  0  0  0  0
   56.3895   -3.9371   -9.6566 O   0  0  0  0  0  0  0  0  0  0  0  0
   57.2755   -3.6794  -11.8521 C   0  0  0  0  0  0  0  0  0  0  0  0
   57.0124   -4.6147  -10.6818 C   0  0  0  0  0  0  0  0  0  0  0  0
   58.3700   -5.1797  -10.2966 C   0  0  0  0  0  0  0  0  0  0  0  0
 20 21  1  0  0  0
 21 22  1  0  0  0
 21 19  1  0  0  0
 19  1  1  0  0  0
  1  2  2  0  0  0
  2  3  1  0  0  0
  3  4  2  0  0  0
  4  5  1  0  0  0
  5  6  2  0  0  0
  6 17  1  0  0  0
 17 18  3  0  0  0
  4  7  1  0  0  0
  7  8  2  0  0  0
  8  9  1  0  0  0
  9 10  1  0  0  0
  9 11  2  0  0  0
 11 12  1  0  0  0
 11 13  1  0  0  0
 13 14  1  0  0  0
 13 15  2  0  0  0
  6  1  1  0  0  0
 12  7  1  0  0  0
 14 16  1  0  0  0
M  END
> <minimizedAffinity>
-7.14242

> <CNNscore>
0.4479167759

> <CNNaffinity>
5.7891550064

> <CNN_VS>
2.5930595398

> <CNNaffinity_variance>
0.3617610335

$$$$
[H]OC(=O)c1[se]c(-c2c([H])c([H])c(OC([H])(C([H])([H])[H])C([H])([H])[H])c(C#N)c2[H])nc1C([H])([H])[H]


 22 23  0  0  0  0  0  0  0  0999 V2000
   55.9839   -4.2761  -10.2075 C   0  0  0  0  0  0  0  0  0  0  0  0
   54.7409   -3.8955  -10.6461 C   0  0  0  0  0  0  0  0  0  0  0  0
   53.6649   -3.8200   -9.7859 C   0  0  0  0  0  0  0  0  0  0  0  0
   53.8095   -4.1276   -8.4497 C   0  0  0  0  0  0  0  0  0  0  0  0
   55.0551   -4.5068   -8.0212 C   0  0  0  0  0  0  0  0  0  0  0  0
   56.1391   -4.5905   -8.8499 C   0  0  0  0  0  0  0  0  0  0  0  0
   52.6877   -4.0488   -7.5532 C   0  0  0  0  0  0  0  0  0  0  0  0
   51.6113   -3.4837   -7.2857 N   0  0  0  0  0  0  0  0  0  0  0  0
   50.7270   -3.5776   -6.3901 C   0  0  0  0  0  0  0  0  0  0  0  0
   49.4783   -2.6447   -6.4121 C   0  0  0  0  0  0  0  0  0  0  0  0
   50.7544   -4.4502   -5.3577 C   0  0  0  0  0  0  0  0  0  0  0  0
   52.5878   -5.3710   -5.8636 Se  0  0  0  0  0  0  0  0  0  0  0  0
   50.0449   -4.8717   -4.2198 C   0  0  0  0  0  0  0  0  0  0  0  0
   48.9871   -4.1369   -3.7101 O   0  0  0  0  0  0  0  0  0  0  0  0
   50.3352   -5.9090   -3.6323 O   0  0  0  0  0  0  0  0  0  0  0  0
   49.1913   -3.3151   -3.1266 H   0  0  0  0  0  0  0  0  0  0  0  0
   57.4262   -4.9953   -8.3441 C   0  0  0  0  0  0  0  0  0  0  0  0
   58.4506   -5.3198   -7.9654 N   0  0  0  0  0  0  0  0  0  0  0  0
   57.1059   -4.3806  -10.9785 O   0  0  0  0  0  0  0  0  0  0  0  0
   58.8902   -3.8055  -12.4474 C   0  0  0  0  0  0  0  0  0  0  0  0
   57.4171   -3.6476  -12.1029 C   0  0  0  0  0  0  0  0  0  0  0  0
   56.6573   -4.0900  -13.3430 C   0  0  0  0  0  0  0  0  0  0  0  0
 20 21  1  0  0  0
 21 22  1  0  0  0
 21 19  1  0  0  0
 19  1  1  0  0  0
  1  2  2  0  0  0
  2  3  1  0  0  0
  3  4  2  0  0  0
  4  5  1  0  0  0
  5  6  2  0  0  0
  6 17  1  0  0  0
 17 18  3  0  0  0
  4  7  1  0  0  0
  7  8  2  0  0  0
  8  9  1  0  0  0
  9 10  1  0  0  0
  9 11  2  0  0  0
 11 12  1  0  0  0
 11 13  1  0  0  0
 13 14  1  0  0  0
 13 15  2  0  0  0
  6  1  1  0  0  0
 12  7  1  0  0  0
 14 16  1  0  0  0
M  END
> <minimizedAffinity>
-8.36802

> <CNNscore>
0.4391109049

> <CNNaffinity>
5.8799104691

> <CNN_VS>
2.5819327831

> <CNNaffinity_variance>
0.1404990405

$$$$
[H]OC(=O)c1[se]c(-c2c([H])c([H])c(OC([H])(C([H])([H])[H])C([H])([H])[H])c(C#N)c2[H])nc1C([H])([H])[H]


 22 23  0  0  0  0  0  0  0  0999 V2000
   51.8614   -4.0519   -7.0561 C   0  0  0  0  0  0  0  0  0  0  0  0
   52.1453   -3.3480   -8.1990 C   0  0  0  0  0  0  0  0  0  0  0  0
   53.3468   -3.5003   -8.8596 C   0  0  0  0  0  0  0  0  0  0  0  0
   54.3045   -4.3717   -8.3859 C   0  0  0  0  0  0  0  0  0  0  0  0
   54.0116   -5.0703   -7.2435 C   0  0  0  0  0  0  0  0  0  0  0  0
   52.8303   -4.9400   -6.5679 C   0  0  0  0  0  0  0  0  0  0  0  0
   55.5570   -4.5304   -9.0747 C   0  0  0  0  0  0  0  0  0  0  0  0
   56.7245   -4.9587   -9.0188 N   0  0  0  0  0  0  0  0  0  0  0  0
   57.7229   -4.9959   -9.7901 C   0  0  0  0  0  0  0  0  0  0  0  0
   59.0595   -5.6467   -9.3211 C   0  0  0  0  0  0  0  0  0  0  0  0
   57.7534   -4.5012  -11.0480 C   0  0  0  0  0  0  0  0  0  0  0  0
   55.7621   -3.7951  -11.0821 Se  0  0  0  0  0  0  0  0  0  0  0  0
   58.5788   -4.3358  -12.1737 C   0  0  0  0  0  0  0  0  0  0  0  0
   58.1266   -3.7008  -13.3187 O   0  0  0  0  0  0  0  0  0  0  0  0
   59.7344   -4.7481  -12.1863 O   0  0  0  0  0  0  0  0  0  0  0  0
   57.5413   -4.2290  -13.9790 H   0  0  0  0  0  0  0  0  0  0  0  0
   52.5761   -5.7006   -5.3707 C   0  0  0  0  0  0  0  0  0  0  0  0
   52.3583   -6.2876   -4.4188 N   0  0  0  0  0  0  0  0  0  0  0  0
   50.7055   -3.9703   -6.3338 O   0  0  0  0  0  0  0  0  0  0  0  0
   48.8972   -2.8394   -5.2740 C   0  0  0  0  0  0  0  0  0  0  0  0
   49.6290   -3.1441   -6.5722 C   0  0  0  0  0  0  0  0  0  0  0  0
   50.0196   -1.7927   -7.1484 C   0  0  0  0  0  0  0  0  0  0  0  0
 20 21  1  0  0  0
 21 22  1  0  0  0
 21 19  1  0  0  0
 19  1  1  0  0  0
  1  2  2  0  0  0
  2  3  1  0  0  0
  3  4  2  0  0  0
  4  5  1  0  0  0
  5  6  2  0  0  0
  6 17  1  0  0  0
 17 18  3  0  0  0
  4  7  1  0  0  0
  7  8  2  0  0  0
  8  9  1  0  0  0
  9 10  1  0  0  0
  9 11  2  0  0  0
 11 12  1  0  0  0
 11 13  1  0  0  0
 13 14  1  0  0  0
 13 15  2  0  0  0
  6  1  1  0  0  0
 12  7  1  0  0  0
 14 16  1  0  0  0
M  END
> <minimizedAffinity>
-8.41695

> <CNNscore>
0.4267220497

> <CNNaffinity>
5.5418877602

> <CNN_VS>
2.3648457527

> <CNNaffinity_variance>
0.1622642428

$$$$
[H]OC(=O)c1[se]c(-c2c([H])c([H])c(OC([H])(C([H])([H])[H])C([H])([H])[H])c(C#N)c2[H])nc1C([H])([H])[H]


 22 23  0  0  0  0  0  0  0  0999 V2000
   53.6913   -4.9438   -9.2422 C   0  0  0  0  0  0  0  0  0  0  0  0
   53.5692   -6.2352   -8.7951 C   0  0  0  0  0  0  0  0  0  0  0  0
   53.1741   -6.5164   -7.5035 C   0  0  0  0  0  0  0  0  0  0  0  0
   52.8883   -5.4990   -6.6180 C   0  0  0  0  0  0  0  0  0  0  0  0
   53.0133   -4.2125   -7.0739 C   0  0  0  0  0  0  0  0  0  0  0  0
   53.4025   -3.9036   -8.3475 C   0  0  0  0  0  0  0  0  0  0  0  0
   52.4764   -5.7924   -5.2716 C   0  0  0  0  0  0  0  0  0  0  0  0
   51.5617   -5.7289   -4.4296 N   0  0  0  0  0  0  0  0  0  0  0  0
   51.4025   -6.0700   -3.2248 C   0  0  0  0  0  0  0  0  0  0  0  0
   50.0491   -5.8003   -2.4999 C   0  0  0  0  0  0  0  0  0  0  0  0
   52.3362   -6.6765   -2.4578 C   0  0  0  0  0  0  0  0  0  0  0  0
   53.8497   -6.7552   -3.9302 Se  0  0  0  0  0  0  0  0  0  0  0  0
   52.5756   -7.1942   -1.1730 C   0  0  0  0  0  0  0  0  0  0  0  0
   52.2360   -6.4882   -0.0307 O   0  0  0  0  0  0  0  0  0  0  0  0
   53.0959   -8.2938   -1.0127 O   0  0  0  0  0  0  0  0  0  0  0  0
   52.8602   -5.7366    0.2902 H   0  0  0  0  0  0  0  0  0  0  0  0
   53.5170   -2.5316   -8.7728 C   0  0  0  0  0  0  0  0  0  0  0  0
   53.5936   -1.4512   -9.1266 N   0  0  0  0  0  0  0  0  0  0  0  0
   54.0740   -4.5656  -10.4971 O   0  0  0  0  0  0  0  0  0  0  0  0
   55.6068   -3.3635  -11.8673 C   0  0  0  0  0  0  0  0  0  0  0  0
   55.3439   -4.6059  -11.0300 C   0  0  0  0  0  0  0  0  0  0  0  0
   56.4410   -4.6297   -9.9780 C   0  0  0  0  0  0  0  0  0  0  0  0
 20 21  1  0  0  0
 21 22  1  0  0  0
 21 19  1  0  0  0
 19  1  1  0  0  0
  1  2  2  0  0  0
  2  3  1  0  0  0
  3  4  2  0  0  0
  4  5  1  0  0  0
  5  6  2  0  0  0
  6 17  1  0  0  0
 17 18  3  0  0  0
  4  7  1  0  0  0
  7  8  2  0  0  0
  8  9  1  0  0  0
  9 10  1  0  0  0
  9 11  2  0  0  0
 11 12  1  0  0  0
 11 13  1  0  0  0
 13 14  1  0  0  0
 13 15  2  0  0  0
  6  1  1  0  0  0
 12  7  1  0  0  0
 14 16  1  0  0  0
M  END
> <minimizedAffinity>
-1.02477

> <CNNscore>
0.4156053960

> <CNNaffinity>
5.4224944115

> <CNN_VS>
2.2536180019

> <CNNaffinity_variance>
0.6970111132

$$$$
[H]OC(=O)c1[se]c(-c2c([H])c([H])c(OC([H])(C([H])([H])[H])C([H])([H])[H])c(C#N)c2[H])nc1C([H])([H])[H]


 22 23  0  0  0  0  0  0  0  0999 V2000
   56.6186   -4.8494   -8.9285 C   0  0  0  0  0  0  0  0  0  0  0  0
   55.5938   -4.3363   -9.6827 C   0  0  0  0  0  0  0  0  0  0  0  0
   55.7648   -4.0278  -11.0164 C   0  0  0  0  0  0  0  0  0  0  0  0
   56.9808   -4.2282  -11.6345 C   0  0  0  0  0  0  0  0  0  0  0  0
   57.9984   -4.7411  -10.8728 C   0  0  0  0  0  0  0  0  0  0  0  0
   57.8584   -5.0560   -9.5498 C   0  0  0  0  0  0  0  0  0  0  0  0
   57.1589   -3.9065  -13.0249 C   0  0  0  0  0  0  0  0  0  0  0  0
   56.6121   -3.7559  -14.1330 N   0  0  0  0  0  0  0  0  0  0  0  0
   56.9812   -3.4520  -15.3011 C   0  0  0  0  0  0  0  0  0  0  0  0
   55.9427   -3.3680  -16.4608 C   0  0  0  0  0  0  0  0  0  0  0  0
   58.2531   -3.1788  -15.6691 C   0  0  0  0  0  0  0  0  0  0  0  0
   59.1233   -3.4489  -13.7627 Se  0  0  0  0  0  0  0  0  0  0  0  0
   59.0567   -2.8233  -16.7663 C   0  0  0  0  0  0  0  0  0  0  0  0
   59.3644   -1.5014  -17.0430 O   0  0  0  0  0  0  0  0  0  0  0  0
   59.5181   -3.6715  -17.5234 O   0  0  0  0  0  0  0  0  0  0  0  0
   58.6652   -0.9210  -17.5245 H   0  0  0  0  0  0  0  0  0  0  0  0
   58.9637   -5.5929   -8.7973 C   0  0  0  0  0  0  0  0  0  0  0  0
   59.8412   -6.0328   -8.2186 N   0  0  0  0  0  0  0  0  0  0  0  0
   56.5477   -5.1849   -7.6068 O   0  0  0  0  0  0  0  0  0  0  0  0
   54.4520   -6.0479   -6.8752 C   0  0  0  0  0  0  0  0  0  0  0  0
   55.5002   -4.9537   -6.7422 C   0  0  0  0  0  0  0  0  0  0  0  0
   55.9116   -4.9571   -5.2788 C   0  0  0  0  0  0  0  0  0  0  0  0
 20 21  1  0  0  0
 21 22  1  0  0  0
 21 19  1  0  0  0
 19  1  1  0  0  0
  1  2  2  0  0  0
  2  3  1  0  0  0
  3  4  2  0  0  0
  4  5  1  0  0  0
  5  6  2  0  0  0
  6 17  1  0  0  0
 17 18  3  0  0  0
  4  7  1  0  0  0
  7  8  2  0  0  0
  8  9  1  0  0  0
  9 10  1  0  0  0
  9 11  2  0  0  0
 11 12  1  0  0  0
 11 13  1  0  0  0
 13 14  1  0  0  0
 13 15  2  0  0  0
  6  1  1  0  0  0
 12  7  1  0  0  0
 14 16  1  0  0  0
M  END
> <minimizedAffinity>
-6.27751

> <CNNscore>
0.3940683305

> <CNNaffinity>
4.8701272011

> <CNN_VS>
1.9191628695

> <CNNaffinity_variance>
0.1381066740

$$$$
[H]c1c([H])c(C([H])([H])N2C([H])([H])C([H])([H])N(C([H])([H])[H])C([H])([H])C2([H])[H])c(C(F)(F)F)c([H])c1C(=O)N([H])c1c([H])c([H])c(C([H])([H])[H])c(C(=O)N([H])[H])c1[H]


 34 36  0  0  0  0  0  0  0  0999 V2000
   57.3130   -2.8848  -13.8210 C   0  0  0  0  0  0  0  0  0  0  0  0
   58.6440   -2.7025  -14.0829 C   0  0  0  0  0  0  0  0  0  0  0  0
   59.6599   -3.3060  -13.3454 C   0  0  0  0  0  0  0  0  0  0  0  0
   59.3391   -4.1372  -12.2891 C   0  0  0  0  0  0  0  0  0  0  0  0
   58.0153   -4.3202  -12.0269 C   0  0  0  0  0  0  0  0  0  0  0  0
   56.9889   -3.7271  -12.7511 C   0  0  0  0  0  0  0  0  0  0  0  0
   55.5895   -3.9749  -12.4044 C   0  0  0  0  0  0  0  0  0  0  0  0
   54.9628   -2.9226  -11.7607 F   0  0  0  0  0  0  0  0  0  0  0  0
   55.4038   -5.1679  -11.7254 F   0  0  0  0  0  0  0  0  0  0  0  0
   54.8689   -4.1339  -13.5976 F   0  0  0  0  0  0  0  0  0  0  0  0
   60.4194   -4.7737  -11.4977 C   0  0  0  0  0  0  0  0  0  0  0  0
   61.5090   -4.9311  -12.0527 O   0  0  0  0  0  0  0  0  0  0  0  0
   60.1935   -5.1776  -10.1665 N   0  0  0  0  0  0  0  0  0  0  0  0
   59.1999   -5.0031   -9.7714 H   0  0  0  0  0  0  0  0  0  0  0  0
   61.0746   -5.7795   -9.2661 C   0  0  0  0  0  0  0  0  0  0  0  0
   60.7491   -7.0370   -8.7681 C   0  0  0  0  0  0  0  0  0  0  0  0
   61.5796   -7.6581   -7.8714 C   0  0  0  0  0  0  0  0  0  0  0  0
   62.7700   -7.0831   -7.4152 C   0  0  0  0  0  0  0  0  0  0  0  0
   63.6018   -7.8320   -6.4509 C   0  0  0  0  0  0  0  0  0  0  0  0
   63.0707   -5.8420   -7.9197 C   0  0  0  0  0  0  0  0  0  0  0  0
   62.2195   -5.1934   -8.8455 C   0  0  0  0  0  0  0  0  0  0  0  0
   64.2820   -5.1588   -7.5041 C   0  0  0  0  0  0  0  0  0  0  0  0
   65.5664   -5.5431   -7.9177 N   0  0  0  0  0  0  0  0  0  0  0  0
   64.1512   -4.1520   -6.7155 O   0  0  0  0  0  0  0  0  0  0  0  0
   66.1044   -6.2436   -7.3659 H   0  0  0  0  0  0  0  0  0  0  0  0
   66.0238   -5.1441   -8.7637 H   0  0  0  0  0  0  0  0  0  0  0  0
   56.2956   -2.2451  -14.6401 C   0  0  0  0  0  0  0  0  0  0  0  0
   60.1622   -3.3478  -17.2774 C   0  0  0  0  0  0  0  0  0  0  0  0
   58.8725   -3.1320  -16.6476 N   0  0  0  0  0  0  0  0  0  0  0  0
   57.9227   -2.7058  -17.6529 C   0  0  0  0  0  0  0  0  0  0  0  0
   56.5835   -2.3433  -17.0520 C   0  0  0  0  0  0  0  0  0  0  0  0
   56.6872   -1.6092  -15.8397 N   0  0  0  0  0  0  0  0  0  0  0  0
   58.0334   -1.1041  -15.6899 C   0  0  0  0  0  0  0  0  0  0  0  0
   59.0552   -2.1933  -15.5856 C   0  0  0  0  0  0  0  0  0  0  0  0
 28 29  1  0  0  0
 29 30  1  0  0  0
 30 31  1  0  0  0
 31 32  1  0  0  0
 32 27  1  0  0  0
 27  1  1  0  0  0
  1  2  2  0  0  0
  2  3  1  0  0  0
  3  4  2  0  0  0
  4  5  1  0  0  0
  5  6  2  0  0  0
  6  7  1  0  0  0
  7  8  1  0  0  0
  7  9  1  0  0  0
  7 10  1  0  0  0
  4 11  1  0  0  0
 11 12  2  0  0  0
 11 13  1  0  0  0
 13 15  1  0  0  0
 15 16  2  0  0  0
 16 17  1  0  0  0
 17 18  2  0  0  0
 18 19  1  0  0  0
 18 20  1  0  0  0
 20 21  2  0  0  0
 20 22  1  0  0  0
 22 23  1  0  0  0
 22 24  2  0  0  0
 32 33  1  0  0  0
 33 34  1  0  0  0
 34 29  1  0  0  0
  6  1  1  0  0  0
 21 15  1  0  0  0
 13 14  1  0  0  0
 23 25  1  0  0  0
 23 26  1  0  0  0
M  END
> <minimizedAffinity>
15.00276

> <CNNscore>
0.4679148495

> <CNNaffinity>
4.7094516754

> <CNN_VS>
2.2036223412

> <CNNaffinity_variance>
0.3894970417

$$$$
[H]c1c([H])c(C([H])([H])N2C([H])([H])C([H])([H])N(C([H])([H])[H])C([H])([H])C2([H])[H])c(C(F)(F)F)c([H])c1C(=O)N([H])c1c([H])c([H])c(C([H])([H])[H])c(C(=O)N([H])[H])c1[H]


 34 36  0  0  0  0  0  0  0  0999 V2000
   62.9288   -6.8706   -9.8587 C   0  0  0  0  0  0  0  0  0  0  0  0
   61.8533   -6.4213  -10.5764 C   0  0  0  0  0  0  0  0  0  0  0  0
   60.6080   -6.1613  -10.0090 C   0  0  0  0  0  0  0  0  0  0  0  0
   60.4176   -6.3569   -8.6544 C   0  0  0  0  0  0  0  0  0  0  0  0
   61.4863   -6.8036   -7.9383 C   0  0  0  0  0  0  0  0  0  0  0  0
   62.7350   -7.0682   -8.4865 C   0  0  0  0  0  0  0  0  0  0  0  0
   63.8335   -7.5470   -7.6475 C   0  0  0  0  0  0  0  0  0  0  0  0
   64.4155   -8.7249   -8.0813 F   0  0  0  0  0  0  0  0  0  0  0  0
   63.4999   -7.6106   -6.3045 F   0  0  0  0  0  0  0  0  0  0  0  0
   64.8689   -6.6024   -7.7080 F   0  0  0  0  0  0  0  0  0  0  0  0
   59.0902   -6.0886   -8.0505 C   0  0  0  0  0  0  0  0  0  0  0  0
   58.9326   -6.4041   -6.8691 O   0  0  0  0  0  0  0  0  0  0  0  0
   58.0607   -5.4974   -8.8099 N   0  0  0  0  0  0  0  0  0  0  0  0
   58.2952   -5.2640   -9.8416 H   0  0  0  0  0  0  0  0  0  0  0  0
   56.7614   -5.1622   -8.4239 C   0  0  0  0  0  0  0  0  0  0  0  0
   56.1612   -5.9096   -7.4158 C   0  0  0  0  0  0  0  0  0  0  0  0
   54.8816   -5.6230   -7.0156 C   0  0  0  0  0  0  0  0  0  0  0  0
   54.1229   -4.5922   -7.5793 C   0  0  0  0  0  0  0  0  0  0  0  0
   52.7533   -4.3568   -7.0784 C   0  0  0  0  0  0  0  0  0  0  0  0
   54.7354   -3.8684   -8.5725 C   0  0  0  0  0  0  0  0  0  0  0  0
   56.0555   -4.1571   -8.9920 C   0  0  0  0  0  0  0  0  0  0  0  0
   54.0292   -2.7806   -9.2244 C   0  0  0  0  0  0  0  0  0  0  0  0
   54.1164   -1.4437   -8.8080 N   0  0  0  0  0  0  0  0  0  0  0  0
   53.2901   -3.0772  -10.2336 O   0  0  0  0  0  0  0  0  0  0  0  0
   53.4539   -1.0755   -8.0937 H   0  0  0  0  0  0  0  0  0  0  0  0
   54.8207   -0.7823   -9.1960 H   0  0  0  0  0  0  0  0  0  0  0  0
   64.2120   -7.1039  -10.5022 C   0  0  0  0  0  0  0  0  0  0  0  0
   65.1420  -11.8112  -10.8138 C   0  0  0  0  0  0  0  0  0  0  0  0
   64.6345  -10.4529  -10.7514 N   0  0  0  0  0  0  0  0  0  0  0  0
   63.7000  -10.2489  -11.8375 C   0  0  0  0  0  0  0  0  0  0  0  0
   63.2192   -8.8173  -11.9122 C   0  0  0  0  0  0  0  0  0  0  0  0
   64.2487   -7.8625  -11.6938 N   0  0  0  0  0  0  0  0  0  0  0  0
   65.5395   -8.5034  -11.8071 C   0  0  0  0  0  0  0  0  0  0  0  0
   65.7544   -9.5654  -10.7739 C   0  0  0  0  0  0  0  0  0  0  0  0
 28 29  1  0  0  0
 29 30  1  0  0  0
 30 31  1  0  0  0
 31 32  1  0  0  0
 32 27  1  0  0  0
 27  1  1  0  0  0
  1  2  2  0  0  0
  2  3  1  0  0  0
  3  4  2  0  0  0
  4  5  1  0  0  0
  5  6  2  0  0  0
  6  7  1  0  0  0
  7  8  1  0  0  0
  7  9  1  0  0  0
  7 10  1  0  0  0
  4 11  1  0  0  0
 11 12  2  0  0  0
 11 13  1  0  0  0
 13 15  1  0  0  0
 15 16  2  0  0  0
 16 17  1  0  0  0
 17 18  2  0  0  0
 18 19  1  0  0  0
 18 20  1  0  0  0
 20 21  2  0  0  0
 20 22  1  0  0  0
 22 23  1  0  0  0
 22 24  2  0  0  0
 32 33  1  0  0  0
 33 34  1  0  0  0
 34 29  1  0  0  0
  6  1  1  0  0  0
 21 15  1  0  0  0
 13 14  1  0  0  0
 23 25  1  0  0  0
 23 26  1  0  0  0
M  END
> <minimizedAffinity>
-3.88346

> <CNNscore>
0.3707466424

> <CNNaffinity>
5.3471364975

> <CNN_VS>
1.9824329615

> <CNNaffinity_variance>
0.2245205939

$$$$
[H]c1c([H])c(C([H])([H])N2C([H])([H])C([H])([H])N(C([H])([H])[H])C([H])([H])C2([H])[H])c(C(F)(F)F)c([H])c1C(=O)N([H])c1c([H])c([H])c(C([H])([H])[H])c(C(=O)N([H])[H])c1[H]


 34 36  0  0  0  0  0  0  0  0999 V2000
   53.8909   -5.7811   -5.7230 C   0  0  0  0  0  0  0  0  0  0  0  0
   55.2051   -5.7901   -6.1053 C   0  0  0  0  0  0  0  0  0  0  0  0
   55.6511   -5.2925   -7.3275 C   0  0  0  0  0  0  0  0  0  0  0  0
   54.7441   -4.7553   -8.2210 C   0  0  0  0  0  0  0  0  0  0  0  0
   53.4360   -4.7451   -7.8426 C   0  0  0  0  0  0  0  0  0  0  0  0
   52.9729   -5.2366   -6.6286 C   0  0  0  0  0  0  0  0  0  0  0  0
   51.5488   -5.1892   -6.2973 C   0  0  0  0  0  0  0  0  0  0  0  0
   51.2173   -4.2671   -5.3205 F   0  0  0  0  0  0  0  0  0  0  0  0
   51.0169   -6.4374   -6.0181 F   0  0  0  0  0  0  0  0  0  0  0  0
   50.8528   -4.7574   -7.4363 F   0  0  0  0  0  0  0  0  0  0  0  0
   55.2162   -4.2329   -9.5259 C   0  0  0  0  0  0  0  0  0  0  0  0
   54.5681   -3.3162  -10.0357 O   0  0  0  0  0  0  0  0  0  0  0  0
   56.3605   -4.7736  -10.1457 N   0  0  0  0  0  0  0  0  0  0  0  0
   56.8566   -5.5820   -9.6219 H   0  0  0  0  0  0  0  0  0  0  0  0
   56.9600   -4.4167  -11.3552 C   0  0  0  0  0  0  0  0  0  0  0  0
   58.3016   -4.0491  -11.3411 C   0  0  0  0  0  0  0  0  0  0  0  0
   58.9258   -3.6783  -12.5041 C   0  0  0  0  0  0  0  0  0  0  0  0
   58.2718   -3.6476  -13.7400 C   0  0  0  0  0  0  0  0  0  0  0  0
   59.0302   -3.2380  -14.9398 C   0  0  0  0  0  0  0  0  0  0  0  0
   56.9485   -4.0138  -13.7297 C   0  0  0  0  0  0  0  0  0  0  0  0
   56.2962   -4.3978  -12.5342 C   0  0  0  0  0  0  0  0  0  0  0  0
   56.1803   -4.0097  -14.9612 C   0  0  0  0  0  0  0  0  0  0  0  0
   56.0656   -5.1256  -15.8039 N   0  0  0  0  0  0  0  0  0  0  0  0
   55.5814   -2.9177  -15.2800 O   0  0  0  0  0  0  0  0  0  0  0  0
   56.7603   -5.2784  -16.5647 H   0  0  0  0  0  0  0  0  0  0  0  0
   55.2946   -5.8191  -15.7110 H   0  0  0  0  0  0  0  0  0  0  0  0
   53.4869   -6.2952   -4.4239 C   0  0  0  0  0  0  0  0  0  0  0  0
   54.4183   -8.0081   -0.0285 C   0  0  0  0  0  0  0  0  0  0  0  0
   54.3710   -7.4518   -1.3682 N   0  0  0  0  0  0  0  0  0  0  0  0
   55.1650   -6.2424   -1.4044 C   0  0  0  0  0  0  0  0  0  0  0  0
   55.0660   -5.5373   -2.7382 C   0  0  0  0  0  0  0  0  0  0  0  0
   53.7494   -5.5193   -3.2725 N   0  0  0  0  0  0  0  0  0  0  0  0
   52.8000   -5.8687   -2.2399 C   0  0  0  0  0  0  0  0  0  0  0  0
   52.9979   -7.2560   -1.7129 C   0  0  0  0  0  0  0  0  0  0  0  0
 28 29  1  0  0  0
 29 30  1  0  0  0
 30 31  1  0  0  0
 31 32  1  0  0  0
 32 27  1  0  0  0
 27  1  1  0  0  0
  1  2  2  0  0  0
  2  3  1  0  0  0
  3  4  2  0  0  0
  4  5  1  0  0  0
  5  6  2  0  0  0
  6  7  1  0  0  0
  7  8  1  0  0  0
  7  9  1  0  0  0
  7 10  1  0  0  0
  4 11  1  0  0  0
 11 12  2  0  0  0
 11 13  1  0  0  0
 13 15  1  0  0  0
 15 16  2  0  0  0
 16 17  1  0  0  0
 17 18  2  0  0  0
 18 19  1  0  0  0
 18 20  1  0  0  0
 20 21  2  0  0  0
 20 22  1  0  0  0
 22 23  1  0  0  0
 22 24  2  0  0  0
 32 33  1  0  0  0
 33 34  1  0  0  0
 34 29  1  0  0  0
  6  1  1  0  0  0
 21 15  1  0  0  0
 13 14  1  0  0  0
 23 25  1  0  0  0
 23 26  1  0  0  0
M  END
> <minimizedAffinity>
-8.11088

> <CNNscore>
0.3700733483

> <CNNaffinity>
6.2874846458

> <CNN_VS>
2.3268303871

> <CNNaffinity_variance>
0.2100869715

$$$$
[H]c1c([H])c(C([H])([H])N2C([H])([H])C([H])([H])N(C([H])([H])[H])C([H])([H])C2([H])[H])c(C(F)(F)F)c([H])c1C(=O)N([H])c1c([H])c([H])c(C([H])([H])[H])c(C(=O)N([H])[H])c1[H]


 34 36  0  0  0  0  0  0  0  0999 V2000
   63.0819   -6.7967  -10.0471 C   0  0  0  0  0  0  0  0  0  0  0  0
   61.8953   -7.2363  -10.5689 C   0  0  0  0  0  0  0  0  0  0  0  0
   60.6641   -7.0345   -9.9493 C   0  0  0  0  0  0  0  0  0  0  0  0
   60.6052   -6.3589   -8.7454 C   0  0  0  0  0  0  0  0  0  0  0  0
   61.7846   -5.9205   -8.2245 C   0  0  0  0  0  0  0  0  0  0  0  0
   63.0212   -6.1123   -8.8276 C   0  0  0  0  0  0  0  0  0  0  0  0
   64.2441   -5.6097   -8.2017 C   0  0  0  0  0  0  0  0  0  0  0  0
   64.2911   -4.2345   -8.0566 F   0  0  0  0  0  0  0  0  0  0  0  0
   65.3959   -6.0965   -8.7977 F   0  0  0  0  0  0  0  0  0  0  0  0
   64.2930   -6.1017   -6.8888 F   0  0  0  0  0  0  0  0  0  0  0  0
   59.2963   -6.1508   -8.0804 C   0  0  0  0  0  0  0  0  0  0  0  0
   59.1430   -6.6527   -6.9648 O   0  0  0  0  0  0  0  0  0  0  0  0
   58.2789   -5.4077   -8.7118 N   0  0  0  0  0  0  0  0  0  0  0  0
   58.5080   -5.0141   -9.6949 H   0  0  0  0  0  0  0  0  0  0  0  0
   56.9976   -5.0983   -8.2512 C   0  0  0  0  0  0  0  0  0  0  0  0
   56.5848   -5.6432   -7.0396 C   0  0  0  0  0  0  0  0  0  0  0  0
   55.3296   -5.3762   -6.5571 C   0  0  0  0  0  0  0  0  0  0  0  0
   54.4135   -4.5638   -7.2330 C   0  0  0  0  0  0  0  0  0  0  0  0
   53.0848   -4.3307   -6.6309 C   0  0  0  0  0  0  0  0  0  0  0  0
   54.8424   -4.0375   -8.4265 C   0  0  0  0  0  0  0  0  0  0  0  0
   56.1361   -4.3077   -8.9322 C   0  0  0  0  0  0  0  0  0  0  0  0
   53.9635   -3.1855   -9.2065 C   0  0  0  0  0  0  0  0  0  0  0  0
   52.9796   -3.6803  -10.0757 N   0  0  0  0  0  0  0  0  0  0  0  0
   54.1096   -1.9144   -9.0817 O   0  0  0  0  0  0  0  0  0  0  0  0
   53.2140   -3.8772  -11.0711 H   0  0  0  0  0  0  0  0  0  0  0  0
   51.9995   -3.8535   -9.7697 H   0  0  0  0  0  0  0  0  0  0  0  0
   64.3353   -7.0177  -10.7509 C   0  0  0  0  0  0  0  0  0  0  0  0
   65.1536   -5.9159  -15.3592 C   0  0  0  0  0  0  0  0  0  0  0  0
   65.1305   -6.3272  -13.9676 N   0  0  0  0  0  0  0  0  0  0  0  0
   65.7080   -7.6497  -13.8577 C   0  0  0  0  0  0  0  0  0  0  0  0
   65.6084   -8.1983  -12.4523 C   0  0  0  0  0  0  0  0  0  0  0  0
   64.3600   -7.9320  -11.8279 N   0  0  0  0  0  0  0  0  0  0  0  0
   63.3966   -7.5175  -12.8228 C   0  0  0  0  0  0  0  0  0  0  0  0
   63.7799   -6.2429  -13.5082 C   0  0  0  0  0  0  0  0  0  0  0  0
 28 29  1  0  0  0
 29 30  1  0  0  0
 30 31  1  0  0  0
 31 32  1  0  0  0
 32 27  1  0  0  0
 27  1  1  0  0  0
  1  2  2  0  0  0
  2  3  1  0  0  0
  3  4  2  0  0  0
  4  5  1  0  0  0
  5  6  2  0  0  0
  6  7  1  0  0  0
  7  8  1  0  0  0
  7  9  1  0  0  0
  7 10  1  0  0  0
  4 11  1  0  0  0
 11 12  2  0  0  0
 11 13  1  0  0  0
 13 15  1  0  0  0
 15 16  2  0  0  0
 16 17  1  0  0  0
 17 18  2  0  0  0
 18 19  1  0  0  0
 18 20  1  0  0  0
 20 21  2  0  0  0
 20 22  1  0  0  0
 22 23  1  0  0  0
 22 24  2  0  0  0
 32 33  1  0  0  0
 33 34  1  0  0  0
 34 29  1  0  0  0
  6  1  1  0  0  0
 21 15  1  0  0  0
 13 14  1  0  0  0
 23 25  1  0  0  0
 23 26  1  0  0  0
M  END
> <minimizedAffinity>
-2.94281

> <CNNscore>
0.3301491439

> <CNNaffinity>
5.1970796585

> <CNN_VS>
1.7158113718

> <CNNaffinity_variance>
0.2745032310

$$$$
[H]c1c([H])c(C([H])([H])N2C([H])([H])C([H])([H])N(C([H])([H])[H])C([H])([H])C2([H])[H])c(C(F)(F)F)c([H])c1C(=O)N([H])c1c([H])c([H])c(C([H])([H])[H])c(C(=O)N([H])[H])c1[H]


 34 36  0  0  0  0  0  0  0  0999 V2000
   52.5384   -5.3527   -5.9484 C   0  0  0  0  0  0  0  0  0  0  0  0
   53.7660   -5.8191   -6.3344 C   0  0  0  0  0  0  0  0  0  0  0  0
   54.4225   -5.3881   -7.4849 C   0  0  0  0  0  0  0  0  0  0  0  0
   53.8296   -4.4415   -8.2985 C   0  0  0  0  0  0  0  0  0  0  0  0
   52.6083   -3.9758   -7.9162 C   0  0  0  0  0  0  0  0  0  0  0  0
   51.9388   -4.3936   -6.7730 C   0  0  0  0  0  0  0  0  0  0  0  0
   50.6267   -3.8437   -6.4321 C   0  0  0  0  0  0  0  0  0  0  0  0
   50.3433   -3.8329   -5.0780 F   0  0  0  0  0  0  0  0  0  0  0  0
   49.5959   -4.4130   -7.1616 F   0  0  0  0  0  0  0  0  0  0  0  0
   50.6140   -2.4908   -6.8029 F   0  0  0  0  0  0  0  0  0  0  0  0
   54.5233   -3.9879   -9.5280 C   0  0  0  0  0  0  0  0  0  0  0  0
   54.0401   -3.0247  -10.1270 O   0  0  0  0  0  0  0  0  0  0  0  0
   55.6862   -4.6427   -9.9809 N   0  0  0  0  0  0  0  0  0  0  0  0
   56.0277   -5.4838   -9.3895 H   0  0  0  0  0  0  0  0  0  0  0  0
   56.4769   -4.3639  -11.0973 C   0  0  0  0  0  0  0  0  0  0  0  0
   57.7935   -3.9661  -10.8883 C   0  0  0  0  0  0  0  0  0  0  0  0
   58.6005   -3.6695  -11.9561 C   0  0  0  0  0  0  0  0  0  0  0  0
   58.1634   -3.7462  -13.2824 C   0  0  0  0  0  0  0  0  0  0  0  0
   59.1085   -3.4107  -14.3670 C   0  0  0  0  0  0  0  0  0  0  0  0
   56.8608   -4.1405  -13.4645 C   0  0  0  0  0  0  0  0  0  0  0  0
   56.0205   -4.4484  -12.3685 C   0  0  0  0  0  0  0  0  0  0  0  0
   56.3104   -4.2460  -14.8035 C   0  0  0  0  0  0  0  0  0  0  0  0
   55.7215   -3.1695  -15.4837 N   0  0  0  0  0  0  0  0  0  0  0  0
   56.3748   -5.3934  -15.3797 O   0  0  0  0  0  0  0  0  0  0  0  0
   54.7023   -2.9819  -15.3803 H   0  0  0  0  0  0  0  0  0  0  0  0
   56.2644   -2.5406  -16.1113 H   0  0  0  0  0  0  0  0  0  0  0  0
   51.9111   -5.8240   -4.7239 C   0  0  0  0  0  0  0  0  0  0  0  0
   50.6845   -7.9683   -0.5986 C   0  0  0  0  0  0  0  0  0  0  0  0
   51.2079   -7.5007   -1.8689 N   0  0  0  0  0  0  0  0  0  0  0  0
   52.6529   -7.5735   -1.8386 C   0  0  0  0  0  0  0  0  0  0  0  0
   53.2778   -6.9878   -3.0846 C   0  0  0  0  0  0  0  0  0  0  0  0
   52.6523   -5.7889   -3.5214 N   0  0  0  0  0  0  0  0  0  0  0  0
   51.8167   -5.2630   -2.4655 C   0  0  0  0  0  0  0  0  0  0  0  0
   50.6970   -6.1854   -2.0958 C   0  0  0  0  0  0  0  0  0  0  0  0
 28 29  1  0  0  0
 29 30  1  0  0  0
 30 31  1  0  0  0
 31 32  1  0  0  0
 32 27  1  0  0  0
 27  1  1  0  0  0
  1  2  2  0  0  0
  2  3  1  0  0  0
  3  4  2  0  0  0
  4  5  1  0  0  0
  5  6  2  0  0  0
  6  7  1  0  0  0
  7  8  1  0  0  0
  7  9  1  0  0  0
  7 10  1  0  0  0
  4 11  1  0  0  0
 11 12  2  0  0  0
 11 13  1  0  0  0
 13 15  1  0  0  0
 15 16  2  0  0  0
 16 17  1  0  0  0
 17 18  2  0  0  0
 18 19  1  0  0  0
 18 20  1  0  0  0
 20 21  2  0  0  0
 20 22  1  0  0  0
 22 23  1  0  0  0
 22 24  2  0  0  0
 32 33  1  0  0  0
 33 34  1  0  0  0
 34 29  1  0  0  0
  6  1  1  0  0  0
 21 15  1  0  0  0
 13 14  1  0  0  0
 23 25  1  0  0  0
 23 26  1  0  0  0
M  END
> <minimizedAffinity>
-9.38398

> <CNNscore>
0.2882943749

> <CNNaffinity>
6.3130331039

> <CNN_VS>
1.8200119734

> <CNNaffinity_variance>
0.1099949032

$$$$
[H]c1c([H])c(C([H])([H])N2C([H])([H])C([H])([H])N(C([H])([H])[H])C([H])([H])C2([H])[H])c(C(F)(F)F)c([H])c1C(=O)N([H])c1c([H])c([H])c(C([H])([H])[H])c(C(=O)N([H])[H])c1[H]


 34 36  0  0  0  0  0  0  0  0999 V2000
   55.6124   -5.0336   -7.0386 C   0  0  0  0  0  0  0  0  0  0  0  0
   56.9533   -5.1211   -7.2991 C   0  0  0  0  0  0  0  0  0  0  0  0
   57.4958   -4.9946   -8.5757 C   0  0  0  0  0  0  0  0  0  0  0  0
   56.6632   -4.7683   -9.6550 C   0  0  0  0  0  0  0  0  0  0  0  0
   55.3287   -4.6806   -9.3982 C   0  0  0  0  0  0  0  0  0  0  0  0
   54.7697   -4.8041   -8.1325 C   0  0  0  0  0  0  0  0  0  0  0  0
   53.3234   -4.6977   -7.9404 C   0  0  0  0  0  0  0  0  0  0  0  0
   52.9367   -3.7562   -7.0033 F   0  0  0  0  0  0  0  0  0  0  0  0
   52.7172   -5.9217   -7.7098 F   0  0  0  0  0  0  0  0  0  0  0  0
   52.7584   -4.2469   -9.1428 F   0  0  0  0  0  0  0  0  0  0  0  0
   57.2384   -4.6419  -11.0158 C   0  0  0  0  0  0  0  0  0  0  0  0
   58.4432   -4.8704  -11.1437 O   0  0  0  0  0  0  0  0  0  0  0  0
   56.4276   -4.2736  -12.1081 N   0  0  0  0  0  0  0  0  0  0  0  0
   55.3826   -4.0863  -11.8918 H   0  0  0  0  0  0  0  0  0  0  0  0
   56.7767   -4.1113  -13.4502 C   0  0  0  0  0  0  0  0  0  0  0  0
   55.9023   -4.5907  -14.4201 C   0  0  0  0  0  0  0  0  0  0  0  0
   56.2126   -4.4642  -15.7495 C   0  0  0  0  0  0  0  0  0  0  0  0
   57.3925   -3.8632  -16.1996 C   0  0  0  0  0  0  0  0  0  0  0  0
   57.6371   -3.7692  -17.6535 C   0  0  0  0  0  0  0  0  0  0  0  0
   58.2404   -3.3979  -15.2250 C   0  0  0  0  0  0  0  0  0  0  0  0
   57.9284   -3.5243  -13.8506 C   0  0  0  0  0  0  0  0  0  0  0  0
   59.4935   -2.7627  -15.5899 C   0  0  0  0  0  0  0  0  0  0  0  0
   60.7498   -3.3422  -15.3571 N   0  0  0  0  0  0  0  0  0  0  0  0
   59.4286   -1.6094  -16.1542 O   0  0  0  0  0  0  0  0  0  0  0  0
   61.2455   -3.1693  -14.4575 H   0  0  0  0  0  0  0  0  0  0  0  0
   61.2279   -3.9418  -16.0613 H   0  0  0  0  0  0  0  0  0  0  0  0
   55.1055   -5.1519   -5.6806 C   0  0  0  0  0  0  0  0  0  0  0  0
   53.2412   -7.4274   -1.8770 C   0  0  0  0  0  0  0  0  0  0  0  0
   53.8087   -6.9551   -3.1265 N   0  0  0  0  0  0  0  0  0  0  0  0
   54.8891   -7.8358   -3.5159 C   0  0  0  0  0  0  0  0  0  0  0  0
   55.6113   -7.3391   -4.7478 C   0  0  0  0  0  0  0  0  0  0  0  0
   55.8259   -5.9343   -4.7502 N   0  0  0  0  0  0  0  0  0  0  0  0
   55.6112   -5.4067   -3.4216 C   0  0  0  0  0  0  0  0  0  0  0  0
   54.2059   -5.5949   -2.9408 C   0  0  0  0  0  0  0  0  0  0  0  0
 28 29  1  0  0  0
 29 30  1  0  0  0
 30 31  1  0  0  0
 31 32  1  0  0  0
 32 27  1  0  0  0
 27  1  1  0  0  0
  1  2  2  0  0  0
  2  3  1  0  0  0
  3  4  2  0  0  0
  4  5  1  0  0  0
  5  6  2  0  0  0
  6  7  1  0  0  0
  7  8  1  0  0  0
  7  9  1  0  0  0
  7 10  1  0  0  0
  4 11  1  0  0  0
 11 12  2  0  0  0
 11 13  1  0  0  0
 13 15  1  0  0  0
 15 16  2  0  0  0
 16 17  1  0  0  0
 17 18  2  0  0  0
 18 19  1  0  0  0
 18 20  1  0  0  0
 20 21  2  0  0  0
 20 22  1  0  0  0
 22 23  1  0  0  0
 22 24  2  0  0  0
 32 33  1  0  0  0
 33 34  1  0  0  0
 34 29  1  0  0  0
  6  1  1  0  0  0
 21 15  1  0  0  0
 13 14  1  0  0  0
 23 25  1  0  0  0
 23 26  1  0  0  0
M  END
> <minimizedAffinity>
-8.52013

> <CNNscore>
0.2736811936

> <CNNaffinity>
5.9385666847

> <CNN_VS>
1.6252740622

> <CNNaffinity_variance>
0.1110911816

$$$$
[H]c1c([H])c(C([H])([H])N2C([H])([H])C([H])([H])N(C([H])([H])[H])C([H])([H])C2([H])[H])c(C(F)(F)F)c([H])c1C(=O)N([H])c1c([H])c([H])c(C([H])([H])[H])c(C(=O)N([H])[H])c1[H]


 34 36  0  0  0  0  0  0  0  0999 V2000
   56.0458   -4.6707   -8.2971 C   0  0  0  0  0  0  0  0  0  0  0  0
   57.3039   -5.1100   -8.6099 C   0  0  0  0  0  0  0  0  0  0  0  0
   57.8424   -5.0425   -9.8927 C   0  0  0  0  0  0  0  0  0  0  0  0
   57.0924   -4.5095  -10.9237 C   0  0  0  0  0  0  0  0  0  0  0  0
   55.8405   -4.0715  -10.6148 C   0  0  0  0  0  0  0  0  0  0  0  0
   55.2870   -4.1306   -9.3421 C   0  0  0  0  0  0  0  0  0  0  0  0
   53.9322   -3.6385   -9.0925 C   0  0  0  0  0  0  0  0  0  0  0  0
   53.8701   -2.5049   -8.3017 F   0  0  0  0  0  0  0  0  0  0  0  0
   53.0747   -4.6248   -8.6335 F   0  0  0  0  0  0  0  0  0  0  0  0
   53.3831   -3.2389  -10.3201 F   0  0  0  0  0  0  0  0  0  0  0  0
   57.6610   -4.4447  -12.2916 C   0  0  0  0  0  0  0  0  0  0  0  0
   57.1423   -5.1573  -13.1537 O   0  0  0  0  0  0  0  0  0  0  0  0
   58.7509   -3.5985  -12.5782 N   0  0  0  0  0  0  0  0  0  0  0  0
   59.1414   -3.0176  -11.7511 H   0  0  0  0  0  0  0  0  0  0  0  0
   59.4138   -3.3941  -13.7899 C   0  0  0  0  0  0  0  0  0  0  0  0
   58.6504   -3.2933  -14.9485 C   0  0  0  0  0  0  0  0  0  0  0  0
   59.2617   -3.1061  -16.1613 C   0  0  0  0  0  0  0  0  0  0  0  0
   60.6494   -3.0079  -16.3047 C   0  0  0  0  0  0  0  0  0  0  0  0
   61.2157   -2.8020  -17.6535 C   0  0  0  0  0  0  0  0  0  0  0  0
   61.3825   -3.1106  -15.1482 C   0  0  0  0  0  0  0  0  0  0  0  0
   60.7601   -3.3040  -13.8922 C   0  0  0  0  0  0  0  0  0  0  0  0
   62.8309   -3.0267  -15.1921 C   0  0  0  0  0  0  0  0  0  0  0  0
   63.6650   -4.1438  -15.3493 N   0  0  0  0  0  0  0  0  0  0  0  0
   63.3585   -1.8599  -15.0789 O   0  0  0  0  0  0  0  0  0  0  0  0
   63.9986   -4.6676  -14.5133 H   0  0  0  0  0  0  0  0  0  0  0  0
   63.9840   -4.4761  -16.2832 H   0  0  0  0  0  0  0  0  0  0  0  0
   55.5451   -4.7467   -6.9339 C   0  0  0  0  0  0  0  0  0  0  0  0
   54.5346   -5.7027   -2.3311 C   0  0  0  0  0  0  0  0  0  0  0  0
   54.6045   -5.4197   -3.7528 N   0  0  0  0  0  0  0  0  0  0  0  0
   53.7298   -6.3316   -4.4582 C   0  0  0  0  0  0  0  0  0  0  0  0
   53.8404   -6.1792   -5.9584 C   0  0  0  0  0  0  0  0  0  0  0  0
   55.1758   -6.0072   -6.4128 N   0  0  0  0  0  0  0  0  0  0  0  0
   56.0987   -6.3739   -5.3624 C   0  0  0  0  0  0  0  0  0  0  0  0
   55.9748   -5.5049   -4.1496 C   0  0  0  0  0  0  0  0  0  0  0  0
 28 29  1  0  0  0
 29 30  1  0  0  0
 30 31  1  0  0  0
 31 32  1  0  0  0
 32 27  1  0  0  0
 27  1  1  0  0  0
  1  2  2  0  0  0
  2  3  1  0  0  0
  3  4  2  0  0  0
  4  5  1  0  0  0
  5  6  2  0  0  0
  6  7  1  0  0  0
  7  8  1  0  0  0
  7  9  1  0  0  0
  7 10  1  0  0  0
  4 11  1  0  0  0
 11 12  2  0  0  0
 11 13  1  0  0  0
 13 15  1  0  0  0
 15 16  2  0  0  0
 16 17  1  0  0  0
 17 18  2  0  0  0
 18 19  1  0  0  0
 18 20  1  0  0  0
 20 21  2  0  0  0
 20 22  1  0  0  0
 22 23  1  0  0  0
 22 24  2  0  0  0
 32 33  1  0  0  0
 33 34  1  0  0  0
 34 29  1  0  0  0
  6  1  1  0  0  0
 21 15  1  0  0  0
 13 14  1  0  0  0
 23 25  1  0  0  0
 23 26  1  0  0  0
M  END
> <minimizedAffinity>
-8.57393

> <CNNscore>
0.2662400901

> <CNNaffinity>
5.5129528046

> <CNN_VS>
1.4677690268

> <CNNaffinity_variance>
0.1304890513

$$$$
[H]c1c([H])c(C([H])([H])N2C([H])([H])C([H])([H])N(C([H])([H])[H])C([H])([H])C2([H])[H])c(C(F)(F)F)c([H])c1C(=O)N([H])c1c([H])c([H])c(C([H])([H])[H])c(C(=O)N([H])[H])c1[H]


 34 36  0  0  0  0  0  0  0  0999 V2000
   58.6240   -5.4401   -9.5593 C   0  0  0  0  0  0  0  0  0  0  0  0
   58.2609   -5.7774   -8.2834 C   0  0  0  0  0  0  0  0  0  0  0  0
   57.0373   -5.4279   -7.7170 C   0  0  0  0  0  0  0  0  0  0  0  0
   56.1216   -4.7039   -8.4564 C   0  0  0  0  0  0  0  0  0  0  0  0
   56.4805   -4.3674   -9.7263 C   0  0  0  0  0  0  0  0  0  0  0  0
   57.6957   -4.7069  -10.3076 C   0  0  0  0  0  0  0  0  0  0  0  0
   58.0057   -4.3060  -11.6799 C   0  0  0  0  0  0  0  0  0  0  0  0
   59.3420   -4.4152  -12.0216 F   0  0  0  0  0  0  0  0  0  0  0  0
   57.4990   -3.0588  -12.0063 F   0  0  0  0  0  0  0  0  0  0  0  0
   57.3491   -5.1904  -12.5488 F   0  0  0  0  0  0  0  0  0  0  0  0
   54.8220   -4.3238   -7.8521 C   0  0  0  0  0  0  0  0  0  0  0  0
   54.3636   -3.2178   -8.1466 O   0  0  0  0  0  0  0  0  0  0  0  0
   54.1511   -5.2020   -6.9776 N   0  0  0  0  0  0  0  0  0  0  0  0
   54.6394   -6.1477   -6.7751 H   0  0  0  0  0  0  0  0  0  0  0  0
   52.9301   -5.0315   -6.3221 C   0  0  0  0  0  0  0  0  0  0  0  0
   52.6979   -5.7644   -5.1628 C   0  0  0  0  0  0  0  0  0  0  0  0
   51.5071   -5.6375   -4.4953 C   0  0  0  0  0  0  0  0  0  0  0  0
   50.4824   -4.7887   -4.9258 C   0  0  0  0  0  0  0  0  0  0  0  0
   49.2355   -4.7163   -4.1369 C   0  0  0  0  0  0  0  0  0  0  0  0
   50.7335   -4.0757   -6.0721 C   0  0  0  0  0  0  0  0  0  0  0  0
   51.9595   -4.2004   -6.7676 C   0  0  0  0  0  0  0  0  0  0  0  0
   49.7306   -3.1710   -6.6036 C   0  0  0  0  0  0  0  0  0  0  0  0
   49.2572   -3.2315   -7.9229 N   0  0  0  0  0  0  0  0  0  0  0  0
   49.2642   -2.2741   -5.8094 O   0  0  0  0  0  0  0  0  0  0  0  0
   49.7382   -2.6950   -8.6749 H   0  0  0  0  0  0  0  0  0  0  0  0
   48.4211   -3.7909   -8.1916 H   0  0  0  0  0  0  0  0  0  0  0  0
   59.9076   -5.8523  -10.1048 C   0  0  0  0  0  0  0  0  0  0  0  0
   64.6249   -6.5568  -10.7142 C   0  0  0  0  0  0  0  0  0  0  0  0
   63.2646   -6.2132  -10.3427 N   0  0  0  0  0  0  0  0  0  0  0  0
   63.1056   -6.3954   -8.9159 C   0  0  0  0  0  0  0  0  0  0  0  0
   61.6780   -6.1735   -8.4702 C   0  0  0  0  0  0  0  0  0  0  0  0
   60.7159   -6.7343   -9.3529 N   0  0  0  0  0  0  0  0  0  0  0  0
   61.3625   -7.6649  -10.2504 C   0  0  0  0  0  0  0  0  0  0  0  0
   62.3801   -7.0108  -11.1326 C   0  0  0  0  0  0  0  0  0  0  0  0
 28 29  1  0  0  0
 29 30  1  0  0  0
 30 31  1  0  0  0
 31 32  1  0  0  0
 32 27  1  0  0  0
 27  1  1  0  0  0
  1  2  2  0  0  0
  2  3  1  0  0  0
  3  4  2  0  0  0
  4  5  1  0  0  0
  5  6  2  0  0  0
  6  7  1  0  0  0
  7  8  1  0  0  0
  7  9  1  0  0  0
  7 10  1  0  0  0
  4 11  1  0  0  0
 11 12  2  0  0  0
 11 13  1  0  0  0
 13 15  1  0  0  0
 15 16  2  0  0  0
 16 17  1  0  0  0
 17 18  2  0  0  0
 18 19  1  0  0  0
 18 20  1  0  0  0
 20 21  2  0  0  0
 20 22  1  0  0  0
 22 23  1  0  0  0
 22 24  2  0  0  0
 32 33  1  0  0  0
 33 34  1  0  0  0
 34 29  1  0  0  0
  6  1  1  0  0  0
 21 15  1  0  0  0
 13 14  1  0  0  0
 23 25  1  0  0  0
 23 26  1  0  0  0
M  END
> <minimizedAffinity>
-9.49678

> <CNNscore>
0.2584803104

> <CNNaffinity>
5.9718155861

> <CNN_VS>
1.5435967445

> <CNNaffinity_variance>
0.1167693511

$$$$
[H]c1c([H])c(C([H])([H])N2C([H])([H])C([H])([H])N(C([H])([H])[H])C([H])([H])C2([H])[H])c(C(F)(F)F)c([H])c1C(=O)N([H])c1c([H])c([H])c(C([H])([H])[H])c(C(=O)N([H])[H])c1[H]


 34 36  0  0  0  0  0  0  0  0999 V2000
   54.4291   -5.9332   -5.7030 C   0  0  0  0  0  0  0  0  0  0  0  0
   55.7289   -5.8974   -6.1307 C   0  0  0  0  0  0  0  0  0  0  0  0
   56.1265   -5.3006   -7.3249 C   0  0  0  0  0  0  0  0  0  0  0  0
   55.1835   -4.7055   -8.1410 C   0  0  0  0  0  0  0  0  0  0  0  0
   53.8898   -4.7398   -7.7174 C   0  0  0  0  0  0  0  0  0  0  0  0
   53.4747   -5.3300   -6.5303 C   0  0  0  0  0  0  0  0  0  0  0  0
   52.0630   -5.3248   -6.1466 C   0  0  0  0  0  0  0  0  0  0  0  0
   51.8152   -4.8325   -4.8775 F   0  0  0  0  0  0  0  0  0  0  0  0
   51.4440   -6.5479   -6.3461 F   0  0  0  0  0  0  0  0  0  0  0  0
   51.3844   -4.4439   -7.0021 F   0  0  0  0  0  0  0  0  0  0  0  0
   55.6041   -4.0773   -9.4166 C   0  0  0  0  0  0  0  0  0  0  0  0
   55.2535   -2.9121   -9.6153 O   0  0  0  0  0  0  0  0  0  0  0  0
   56.3723   -4.7967  -10.3538 N   0  0  0  0  0  0  0  0  0  0  0  0
   56.6232   -5.8173  -10.0903 H   0  0  0  0  0  0  0  0  0  0  0  0
   56.8662   -4.3830  -11.5925 C   0  0  0  0  0  0  0  0  0  0  0  0
   55.9617   -4.1990  -12.6332 C   0  0  0  0  0  0  0  0  0  0  0  0
   56.4057   -3.8064  -13.8695 C   0  0  0  0  0  0  0  0  0  0  0  0
   57.7554   -3.5735  -14.1526 C   0  0  0  0  0  0  0  0  0  0  0  0
   58.1369   -3.1488  -15.5151 C   0  0  0  0  0  0  0  0  0  0  0  0
   58.6297   -3.7617  -13.1107 C   0  0  0  0  0  0  0  0  0  0  0  0
   58.1805   -4.1669  -11.8315 C   0  0  0  0  0  0  0  0  0  0  0  0
   60.0526   -3.5506  -13.3046 C   0  0  0  0  0  0  0  0  0  0  0  0
   60.6336   -2.2810  -13.4420 N   0  0  0  0  0  0  0  0  0  0  0  0
   60.8034   -4.5932  -13.3507 O   0  0  0  0  0  0  0  0  0  0  0  0
   60.7238   -1.8478  -14.3848 H   0  0  0  0  0  0  0  0  0  0  0  0
   60.9984   -1.7423  -12.6290 H   0  0  0  0  0  0  0  0  0  0  0  0
   54.0764   -6.5519   -4.4350 C   0  0  0  0  0  0  0  0  0  0  0  0
   57.3190   -7.3525   -0.9759 C   0  0  0  0  0  0  0  0  0  0  0  0
   56.4828   -6.9326   -2.0852 N   0  0  0  0  0  0  0  0  0  0  0  0
   56.3383   -5.4931   -2.0477 C   0  0  0  0  0  0  0  0  0  0  0  0
   55.3792   -4.9905   -3.1030 C   0  0  0  0  0  0  0  0  0  0  0  0
   54.2207   -5.8007   -3.2469 N   0  0  0  0  0  0  0  0  0  0  0  0
   54.1011   -6.6856   -2.1101 C   0  0  0  0  0  0  0  0  0  0  0  0
   55.2461   -7.6433   -1.9952 C   0  0  0  0  0  0  0  0  0  0  0  0
 28 29  1  0  0  0
 29 30  1  0  0  0
 30 31  1  0  0  0
 31 32  1  0  0  0
 32 27  1  0  0  0
 27  1  1  0  0  0
  1  2  2  0  0  0
  2  3  1  0  0  0
  3  4  2  0  0  0
  4  5  1  0  0  0
  5  6  2  0  0  0
  6  7  1  0  0  0
  7  8  1  0  0  0
  7  9  1  0  0  0
  7 10  1  0  0  0
  4 11  1  0  0  0
 11 12  2  0  0  0
 11 13  1  0  0  0
 13 15  1  0  0  0
 15 16  2  0  0  0
 16 17  1  0  0  0
 17 18  2  0  0  0
 18 19  1  0  0  0
 18 20  1  0  0  0
 20 21  2  0  0  0
 20 22  1  0  0  0
 22 23  1  0  0  0
 22 24  2  0  0  0
 32 33  1  0  0  0
 33 34  1  0  0  0
 34 29  1  0  0  0
  6  1  1  0  0  0
 21 15  1  0  0  0
 13 14  1  0  0  0
 23 25  1  0  0  0
 23 26  1  0  0  0
M  END
> <minimizedAffinity>
-8.38530

> <CNNscore>
0.2427060604

> <CNNaffinity>
6.1268706322

> <CNN_VS>
1.4870285988

> <CNNaffinity_variance>
0.0573351309

$$$$
[H]c1c([H])c([H])c(-c2c([H])c([H])c([H])c([H])c2N([H])S(=O)(=O)c2c([H])c([H])c(Cl)c([H])c2[H])c([H])c1[H]


 24 26  0  0  0  0  0  0  0  0999 V2000
   53.8585   -4.6835   -8.7230 N   0  0  0  0  0  0  0  0  0  0  0  0
   53.6990   -5.3199   -9.5224 H   0  0  0  0  0  0  0  0  0  0  0  0
   54.7464   -5.0439   -7.6970 C   0  0  0  0  0  0  0  0  0  0  0  0
   54.3047   -5.3189   -6.3952 C   0  0  0  0  0  0  0  0  0  0  0  0
   55.2036   -5.6979   -5.4087 C   0  0  0  0  0  0  0  0  0  0  0  0
   56.5493   -5.8168   -5.6677 C   0  0  0  0  0  0  0  0  0  0  0  0
   56.9748   -5.5454   -6.9422 C   0  0  0  0  0  0  0  0  0  0  0  0
   56.0922   -5.1565   -7.9737 C   0  0  0  0  0  0  0  0  0  0  0  0
   56.6452   -4.8519   -9.2775 C   0  0  0  0  0  0  0  0  0  0  0  0
   55.9832   -4.1383  -10.2340 C   0  0  0  0  0  0  0  0  0  0  0  0
   56.5685   -3.8830  -11.4794 C   0  0  0  0  0  0  0  0  0  0  0  0
   57.8312   -4.3401  -11.7871 C   0  0  0  0  0  0  0  0  0  0  0  0
   58.5033   -5.0609  -10.8238 C   0  0  0  0  0  0  0  0  0  0  0  0
   57.9265   -5.3125   -9.5967 C   0  0  0  0  0  0  0  0  0  0  0  0
   53.0084   -3.2050   -8.7225 S   0  0  0  0  0  0  0  0  0  0  0  0
   52.4313   -2.9728  -10.1286 O   0  0  0  0  0  0  0  0  0  0  0  0
   53.9547   -2.0736   -8.4557 O   0  0  0  0  0  0  0  0  0  0  0  0
   48.0614   -2.8815   -4.8503 Cl  0  0  0  0  0  0  0  0  0  0  0  0
   49.4482   -2.9940   -5.9137 C   0  0  0  0  0  0  0  0  0  0  0  0
   50.3138   -4.0581   -5.8400 C   0  0  0  0  0  0  0  0  0  0  0  0
   51.4128   -4.1421   -6.6863 C   0  0  0  0  0  0  0  0  0  0  0  0
   51.6633   -3.1638   -7.6193 C   0  0  0  0  0  0  0  0  0  0  0  0
   50.7919   -2.1036   -7.6857 C   0  0  0  0  0  0  0  0  0  0  0  0
   49.6860   -2.0142   -6.8374 C   0  0  0  0  0  0  0  0  0  0  0  0
 18 19  1  0  0  0
 19 20  2  0  0  0
 20 21  1  0  0  0
 21 22  2  0  0  0
 22 23  1  0  0  0
 23 24  2  0  0  0
 22 15  1  0  0  0
 15 16  2  0  0  0
 15 17  2  0  0  0
 15  1  1  0  0  0
  1  3  1  0  0  0
  3  4  2  0  0  0
  4  5  1  0  0  0
  5  6  2  0  0  0
  6  7  1  0  0  0
  7  8  2  0  0  0
  8  9  1  0  0  0
  9 10  2  0  0  0
 10 11  1  0  0  0
 11 12  2  0  0  0
 12 13  1  0  0  0
 13 14  2  0  0  0
 24 19  1  0  0  0
  8  3  1  0  0  0
 14  9  1  0  0  0
  1  2  1  0  0  0
M  END
> <minimizedAffinity>
-9.83424

> <CNNscore>
0.5914081335

> <CNNaffinity>
6.0670847893

> <CNN_VS>
3.5881233215

> <CNNaffinity_variance>
0.1519836485

$$$$
[H]c1c([H])c([H])c(-c2c([H])c([H])c([H])c([H])c2N([H])S(=O)(=O)c2c([H])c([H])c(Cl)c([H])c2[H])c([H])c1[H]


 24 26  0  0  0  0  0  0  0  0999 V2000
   54.5354   -3.3203   -8.0463 N   0  0  0  0  0  0  0  0  0  0  0  0
   54.5858   -2.5596   -7.3477 H   0  0  0  0  0  0  0  0  0  0  0  0
   55.6983   -4.0055   -8.4325 C   0  0  0  0  0  0  0  0  0  0  0  0
   56.2968   -3.8057   -9.6845 C   0  0  0  0  0  0  0  0  0  0  0  0
   57.4606   -4.4785  -10.0274 C   0  0  0  0  0  0  0  0  0  0  0  0
   58.0656   -5.3588   -9.1607 C   0  0  0  0  0  0  0  0  0  0  0  0
   57.4749   -5.5505   -7.9387 C   0  0  0  0  0  0  0  0  0  0  0  0
   56.2904   -4.8856   -7.5521 C   0  0  0  0  0  0  0  0  0  0  0  0
   55.7214   -5.1870   -6.2546 C   0  0  0  0  0  0  0  0  0  0  0  0
   56.1362   -4.6065   -5.0913 C   0  0  0  0  0  0  0  0  0  0  0  0
   55.5514   -4.9457   -3.8658 C   0  0  0  0  0  0  0  0  0  0  0  0
   54.5377   -5.8752   -3.7863 C   0  0  0  0  0  0  0  0  0  0  0  0
   54.1155   -6.4636   -4.9589 C   0  0  0  0  0  0  0  0  0  0  0  0
   54.6918   -6.1294   -6.1663 C   0  0  0  0  0  0  0  0  0  0  0  0
   52.9979   -3.6920   -8.6839 S   0  0  0  0  0  0  0  0  0  0  0  0
   52.9872   -5.1715   -9.1025 O   0  0  0  0  0  0  0  0  0  0  0  0
   52.7563   -2.8929   -9.9289 O   0  0  0  0  0  0  0  0  0  0  0  0
   48.2033   -2.7813   -4.7147 Cl  0  0  0  0  0  0  0  0  0  0  0  0
   49.5473   -3.0561   -5.8033 C   0  0  0  0  0  0  0  0  0  0  0  0
   50.3721   -4.1440   -5.6511 C   0  0  0  0  0  0  0  0  0  0  0  0
   51.4373   -4.3570   -6.5178 C   0  0  0  0  0  0  0  0  0  0  0  0
   51.6941   -3.4860   -7.5501 C   0  0  0  0  0  0  0  0  0  0  0  0
   50.8637   -2.4010   -7.6945 C   0  0  0  0  0  0  0  0  0  0  0  0
   49.7919   -2.1821   -6.8261 C   0  0  0  0  0  0  0  0  0  0  0  0
 18 19  1  0  0  0
 19 20  2  0  0  0
 20 21  1  0  0  0
 21 22  2  0  0  0
 22 23  1  0  0  0
 23 24  2  0  0  0
 22 15  1  0  0  0
 15 16  2  0  0  0
 15 17  2  0  0  0
 15  1  1  0  0  0
  1  3  1  0  0  0
  3  4  2  0  0  0
  4  5  1  0  0  0
  5  6  2  0  0  0
  6  7  1  0  0  0
  7  8  2  0  0  0
  8  9  1  0  0  0
  9 10  2  0  0  0
 10 11  1  0  0  0
 11 12  2  0  0  0
 12 13  1  0  0  0
 13 14  2  0  0  0
 24 19  1  0  0  0
  8  3  1  0  0  0
 14  9  1  0  0  0
  1  2  1  0  0  0
M  END
> <minimizedAffinity>
-9.37622

> <CNNscore>
0.5843034387

> <CNNaffinity>
6.2550635338

> <CNN_VS>
3.6548550129

> <CNNaffinity_variance>
0.1393675655

$$$$
[H]c1c([H])c([H])c(-c2c([H])c([H])c([H])c([H])c2N([H])S(=O)(=O)c2c([H])c([H])c(Cl)c([H])c2[H])c([H])c1[H]


 24 26  0  0  0  0  0  0  0  0999 V2000
   54.1880   -4.3051   -6.9705 N   0  0  0  0  0  0  0  0  0  0  0  0
   54.1393   -3.9365   -6.0055 H   0  0  0  0  0  0  0  0  0  0  0  0
   55.4282   -4.6276   -7.5438 C   0  0  0  0  0  0  0  0  0  0  0  0
   55.7984   -4.1731   -8.8174 C   0  0  0  0  0  0  0  0  0  0  0  0
   57.0418   -4.4871   -9.3465 C   0  0  0  0  0  0  0  0  0  0  0  0
   57.9499   -5.2491   -8.6488 C   0  0  0  0  0  0  0  0  0  0  0  0
   57.5815   -5.6912   -7.4046 C   0  0  0  0  0  0  0  0  0  0  0  0
   56.3256   -5.3939   -6.8312 C   0  0  0  0  0  0  0  0  0  0  0  0
   56.0148   -5.9422   -5.5269 C   0  0  0  0  0  0  0  0  0  0  0  0
   56.1681   -5.2536   -4.3588 C   0  0  0  0  0  0  0  0  0  0  0  0
   55.8575   -5.8416   -3.1272 C   0  0  0  0  0  0  0  0  0  0  0  0
   55.3862   -7.1337   -3.0466 C   0  0  0  0  0  0  0  0  0  0  0  0
   55.2297   -7.8325   -4.2240 C   0  0  0  0  0  0  0  0  0  0  0  0
   55.5358   -7.2531   -5.4374 C   0  0  0  0  0  0  0  0  0  0  0  0
   52.7136   -4.5004   -7.8052 S   0  0  0  0  0  0  0  0  0  0  0  0
   52.4784   -6.0022   -8.0364 O   0  0  0  0  0  0  0  0  0  0  0  0
   52.8084   -3.8679   -9.1609 O   0  0  0  0  0  0  0  0  0  0  0  0
   47.7471   -2.5002   -4.5029 Cl  0  0  0  0  0  0  0  0  0  0  0  0
   49.1237   -3.0380   -5.4425 C   0  0  0  0  0  0  0  0  0  0  0  0
   49.5171   -2.3645   -6.5732 C   0  0  0  0  0  0  0  0  0  0  0  0
   50.6102   -2.7959   -7.3150 C   0  0  0  0  0  0  0  0  0  0  0  0
   51.3267   -3.9071   -6.9379 C   0  0  0  0  0  0  0  0  0  0  0  0
   50.9257   -4.5740   -5.8056 C   0  0  0  0  0  0  0  0  0  0  0  0
   49.8279   -4.1448   -5.0565 C   0  0  0  0  0  0  0  0  0  0  0  0
 18 19  1  0  0  0
 19 20  2  0  0  0
 20 21  1  0  0  0
 21 22  2  0  0  0
 22 23  1  0  0  0
 23 24  2  0  0  0
 22 15  1  0  0  0
 15 16  2  0  0  0
 15 17  2  0  0  0
 15  1  1  0  0  0
  1  3  1  0  0  0
  3  4  2  0  0  0
  4  5  1  0  0  0
  5  6  2  0  0  0
  6  7  1  0  0  0
  7  8  2  0  0  0
  8  9  1  0  0  0
  9 10  2  0  0  0
 10 11  1  0  0  0
 11 12  2  0  0  0
 12 13  1  0  0  0
 13 14  2  0  0  0
 24 19  1  0  0  0
  8  3  1  0  0  0
 14  9  1  0  0  0
  1  2  1  0  0  0
M  END
> <minimizedAffinity>
-8.90046

> <CNNscore>
0.3887150586

> <CNNaffinity>
5.9721808434

> <CNN_VS>
2.3214766979

> <CNNaffinity_variance>
0.1320338249

$$$$
[H]c1c([H])c([H])c(-c2c([H])c([H])c([H])c([H])c2N([H])S(=O)(=O)c2c([H])c([H])c(Cl)c([H])c2[H])c([H])c1[H]


 24 26  0  0  0  0  0  0  0  0999 V2000
   52.7783   -4.4051   -7.8785 N   0  0  0  0  0  0  0  0  0  0  0  0
   53.0696   -5.3830   -7.7110 H   0  0  0  0  0  0  0  0  0  0  0  0
   51.6378   -3.8872   -7.2445 C   0  0  0  0  0  0  0  0  0  0  0  0
   50.8040   -2.9478   -7.8673 C   0  0  0  0  0  0  0  0  0  0  0  0
   49.6692   -2.4739   -7.2250 C   0  0  0  0  0  0  0  0  0  0  0  0
   49.3226   -2.9031   -5.9650 C   0  0  0  0  0  0  0  0  0  0  0  0
   50.1425   -3.8208   -5.3612 C   0  0  0  0  0  0  0  0  0  0  0  0
   51.3062   -4.3271   -5.9809 C   0  0  0  0  0  0  0  0  0  0  0  0
   52.1296   -5.2634   -5.2434 C   0  0  0  0  0  0  0  0  0  0  0  0
   53.3445   -5.7092   -5.6766 C   0  0  0  0  0  0  0  0  0  0  0  0
   54.0905   -6.6215   -4.9215 C   0  0  0  0  0  0  0  0  0  0  0  0
   53.6294   -7.1030   -3.7160 C   0  0  0  0  0  0  0  0  0  0  0  0
   52.4030   -6.6550   -3.2747 C   0  0  0  0  0  0  0  0  0  0  0  0
   51.6680   -5.7562   -4.0187 C   0  0  0  0  0  0  0  0  0  0  0  0
   53.7398   -3.4763   -8.9376 S   0  0  0  0  0  0  0  0  0  0  0  0
   53.8981   -2.0667   -8.3443 O   0  0  0  0  0  0  0  0  0  0  0  0
   53.0369   -3.3116  -10.2512 O   0  0  0  0  0  0  0  0  0  0  0  0
   59.5468   -5.8158   -9.5511 Cl  0  0  0  0  0  0  0  0  0  0  0  0
   57.9309   -5.1564   -9.4076 C   0  0  0  0  0  0  0  0  0  0  0  0
   57.2499   -4.7021  -10.5107 C   0  0  0  0  0  0  0  0  0  0  0  0
   55.9677   -4.1796  -10.3908 C   0  0  0  0  0  0  0  0  0  0  0  0
   55.3467   -4.1034   -9.1665 C   0  0  0  0  0  0  0  0  0  0  0  0
   56.0357   -4.5604   -8.0691 C   0  0  0  0  0  0  0  0  0  0  0  0
   57.3244   -5.0862   -8.1840 C   0  0  0  0  0  0  0  0  0  0  0  0
 18 19  1  0  0  0
 19 20  2  0  0  0
 20 21  1  0  0  0
 21 22  2  0  0  0
 22 23  1  0  0  0
 23 24  2  0  0  0
 22 15  1  0  0  0
 15 16  2  0  0  0
 15 17  2  0  0  0
 15  1  1  0  0  0
  1  3  1  0  0  0
  3  4  2  0  0  0
  4  5  1  0  0  0
  5  6  2  0  0  0
  6  7  1  0  0  0
  7  8  2  0  0  0
  8  9  1  0  0  0
  9 10  2  0  0  0
 10 11  1  0  0  0
 11 12  2  0  0  0
 12 13  1  0  0  0
 13 14  2  0  0  0
 24 19  1  0  0  0
  8  3  1  0  0  0
 14  9  1  0  0  0
  1  2  1  0  0  0
M  END
> <minimizedAffinity>
-10.00018

> <CNNscore>
0.3330133855

> <CNNaffinity>
5.7658205032

> <CNN_VS>
1.9200954437

> <CNNaffinity_variance>
0.3469583392

$$$$
[H]c1c([H])c([H])c(-c2c([H])c([H])c([H])c([H])c2N([H])S(=O)(=O)c2c([H])c([H])c(Cl)c([H])c2[H])c([H])c1[H]


 24 26  0  0  0  0  0  0  0  0999 V2000
   52.7697   -4.0248   -7.4570 N   0  0  0  0  0  0  0  0  0  0  0  0
   52.7235   -3.5132   -6.5596 H   0  0  0  0  0  0  0  0  0  0  0  0
   52.1169   -5.2591   -7.6030 C   0  0  0  0  0  0  0  0  0  0  0  0
   52.6965   -6.3278   -8.3014 C   0  0  0  0  0  0  0  0  0  0  0  0
   52.0377   -7.5442   -8.4065 C   0  0  0  0  0  0  0  0  0  0  0  0
   50.8028   -7.7461   -7.8354 C   0  0  0  0  0  0  0  0  0  0  0  0
   50.2410   -6.6970   -7.1549 C   0  0  0  0  0  0  0  0  0  0  0  0
   50.8788   -5.4436   -7.0258 C   0  0  0  0  0  0  0  0  0  0  0  0
   50.1846   -4.3849   -6.3217 C   0  0  0  0  0  0  0  0  0  0  0  0
   49.7822   -3.2207   -6.9091 C   0  0  0  0  0  0  0  0  0  0  0  0
   49.1215   -2.2306   -6.1728 C   0  0  0  0  0  0  0  0  0  0  0  0
   48.8523   -2.3922   -4.8315 C   0  0  0  0  0  0  0  0  0  0  0  0
   49.2566   -3.5667   -4.2345 C   0  0  0  0  0  0  0  0  0  0  0  0
   49.9077   -4.5421   -4.9599 C   0  0  0  0  0  0  0  0  0  0  0  0
   53.6565   -3.3014   -8.7216 S   0  0  0  0  0  0  0  0  0  0  0  0
   53.8616   -1.8150   -8.3861 O   0  0  0  0  0  0  0  0  0  0  0  0
   52.8623   -3.3483   -9.9919 O   0  0  0  0  0  0  0  0  0  0  0  0
   59.3815   -5.8329   -9.3436 Cl  0  0  0  0  0  0  0  0  0  0  0  0
   57.7884   -5.1206   -9.1978 C   0  0  0  0  0  0  0  0  0  0  0  0
   57.1116   -4.6648  -10.3029 C   0  0  0  0  0  0  0  0  0  0  0  0
   55.8476   -4.1002  -10.1813 C   0  0  0  0  0  0  0  0  0  0  0  0
   55.2408   -3.9827   -8.9532 C   0  0  0  0  0  0  0  0  0  0  0  0
   55.9253   -4.4415   -7.8538 C   0  0  0  0  0  0  0  0  0  0  0  0
   57.1959   -5.0096   -7.9704 C   0  0  0  0  0  0  0  0  0  0  0  0
 18 19  1  0  0  0
 19 20  2  0  0  0
 20 21  1  0  0  0
 21 22  2  0  0  0
 22 23  1  0  0  0
 23 24  2  0  0  0
 22 15  1  0  0  0
 15 16  2  0  0  0
 15 17  2  0  0  0
 15  1  1  0  0  0
  1  3  1  0  0  0
  3  4  2  0  0  0
  4  5  1  0  0  0
  5  6  2  0  0  0
  6  7  1  0  0  0
  7  8  2  0  0  0
  8  9  1  0  0  0
  9 10  2  0  0  0
 10 11  1  0  0  0
 11 12  2  0  0  0
 12 13  1  0  0  0
 13 14  2  0  0  0
 24 19  1  0  0  0
  8  3  1  0  0  0
 14  9  1  0  0  0
  1  2  1  0  0  0
M  END
> <minimizedAffinity>
-8.22002

> <CNNscore>
0.3139361739

> <CNNaffinity>
5.7591743469

> <CNN_VS>
1.8080132008

> <CNNaffinity_variance>
0.2430178374

$$$$
[H]c1c([H])c([H])c(-c2c([H])c([H])c([H])c([H])c2N([H])S(=O)(=O)c2c([H])c([H])c(Cl)c([H])c2[H])c([H])c1[H]


 24 26  0  0  0  0  0  0  0  0999 V2000
   53.0148   -4.7667   -8.3487 N   0  0  0  0  0  0  0  0  0  0  0  0
   52.1281   -4.9325   -8.8543 H   0  0  0  0  0  0  0  0  0  0  0  0
   53.2698   -5.4206   -7.1329 C   0  0  0  0  0  0  0  0  0  0  0  0
   54.3293   -6.3268   -6.9848 C   0  0  0  0  0  0  0  0  0  0  0  0
   54.5718   -6.9377   -5.7631 C   0  0  0  0  0  0  0  0  0  0  0  0
   53.7895   -6.6805   -4.6613 C   0  0  0  0  0  0  0  0  0  0  0  0
   52.7546   -5.7945   -4.8129 C   0  0  0  0  0  0  0  0  0  0  0  0
   52.4746   -5.1524   -6.0392 C   0  0  0  0  0  0  0  0  0  0  0  0
   51.3330   -4.2634   -6.1083 C   0  0  0  0  0  0  0  0  0  0  0  0
   51.1677   -3.3153   -7.0759 C   0  0  0  0  0  0  0  0  0  0  0  0
   50.0449   -2.4798   -7.0845 C   0  0  0  0  0  0  0  0  0  0  0  0
   49.0662   -2.5817   -6.1203 C   0  0  0  0  0  0  0  0  0  0  0  0
   49.2290   -3.5381   -5.1416 C   0  0  0  0  0  0  0  0  0  0  0  0
   50.3353   -4.3613   -5.1331 C   0  0  0  0  0  0  0  0  0  0  0  0
   54.1264   -3.6857   -9.0590 S   0  0  0  0  0  0  0  0  0  0  0  0
   54.2097   -2.4250   -8.1826 O   0  0  0  0  0  0  0  0  0  0  0  0
   53.6210   -3.2432  -10.3990 O   0  0  0  0  0  0  0  0  0  0  0  0
   59.9694   -5.9194   -9.7233 Cl  0  0  0  0  0  0  0  0  0  0  0  0
   58.3444   -5.3022   -9.5104 C   0  0  0  0  0  0  0  0  0  0  0  0
   57.8227   -5.0964   -8.2564 C   0  0  0  0  0  0  0  0  0  0  0  0
   56.5325   -4.6065   -8.0933 C   0  0  0  0  0  0  0  0  0  0  0  0
   55.7441   -4.3148   -9.1813 C   0  0  0  0  0  0  0  0  0  0  0  0
   56.2746   -4.5237  -10.4314 C   0  0  0  0  0  0  0  0  0  0  0  0
   57.5706   -5.0160  -10.6008 C   0  0  0  0  0  0  0  0  0  0  0  0
 18 19  1  0  0  0
 19 20  2  0  0  0
 20 21  1  0  0  0
 21 22  2  0  0  0
 22 23  1  0  0  0
 23 24  2  0  0  0
 22 15  1  0  0  0
 15 16  2  0  0  0
 15 17  2  0  0  0
 15  1  1  0  0  0
  1  3  1  0  0  0
  3  4  2  0  0  0
  4  5  1  0  0  0
  5  6  2  0  0  0
  6  7  1  0  0  0
  7  8  2  0  0  0
  8  9  1  0  0  0
  9 10  2  0  0  0
 10 11  1  0  0  0
 11 12  2  0  0  0
 12 13  1  0  0  0
 13 14  2  0  0  0
 24 19  1  0  0  0
  8  3  1  0  0  0
 14  9  1  0  0  0
  1  2  1  0  0  0
M  END
> <minimizedAffinity>
-10.10741

> <CNNscore>
0.2885132730

> <CNNaffinity>
5.7309808731

> <CNN_VS>
1.6534640789

> <CNNaffinity_variance>
0.3731888235

$$$$
[H]c1c([H])c([H])c(-c2c([H])c([H])c([H])c([H])c2N([H])S(=O)(=O)c2c([H])c([H])c(Cl)c([H])c2[H])c([H])c1[H]


 24 26  0  0  0  0  0  0  0  0999 V2000
   54.5874   -5.6555   -7.4200 N   0  0  0  0  0  0  0  0  0  0  0  0
   53.9501   -5.8125   -8.2191 H   0  0  0  0  0  0  0  0  0  0  0  0
   54.2474   -6.1229   -6.1406 C   0  0  0  0  0  0  0  0  0  0  0  0
   55.0529   -7.0356   -5.4450 C   0  0  0  0  0  0  0  0  0  0  0  0
   54.7035   -7.4592   -4.1709 C   0  0  0  0  0  0  0  0  0  0  0  0
   53.5647   -7.0046   -3.5478 C   0  0  0  0  0  0  0  0  0  0  0  0
   52.7809   -6.1132   -4.2336 C   0  0  0  0  0  0  0  0  0  0  0  0
   53.1014   -5.6582   -5.5315 C   0  0  0  0  0  0  0  0  0  0  0  0
   52.1871   -4.7471   -6.1892 C   0  0  0  0  0  0  0  0  0  0  0  0
   52.5003   -4.0380   -7.3123 C   0  0  0  0  0  0  0  0  0  0  0  0
   51.5752   -3.1660   -7.8976 C   0  0  0  0  0  0  0  0  0  0  0  0
   50.3169   -2.9903   -7.3650 C   0  0  0  0  0  0  0  0  0  0  0  0
   49.9964   -3.7048   -6.2309 C   0  0  0  0  0  0  0  0  0  0  0  0
   50.9080   -4.5639   -5.6542 C   0  0  0  0  0  0  0  0  0  0  0  0
   56.0419   -4.8227   -7.7352 S   0  0  0  0  0  0  0  0  0  0  0  0
   57.2130   -5.6686   -7.2089 O   0  0  0  0  0  0  0  0  0  0  0  0
   56.0667   -3.5338   -6.9704 O   0  0  0  0  0  0  0  0  0  0  0  0
   57.3447   -3.9302  -13.8244 Cl  0  0  0  0  0  0  0  0  0  0  0  0
   56.9565   -4.1667  -12.1332 C   0  0  0  0  0  0  0  0  0  0  0  0
   55.6940   -3.9158  -11.6536 C   0  0  0  0  0  0  0  0  0  0  0  0
   55.3916   -4.1050  -10.3105 C   0  0  0  0  0  0  0  0  0  0  0  0
   56.3466   -4.5482   -9.4263 C   0  0  0  0  0  0  0  0  0  0  0  0
   57.6064   -4.7966   -9.9152 C   0  0  0  0  0  0  0  0  0  0  0  0
   57.9156   -4.6079  -11.2640 C   0  0  0  0  0  0  0  0  0  0  0  0
 18 19  1  0  0  0
 19 20  2  0  0  0
 20 21  1  0  0  0
 21 22  2  0  0  0
 22 23  1  0  0  0
 23 24  2  0  0  0
 22 15  1  0  0  0
 15 16  2  0  0  0
 15 17  2  0  0  0
 15  1  1  0  0  0
  1  3  1  0  0  0
  3  4  2  0  0  0
  4  5  1  0  0  0
  5  6  2  0  0  0
  6  7  1  0  0  0
  7  8  2  0  0  0
  8  9  1  0  0  0
  9 10  2  0  0  0
 10 11  1  0  0  0
 11 12  2  0  0  0
 12 13  1  0  0  0
 13 14  2  0  0  0
 24 19  1  0  0  0
  8  3  1  0  0  0
 14  9  1  0  0  0
  1  2  1  0  0  0
M  END
> <minimizedAffinity>
-9.28977

> <CNNscore>
0.2809438109

> <CNNaffinity>
5.6772146225

> <CNN_VS>
1.5949783325

> <CNNaffinity_variance>
0.3698943555

$$$$
[H]c1c([H])c([H])c(-c2c([H])c([H])c([H])c([H])c2N([H])S(=O)(=O)c2c([H])c([H])c(Cl)c([H])c2[H])c([H])c1[H]


 24 26  0  0  0  0  0  0  0  0999 V2000
   52.9722   -4.9698   -8.2864 N   0  0  0  0  0  0  0  0  0  0  0  0
   53.0207   -5.9126   -8.7085 H   0  0  0  0  0  0  0  0  0  0  0  0
   52.0780   -4.7093   -7.2359 C   0  0  0  0  0  0  0  0  0  0  0  0
   50.8548   -4.0574   -7.4461 C   0  0  0  0  0  0  0  0  0  0  0  0
   49.9804   -3.8373   -6.3918 C   0  0  0  0  0  0  0  0  0  0  0  0
   50.2774   -4.2461   -5.1124 C   0  0  0  0  0  0  0  0  0  0  0  0
   51.4753   -4.8819   -4.9133 C   0  0  0  0  0  0  0  0  0  0  0  0
   52.3925   -5.1243   -5.9595 C   0  0  0  0  0  0  0  0  0  0  0  0
   53.6505   -5.7675   -5.6397 C   0  0  0  0  0  0  0  0  0  0  0  0
   54.0091   -7.0018   -6.0983 C   0  0  0  0  0  0  0  0  0  0  0  0
   55.2371   -7.5743   -5.7472 C   0  0  0  0  0  0  0  0  0  0  0  0
   56.1286   -6.9165   -4.9284 C   0  0  0  0  0  0  0  0  0  0  0  0
   55.7704   -5.6695   -4.4634 C   0  0  0  0  0  0  0  0  0  0  0  0
   54.5605   -5.1056   -4.8093 C   0  0  0  0  0  0  0  0  0  0  0  0
   54.0170   -3.7787   -8.9176 S   0  0  0  0  0  0  0  0  0  0  0  0
   54.1025   -2.6204   -7.9100 O   0  0  0  0  0  0  0  0  0  0  0  0
   53.4376   -3.2089  -10.1771 O   0  0  0  0  0  0  0  0  0  0  0  0
   59.9086   -5.8599   -9.6450 Cl  0  0  0  0  0  0  0  0  0  0  0  0
   58.2683   -5.2720   -9.4697 C   0  0  0  0  0  0  0  0  0  0  0  0
   57.5530   -4.8315  -10.5565 C   0  0  0  0  0  0  0  0  0  0  0  0
   56.2517   -4.3658  -10.4114 C   0  0  0  0  0  0  0  0  0  0  0  0
   55.6456   -4.3335   -9.1777 C   0  0  0  0  0  0  0  0  0  0  0  0
   56.3689   -4.7763   -8.0967 C   0  0  0  0  0  0  0  0  0  0  0  0
   57.6770   -5.2451   -8.2370 C   0  0  0  0  0  0  0  0  0  0  0  0
 18 19  1  0  0  0
 19 20  2  0  0  0
 20 21  1  0  0  0
 21 22  2  0  0  0
 22 23  1  0  0  0
 23 24  2  0  0  0
 22 15  1  0  0  0
 15 16  2  0  0  0
 15 17  2  0  0  0
 15  1  1  0  0  0
  1  3  1  0  0  0
  3  4  2  0  0  0
  4  5  1  0  0  0
  5  6  2  0  0  0
  6  7  1  0  0  0
  7  8  2  0  0  0
  8  9  1  0  0  0
  9 10  2  0  0  0
 10 11  1  0  0  0
 11 12  2  0  0  0
 12 13  1  0  0  0
 13 14  2  0  0  0
 24 19  1  0  0  0
  8  3  1  0  0  0
 14  9  1  0  0  0
  1  2  1  0  0  0
M  END
> <minimizedAffinity>
-8.17206

> <CNNscore>
0.2529098690

> <CNNaffinity>
5.6844391823

> <CNN_VS>
1.4376507998

> <CNNaffinity_variance>
0.2904324830

$$$$
[H]c1c([H])c([H])c(-c2c([H])c([H])c([H])c([H])c2N([H])S(=O)(=O)c2c([H])c([H])c(Cl)c([H])c2[H])c([H])c1[H]


 24 26  0  0  0  0  0  0  0  0999 V2000
   54.9678   -6.0699   -7.0887 N   0  0  0  0  0  0  0  0  0  0  0  0
   55.1507   -7.0734   -7.2586 H   0  0  0  0  0  0  0  0  0  0  0  0
   53.7108   -5.6471   -6.6283 C   0  0  0  0  0  0  0  0  0  0  0  0
   52.7400   -5.1241   -7.4941 C   0  0  0  0  0  0  0  0  0  0  0  0
   51.4972   -4.7388   -7.0130 C   0  0  0  0  0  0  0  0  0  0  0  0
   51.1732   -4.8537   -5.6811 C   0  0  0  0  0  0  0  0  0  0  0  0
   52.1270   -5.3647   -4.8396 C   0  0  0  0  0  0  0  0  0  0  0  0
   53.4035   -5.7677   -5.2899 C   0  0  0  0  0  0  0  0  0  0  0  0
   54.3568   -6.2572   -4.3152 C   0  0  0  0  0  0  0  0  0  0  0  0
   54.5382   -7.5793   -4.0297 C   0  0  0  0  0  0  0  0  0  0  0  0
   55.4709   -7.9900   -3.0704 C   0  0  0  0  0  0  0  0  0  0  0  0
   56.2395   -7.0791   -2.3795 C   0  0  0  0  0  0  0  0  0  0  0  0
   56.0596   -5.7429   -2.6650 C   0  0  0  0  0  0  0  0  0  0  0  0
   55.1406   -5.3383   -3.6102 C   0  0  0  0  0  0  0  0  0  0  0  0
   56.2483   -4.9833   -7.3860 S   0  0  0  0  0  0  0  0  0  0  0  0
   57.5344   -5.5656   -6.7769 O   0  0  0  0  0  0  0  0  0  0  0  0
   55.9895   -3.6862   -6.6808 O   0  0  0  0  0  0  0  0  0  0  0  0
   57.2279   -3.9115  -13.5067 Cl  0  0  0  0  0  0  0  0  0  0  0  0
   56.9800   -4.2236  -11.8015 C   0  0  0  0  0  0  0  0  0  0  0  0
   57.9745   -4.7729  -11.0293 C   0  0  0  0  0  0  0  0  0  0  0  0
   57.7722   -5.0186   -9.6765 C   0  0  0  0  0  0  0  0  0  0  0  0
   56.5728   -4.7188   -9.0750 C   0  0  0  0  0  0  0  0  0  0  0  0
   55.5843   -4.1696   -9.8553 C   0  0  0  0  0  0  0  0  0  0  0  0
   55.7823   -3.9208  -11.2153 C   0  0  0  0  0  0  0  0  0  0  0  0
 18 19  1  0  0  0
 19 20  2  0  0  0
 20 21  1  0  0  0
 21 22  2  0  0  0
 22 23  1  0  0  0
 23 24  2  0  0  0
 22 15  1  0  0  0
 15 16  2  0  0  0
 15 17  2  0  0  0
 15  1  1  0  0  0
  1  3  1  0  0  0
  3  4  2  0  0  0
  4  5  1  0  0  0
  5  6  2  0  0  0
  6  7  1  0  0  0
  7  8  2  0  0  0
  8  9  1  0  0  0
  9 10  2  0  0  0
 10 11  1  0  0  0
 11 12  2  0  0  0
 12 13  1  0  0  0
 13 14  2  0  0  0
 24 19  1  0  0  0
  8  3  1  0  0  0
 14  9  1  0  0  0
  1  2  1  0  0  0
M  END
> <minimizedAffinity>
-8.01278

> <CNNscore>
0.2186781019

> <CNNaffinity>
5.4079389572

> <CNN_VS>
1.1825978756

> <CNNaffinity_variance>
0.6089124680

$$$$
[H]N=C(N([H])[H])N([H])C([H])([H])C([H])([H])C([H])([H])[C@@]([H])(C(=O)N([H])[C@]([H])(C(=O)N([H])[H])C([H])([H])c1c([H])nc([H])n1[H])N([H])C(=O)[C@@]([H])(N([H])C(=O)[C@]([H])(N([H])[H])[C@]([H])(O[H])C([H])([H])[H])C([H])([H])c1c([H])c([H])c([H])c([H])c1[H]


 53 54  0  0  0  0  0  0  0  0999 V2000
   53.7173   -6.4226   -5.9949 C   0  0  0  0  0  0  0  0  0  0  0  0
   54.5106   -5.2975   -6.6129 C   0  0  0  0  0  0  0  0  0  0  0  0
   55.4778   -4.8702   -5.9386 O   0  0  0  0  0  0  0  0  0  0  0  0
   54.1572   -4.7849   -7.8770 N   0  0  0  0  0  0  0  0  0  0  0  0
   53.3486   -5.1779   -8.3851 H   0  0  0  0  0  0  0  0  0  0  0  0
   54.9123   -3.7124   -8.4811 C   0  0  0  0  0  0  0  0  0  0  0  0
   54.0071   -2.6069   -8.7491 C   0  0  0  0  0  0  0  0  0  0  0  0
   54.3237   -1.2142   -8.7323 N   0  0  0  0  0  0  0  0  0  0  0  0
   52.7756   -2.8497   -9.0366 O   0  0  0  0  0  0  0  0  0  0  0  0
   54.7280   -0.8214   -7.8636 H   0  0  0  0  0  0  0  0  0  0  0  0
   54.1706   -0.5748   -9.5406 H   0  0  0  0  0  0  0  0  0  0  0  0
   55.5475   -4.3257   -9.7335 C   0  0  0  0  0  0  0  0  0  0  0  0
   56.9116   -4.8170   -9.5514 C   0  0  0  0  0  0  0  0  0  0  0  0
   57.8054   -5.1026  -10.5853 C   0  0  0  0  0  0  0  0  0  0  0  0
   58.9600   -5.5045  -10.0207 N   0  0  0  0  0  0  0  0  0  0  0  0
   58.7928   -5.4701   -8.6807 C   0  0  0  0  0  0  0  0  0  0  0  0
   57.5628   -5.0573   -8.3996 N   0  0  0  0  0  0  0  0  0  0  0  0
   57.1920   -4.9432   -7.4237 H   0  0  0  0  0  0  0  0  0  0  0  0
   54.6014   -7.3964   -3.8829 C   0  0  0  0  0  0  0  0  0  0  0  0
   55.0244   -8.3591   -4.5683 O   0  0  0  0  0  0  0  0  0  0  0  0
   53.9273   -6.3516   -4.5523 N   0  0  0  0  0  0  0  0  0  0  0  0
   53.5609   -5.5058   -4.0351 H   0  0  0  0  0  0  0  0  0  0  0  0
   54.8306   -7.4038   -2.4193 C   0  0  0  0  0  0  0  0  0  0  0  0
   52.8768   -7.9692   -0.8882 C   0  0  0  0  0  0  0  0  0  0  0  0
   52.8644   -6.7930   -0.4221 O   0  0  0  0  0  0  0  0  0  0  0  0
   53.8251   -8.3075   -1.8667 N   0  0  0  0  0  0  0  0  0  0  0  0
   53.8137   -9.3111   -2.2440 H   0  0  0  0  0  0  0  0  0  0  0  0
   51.8981   -9.0014   -0.4159 C   0  0  0  0  0  0  0  0  0  0  0  0
   52.2743  -10.2906   -0.9025 N   0  0  0  0  0  0  0  0  0  0  0  0
   53.2334  -10.5786   -0.6291 H   0  0  0  0  0  0  0  0  0  0  0  0
   52.1825  -10.3528   -1.9349 H   0  0  0  0  0  0  0  0  0  0  0  0
   49.4644   -9.5982   -0.3475 C   0  0  0  0  0  0  0  0  0  0  0  0
   50.4974   -8.6349   -0.8854 C   0  0  0  0  0  0  0  0  0  0  0  0
   50.1534   -7.3488   -0.5540 O   0  0  0  0  0  0  0  0  0  0  0  0
   49.2006   -7.1918   -0.6851 H   0  0  0  0  0  0  0  0  0  0  0  0
   56.2300   -7.8428   -2.1424 C   0  0  0  0  0  0  0  0  0  0  0  0
   57.1047   -6.8007   -1.5647 C   0  0  0  0  0  0  0  0  0  0  0  0
   56.6190   -5.5842   -1.1834 C   0  0  0  0  0  0  0  0  0  0  0  0
   57.4921   -4.6325   -0.6640 C   0  0  0  0  0  0  0  0  0  0  0  0
   58.8515   -4.8880   -0.5222 C   0  0  0  0  0  0  0  0  0  0  0  0
   59.3201   -6.1206   -0.9124 C   0  0  0  0  0  0  0  0  0  0  0  0
   58.4522   -7.0726   -1.4308 C   0  0  0  0  0  0  0  0  0  0  0  0
   52.2639   -6.3072   -6.2841 C   0  0  0  0  0  0  0  0  0  0  0  0
   51.5417   -5.8982   -5.0144 C   0  0  0  0  0  0  0  0  0  0  0  0
   50.4882   -4.8617   -5.3552 C   0  0  0  0  0  0  0  0  0  0  0  0
   50.8920   -3.9667   -6.4014 N   0  0  0  0  0  0  0  0  0  0  0  0
   51.7245   -4.1150   -7.0074 H   0  0  0  0  0  0  0  0  0  0  0  0
   50.1105   -2.8014   -6.6282 C   0  0  0  0  0  0  0  0  0  0  0  0
   50.4630   -1.9545   -7.7259 N   0  0  0  0  0  0  0  0  0  0  0  0
   49.1017   -2.5004   -5.8697 N   0  0  0  0  0  0  0  0  0  0  0  0
   51.2791   -2.1410   -8.3327 H   0  0  0  0  0  0  0  0  0  0  0  0
   49.8796   -1.1210   -7.9239 H   0  0  0  0  0  0  0  0  0  0  0  0
   48.5666   -1.6299   -6.0857 H   0  0  0  0  0  0  0  0  0  0  0  0
 32 33  1  0  0  0
 33 34  1  0  0  0
 33 28  1  0  0  0
 28 29  1  0  0  0
 28 24  1  0  0  0
 24 25  2  0  0  0
 24 26  1  0  0  0
 26 23  1  0  0  0
 23 36  1  0  0  0
 36 37  1  0  0  0
 37 38  2  0  0  0
 38 39  1  0  0  0
 39 40  2  0  0  0
 40 41  1  0  0  0
 41 42  2  0  0  0
 23 19  1  0  0  0
 19 20  2  0  0  0
 19 21  1  0  0  0
 21  1  1  0  0  0
  1 43  1  0  0  0
 43 44  1  0  0  0
 44 45  1  0  0  0
 45 46  1  0  0  0
 46 48  1  0  0  0
 48 49  1  0  0  0
 48 50  2  0  0  0
  1  2  1  0  0  0
  2  3  2  0  0  0
  2  4  1  0  0  0
  4  6  1  0  0  0
  6 12  1  0  0  0
 12 13  1  0  0  0
 13 14  2  0  0  0
 14 15  1  0  0  0
 15 16  2  0  0  0
 16 17  1  0  0  0
  6  7  1  0  0  0
  7  8  1  0  0  0
  7  9  2  0  0  0
 42 37  1  0  0  0
 17 13  1  0  0  0
 34 35  1  0  0  0
 29 30  1  0  0  0
 29 31  1  0  0  0
 26 27  1  0  0  0
 21 22  1  0  0  0
 46 47  1  0  0  0
 49 51  1  0  0  0
 49 52  1  0  0  0
 50 53  1  0  0  0
  4  5  1  0  0  0
 17 18  1  0  0  0
  8 10  1  0  0  0
  8 11  1  0  0  0
M  END
> <minimizedAffinity>
-8.05152

> <CNNscore>
0.6417190433

> <CNNaffinity>
7.4896683693

> <CNN_VS>
4.8062629700

> <CNNaffinity_variance>
0.1093009487

$$$$
[H]N=C(N([H])[H])N([H])C([H])([H])C([H])([H])C([H])([H])[C@@]([H])(C(=O)N([H])[C@]([H])(C(=O)N([H])[H])C([H])([H])c1c([H])nc([H])n1[H])N([H])C(=O)[C@@]([H])(N([H])C(=O)[C@]([H])(N([H])[H])[C@]([H])(O[H])C([H])([H])[H])C([H])([H])c1c([H])c([H])c([H])c([H])c1[H]


 53 54  0  0  0  0  0  0  0  0999 V2000
   57.8792   -5.1487  -10.5952 C   0  0  0  0  0  0  0  0  0  0  0  0
   59.2979   -5.6388  -10.4395 C   0  0  0  0  0  0  0  0  0  0  0  0
   60.1227   -5.2154  -11.2840 O   0  0  0  0  0  0  0  0  0  0  0  0
   59.6388   -6.5178   -9.3923 N   0  0  0  0  0  0  0  0  0  0  0  0
   58.9145   -6.8326   -8.7270 H   0  0  0  0  0  0  0  0  0  0  0  0
   60.9942   -6.9888   -9.2296 C   0  0  0  0  0  0  0  0  0  0  0  0
   61.0631   -8.3624   -9.7004 C   0  0  0  0  0  0  0  0  0  0  0  0
   60.7708   -9.5429   -8.9512 N   0  0  0  0  0  0  0  0  0  0  0  0
   61.4214   -8.6007  -10.9141 O   0  0  0  0  0  0  0  0  0  0  0  0
   61.2945   -9.6983   -8.0715 H   0  0  0  0  0  0  0  0  0  0  0  0
   60.0645  -10.2527   -9.2393 H   0  0  0  0  0  0  0  0  0  0  0  0
   61.3019   -6.8165   -7.7384 C   0  0  0  0  0  0  0  0  0  0  0  0
   62.7148   -6.9372   -7.3858 C   0  0  0  0  0  0  0  0  0  0  0  0
   63.7191   -6.0537   -7.7862 C   0  0  0  0  0  0  0  0  0  0  0  0
   64.8743   -6.4841   -7.2442 N   0  0  0  0  0  0  0  0  0  0  0  0
   64.6003   -7.5972   -6.5297 C   0  0  0  0  0  0  0  0  0  0  0  0
   63.3036   -7.8687   -6.6152 N   0  0  0  0  0  0  0  0  0  0  0  0
   62.8437   -8.6849   -6.1406 H   0  0  0  0  0  0  0  0  0  0  0  0
   56.1434   -4.2956   -9.0300 C   0  0  0  0  0  0  0  0  0  0  0  0
   55.2842   -4.6786   -9.8610 O   0  0  0  0  0  0  0  0  0  0  0  0
   57.5046   -4.5161   -9.3344 N   0  0  0  0  0  0  0  0  0  0  0  0
   58.2756   -4.2316   -8.6697 H   0  0  0  0  0  0  0  0  0  0  0  0
   55.6899   -3.6394   -7.7817 C   0  0  0  0  0  0  0  0  0  0  0  0
   53.2218   -3.1547   -8.1763 C   0  0  0  0  0  0  0  0  0  0  0  0
   53.5005   -2.0807   -8.7843 O   0  0  0  0  0  0  0  0  0  0  0  0
   54.2661   -3.9449   -7.6697 N   0  0  0  0  0  0  0  0  0  0  0  0
   54.0018   -4.8495   -7.1584 H   0  0  0  0  0  0  0  0  0  0  0  0
   51.8014   -3.5957   -7.9914 C   0  0  0  0  0  0  0  0  0  0  0  0
   50.9393   -2.4580   -7.9379 N   0  0  0  0  0  0  0  0  0  0  0  0
   51.0010   -1.8456   -8.7738 H   0  0  0  0  0  0  0  0  0  0  0  0
   51.1081   -1.8883   -7.0864 H   0  0  0  0  0  0  0  0  0  0  0  0
   50.3353   -4.2320   -6.0602 C   0  0  0  0  0  0  0  0  0  0  0  0
   51.6815   -4.4239   -6.7200 C   0  0  0  0  0  0  0  0  0  0  0  0
   51.9065   -5.7592   -6.9412 O   0  0  0  0  0  0  0  0  0  0  0  0
   51.6405   -6.2955   -6.1724 H   0  0  0  0  0  0  0  0  0  0  0  0
   56.4929   -4.1555   -6.6344 C   0  0  0  0  0  0  0  0  0  0  0  0
   55.8426   -5.2300   -5.8550 C   0  0  0  0  0  0  0  0  0  0  0  0
   55.7296   -6.5011   -6.3375 C   0  0  0  0  0  0  0  0  0  0  0  0
   55.0890   -7.4690   -5.5690 C   0  0  0  0  0  0  0  0  0  0  0  0
   54.5587   -7.1754   -4.3175 C   0  0  0  0  0  0  0  0  0  0  0  0
   54.6837   -5.8882   -3.8500 C   0  0  0  0  0  0  0  0  0  0  0  0
   55.3222   -4.9200   -4.6138 C   0  0  0  0  0  0  0  0  0  0  0  0
   57.7464   -4.1601  -11.6971 C   0  0  0  0  0  0  0  0  0  0  0  0
   56.8848   -4.7587  -12.7927 C   0  0  0  0  0  0  0  0  0  0  0  0
   56.3446   -3.6415  -13.6648 C   0  0  0  0  0  0  0  0  0  0  0  0
   56.0065   -4.0718  -14.9911 N   0  0  0  0  0  0  0  0  0  0  0  0
   55.1384   -4.5917  -15.2326 H   0  0  0  0  0  0  0  0  0  0  0  0
   56.9113   -3.7733  -16.0459 C   0  0  0  0  0  0  0  0  0  0  0  0
   57.9667   -2.8427  -15.7878 N   0  0  0  0  0  0  0  0  0  0  0  0
   56.7968   -4.3218  -17.2161 N   0  0  0  0  0  0  0  0  0  0  0  0
   58.0722   -2.3589  -14.8802 H   0  0  0  0  0  0  0  0  0  0  0  0
   58.6543   -2.6436  -16.5373 H   0  0  0  0  0  0  0  0  0  0  0  0
   57.4913   -4.0614  -17.9513 H   0  0  0  0  0  0  0  0  0  0  0  0
 32 33  1  0  0  0
 33 34  1  0  0  0
 33 28  1  0  0  0
 28 29  1  0  0  0
 28 24  1  0  0  0
 24 25  2  0  0  0
 24 26  1  0  0  0
 26 23  1  0  0  0
 23 36  1  0  0  0
 36 37  1  0  0  0
 37 38  2  0  0  0
 38 39  1  0  0  0
 39 40  2  0  0  0
 40 41  1  0  0  0
 41 42  2  0  0  0
 23 19  1  0  0  0
 19 20  2  0  0  0
 19 21  1  0  0  0
 21  1  1  0  0  0
  1 43  1  0  0  0
 43 44  1  0  0  0
 44 45  1  0  0  0
 45 46  1  0  0  0
 46 48  1  0  0  0
 48 49  1  0  0  0
 48 50  2  0  0  0
  1  2  1  0  0  0
  2  3  2  0  0  0
  2  4  1  0  0  0
  4  6  1  0  0  0
  6 12  1  0  0  0
 12 13  1  0  0  0
 13 14  2  0  0  0
 14 15  1  0  0  0
 15 16  2  0  0  0
 16 17  1  0  0  0
  6  7  1  0  0  0
  7  8  1  0  0  0
  7  9  2  0  0  0
 42 37  1  0  0  0
 17 13  1  0  0  0
 34 35  1  0  0  0
 29 30  1  0  0  0
 29 31  1  0  0  0
 26 27  1  0  0  0
 21 22  1  0  0  0
 46 47  1  0  0  0
 49 51  1  0  0  0
 49 52  1  0  0  0
 50 53  1  0  0  0
  4  5  1  0  0  0
 17 18  1  0  0  0
  8 10  1  0  0  0
  8 11  1  0  0  0
M  END
> <minimizedAffinity>
-6.91623

> <CNNscore>
0.4789354205

> <CNNaffinity>
6.9670805931

> <CNN_VS>
3.3367817402

> <CNNaffinity_variance>
0.0505263433

$$$$
[H]N=C(N([H])[H])N([H])C([H])([H])C([H])([H])C([H])([H])[C@@]([H])(C(=O)N([H])[C@]([H])(C(=O)N([H])[H])C([H])([H])c1c([H])nc([H])n1[H])N([H])C(=O)[C@@]([H])(N([H])C(=O)[C@]([H])(N([H])[H])[C@]([H])(O[H])C([H])([H])[H])C([H])([H])c1c([H])c([H])c([H])c([H])c1[H]


 53 54  0  0  0  0  0  0  0  0999 V2000
   55.0122   -5.2099   -6.5911 C   0  0  0  0  0  0  0  0  0  0  0  0
   55.0953   -6.3374   -5.5917 C   0  0  0  0  0  0  0  0  0  0  0  0
   55.0790   -7.4976   -6.0675 O   0  0  0  0  0  0  0  0  0  0  0  0
   55.1878   -6.0638   -4.2125 N   0  0  0  0  0  0  0  0  0  0  0  0
   55.1962   -5.0861   -3.8802 H   0  0  0  0  0  0  0  0  0  0  0  0
   55.2738   -7.1343   -3.2471 C   0  0  0  0  0  0  0  0  0  0  0  0
   53.9677   -7.3045   -2.6318 C   0  0  0  0  0  0  0  0  0  0  0  0
   53.5956   -8.2873   -1.6645 N   0  0  0  0  0  0  0  0  0  0  0  0
   53.0046   -6.5139   -2.9566 O   0  0  0  0  0  0  0  0  0  0  0  0
   53.7358   -9.2835   -1.9098 H   0  0  0  0  0  0  0  0  0  0  0  0
   53.1923   -8.0590   -0.7312 H   0  0  0  0  0  0  0  0  0  0  0  0
   56.3790   -6.7089   -2.2746 C   0  0  0  0  0  0  0  0  0  0  0  0
   57.7390   -6.9781   -2.7361 C   0  0  0  0  0  0  0  0  0  0  0  0
   58.0688   -7.5670   -3.9584 C   0  0  0  0  0  0  0  0  0  0  0  0
   59.4124   -7.6234   -4.0294 N   0  0  0  0  0  0  0  0  0  0  0  0
   59.9041   -7.0874   -2.8910 C   0  0  0  0  0  0  0  0  0  0  0  0
   58.8989   -6.7003   -2.1151 N   0  0  0  0  0  0  0  0  0  0  0  0
   59.0249   -6.2486   -1.1754 H   0  0  0  0  0  0  0  0  0  0  0  0
   57.1088   -4.7579   -7.8523 C   0  0  0  0  0  0  0  0  0  0  0  0
   57.3268   -3.8209   -7.0461 O   0  0  0  0  0  0  0  0  0  0  0  0
   55.9390   -5.5282   -7.6728 N   0  0  0  0  0  0  0  0  0  0  0  0
   55.7059   -6.3406   -8.3075 H   0  0  0  0  0  0  0  0  0  0  0  0
   58.0824   -5.0077   -8.9406 C   0  0  0  0  0  0  0  0  0  0  0  0
   60.2838   -6.2852   -9.0014 C   0  0  0  0  0  0  0  0  0  0  0  0
   60.5441   -5.8387  -10.1562 O   0  0  0  0  0  0  0  0  0  0  0  0
   59.0878   -5.9025   -8.3733 N   0  0  0  0  0  0  0  0  0  0  0  0
   58.8919   -6.2959   -7.3953 H   0  0  0  0  0  0  0  0  0  0  0  0
   61.2288   -7.2102   -8.2958 C   0  0  0  0  0  0  0  0  0  0  0  0
   60.9316   -7.2403   -6.8989 N   0  0  0  0  0  0  0  0  0  0  0  0
   59.9553   -7.5199   -6.6838 H   0  0  0  0  0  0  0  0  0  0  0  0
   61.1317   -6.3285   -6.4443 H   0  0  0  0  0  0  0  0  0  0  0  0
   63.4057   -6.5709   -7.2301 C   0  0  0  0  0  0  0  0  0  0  0  0
   62.6629   -6.7590   -8.5328 C   0  0  0  0  0  0  0  0  0  0  0  0
   63.3560   -7.6210   -9.3447 O   0  0  0  0  0  0  0  0  0  0  0  0
   64.3113   -7.4290   -9.3318 H   0  0  0  0  0  0  0  0  0  0  0  0
   57.3698   -5.5939  -10.1137 C   0  0  0  0  0  0  0  0  0  0  0  0
   57.5155   -4.8327  -11.3723 C   0  0  0  0  0  0  0  0  0  0  0  0
   58.7310   -4.3977  -11.8133 C   0  0  0  0  0  0  0  0  0  0  0  0
   58.8070   -3.6670  -12.9957 C   0  0  0  0  0  0  0  0  0  0  0  0
   57.6738   -3.3667  -13.7435 C   0  0  0  0  0  0  0  0  0  0  0  0
   56.4587   -3.8150  -13.2812 C   0  0  0  0  0  0  0  0  0  0  0  0
   56.3789   -4.5443  -12.1022 C   0  0  0  0  0  0  0  0  0  0  0  0
   53.6432   -5.0563   -7.1490 C   0  0  0  0  0  0  0  0  0  0  0  0
   53.6442   -3.9119   -8.1446 C   0  0  0  0  0  0  0  0  0  0  0  0
   52.2346   -3.3678   -8.2761 C   0  0  0  0  0  0  0  0  0  0  0  0
   51.4324   -3.5852   -7.1065 N   0  0  0  0  0  0  0  0  0  0  0  0
   51.6071   -4.3386   -6.4107 H   0  0  0  0  0  0  0  0  0  0  0  0
   50.3270   -2.7211   -6.8793 C   0  0  0  0  0  0  0  0  0  0  0  0
   50.1678   -1.5876   -7.7373 N   0  0  0  0  0  0  0  0  0  0  0  0
   49.4766   -2.9411   -5.9243 N   0  0  0  0  0  0  0  0  0  0  0  0
   50.8414   -1.3587   -8.4874 H   0  0  0  0  0  0  0  0  0  0  0  0
   49.3461   -0.9698   -7.6050 H   0  0  0  0  0  0  0  0  0  0  0  0
   48.6855   -2.2696   -5.8060 H   0  0  0  0  0  0  0  0  0  0  0  0
 32 33  1  0  0  0
 33 34  1  0  0  0
 33 28  1  0  0  0
 28 29  1  0  0  0
 28 24  1  0  0  0
 24 25  2  0  0  0
 24 26  1  0  0  0
 26 23  1  0  0  0
 23 36  1  0  0  0
 36 37  1  0  0  0
 37 38  2  0  0  0
 38 39  1  0  0  0
 39 40  2  0  0  0
 40 41  1  0  0  0
 41 42  2  0  0  0
 23 19  1  0  0  0
 19 20  2  0  0  0
 19 21  1  0  0  0
 21  1  1  0  0  0
  1 43  1  0  0  0
 43 44  1  0  0  0
 44 45  1  0  0  0
 45 46  1  0  0  0
 46 48  1  0  0  0
 48 49  1  0  0  0
 48 50  2  0  0  0
  1  2  1  0  0  0
  2  3  2  0  0  0
  2  4  1  0  0  0
  4  6  1  0  0  0
  6 12  1  0  0  0
 12 13  1  0  0  0
 13 14  2  0  0  0
 14 15  1  0  0  0
 15 16  2  0  0  0
 16 17  1  0  0  0
  6  7  1  0  0  0
  7  8  1  0  0  0
  7  9  2  0  0  0
 42 37  1  0  0  0
 17 13  1  0  0  0
 34 35  1  0  0  0
 29 30  1  0  0  0
 29 31  1  0  0  0
 26 27  1  0  0  0
 21 22  1  0  0  0
 46 47  1  0  0  0
 49 51  1  0  0  0
 49 52  1  0  0  0
 50 53  1  0  0  0
  4  5  1  0  0  0
 17 18  1  0  0  0
  8 10  1  0  0  0
  8 11  1  0  0  0
M  END
> <minimizedAffinity>
-6.80629

> <CNNscore>
0.3647990525

> <CNNaffinity>
6.8893494606

> <CNN_VS>
2.5132281780

> <CNNaffinity_variance>
0.0700491443

$$$$
[H]N=C(N([H])[H])N([H])C([H])([H])C([H])([H])C([H])([H])[C@@]([H])(C(=O)N([H])[C@]([H])(C(=O)N([H])[H])C([H])([H])c1c([H])nc([H])n1[H])N([H])C(=O)[C@@]([H])(N([H])C(=O)[C@]([H])(N([H])[H])[C@]([H])(O[H])C([H])([H])[H])C([H])([H])c1c([H])c([H])c([H])c([H])c1[H]


 53 54  0  0  0  0  0  0  0  0999 V2000
   53.8274   -6.3849   -6.2597 C   0  0  0  0  0  0  0  0  0  0  0  0
   54.5952   -5.2468   -6.8861 C   0  0  0  0  0  0  0  0  0  0  0  0
   55.5575   -4.7983   -6.2187 O   0  0  0  0  0  0  0  0  0  0  0  0
   54.2248   -4.7459   -8.1500 N   0  0  0  0  0  0  0  0  0  0  0  0
   53.4214   -5.1565   -8.6522 H   0  0  0  0  0  0  0  0  0  0  0  0
   54.9556   -3.6612   -8.7622 C   0  0  0  0  0  0  0  0  0  0  0  0
   54.0280   -2.5735   -9.0267 C   0  0  0  0  0  0  0  0  0  0  0  0
   54.2233   -1.1886   -8.7372 N   0  0  0  0  0  0  0  0  0  0  0  0
   52.8925   -2.8271   -9.5785 O   0  0  0  0  0  0  0  0  0  0  0  0
   54.4308   -0.9247   -7.7576 H   0  0  0  0  0  0  0  0  0  0  0  0
   54.1683   -0.4330   -9.4526 H   0  0  0  0  0  0  0  0  0  0  0  0
   55.5935   -4.2659  -10.0173 C   0  0  0  0  0  0  0  0  0  0  0  0
   56.9506   -4.7748   -9.8311 C   0  0  0  0  0  0  0  0  0  0  0  0
   57.8820   -4.9664  -10.8534 C   0  0  0  0  0  0  0  0  0  0  0  0
   59.0157   -5.4208  -10.2860 N   0  0  0  0  0  0  0  0  0  0  0  0
   58.7994   -5.5089   -8.9555 C   0  0  0  0  0  0  0  0  0  0  0  0
   57.5594   -5.1210   -8.6831 N   0  0  0  0  0  0  0  0  0  0  0  0
   57.1529   -5.0960   -7.7151 H   0  0  0  0  0  0  0  0  0  0  0  0
   54.9255   -7.4420   -4.2931 C   0  0  0  0  0  0  0  0  0  0  0  0
   55.3269   -8.3421   -5.0704 O   0  0  0  0  0  0  0  0  0  0  0  0
   54.1559   -6.3906   -4.8376 N   0  0  0  0  0  0  0  0  0  0  0  0
   53.8012   -5.5945   -4.2397 H   0  0  0  0  0  0  0  0  0  0  0  0
   55.2780   -7.5262   -2.8567 C   0  0  0  0  0  0  0  0  0  0  0  0
   57.7378   -8.0532   -2.4647 C   0  0  0  0  0  0  0  0  0  0  0  0
   57.4695   -9.2667   -2.2273 O   0  0  0  0  0  0  0  0  0  0  0  0
   56.6920   -7.1695   -2.7756 N   0  0  0  0  0  0  0  0  0  0  0  0
   56.9474   -6.1468   -2.9720 H   0  0  0  0  0  0  0  0  0  0  0  0
   59.1480   -7.5474   -2.4218 C   0  0  0  0  0  0  0  0  0  0  0  0
   59.1679   -6.1926   -1.9697 N   0  0  0  0  0  0  0  0  0  0  0  0
   58.7267   -6.0541   -1.0403 H   0  0  0  0  0  0  0  0  0  0  0  0
   58.7227   -5.5527   -2.6556 H   0  0  0  0  0  0  0  0  0  0  0  0
   60.4547   -9.0041   -3.9884 C   0  0  0  0  0  0  0  0  0  0  0  0
   59.7788   -7.6651   -3.8020 C   0  0  0  0  0  0  0  0  0  0  0  0
   58.8737   -7.4548   -4.8115 O   0  0  0  0  0  0  0  0  0  0  0  0
   59.2384   -7.7199   -5.6753 H   0  0  0  0  0  0  0  0  0  0  0  0
   54.3955   -6.6080   -2.0785 C   0  0  0  0  0  0  0  0  0  0  0  0
   53.1823   -7.2398   -1.5184 C   0  0  0  0  0  0  0  0  0  0  0  0
   53.2452   -8.3749   -0.7642 C   0  0  0  0  0  0  0  0  0  0  0  0
   52.0686   -8.9387   -0.2790 C   0  0  0  0  0  0  0  0  0  0  0  0
   50.8251   -8.3748   -0.5426 C   0  0  0  0  0  0  0  0  0  0  0  0
   50.7843   -7.2307   -1.3045 C   0  0  0  0  0  0  0  0  0  0  0  0
   51.9560   -6.6654   -1.7901 C   0  0  0  0  0  0  0  0  0  0  0  0
   52.3586   -6.2253   -6.4219 C   0  0  0  0  0  0  0  0  0  0  0  0
   51.7955   -5.5686   -5.1759 C   0  0  0  0  0  0  0  0  0  0  0  0
   50.4497   -4.9515   -5.5055 C   0  0  0  0  0  0  0  0  0  0  0  0
   50.4445   -4.2357   -6.7490 N   0  0  0  0  0  0  0  0  0  0  0  0
   50.7392   -4.6446   -7.6591 H   0  0  0  0  0  0  0  0  0  0  0  0
   50.0120   -2.8818   -6.7435 C   0  0  0  0  0  0  0  0  0  0  0  0
   50.5093   -2.0095   -7.7625 N   0  0  0  0  0  0  0  0  0  0  0  0
   49.1887   -2.4342   -5.8461 N   0  0  0  0  0  0  0  0  0  0  0  0
   51.1920   -2.3184   -8.4747 H   0  0  0  0  0  0  0  0  0  0  0  0
   50.1739   -1.0292   -7.7911 H   0  0  0  0  0  0  0  0  0  0  0  0
   48.9087   -1.4292   -5.8934 H   0  0  0  0  0  0  0  0  0  0  0  0
 32 33  1  0  0  0
 33 34  1  0  0  0
 33 28  1  0  0  0
 28 29  1  0  0  0
 28 24  1  0  0  0
 24 25  2  0  0  0
 24 26  1  0  0  0
 26 23  1  0  0  0
 23 36  1  0  0  0
 36 37  1  0  0  0
 37 38  2  0  0  0
 38 39  1  0  0  0
 39 40  2  0  0  0
 40 41  1  0  0  0
 41 42  2  0  0  0
 23 19  1  0  0  0
 19 20  2  0  0  0
 19 21  1  0  0  0
 21  1  1  0  0  0
  1 43  1  0  0  0
 43 44  1  0  0  0
 44 45  1  0  0  0
 45 46  1  0  0  0
 46 48  1  0  0  0
 48 49  1  0  0  0
 48 50  2  0  0  0
  1  2  1  0  0  0
  2  3  2  0  0  0
  2  4  1  0  0  0
  4  6  1  0  0  0
  6 12  1  0  0  0
 12 13  1  0  0  0
 13 14  2  0  0  0
 14 15  1  0  0  0
 15 16  2  0  0  0
 16 17  1  0  0  0
  6  7  1  0  0  0
  7  8  1  0  0  0
  7  9  2  0  0  0
 42 37  1  0  0  0
 17 13  1  0  0  0
 34 35  1  0  0  0
 29 30  1  0  0  0
 29 31  1  0  0  0
 26 27  1  0  0  0
 21 22  1  0  0  0
 46 47  1  0  0  0
 49 51  1  0  0  0
 49 52  1  0  0  0
 50 53  1  0  0  0
  4  5  1  0  0  0
 17 18  1  0  0  0
  8 10  1  0  0  0
  8 11  1  0  0  0
M  END
> <minimizedAffinity>
-7.91939

> <CNNscore>
0.3585165441

> <CNNaffinity>
6.9567666054

> <CNN_VS>
2.4941158295

> <CNNaffinity_variance>
0.1603250802

$$$$
[H]N=C(N([H])[H])N([H])C([H])([H])C([H])([H])C([H])([H])[C@@]([H])(C(=O)N([H])[C@]([H])(C(=O)N([H])[H])C([H])([H])c1c([H])nc([H])n1[H])N([H])C(=O)[C@@]([H])(N([H])C(=O)[C@]([H])(N([H])[H])[C@]([H])(O[H])C([H])([H])[H])C([H])([H])c1c([H])c([H])c([H])c([H])c1[H]


 53 54  0  0  0  0  0  0  0  0999 V2000
   55.9567   -5.2285   -6.3934 C   0  0  0  0  0  0  0  0  0  0  0  0
   56.2357   -5.9469   -5.0960 C   0  0  0  0  0  0  0  0  0  0  0  0
   57.1887   -6.7619   -5.1115 O   0  0  0  0  0  0  0  0  0  0  0  0
   55.4517   -5.6887   -3.9540 N   0  0  0  0  0  0  0  0  0  0  0  0
   54.6786   -5.0059   -4.0028 H   0  0  0  0  0  0  0  0  0  0  0  0
   55.7128   -6.3656   -2.7054 C   0  0  0  0  0  0  0  0  0  0  0  0
   54.5199   -7.1040   -2.3244 C   0  0  0  0  0  0  0  0  0  0  0  0
   53.5602   -7.6966   -3.2007 N   0  0  0  0  0  0  0  0  0  0  0  0
   54.2481   -7.2718   -1.0770 O   0  0  0  0  0  0  0  0  0  0  0  0
   53.0970   -7.0836   -3.8950 H   0  0  0  0  0  0  0  0  0  0  0  0
   53.3011   -8.7056   -3.1800 H   0  0  0  0  0  0  0  0  0  0  0  0
   56.1094   -5.2574   -1.7242 C   0  0  0  0  0  0  0  0  0  0  0  0
   57.4913   -5.3205   -1.2537 C   0  0  0  0  0  0  0  0  0  0  0  0
   58.4351   -6.2644   -1.6633 C   0  0  0  0  0  0  0  0  0  0  0  0
   59.5898   -5.9806   -1.0311 N   0  0  0  0  0  0  0  0  0  0  0  0
   59.3743   -4.8966   -0.2544 C   0  0  0  0  0  0  0  0  0  0  0  0
   58.1142   -4.5009   -0.3885 N   0  0  0  0  0  0  0  0  0  0  0  0
   57.7038   -3.6736    0.1116 H   0  0  0  0  0  0  0  0  0  0  0  0
   57.8033   -5.2438   -8.0609 C   0  0  0  0  0  0  0  0  0  0  0  0
   58.0803   -4.0793   -7.6831 O   0  0  0  0  0  0  0  0  0  0  0  0
   56.7267   -5.9064   -7.4315 N   0  0  0  0  0  0  0  0  0  0  0  0
   56.4529   -6.8933   -7.6927 H   0  0  0  0  0  0  0  0  0  0  0  0
   58.6141   -5.8596   -9.1369 C   0  0  0  0  0  0  0  0  0  0  0  0
   57.2924   -4.4958  -10.8325 C   0  0  0  0  0  0  0  0  0  0  0  0
   56.1968   -4.8667  -10.3197 O   0  0  0  0  0  0  0  0  0  0  0  0
   58.4975   -4.9612  -10.2826 N   0  0  0  0  0  0  0  0  0  0  0  0
   59.4112   -4.6317  -10.7369 H   0  0  0  0  0  0  0  0  0  0  0  0
   57.3237   -3.5700  -12.0107 C   0  0  0  0  0  0  0  0  0  0  0  0
   55.9927   -3.2816  -12.4414 N   0  0  0  0  0  0  0  0  0  0  0  0
   55.3918   -2.8719  -11.7006 H   0  0  0  0  0  0  0  0  0  0  0  0
   55.5249   -4.1225  -12.8315 H   0  0  0  0  0  0  0  0  0  0  0  0
   57.8553   -3.5211  -14.4599 C   0  0  0  0  0  0  0  0  0  0  0  0
   58.1312   -4.1988  -13.1374 C   0  0  0  0  0  0  0  0  0  0  0  0
   59.4793   -4.1930  -12.8824 O   0  0  0  0  0  0  0  0  0  0  0  0
   59.9918   -4.4167  -13.6804 H   0  0  0  0  0  0  0  0  0  0  0  0
   60.0191   -6.0251   -8.6614 C   0  0  0  0  0  0  0  0  0  0  0  0
   60.8684   -6.8781   -9.5191 C   0  0  0  0  0  0  0  0  0  0  0  0
   60.7427   -8.2366   -9.5321 C   0  0  0  0  0  0  0  0  0  0  0  0
   61.5833   -8.9925  -10.3445 C   0  0  0  0  0  0  0  0  0  0  0  0
   62.5518   -8.3993  -11.1467 C   0  0  0  0  0  0  0  0  0  0  0  0
   62.6614   -7.0288  -11.1187 C   0  0  0  0  0  0  0  0  0  0  0  0
   61.8246   -6.2714  -10.3098 C   0  0  0  0  0  0  0  0  0  0  0  0
   54.5149   -5.2622   -6.7529 C   0  0  0  0  0  0  0  0  0  0  0  0
   54.2271   -4.1412   -7.7335 C   0  0  0  0  0  0  0  0  0  0  0  0
   52.8068   -4.2835   -8.2463 C   0  0  0  0  0  0  0  0  0  0  0  0
   51.8149   -4.0817   -7.2295 N   0  0  0  0  0  0  0  0  0  0  0  0
   51.6655   -4.7232   -6.4242 H   0  0  0  0  0  0  0  0  0  0  0  0
   50.9793   -2.9356   -7.3233 C   0  0  0  0  0  0  0  0  0  0  0  0
   51.2439   -1.9899   -8.3636 N   0  0  0  0  0  0  0  0  0  0  0  0
   49.9993   -2.7387   -6.4962 N   0  0  0  0  0  0  0  0  0  0  0  0
   52.0349   -2.0931   -9.0212 H   0  0  0  0  0  0  0  0  0  0  0  0
   50.6201   -1.1684   -8.4651 H   0  0  0  0  0  0  0  0  0  0  0  0
   49.4213   -1.8769   -6.6149 H   0  0  0  0  0  0  0  0  0  0  0  0
 32 33  1  0  0  0
 33 34  1  0  0  0
 33 28  1  0  0  0
 28 29  1  0  0  0
 28 24  1  0  0  0
 24 25  2  0  0  0
 24 26  1  0  0  0
 26 23  1  0  0  0
 23 36  1  0  0  0
 36 37  1  0  0  0
 37 38  2  0  0  0
 38 39  1  0  0  0
 39 40  2  0  0  0
 40 41  1  0  0  0
 41 42  2  0  0  0
 23 19  1  0  0  0
 19 20  2  0  0  0
 19 21  1  0  0  0
 21  1  1  0  0  0
  1 43  1  0  0  0
 43 44  1  0  0  0
 44 45  1  0  0  0
 45 46  1  0  0  0
 46 48  1  0  0  0
 48 49  1  0  0  0
 48 50  2  0  0  0
  1  2  1  0  0  0
  2  3  2  0  0  0
  2  4  1  0  0  0
  4  6  1  0  0  0
  6 12  1  0  0  0
 12 13  1  0  0  0
 13 14  2  0  0  0
 14 15  1  0  0  0
 15 16  2  0  0  0
 16 17  1  0  0  0
  6  7  1  0  0  0
  7  8  1  0  0  0
  7  9  2  0  0  0
 42 37  1  0  0  0
 17 13  1  0  0  0
 34 35  1  0  0  0
 29 30  1  0  0  0
 29 31  1  0  0  0
 26 27  1  0  0  0
 21 22  1  0  0  0
 46 47  1  0  0  0
 49 51  1  0  0  0
 49 52  1  0  0  0
 50 53  1  0  0  0
  4  5  1  0  0  0
 17 18  1  0  0  0
  8 10  1  0  0  0
  8 11  1  0  0  0
M  END
> <minimizedAffinity>
-6.57659

> <CNNscore>
0.2485529631

> <CNNaffinity>
6.4715704918

> <CNN_VS>
1.6085280180

> <CNNaffinity_variance>
0.1605614871

$$$$
[H]N=C(N([H])[H])N([H])C([H])([H])C([H])([H])C([H])([H])[C@@]([H])(C(=O)N([H])[C@]([H])(C(=O)N([H])[H])C([H])([H])c1c([H])nc([H])n1[H])N([H])C(=O)[C@@]([H])(N([H])C(=O)[C@]([H])(N([H])[H])[C@]([H])(O[H])C([H])([H])[H])C([H])([H])c1c([H])c([H])c([H])c([H])c1[H]


 53 54  0  0  0  0  0  0  0  0999 V2000
   52.8467   -4.2113   -8.1672 C   0  0  0  0  0  0  0  0  0  0  0  0
   54.0634   -4.2896   -9.0565 C   0  0  0  0  0  0  0  0  0  0  0  0
   53.9275   -3.8346  -10.2172 O   0  0  0  0  0  0  0  0  0  0  0  0
   55.2653   -4.8455   -8.5748 N   0  0  0  0  0  0  0  0  0  0  0  0
   55.3161   -5.2051   -7.6081 H   0  0  0  0  0  0  0  0  0  0  0  0
   56.4378   -4.9206   -9.4144 C   0  0  0  0  0  0  0  0  0  0  0  0
   57.5888   -5.2027   -8.5725 C   0  0  0  0  0  0  0  0  0  0  0  0
   58.8159   -5.8148   -8.9723 N   0  0  0  0  0  0  0  0  0  0  0  0
   57.5544   -4.8900   -7.3239 O   0  0  0  0  0  0  0  0  0  0  0  0
   58.7673   -6.7498   -9.4146 H   0  0  0  0  0  0  0  0  0  0  0  0
   59.7520   -5.3757   -8.8437 H   0  0  0  0  0  0  0  0  0  0  0  0
   56.5000   -3.5708  -10.1371 C   0  0  0  0  0  0  0  0  0  0  0  0
   56.8659   -3.6477  -11.5497 C   0  0  0  0  0  0  0  0  0  0  0  0
   58.1397   -3.9543  -12.0321 C   0  0  0  0  0  0  0  0  0  0  0  0
   58.0727   -3.9524  -13.3772 N   0  0  0  0  0  0  0  0  0  0  0  0
   56.8008   -3.6556  -13.7221 C   0  0  0  0  0  0  0  0  0  0  0  0
   56.0769   -3.4728  -12.6245 N   0  0  0  0  0  0  0  0  0  0  0  0
   55.0538   -3.2356  -12.6305 H   0  0  0  0  0  0  0  0  0  0  0  0
   52.6503   -5.9537   -6.4019 C   0  0  0  0  0  0  0  0  0  0  0  0
   51.8231   -6.5354   -7.1454 O   0  0  0  0  0  0  0  0  0  0  0  0
   53.2312   -4.7538   -6.8680 N   0  0  0  0  0  0  0  0  0  0  0  0
   53.9459   -4.2243   -6.2971 H   0  0  0  0  0  0  0  0  0  0  0  0
   52.9744   -6.5511   -5.0856 C   0  0  0  0  0  0  0  0  0  0  0  0
   55.4603   -6.8899   -4.6528 C   0  0  0  0  0  0  0  0  0  0  0  0
   55.3539   -8.1354   -4.8487 O   0  0  0  0  0  0  0  0  0  0  0  0
   54.3178   -6.0806   -4.7585 N   0  0  0  0  0  0  0  0  0  0  0  0
   54.4362   -5.0288   -4.5871 H   0  0  0  0  0  0  0  0  0  0  0  0
   56.7810   -6.2677   -4.3136 C   0  0  0  0  0  0  0  0  0  0  0  0
   57.8415   -7.0166   -4.9092 N   0  0  0  0  0  0  0  0  0  0  0  0
   57.7621   -7.1091   -5.9400 H   0  0  0  0  0  0  0  0  0  0  0  0
   57.9266   -7.9622   -4.4890 H   0  0  0  0  0  0  0  0  0  0  0  0
   56.8313   -4.7878   -2.2910 C   0  0  0  0  0  0  0  0  0  0  0  0
   56.9469   -6.2055   -2.8019 C   0  0  0  0  0  0  0  0  0  0  0  0
   56.0546   -7.0130   -2.1431 O   0  0  0  0  0  0  0  0  0  0  0  0
   56.0407   -6.8205   -1.1879 H   0  0  0  0  0  0  0  0  0  0  0  0
   51.9465   -6.1316   -4.0881 C   0  0  0  0  0  0  0  0  0  0  0  0
   52.3389   -6.3204   -2.6756 C   0  0  0  0  0  0  0  0  0  0  0  0
   52.8105   -5.2899   -1.9161 C   0  0  0  0  0  0  0  0  0  0  0  0
   53.1848   -5.5292   -0.5969 C   0  0  0  0  0  0  0  0  0  0  0  0
   53.0910   -6.7949   -0.0288 C   0  0  0  0  0  0  0  0  0  0  0  0
   52.6128   -7.8194   -0.8116 C   0  0  0  0  0  0  0  0  0  0  0  0
   52.2383   -7.5844   -2.1280 C   0  0  0  0  0  0  0  0  0  0  0  0
   52.3703   -2.8142   -7.9925 C   0  0  0  0  0  0  0  0  0  0  0  0
   50.8588   -2.7915   -8.1184 C   0  0  0  0  0  0  0  0  0  0  0  0
   50.2475   -3.3738   -6.8584 C   0  0  0  0  0  0  0  0  0  0  0  0
   49.5319   -2.4064   -6.0770 N   0  0  0  0  0  0  0  0  0  0  0  0
   49.4841   -1.3923   -6.3045 H   0  0  0  0  0  0  0  0  0  0  0  0
   48.8440   -2.8550   -4.9169 C   0  0  0  0  0  0  0  0  0  0  0  0
   49.4752   -3.8427   -4.0967 N   0  0  0  0  0  0  0  0  0  0  0  0
   47.6755   -2.3910   -4.5968 N   0  0  0  0  0  0  0  0  0  0  0  0
   50.3897   -4.2619   -4.3350 H   0  0  0  0  0  0  0  0  0  0  0  0
   49.0004   -4.1520   -3.2290 H   0  0  0  0  0  0  0  0  0  0  0  0
   47.2192   -2.7608   -3.7332 H   0  0  0  0  0  0  0  0  0  0  0  0
 32 33  1  0  0  0
 33 34  1  0  0  0
 33 28  1  0  0  0
 28 29  1  0  0  0
 28 24  1  0  0  0
 24 25  2  0  0  0
 24 26  1  0  0  0
 26 23  1  0  0  0
 23 36  1  0  0  0
 36 37  1  0  0  0
 37 38  2  0  0  0
 38 39  1  0  0  0
 39 40  2  0  0  0
 40 41  1  0  0  0
 41 42  2  0  0  0
 23 19  1  0  0  0
 19 20  2  0  0  0
 19 21  1  0  0  0
 21  1  1  0  0  0
  1 43  1  0  0  0
 43 44  1  0  0  0
 44 45  1  0  0  0
 45 46  1  0  0  0
 46 48  1  0  0  0
 48 49  1  0  0  0
 48 50  2  0  0  0
  1  2  1  0  0  0
  2  3  2  0  0  0
  2  4  1  0  0  0
  4  6  1  0  0  0
  6 12  1  0  0  0
 12 13  1  0  0  0
 13 14  2  0  0  0
 14 15  1  0  0  0
 15 16  2  0  0  0
 16 17  1  0  0  0
  6  7  1  0  0  0
  7  8  1  0  0  0
  7  9  2  0  0  0
 42 37  1  0  0  0
 17 13  1  0  0  0
 34 35  1  0  0  0
 29 30  1  0  0  0
 29 31  1  0  0  0
 26 27  1  0  0  0
 21 22  1  0  0  0
 46 47  1  0  0  0
 49 51  1  0  0  0
 49 52  1  0  0  0
 50 53  1  0  0  0
  4  5  1  0  0  0
 17 18  1  0  0  0
  8 10  1  0  0  0
  8 11  1  0  0  0
M  END
> <minimizedAffinity>
-7.99394

> <CNNscore>
0.2328897566

> <CNNaffinity>
6.8707785606

> <CNN_VS>
1.6001338959

> <CNNaffinity_variance>
0.1999169290

$$$$
[H]N=C(N([H])[H])N([H])C([H])([H])C([H])([H])C([H])([H])[C@@]([H])(C(=O)N([H])[C@]([H])(C(=O)N([H])[H])C([H])([H])c1c([H])nc([H])n1[H])N([H])C(=O)[C@@]([H])(N([H])C(=O)[C@]([H])(N([H])[H])[C@]([H])(O[H])C([H])([H])[H])C([H])([H])c1c([H])c([H])c([H])c([H])c1[H]


 53 54  0  0  0  0  0  0  0  0999 V2000
   55.3689   -4.7341   -7.8590 C   0  0  0  0  0  0  0  0  0  0  0  0
   56.7597   -4.7095   -8.4438 C   0  0  0  0  0  0  0  0  0  0  0  0
   57.7042   -4.7081   -7.6188 O   0  0  0  0  0  0  0  0  0  0  0  0
   56.9469   -4.6925   -9.8403 N   0  0  0  0  0  0  0  0  0  0  0  0
   56.1288   -4.6941  -10.4703 H   0  0  0  0  0  0  0  0  0  0  0  0
   58.2731   -4.6748  -10.4117 C   0  0  0  0  0  0  0  0  0  0  0  0
   58.1893   -4.1149  -11.7507 C   0  0  0  0  0  0  0  0  0  0  0  0
   57.1843   -3.2319  -12.2511 N   0  0  0  0  0  0  0  0  0  0  0  0
   59.0899   -4.4133  -12.6214 O   0  0  0  0  0  0  0  0  0  0  0  0
   56.1980   -3.5427  -12.1965 H   0  0  0  0  0  0  0  0  0  0  0  0
   57.3871   -2.2981  -12.6665 H   0  0  0  0  0  0  0  0  0  0  0  0
   58.7489   -6.1306  -10.3650 C   0  0  0  0  0  0  0  0  0  0  0  0
   60.0102   -6.3412   -9.6579 C   0  0  0  0  0  0  0  0  0  0  0  0
   61.2743   -6.3210  -10.2506 C   0  0  0  0  0  0  0  0  0  0  0  0
   62.1799   -6.5294   -9.2759 N   0  0  0  0  0  0  0  0  0  0  0  0
   61.5044   -6.6737   -8.1150 C   0  0  0  0  0  0  0  0  0  0  0  0
   60.2018   -6.5607   -8.3452 N   0  0  0  0  0  0  0  0  0  0  0  0
   59.4669   -6.6316   -7.5983 H   0  0  0  0  0  0  0  0  0  0  0  0
   54.7321   -5.8077   -5.7067 C   0  0  0  0  0  0  0  0  0  0  0  0
   53.9365   -6.5236   -6.3624 O   0  0  0  0  0  0  0  0  0  0  0  0
   55.5154   -4.8688   -6.4131 N   0  0  0  0  0  0  0  0  0  0  0  0
   56.2151   -4.2474   -5.9218 H   0  0  0  0  0  0  0  0  0  0  0  0
   54.8101   -5.9838   -4.2378 C   0  0  0  0  0  0  0  0  0  0  0  0
   52.7570   -6.3173   -2.7697 C   0  0  0  0  0  0  0  0  0  0  0  0
   53.0857   -5.3387   -2.0382 O   0  0  0  0  0  0  0  0  0  0  0  0
   53.5760   -6.6652   -3.8558 N   0  0  0  0  0  0  0  0  0  0  0  0
   53.2743   -7.4988   -4.4589 H   0  0  0  0  0  0  0  0  0  0  0  0
   51.5117   -7.1058   -2.4976 C   0  0  0  0  0  0  0  0  0  0  0  0
   50.4475   -6.2272   -2.1292 N   0  0  0  0  0  0  0  0  0  0  0  0
   50.2418   -5.4973   -2.8381 H   0  0  0  0  0  0  0  0  0  0  0  0
   50.6262   -5.7706   -1.2139 H   0  0  0  0  0  0  0  0  0  0  0  0
   50.5165   -8.8616   -1.0109 C   0  0  0  0  0  0  0  0  0  0  0  0
   51.7774   -8.1230   -1.3970 C   0  0  0  0  0  0  0  0  0  0  0  0
   52.7577   -9.0202   -1.7381 O   0  0  0  0  0  0  0  0  0  0  0  0
   52.7828   -9.7707   -1.1171 H   0  0  0  0  0  0  0  0  0  0  0  0
   56.0386   -6.7611   -3.8997 C   0  0  0  0  0  0  0  0  0  0  0  0
   56.9580   -6.0898   -2.9570 C   0  0  0  0  0  0  0  0  0  0  0  0
   56.7007   -4.8433   -2.4658 C   0  0  0  0  0  0  0  0  0  0  0  0
   57.6119   -4.2502   -1.5965 C   0  0  0  0  0  0  0  0  0  0  0  0
   58.7824   -4.8954   -1.2129 C   0  0  0  0  0  0  0  0  0  0  0  0
   59.0223   -6.1512   -1.7195 C   0  0  0  0  0  0  0  0  0  0  0  0
   58.1155   -6.7462   -2.5867 C   0  0  0  0  0  0  0  0  0  0  0  0
   54.6129   -3.4904   -8.1605 C   0  0  0  0  0  0  0  0  0  0  0  0
   53.3027   -3.8618   -8.8284 C   0  0  0  0  0  0  0  0  0  0  0  0
   52.1522   -3.3888   -7.9607 C   0  0  0  0  0  0  0  0  0  0  0  0
   51.7981   -4.3231   -6.9312 N   0  0  0  0  0  0  0  0  0  0  0  0
   52.3052   -5.2136   -6.7514 H   0  0  0  0  0  0  0  0  0  0  0  0
   50.6842   -4.0198   -6.1019 C   0  0  0  0  0  0  0  0  0  0  0  0
   49.8969   -2.8692   -6.4223 N   0  0  0  0  0  0  0  0  0  0  0  0
   50.3767   -4.7566   -5.0792 N   0  0  0  0  0  0  0  0  0  0  0  0
   50.1282   -2.2380   -7.2077 H   0  0  0  0  0  0  0  0  0  0  0  0
   49.0611   -2.6573   -5.8470 H   0  0  0  0  0  0  0  0  0  0  0  0
   49.5477   -4.4818   -4.5067 H   0  0  0  0  0  0  0  0  0  0  0  0
 32 33  1  0  0  0
 33 34  1  0  0  0
 33 28  1  0  0  0
 28 29  1  0  0  0
 28 24  1  0  0  0
 24 25  2  0  0  0
 24 26  1  0  0  0
 26 23  1  0  0  0
 23 36  1  0  0  0
 36 37  1  0  0  0
 37 38  2  0  0  0
 38 39  1  0  0  0
 39 40  2  0  0  0
 40 41  1  0  0  0
 41 42  2  0  0  0
 23 19  1  0  0  0
 19 20  2  0  0  0
 19 21  1  0  0  0
 21  1  1  0  0  0
  1 43  1  0  0  0
 43 44  1  0  0  0
 44 45  1  0  0  0
 45 46  1  0  0  0
 46 48  1  0  0  0
 48 49  1  0  0  0
 48 50  2  0  0  0
  1  2  1  0  0  0
  2  3  2  0  0  0
  2  4  1  0  0  0
  4  6  1  0  0  0
  6 12  1  0  0  0
 12 13  1  0  0  0
 13 14  2  0  0  0
 14 15  1  0  0  0
 15 16  2  0  0  0
 16 17  1  0  0  0
  6  7  1  0  0  0
  7  8  1  0  0  0
  7  9  2  0  0  0
 42 37  1  0  0  0
 17 13  1  0  0  0
 34 35  1  0  0  0
 29 30  1  0  0  0
 29 31  1  0  0  0
 26 27  1  0  0  0
 21 22  1  0  0  0
 46 47  1  0  0  0
 49 51  1  0  0  0
 49 52  1  0  0  0
 50 53  1  0  0  0
  4  5  1  0  0  0
 17 18  1  0  0  0
  8 10  1  0  0  0
  8 11  1  0  0  0
M  END
> <minimizedAffinity>
-7.31075

> <CNNscore>
0.2216627449

> <CNNaffinity>
6.6374878883

> <CNN_VS>
1.4712837934

> <CNNaffinity_variance>
0.3222502768

$$$$
[H]N=C(N([H])[H])N([H])C([H])([H])C([H])([H])C([H])([H])[C@@]([H])(C(=O)N([H])[C@]([H])(C(=O)N([H])[H])C([H])([H])c1c([H])nc([H])n1[H])N([H])C(=O)[C@@]([H])(N([H])C(=O)[C@]([H])(N([H])[H])[C@]([H])(O[H])C([H])([H])[H])C([H])([H])c1c([H])c([H])c([H])c([H])c1[H]


 53 54  0  0  0  0  0  0  0  0999 V2000
   53.3366   -4.4198   -7.9598 C   0  0  0  0  0  0  0  0  0  0  0  0
   54.4230   -4.5084   -9.0034 C   0  0  0  0  0  0  0  0  0  0  0  0
   54.0924   -4.1916  -10.1709 O   0  0  0  0  0  0  0  0  0  0  0  0
   55.7218   -4.9240   -8.6485 N   0  0  0  0  0  0  0  0  0  0  0  0
   55.9340   -5.1728   -7.6691 H   0  0  0  0  0  0  0  0  0  0  0  0
   56.7711   -5.0070   -9.6372 C   0  0  0  0  0  0  0  0  0  0  0  0
   58.0104   -5.3590   -8.9639 C   0  0  0  0  0  0  0  0  0  0  0  0
   59.0462   -6.2082   -9.4600 N   0  0  0  0  0  0  0  0  0  0  0  0
   58.2534   -4.8845   -7.7917 O   0  0  0  0  0  0  0  0  0  0  0  0
   58.7892   -7.1727   -9.7355 H   0  0  0  0  0  0  0  0  0  0  0  0
   60.0406   -5.9132   -9.5589 H   0  0  0  0  0  0  0  0  0  0  0  0
   56.7902   -3.6340  -10.3174 C   0  0  0  0  0  0  0  0  0  0  0  0
   57.0274   -3.6669  -11.7588 C   0  0  0  0  0  0  0  0  0  0  0  0
   58.2637   -3.9051  -12.3625 C   0  0  0  0  0  0  0  0  0  0  0  0
   58.0730   -3.8804  -13.6953 N   0  0  0  0  0  0  0  0  0  0  0  0
   56.7629   -3.6362  -13.9159 C   0  0  0  0  0  0  0  0  0  0  0  0
   56.1357   -3.5081  -12.7528 N   0  0  0  0  0  0  0  0  0  0  0  0
   55.1070   -3.3183  -12.6601 H   0  0  0  0  0  0  0  0  0  0  0  0
   53.3623   -5.5873   -5.7627 C   0  0  0  0  0  0  0  0  0  0  0  0
   52.3022   -6.1589   -6.1161 O   0  0  0  0  0  0  0  0  0  0  0  0
   53.9622   -4.6846   -6.6679 N   0  0  0  0  0  0  0  0  0  0  0  0
   54.8636   -4.1832   -6.4372 H   0  0  0  0  0  0  0  0  0  0  0  0
   53.9270   -5.8877   -4.4265 C   0  0  0  0  0  0  0  0  0  0  0  0
   52.4334   -6.5617   -2.4780 C   0  0  0  0  0  0  0  0  0  0  0  0
   52.8270   -5.5711   -1.7963 O   0  0  0  0  0  0  0  0  0  0  0  0
   52.9496   -6.7517   -3.7698 N   0  0  0  0  0  0  0  0  0  0  0  0
   52.5993   -7.5993   -4.3253 H   0  0  0  0  0  0  0  0  0  0  0  0
   51.4280   -7.5295   -1.9315 C   0  0  0  0  0  0  0  0  0  0  0  0
   50.3821   -6.8227   -1.2630 N   0  0  0  0  0  0  0  0  0  0  0  0
   49.8968   -6.1272   -1.8616 H   0  0  0  0  0  0  0  0  0  0  0  0
   50.7259   -6.3505   -0.4045 H   0  0  0  0  0  0  0  0  0  0  0  0
   51.5781   -9.9062   -1.1487 C   0  0  0  0  0  0  0  0  0  0  0  0
   52.1137   -8.5026   -0.9830 C   0  0  0  0  0  0  0  0  0  0  0  0
   53.4779   -8.5035   -1.1292 O   0  0  0  0  0  0  0  0  0  0  0  0
   53.8838   -9.2567   -0.6628 H   0  0  0  0  0  0  0  0  0  0  0  0
   55.2634   -6.5318   -4.5902 C   0  0  0  0  0  0  0  0  0  0  0  0
   56.2820   -6.1068   -3.6070 C   0  0  0  0  0  0  0  0  0  0  0  0
   57.3331   -6.9078   -3.2683 C   0  0  0  0  0  0  0  0  0  0  0  0
   58.2518   -6.4648   -2.3208 C   0  0  0  0  0  0  0  0  0  0  0  0
   58.1277   -5.2233   -1.7072 C   0  0  0  0  0  0  0  0  0  0  0  0
   57.0611   -4.4316   -2.0633 C   0  0  0  0  0  0  0  0  0  0  0  0
   56.1428   -4.8700   -3.0082 C   0  0  0  0  0  0  0  0  0  0  0  0
   52.6987   -3.0777   -7.9286 C   0  0  0  0  0  0  0  0  0  0  0  0
   51.1966   -3.2449   -8.0575 C   0  0  0  0  0  0  0  0  0  0  0  0
   50.5398   -2.8525   -6.7479 C   0  0  0  0  0  0  0  0  0  0  0  0
   50.2089   -3.9774   -5.9211 N   0  0  0  0  0  0  0  0  0  0  0  0
   50.4670   -4.9606   -6.1426 H   0  0  0  0  0  0  0  0  0  0  0  0
   49.4812   -3.7405   -4.7233 C   0  0  0  0  0  0  0  0  0  0  0  0
   49.6207   -4.6776   -3.6515 N   0  0  0  0  0  0  0  0  0  0  0  0
   48.7079   -2.7073   -4.5901 N   0  0  0  0  0  0  0  0  0  0  0  0
   50.1999   -5.5304   -3.7300 H   0  0  0  0  0  0  0  0  0  0  0  0
   49.1237   -4.4976   -2.7600 H   0  0  0  0  0  0  0  0  0  0  0  0
   48.1978   -2.5881   -3.6866 H   0  0  0  0  0  0  0  0  0  0  0  0
 32 33  1  0  0  0
 33 34  1  0  0  0
 33 28  1  0  0  0
 28 29  1  0  0  0
 28 24  1  0  0  0
 24 25  2  0  0  0
 24 26  1  0  0  0
 26 23  1  0  0  0
 23 36  1  0  0  0
 36 37  1  0  0  0
 37 38  2  0  0  0
 38 39  1  0  0  0
 39 40  2  0  0  0
 40 41  1  0  0  0
 41 42  2  0  0  0
 23 19  1  0  0  0
 19 20  2  0  0  0
 19 21  1  0  0  0
 21  1  1  0  0  0
  1 43  1  0  0  0
 43 44  1  0  0  0
 44 45  1  0  0  0
 45 46  1  0  0  0
 46 48  1  0  0  0
 48 49  1  0  0  0
 48 50  2  0  0  0
  1  2  1  0  0  0
  2  3  2  0  0  0
  2  4  1  0  0  0
  4  6  1  0  0  0
  6 12  1  0  0  0
 12 13  1  0  0  0
 13 14  2  0  0  0
 14 15  1  0  0  0
 15 16  2  0  0  0
 16 17  1  0  0  0
  6  7  1  0  0  0
  7  8  1  0  0  0
  7  9  2  0  0  0
 42 37  1  0  0  0
 17 13  1  0  0  0
 34 35  1  0  0  0
 29 30  1  0  0  0
 29 31  1  0  0  0
 26 27  1  0  0  0
 21 22  1  0  0  0
 46 47  1  0  0  0
 49 51  1  0  0  0
 49 52  1  0  0  0
 50 53  1  0  0  0
  4  5  1  0  0  0
 17 18  1  0  0  0
  8 10  1  0  0  0
  8 11  1  0  0  0
M  END
> <minimizedAffinity>
-7.97349

> <CNNscore>
0.2178472579

> <CNNaffinity>
6.8910355568

> <CNN_VS>
1.5011931658

> <CNNaffinity_variance>
0.2405621558

$$$$
[H]N=C(N([H])[H])N([H])C([H])([H])C([H])([H])C([H])([H])[C@@]([H])(C(=O)N([H])[C@]([H])(C(=O)N([H])[H])C([H])([H])c1c([H])nc([H])n1[H])N([H])C(=O)[C@@]([H])(N([H])C(=O)[C@]([H])(N([H])[H])[C@]([H])(O[H])C([H])([H])[H])C([H])([H])c1c([H])c([H])c([H])c([H])c1[H]


 53 54  0  0  0  0  0  0  0  0999 V2000
   57.9463   -4.8832   -8.6375 C   0  0  0  0  0  0  0  0  0  0  0  0
   56.9570   -4.8736   -7.4981 C   0  0  0  0  0  0  0  0  0  0  0  0
   56.5119   -3.7496   -7.1645 O   0  0  0  0  0  0  0  0  0  0  0  0
   56.5772   -6.0776   -6.8722 N   0  0  0  0  0  0  0  0  0  0  0  0
   56.9789   -6.9737   -7.1913 H   0  0  0  0  0  0  0  0  0  0  0  0
   55.6269   -6.0816   -5.7848 C   0  0  0  0  0  0  0  0  0  0  0  0
   56.1464   -6.9282   -4.7234 C   0  0  0  0  0  0  0  0  0  0  0  0
   55.3958   -7.7915   -3.8682 N   0  0  0  0  0  0  0  0  0  0  0  0
   57.4113   -6.9405   -4.4825 O   0  0  0  0  0  0  0  0  0  0  0  0
   54.6278   -7.3731   -3.3137 H   0  0  0  0  0  0  0  0  0  0  0  0
   55.5773   -8.8129   -3.7711 H   0  0  0  0  0  0  0  0  0  0  0  0
   54.3144   -6.5767   -6.4017 C   0  0  0  0  0  0  0  0  0  0  0  0
   53.3769   -5.5209   -6.7777 C   0  0  0  0  0  0  0  0  0  0  0  0
   52.1858   -5.2312   -6.1092 C   0  0  0  0  0  0  0  0  0  0  0  0
   51.6158   -4.1845   -6.7362 N   0  0  0  0  0  0  0  0  0  0  0  0
   52.4237   -3.8327   -7.7601 C   0  0  0  0  0  0  0  0  0  0  0  0
   53.4807   -4.6355   -7.7844 N   0  0  0  0  0  0  0  0  0  0  0  0
   54.2571   -4.5602   -8.4876 H   0  0  0  0  0  0  0  0  0  0  0  0
   59.9830   -6.1827   -9.2325 C   0  0  0  0  0  0  0  0  0  0  0  0
   59.9377   -5.6326  -10.3598 O   0  0  0  0  0  0  0  0  0  0  0  0
   58.9947   -5.8357   -8.2854 N   0  0  0  0  0  0  0  0  0  0  0  0
   58.9863   -6.2512   -7.3136 H   0  0  0  0  0  0  0  0  0  0  0  0
   61.0628   -7.1580   -8.9542 C   0  0  0  0  0  0  0  0  0  0  0  0
   62.0091   -8.0256   -6.7556 C   0  0  0  0  0  0  0  0  0  0  0  0
   63.0777   -8.3904   -7.3265 O   0  0  0  0  0  0  0  0  0  0  0  0
   60.9983   -7.4194   -7.5187 N   0  0  0  0  0  0  0  0  0  0  0  0
   60.1031   -7.1205   -7.0099 H   0  0  0  0  0  0  0  0  0  0  0  0
   61.8073   -8.2273   -5.2842 C   0  0  0  0  0  0  0  0  0  0  0  0
   60.4499   -7.9526   -4.9347 N   0  0  0  0  0  0  0  0  0  0  0  0
   59.7585   -8.5251   -5.4562 H   0  0  0  0  0  0  0  0  0  0  0  0
   60.2184   -6.9476   -5.0553 H   0  0  0  0  0  0  0  0  0  0  0  0
   63.7147   -8.1348   -3.6603 C   0  0  0  0  0  0  0  0  0  0  0  0
   62.7575   -7.3276   -4.5068 C   0  0  0  0  0  0  0  0  0  0  0  0
   63.4597   -6.4773   -5.3231 O   0  0  0  0  0  0  0  0  0  0  0  0
   64.1924   -6.0500   -4.8433 H   0  0  0  0  0  0  0  0  0  0  0  0
   60.8481   -8.3802   -9.7836 C   0  0  0  0  0  0  0  0  0  0  0  0
   62.0094   -8.7862  -10.6029 C   0  0  0  0  0  0  0  0  0  0  0  0
   62.7082   -7.8879  -11.3553 C   0  0  0  0  0  0  0  0  0  0  0  0
   63.7813   -8.3294  -12.1242 C   0  0  0  0  0  0  0  0  0  0  0  0
   64.1629   -9.6663  -12.1471 C   0  0  0  0  0  0  0  0  0  0  0  0
   63.4452  -10.5550  -11.3813 C   0  0  0  0  0  0  0  0  0  0  0  0
   62.3742  -10.1182  -10.6129 C   0  0  0  0  0  0  0  0  0  0  0  0
   57.3192   -5.2976   -9.9198 C   0  0  0  0  0  0  0  0  0  0  0  0
   56.2655   -4.2762  -10.3037 C   0  0  0  0  0  0  0  0  0  0  0  0
   56.2168   -4.1582  -11.8151 C   0  0  0  0  0  0  0  0  0  0  0  0
   57.0886   -3.1427  -12.3320 N   0  0  0  0  0  0  0  0  0  0  0  0
   57.0065   -2.1311  -12.1033 H   0  0  0  0  0  0  0  0  0  0  0  0
   58.1311   -3.5368  -13.2141 C   0  0  0  0  0  0  0  0  0  0  0  0
   59.3727   -3.9627  -12.6451 N   0  0  0  0  0  0  0  0  0  0  0  0
   57.9765   -3.5169  -14.5021 N   0  0  0  0  0  0  0  0  0  0  0  0
   59.5472   -3.9610  -11.6261 H   0  0  0  0  0  0  0  0  0  0  0  0
   60.1286   -4.2867  -13.2760 H   0  0  0  0  0  0  0  0  0  0  0  0
   58.7797   -3.8165  -15.0986 H   0  0  0  0  0  0  0  0  0  0  0  0
 32 33  1  0  0  0
 33 34  1  0  0  0
 33 28  1  0  0  0
 28 29  1  0  0  0
 28 24  1  0  0  0
 24 25  2  0  0  0
 24 26  1  0  0  0
 26 23  1  0  0  0
 23 36  1  0  0  0
 36 37  1  0  0  0
 37 38  2  0  0  0
 38 39  1  0  0  0
 39 40  2  0  0  0
 40 41  1  0  0  0
 41 42  2  0  0  0
 23 19  1  0  0  0
 19 20  2  0  0  0
 19 21  1  0  0  0
 21  1  1  0  0  0
  1 43  1  0  0  0
 43 44  1  0  0  0
 44 45  1  0  0  0
 45 46  1  0  0  0
 46 48  1  0  0  0
 48 49  1  0  0  0
 48 50  2  0  0  0
  1  2  1  0  0  0
  2  3  2  0  0  0
  2  4  1  0  0  0
  4  6  1  0  0  0
  6 12  1  0  0  0
 12 13  1  0  0  0
 13 14  2  0  0  0
 14 15  1  0  0  0
 15 16  2  0  0  0
 16 17  1  0  0  0
  6  7  1  0  0  0
  7  8  1  0  0  0
  7  9  2  0  0  0
 42 37  1  0  0  0
 17 13  1  0  0  0
 34 35  1  0  0  0
 29 30  1  0  0  0
 29 31  1  0  0  0
 26 27  1  0  0  0
 21 22  1  0  0  0
 46 47  1  0  0  0
 49 51  1  0  0  0
 49 52  1  0  0  0
 50 53  1  0  0  0
  4  5  1  0  0  0
 17 18  1  0  0  0
  8 10  1  0  0  0
  8 11  1  0  0  0
M  END
> <minimizedAffinity>
-7.16359

> <CNNscore>
0.2085230201

> <CNNaffinity>
5.7042016983

> <CNN_VS>
1.1894574165

> <CNNaffinity_variance>
0.6035675406

$$$$
[H]N=C(N([H])[H])N([H])C([H])([H])C([H])([H])C([H])([H])[C@@]([H])(C([H])=O)N([H])C(=O)[C@@]1([H])N(C(=O)[C@@]([H])(N([H])C(=O)[C@@]([H])(N([H])[H])C([H])([H])C([H])(C([H])([H])[H])C([H])([H])[H])C([H])([H])c2c([H])c([H])c([H])c([H])c2[H])C([H])([H])C([H])([H])C1([H])[H]


 45 46  0  0  0  0  0  0  0  0999 V2000
   54.5260   -4.2049   -9.6264 C   0  0  0  0  0  0  0  0  0  0  0  0
   54.2306   -4.2522  -10.8728 O   0  0  0  0  0  0  0  0  0  0  0  0
   55.8821   -4.1236   -9.2821 N   0  0  0  0  0  0  0  0  0  0  0  0
   56.2623   -3.9588   -7.8397 C   0  0  0  0  0  0  0  0  0  0  0  0
   57.4060   -4.8957   -7.6544 C   0  0  0  0  0  0  0  0  0  0  0  0
   57.7989   -5.3154   -9.0529 C   0  0  0  0  0  0  0  0  0  0  0  0
   57.1529   -4.1663   -9.8805 C   0  0  0  0  0  0  0  0  0  0  0  0
   57.3624   -4.3574  -11.2856 C   0  0  0  0  0  0  0  0  0  0  0  0
   58.0443   -5.2013  -11.9076 O   0  0  0  0  0  0  0  0  0  0  0  0
   56.6809   -3.4251  -12.1640 N   0  0  0  0  0  0  0  0  0  0  0  0
   56.0961   -2.6967  -11.7181 H   0  0  0  0  0  0  0  0  0  0  0  0
   56.7905   -3.4802  -13.6003 C   0  0  0  0  0  0  0  0  0  0  0  0
   55.9729   -4.5778  -14.1788 C   0  0  0  0  0  0  0  0  0  0  0  0
   56.5526   -5.4674  -14.7679 O   0  0  0  0  0  0  0  0  0  0  0  0
   58.2254   -3.5988  -13.9953 C   0  0  0  0  0  0  0  0  0  0  0  0
   58.4076   -3.7041  -15.4946 C   0  0  0  0  0  0  0  0  0  0  0  0
   58.2857   -2.3583  -16.1665 C   0  0  0  0  0  0  0  0  0  0  0  0
   57.5472   -2.4533  -17.4247 N   0  0  0  0  0  0  0  0  0  0  0  0
   57.9068   -1.9485  -18.2511 H   0  0  0  0  0  0  0  0  0  0  0  0
   56.3537   -3.2237  -17.5206 C   0  0  0  0  0  0  0  0  0  0  0  0
   55.1155   -2.5884  -17.2493 N   0  0  0  0  0  0  0  0  0  0  0  0
   56.3725   -4.4540  -17.8406 N   0  0  0  0  0  0  0  0  0  0  0  0
   54.1989   -3.0907  -17.3492 H   0  0  0  0  0  0  0  0  0  0  0  0
   55.0662   -1.5885  -16.9378 H   0  0  0  0  0  0  0  0  0  0  0  0
   57.2842   -4.9104  -18.0379 H   0  0  0  0  0  0  0  0  0  0  0  0
   53.3851   -4.2412   -8.6781 C   0  0  0  0  0  0  0  0  0  0  0  0
   53.7261   -5.8649   -6.8024 C   0  0  0  0  0  0  0  0  0  0  0  0
   53.1244   -6.7344   -7.4799 O   0  0  0  0  0  0  0  0  0  0  0  0
   53.8937   -4.5780   -7.3521 N   0  0  0  0  0  0  0  0  0  0  0  0
   54.3958   -3.8573   -6.8016 H   0  0  0  0  0  0  0  0  0  0  0  0
   54.2477   -6.1769   -5.4616 C   0  0  0  0  0  0  0  0  0  0  0  0
   53.1540   -6.4345   -4.5586 N   0  0  0  0  0  0  0  0  0  0  0  0
   52.5538   -7.2237   -4.8649 H   0  0  0  0  0  0  0  0  0  0  0  0
   52.5640   -5.5843   -4.4862 H   0  0  0  0  0  0  0  0  0  0  0  0
   55.1747   -7.3844   -5.5196 C   0  0  0  0  0  0  0  0  0  0  0  0
   56.0586   -8.0051   -3.2934 C   0  0  0  0  0  0  0  0  0  0  0  0
   56.3146   -7.1968   -4.5482 C   0  0  0  0  0  0  0  0  0  0  0  0
   56.4171   -5.7388   -4.1554 C   0  0  0  0  0  0  0  0  0  0  0  0
   52.6894   -2.9073   -8.5148 C   0  0  0  0  0  0  0  0  0  0  0  0
   51.4846   -2.9648   -7.6534 C   0  0  0  0  0  0  0  0  0  0  0  0
   51.2615   -4.0287   -6.7951 C   0  0  0  0  0  0  0  0  0  0  0  0
   50.1733   -4.1149   -5.9786 C   0  0  0  0  0  0  0  0  0  0  0  0
   49.2327   -3.1376   -5.9677 C   0  0  0  0  0  0  0  0  0  0  0  0
   49.4121   -2.0523   -6.8097 C   0  0  0  0  0  0  0  0  0  0  0  0
   50.5174   -1.9809   -7.6286 C   0  0  0  0  0  0  0  0  0  0  0  0
 36 37  1  0  0  0
 37 38  1  0  0  0
 37 35  1  0  0  0
 35 31  1  0  0  0
 31 32  1  0  0  0
 31 27  1  0  0  0
 27 28  2  0  0  0
 27 29  1  0  0  0
 29 26  1  0  0  0
 26 39  1  0  0  0
 39 40  1  0  0  0
 40 41  2  0  0  0
 41 42  1  0  0  0
 42 43  2  0  0  0
 43 44  1  0  0  0
 44 45  2  0  0  0
 26  1  1  0  0  0
  1  2  2  0  0  0
  1  3  1  0  0  0
  3  4  1  0  0  0
  4  5  1  0  0  0
  5  6  1  0  0  0
  6  7  1  0  0  0
  7  8  1  0  0  0
  8  9  2  0  0  0
  8 10  1  0  0  0
 10 12  1  0  0  0
 12 15  1  0  0  0
 15 16  1  0  0  0
 16 17  1  0  0  0
 17 18  1  0  0  0
 18 20  1  0  0  0
 20 21  1  0  0  0
 20 22  2  0  0  0
 12 13  1  0  0  0
 13 14  2  0  0  0
 45 40  1  0  0  0
  7  3  1  0  0  0
 32 33  1  0  0  0
 32 34  1  0  0  0
 29 30  1  0  0  0
 10 11  1  0  0  0
 18 19  1  0  0  0
 21 23  1  0  0  0
 21 24  1  0  0  0
 22 25  1  0  0  0
M  END
> <minimizedAffinity>
-7.63251

> <CNNscore>
0.5344786644

> <CNNaffinity>
7.1858201027

> <CNN_VS>
3.8406674862

> <CNNaffinity_variance>
0.2048511207

$$$$
[H]N=C(N([H])[H])N([H])C([H])([H])C([H])([H])C([H])([H])[C@@]([H])(C([H])=O)N([H])C(=O)[C@@]1([H])N(C(=O)[C@@]([H])(N([H])C(=O)[C@@]([H])(N([H])[H])C([H])([H])C([H])(C([H])([H])[H])C([H])([H])[H])C([H])([H])c2c([H])c([H])c([H])c([H])c2[H])C([H])([H])C([H])([H])C1([H])[H]


 45 46  0  0  0  0  0  0  0  0999 V2000
   54.7307   -4.2342   -9.6431 C   0  0  0  0  0  0  0  0  0  0  0  0
   54.3142   -4.2573  -10.8551 O   0  0  0  0  0  0  0  0  0  0  0  0
   56.1148   -4.1717   -9.4322 N   0  0  0  0  0  0  0  0  0  0  0  0
   56.6362   -4.0353   -8.0315 C   0  0  0  0  0  0  0  0  0  0  0  0
   57.7820   -4.9861   -7.9745 C   0  0  0  0  0  0  0  0  0  0  0  0
   58.0314   -5.3852   -9.4113 C   0  0  0  0  0  0  0  0  0  0  0  0
   57.3203   -4.2160  -10.1529 C   0  0  0  0  0  0  0  0  0  0  0  0
   57.3892   -4.3850  -11.5747 C   0  0  0  0  0  0  0  0  0  0  0  0
   58.1169   -5.1165  -12.2811 O   0  0  0  0  0  0  0  0  0  0  0  0
   56.4697   -3.5801  -12.3571 N   0  0  0  0  0  0  0  0  0  0  0  0
   55.8344   -2.9489  -11.8381 H   0  0  0  0  0  0  0  0  0  0  0  0
   56.4155   -3.6307  -13.7967 C   0  0  0  0  0  0  0  0  0  0  0  0
   55.7207   -4.8502  -14.2846 C   0  0  0  0  0  0  0  0  0  0  0  0
   56.4032   -5.7623  -14.7051 O   0  0  0  0  0  0  0  0  0  0  0  0
   57.7937   -3.5225  -14.3604 C   0  0  0  0  0  0  0  0  0  0  0  0
   57.8025   -2.9684  -15.7694 C   0  0  0  0  0  0  0  0  0  0  0  0
   59.2074   -2.7207  -16.2618 C   0  0  0  0  0  0  0  0  0  0  0  0
   60.1504   -2.6009  -15.1509 N   0  0  0  0  0  0  0  0  0  0  0  0
   59.9460   -1.9256  -14.3964 H   0  0  0  0  0  0  0  0  0  0  0  0
   61.3313   -3.3946  -15.0998 C   0  0  0  0  0  0  0  0  0  0  0  0
   62.4490   -2.9939  -15.8749 N   0  0  0  0  0  0  0  0  0  0  0  0
   61.4060   -4.4420  -14.3831 N   0  0  0  0  0  0  0  0  0  0  0  0
   63.3624   -3.5107  -15.8425 H   0  0  0  0  0  0  0  0  0  0  0  0
   62.4075   -2.1626  -16.5125 H   0  0  0  0  0  0  0  0  0  0  0  0
   60.5823   -4.7271  -13.8186 H   0  0  0  0  0  0  0  0  0  0  0  0
   53.6877   -4.2761   -8.5881 C   0  0  0  0  0  0  0  0  0  0  0  0
   54.3481   -5.6144   -6.5772 C   0  0  0  0  0  0  0  0  0  0  0  0
   53.7707   -6.6091   -7.0814 O   0  0  0  0  0  0  0  0  0  0  0  0
   54.3443   -4.3987   -7.2904 N   0  0  0  0  0  0  0  0  0  0  0  0
   54.8252   -3.5754   -6.8837 H   0  0  0  0  0  0  0  0  0  0  0  0
   55.0166   -5.7096   -5.2691 C   0  0  0  0  0  0  0  0  0  0  0  0
   54.0391   -5.6278   -4.2127 N   0  0  0  0  0  0  0  0  0  0  0  0
   53.3224   -6.3763   -4.2660 H   0  0  0  0  0  0  0  0  0  0  0  0
   53.5577   -4.7103   -4.2638 H   0  0  0  0  0  0  0  0  0  0  0  0
   55.7942   -7.0152   -5.1633 C   0  0  0  0  0  0  0  0  0  0  0  0
   57.9969   -7.2615   -4.0632 C   0  0  0  0  0  0  0  0  0  0  0  0
   56.5114   -7.0732   -3.8365 C   0  0  0  0  0  0  0  0  0  0  0  0
   56.0056   -8.2515   -3.0327 C   0  0  0  0  0  0  0  0  0  0  0  0
   52.8608   -3.0116   -8.5022 C   0  0  0  0  0  0  0  0  0  0  0  0
   51.6546   -3.1449   -7.6512 C   0  0  0  0  0  0  0  0  0  0  0  0
   51.4104   -4.2962   -6.9210 C   0  0  0  0  0  0  0  0  0  0  0  0
   50.3203   -4.4549   -6.1180 C   0  0  0  0  0  0  0  0  0  0  0  0
   49.3988   -3.4675   -5.9929 C   0  0  0  0  0  0  0  0  0  0  0  0
   49.5997   -2.2960   -6.7044 C   0  0  0  0  0  0  0  0  0  0  0  0
   50.7066   -2.1519   -7.5115 C   0  0  0  0  0  0  0  0  0  0  0  0
 36 37  1  0  0  0
 37 38  1  0  0  0
 37 35  1  0  0  0
 35 31  1  0  0  0
 31 32  1  0  0  0
 31 27  1  0  0  0
 27 28  2  0  0  0
 27 29  1  0  0  0
 29 26  1  0  0  0
 26 39  1  0  0  0
 39 40  1  0  0  0
 40 41  2  0  0  0
 41 42  1  0  0  0
 42 43  2  0  0  0
 43 44  1  0  0  0
 44 45  2  0  0  0
 26  1  1  0  0  0
  1  2  2  0  0  0
  1  3  1  0  0  0
  3  4  1  0  0  0
  4  5  1  0  0  0
  5  6  1  0  0  0
  6  7  1  0  0  0
  7  8  1  0  0  0
  8  9  2  0  0  0
  8 10  1  0  0  0
 10 12  1  0  0  0
 12 15  1  0  0  0
 15 16  1  0  0  0
 16 17  1  0  0  0
 17 18  1  0  0  0
 18 20  1  0  0  0
 20 21  1  0  0  0
 20 22  2  0  0  0
 12 13  1  0  0  0
 13 14  2  0  0  0
 45 40  1  0  0  0
  7  3  1  0  0  0
 32 33  1  0  0  0
 32 34  1  0  0  0
 29 30  1  0  0  0
 10 11  1  0  0  0
 18 19  1  0  0  0
 21 23  1  0  0  0
 21 24  1  0  0  0
 22 25  1  0  0  0
M  END
> <minimizedAffinity>
-8.25015

> <CNNscore>
0.4531122446

> <CNNaffinity>
7.0251464844

> <CNN_VS>
3.1831798553

> <CNNaffinity_variance>
0.2103257924

$$$$
[H]N=C(N([H])[H])N([H])C([H])([H])C([H])([H])C([H])([H])[C@@]([H])(C([H])=O)N([H])C(=O)[C@@]1([H])N(C(=O)[C@@]([H])(N([H])C(=O)[C@@]([H])(N([H])[H])C([H])([H])C([H])(C([H])([H])[H])C([H])([H])[H])C([H])([H])c2c([H])c([H])c([H])c([H])c2[H])C([H])([H])C([H])([H])C1([H])[H]


 45 46  0  0  0  0  0  0  0  0999 V2000
   57.6577   -5.1215   -8.2045 C   0  0  0  0  0  0  0  0  0  0  0  0
   58.3068   -5.6576   -7.2381 O   0  0  0  0  0  0  0  0  0  0  0  0
   56.4564   -4.4681   -7.8977 N   0  0  0  0  0  0  0  0  0  0  0  0
   55.7227   -3.7371   -8.9839 C   0  0  0  0  0  0  0  0  0  0  0  0
   54.2949   -4.1068   -8.7725 C   0  0  0  0  0  0  0  0  0  0  0  0
   54.2608   -4.7790   -7.4186 C   0  0  0  0  0  0  0  0  0  0  0  0
   55.5925   -4.2497   -6.8111 C   0  0  0  0  0  0  0  0  0  0  0  0
   55.8146   -4.7863   -5.5005 C   0  0  0  0  0  0  0  0  0  0  0  0
   55.9744   -4.2203   -4.3969 O   0  0  0  0  0  0  0  0  0  0  0  0
   55.8711   -6.2331   -5.4056 N   0  0  0  0  0  0  0  0  0  0  0  0
   55.7463   -6.7696   -6.2820 H   0  0  0  0  0  0  0  0  0  0  0  0
   56.0903   -6.9279   -4.1617 C   0  0  0  0  0  0  0  0  0  0  0  0
   57.4702   -7.4701   -4.0632 C   0  0  0  0  0  0  0  0  0  0  0  0
   57.7820   -8.0464   -3.0409 O   0  0  0  0  0  0  0  0  0  0  0  0
   55.0663   -8.0012   -3.9929 C   0  0  0  0  0  0  0  0  0  0  0  0
   53.8923   -7.5552   -3.1474 C   0  0  0  0  0  0  0  0  0  0  0  0
   54.0894   -7.9040   -1.6924 C   0  0  0  0  0  0  0  0  0  0  0  0
   52.8288   -7.8500   -0.9537 N   0  0  0  0  0  0  0  0  0  0  0  0
   52.5947   -6.9890   -0.4331 H   0  0  0  0  0  0  0  0  0  0  0  0
   51.9335   -8.9570   -0.9449 C   0  0  0  0  0  0  0  0  0  0  0  0
   50.5441   -8.7036   -1.0708 N   0  0  0  0  0  0  0  0  0  0  0  0
   52.3464  -10.1537   -0.8283 N   0  0  0  0  0  0  0  0  0  0  0  0
   49.8391   -9.4802   -1.1185 H   0  0  0  0  0  0  0  0  0  0  0  0
   50.1648   -7.7274   -1.1221 H   0  0  0  0  0  0  0  0  0  0  0  0
   53.3659  -10.3293   -0.7371 H   0  0  0  0  0  0  0  0  0  0  0  0
   58.2591   -5.2545   -9.5548 C   0  0  0  0  0  0  0  0  0  0  0  0
   60.3483   -6.6194   -9.3468 C   0  0  0  0  0  0  0  0  0  0  0  0
   60.9694   -5.5740   -9.0332 O   0  0  0  0  0  0  0  0  0  0  0  0
   58.9693   -6.5277   -9.6237 N   0  0  0  0  0  0  0  0  0  0  0  0
   58.4486   -7.3878   -9.8761 H   0  0  0  0  0  0  0  0  0  0  0  0
   61.0401   -7.9164   -9.4256 C   0  0  0  0  0  0  0  0  0  0  0  0
   60.3653   -8.7748  -10.3669 N   0  0  0  0  0  0  0  0  0  0  0  0
   60.3213   -8.3720  -11.3222 H   0  0  0  0  0  0  0  0  0  0  0  0
   59.3959   -8.9449  -10.0391 H   0  0  0  0  0  0  0  0  0  0  0  0
   62.4919   -7.7200   -9.8434 C   0  0  0  0  0  0  0  0  0  0  0  0
   63.7719   -8.7940  -11.6684 C   0  0  0  0  0  0  0  0  0  0  0  0
   62.6150   -7.8735  -11.3399 C   0  0  0  0  0  0  0  0  0  0  0  0
   62.8924   -6.5263  -11.9711 C   0  0  0  0  0  0  0  0  0  0  0  0
   57.2386   -5.3026  -10.6712 C   0  0  0  0  0  0  0  0  0  0  0  0
   57.6737   -4.6091  -11.9067 C   0  0  0  0  0  0  0  0  0  0  0  0
   58.9832   -4.1911  -12.0765 C   0  0  0  0  0  0  0  0  0  0  0  0
   59.4267   -3.5606  -13.2008 C   0  0  0  0  0  0  0  0  0  0  0  0
   58.5850   -3.3058  -14.2335 C   0  0  0  0  0  0  0  0  0  0  0  0
   57.2643   -3.7053  -14.1102 C   0  0  0  0  0  0  0  0  0  0  0  0
   56.8323   -4.3411  -12.9672 C   0  0  0  0  0  0  0  0  0  0  0  0
 36 37  1  0  0  0
 37 38  1  0  0  0
 37 35  1  0  0  0
 35 31  1  0  0  0
 31 32  1  0  0  0
 31 27  1  0  0  0
 27 28  2  0  0  0
 27 29  1  0  0  0
 29 26  1  0  0  0
 26 39  1  0  0  0
 39 40  1  0  0  0
 40 41  2  0  0  0
 41 42  1  0  0  0
 42 43  2  0  0  0
 43 44  1  0  0  0
 44 45  2  0  0  0
 26  1  1  0  0  0
  1  2  2  0  0  0
  1  3  1  0  0  0
  3  4  1  0  0  0
  4  5  1  0  0  0
  5  6  1  0  0  0
  6  7  1  0  0  0
  7  8  1  0  0  0
  8  9  2  0  0  0
  8 10  1  0  0  0
 10 12  1  0  0  0
 12 15  1  0  0  0
 15 16  1  0  0  0
 16 17  1  0  0  0
 17 18  1  0  0  0
 18 20  1  0  0  0
 20 21  1  0  0  0
 20 22  2  0  0  0
 12 13  1  0  0  0
 13 14  2  0  0  0
 45 40  1  0  0  0
  7  3  1  0  0  0
 32 33  1  0  0  0
 32 34  1  0  0  0
 29 30  1  0  0  0
 10 11  1  0  0  0
 18 19  1  0  0  0
 21 23  1  0  0  0
 21 24  1  0  0  0
 22 25  1  0  0  0
M  END
> <minimizedAffinity>
-5.94749

> <CNNscore>
0.2840128243

> <CNNaffinity>
6.0720539093

> <CNN_VS>
1.7245411873

> <CNNaffinity_variance>
0.2496926785

$$$$
[H]N=C(N([H])[H])N([H])C([H])([H])C([H])([H])C([H])([H])[C@@]([H])(C([H])=O)N([H])C(=O)[C@@]1([H])N(C(=O)[C@@]([H])(N([H])C(=O)[C@@]([H])(N([H])[H])C([H])([H])C([H])(C([H])([H])[H])C([H])([H])[H])C([H])([H])c2c([H])c([H])c([H])c([H])c2[H])C([H])([H])C([H])([H])C1([H])[H]


 45 46  0  0  0  0  0  0  0  0999 V2000
   54.0421   -5.1226   -6.9144 C   0  0  0  0  0  0  0  0  0  0  0  0
   53.1918   -5.7549   -6.1933 O   0  0  0  0  0  0  0  0  0  0  0  0
   53.5912   -3.9940   -7.6124 N   0  0  0  0  0  0  0  0  0  0  0  0
   54.5790   -3.1660   -8.3813 C   0  0  0  0  0  0  0  0  0  0  0  0
   53.8876   -2.8752   -9.6687 C   0  0  0  0  0  0  0  0  0  0  0  0
   52.4524   -3.2957   -9.4461 C   0  0  0  0  0  0  0  0  0  0  0  0
   52.4013   -3.3000   -7.8905 C   0  0  0  0  0  0  0  0  0  0  0  0
   51.1132   -3.7110   -7.4146 C   0  0  0  0  0  0  0  0  0  0  0  0
   50.1067   -4.1312   -8.0263 O   0  0  0  0  0  0  0  0  0  0  0  0
   50.9103   -3.6357   -5.9798 N   0  0  0  0  0  0  0  0  0  0  0  0
   51.7029   -3.2959   -5.4074 H   0  0  0  0  0  0  0  0  0  0  0  0
   49.6717   -4.0093   -5.3439 C   0  0  0  0  0  0  0  0  0  0  0  0
   48.6780   -2.9048   -5.3699 C   0  0  0  0  0  0  0  0  0  0  0  0
   48.3811   -2.3835   -4.3141 O   0  0  0  0  0  0  0  0  0  0  0  0
   49.9372   -4.4750   -3.9505 C   0  0  0  0  0  0  0  0  0  0  0  0
   50.7764   -5.7345   -3.9097 C   0  0  0  0  0  0  0  0  0  0  0  0
   51.9222   -5.6091   -2.9355 C   0  0  0  0  0  0  0  0  0  0  0  0
   51.5135   -5.9718   -1.5794 N   0  0  0  0  0  0  0  0  0  0  0  0
   51.5201   -5.2434   -0.8470 H   0  0  0  0  0  0  0  0  0  0  0  0
   51.1126   -7.3008   -1.2628 C   0  0  0  0  0  0  0  0  0  0  0  0
   51.9544   -8.3723   -1.6550 N   0  0  0  0  0  0  0  0  0  0  0  0
   50.0298   -7.5461   -0.6434 N   0  0  0  0  0  0  0  0  0  0  0  0
   51.7367   -9.3696   -1.4089 H   0  0  0  0  0  0  0  0  0  0  0  0
   52.8308   -8.2104   -2.2074 H   0  0  0  0  0  0  0  0  0  0  0  0
   49.4201   -6.7547   -0.3599 H   0  0  0  0  0  0  0  0  0  0  0  0
   55.4242   -5.6632   -6.9282 C   0  0  0  0  0  0  0  0  0  0  0  0
   57.4624   -5.3744   -8.3540 C   0  0  0  0  0  0  0  0  0  0  0  0
   58.1535   -5.8433   -7.4161 O   0  0  0  0  0  0  0  0  0  0  0  0
   56.0697   -5.2565   -8.1724 N   0  0  0  0  0  0  0  0  0  0  0  0
   55.4920   -4.8770   -8.9449 H   0  0  0  0  0  0  0  0  0  0  0  0
   58.0878   -4.9547   -9.6188 C   0  0  0  0  0  0  0  0  0  0  0  0
   59.1617   -5.8552   -9.9564 N   0  0  0  0  0  0  0  0  0  0  0  0
   58.8474   -6.8386  -10.0605 H   0  0  0  0  0  0  0  0  0  0  0  0
   59.8831   -5.8199   -9.2117 H   0  0  0  0  0  0  0  0  0  0  0  0
   57.0556   -4.9275  -10.7388 C   0  0  0  0  0  0  0  0  0  0  0  0
   56.1719   -3.5984  -12.6297 C   0  0  0  0  0  0  0  0  0  0  0  0
   57.2927   -3.7245  -11.6190 C   0  0  0  0  0  0  0  0  0  0  0  0
   58.5919   -3.8933  -12.3767 C   0  0  0  0  0  0  0  0  0  0  0  0
   56.3007   -5.1152   -5.8229 C   0  0  0  0  0  0  0  0  0  0  0  0
   55.9876   -5.6689   -4.4841 C   0  0  0  0  0  0  0  0  0  0  0  0
   55.7547   -4.8419   -3.3978 C   0  0  0  0  0  0  0  0  0  0  0  0
   55.4527   -5.3097   -2.1535 C   0  0  0  0  0  0  0  0  0  0  0  0
   55.3640   -6.6418   -1.9137 C   0  0  0  0  0  0  0  0  0  0  0  0
   55.5890   -7.5095   -2.9699 C   0  0  0  0  0  0  0  0  0  0  0  0
   55.8932   -7.0203   -4.2210 C   0  0  0  0  0  0  0  0  0  0  0  0
 36 37  1  0  0  0
 37 38  1  0  0  0
 37 35  1  0  0  0
 35 31  1  0  0  0
 31 32  1  0  0  0
 31 27  1  0  0  0
 27 28  2  0  0  0
 27 29  1  0  0  0
 29 26  1  0  0  0
 26 39  1  0  0  0
 39 40  1  0  0  0
 40 41  2  0  0  0
 41 42  1  0  0  0
 42 43  2  0  0  0
 43 44  1  0  0  0
 44 45  2  0  0  0
 26  1  1  0  0  0
  1  2  2  0  0  0
  1  3  1  0  0  0
  3  4  1  0  0  0
  4  5  1  0  0  0
  5  6  1  0  0  0
  6  7  1  0  0  0
  7  8  1  0  0  0
  8  9  2  0  0  0
  8 10  1  0  0  0
 10 12  1  0  0  0
 12 15  1  0  0  0
 15 16  1  0  0  0
 16 17  1  0  0  0
 17 18  1  0  0  0
 18 20  1  0  0  0
 20 21  1  0  0  0
 20 22  2  0  0  0
 12 13  1  0  0  0
 13 14  2  0  0  0
 45 40  1  0  0  0
  7  3  1  0  0  0
 32 33  1  0  0  0
 32 34  1  0  0  0
 29 30  1  0  0  0
 10 11  1  0  0  0
 18 19  1  0  0  0
 21 23  1  0  0  0
 21 24  1  0  0  0
 22 25  1  0  0  0
M  END
> <minimizedAffinity>
-7.36860

> <CNNscore>
0.2755379081

> <CNNaffinity>
7.2414884567

> <CNN_VS>
1.9953045845

> <CNNaffinity_variance>
0.1838100404

$$$$
[H]N=C(N([H])[H])N([H])C([H])([H])C([H])([H])C([H])([H])[C@@]([H])(C([H])=O)N([H])C(=O)[C@@]1([H])N(C(=O)[C@@]([H])(N([H])C(=O)[C@@]([H])(N([H])[H])C([H])([H])C([H])(C([H])([H])[H])C([H])([H])[H])C([H])([H])c2c([H])c([H])c([H])c([H])c2[H])C([H])([H])C([H])([H])C1([H])[H]


 45 46  0  0  0  0  0  0  0  0999 V2000
   54.8411   -5.0600   -8.0738 C   0  0  0  0  0  0  0  0  0  0  0  0
   53.9024   -4.8337   -8.9166 O   0  0  0  0  0  0  0  0  0  0  0  0
   56.1488   -4.7263   -8.4517 N   0  0  0  0  0  0  0  0  0  0  0  0
   57.2598   -4.8764   -7.4539 C   0  0  0  0  0  0  0  0  0  0  0  0
   58.3690   -5.4948   -8.2333 C   0  0  0  0  0  0  0  0  0  0  0  0
   57.9378   -5.3902   -9.6787 C   0  0  0  0  0  0  0  0  0  0  0  0
   56.8662   -4.2666   -9.5692 C   0  0  0  0  0  0  0  0  0  0  0  0
   56.2650   -3.9970  -10.8422 C   0  0  0  0  0  0  0  0  0  0  0  0
   55.1228   -3.5846  -11.1409 O   0  0  0  0  0  0  0  0  0  0  0  0
   57.0998   -4.2364  -12.0046 N   0  0  0  0  0  0  0  0  0  0  0  0
   58.0612   -4.5796  -11.8336 H   0  0  0  0  0  0  0  0  0  0  0  0
   56.6435   -4.0174  -13.3543 C   0  0  0  0  0  0  0  0  0  0  0  0
   56.0476   -5.2434  -13.9458 C   0  0  0  0  0  0  0  0  0  0  0  0
   56.3445   -5.5239  -15.0894 O   0  0  0  0  0  0  0  0  0  0  0  0
   57.7647   -3.4948  -14.1903 C   0  0  0  0  0  0  0  0  0  0  0  0
   59.1028   -3.5843  -13.4877 C   0  0  0  0  0  0  0  0  0  0  0  0
   60.2459   -3.2839  -14.4262 C   0  0  0  0  0  0  0  0  0  0  0  0
   61.0780   -2.1919  -13.9235 N   0  0  0  0  0  0  0  0  0  0  0  0
   60.6177   -1.3790  -13.4825 H   0  0  0  0  0  0  0  0  0  0  0  0
   62.4967   -2.2371  -14.0347 C   0  0  0  0  0  0  0  0  0  0  0  0
   63.1112   -3.4764  -14.3461 N   0  0  0  0  0  0  0  0  0  0  0  0
   63.2170   -1.2035  -13.8635 N   0  0  0  0  0  0  0  0  0  0  0  0
   64.1479   -3.5632  -14.4879 H   0  0  0  0  0  0  0  0  0  0  0  0
   62.5525   -4.3578  -14.4482 H   0  0  0  0  0  0  0  0  0  0  0  0
   62.7578   -0.3003  -13.6362 H   0  0  0  0  0  0  0  0  0  0  0  0
   54.4321   -5.6562   -6.7777 C   0  0  0  0  0  0  0  0  0  0  0  0
   52.2360   -5.6231   -5.5748 C   0  0  0  0  0  0  0  0  0  0  0  0
   52.8518   -5.3661   -4.5110 O   0  0  0  0  0  0  0  0  0  0  0  0
   52.9781   -5.7819   -6.7626 N   0  0  0  0  0  0  0  0  0  0  0  0
   52.4758   -5.9870   -7.6459 H   0  0  0  0  0  0  0  0  0  0  0  0
   50.7701   -5.7571   -5.5878 C   0  0  0  0  0  0  0  0  0  0  0  0
   50.2342   -5.3974   -4.2987 N   0  0  0  0  0  0  0  0  0  0  0  0
   50.4688   -4.4257   -4.0200 H   0  0  0  0  0  0  0  0  0  0  0  0
   50.6116   -6.0435   -3.5802 H   0  0  0  0  0  0  0  0  0  0  0  0
   50.1651   -4.8738   -6.6715 C   0  0  0  0  0  0  0  0  0  0  0  0
   49.2075   -2.6798   -6.0454 C   0  0  0  0  0  0  0  0  0  0  0  0
   50.4812   -3.4265   -6.3823 C   0  0  0  0  0  0  0  0  0  0  0  0
   51.0938   -2.7822   -7.6072 C   0  0  0  0  0  0  0  0  0  0  0  0
   54.9589   -7.0583   -6.5620 C   0  0  0  0  0  0  0  0  0  0  0  0
   55.5792   -7.2639   -5.2317 C   0  0  0  0  0  0  0  0  0  0  0  0
   55.0165   -8.1173   -4.2973 C   0  0  0  0  0  0  0  0  0  0  0  0
   55.5606   -8.3431   -3.0679 C   0  0  0  0  0  0  0  0  0  0  0  0
   56.7085   -7.7264   -2.6913 C   0  0  0  0  0  0  0  0  0  0  0  0
   57.3090   -6.8627   -3.5926 C   0  0  0  0  0  0  0  0  0  0  0  0
   56.7460   -6.6456   -4.8308 C   0  0  0  0  0  0  0  0  0  0  0  0
 36 37  1  0  0  0
 37 38  1  0  0  0
 37 35  1  0  0  0
 35 31  1  0  0  0
 31 32  1  0  0  0
 31 27  1  0  0  0
 27 28  2  0  0  0
 27 29  1  0  0  0
 29 26  1  0  0  0
 26 39  1  0  0  0
 39 40  1  0  0  0
 40 41  2  0  0  0
 41 42  1  0  0  0
 42 43  2  0  0  0
 43 44  1  0  0  0
 44 45  2  0  0  0
 26  1  1  0  0  0
  1  2  2  0  0  0
  1  3  1  0  0  0
  3  4  1  0  0  0
  4  5  1  0  0  0
  5  6  1  0  0  0
  6  7  1  0  0  0
  7  8  1  0  0  0
  8  9  2  0  0  0
  8 10  1  0  0  0
 10 12  1  0  0  0
 12 15  1  0  0  0
 15 16  1  0  0  0
 16 17  1  0  0  0
 17 18  1  0  0  0
 18 20  1  0  0  0
 20 21  1  0  0  0
 20 22  2  0  0  0
 12 13  1  0  0  0
 13 14  2  0  0  0
 45 40  1  0  0  0
  7  3  1  0  0  0
 32 33  1  0  0  0
 32 34  1  0  0  0
 29 30  1  0  0  0
 10 11  1  0  0  0
 18 19  1  0  0  0
 21 23  1  0  0  0
 21 24  1  0  0  0
 22 25  1  0  0  0
M  END
> <minimizedAffinity>
-7.36983

> <CNNscore>
0.2250131965

> <CNNaffinity>
6.4561920166

> <CNN_VS>
1.4527283907

> <CNNaffinity_variance>
0.2715365589

$$$$
[H]N=C(N([H])[H])N([H])C([H])([H])C([H])([H])C([H])([H])[C@@]([H])(C([H])=O)N([H])C(=O)[C@@]1([H])N(C(=O)[C@@]([H])(N([H])C(=O)[C@@]([H])(N([H])[H])C([H])([H])C([H])(C([H])([H])[H])C([H])([H])[H])C([H])([H])c2c([H])c([H])c([H])c([H])c2[H])C([H])([H])C([H])([H])C1([H])[H]


 45 46  0  0  0  0  0  0  0  0999 V2000
   53.1679   -5.5713   -5.5726 C   0  0  0  0  0  0  0  0  0  0  0  0
   52.8122   -4.6788   -6.4210 O   0  0  0  0  0  0  0  0  0  0  0  0
   54.5218   -5.6250   -5.2143 N   0  0  0  0  0  0  0  0  0  0  0  0
   54.9585   -6.5841   -4.1457 C   0  0  0  0  0  0  0  0  0  0  0  0
   56.2133   -7.1819   -4.6827 C   0  0  0  0  0  0  0  0  0  0  0  0
   56.5756   -6.3261   -5.8753 C   0  0  0  0  0  0  0  0  0  0  0  0
   55.7539   -5.0429   -5.5575 C   0  0  0  0  0  0  0  0  0  0  0  0
   55.9070   -4.0597   -6.5893 C   0  0  0  0  0  0  0  0  0  0  0  0
   56.5453   -2.9846   -6.6120 O   0  0  0  0  0  0  0  0  0  0  0  0
   55.2113   -4.3287   -7.8340 N   0  0  0  0  0  0  0  0  0  0  0  0
   54.6610   -5.2037   -7.8885 H   0  0  0  0  0  0  0  0  0  0  0  0
   55.2612   -3.4384   -8.9666 C   0  0  0  0  0  0  0  0  0  0  0  0
   54.0291   -2.6159   -9.0822 C   0  0  0  0  0  0  0  0  0  0  0  0
   53.1880   -2.9634   -9.8861 O   0  0  0  0  0  0  0  0  0  0  0  0
   55.5186   -4.2180  -10.2136 C   0  0  0  0  0  0  0  0  0  0  0  0
   56.9960   -4.3748  -10.5053 C   0  0  0  0  0  0  0  0  0  0  0  0
   57.4395   -3.4762  -11.6337 C   0  0  0  0  0  0  0  0  0  0  0  0
   56.4452   -3.4319  -12.7047 N   0  0  0  0  0  0  0  0  0  0  0  0
   55.5304   -2.9912  -12.5153 H   0  0  0  0  0  0  0  0  0  0  0  0
   56.7217   -3.9829  -13.9881 C   0  0  0  0  0  0  0  0  0  0  0  0
   57.5290   -3.2374  -14.8842 N   0  0  0  0  0  0  0  0  0  0  0  0
   56.2668   -5.1152  -14.3450 N   0  0  0  0  0  0  0  0  0  0  0  0
   57.8065   -3.6111  -15.8253 H   0  0  0  0  0  0  0  0  0  0  0  0
   57.8824   -2.2806  -14.6411 H   0  0  0  0  0  0  0  0  0  0  0  0
   55.6769   -5.6541  -13.6816 H   0  0  0  0  0  0  0  0  0  0  0  0
   52.0931   -6.4566   -5.0593 C   0  0  0  0  0  0  0  0  0  0  0  0
   51.8712   -7.0623   -2.6396 C   0  0  0  0  0  0  0  0  0  0  0  0
   52.1562   -8.2487   -2.9370 O   0  0  0  0  0  0  0  0  0  0  0  0
   51.8228   -6.1015   -3.6697 N   0  0  0  0  0  0  0  0  0  0  0  0
   51.5953   -5.1188   -3.4306 H   0  0  0  0  0  0  0  0  0  0  0  0
   51.5923   -6.6769   -1.2465 C   0  0  0  0  0  0  0  0  0  0  0  0
   50.2417   -7.0417   -0.8987 N   0  0  0  0  0  0  0  0  0  0  0  0
   50.0593   -8.0585   -0.9968 H   0  0  0  0  0  0  0  0  0  0  0  0
   49.5812   -6.5304   -1.5140 H   0  0  0  0  0  0  0  0  0  0  0  0
   52.5773   -7.3523   -0.3008 C   0  0  0  0  0  0  0  0  0  0  0  0
   53.5013   -5.0907   -0.6931 C   0  0  0  0  0  0  0  0  0  0  0  0
   53.6446   -6.3671    0.1094 C   0  0  0  0  0  0  0  0  0  0  0  0
   55.0131   -6.9486   -0.1726 C   0  0  0  0  0  0  0  0  0  0  0  0
   50.7734   -6.2894   -5.7808 C   0  0  0  0  0  0  0  0  0  0  0  0
   50.0934   -5.0051   -5.4893 C   0  0  0  0  0  0  0  0  0  0  0  0
   50.0021   -4.0044   -6.4425 C   0  0  0  0  0  0  0  0  0  0  0  0
   49.3760   -2.8142   -6.2191 C   0  0  0  0  0  0  0  0  0  0  0  0
   48.7979   -2.5463   -5.0217 C   0  0  0  0  0  0  0  0  0  0  0  0
   48.8632   -3.5172   -4.0358 C   0  0  0  0  0  0  0  0  0  0  0  0
   49.4999   -4.7144   -4.2778 C   0  0  0  0  0  0  0  0  0  0  0  0
 36 37  1  0  0  0
 37 38  1  0  0  0
 37 35  1  0  0  0
 35 31  1  0  0  0
 31 32  1  0  0  0
 31 27  1  0  0  0
 27 28  2  0  0  0
 27 29  1  0  0  0
 29 26  1  0  0  0
 26 39  1  0  0  0
 39 40  1  0  0  0
 40 41  2  0  0  0
 41 42  1  0  0  0
 42 43  2  0  0  0
 43 44  1  0  0  0
 44 45  2  0  0  0
 26  1  1  0  0  0
  1  2  2  0  0  0
  1  3  1  0  0  0
  3  4  1  0  0  0
  4  5  1  0  0  0
  5  6  1  0  0  0
  6  7  1  0  0  0
  7  8  1  0  0  0
  8  9  2  0  0  0
  8 10  1  0  0  0
 10 12  1  0  0  0
 12 15  1  0  0  0
 15 16  1  0  0  0
 16 17  1  0  0  0
 17 18  1  0  0  0
 18 20  1  0  0  0
 20 21  1  0  0  0
 20 22  2  0  0  0
 12 13  1  0  0  0
 13 14  2  0  0  0
 45 40  1  0  0  0
  7  3  1  0  0  0
 32 33  1  0  0  0
 32 34  1  0  0  0
 29 30  1  0  0  0
 10 11  1  0  0  0
 18 19  1  0  0  0
 21 23  1  0  0  0
 21 24  1  0  0  0
 22 25  1  0  0  0
M  END
> <minimizedAffinity>
-8.57931

> <CNNscore>
0.2136072963

> <CNNaffinity>
7.0732536316

> <CNN_VS>
1.5108985901

> <CNNaffinity_variance>
0.0291359033

$$$$
[H]N=C(N([H])[H])N([H])C([H])([H])C([H])([H])C([H])([H])[C@@]([H])(C([H])=O)N([H])C(=O)[C@@]1([H])N(C(=O)[C@@]([H])(N([H])C(=O)[C@@]([H])(N([H])[H])C([H])([H])C([H])(C([H])([H])[H])C([H])([H])[H])C([H])([H])c2c([H])c([H])c([H])c([H])c2[H])C([H])([H])C([H])([H])C1([H])[H]


 45 46  0  0  0  0  0  0  0  0999 V2000
   54.9984   -4.5221   -8.8315 C   0  0  0  0  0  0  0  0  0  0  0  0
   54.1152   -4.1531   -9.6840 O   0  0  0  0  0  0  0  0  0  0  0  0
   56.3456   -4.4112   -9.2014 N   0  0  0  0  0  0  0  0  0  0  0  0
   57.4102   -4.7319   -8.1933 C   0  0  0  0  0  0  0  0  0  0  0  0
   58.4081   -5.5315   -8.9582 C   0  0  0  0  0  0  0  0  0  0  0  0
   58.0096   -5.3717  -10.4079 C   0  0  0  0  0  0  0  0  0  0  0  0
   57.1363   -4.0865  -10.3169 C   0  0  0  0  0  0  0  0  0  0  0  0
   56.5961   -3.7343  -11.5971 C   0  0  0  0  0  0  0  0  0  0  0  0
   55.4861   -3.2555  -11.9172 O   0  0  0  0  0  0  0  0  0  0  0  0
   57.4617   -3.9635  -12.7388 N   0  0  0  0  0  0  0  0  0  0  0  0
   58.3993   -4.3592  -12.5494 H   0  0  0  0  0  0  0  0  0  0  0  0
   57.0668   -3.6655  -14.0927 C   0  0  0  0  0  0  0  0  0  0  0  0
   56.1214   -4.6773  -14.6317 C   0  0  0  0  0  0  0  0  0  0  0  0
   56.4411   -5.8467  -14.5620 O   0  0  0  0  0  0  0  0  0  0  0  0
   58.2772   -3.5315  -14.9564 C   0  0  0  0  0  0  0  0  0  0  0  0
   57.9439   -3.0448  -16.3508 C   0  0  0  0  0  0  0  0  0  0  0  0
   59.0050   -3.4420  -17.3478 C   0  0  0  0  0  0  0  0  0  0  0  0
   60.3188   -2.9282  -16.9642 N   0  0  0  0  0  0  0  0  0  0  0  0
   60.4160   -1.9221  -16.7511 H   0  0  0  0  0  0  0  0  0  0  0  0
   61.4501   -3.7890  -16.8829 C   0  0  0  0  0  0  0  0  0  0  0  0
   62.7048   -3.2999  -17.3267 N   0  0  0  0  0  0  0  0  0  0  0  0
   61.3621   -4.9723  -16.4264 N   0  0  0  0  0  0  0  0  0  0  0  0
   63.5833   -3.8697  -17.2482 H   0  0  0  0  0  0  0  0  0  0  0  0
   62.8053   -2.3466  -17.7515 H   0  0  0  0  0  0  0  0  0  0  0  0
   60.4390   -5.3213  -16.1033 H   0  0  0  0  0  0  0  0  0  0  0  0
   54.4883   -5.0304   -7.5339 C   0  0  0  0  0  0  0  0  0  0  0  0
   52.2374   -5.0427   -6.4366 C   0  0  0  0  0  0  0  0  0  0  0  0
   52.8083   -4.9397   -5.3227 O   0  0  0  0  0  0  0  0  0  0  0  0
   53.0316   -5.0932   -7.5998 N   0  0  0  0  0  0  0  0  0  0  0  0
   52.5669   -5.1709   -8.5232 H   0  0  0  0  0  0  0  0  0  0  0  0
   50.7699   -5.1099   -6.5319 C   0  0  0  0  0  0  0  0  0  0  0  0
   50.3376   -6.4837   -6.4684 N   0  0  0  0  0  0  0  0  0  0  0  0
   50.6279   -6.9590   -5.5929 H   0  0  0  0  0  0  0  0  0  0  0  0
   50.7380   -7.0046   -7.2712 H   0  0  0  0  0  0  0  0  0  0  0  0
   50.1268   -4.3060   -5.4090 C   0  0  0  0  0  0  0  0  0  0  0  0
   49.9286   -2.3433   -6.9026 C   0  0  0  0  0  0  0  0  0  0  0  0
   49.1749   -3.2902   -5.9923 C   0  0  0  0  0  0  0  0  0  0  0  0
   48.5512   -2.4758   -4.8795 C   0  0  0  0  0  0  0  0  0  0  0  0
   54.9373   -6.4401   -7.2160 C   0  0  0  0  0  0  0  0  0  0  0  0
   55.3359   -6.6340   -5.8016 C   0  0  0  0  0  0  0  0  0  0  0  0
   55.9735   -5.6328   -5.0879 C   0  0  0  0  0  0  0  0  0  0  0  0
   56.3463   -5.7660   -3.7835 C   0  0  0  0  0  0  0  0  0  0  0  0
   56.1046   -6.9153   -3.1048 C   0  0  0  0  0  0  0  0  0  0  0  0
   55.4688   -7.9464   -3.7768 C   0  0  0  0  0  0  0  0  0  0  0  0
   55.0989   -7.7954   -5.0950 C   0  0  0  0  0  0  0  0  0  0  0  0
 36 37  1  0  0  0
 37 38  1  0  0  0
 37 35  1  0  0  0
 35 31  1  0  0  0
 31 32  1  0  0  0
 31 27  1  0  0  0
 27 28  2  0  0  0
 27 29  1  0  0  0
 29 26  1  0  0  0
 26 39  1  0  0  0
 39 40  1  0  0  0
 40 41  2  0  0  0
 41 42  1  0  0  0
 42 43  2  0  0  0
 43 44  1  0  0  0
 44 45  2  0  0  0
 26  1  1  0  0  0
  1  2  2  0  0  0
  1  3  1  0  0  0
  3  4  1  0  0  0
  4  5  1  0  0  0
  5  6  1  0  0  0
  6  7  1  0  0  0
  7  8  1  0  0  0
  8  9  2  0  0  0
  8 10  1  0  0  0
 10 12  1  0  0  0
 12 15  1  0  0  0
 15 16  1  0  0  0
 16 17  1  0  0  0
 17 18  1  0  0  0
 18 20  1  0  0  0
 20 21  1  0  0  0
 20 22  2  0  0  0
 12 13  1  0  0  0
 13 14  2  0  0  0
 45 40  1  0  0  0
  7  3  1  0  0  0
 32 33  1  0  0  0
 32 34  1  0  0  0
 29 30  1  0  0  0
 10 11  1  0  0  0
 18 19  1  0  0  0
 21 23  1  0  0  0
 21 24  1  0  0  0
 22 25  1  0  0  0
M  END
> <minimizedAffinity>
-7.19774

> <CNNscore>
0.1701645106

> <CNNaffinity>
6.5695161819

> <CNN_VS>
1.1178984642

> <CNNaffinity_variance>
0.0791189298

$$$$
[H]N=C(N([H])[H])N([H])C([H])([H])C([H])([H])C([H])([H])[C@@]([H])(C([H])=O)N([H])C(=O)[C@@]1([H])N(C(=O)[C@@]([H])(N([H])C(=O)[C@@]([H])(N([H])[H])C([H])([H])C([H])(C([H])([H])[H])C([H])([H])[H])C([H])([H])c2c([H])c([H])c([H])c([H])c2[H])C([H])([H])C([H])([H])C1([H])[H]


 45 46  0  0  0  0  0  0  0  0999 V2000
   53.2383   -5.8179   -6.5979 C   0  0  0  0  0  0  0  0  0  0  0  0
   52.8411   -5.7569   -7.8151 O   0  0  0  0  0  0  0  0  0  0  0  0
   54.5199   -5.3312   -6.3069 N   0  0  0  0  0  0  0  0  0  0  0  0
   54.9791   -5.2869   -4.8788 C   0  0  0  0  0  0  0  0  0  0  0  0
   56.3815   -5.7877   -4.9307 C   0  0  0  0  0  0  0  0  0  0  0  0
   56.7360   -5.8074   -6.4003 C   0  0  0  0  0  0  0  0  0  0  0  0
   55.6598   -4.8321   -6.9598 C   0  0  0  0  0  0  0  0  0  0  0  0
   55.7662   -4.7031   -8.3835 C   0  0  0  0  0  0  0  0  0  0  0  0
   54.9384   -4.3178   -9.2380 O   0  0  0  0  0  0  0  0  0  0  0  0
   57.0419   -5.0791   -8.9637 N   0  0  0  0  0  0  0  0  0  0  0  0
   57.7778   -5.4086   -8.3146 H   0  0  0  0  0  0  0  0  0  0  0  0
   57.3088   -5.0103  -10.3786 C   0  0  0  0  0  0  0  0  0  0  0  0
   58.6980   -5.4257  -10.7033 C   0  0  0  0  0  0  0  0  0  0  0  0
   59.2341   -6.2341   -9.9729 O   0  0  0  0  0  0  0  0  0  0  0  0
   57.0152   -3.6365  -10.8840 C   0  0  0  0  0  0  0  0  0  0  0  0
   57.6263   -3.3758  -12.2445 C   0  0  0  0  0  0  0  0  0  0  0  0
   56.6515   -3.6693  -13.3585 C   0  0  0  0  0  0  0  0  0  0  0  0
   57.2603   -3.4601  -14.6712 N   0  0  0  0  0  0  0  0  0  0  0  0
   58.1583   -2.9526  -14.7271 H   0  0  0  0  0  0  0  0  0  0  0  0
   56.6361   -3.9421  -15.8566 C   0  0  0  0  0  0  0  0  0  0  0  0
   55.7147   -3.0979  -16.5265 N   0  0  0  0  0  0  0  0  0  0  0  0
   56.8834   -5.0986  -16.3232 N   0  0  0  0  0  0  0  0  0  0  0  0
   55.2586   -3.3781  -17.4298 H   0  0  0  0  0  0  0  0  0  0  0  0
   55.4520   -2.1571  -16.1453 H   0  0  0  0  0  0  0  0  0  0  0  0
   57.5600   -5.7095  -15.8258 H   0  0  0  0  0  0  0  0  0  0  0  0
   52.2844   -6.4032   -5.6232 C   0  0  0  0  0  0  0  0  0  0  0  0
   52.6390   -6.2801   -3.1473 C   0  0  0  0  0  0  0  0  0  0  0  0
   52.8078   -7.5245   -3.1355 O   0  0  0  0  0  0  0  0  0  0  0  0
   52.3705   -5.6472   -4.3777 N   0  0  0  0  0  0  0  0  0  0  0  0
   52.2373   -4.6193   -4.3962 H   0  0  0  0  0  0  0  0  0  0  0  0
   52.7186   -5.4933   -1.9056 C   0  0  0  0  0  0  0  0  0  0  0  0
   51.5161   -4.7154   -1.7412 N   0  0  0  0  0  0  0  0  0  0  0  0
   50.6590   -5.2990   -1.7011 H   0  0  0  0  0  0  0  0  0  0  0  0
   51.4252   -4.0557   -2.5366 H   0  0  0  0  0  0  0  0  0  0  0  0
   52.9165   -6.4115   -0.7063 C   0  0  0  0  0  0  0  0  0  0  0  0
   55.0718   -5.2266   -0.9770 C   0  0  0  0  0  0  0  0  0  0  0  0
   54.3491   -6.3333   -0.2376 C   0  0  0  0  0  0  0  0  0  0  0  0
   55.0566   -7.6376   -0.5356 C   0  0  0  0  0  0  0  0  0  0  0  0
   50.8376   -6.3026   -6.0552 C   0  0  0  0  0  0  0  0  0  0  0  0
   50.2127   -4.9948   -5.7454 C   0  0  0  0  0  0  0  0  0  0  0  0
   49.5644   -4.7719   -4.5419 C   0  0  0  0  0  0  0  0  0  0  0  0
   48.9870   -3.5815   -4.2132 C   0  0  0  0  0  0  0  0  0  0  0  0
   49.0204   -2.5317   -5.0714 C   0  0  0  0  0  0  0  0  0  0  0  0
   49.6580   -2.7063   -6.2887 C   0  0  0  0  0  0  0  0  0  0  0  0
   50.2363   -3.9157   -6.6053 C   0  0  0  0  0  0  0  0  0  0  0  0
 36 37  1  0  0  0
 37 38  1  0  0  0
 37 35  1  0  0  0
 35 31  1  0  0  0
 31 32  1  0  0  0
 31 27  1  0  0  0
 27 28  2  0  0  0
 27 29  1  0  0  0
 29 26  1  0  0  0
 26 39  1  0  0  0
 39 40  1  0  0  0
 40 41  2  0  0  0
 41 42  1  0  0  0
 42 43  2  0  0  0
 43 44  1  0  0  0
 44 45  2  0  0  0
 26  1  1  0  0  0
  1  2  2  0  0  0
  1  3  1  0  0  0
  3  4  1  0  0  0
  4  5  1  0  0  0
  5  6  1  0  0  0
  6  7  1  0  0  0
  7  8  1  0  0  0
  8  9  2  0  0  0
  8 10  1  0  0  0
 10 12  1  0  0  0
 12 15  1  0  0  0
 15 16  1  0  0  0
 16 17  1  0  0  0
 17 18  1  0  0  0
 18 20  1  0  0  0
 20 21  1  0  0  0
 20 22  2  0  0  0
 12 13  1  0  0  0
 13 14  2  0  0  0
 45 40  1  0  0  0
  7  3  1  0  0  0
 32 33  1  0  0  0
 32 34  1  0  0  0
 29 30  1  0  0  0
 10 11  1  0  0  0
 18 19  1  0  0  0
 21 23  1  0  0  0
 21 24  1  0  0  0
 22 25  1  0  0  0
M  END
> <minimizedAffinity>
-7.87063

> <CNNscore>
0.1645732671

> <CNNaffinity>
6.7817831039

> <CNN_VS>
1.1161001921

> <CNNaffinity_variance>
0.0623882301

$$$$
[H]N=C(N([H])[H])N([H])C([H])([H])C([H])([H])C([H])([H])[C@@]([H])(C([H])=O)N([H])C(=O)[C@@]1([H])N(C(=O)[C@@]([H])(N([H])C(=O)[C@@]([H])(N([H])[H])C([H])([H])C([H])(C([H])([H])[H])C([H])([H])[H])C([H])([H])c2c([H])c([H])c([H])c([H])c2[H])C([H])([H])C([H])([H])C1([H])[H]


 45 46  0  0  0  0  0  0  0  0999 V2000
   55.5196   -6.4658   -4.9381 C   0  0  0  0  0  0  0  0  0  0  0  0
   56.5744   -7.1249   -5.2477 O   0  0  0  0  0  0  0  0  0  0  0  0
   55.2464   -6.2778   -3.5764 N   0  0  0  0  0  0  0  0  0  0  0  0
   54.0808   -5.4218   -3.1752 C   0  0  0  0  0  0  0  0  0  0  0  0
   53.4325   -6.1828   -2.0703 C   0  0  0  0  0  0  0  0  0  0  0  0
   54.4214   -7.2681   -1.7095 C   0  0  0  0  0  0  0  0  0  0  0  0
   55.7247   -6.6699   -2.3146 C   0  0  0  0  0  0  0  0  0  0  0  0
   56.8373   -7.5542   -2.1273 C   0  0  0  0  0  0  0  0  0  0  0  0
   56.9039   -8.6953   -1.6201 O   0  0  0  0  0  0  0  0  0  0  0  0
   58.1225   -7.0689   -2.5946 N   0  0  0  0  0  0  0  0  0  0  0  0
   58.1440   -6.1289   -3.0274 H   0  0  0  0  0  0  0  0  0  0  0  0
   59.3380   -7.8350   -2.4773 C   0  0  0  0  0  0  0  0  0  0  0  0
   60.2105   -7.3299   -1.3858 C   0  0  0  0  0  0  0  0  0  0  0  0
   60.1454   -6.1498   -1.1072 O   0  0  0  0  0  0  0  0  0  0  0  0
   60.0541   -7.8537   -3.7872 C   0  0  0  0  0  0  0  0  0  0  0  0
   61.5300   -8.1563   -3.6373 C   0  0  0  0  0  0  0  0  0  0  0  0
   62.1165   -8.7141   -4.9110 C   0  0  0  0  0  0  0  0  0  0  0  0
   61.2436   -8.4631   -6.0568 N   0  0  0  0  0  0  0  0  0  0  0  0
   60.3038   -8.8917   -6.0686 H   0  0  0  0  0  0  0  0  0  0  0  0
   61.6706   -7.6455   -7.1414 C   0  0  0  0  0  0  0  0  0  0  0  0
   63.0318   -7.7007   -7.5345 N   0  0  0  0  0  0  0  0  0  0  0  0
   60.8684   -6.8762   -7.7587 N   0  0  0  0  0  0  0  0  0  0  0  0
   63.3960   -7.1578   -8.3562 H   0  0  0  0  0  0  0  0  0  0  0  0
   63.7305   -8.2883   -7.0188 H   0  0  0  0  0  0  0  0  0  0  0  0
   59.8733   -6.8430   -7.4638 H   0  0  0  0  0  0  0  0  0  0  0  0
   54.6977   -5.9701   -6.0701 C   0  0  0  0  0  0  0  0  0  0  0  0
   52.2293   -6.1103   -6.4675 C   0  0  0  0  0  0  0  0  0  0  0  0
   52.4658   -6.4877   -7.6417 O   0  0  0  0  0  0  0  0  0  0  0  0
   53.3175   -5.8314   -5.6163 N   0  0  0  0  0  0  0  0  0  0  0  0
   53.1299   -5.5265   -4.6435 H   0  0  0  0  0  0  0  0  0  0  0  0
   50.8469   -5.9603   -5.9843 C   0  0  0  0  0  0  0  0  0  0  0  0
   50.8531   -5.5627   -4.5986 N   0  0  0  0  0  0  0  0  0  0  0  0
   51.3523   -4.6675   -4.4369 H   0  0  0  0  0  0  0  0  0  0  0  0
   51.3146   -6.3007   -4.0342 H   0  0  0  0  0  0  0  0  0  0  0  0
   50.1000   -4.9297   -6.8214 C   0  0  0  0  0  0  0  0  0  0  0  0
   49.3572   -2.6877   -6.0839 C   0  0  0  0  0  0  0  0  0  0  0  0
   50.5555   -3.5414   -6.4431 C   0  0  0  0  0  0  0  0  0  0  0  0
   51.2575   -2.8955   -7.6180 C   0  0  0  0  0  0  0  0  0  0  0  0
   55.1012   -4.5948   -6.5557 C   0  0  0  0  0  0  0  0  0  0  0  0
   55.8169   -4.6073   -7.8536 C   0  0  0  0  0  0  0  0  0  0  0  0
   55.1903   -4.2210   -9.0269 C   0  0  0  0  0  0  0  0  0  0  0  0
   55.8152   -4.2070  -10.2383 C   0  0  0  0  0  0  0  0  0  0  0  0
   57.1138   -4.5806  -10.3556 C   0  0  0  0  0  0  0  0  0  0  0  0
   57.7834   -4.9755   -9.2090 C   0  0  0  0  0  0  0  0  0  0  0  0
   57.1371   -4.9841   -7.9926 C   0  0  0  0  0  0  0  0  0  0  0  0
 36 37  1  0  0  0
 37 38  1  0  0  0
 37 35  1  0  0  0
 35 31  1  0  0  0
 31 32  1  0  0  0
 31 27  1  0  0  0
 27 28  2  0  0  0
 27 29  1  0  0  0
 29 26  1  0  0  0
 26 39  1  0  0  0
 39 40  1  0  0  0
 40 41  2  0  0  0
 41 42  1  0  0  0
 42 43  2  0  0  0
 43 44  1  0  0  0
 44 45  2  0  0  0
 26  1  1  0  0  0
  1  2  2  0  0  0
  1  3  1  0  0  0
  3  4  1  0  0  0
  4  5  1  0  0  0
  5  6  1  0  0  0
  6  7  1  0  0  0
  7  8  1  0  0  0
  8  9  2  0  0  0
  8 10  1  0  0  0
 10 12  1  0  0  0
 12 15  1  0  0  0
 15 16  1  0  0  0
 16 17  1  0  0  0
 17 18  1  0  0  0
 18 20  1  0  0  0
 20 21  1  0  0  0
 20 22  2  0  0  0
 12 13  1  0  0  0
 13 14  2  0  0  0
 45 40  1  0  0  0
  7  3  1  0  0  0
 32 33  1  0  0  0
 32 34  1  0  0  0
 29 30  1  0  0  0
 10 11  1  0  0  0
 18 19  1  0  0  0
 21 23  1  0  0  0
 21 24  1  0  0  0
 22 25  1  0  0  0
M  END
> <minimizedAffinity>
-7.91032

> <CNNscore>
0.1515515745

> <CNNaffinity>
6.0587739944

> <CNN_VS>
0.9182167649

> <CNNaffinity_variance>
0.6167857647

$$$$
[H]C1=C([H])C([H])(F)C([H])([H])C([H])=C1N([H])C(=O)C1(C(=O)N([H])c2c([H])c([H])c(Oc3c([H])c([H])nc4c([H])c(OC([H])([H])C([H])([H])C([H])([H])N5C([H])([H])C([H])([H])OC([H])([H])C5([H])[H])c(OC([H])([H])[H])c([H])c34)c(F)c2[H])C([H])([H])C1([H])[H]


 48 53  0  0  0  0  0  0  0  0999 V2000
   56.1828   -4.4601   -9.9571 C   0  0  0  0  0  0  0  0  0  0  0  0
   55.5698   -3.7250  -10.9622 C   0  0  0  0  0  0  0  0  0  0  0  0
   56.1525   -3.4062  -12.1527 C   0  0  0  0  0  0  0  0  0  0  0  0
   57.4598   -3.8373  -12.4049 C   0  0  0  0  0  0  0  0  0  0  0  0
   58.1007   -4.5663  -11.4403 C   0  0  0  0  0  0  0  0  0  0  0  0
   57.4746   -4.8799  -10.2228 C   0  0  0  0  0  0  0  0  0  0  0  0
   58.1646   -5.6273   -9.3302 F   0  0  0  0  0  0  0  0  0  0  0  0
   58.0477   -3.5309  -13.6832 N   0  0  0  0  0  0  0  0  0  0  0  0
   57.5161   -3.9652  -14.8758 C   0  0  0  0  0  0  0  0  0  0  0  0
   56.4569   -4.7098  -14.7879 O   0  0  0  0  0  0  0  0  0  0  0  0
   58.9165   -2.9786  -13.6188 H   0  0  0  0  0  0  0  0  0  0  0  0
   57.9437   -3.7363  -16.2771 C   0  0  0  0  0  0  0  0  0  0  0  0
   58.4650   -2.3367  -16.5560 C   0  0  0  0  0  0  0  0  0  0  0  0
   57.0974   -2.6080  -16.9889 C   0  0  0  0  0  0  0  0  0  0  0  0
   58.3633   -4.7947  -17.1964 C   0  0  0  0  0  0  0  0  0  0  0  0
   59.6691   -4.9039  -17.3024 O   0  0  0  0  0  0  0  0  0  0  0  0
   57.6717   -5.7128  -17.9771 N   0  0  0  0  0  0  0  0  0  0  0  0
   56.6423   -5.7968  -18.0045 H   0  0  0  0  0  0  0  0  0  0  0  0
   58.3898   -6.6739  -18.8147 C   0  0  0  0  0  0  0  0  0  0  0  0
   58.6943   -6.2979  -20.0361 C   0  0  0  0  0  0  0  0  0  0  0  0
   59.4059   -7.0989  -21.0276 C   0  0  0  0  0  0  0  0  0  0  0  0
   59.7623   -8.4689  -20.5995 C   0  0  0  0  0  0  0  0  0  0  0  0
   61.1663   -8.6485  -20.6915 F   0  0  0  0  0  0  0  0  0  0  0  0
   59.3795   -8.7875  -19.2227 C   0  0  0  0  0  0  0  0  0  0  0  0
   58.7518   -7.9862  -18.3861 C   0  0  0  0  0  0  0  0  0  0  0  0
   55.5370   -4.7520   -8.7758 O   0  0  0  0  0  0  0  0  0  0  0  0
   53.6185   -6.2593   -5.4870 C   0  0  0  0  0  0  0  0  0  0  0  0
   54.2731   -5.7670   -6.5825 C   0  0  0  0  0  0  0  0  0  0  0  0
   53.6461   -4.8193   -7.3623 C   0  0  0  0  0  0  0  0  0  0  0  0
   54.2809   -4.2844   -8.5041 C   0  0  0  0  0  0  0  0  0  0  0  0
   53.6357   -3.3433   -9.2714 C   0  0  0  0  0  0  0  0  0  0  0  0
   52.3710   -2.9064   -8.9441 C   0  0  0  0  0  0  0  0  0  0  0  0
   51.7703   -3.4161   -7.8573 N   0  0  0  0  0  0  0  0  0  0  0  0
   52.3888   -4.3499   -7.0824 C   0  0  0  0  0  0  0  0  0  0  0  0
   51.7298   -4.8524   -5.9708 C   0  0  0  0  0  0  0  0  0  0  0  0
   52.3296   -5.7973   -5.1734 C   0  0  0  0  0  0  0  0  0  0  0  0
   55.3902   -7.8063   -4.9464 C   0  0  0  0  0  0  0  0  0  0  0  0
   54.1510   -7.2103   -4.6379 O   0  0  0  0  0  0  0  0  0  0  0  0
   51.6967   -6.2895   -4.0791 O   0  0  0  0  0  0  0  0  0  0  0  0
   51.3590   -5.5636   -2.9535 C   0  0  0  0  0  0  0  0  0  0  0  0
   52.1074   -6.0319   -1.7133 C   0  0  0  0  0  0  0  0  0  0  0  0
   53.2366   -5.0326   -1.4284 C   0  0  0  0  0  0  0  0  0  0  0  0
   54.4694   -5.7723   -1.3232 N   0  0  0  0  0  0  0  0  0  0  0  0
   55.3637   -5.1191   -0.3391 C   0  0  0  0  0  0  0  0  0  0  0  0
   56.5610   -6.0678   -0.2307 C   0  0  0  0  0  0  0  0  0  0  0  0
   56.6246   -6.9605   -1.3006 O   0  0  0  0  0  0  0  0  0  0  0  0
   55.5527   -7.8748   -1.2858 C   0  0  0  0  0  0  0  0  0  0  0  0
   54.2832   -7.1386   -0.8377 C   0  0  0  0  0  0  0  0  0  0  0  0
 37 38  1  0  0  0
 38 27  1  0  0  0
 27 28  2  0  0  0
 28 29  1  0  0  0
 29 30  2  0  0  0
 30 26  1  0  0  0
 26  1  1  0  0  0
  1  2  2  0  0  0
  2  3  1  0  0  0
  3  4  2  0  0  0
  4  8  1  0  0  0
  8  9  1  0  0  0
  9 10  2  0  0  0
  9 12  1  0  0  0
 12 13  1  0  0  0
 13 14  1  0  0  0
 12 15  1  0  0  0
 15 16  2  0  0  0
 15 17  1  0  0  0
 17 19  1  0  0  0
 19 20  2  0  0  0
 20 21  1  0  0  0
 21 22  1  0  0  0
 22 23  1  0  0  0
 22 24  1  0  0  0
 24 25  2  0  0  0
  4  5  1  0  0  0
  5  6  2  0  0  0
  6  7  1  0  0  0
 30 31  1  0  0  0
 31 32  2  0  0  0
 32 33  1  0  0  0
 33 34  2  0  0  0
 34 35  1  0  0  0
 35 36  2  0  0  0
 36 39  1  0  0  0
 39 40  1  0  0  0
 40 41  1  0  0  0
 41 42  1  0  0  0
 42 43  1  0  0  0
 43 44  1  0  0  0
 44 45  1  0  0  0
 45 46  1  0  0  0
 46 47  1  0  0  0
 47 48  1  0  0  0
 36 27  1  0  0  0
 48 43  1  0  0  0
 34 29  1  0  0  0
  6  1  1  0  0  0
 14 12  1  0  0  0
 25 19  1  0  0  0
  8 11  1  0  0  0
 17 18  1  0  0  0
M  END
> <minimizedAffinity>
-8.44961

> <CNNscore>
0.3133237362

> <CNNaffinity>
7.1028466225

> <CNN_VS>
2.2254903316

> <CNNaffinity_variance>
0.0665130019

$$$$
[H]C1=C([H])C([H])(F)C([H])([H])C([H])=C1N([H])C(=O)C1(C(=O)N([H])c2c([H])c([H])c(Oc3c([H])c([H])nc4c([H])c(OC([H])([H])C([H])([H])C([H])([H])N5C([H])([H])C([H])([H])OC([H])([H])C5([H])[H])c(OC([H])([H])[H])c([H])c34)c(F)c2[H])C([H])([H])C1([H])[H]


 48 53  0  0  0  0  0  0  0  0999 V2000
   55.4638   -5.5529   -5.4784 C   0  0  0  0  0  0  0  0  0  0  0  0
   55.8059   -4.9210   -4.2909 C   0  0  0  0  0  0  0  0  0  0  0  0
   55.1573   -5.0990   -3.1052 C   0  0  0  0  0  0  0  0  0  0  0  0
   54.0666   -5.9743   -3.0535 C   0  0  0  0  0  0  0  0  0  0  0  0
   53.6964   -6.6192   -4.2022 C   0  0  0  0  0  0  0  0  0  0  0  0
   54.3840   -6.4161   -5.4098 C   0  0  0  0  0  0  0  0  0  0  0  0
   53.9739   -7.1108   -6.4964 F   0  0  0  0  0  0  0  0  0  0  0  0
   53.4177   -6.1861   -1.7855 N   0  0  0  0  0  0  0  0  0  0  0  0
   53.4448   -7.3915   -1.1221 C   0  0  0  0  0  0  0  0  0  0  0  0
   54.0667   -8.3577   -1.7249 O   0  0  0  0  0  0  0  0  0  0  0  0
   52.9107   -5.3590   -1.4354 H   0  0  0  0  0  0  0  0  0  0  0  0
   52.8767   -7.8001    0.1853 C   0  0  0  0  0  0  0  0  0  0  0  0
   53.3654   -6.9811    1.3680 C   0  0  0  0  0  0  0  0  0  0  0  0
   53.9860   -8.2915    1.1972 C   0  0  0  0  0  0  0  0  0  0  0  0
   51.6066   -8.5079    0.3494 C   0  0  0  0  0  0  0  0  0  0  0  0
   50.5901   -7.7061    0.5776 O   0  0  0  0  0  0  0  0  0  0  0  0
   51.2476   -9.8497    0.3093 N   0  0  0  0  0  0  0  0  0  0  0  0
   51.9041  -10.6236    0.1161 H   0  0  0  0  0  0  0  0  0  0  0  0
   49.8578  -10.2588    0.5147 C   0  0  0  0  0  0  0  0  0  0  0  0
   49.0344  -10.1234   -0.4999 C   0  0  0  0  0  0  0  0  0  0  0  0
   47.6166  -10.4711   -0.5060 C   0  0  0  0  0  0  0  0  0  0  0  0
   47.0818  -10.9775    0.7764 C   0  0  0  0  0  0  0  0  0  0  0  0
   46.5291  -12.2700    0.5869 F   0  0  0  0  0  0  0  0  0  0  0  0
   48.0800  -11.0910    1.8415 C   0  0  0  0  0  0  0  0  0  0  0  0
   49.3544  -10.7696    1.7487 C   0  0  0  0  0  0  0  0  0  0  0  0
   56.1631   -5.3322   -6.6446 O   0  0  0  0  0  0  0  0  0  0  0  0
   58.3447   -5.2085  -10.1078 C   0  0  0  0  0  0  0  0  0  0  0  0
   57.6302   -5.2569   -8.9425 C   0  0  0  0  0  0  0  0  0  0  0  0
   56.3486   -4.7501   -8.9260 C   0  0  0  0  0  0  0  0  0  0  0  0
   55.5741   -4.7754   -7.7461 C   0  0  0  0  0  0  0  0  0  0  0  0
   54.2993   -4.2600   -7.7499 C   0  0  0  0  0  0  0  0  0  0  0  0
   53.7569   -3.7161   -8.8933 C   0  0  0  0  0  0  0  0  0  0  0  0
   54.4954   -3.6943  -10.0140 N   0  0  0  0  0  0  0  0  0  0  0  0
   55.7607   -4.1978  -10.0346 C   0  0  0  0  0  0  0  0  0  0  0  0
   56.4896   -4.1513  -11.2132 C   0  0  0  0  0  0  0  0  0  0  0  0
   57.7693   -4.6496  -11.2611 C   0  0  0  0  0  0  0  0  0  0  0  0
   60.2062   -6.4453   -9.1971 C   0  0  0  0  0  0  0  0  0  0  0  0
   59.6349   -5.6854  -10.2374 O   0  0  0  0  0  0  0  0  0  0  0  0
   58.4880   -4.6162  -12.4111 O   0  0  0  0  0  0  0  0  0  0  0  0
   58.8139   -3.4767  -13.1206 C   0  0  0  0  0  0  0  0  0  0  0  0
   60.2731   -3.4588  -13.5539 C   0  0  0  0  0  0  0  0  0  0  0  0
   60.3178   -3.3733  -15.0855 C   0  0  0  0  0  0  0  0  0  0  0  0
   61.3946   -4.2133  -15.5469 N   0  0  0  0  0  0  0  0  0  0  0  0
   62.3436   -3.4131  -16.3556 C   0  0  0  0  0  0  0  0  0  0  0  0
   63.4871   -4.3840  -16.6641 C   0  0  0  0  0  0  0  0  0  0  0  0
   63.1193   -5.7137  -16.4588 O   0  0  0  0  0  0  0  0  0  0  0  0
   62.8894   -5.9904  -15.0965 C   0  0  0  0  0  0  0  0  0  0  0  0
   62.1889   -4.7828  -14.4598 C   0  0  0  0  0  0  0  0  0  0  0  0
 37 38  1  0  0  0
 38 27  1  0  0  0
 27 28  2  0  0  0
 28 29  1  0  0  0
 29 30  2  0  0  0
 30 26  1  0  0  0
 26  1  1  0  0  0
  1  2  2  0  0  0
  2  3  1  0  0  0
  3  4  2  0  0  0
  4  8  1  0  0  0
  8  9  1  0  0  0
  9 10  2  0  0  0
  9 12  1  0  0  0
 12 13  1  0  0  0
 13 14  1  0  0  0
 12 15  1  0  0  0
 15 16  2  0  0  0
 15 17  1  0  0  0
 17 19  1  0  0  0
 19 20  2  0  0  0
 20 21  1  0  0  0
 21 22  1  0  0  0
 22 23  1  0  0  0
 22 24  1  0  0  0
 24 25  2  0  0  0
  4  5  1  0  0  0
  5  6  2  0  0  0
  6  7  1  0  0  0
 30 31  1  0  0  0
 31 32  2  0  0  0
 32 33  1  0  0  0
 33 34  2  0  0  0
 34 35  1  0  0  0
 35 36  2  0  0  0
 36 39  1  0  0  0
 39 40  1  0  0  0
 40 41  1  0  0  0
 41 42  1  0  0  0
 42 43  1  0  0  0
 43 44  1  0  0  0
 44 45  1  0  0  0
 45 46  1  0  0  0
 46 47  1  0  0  0
 47 48  1  0  0  0
 36 27  1  0  0  0
 48 43  1  0  0  0
 34 29  1  0  0  0
  6  1  1  0  0  0
 14 12  1  0  0  0
 25 19  1  0  0  0
  8 11  1  0  0  0
 17 18  1  0  0  0
M  END
> <minimizedAffinity>
-9.34858

> <CNNscore>
0.2511548698

> <CNNaffinity>
6.7276563644

> <CNN_VS>
1.6896836758

> <CNNaffinity_variance>
0.1695623696

$$$$
[H]C1=C([H])C([H])(F)C([H])([H])C([H])=C1N([H])C(=O)C1(C(=O)N([H])c2c([H])c([H])c(Oc3c([H])c([H])nc4c([H])c(OC([H])([H])C([H])([H])C([H])([H])N5C([H])([H])C([H])([H])OC([H])([H])C5([H])[H])c(OC([H])([H])[H])c([H])c34)c(F)c2[H])C([H])([H])C1([H])[H]


 48 53  0  0  0  0  0  0  0  0999 V2000
   56.3258   -4.5238  -10.1182 C   0  0  0  0  0  0  0  0  0  0  0  0
   55.5485   -3.8978  -11.0827 C   0  0  0  0  0  0  0  0  0  0  0  0
   55.9912   -3.5421  -12.3219 C   0  0  0  0  0  0  0  0  0  0  0  0
   57.3184   -3.8151  -12.6722 C   0  0  0  0  0  0  0  0  0  0  0  0
   58.1194   -4.4327  -11.7505 C   0  0  0  0  0  0  0  0  0  0  0  0
   57.6352   -4.7879  -10.4808 C   0  0  0  0  0  0  0  0  0  0  0  0
   58.4814   -5.4196   -9.6345 F   0  0  0  0  0  0  0  0  0  0  0  0
   57.7610   -3.4734  -13.9992 N   0  0  0  0  0  0  0  0  0  0  0  0
   57.2608   -4.0715  -15.1331 C   0  0  0  0  0  0  0  0  0  0  0  0
   56.3779   -5.0030  -14.9415 O   0  0  0  0  0  0  0  0  0  0  0  0
   58.5044   -2.7587  -14.0176 H   0  0  0  0  0  0  0  0  0  0  0  0
   57.5552   -3.8442  -16.5685 C   0  0  0  0  0  0  0  0  0  0  0  0
   57.7678   -2.3876  -16.9450 C   0  0  0  0  0  0  0  0  0  0  0  0
   56.4609   -2.9491  -17.2738 C   0  0  0  0  0  0  0  0  0  0  0  0
   58.1275   -4.8500  -17.4640 C   0  0  0  0  0  0  0  0  0  0  0  0
   59.4413   -4.8236  -17.5038 O   0  0  0  0  0  0  0  0  0  0  0  0
   57.5745   -5.8315  -18.2775 N   0  0  0  0  0  0  0  0  0  0  0  0
   56.5619   -6.0210  -18.3569 H   0  0  0  0  0  0  0  0  0  0  0  0
   58.4292   -6.7101  -19.0766 C   0  0  0  0  0  0  0  0  0  0  0  0
   59.0454   -6.1760  -20.1065 C   0  0  0  0  0  0  0  0  0  0  0  0
   59.9400   -6.8725  -21.0262 C   0  0  0  0  0  0  0  0  0  0  0  0
   60.1104   -8.3194  -20.7722 C   0  0  0  0  0  0  0  0  0  0  0  0
   61.4826   -8.6092  -20.5600 F   0  0  0  0  0  0  0  0  0  0  0  0
   59.3827   -8.8144  -19.6021 C   0  0  0  0  0  0  0  0  0  0  0  0
   58.6078   -8.1009  -18.8106 C   0  0  0  0  0  0  0  0  0  0  0  0
   55.8166   -4.8609   -8.8834 O   0  0  0  0  0  0  0  0  0  0  0  0
   54.2430   -6.5958   -5.5245 C   0  0  0  0  0  0  0  0  0  0  0  0
   54.7828   -6.0273   -6.6452 C   0  0  0  0  0  0  0  0  0  0  0  0
   54.0662   -5.0555   -7.3097 C   0  0  0  0  0  0  0  0  0  0  0  0
   54.5812   -4.4424   -8.4723 C   0  0  0  0  0  0  0  0  0  0  0  0
   53.8478   -3.4784   -9.1231 C   0  0  0  0  0  0  0  0  0  0  0  0
   52.6096   -3.0938   -8.6578 C   0  0  0  0  0  0  0  0  0  0  0  0
   52.1230   -3.6778   -7.5515 N   0  0  0  0  0  0  0  0  0  0  0  0
   52.8304   -4.6357   -6.8903 C   0  0  0  0  0  0  0  0  0  0  0  0
   52.2878   -5.2155   -5.7536 C   0  0  0  0  0  0  0  0  0  0  0  0
   52.9789   -6.1861   -5.0691 C   0  0  0  0  0  0  0  0  0  0  0  0
   56.0057   -7.2510   -4.0118 C   0  0  0  0  0  0  0  0  0  0  0  0
   54.8720   -7.5772   -4.7827 O   0  0  0  0  0  0  0  0  0  0  0  0
   52.4606   -6.7539   -3.9514 O   0  0  0  0  0  0  0  0  0  0  0  0
   52.3366   -6.1369   -2.7218 C   0  0  0  0  0  0  0  0  0  0  0  0
   51.0679   -6.5503   -1.9890 C   0  0  0  0  0  0  0  0  0  0  0  0
   51.4640   -7.4661   -0.8231 C   0  0  0  0  0  0  0  0  0  0  0  0
   50.2568   -8.0175   -0.2604 N   0  0  0  0  0  0  0  0  0  0  0  0
   49.9742   -9.3361   -0.8739 C   0  0  0  0  0  0  0  0  0  0  0  0
   48.7593   -9.8582   -0.1013 C   0  0  0  0  0  0  0  0  0  0  0  0
   48.1025   -8.8441    0.5958 O   0  0  0  0  0  0  0  0  0  0  0  0
   48.8913   -8.3326    1.6453 C   0  0  0  0  0  0  0  0  0  0  0  0
   50.3510   -8.2657    1.1771 C   0  0  0  0  0  0  0  0  0  0  0  0
 37 38  1  0  0  0
 38 27  1  0  0  0
 27 28  2  0  0  0
 28 29  1  0  0  0
 29 30  2  0  0  0
 30 26  1  0  0  0
 26  1  1  0  0  0
  1  2  2  0  0  0
  2  3  1  0  0  0
  3  4  2  0  0  0
  4  8  1  0  0  0
  8  9  1  0  0  0
  9 10  2  0  0  0
  9 12  1  0  0  0
 12 13  1  0  0  0
 13 14  1  0  0  0
 12 15  1  0  0  0
 15 16  2  0  0  0
 15 17  1  0  0  0
 17 19  1  0  0  0
 19 20  2  0  0  0
 20 21  1  0  0  0
 21 22  1  0  0  0
 22 23  1  0  0  0
 22 24  1  0  0  0
 24 25  2  0  0  0
  4  5  1  0  0  0
  5  6  2  0  0  0
  6  7  1  0  0  0
 30 31  1  0  0  0
 31 32  2  0  0  0
 32 33  1  0  0  0
 33 34  2  0  0  0
 34 35  1  0  0  0
 35 36  2  0  0  0
 36 39  1  0  0  0
 39 40  1  0  0  0
 40 41  1  0  0  0
 41 42  1  0  0  0
 42 43  1  0  0  0
 43 44  1  0  0  0
 44 45  1  0  0  0
 45 46  1  0  0  0
 46 47  1  0  0  0
 47 48  1  0  0  0
 36 27  1  0  0  0
 48 43  1  0  0  0
 34 29  1  0  0  0
  6  1  1  0  0  0
 14 12  1  0  0  0
 25 19  1  0  0  0
  8 11  1  0  0  0
 17 18  1  0  0  0
M  END
> <minimizedAffinity>
-8.98748

> <CNNscore>
0.2393307239

> <CNNaffinity>
6.7712745667

> <CNN_VS>
1.6205739975

> <CNNaffinity_variance>
0.0915875435

$$$$
[H]C1=C([H])C([H])(F)C([H])([H])C([H])=C1N([H])C(=O)C1(C(=O)N([H])c2c([H])c([H])c(Oc3c([H])c([H])nc4c([H])c(OC([H])([H])C([H])([H])C([H])([H])N5C([H])([H])C([H])([H])OC([H])([H])C5([H])[H])c(OC([H])([H])[H])c([H])c34)c(F)c2[H])C([H])([H])C1([H])[H]


 48 53  0  0  0  0  0  0  0  0999 V2000
   55.7925   -5.8812   -4.9574 C   0  0  0  0  0  0  0  0  0  0  0  0
   55.8757   -5.1903   -3.7565 C   0  0  0  0  0  0  0  0  0  0  0  0
   55.4624   -5.6787   -2.5528 C   0  0  0  0  0  0  0  0  0  0  0  0
   54.9113   -6.9638   -2.4953 C   0  0  0  0  0  0  0  0  0  0  0  0
   54.8117   -7.6802   -3.6569 C   0  0  0  0  0  0  0  0  0  0  0  0
   55.2464   -7.1509   -4.8831 C   0  0  0  0  0  0  0  0  0  0  0  0
   55.1388   -7.9314   -5.9834 F   0  0  0  0  0  0  0  0  0  0  0  0
   54.5187   -7.4841   -1.2113 N   0  0  0  0  0  0  0  0  0  0  0  0
   53.2388   -7.3744   -0.7179 C   0  0  0  0  0  0  0  0  0  0  0  0
   52.3942   -6.7344   -1.4670 O   0  0  0  0  0  0  0  0  0  0  0  0
   55.2914   -7.9225   -0.6872 H   0  0  0  0  0  0  0  0  0  0  0  0
   52.6334   -7.8618    0.5449 C   0  0  0  0  0  0  0  0  0  0  0  0
   52.9243   -6.9951    1.7585 C   0  0  0  0  0  0  0  0  0  0  0  0
   53.7191   -8.2137    1.6373 C   0  0  0  0  0  0  0  0  0  0  0  0
   51.4562   -8.7280    0.6166 C   0  0  0  0  0  0  0  0  0  0  0  0
   51.5968   -9.8527   -0.0494 O   0  0  0  0  0  0  0  0  0  0  0  0
   50.2222   -8.6143    1.2453 N   0  0  0  0  0  0  0  0  0  0  0  0
   49.9396   -7.8145    1.8351 H   0  0  0  0  0  0  0  0  0  0  0  0
   49.2233   -9.6773    1.1306 C   0  0  0  0  0  0  0  0  0  0  0  0
   48.4827   -9.6926    0.0457 C   0  0  0  0  0  0  0  0  0  0  0  0
   47.4365  -10.6621   -0.2648 C   0  0  0  0  0  0  0  0  0  0  0  0
   47.1838  -11.6792    0.7786 C   0  0  0  0  0  0  0  0  0  0  0  0
   47.3676  -12.9767    0.2360 F   0  0  0  0  0  0  0  0  0  0  0  0
   48.0621  -11.5749    1.9454 C   0  0  0  0  0  0  0  0  0  0  0  0
   49.0017  -10.6703    2.1315 C   0  0  0  0  0  0  0  0  0  0  0  0
   56.2318   -5.3318   -6.1418 O   0  0  0  0  0  0  0  0  0  0  0  0
   57.6447   -4.9603   -9.9673 C   0  0  0  0  0  0  0  0  0  0  0  0
   57.1893   -5.0891   -8.6840 C   0  0  0  0  0  0  0  0  0  0  0  0
   55.8761   -4.7736   -8.4090 C   0  0  0  0  0  0  0  0  0  0  0  0
   55.3620   -4.8880   -7.0993 C   0  0  0  0  0  0  0  0  0  0  0  0
   54.0502   -4.5633   -6.8453 C   0  0  0  0  0  0  0  0  0  0  0  0
   53.2192   -4.1263   -7.8532 C   0  0  0  0  0  0  0  0  0  0  0  0
   53.7107   -4.0195   -9.0978 N   0  0  0  0  0  0  0  0  0  0  0  0
   55.0067   -4.3343   -9.3736 C   0  0  0  0  0  0  0  0  0  0  0  0
   55.4738   -4.2054  -10.6728 C   0  0  0  0  0  0  0  0  0  0  0  0
   56.7776   -4.5135  -10.9781 C   0  0  0  0  0  0  0  0  0  0  0  0
   59.7694   -6.0084   -9.5072 C   0  0  0  0  0  0  0  0  0  0  0  0
   58.9395   -5.2473  -10.3546 O   0  0  0  0  0  0  0  0  0  0  0  0
   57.2423   -4.3986  -12.2475 O   0  0  0  0  0  0  0  0  0  0  0  0
   56.5776   -3.7876  -13.2927 C   0  0  0  0  0  0  0  0  0  0  0  0
   56.1686   -4.7740  -14.3777 C   0  0  0  0  0  0  0  0  0  0  0  0
   56.2089   -4.0460  -15.7280 C   0  0  0  0  0  0  0  0  0  0  0  0
   57.5381   -4.1841  -16.2685 N   0  0  0  0  0  0  0  0  0  0  0  0
   57.4670   -4.7478  -17.6368 C   0  0  0  0  0  0  0  0  0  0  0  0
   58.9157   -4.7164  -18.1326 C   0  0  0  0  0  0  0  0  0  0  0  0
   59.8272   -4.5666  -17.0875 O   0  0  0  0  0  0  0  0  0  0  0  0
   59.7226   -3.3011  -16.4770 C   0  0  0  0  0  0  0  0  0  0  0  0
   58.2408   -2.9095  -16.4054 C   0  0  0  0  0  0  0  0  0  0  0  0
 37 38  1  0  0  0
 38 27  1  0  0  0
 27 28  2  0  0  0
 28 29  1  0  0  0
 29 30  2  0  0  0
 30 26  1  0  0  0
 26  1  1  0  0  0
  1  2  2  0  0  0
  2  3  1  0  0  0
  3  4  2  0  0  0
  4  8  1  0  0  0
  8  9  1  0  0  0
  9 10  2  0  0  0
  9 12  1  0  0  0
 12 13  1  0  0  0
 13 14  1  0  0  0
 12 15  1  0  0  0
 15 16  2  0  0  0
 15 17  1  0  0  0
 17 19  1  0  0  0
 19 20  2  0  0  0
 20 21  1  0  0  0
 21 22  1  0  0  0
 22 23  1  0  0  0
 22 24  1  0  0  0
 24 25  2  0  0  0
  4  5  1  0  0  0
  5  6  2  0  0  0
  6  7  1  0  0  0
 30 31  1  0  0  0
 31 32  2  0  0  0
 32 33  1  0  0  0
 33 34  2  0  0  0
 34 35  1  0  0  0
 35 36  2  0  0  0
 36 39  1  0  0  0
 39 40  1  0  0  0
 40 41  1  0  0  0
 41 42  1  0  0  0
 42 43  1  0  0  0
 43 44  1  0  0  0
 44 45  1  0  0  0
 45 46  1  0  0  0
 46 47  1  0  0  0
 47 48  1  0  0  0
 36 27  1  0  0  0
 48 43  1  0  0  0
 34 29  1  0  0  0
  6  1  1  0  0  0
 14 12  1  0  0  0
 25 19  1  0  0  0
  8 11  1  0  0  0
 17 18  1  0  0  0
M  END
> <minimizedAffinity>
-10.15579

> <CNNscore>
0.2324037552

> <CNNaffinity>
6.8534712791

> <CNN_VS>
1.5927724838

> <CNNaffinity_variance>
0.0991828293

$$$$
[H]C1=C([H])C([H])(F)C([H])([H])C([H])=C1N([H])C(=O)C1(C(=O)N([H])c2c([H])c([H])c(Oc3c([H])c([H])nc4c([H])c(OC([H])([H])C([H])([H])C([H])([H])N5C([H])([H])C([H])([H])OC([H])([H])C5([H])[H])c(OC([H])([H])[H])c([H])c34)c(F)c2[H])C([H])([H])C1([H])[H]


 48 53  0  0  0  0  0  0  0  0999 V2000
   56.2280   -4.3837  -10.1685 C   0  0  0  0  0  0  0  0  0  0  0  0
   55.5392   -3.8348  -11.2411 C   0  0  0  0  0  0  0  0  0  0  0  0
   56.0784   -3.6081  -12.4724 C   0  0  0  0  0  0  0  0  0  0  0  0
   57.4185   -3.9426  -12.6979 C   0  0  0  0  0  0  0  0  0  0  0  0
   58.1342   -4.4877  -11.6668 C   0  0  0  0  0  0  0  0  0  0  0  0
   57.5515   -4.7101  -10.4084 C   0  0  0  0  0  0  0  0  0  0  0  0
   58.3171   -5.2775   -9.4476 F   0  0  0  0  0  0  0  0  0  0  0  0
   57.9634   -3.7381  -14.0151 N   0  0  0  0  0  0  0  0  0  0  0  0
   59.2875   -3.4381  -14.2399 C   0  0  0  0  0  0  0  0  0  0  0  0
   60.0286   -3.3110  -13.1823 O   0  0  0  0  0  0  0  0  0  0  0  0
   57.2641   -3.8120  -14.7696 H   0  0  0  0  0  0  0  0  0  0  0  0
   60.0407   -3.2246  -15.4993 C   0  0  0  0  0  0  0  0  0  0  0  0
   59.3527   -2.3084  -16.4971 C   0  0  0  0  0  0  0  0  0  0  0  0
   59.2522   -3.7395  -16.7678 C   0  0  0  0  0  0  0  0  0  0  0  0
   61.4898   -3.3790  -15.6317 C   0  0  0  0  0  0  0  0  0  0  0  0
   62.0672   -2.3665  -16.2399 O   0  0  0  0  0  0  0  0  0  0  0  0
   62.3853   -4.3685  -15.2448 N   0  0  0  0  0  0  0  0  0  0  0  0
   62.1216   -5.2257  -14.7319 H   0  0  0  0  0  0  0  0  0  0  0  0
   63.8154   -4.2340  -15.5238 C   0  0  0  0  0  0  0  0  0  0  0  0
   64.2707   -4.8002  -16.6183 C   0  0  0  0  0  0  0  0  0  0  0  0
   65.6556   -4.7837  -17.0799 C   0  0  0  0  0  0  0  0  0  0  0  0
   66.6138   -4.0962  -16.1877 C   0  0  0  0  0  0  0  0  0  0  0  0
   67.2571   -3.0477  -16.8940 F   0  0  0  0  0  0  0  0  0  0  0  0
   66.0054   -3.4996  -14.9971 C   0  0  0  0  0  0  0  0  0  0  0  0
   64.7301   -3.5478  -14.6698 C   0  0  0  0  0  0  0  0  0  0  0  0
   55.6233   -4.5908   -8.9482 O   0  0  0  0  0  0  0  0  0  0  0  0
   53.6541   -6.1987   -5.7379 C   0  0  0  0  0  0  0  0  0  0  0  0
   54.3255   -5.6731   -6.8074 C   0  0  0  0  0  0  0  0  0  0  0  0
   53.7144   -4.6944   -7.5612 C   0  0  0  0  0  0  0  0  0  0  0  0
   54.3669   -4.1243   -8.6757 C   0  0  0  0  0  0  0  0  0  0  0  0
   53.7375   -3.1526   -9.4175 C   0  0  0  0  0  0  0  0  0  0  0  0
   52.4716   -2.7186   -9.0906 C   0  0  0  0  0  0  0  0  0  0  0  0
   51.8541   -3.2618   -8.0298 N   0  0  0  0  0  0  0  0  0  0  0  0
   52.4568   -4.2263   -7.2805 C   0  0  0  0  0  0  0  0  0  0  0  0
   51.7807   -4.7628   -6.1953 C   0  0  0  0  0  0  0  0  0  0  0  0
   52.3643   -5.7390   -5.4242 C   0  0  0  0  0  0  0  0  0  0  0  0
   55.5531   -7.4509   -4.9317 C   0  0  0  0  0  0  0  0  0  0  0  0
   54.1697   -7.1825   -4.9162 O   0  0  0  0  0  0  0  0  0  0  0  0
   51.7147   -6.2648   -4.3556 O   0  0  0  0  0  0  0  0  0  0  0  0
   50.7572   -5.6162   -3.6003 C   0  0  0  0  0  0  0  0  0  0  0  0
   50.7510   -6.0767   -2.1493 C   0  0  0  0  0  0  0  0  0  0  0  0
   52.2033   -6.3176   -1.7161 C   0  0  0  0  0  0  0  0  0  0  0  0
   52.1950   -7.2919   -0.6536 N   0  0  0  0  0  0  0  0  0  0  0  0
   50.9240   -8.0525   -0.6808 C   0  0  0  0  0  0  0  0  0  0  0  0
   51.1034   -9.1240    0.3987 C   0  0  0  0  0  0  0  0  0  0  0  0
   52.1451   -8.8199    1.2750 O   0  0  0  0  0  0  0  0  0  0  0  0
   53.3997   -8.8673    0.6356 C   0  0  0  0  0  0  0  0  0  0  0  0
   53.2536   -8.2922   -0.7794 C   0  0  0  0  0  0  0  0  0  0  0  0
 37 38  1  0  0  0
 38 27  1  0  0  0
 27 28  2  0  0  0
 28 29  1  0  0  0
 29 30  2  0  0  0
 30 26  1  0  0  0
 26  1  1  0  0  0
  1  2  2  0  0  0
  2  3  1  0  0  0
  3  4  2  0  0  0
  4  8  1  0  0  0
  8  9  1  0  0  0
  9 10  2  0  0  0
  9 12  1  0  0  0
 12 13  1  0  0  0
 13 14  1  0  0  0
 12 15  1  0  0  0
 15 16  2  0  0  0
 15 17  1  0  0  0
 17 19  1  0  0  0
 19 20  2  0  0  0
 20 21  1  0  0  0
 21 22  1  0  0  0
 22 23  1  0  0  0
 22 24  1  0  0  0
 24 25  2  0  0  0
  4  5  1  0  0  0
  5  6  2  0  0  0
  6  7  1  0  0  0
 30 31  1  0  0  0
 31 32  2  0  0  0
 32 33  1  0  0  0
 33 34  2  0  0  0
 34 35  1  0  0  0
 35 36  2  0  0  0
 36 39  1  0  0  0
 39 40  1  0  0  0
 40 41  1  0  0  0
 41 42  1  0  0  0
 42 43  1  0  0  0
 43 44  1  0  0  0
 44 45  1  0  0  0
 45 46  1  0  0  0
 46 47  1  0  0  0
 47 48  1  0  0  0
 36 27  1  0  0  0
 48 43  1  0  0  0
 34 29  1  0  0  0
  6  1  1  0  0  0
 14 12  1  0  0  0
 25 19  1  0  0  0
  8 11  1  0  0  0
 17 18  1  0  0  0
M  END
> <minimizedAffinity>
-8.18533

> <CNNscore>
0.2166082710

> <CNNaffinity>
6.6016616821

> <CNN_VS>
1.4299745560

> <CNNaffinity_variance>
0.1123380288

$$$$
[H]C1=C([H])C([H])(F)C([H])([H])C([H])=C1N([H])C(=O)C1(C(=O)N([H])c2c([H])c([H])c(Oc3c([H])c([H])nc4c([H])c(OC([H])([H])C([H])([H])C([H])([H])N5C([H])([H])C([H])([H])OC([H])([H])C5([H])[H])c(OC([H])([H])[H])c([H])c34)c(F)c2[H])C([H])([H])C1([H])[H]


 48 53  0  0  0  0  0  0  0  0999 V2000
   56.5615   -4.5684  -10.1214 C   0  0  0  0  0  0  0  0  0  0  0  0
   55.5962   -4.0217  -10.9555 C   0  0  0  0  0  0  0  0  0  0  0  0
   55.8115   -3.6524  -12.2499 C   0  0  0  0  0  0  0  0  0  0  0  0
   57.0861   -3.8253  -12.8015 C   0  0  0  0  0  0  0  0  0  0  0  0
   58.0674   -4.3623  -12.0134 C   0  0  0  0  0  0  0  0  0  0  0  0
   57.8160   -4.7339  -10.6825 C   0  0  0  0  0  0  0  0  0  0  0  0
   58.8313   -5.2827   -9.9758 F   0  0  0  0  0  0  0  0  0  0  0  0
   57.2887   -3.4714  -14.1825 N   0  0  0  0  0  0  0  0  0  0  0  0
   56.8473   -4.2497  -15.2280 C   0  0  0  0  0  0  0  0  0  0  0  0
   56.2584   -5.3589  -14.9011 O   0  0  0  0  0  0  0  0  0  0  0  0
   57.8170   -2.5952  -14.3132 H   0  0  0  0  0  0  0  0  0  0  0  0
   56.9260   -4.0508  -16.6953 C   0  0  0  0  0  0  0  0  0  0  0  0
   57.6936   -5.1319  -17.4373 C   0  0  0  0  0  0  0  0  0  0  0  0
   58.4131   -3.8836  -17.2019 C   0  0  0  0  0  0  0  0  0  0  0  0
   55.9701   -3.2638  -17.4750 C   0  0  0  0  0  0  0  0  0  0  0  0
   55.3501   -2.3470  -16.7654 O   0  0  0  0  0  0  0  0  0  0  0  0
   55.5834   -3.2777  -18.8096 N   0  0  0  0  0  0  0  0  0  0  0  0
   55.9792   -3.9093  -19.5249 H   0  0  0  0  0  0  0  0  0  0  0  0
   54.5762   -2.3399  -19.3066 C   0  0  0  0  0  0  0  0  0  0  0  0
   53.3207   -2.7234  -19.2573 C   0  0  0  0  0  0  0  0  0  0  0  0
   52.1679   -1.9435  -19.6977 C   0  0  0  0  0  0  0  0  0  0  0  0
   52.4821   -0.6246  -20.2884 C   0  0  0  0  0  0  0  0  0  0  0  0
   51.8228    0.3962  -19.5569 F   0  0  0  0  0  0  0  0  0  0  0  0
   53.9082   -0.2931  -20.2953 C   0  0  0  0  0  0  0  0  0  0  0  0
   54.8854   -1.0583  -19.8532 C   0  0  0  0  0  0  0  0  0  0  0  0
   56.2786   -4.9244   -8.8211 O   0  0  0  0  0  0  0  0  0  0  0  0
   55.4794   -6.7623   -5.2501 C   0  0  0  0  0  0  0  0  0  0  0  0
   55.7625   -6.1564   -6.4431 C   0  0  0  0  0  0  0  0  0  0  0  0
   54.7949   -5.3775   -7.0402 C   0  0  0  0  0  0  0  0  0  0  0  0
   55.0401   -4.7348   -8.2729 C   0  0  0  0  0  0  0  0  0  0  0  0
   54.0592   -3.9661   -8.8541 C   0  0  0  0  0  0  0  0  0  0  0  0
   52.8311   -3.8075   -8.2509 C   0  0  0  0  0  0  0  0  0  0  0  0
   52.6011   -4.4190   -7.0783 N   0  0  0  0  0  0  0  0  0  0  0  0
   53.5566   -5.1862   -6.4838 C   0  0  0  0  0  0  0  0  0  0  0  0
   53.2749   -5.8030   -5.2743 C   0  0  0  0  0  0  0  0  0  0  0  0
   54.2197   -6.5846   -4.6542 C   0  0  0  0  0  0  0  0  0  0  0  0
   57.5017   -6.9852   -3.9520 C   0  0  0  0  0  0  0  0  0  0  0  0
   56.3725   -7.5638   -4.5653 O   0  0  0  0  0  0  0  0  0  0  0  0
   53.9571   -7.1859   -3.4669 O   0  0  0  0  0  0  0  0  0  0  0  0
   52.7839   -7.0637   -2.7481 C   0  0  0  0  0  0  0  0  0  0  0  0
   52.5599   -8.2316   -1.7977 C   0  0  0  0  0  0  0  0  0  0  0  0
   52.2714   -7.6651   -0.4010 C   0  0  0  0  0  0  0  0  0  0  0  0
   50.9353   -8.0580   -0.0287 N   0  0  0  0  0  0  0  0  0  0  0  0
   50.5258   -9.2473   -0.8116 C   0  0  0  0  0  0  0  0  0  0  0  0
   49.1620   -9.6300   -0.2293 C   0  0  0  0  0  0  0  0  0  0  0  0
   48.5930   -8.5909    0.5069 O   0  0  0  0  0  0  0  0  0  0  0  0
   49.3221   -8.3192    1.6815 C   0  0  0  0  0  0  0  0  0  0  0  0
   50.8194   -8.4528    1.3741 C   0  0  0  0  0  0  0  0  0  0  0  0
 37 38  1  0  0  0
 38 27  1  0  0  0
 27 28  2  0  0  0
 28 29  1  0  0  0
 29 30  2  0  0  0
 30 26  1  0  0  0
 26  1  1  0  0  0
  1  2  2  0  0  0
  2  3  1  0  0  0
  3  4  2  0  0  0
  4  8  1  0  0  0
  8  9  1  0  0  0
  9 10  2  0  0  0
  9 12  1  0  0  0
 12 13  1  0  0  0
 13 14  1  0  0  0
 12 15  1  0  0  0
 15 16  2  0  0  0
 15 17  1  0  0  0
 17 19  1  0  0  0
 19 20  2  0  0  0
 20 21  1  0  0  0
 21 22  1  0  0  0
 22 23  1  0  0  0
 22 24  1  0  0  0
 24 25  2  0  0  0
  4  5  1  0  0  0
  5  6  2  0  0  0
  6  7  1  0  0  0
 30 31  1  0  0  0
 31 32  2  0  0  0
 32 33  1  0  0  0
 33 34  2  0  0  0
 34 35  1  0  0  0
 35 36  2  0  0  0
 36 39  1  0  0  0
 39 40  1  0  0  0
 40 41  1  0  0  0
 41 42  1  0  0  0
 42 43  1  0  0  0
 43 44  1  0  0  0
 44 45  1  0  0  0
 45 46  1  0  0  0
 46 47  1  0  0  0
 47 48  1  0  0  0
 36 27  1  0  0  0
 48 43  1  0  0  0
 34 29  1  0  0  0
  6  1  1  0  0  0
 14 12  1  0  0  0
 25 19  1  0  0  0
  8 11  1  0  0  0
 17 18  1  0  0  0
M  END
> <minimizedAffinity>
-9.02312

> <CNNscore>
0.2049068511

> <CNNaffinity>
6.7250976562

> <CNN_VS>
1.3780186176

> <CNNaffinity_variance>
0.2061432600

$$$$
[H]C1=C([H])C([H])(F)C([H])([H])C([H])=C1N([H])C(=O)C1(C(=O)N([H])c2c([H])c([H])c(Oc3c([H])c([H])nc4c([H])c(OC([H])([H])C([H])([H])C([H])([H])N5C([H])([H])C([H])([H])OC([H])([H])C5([H])[H])c(OC([H])([H])[H])c([H])c34)c(F)c2[H])C([H])([H])C1([H])[H]


 48 53  0  0  0  0  0  0  0  0999 V2000
   57.1056   -4.4537  -10.5172 C   0  0  0  0  0  0  0  0  0  0  0  0
   55.8137   -3.9647  -10.6510 C   0  0  0  0  0  0  0  0  0  0  0  0
   54.8962   -3.9175   -9.6439 C   0  0  0  0  0  0  0  0  0  0  0  0
   55.2557   -4.3892   -8.3763 C   0  0  0  0  0  0  0  0  0  0  0  0
   56.5212   -4.8791   -8.2005 C   0  0  0  0  0  0  0  0  0  0  0  0
   57.4457   -4.9149   -9.2573 C   0  0  0  0  0  0  0  0  0  0  0  0
   58.6861   -5.3896   -8.9975 F   0  0  0  0  0  0  0  0  0  0  0  0
   54.2916   -4.2937   -7.3109 N   0  0  0  0  0  0  0  0  0  0  0  0
   53.1993   -5.1248   -7.2122 C   0  0  0  0  0  0  0  0  0  0  0  0
   53.0587   -5.9936   -8.1658 O   0  0  0  0  0  0  0  0  0  0  0  0
   54.4828   -3.5292   -6.6455 H   0  0  0  0  0  0  0  0  0  0  0  0
   52.1251   -5.2096   -6.1935 C   0  0  0  0  0  0  0  0  0  0  0  0
   50.7368   -5.4533   -6.7608 C   0  0  0  0  0  0  0  0  0  0  0  0
   51.0361   -4.0788   -6.3704 C   0  0  0  0  0  0  0  0  0  0  0  0
   52.3414   -5.5737   -4.7929 C   0  0  0  0  0  0  0  0  0  0  0  0
   53.5743   -5.9524   -4.5385 O   0  0  0  0  0  0  0  0  0  0  0  0
   51.5188   -5.5980   -3.6732 N   0  0  0  0  0  0  0  0  0  0  0  0
   50.5267   -5.3097   -3.6719 H   0  0  0  0  0  0  0  0  0  0  0  0
   52.0385   -6.0197   -2.3720 C   0  0  0  0  0  0  0  0  0  0  0  0
   51.6838   -7.2081   -1.9388 C   0  0  0  0  0  0  0  0  0  0  0  0
   52.0902   -7.8168   -0.6757 C   0  0  0  0  0  0  0  0  0  0  0  0
   52.9427   -6.9736    0.1899 C   0  0  0  0  0  0  0  0  0  0  0  0
   54.1666   -7.6411    0.4516 F   0  0  0  0  0  0  0  0  0  0  0  0
   53.2805   -5.6702   -0.3849 C   0  0  0  0  0  0  0  0  0  0  0  0
   52.8809   -5.2095   -1.5528 C   0  0  0  0  0  0  0  0  0  0  0  0
   57.9875   -4.4708  -11.5754 O   0  0  0  0  0  0  0  0  0  0  0  0
   60.9285   -3.3236  -14.1837 C   0  0  0  0  0  0  0  0  0  0  0  0
   59.9586   -3.7085  -13.2995 C   0  0  0  0  0  0  0  0  0  0  0  0
   58.6446   -3.7180  -13.7155 C   0  0  0  0  0  0  0  0  0  0  0  0
   57.6090   -4.1049  -12.8376 C   0  0  0  0  0  0  0  0  0  0  0  0
   56.3041   -4.1026  -13.2712 C   0  0  0  0  0  0  0  0  0  0  0  0
   55.9843   -3.7286  -14.5578 C   0  0  0  0  0  0  0  0  0  0  0  0
   56.9713   -3.3621  -15.3905 N   0  0  0  0  0  0  0  0  0  0  0  0
   58.2710   -3.3555  -14.9837 C   0  0  0  0  0  0  0  0  0  0  0  0
   59.2584   -2.9659  -15.8758 C   0  0  0  0  0  0  0  0  0  0  0  0
   60.5774   -2.9474  -15.4907 C   0  0  0  0  0  0  0  0  0  0  0  0
   63.0472   -4.4526  -13.9371 C   0  0  0  0  0  0  0  0  0  0  0  0
   62.2742   -3.2760  -13.8740 O   0  0  0  0  0  0  0  0  0  0  0  0
   61.5518   -2.5756  -16.3582 O   0  0  0  0  0  0  0  0  0  0  0  0
   61.6979   -3.0442  -17.6493 C   0  0  0  0  0  0  0  0  0  0  0  0
   61.4608   -1.9604  -18.6917 C   0  0  0  0  0  0  0  0  0  0  0  0
   60.5171   -2.5233  -19.7629 C   0  0  0  0  0  0  0  0  0  0  0  0
   59.2982   -1.7543  -19.7307 N   0  0  0  0  0  0  0  0  0  0  0  0
   58.1910   -2.5911  -19.2122 C   0  0  0  0  0  0  0  0  0  0  0  0
   57.0066   -1.6258  -19.1077 C   0  0  0  0  0  0  0  0  0  0  0  0
   57.2057   -0.4648  -19.8547 O   0  0  0  0  0  0  0  0  0  0  0  0
   58.2464    0.3259  -19.3286 C   0  0  0  0  0  0  0  0  0  0  0  0
   59.3680   -0.5990  -18.8378 C   0  0  0  0  0  0  0  0  0  0  0  0
 37 38  1  0  0  0
 38 27  1  0  0  0
 27 28  2  0  0  0
 28 29  1  0  0  0
 29 30  2  0  0  0
 30 26  1  0  0  0
 26  1  1  0  0  0
  1  2  2  0  0  0
  2  3  1  0  0  0
  3  4  2  0  0  0
  4  8  1  0  0  0
  8  9  1  0  0  0
  9 10  2  0  0  0
  9 12  1  0  0  0
 12 13  1  0  0  0
 13 14  1  0  0  0
 12 15  1  0  0  0
 15 16  2  0  0  0
 15 17  1  0  0  0
 17 19  1  0  0  0
 19 20  2  0  0  0
 20 21  1  0  0  0
 21 22  1  0  0  0
 22 23  1  0  0  0
 22 24  1  0  0  0
 24 25  2  0  0  0
  4  5  1  0  0  0
  5  6  2  0  0  0
  6  7  1  0  0  0
 30 31  1  0  0  0
 31 32  2  0  0  0
 32 33  1  0  0  0
 33 34  2  0  0  0
 34 35  1  0  0  0
 35 36  2  0  0  0
 36 39  1  0  0  0
 39 40  1  0  0  0
 40 41  1  0  0  0
 41 42  1  0  0  0
 42 43  1  0  0  0
 43 44  1  0  0  0
 44 45  1  0  0  0
 45 46  1  0  0  0
 46 47  1  0  0  0
 47 48  1  0  0  0
 36 27  1  0  0  0
 48 43  1  0  0  0
 34 29  1  0  0  0
  6  1  1  0  0  0
 14 12  1  0  0  0
 25 19  1  0  0  0
  8 11  1  0  0  0
 17 18  1  0  0  0
M  END
> <minimizedAffinity>
-8.34196

> <CNNscore>
0.2001953572

> <CNNaffinity>
6.7257218361

> <CNN_VS>
1.3464583158

> <CNNaffinity_variance>
0.1633212864

$$$$
[H]C1=C([H])C([H])(F)C([H])([H])C([H])=C1N([H])C(=O)C1(C(=O)N([H])c2c([H])c([H])c(Oc3c([H])c([H])nc4c([H])c(OC([H])([H])C([H])([H])C([H])([H])N5C([H])([H])C([H])([H])OC([H])([H])C5([H])[H])c(OC([H])([H])[H])c([H])c34)c(F)c2[H])C([H])([H])C1([H])[H]


 48 53  0  0  0  0  0  0  0  0999 V2000
   56.5830   -4.7075   -9.5043 C   0  0  0  0  0  0  0  0  0  0  0  0
   55.8860   -3.8538  -10.3478 C   0  0  0  0  0  0  0  0  0  0  0  0
   56.3353   -3.4300  -11.5630 C   0  0  0  0  0  0  0  0  0  0  0  0
   57.5838   -3.8710  -12.0160 C   0  0  0  0  0  0  0  0  0  0  0  0
   58.3040   -4.7153  -11.2153 C   0  0  0  0  0  0  0  0  0  0  0  0
   57.8151   -5.1355   -9.9675 C   0  0  0  0  0  0  0  0  0  0  0  0
   58.5747   -5.9920   -9.2458 F   0  0  0  0  0  0  0  0  0  0  0  0
   58.0273   -3.4505  -13.3199 N   0  0  0  0  0  0  0  0  0  0  0  0
   57.4102   -3.8456  -14.4847 C   0  0  0  0  0  0  0  0  0  0  0  0
   56.4100   -4.6612  -14.3491 O   0  0  0  0  0  0  0  0  0  0  0  0
   58.8642   -2.8479  -13.2993 H   0  0  0  0  0  0  0  0  0  0  0  0
   57.6872   -3.5053  -15.9011 C   0  0  0  0  0  0  0  0  0  0  0  0
   56.4644   -3.0836  -16.6984 C   0  0  0  0  0  0  0  0  0  0  0  0
   56.9244   -4.4531  -16.9090 C   0  0  0  0  0  0  0  0  0  0  0  0
   58.9897   -3.0712  -16.4072 C   0  0  0  0  0  0  0  0  0  0  0  0
   59.1855   -1.7760  -16.2959 O   0  0  0  0  0  0  0  0  0  0  0  0
   60.0662   -3.7410  -16.9759 N   0  0  0  0  0  0  0  0  0  0  0  0
   60.1071   -4.7633  -17.1195 H   0  0  0  0  0  0  0  0  0  0  0  0
   61.2654   -3.0130  -17.3917 C   0  0  0  0  0  0  0  0  0  0  0  0
   61.2319   -2.4169  -18.5619 C   0  0  0  0  0  0  0  0  0  0  0  0
   62.3141   -1.6411  -19.1603 C   0  0  0  0  0  0  0  0  0  0  0  0
   63.5624   -1.5784  -18.3698 C   0  0  0  0  0  0  0  0  0  0  0  0
   63.8857   -0.2252  -18.0934 F   0  0  0  0  0  0  0  0  0  0  0  0
   63.4950   -2.2736  -17.0830 C   0  0  0  0  0  0  0  0  0  0  0  0
   62.4584   -2.9366  -16.6120 C   0  0  0  0  0  0  0  0  0  0  0  0
   56.0712   -5.1017   -8.2876 O   0  0  0  0  0  0  0  0  0  0  0  0
   54.7140   -6.6855   -4.7636 C   0  0  0  0  0  0  0  0  0  0  0  0
   55.1829   -6.1653   -5.9384 C   0  0  0  0  0  0  0  0  0  0  0  0
   54.3456   -5.3776   -6.6987 C   0  0  0  0  0  0  0  0  0  0  0  0
   54.7843   -4.8212   -7.9197 C   0  0  0  0  0  0  0  0  0  0  0  0
   53.9313   -4.0422   -8.6656 C   0  0  0  0  0  0  0  0  0  0  0  0
   52.6456   -3.7899   -8.2402 C   0  0  0  0  0  0  0  0  0  0  0  0
   52.2317   -4.3195   -7.0783 N   0  0  0  0  0  0  0  0  0  0  0  0
   53.0579   -5.0949   -6.3228 C   0  0  0  0  0  0  0  0  0  0  0  0
   52.5876   -5.6252   -5.1310 C   0  0  0  0  0  0  0  0  0  0  0  0
   53.3992   -6.4131   -4.3508 C   0  0  0  0  0  0  0  0  0  0  0  0
   56.8511   -7.2644   -3.8034 C   0  0  0  0  0  0  0  0  0  0  0  0
   55.4648   -7.4870   -3.9253 O   0  0  0  0  0  0  0  0  0  0  0  0
   52.9515   -6.9300   -3.1792 O   0  0  0  0  0  0  0  0  0  0  0  0
   52.2942   -6.2245   -2.1902 C   0  0  0  0  0  0  0  0  0  0  0  0
   50.9607   -6.8553   -1.8143 C   0  0  0  0  0  0  0  0  0  0  0  0
   51.1889   -7.7772   -0.6089 C   0  0  0  0  0  0  0  0  0  0  0  0
   49.9039   -8.2585   -0.1672 N   0  0  0  0  0  0  0  0  0  0  0  0
   49.6996   -9.6480   -0.6391 C   0  0  0  0  0  0  0  0  0  0  0  0
   48.3759  -10.0729    0.0033 C   0  0  0  0  0  0  0  0  0  0  0  0
   47.6351   -8.9810    0.4554 O   0  0  0  0  0  0  0  0  0  0  0  0
   48.2640   -8.3312    1.5359 C   0  0  0  0  0  0  0  0  0  0  0  0
   49.7781   -8.3160    1.2881 C   0  0  0  0  0  0  0  0  0  0  0  0
 37 38  1  0  0  0
 38 27  1  0  0  0
 27 28  2  0  0  0
 28 29  1  0  0  0
 29 30  2  0  0  0
 30 26  1  0  0  0
 26  1  1  0  0  0
  1  2  2  0  0  0
  2  3  1  0  0  0
  3  4  2  0  0  0
  4  8  1  0  0  0
  8  9  1  0  0  0
  9 10  2  0  0  0
  9 12  1  0  0  0
 12 13  1  0  0  0
 13 14  1  0  0  0
 12 15  1  0  0  0
 15 16  2  0  0  0
 15 17  1  0  0  0
 17 19  1  0  0  0
 19 20  2  0  0  0
 20 21  1  0  0  0
 21 22  1  0  0  0
 22 23  1  0  0  0
 22 24  1  0  0  0
 24 25  2  0  0  0
  4  5  1  0  0  0
  5  6  2  0  0  0
  6  7  1  0  0  0
 30 31  1  0  0  0
 31 32  2  0  0  0
 32 33  1  0  0  0
 33 34  2  0  0  0
 34 35  1  0  0  0
 35 36  2  0  0  0
 36 39  1  0  0  0
 39 40  1  0  0  0
 40 41  1  0  0  0
 41 42  1  0  0  0
 42 43  1  0  0  0
 43 44  1  0  0  0
 44 45  1  0  0  0
 45 46  1  0  0  0
 46 47  1  0  0  0
 47 48  1  0  0  0
 36 27  1  0  0  0
 48 43  1  0  0  0
 34 29  1  0  0  0
  6  1  1  0  0  0
 14 12  1  0  0  0
 25 19  1  0  0  0
  8 11  1  0  0  0
 17 18  1  0  0  0
M  END
> <minimizedAffinity>
-9.41116

> <CNNscore>
0.1996986568

> <CNNaffinity>
6.6225676537

> <CNN_VS>
1.3225178719

> <CNNaffinity_variance>
0.1502126306

$$$$
[H]C1=C([H])C([H])(F)C([H])([H])C([H])=C1N([H])C(=O)C1(C(=O)N([H])c2c([H])c([H])c(Oc3c([H])c([H])nc4c([H])c(OC([H])([H])C([H])([H])C([H])([H])N5C([H])([H])C([H])([H])OC([H])([H])C5([H])[H])c(OC([H])([H])[H])c([H])c34)c(F)c2[H])C([H])([H])C1([H])[H]


 48 53  0  0  0  0  0  0  0  0999 V2000
   56.5224   -3.9715   -8.7012 C   0  0  0  0  0  0  0  0  0  0  0  0
   57.2893   -4.6845   -7.7903 C   0  0  0  0  0  0  0  0  0  0  0  0
   58.2158   -5.6256   -8.1282 C   0  0  0  0  0  0  0  0  0  0  0  0
   58.4284   -5.9128   -9.4813 C   0  0  0  0  0  0  0  0  0  0  0  0
   57.6936   -5.2313  -10.4131 C   0  0  0  0  0  0  0  0  0  0  0  0
   56.7457   -4.2664  -10.0350 C   0  0  0  0  0  0  0  0  0  0  0  0
   56.0779   -3.6164  -11.0163 F   0  0  0  0  0  0  0  0  0  0  0  0
   59.4404   -6.8775   -9.8261 N   0  0  0  0  0  0  0  0  0  0  0  0
   60.6901   -6.8908   -9.2503 C   0  0  0  0  0  0  0  0  0  0  0  0
   60.9287   -5.9498   -8.3892 O   0  0  0  0  0  0  0  0  0  0  0  0
   59.1494   -7.5393  -10.5618 H   0  0  0  0  0  0  0  0  0  0  0  0
   61.8438   -7.8029   -9.4403 C   0  0  0  0  0  0  0  0  0  0  0  0
   63.1468   -7.1054   -9.7926 C   0  0  0  0  0  0  0  0  0  0  0  0
   62.4349   -7.7301  -10.9036 C   0  0  0  0  0  0  0  0  0  0  0  0
   61.9456   -9.1396   -8.8540 C   0  0  0  0  0  0  0  0  0  0  0  0
   63.1606   -9.4398   -8.4516 O   0  0  0  0  0  0  0  0  0  0  0  0
   61.0266  -10.1571   -8.6277 N   0  0  0  0  0  0  0  0  0  0  0  0
   60.0202  -10.0946   -8.8525 H   0  0  0  0  0  0  0  0  0  0  0  0
   61.4408  -11.4143   -8.0040 C   0  0  0  0  0  0  0  0  0  0  0  0
   61.2691  -11.5274   -6.7065 C   0  0  0  0  0  0  0  0  0  0  0  0
   61.6110  -12.6914   -5.8945 C   0  0  0  0  0  0  0  0  0  0  0  0
   62.2472  -13.8095   -6.6242 C   0  0  0  0  0  0  0  0  0  0  0  0
   61.4719  -14.9866   -6.4653 F   0  0  0  0  0  0  0  0  0  0  0  0
   62.3918  -13.5834   -8.0635 C   0  0  0  0  0  0  0  0  0  0  0  0
   62.0320  -12.4987   -8.7192 C   0  0  0  0  0  0  0  0  0  0  0  0
   55.6034   -3.0293   -8.2945 O   0  0  0  0  0  0  0  0  0  0  0  0
   54.1516   -5.5818   -5.4404 C   0  0  0  0  0  0  0  0  0  0  0  0
   54.6532   -4.7323   -6.3877 C   0  0  0  0  0  0  0  0  0  0  0  0
   53.7877   -4.1637   -7.2972 C   0  0  0  0  0  0  0  0  0  0  0  0
   54.2596   -3.2833   -8.2946 C   0  0  0  0  0  0  0  0  0  0  0  0
   53.3798   -2.7307   -9.1955 C   0  0  0  0  0  0  0  0  0  0  0  0
   52.0342   -3.0203   -9.1424 C   0  0  0  0  0  0  0  0  0  0  0  0
   51.5883   -3.8571   -8.1922 N   0  0  0  0  0  0  0  0  0  0  0  0
   52.4405   -4.4174   -7.2896 C   0  0  0  0  0  0  0  0  0  0  0  0
   51.9374   -5.2796   -6.3272 C   0  0  0  0  0  0  0  0  0  0  0  0
   52.7753   -5.8608   -5.4062 C   0  0  0  0  0  0  0  0  0  0  0  0
   55.8732   -7.1750   -4.8730 C   0  0  0  0  0  0  0  0  0  0  0  0
   54.9266   -6.2069   -4.4825 O   0  0  0  0  0  0  0  0  0  0  0  0
   52.2921   -6.6994   -4.4555 O   0  0  0  0  0  0  0  0  0  0  0  0
   51.4569   -6.3379   -3.4165 C   0  0  0  0  0  0  0  0  0  0  0  0
   52.0063   -6.7506   -2.0581 C   0  0  0  0  0  0  0  0  0  0  0  0
   51.3174   -8.0560   -1.6384 C   0  0  0  0  0  0  0  0  0  0  0  0
   51.2987   -8.1061   -0.1978 N   0  0  0  0  0  0  0  0  0  0  0  0
   49.9046   -8.2552    0.2807 C   0  0  0  0  0  0  0  0  0  0  0  0
   50.0430   -8.4263    1.7963 C   0  0  0  0  0  0  0  0  0  0  0  0
   51.2911   -8.0122    2.2615 O   0  0  0  0  0  0  0  0  0  0  0  0
   52.3273   -8.8475    1.7991 C   0  0  0  0  0  0  0  0  0  0  0  0
   52.0259   -9.2501    0.3495 C   0  0  0  0  0  0  0  0  0  0  0  0
 37 38  1  0  0  0
 38 27  1  0  0  0
 27 28  2  0  0  0
 28 29  1  0  0  0
 29 30  2  0  0  0
 30 26  1  0  0  0
 26  1  1  0  0  0
  1  2  2  0  0  0
  2  3  1  0  0  0
  3  4  2  0  0  0
  4  8  1  0  0  0
  8  9  1  0  0  0
  9 10  2  0  0  0
  9 12  1  0  0  0
 12 13  1  0  0  0
 13 14  1  0  0  0
 12 15  1  0  0  0
 15 16  2  0  0  0
 15 17  1  0  0  0
 17 19  1  0  0  0
 19 20  2  0  0  0
 20 21  1  0  0  0
 21 22  1  0  0  0
 22 23  1  0  0  0
 22 24  1  0  0  0
 24 25  2  0  0  0
  4  5  1  0  0  0
  5  6  2  0  0  0
  6  7  1  0  0  0
 30 31  1  0  0  0
 31 32  2  0  0  0
 32 33  1  0  0  0
 33 34  2  0  0  0
 34 35  1  0  0  0
 35 36  2  0  0  0
 36 39  1  0  0  0
 39 40  1  0  0  0
 40 41  1  0  0  0
 41 42  1  0  0  0
 42 43  1  0  0  0
 43 44  1  0  0  0
 44 45  1  0  0  0
 45 46  1  0  0  0
 46 47  1  0  0  0
 47 48  1  0  0  0
 36 27  1  0  0  0
 48 43  1  0  0  0
 34 29  1  0  0  0
  6  1  1  0  0  0
 14 12  1  0  0  0
 25 19  1  0  0  0
  8 11  1  0  0  0
 17 18  1  0  0  0
M  END
> <minimizedAffinity>
-8.02983

> <CNNscore>
0.1971016228

> <CNNaffinity>
6.8803911209

> <CNN_VS>
1.3561362028

> <CNNaffinity_variance>
0.0909447223

$$$$
[H]C1=C2C([H])([H])C([H])([H])[C@@]3([H])[C@]4([H])C([H])([H])[C@@]([H])(C([H])([H])C([H])([H])[H])C(=O)[C@@]4(C([H])([H])[H])C([H])([H])C([H])([H])[C@]3([H])[C@@]2(C([H])([H])[H])C([H])([H])C([H])([H])C1=O


 23 26  0  0  0  0  0  0  0  0999 V2000
   56.8799   -3.8601  -12.6108 C   0  0  0  0  0  0  0  0  0  0  0  0
   58.3929   -3.8402  -12.5034 C   0  0  0  0  0  0  0  0  0  0  0  0
   58.6434   -4.9451  -11.5657 C   0  0  0  0  0  0  0  0  0  0  0  0
   59.9757   -5.0448  -10.9416 C   0  0  0  0  0  0  0  0  0  0  0  0
   61.1050   -4.9637  -11.9015 C   0  0  0  0  0  0  0  0  0  0  0  0
   61.7646   -6.2617  -12.2074 C   0  0  0  0  0  0  0  0  0  0  0  0
   62.1685   -6.8870  -10.9117 C   0  0  0  0  0  0  0  0  0  0  0  0
   63.3176   -7.5243  -10.7836 C   0  0  0  0  0  0  0  0  0  0  0  0
   63.6388   -8.1053   -9.4950 C   0  0  0  0  0  0  0  0  0  0  0  0
   64.8109   -8.1216   -9.0600 O   0  0  0  0  0  0  0  0  0  0  0  0
   62.5565   -8.6901   -8.6820 C   0  0  0  0  0  0  0  0  0  0  0  0
   61.1941   -8.1616   -9.0810 C   0  0  0  0  0  0  0  0  0  0  0  0
   61.2818   -6.8036   -9.7211 C   0  0  0  0  0  0  0  0  0  0  0  0
   61.9012   -5.8721   -8.6999 C   0  0  0  0  0  0  0  0  0  0  0  0
   59.9396   -6.3745  -10.1669 C   0  0  0  0  0  0  0  0  0  0  0  0
   58.9251   -6.2055   -9.0853 C   0  0  0  0  0  0  0  0  0  0  0  0
   57.5477   -5.9416   -9.6548 C   0  0  0  0  0  0  0  0  0  0  0  0
   57.5774   -4.7118  -10.4924 C   0  0  0  0  0  0  0  0  0  0  0  0
   57.8409   -3.4562   -9.7031 C   0  0  0  0  0  0  0  0  0  0  0  0
   56.3900   -4.4909  -11.3263 C   0  0  0  0  0  0  0  0  0  0  0  0
   55.2115   -4.7143  -11.1555 O   0  0  0  0  0  0  0  0  0  0  0  0
   56.2375   -4.1211  -15.0263 C   0  0  0  0  0  0  0  0  0  0  0  0
   56.4238   -4.8220  -13.7103 C   0  0  0  0  0  0  0  0  0  0  0  0
 22 23  1  0  0  0
 23  1  1  0  0  0
  1  2  1  0  0  0
  2  3  1  0  0  0
  3  4  1  0  0  0
  4  5  1  0  0  0
  5  6  1  0  0  0
  6  7  1  0  0  0
  7  8  2  0  0  0
  8  9  1  0  0  0
  9 10  2  0  0  0
  9 11  1  0  0  0
 11 12  1  0  0  0
 12 13  1  0  0  0
 13 14  1  0  0  0
 13 15  1  0  0  0
 15 16  1  0  0  0
 16 17  1  0  0  0
 17 18  1  0  0  0
 18 19  1  0  0  0
 18 20  1  0  0  0
 20 21  2  0  0  0
 20  1  1  0  0  0
 18  3  1  0  0  0
 15  4  1  0  0  0
 13  7  1  0  0  0
M  END
> <minimizedAffinity>
2.47090

> <CNNscore>
0.6401996613

> <CNNaffinity>
4.8286151886

> <CNN_VS>
3.0912778378

> <CNNaffinity_variance>
0.1376382560

$$$$
[H]C1=C2C([H])([H])C([H])([H])[C@@]3([H])[C@]4([H])C([H])([H])[C@@]([H])(C([H])([H])C([H])([H])[H])C(=O)[C@@]4(C([H])([H])[H])C([H])([H])C([H])([H])[C@]3([H])[C@@]2(C([H])([H])[H])C([H])([H])C([H])([H])C1=O


 23 26  0  0  0  0  0  0  0  0999 V2000
   58.7277   -4.2992  -12.4093 C   0  0  0  0  0  0  0  0  0  0  0  0
   57.2906   -4.5540  -11.9955 C   0  0  0  0  0  0  0  0  0  0  0  0
   57.4048   -4.6158  -10.5306 C   0  0  0  0  0  0  0  0  0  0  0  0
   56.2769   -5.1766   -9.7638 C   0  0  0  0  0  0  0  0  0  0  0  0
   54.9547   -4.6035  -10.1192 C   0  0  0  0  0  0  0  0  0  0  0  0
   54.4096   -3.6254   -9.1396 C   0  0  0  0  0  0  0  0  0  0  0  0
   54.3989   -4.2798   -7.7962 C   0  0  0  0  0  0  0  0  0  0  0  0
   53.3998   -4.1018   -6.9517 C   0  0  0  0  0  0  0  0  0  0  0  0
   53.4617   -4.7696   -5.6667 C   0  0  0  0  0  0  0  0  0  0  0  0
   52.4342   -5.2195   -5.1144 O   0  0  0  0  0  0  0  0  0  0  0  0
   54.7676   -4.9194   -4.9983 C   0  0  0  0  0  0  0  0  0  0  0  0
   55.9231   -4.7974   -5.9702 C   0  0  0  0  0  0  0  0  0  0  0  0
   55.5201   -5.1598   -7.3731 C   0  0  0  0  0  0  0  0  0  0  0  0
   55.0434   -6.5970   -7.3394 C   0  0  0  0  0  0  0  0  0  0  0  0
   56.6578   -4.9415   -8.2910 C   0  0  0  0  0  0  0  0  0  0  0  0
   57.8664   -5.7772   -8.0290 C   0  0  0  0  0  0  0  0  0  0  0  0
   59.0299   -5.3564   -8.9009 C   0  0  0  0  0  0  0  0  0  0  0  0
   58.6531   -5.4797  -10.3355 C   0  0  0  0  0  0  0  0  0  0  0  0
   58.4253   -6.9025  -10.7743 C   0  0  0  0  0  0  0  0  0  0  0  0
   59.5772   -4.8475  -11.2843 C   0  0  0  0  0  0  0  0  0  0  0  0
   60.7816   -4.7160  -11.2963 O   0  0  0  0  0  0  0  0  0  0  0  0
   59.9905   -2.4349  -13.5249 C   0  0  0  0  0  0  0  0  0  0  0  0
   59.0326   -2.7996  -12.4261 C   0  0  0  0  0  0  0  0  0  0  0  0
 22 23  1  0  0  0
 23  1  1  0  0  0
  1  2  1  0  0  0
  2  3  1  0  0  0
  3  4  1  0  0  0
  4  5  1  0  0  0
  5  6  1  0  0  0
  6  7  1  0  0  0
  7  8  2  0  0  0
  8  9  1  0  0  0
  9 10  2  0  0  0
  9 11  1  0  0  0
 11 12  1  0  0  0
 12 13  1  0  0  0
 13 14  1  0  0  0
 13 15  1  0  0  0
 15 16  1  0  0  0
 16 17  1  0  0  0
 17 18  1  0  0  0
 18 19  1  0  0  0
 18 20  1  0  0  0
 20 21  2  0  0  0
 20  1  1  0  0  0
 18  3  1  0  0  0
 15  4  1  0  0  0
 13  7  1  0  0  0
M  END
> <minimizedAffinity>
2.46205

> <CNNscore>
0.5763937831

> <CNNaffinity>
5.9360055923

> <CNN_VS>
3.4214766026

> <CNNaffinity_variance>
0.7872407436

$$$$
[H]C1=C2C([H])([H])C([H])([H])[C@@]3([H])[C@]4([H])C([H])([H])[C@@]([H])(C([H])([H])C([H])([H])[H])C(=O)[C@@]4(C([H])([H])[H])C([H])([H])C([H])([H])[C@]3([H])[C@@]2(C([H])([H])[H])C([H])([H])C([H])([H])C1=O


 23 26  0  0  0  0  0  0  0  0999 V2000
   56.9031   -4.5720  -12.0586 C   0  0  0  0  0  0  0  0  0  0  0  0
   55.8931   -5.2438  -11.1476 C   0  0  0  0  0  0  0  0  0  0  0  0
   56.3890   -4.8650   -9.8159 C   0  0  0  0  0  0  0  0  0  0  0  0
   55.8709   -5.5934   -8.6430 C   0  0  0  0  0  0  0  0  0  0  0  0
   54.3908   -5.6940   -8.5942 C   0  0  0  0  0  0  0  0  0  0  0  0
   53.7304   -4.7815   -7.6223 C   0  0  0  0  0  0  0  0  0  0  0  0
   54.3563   -5.0066   -6.2842 C   0  0  0  0  0  0  0  0  0  0  0  0
   53.6345   -5.0121   -5.1787 C   0  0  0  0  0  0  0  0  0  0  0  0
   54.3139   -5.2365   -3.9181 C   0  0  0  0  0  0  0  0  0  0  0  0
   53.7773   -5.8850   -2.9935 O   0  0  0  0  0  0  0  0  0  0  0  0
   55.6679   -4.6853   -3.7249 C   0  0  0  0  0  0  0  0  0  0  0  0
   56.3559   -4.3881   -5.0413 C   0  0  0  0  0  0  0  0  0  0  0  0
   55.8201   -5.2367   -6.1613 C   0  0  0  0  0  0  0  0  0  0  0  0
   56.0696   -6.6812   -5.7806 C   0  0  0  0  0  0  0  0  0  0  0  0
   56.4630   -4.8471   -7.4339 C   0  0  0  0  0  0  0  0  0  0  0  0
   57.9408   -5.0471   -7.4967 C   0  0  0  0  0  0  0  0  0  0  0  0
   58.5259   -4.4564   -8.7615 C   0  0  0  0  0  0  0  0  0  0  0  0
   57.8965   -5.0923   -9.9509 C   0  0  0  0  0  0  0  0  0  0  0  0
   58.2331   -6.5531  -10.0970 C   0  0  0  0  0  0  0  0  0  0  0  0
   58.1620   -4.4281  -11.2326 C   0  0  0  0  0  0  0  0  0  0  0  0
   59.1302   -3.8486  -11.6739 O   0  0  0  0  0  0  0  0  0  0  0  0
   55.9934   -2.9900  -13.7862 C   0  0  0  0  0  0  0  0  0  0  0  0
   56.4827   -3.1344  -12.3728 C   0  0  0  0  0  0  0  0  0  0  0  0
 22 23  1  0  0  0
 23  1  1  0  0  0
  1  2  1  0  0  0
  2  3  1  0  0  0
  3  4  1  0  0  0
  4  5  1  0  0  0
  5  6  1  0  0  0
  6  7  1  0  0  0
  7  8  2  0  0  0
  8  9  1  0  0  0
  9 10  2  0  0  0
  9 11  1  0  0  0
 11 12  1  0  0  0
 12 13  1  0  0  0
 13 14  1  0  0  0
 13 15  1  0  0  0
 15 16  1  0  0  0
 16 17  1  0  0  0
 17 18  1  0  0  0
 18 19  1  0  0  0
 18 20  1  0  0  0
 20 21  2  0  0  0
 20  1  1  0  0  0
 18  3  1  0  0  0
 15  4  1  0  0  0
 13  7  1  0  0  0
M  END
> <minimizedAffinity>
1.84141

> <CNNscore>
0.5532214642

> <CNNaffinity>
5.9456977844

> <CNN_VS>
3.2892875671

> <CNNaffinity_variance>
0.6561201215

$$$$
[H]C1=C2C([H])([H])C([H])([H])[C@@]3([H])[C@]4([H])C([H])([H])[C@@]([H])(C([H])([H])C([H])([H])[H])C(=O)[C@@]4(C([H])([H])[H])C([H])([H])C([H])([H])[C@]3([H])[C@@]2(C([H])([H])[H])C([H])([H])C([H])([H])C1=O


 23 26  0  0  0  0  0  0  0  0999 V2000
   56.7937   -3.7620  -11.0609 C   0  0  0  0  0  0  0  0  0  0  0  0
   56.8327   -3.6526   -9.5484 C   0  0  0  0  0  0  0  0  0  0  0  0
   55.5952   -4.3480   -9.1636 C   0  0  0  0  0  0  0  0  0  0  0  0
   55.0944   -4.1753   -7.7874 C   0  0  0  0  0  0  0  0  0  0  0  0
   56.1176   -4.3971   -6.7351 C   0  0  0  0  0  0  0  0  0  0  0  0
   56.0100   -5.6958   -6.0174 C   0  0  0  0  0  0  0  0  0  0  0  0
   54.6184   -5.8114   -5.4854 C   0  0  0  0  0  0  0  0  0  0  0  0
   54.3779   -6.3223   -4.2920 C   0  0  0  0  0  0  0  0  0  0  0  0
   53.0012   -6.4019   -3.8456 C   0  0  0  0  0  0  0  0  0  0  0  0
   52.6918   -6.2231   -2.6474 O   0  0  0  0  0  0  0  0  0  0  0  0
   51.9443   -6.7013   -4.8294 C   0  0  0  0  0  0  0  0  0  0  0  0
   52.3812   -6.3949   -6.2470 C   0  0  0  0  0  0  0  0  0  0  0  0
   53.4583   -5.3461   -6.2904 C   0  0  0  0  0  0  0  0  0  0  0  0
   52.8825   -4.0941   -5.6619 C   0  0  0  0  0  0  0  0  0  0  0  0
   53.9062   -5.1484   -7.6850 C   0  0  0  0  0  0  0  0  0  0  0  0
   52.8663   -4.6458   -8.6304 C   0  0  0  0  0  0  0  0  0  0  0  0
   53.3692   -4.6474  -10.0581 C   0  0  0  0  0  0  0  0  0  0  0  0
   54.5810   -3.7900  -10.1649 C   0  0  0  0  0  0  0  0  0  0  0  0
   54.3032   -2.3288   -9.9273 C   0  0  0  0  0  0  0  0  0  0  0  0
   55.3325   -3.9180  -11.4191 C   0  0  0  0  0  0  0  0  0  0  0  0
   54.9923   -4.1084  -12.5663 O   0  0  0  0  0  0  0  0  0  0  0  0
   58.6065   -5.4554  -10.6595 C   0  0  0  0  0  0  0  0  0  0  0  0
   57.4462   -5.0643  -11.5305 C   0  0  0  0  0  0  0  0  0  0  0  0
 22 23  1  0  0  0
 23  1  1  0  0  0
  1  2  1  0  0  0
  2  3  1  0  0  0
  3  4  1  0  0  0
  4  5  1  0  0  0
  5  6  1  0  0  0
  6  7  1  0  0  0
  7  8  2  0  0  0
  8  9  1  0  0  0
  9 10  2  0  0  0
  9 11  1  0  0  0
 11 12  1  0  0  0
 12 13  1  0  0  0
 13 14  1  0  0  0
 13 15  1  0  0  0
 15 16  1  0  0  0
 16 17  1  0  0  0
 17 18  1  0  0  0
 18 19  1  0  0  0
 18 20  1  0  0  0
 20 21  2  0  0  0
 20  1  1  0  0  0
 18  3  1  0  0  0
 15  4  1  0  0  0
 13  7  1  0  0  0
M  END
> <minimizedAffinity>
-0.21952

> <CNNscore>
0.4680888653

> <CNNaffinity>
6.2861032486

> <CNN_VS>
2.9424550533

> <CNNaffinity_variance>
0.6383209229

$$$$
[H]C1=C2C([H])([H])C([H])([H])[C@@]3([H])[C@]4([H])C([H])([H])[C@@]([H])(C([H])([H])C([H])([H])[H])C(=O)[C@@]4(C([H])([H])[H])C([H])([H])C([H])([H])[C@]3([H])[C@@]2(C([H])([H])[H])C([H])([H])C([H])([H])C1=O


 23 26  0  0  0  0  0  0  0  0999 V2000
   55.0799   -6.1302   -6.6950 C   0  0  0  0  0  0  0  0  0  0  0  0
   56.5192   -6.5455   -6.4562 C   0  0  0  0  0  0  0  0  0  0  0  0
   56.5117   -6.8462   -5.0166 C   0  0  0  0  0  0  0  0  0  0  0  0
   57.8060   -6.9714   -4.3210 C   0  0  0  0  0  0  0  0  0  0  0  0
   58.7745   -7.8718   -4.9951 C   0  0  0  0  0  0  0  0  0  0  0  0
   58.9364   -9.2082   -4.3618 C   0  0  0  0  0  0  0  0  0  0  0  0
   59.2716   -8.9950   -2.9212 C   0  0  0  0  0  0  0  0  0  0  0  0
   60.1596   -9.7507   -2.3019 C   0  0  0  0  0  0  0  0  0  0  0  0
   60.4306   -9.4829   -0.9034 C   0  0  0  0  0  0  0  0  0  0  0  0
   61.5784   -9.6115   -0.4244 O   0  0  0  0  0  0  0  0  0  0  0  0
   59.3253   -9.0500   -0.0286 C   0  0  0  0  0  0  0  0  0  0  0  0
   58.1690   -8.4688   -0.8158 C   0  0  0  0  0  0  0  0  0  0  0  0
   58.6121   -7.9143   -2.1416 C   0  0  0  0  0  0  0  0  0  0  0  0
   59.6192   -6.8213   -1.8499 C   0  0  0  0  0  0  0  0  0  0  0  0
   57.4369   -7.4399   -2.9020 C   0  0  0  0  0  0  0  0  0  0  0  0
   56.6717   -6.3226   -2.2742 C   0  0  0  0  0  0  0  0  0  0  0  0
   55.3949   -6.0313   -3.0332 C   0  0  0  0  0  0  0  0  0  0  0  0
   55.7180   -5.6711   -4.4407 C   0  0  0  0  0  0  0  0  0  0  0  0
   56.4676   -4.3709   -4.5687 C   0  0  0  0  0  0  0  0  0  0  0  0
   54.5733   -5.6351   -5.3585 C   0  0  0  0  0  0  0  0  0  0  0  0
   53.4161   -5.3049   -5.2179 O   0  0  0  0  0  0  0  0  0  0  0  0
   55.0214   -8.5082   -7.5053 C   0  0  0  0  0  0  0  0  0  0  0  0
   54.2065   -7.3466   -7.0109 C   0  0  0  0  0  0  0  0  0  0  0  0
 22 23  1  0  0  0
 23  1  1  0  0  0
  1  2  1  0  0  0
  2  3  1  0  0  0
  3  4  1  0  0  0
  4  5  1  0  0  0
  5  6  1  0  0  0
  6  7  1  0  0  0
  7  8  2  0  0  0
  8  9  1  0  0  0
  9 10  2  0  0  0
  9 11  1  0  0  0
 11 12  1  0  0  0
 12 13  1  0  0  0
 13 14  1  0  0  0
 13 15  1  0  0  0
 15 16  1  0  0  0
 16 17  1  0  0  0
 17 18  1  0  0  0
 18 19  1  0  0  0
 18 20  1  0  0  0
 20 21  2  0  0  0
 20  1  1  0  0  0
 18  3  1  0  0  0
 15  4  1  0  0  0
 13  7  1  0  0  0
M  END
> <minimizedAffinity>
6.35027

> <CNNscore>
0.4329102933

> <CNNaffinity>
5.3679037094

> <CNN_VS>
2.3238208294

> <CNNaffinity_variance>
1.1790807247

$$$$
[H]C1=C2C([H])([H])C([H])([H])[C@@]3([H])[C@]4([H])C([H])([H])[C@@]([H])(C([H])([H])C([H])([H])[H])C(=O)[C@@]4(C([H])([H])[H])C([H])([H])C([H])([H])[C@]3([H])[C@@]2(C([H])([H])[H])C([H])([H])C([H])([H])C1=O


 23 26  0  0  0  0  0  0  0  0999 V2000
   53.6253   -5.1683   -6.1433 C   0  0  0  0  0  0  0  0  0  0  0  0
   53.6089   -4.2919   -7.3814 C   0  0  0  0  0  0  0  0  0  0  0  0
   54.8331   -4.7234   -8.0728 C   0  0  0  0  0  0  0  0  0  0  0  0
   55.3560   -3.8787   -9.1625 C   0  0  0  0  0  0  0  0  0  0  0  0
   54.3414   -3.4954  -10.1758 C   0  0  0  0  0  0  0  0  0  0  0  0
   54.4251   -4.2387  -11.4618 C   0  0  0  0  0  0  0  0  0  0  0  0
   55.8202   -4.1025  -11.9798 C   0  0  0  0  0  0  0  0  0  0  0  0
   56.0631   -3.9297  -13.2660 C   0  0  0  0  0  0  0  0  0  0  0  0
   57.4431   -3.8065  -13.6920 C   0  0  0  0  0  0  0  0  0  0  0  0
   57.7725   -3.0431  -14.6259 O   0  0  0  0  0  0  0  0  0  0  0  0
   58.4790   -4.6013  -13.0068 C   0  0  0  0  0  0  0  0  0  0  0  0
   58.0316   -5.0593  -11.6340 C   0  0  0  0  0  0  0  0  0  0  0  0
   56.9812   -4.1536  -11.0525 C   0  0  0  0  0  0  0  0  0  0  0  0
   57.5969   -2.7740  -10.9444 C   0  0  0  0  0  0  0  0  0  0  0  0
   56.5203   -4.6924   -9.7557 C   0  0  0  0  0  0  0  0  0  0  0  0
   57.5603   -4.7807   -8.6886 C   0  0  0  0  0  0  0  0  0  0  0  0
   57.0389   -5.5055   -7.4664 C   0  0  0  0  0  0  0  0  0  0  0  0
   55.8480   -4.7925   -6.9292 C   0  0  0  0  0  0  0  0  0  0  0  0
   56.1661   -3.4274   -6.3777 C   0  0  0  0  0  0  0  0  0  0  0  0
   55.0772   -5.5287   -5.9203 C   0  0  0  0  0  0  0  0  0  0  0  0
   55.3974   -6.2942   -5.0374 O   0  0  0  0  0  0  0  0  0  0  0  0
   51.6285   -6.3271   -7.1359 C   0  0  0  0  0  0  0  0  0  0  0  0
   52.9337   -6.5066   -6.4133 C   0  0  0  0  0  0  0  0  0  0  0  0
 22 23  1  0  0  0
 23  1  1  0  0  0
  1  2  1  0  0  0
  2  3  1  0  0  0
  3  4  1  0  0  0
  4  5  1  0  0  0
  5  6  1  0  0  0
  6  7  1  0  0  0
  7  8  2  0  0  0
  8  9  1  0  0  0
  9 10  2  0  0  0
  9 11  1  0  0  0
 11 12  1  0  0  0
 12 13  1  0  0  0
 13 14  1  0  0  0
 13 15  1  0  0  0
 15 16  1  0  0  0
 16 17  1  0  0  0
 17 18  1  0  0  0
 18 19  1  0  0  0
 18 20  1  0  0  0
 20 21  2  0  0  0
 20  1  1  0  0  0
 18  3  1  0  0  0
 15  4  1  0  0  0
 13  7  1  0  0  0
M  END
> <minimizedAffinity>
-3.54581

> <CNNscore>
0.4002467394

> <CNNaffinity>
5.9905738831

> <CNN_VS>
2.3977077007

> <CNNaffinity_variance>
0.2625164390

$$$$
[H]C1=C2C([H])([H])C([H])([H])[C@@]3([H])[C@]4([H])C([H])([H])[C@@]([H])(C([H])([H])C([H])([H])[H])C(=O)[C@@]4(C([H])([H])[H])C([H])([H])C([H])([H])[C@]3([H])[C@@]2(C([H])([H])[H])C([H])([H])C([H])([H])C1=O


 23 26  0  0  0  0  0  0  0  0999 V2000
   56.8660   -7.1252   -2.3293 C   0  0  0  0  0  0  0  0  0  0  0  0
   57.0081   -6.8610   -3.8164 C   0  0  0  0  0  0  0  0  0  0  0  0
   55.7053   -6.2614   -4.1422 C   0  0  0  0  0  0  0  0  0  0  0  0
   55.3162   -6.1615   -5.5610 C   0  0  0  0  0  0  0  0  0  0  0  0
   56.3541   -5.5610   -6.4359 C   0  0  0  0  0  0  0  0  0  0  0  0
   56.0962   -4.1532   -6.8421 C   0  0  0  0  0  0  0  0  0  0  0  0
   54.7359   -4.0959   -7.4582 C   0  0  0  0  0  0  0  0  0  0  0  0
   54.4915   -3.3485   -8.5187 C   0  0  0  0  0  0  0  0  0  0  0  0
   53.1464   -3.3446   -9.0587 C   0  0  0  0  0  0  0  0  0  0  0  0
   52.9368   -3.2684  -10.2890 O   0  0  0  0  0  0  0  0  0  0  0  0
   52.0016   -3.4318   -8.1333 C   0  0  0  0  0  0  0  0  0  0  0  0
   52.3966   -4.0108   -6.7904 C   0  0  0  0  0  0  0  0  0  0  0  0
   53.6133   -4.8890   -6.8913 C   0  0  0  0  0  0  0  0  0  0  0  0
   53.2675   -6.0169   -7.8411 C   0  0  0  0  0  0  0  0  0  0  0  0
   54.0043   -5.3564   -5.5449 C   0  0  0  0  0  0  0  0  0  0  0  0
   52.9979   -6.2035   -4.8396 C   0  0  0  0  0  0  0  0  0  0  0  0
   53.4116   -6.4801   -3.4101 C   0  0  0  0  0  0  0  0  0  0  0  0
   54.7293   -7.1718   -3.3932 C   0  0  0  0  0  0  0  0  0  0  0  0
   54.6861   -8.5562   -3.9851 C   0  0  0  0  0  0  0  0  0  0  0  0
   55.3796   -7.2525   -2.0799 C   0  0  0  0  0  0  0  0  0  0  0  0
   54.9492   -7.3902   -0.9558 O   0  0  0  0  0  0  0  0  0  0  0  0
   58.7114   -5.5050   -1.7959 C   0  0  0  0  0  0  0  0  0  0  0  0
   57.2893   -5.9005   -1.5150 C   0  0  0  0  0  0  0  0  0  0  0  0
 22 23  1  0  0  0
 23  1  1  0  0  0
  1  2  1  0  0  0
  2  3  1  0  0  0
  3  4  1  0  0  0
  4  5  1  0  0  0
  5  6  1  0  0  0
  6  7  1  0  0  0
  7  8  2  0  0  0
  8  9  1  0  0  0
  9 10  2  0  0  0
  9 11  1  0  0  0
 11 12  1  0  0  0
 12 13  1  0  0  0
 13 14  1  0  0  0
 13 15  1  0  0  0
 15 16  1  0  0  0
 16 17  1  0  0  0
 17 18  1  0  0  0
 18 19  1  0  0  0
 18 20  1  0  0  0
 20 21  2  0  0  0
 20  1  1  0  0  0
 18  3  1  0  0  0
 15  4  1  0  0  0
 13  7  1  0  0  0
M  END
> <minimizedAffinity>
-7.77138

> <CNNscore>
0.3966272175

> <CNNaffinity>
6.3355727196

> <CNN_VS>
2.5128605366

> <CNNaffinity_variance>
0.3269347250

$$$$
[H]C1=C2C([H])([H])C([H])([H])[C@@]3([H])[C@]4([H])C([H])([H])[C@@]([H])(C([H])([H])C([H])([H])[H])C(=O)[C@@]4(C([H])([H])[H])C([H])([H])C([H])([H])[C@]3([H])[C@@]2(C([H])([H])[H])C([H])([H])C([H])([H])C1=O


 23 26  0  0  0  0  0  0  0  0999 V2000
   49.4002   -4.7623   -4.6698 C   0  0  0  0  0  0  0  0  0  0  0  0
   50.4110   -5.6304   -5.3948 C   0  0  0  0  0  0  0  0  0  0  0  0
   51.2259   -4.6252   -6.0937 C   0  0  0  0  0  0  0  0  0  0  0  0
   52.1192   -5.0782   -7.1760 C   0  0  0  0  0  0  0  0  0  0  0  0
   52.9837   -6.2281   -6.8104 C   0  0  0  0  0  0  0  0  0  0  0  0
   54.4050   -5.8840   -6.5364 C   0  0  0  0  0  0  0  0  0  0  0  0
   54.9310   -5.1350   -7.7176 C   0  0  0  0  0  0  0  0  0  0  0  0
   56.1547   -5.3357   -8.1708 C   0  0  0  0  0  0  0  0  0  0  0  0
   56.5935   -4.5703   -9.3209 C   0  0  0  0  0  0  0  0  0  0  0  0
   57.3459   -5.0668  -10.1873 O   0  0  0  0  0  0  0  0  0  0  0  0
   56.1409   -3.1746   -9.4687 C   0  0  0  0  0  0  0  0  0  0  0  0
   54.8886   -2.8928   -8.6645 C   0  0  0  0  0  0  0  0  0  0  0  0
   54.0819   -4.1388   -8.4227 C   0  0  0  0  0  0  0  0  0  0  0  0
   53.6928   -4.6846   -9.7810 C   0  0  0  0  0  0  0  0  0  0  0  0
   52.9211   -3.8228   -7.5642 C   0  0  0  0  0  0  0  0  0  0  0  0
   51.9396   -2.8558   -8.1382 C   0  0  0  0  0  0  0  0  0  0  0  0
   50.8906   -2.4623   -7.1205 C   0  0  0  0  0  0  0  0  0  0  0  0
   50.1647   -3.6744   -6.6526 C   0  0  0  0  0  0  0  0  0  0  0  0
   49.3358   -4.3277   -7.7273 C   0  0  0  0  0  0  0  0  0  0  0  0
   49.3168   -3.4816   -5.4702 C   0  0  0  0  0  0  0  0  0  0  0  0
   48.6386   -2.5538   -5.0866 O   0  0  0  0  0  0  0  0  0  0  0  0
   50.7688   -5.4003   -2.6610 C   0  0  0  0  0  0  0  0  0  0  0  0
   49.9350   -4.3278   -3.3033 C   0  0  0  0  0  0  0  0  0  0  0  0
 22 23  1  0  0  0
 23  1  1  0  0  0
  1  2  1  0  0  0
  2  3  1  0  0  0
  3  4  1  0  0  0
  4  5  1  0  0  0
  5  6  1  0  0  0
  6  7  1  0  0  0
  7  8  2  0  0  0
  8  9  1  0  0  0
  9 10  2  0  0  0
  9 11  1  0  0  0
 11 12  1  0  0  0
 12 13  1  0  0  0
 13 14  1  0  0  0
 13 15  1  0  0  0
 15 16  1  0  0  0
 16 17  1  0  0  0
 17 18  1  0  0  0
 18 19  1  0  0  0
 18 20  1  0  0  0
 20 21  2  0  0  0
 20  1  1  0  0  0
 18  3  1  0  0  0
 15  4  1  0  0  0
 13  7  1  0  0  0
M  END
> <minimizedAffinity>
-9.59278

> <CNNscore>
0.3722424507

> <CNNaffinity>
6.6429224014

> <CNN_VS>
2.4727776051

> <CNNaffinity_variance>
0.2281637490

$$$$
[H]C1=C2C([H])([H])C([H])([H])[C@@]3([H])[C@]4([H])C([H])([H])[C@@]([H])(C([H])([H])C([H])([H])[H])C(=O)[C@@]4(C([H])([H])[H])C([H])([H])C([H])([H])[C@]3([H])[C@@]2(C([H])([H])[H])C([H])([H])C([H])([H])C1=O


 23 26  0  0  0  0  0  0  0  0999 V2000
   57.6476   -4.5011   -9.3338 C   0  0  0  0  0  0  0  0  0  0  0  0
   57.0376   -4.3352   -7.9548 C   0  0  0  0  0  0  0  0  0  0  0  0
   55.6435   -4.7399   -8.1908 C   0  0  0  0  0  0  0  0  0  0  0  0
   54.6351   -4.4058   -7.1681 C   0  0  0  0  0  0  0  0  0  0  0  0
   55.0195   -4.7888   -5.7865 C   0  0  0  0  0  0  0  0  0  0  0  0
   54.3414   -6.0035   -5.2591 C   0  0  0  0  0  0  0  0  0  0  0  0
   52.8673   -5.8030   -5.4002 C   0  0  0  0  0  0  0  0  0  0  0  0
   52.0260   -6.1992   -4.4631 C   0  0  0  0  0  0  0  0  0  0  0  0
   50.6100   -5.9704   -4.6725 C   0  0  0  0  0  0  0  0  0  0  0  0
   49.8486   -5.6781   -3.7248 O   0  0  0  0  0  0  0  0  0  0  0  0
   50.0585   -6.0866   -6.0352 C   0  0  0  0  0  0  0  0  0  0  0  0
   51.1282   -5.9411   -7.0978 C   0  0  0  0  0  0  0  0  0  0  0  0
   52.3045   -5.1426   -6.6075 C   0  0  0  0  0  0  0  0  0  0  0  0
   51.7827   -3.7715   -6.2308 C   0  0  0  0  0  0  0  0  0  0  0  0
   53.3512   -5.1046   -7.6504 C   0  0  0  0  0  0  0  0  0  0  0  0
   52.9630   -4.4389   -8.9286 C   0  0  0  0  0  0  0  0  0  0  0  0
   54.0312   -4.6086   -9.9876 C   0  0  0  0  0  0  0  0  0  0  0  0
   55.3138   -4.0280   -9.5050 C   0  0  0  0  0  0  0  0  0  0  0  0
   55.2678   -2.5319   -9.3367 C   0  0  0  0  0  0  0  0  0  0  0  0
   56.4967   -4.3652  -10.3058 C   0  0  0  0  0  0  0  0  0  0  0  0
   56.6658   -4.5313  -11.4940 O   0  0  0  0  0  0  0  0  0  0  0  0
   59.6548   -6.0075   -9.4635 C   0  0  0  0  0  0  0  0  0  0  0  0
   58.1560   -5.9303   -9.5369 C   0  0  0  0  0  0  0  0  0  0  0  0
 22 23  1  0  0  0
 23  1  1  0  0  0
  1  2  1  0  0  0
  2  3  1  0  0  0
  3  4  1  0  0  0
  4  5  1  0  0  0
  5  6  1  0  0  0
  6  7  1  0  0  0
  7  8  2  0  0  0
  8  9  1  0  0  0
  9 10  2  0  0  0
  9 11  1  0  0  0
 11 12  1  0  0  0
 12 13  1  0  0  0
 13 14  1  0  0  0
 13 15  1  0  0  0
 15 16  1  0  0  0
 16 17  1  0  0  0
 17 18  1  0  0  0
 18 19  1  0  0  0
 18 20  1  0  0  0
 20 21  2  0  0  0
 20  1  1  0  0  0
 18  3  1  0  0  0
 15  4  1  0  0  0
 13  7  1  0  0  0
M  END
> <minimizedAffinity>
-7.00998

> <CNNscore>
0.3605416119

> <CNNaffinity>
6.4772958755

> <CNN_VS>
2.3353347778

> <CNNaffinity_variance>
0.3943875730

$$$$
[H]N=C(N([H])[H])N([H])C([H])([H])C([H])([H])C([H])([H])[C@@]([H])(C(=O)c1nc2c([H])c([H])c([H])c([H])c2s1)N([H])C(=O)[C@@]1([H])N(C(=O)[C@]([H])(N([H])C(=O)OC([H])([H])c2c([H])c([H])c([H])c([H])c2[H])C([H])([H])c2c([H])c([H])c([H])c([H])c2[H])C([H])([H])C([H])([H])C1([H])[H]


 54 58  0  0  0  0  0  0  0  0999 V2000
   56.1383   -4.6104  -10.1829 N   0  0  0  0  0  0  0  0  0  0  0  0
   56.9975   -4.8812  -11.1789 C   0  0  0  0  0  0  0  0  0  0  0  0
   58.0306   -5.6368  -11.0378 O   0  0  0  0  0  0  0  0  0  0  0  0
   56.7586   -5.5564   -9.3830 H   0  0  0  0  0  0  0  0  0  0  0  0
   56.7591   -4.3025  -12.4903 C   0  0  0  0  0  0  0  0  0  0  0  0
   56.2822   -5.4284  -13.4660 C   0  0  0  0  0  0  0  0  0  0  0  0
   56.0483   -4.5633  -14.6851 C   0  0  0  0  0  0  0  0  0  0  0  0
   56.7880   -3.2394  -14.4042 C   0  0  0  0  0  0  0  0  0  0  0  0
   57.7435   -3.7499  -13.3649 N   0  0  0  0  0  0  0  0  0  0  0  0
   59.1058   -3.5878  -13.3722 C   0  0  0  0  0  0  0  0  0  0  0  0
   59.6796   -3.8987  -12.2072 O   0  0  0  0  0  0  0  0  0  0  0  0
   60.1678   -3.1706  -14.3109 C   0  0  0  0  0  0  0  0  0  0  0  0
   60.9719   -2.1445  -14.0033 N   0  0  0  0  0  0  0  0  0  0  0  0
   62.3409   -1.7797  -13.7197 C   0  0  0  0  0  0  0  0  0  0  0  0
   63.1596   -2.7231  -13.7330 O   0  0  0  0  0  0  0  0  0  0  0  0
   60.3920   -1.1645  -13.8432 H   0  0  0  0  0  0  0  0  0  0  0  0
   62.7662   -0.5197  -13.4664 O   0  0  0  0  0  0  0  0  0  0  0  0
   63.9854   -0.0623  -12.9674 C   0  0  0  0  0  0  0  0  0  0  0  0
   63.7059    0.2656  -11.5320 C   0  0  0  0  0  0  0  0  0  0  0  0
   64.6766    0.0310  -10.6114 C   0  0  0  0  0  0  0  0  0  0  0  0
   64.4664    0.2427   -9.2406 C   0  0  0  0  0  0  0  0  0  0  0  0
   63.2382    0.7062   -8.8121 C   0  0  0  0  0  0  0  0  0  0  0  0
   62.2498    0.9505   -9.7398 C   0  0  0  0  0  0  0  0  0  0  0  0
   62.4867    0.7292  -11.1074 C   0  0  0  0  0  0  0  0  0  0  0  0
   59.7233   -3.2034  -15.7778 C   0  0  0  0  0  0  0  0  0  0  0  0
   60.8555   -3.4899  -16.7177 C   0  0  0  0  0  0  0  0  0  0  0  0
   61.6850   -4.5689  -16.4787 C   0  0  0  0  0  0  0  0  0  0  0  0
   62.7343   -4.9236  -17.2914 C   0  0  0  0  0  0  0  0  0  0  0  0
   62.9980   -4.1686  -18.4232 C   0  0  0  0  0  0  0  0  0  0  0  0
   62.1540   -3.0781  -18.6589 C   0  0  0  0  0  0  0  0  0  0  0  0
   61.1076   -2.7334  -17.8370 C   0  0  0  0  0  0  0  0  0  0  0  0
   55.2776   -4.3749   -9.0667 C   0  0  0  0  0  0  0  0  0  0  0  0
   53.9443   -3.7964   -9.3232 C   0  0  0  0  0  0  0  0  0  0  0  0
   53.6944   -3.2516  -10.4435 O   0  0  0  0  0  0  0  0  0  0  0  0
   52.8403   -3.8149   -8.3389 C   0  0  0  0  0  0  0  0  0  0  0  0
   51.8495   -2.9712   -8.1343 N   0  0  0  0  0  0  0  0  0  0  0  0
   50.9993   -3.1682   -7.1585 C   0  0  0  0  0  0  0  0  0  0  0  0
   49.9181   -2.3195   -6.8456 C   0  0  0  0  0  0  0  0  0  0  0  0
   49.1161   -2.6183   -5.7889 C   0  0  0  0  0  0  0  0  0  0  0  0
   49.2816   -3.7169   -4.9799 C   0  0  0  0  0  0  0  0  0  0  0  0
   50.3257   -4.5503   -5.2778 C   0  0  0  0  0  0  0  0  0  0  0  0
   51.1769   -4.2722   -6.3665 C   0  0  0  0  0  0  0  0  0  0  0  0
   52.5715   -4.9685   -7.0807 S   0  0  0  0  0  0  0  0  0  0  0  0
   55.9685   -3.5207   -8.0221 C   0  0  0  0  0  0  0  0  0  0  0  0
   56.0817   -4.2109   -6.7036 C   0  0  0  0  0  0  0  0  0  0  0  0
   56.6854   -5.5706   -6.8628 C   0  0  0  0  0  0  0  0  0  0  0  0
   56.2301   -6.5637   -5.9450 N   0  0  0  0  0  0  0  0  0  0  0  0
   55.4193   -7.2225   -6.1040 H   0  0  0  0  0  0  0  0  0  0  0  0
   56.3128   -6.2937   -3.4857 N   0  0  0  0  0  0  0  0  0  0  0  0
   56.9141   -6.6932   -4.7039 C   0  0  0  0  0  0  0  0  0  0  0  0
   58.1212   -7.1680   -4.6463 N   0  0  0  0  0  0  0  0  0  0  0  0
   56.4729   -5.3342   -3.0766 H   0  0  0  0  0  0  0  0  0  0  0  0
   55.6748   -6.9391   -2.9545 H   0  0  0  0  0  0  0  0  0  0  0  0
   58.6329   -7.2619   -3.7598 H   0  0  0  0  0  0  0  0  0  0  0  0
 49 50  1  0  0  0
 50 51  2  0  0  0
 50 47  1  0  0  0
 47 46  1  0  0  0
 46 45  1  0  0  0
 45 44  1  0  0  0
 44 32  1  0  0  0
 32  1  1  0  0  0
  1  2  1  0  0  0
  2  3  2  0  0  0
  2  5  1  0  0  0
  5  6  1  0  0  0
  6  7  1  0  0  0
  7  8  1  0  0  0
  8  9  1  0  0  0
  9 10  1  0  0  0
 10 11  2  0  0  0
 10 12  1  0  0  0
 12 25  1  0  0  0
 25 26  1  0  0  0
 26 27  2  0  0  0
 27 28  1  0  0  0
 28 29  2  0  0  0
 29 30  1  0  0  0
 30 31  2  0  0  0
 12 13  1  0  0  0
 13 14  1  0  0  0
 14 15  2  0  0  0
 14 17  1  0  0  0
 17 18  1  0  0  0
 18 19  1  0  0  0
 19 20  2  0  0  0
 20 21  1  0  0  0
 21 22  2  0  0  0
 22 23  1  0  0  0
 23 24  2  0  0  0
 32 33  1  0  0  0
 33 34  2  0  0  0
 33 35  1  0  0  0
 35 36  2  0  0  0
 36 37  1  0  0  0
 37 38  2  0  0  0
 38 39  1  0  0  0
 39 40  2  0  0  0
 40 41  1  0  0  0
 41 42  2  0  0  0
 42 43  1  0  0  0
  9  5  1  0  0  0
 31 26  1  0  0  0
 24 19  1  0  0  0
 43 35  1  0  0  0
 42 37  1  0  0  0
 49 52  1  0  0  0
 49 53  1  0  0  0
 51 54  1  0  0  0
 47 48  1  0  0  0
  1  4  1  0  0  0
 13 16  1  0  0  0
M  END
> <minimizedAffinity>
-9.24784

> <CNNscore>
0.8023420572

> <CNNaffinity>
7.8662505150

> <CNN_VS>
6.3114237785

> <CNNaffinity_variance>
0.0748351961

$$$$
[H]N=C(N([H])[H])N([H])C([H])([H])C([H])([H])C([H])([H])[C@@]([H])(C(=O)c1nc2c([H])c([H])c([H])c([H])c2s1)N([H])C(=O)[C@@]1([H])N(C(=O)[C@]([H])(N([H])C(=O)OC([H])([H])c2c([H])c([H])c([H])c([H])c2[H])C([H])([H])c2c([H])c([H])c([H])c([H])c2[H])C([H])([H])C([H])([H])C1([H])[H]


 54 58  0  0  0  0  0  0  0  0999 V2000
   56.1432   -4.5073  -10.3918 N   0  0  0  0  0  0  0  0  0  0  0  0
   57.0337   -4.6213  -11.3907 C   0  0  0  0  0  0  0  0  0  0  0  0
   58.2215   -5.0923  -11.2308 O   0  0  0  0  0  0  0  0  0  0  0  0
   56.9833   -5.2226   -9.5538 H   0  0  0  0  0  0  0  0  0  0  0  0
   56.6493   -4.2000  -12.7271 C   0  0  0  0  0  0  0  0  0  0  0  0
   56.1576   -5.4468  -13.5338 C   0  0  0  0  0  0  0  0  0  0  0  0
   55.7687   -4.7309  -14.8087 C   0  0  0  0  0  0  0  0  0  0  0  0
   56.4501   -3.3492  -14.7347 C   0  0  0  0  0  0  0  0  0  0  0  0
   57.5202   -3.6965  -13.7408 N   0  0  0  0  0  0  0  0  0  0  0  0
   58.8648   -3.4684  -13.8899 C   0  0  0  0  0  0  0  0  0  0  0  0
   59.5543   -3.6230  -12.7569 O   0  0  0  0  0  0  0  0  0  0  0  0
   59.8153   -3.1025  -14.9602 C   0  0  0  0  0  0  0  0  0  0  0  0
   60.8583   -2.3068  -14.6899 N   0  0  0  0  0  0  0  0  0  0  0  0
   62.2387   -2.2978  -14.2628 C   0  0  0  0  0  0  0  0  0  0  0  0
   62.7299   -3.4197  -14.0169 O   0  0  0  0  0  0  0  0  0  0  0  0
   60.5901   -1.1910  -14.7622 H   0  0  0  0  0  0  0  0  0  0  0  0
   62.9989   -1.1848  -14.1358 O   0  0  0  0  0  0  0  0  0  0  0  0
   64.1290   -0.9487  -13.3536 C   0  0  0  0  0  0  0  0  0  0  0  0
   64.5960    0.4138  -13.7677 C   0  0  0  0  0  0  0  0  0  0  0  0
   65.0454    0.5880  -15.0375 C   0  0  0  0  0  0  0  0  0  0  0  0
   65.5667    1.8134  -15.4789 C   0  0  0  0  0  0  0  0  0  0  0  0
   65.6227    2.8765  -14.5993 C   0  0  0  0  0  0  0  0  0  0  0  0
   65.1651    2.7091  -13.3110 C   0  0  0  0  0  0  0  0  0  0  0  0
   64.6483    1.4703  -12.8943 C   0  0  0  0  0  0  0  0  0  0  0  0
   59.1310   -2.8087  -16.3003 C   0  0  0  0  0  0  0  0  0  0  0  0
   59.1743   -3.9768  -17.2389 C   0  0  0  0  0  0  0  0  0  0  0  0
   60.3905   -4.5469  -17.5638 C   0  0  0  0  0  0  0  0  0  0  0  0
   60.5307   -5.6301  -18.3971 C   0  0  0  0  0  0  0  0  0  0  0  0
   59.4002   -6.2015  -18.9592 C   0  0  0  0  0  0  0  0  0  0  0  0
   58.1727   -5.6193  -18.6255 C   0  0  0  0  0  0  0  0  0  0  0  0
   58.0461   -4.5347  -17.7908 C   0  0  0  0  0  0  0  0  0  0  0  0
   55.2611   -4.4204   -9.2709 C   0  0  0  0  0  0  0  0  0  0  0  0
   53.9541   -3.7616   -9.4607 C   0  0  0  0  0  0  0  0  0  0  0  0
   53.7165   -3.1214  -10.5321 O   0  0  0  0  0  0  0  0  0  0  0  0
   52.8632   -3.8033   -8.4626 C   0  0  0  0  0  0  0  0  0  0  0  0
   51.8981   -2.9463   -8.1995 N   0  0  0  0  0  0  0  0  0  0  0  0
   51.0560   -3.1723   -7.2229 C   0  0  0  0  0  0  0  0  0  0  0  0
   50.0022   -2.3135   -6.8502 C   0  0  0  0  0  0  0  0  0  0  0  0
   49.2066   -2.6467   -5.7989 C   0  0  0  0  0  0  0  0  0  0  0  0
   49.3535   -3.7904   -5.0511 C   0  0  0  0  0  0  0  0  0  0  0  0
   50.3709   -4.6337   -5.4075 C   0  0  0  0  0  0  0  0  0  0  0  0
   51.2147   -4.3208   -6.4926 C   0  0  0  0  0  0  0  0  0  0  0  0
   52.5806   -5.0144   -7.2627 S   0  0  0  0  0  0  0  0  0  0  0  0
   55.9507   -3.7669   -8.0896 C   0  0  0  0  0  0  0  0  0  0  0  0
   56.8104   -4.7218   -7.3301 C   0  0  0  0  0  0  0  0  0  0  0  0
   56.0458   -5.3534   -6.2098 C   0  0  0  0  0  0  0  0  0  0  0  0
   56.0830   -4.6594   -4.9636 N   0  0  0  0  0  0  0  0  0  0  0  0
   56.6803   -3.8149   -4.7477 H   0  0  0  0  0  0  0  0  0  0  0  0
   55.4917   -4.7663   -2.5623 N   0  0  0  0  0  0  0  0  0  0  0  0
   55.2509   -5.1298   -3.9095 C   0  0  0  0  0  0  0  0  0  0  0  0
   54.2500   -5.9228   -4.1440 N   0  0  0  0  0  0  0  0  0  0  0  0
   56.0619   -5.3759   -1.9166 H   0  0  0  0  0  0  0  0  0  0  0  0
   55.1189   -3.8670   -2.1646 H   0  0  0  0  0  0  0  0  0  0  0  0
   53.6431   -6.2780   -3.3943 H   0  0  0  0  0  0  0  0  0  0  0  0
 49 50  1  0  0  0
 50 51  2  0  0  0
 50 47  1  0  0  0
 47 46  1  0  0  0
 46 45  1  0  0  0
 45 44  1  0  0  0
 44 32  1  0  0  0
 32  1  1  0  0  0
  1  2  1  0  0  0
  2  3  2  0  0  0
  2  5  1  0  0  0
  5  6  1  0  0  0
  6  7  1  0  0  0
  7  8  1  0  0  0
  8  9  1  0  0  0
  9 10  1  0  0  0
 10 11  2  0  0  0
 10 12  1  0  0  0
 12 25  1  0  0  0
 25 26  1  0  0  0
 26 27  2  0  0  0
 27 28  1  0  0  0
 28 29  2  0  0  0
 29 30  1  0  0  0
 30 31  2  0  0  0
 12 13  1  0  0  0
 13 14  1  0  0  0
 14 15  2  0  0  0
 14 17  1  0  0  0
 17 18  1  0  0  0
 18 19  1  0  0  0
 19 20  2  0  0  0
 20 21  1  0  0  0
 21 22  2  0  0  0
 22 23  1  0  0  0
 23 24  2  0  0  0
 32 33  1  0  0  0
 33 34  2  0  0  0
 33 35  1  0  0  0
 35 36  2  0  0  0
 36 37  1  0  0  0
 37 38  2  0  0  0
 38 39  1  0  0  0
 39 40  2  0  0  0
 40 41  1  0  0  0
 41 42  2  0  0  0
 42 43  1  0  0  0
  9  5  1  0  0  0
 31 26  1  0  0  0
 24 19  1  0  0  0
 43 35  1  0  0  0
 42 37  1  0  0  0
 49 52  1  0  0  0
 49 53  1  0  0  0
 51 54  1  0  0  0
 47 48  1  0  0  0
  1  4  1  0  0  0
 13 16  1  0  0  0
M  END
> <minimizedAffinity>
-8.62270

> <CNNscore>
0.6487215757

> <CNNaffinity>
7.5998687744

> <CNN_VS>
4.9301986694

> <CNNaffinity_variance>
0.1103586406

$$$$
[H]N=C(N([H])[H])N([H])C([H])([H])C([H])([H])C([H])([H])[C@@]([H])(C(=O)c1nc2c([H])c([H])c([H])c([H])c2s1)N([H])C(=O)[C@@]1([H])N(C(=O)[C@]([H])(N([H])C(=O)OC([H])([H])c2c([H])c([H])c([H])c([H])c2[H])C([H])([H])c2c([H])c([H])c([H])c([H])c2[H])C([H])([H])C([H])([H])C1([H])[H]


 54 58  0  0  0  0  0  0  0  0999 V2000
   56.0403   -4.6130  -10.5327 N   0  0  0  0  0  0  0  0  0  0  0  0
   56.8627   -4.9074  -11.5528 C   0  0  0  0  0  0  0  0  0  0  0  0
   57.8637   -5.7106  -11.4471 O   0  0  0  0  0  0  0  0  0  0  0  0
   56.6361   -5.5975   -9.7610 H   0  0  0  0  0  0  0  0  0  0  0  0
   56.6198   -4.2995  -12.8500 C   0  0  0  0  0  0  0  0  0  0  0  0
   56.1934   -5.4122  -13.8635 C   0  0  0  0  0  0  0  0  0  0  0  0
   55.9440   -4.5207  -15.0602 C   0  0  0  0  0  0  0  0  0  0  0  0
   56.6341   -3.1809  -14.7322 C   0  0  0  0  0  0  0  0  0  0  0  0
   57.5946   -3.6883  -13.6960 N   0  0  0  0  0  0  0  0  0  0  0  0
   58.9505   -3.4795  -13.6814 C   0  0  0  0  0  0  0  0  0  0  0  0
   59.5210   -3.8042  -12.5186 O   0  0  0  0  0  0  0  0  0  0  0  0
   60.0082   -2.9992  -14.5943 C   0  0  0  0  0  0  0  0  0  0  0  0
   60.8663   -2.0534  -14.1903 N   0  0  0  0  0  0  0  0  0  0  0  0
   62.2344   -1.8126  -13.7925 C   0  0  0  0  0  0  0  0  0  0  0  0
   62.9729   -2.8201  -13.7794 O   0  0  0  0  0  0  0  0  0  0  0  0
   60.3569   -1.0338  -14.0379 H   0  0  0  0  0  0  0  0  0  0  0  0
   62.7392   -0.6007  -13.4622 O   0  0  0  0  0  0  0  0  0  0  0  0
   63.9950   -0.2511  -12.9668 C   0  0  0  0  0  0  0  0  0  0  0  0
   63.7561    0.0607  -11.5205 C   0  0  0  0  0  0  0  0  0  0  0  0
   62.5641    0.6038  -11.1617 C   0  0  0  0  0  0  0  0  0  0  0  0
   62.2921    0.9909   -9.8409 C   0  0  0  0  0  0  0  0  0  0  0  0
   63.2623    0.8125   -8.8745 C   0  0  0  0  0  0  0  0  0  0  0  0
   64.4724    0.2586   -9.2295 C   0  0  0  0  0  0  0  0  0  0  0  0
   64.7191   -0.1197  -10.5604 C   0  0  0  0  0  0  0  0  0  0  0  0
   59.5282   -2.8361  -16.0411 C   0  0  0  0  0  0  0  0  0  0  0  0
   59.9503   -3.9740  -16.9210 C   0  0  0  0  0  0  0  0  0  0  0  0
   59.0301   -4.5583  -17.7703 C   0  0  0  0  0  0  0  0  0  0  0  0
   59.3257   -5.5906  -18.6272 C   0  0  0  0  0  0  0  0  0  0  0  0
   60.6162   -6.0947  -18.6586 C   0  0  0  0  0  0  0  0  0  0  0  0
   61.5424   -5.4981  -17.7964 C   0  0  0  0  0  0  0  0  0  0  0  0
   61.2334   -4.4659  -16.9431 C   0  0  0  0  0  0  0  0  0  0  0  0
   55.2178   -4.3556   -9.3928 C   0  0  0  0  0  0  0  0  0  0  0  0
   53.9403   -3.6460   -9.5998 C   0  0  0  0  0  0  0  0  0  0  0  0
   53.7012   -3.0829  -10.7133 O   0  0  0  0  0  0  0  0  0  0  0  0
   52.8813   -3.5490   -8.5716 C   0  0  0  0  0  0  0  0  0  0  0  0
   52.5621   -4.3549   -7.5797 N   0  0  0  0  0  0  0  0  0  0  0  0
   51.5392   -4.0867   -6.8080 C   0  0  0  0  0  0  0  0  0  0  0  0
   51.1054   -4.8899   -5.7339 C   0  0  0  0  0  0  0  0  0  0  0  0
   50.0107   -4.5172   -5.0184 C   0  0  0  0  0  0  0  0  0  0  0  0
   49.2742   -3.3839   -5.2675 C   0  0  0  0  0  0  0  0  0  0  0  0
   49.6896   -2.5943   -6.3054 C   0  0  0  0  0  0  0  0  0  0  0  0
   50.8208   -2.9492   -7.0681 C   0  0  0  0  0  0  0  0  0  0  0  0
   51.6689   -2.3267   -8.4219 S   0  0  0  0  0  0  0  0  0  0  0  0
   55.9961   -3.6208   -8.3193 C   0  0  0  0  0  0  0  0  0  0  0  0
   56.7174   -4.5494   -7.4000 C   0  0  0  0  0  0  0  0  0  0  0  0
   57.5868   -5.4936   -8.1690 C   0  0  0  0  0  0  0  0  0  0  0  0
   58.8667   -4.9901   -8.5487 N   0  0  0  0  0  0  0  0  0  0  0  0
   59.1392   -3.9699   -8.5881 H   0  0  0  0  0  0  0  0  0  0  0  0
   60.4731   -6.7734   -7.9428 N   0  0  0  0  0  0  0  0  0  0  0  0
   59.8757   -5.9269   -8.9080 C   0  0  0  0  0  0  0  0  0  0  0  0
   60.2962   -6.0277  -10.1324 N   0  0  0  0  0  0  0  0  0  0  0  0
   61.3747   -6.5140   -7.4595 H   0  0  0  0  0  0  0  0  0  0  0  0
   60.0284   -7.6854   -7.6666 H   0  0  0  0  0  0  0  0  0  0  0  0
   61.0289   -6.6935  -10.4085 H   0  0  0  0  0  0  0  0  0  0  0  0
 49 50  1  0  0  0
 50 51  2  0  0  0
 50 47  1  0  0  0
 47 46  1  0  0  0
 46 45  1  0  0  0
 45 44  1  0  0  0
 44 32  1  0  0  0
 32  1  1  0  0  0
  1  2  1  0  0  0
  2  3  2  0  0  0
  2  5  1  0  0  0
  5  6  1  0  0  0
  6  7  1  0  0  0
  7  8  1  0  0  0
  8  9  1  0  0  0
  9 10  1  0  0  0
 10 11  2  0  0  0
 10 12  1  0  0  0
 12 25  1  0  0  0
 25 26  1  0  0  0
 26 27  2  0  0  0
 27 28  1  0  0  0
 28 29  2  0  0  0
 29 30  1  0  0  0
 30 31  2  0  0  0
 12 13  1  0  0  0
 13 14  1  0  0  0
 14 15  2  0  0  0
 14 17  1  0  0  0
 17 18  1  0  0  0
 18 19  1  0  0  0
 19 20  2  0  0  0
 20 21  1  0  0  0
 21 22  2  0  0  0
 22 23  1  0  0  0
 23 24  2  0  0  0
 32 33  1  0  0  0
 33 34  2  0  0  0
 33 35  1  0  0  0
 35 36  2  0  0  0
 36 37  1  0  0  0
 37 38  2  0  0  0
 38 39  1  0  0  0
 39 40  2  0  0  0
 40 41  1  0  0  0
 41 42  2  0  0  0
 42 43  1  0  0  0
  9  5  1  0  0  0
 31 26  1  0  0  0
 24 19  1  0  0  0
 43 35  1  0  0  0
 42 37  1  0  0  0
 49 52  1  0  0  0
 49 53  1  0  0  0
 51 54  1  0  0  0
 47 48  1  0  0  0
  1  4  1  0  0  0
 13 16  1  0  0  0
M  END
> <minimizedAffinity>
-8.21076

> <CNNscore>
0.5374472141

> <CNNaffinity>
7.3936333656

> <CNN_VS>
3.9736876488

> <CNNaffinity_variance>
0.2757402956

$$$$
[H]N=C(N([H])[H])N([H])C([H])([H])C([H])([H])C([H])([H])[C@@]([H])(C(=O)c1nc2c([H])c([H])c([H])c([H])c2s1)N([H])C(=O)[C@@]1([H])N(C(=O)[C@]([H])(N([H])C(=O)OC([H])([H])c2c([H])c([H])c([H])c([H])c2[H])C([H])([H])c2c([H])c([H])c([H])c([H])c2[H])C([H])([H])C([H])([H])C1([H])[H]


 54 58  0  0  0  0  0  0  0  0999 V2000
   56.1458   -4.5466  -10.3881 N   0  0  0  0  0  0  0  0  0  0  0  0
   57.0525   -4.7548  -11.3567 C   0  0  0  0  0  0  0  0  0  0  0  0
   58.1557   -5.3922  -11.1695 O   0  0  0  0  0  0  0  0  0  0  0  0
   56.8428   -5.3970   -9.5451 H   0  0  0  0  0  0  0  0  0  0  0  0
   56.7863   -4.2446  -12.6908 C   0  0  0  0  0  0  0  0  0  0  0  0
   56.2971   -5.4205  -13.5990 C   0  0  0  0  0  0  0  0  0  0  0  0
   56.0355   -4.6195  -14.8556 C   0  0  0  0  0  0  0  0  0  0  0  0
   56.7732   -3.2798  -14.6563 C   0  0  0  0  0  0  0  0  0  0  0  0
   57.7509   -3.7326  -13.6111 N   0  0  0  0  0  0  0  0  0  0  0  0
   59.1120   -3.5650  -13.6526 C   0  0  0  0  0  0  0  0  0  0  0  0
   59.7094   -3.8138  -12.4846 O   0  0  0  0  0  0  0  0  0  0  0  0
   60.1537   -3.1913  -14.6314 C   0  0  0  0  0  0  0  0  0  0  0  0
   59.9176   -3.3138  -15.9442 N   0  0  0  0  0  0  0  0  0  0  0  0
   59.4192   -2.6197  -17.1094 C   0  0  0  0  0  0  0  0  0  0  0  0
   59.0224   -1.4525  -16.9078 O   0  0  0  0  0  0  0  0  0  0  0  0
   60.1292   -4.3756  -16.3316 H   0  0  0  0  0  0  0  0  0  0  0  0
   59.3764   -3.1417  -18.3578 O   0  0  0  0  0  0  0  0  0  0  0  0
   58.4647   -4.0247  -18.9356 C   0  0  0  0  0  0  0  0  0  0  0  0
   59.1151   -5.3695  -18.8163 C   0  0  0  0  0  0  0  0  0  0  0  0
   58.3435   -6.4368  -18.4845 C   0  0  0  0  0  0  0  0  0  0  0  0
   58.8894   -7.7133  -18.2823 C   0  0  0  0  0  0  0  0  0  0  0  0
   60.2508   -7.8933  -18.4274 C   0  0  0  0  0  0  0  0  0  0  0  0
   61.0397   -6.8168  -18.7679 C   0  0  0  0  0  0  0  0  0  0  0  0
   60.4671   -5.5483  -18.9638 C   0  0  0  0  0  0  0  0  0  0  0  0
   61.5634   -3.6159  -14.2038 C   0  0  0  0  0  0  0  0  0  0  0  0
   62.5325   -3.6344  -15.3475 C   0  0  0  0  0  0  0  0  0  0  0  0
   63.2992   -2.5153  -15.6109 C   0  0  0  0  0  0  0  0  0  0  0  0
   64.2268   -2.4426  -16.6216 C   0  0  0  0  0  0  0  0  0  0  0  0
   64.4221   -3.5434  -17.4405 C   0  0  0  0  0  0  0  0  0  0  0  0
   63.6428   -4.6727  -17.1676 C   0  0  0  0  0  0  0  0  0  0  0  0
   62.7171   -4.7322  -16.1533 C   0  0  0  0  0  0  0  0  0  0  0  0
   55.2385   -4.3700   -9.2982 C   0  0  0  0  0  0  0  0  0  0  0  0
   53.9508   -3.6994   -9.5637 C   0  0  0  0  0  0  0  0  0  0  0  0
   53.7167   -3.2083  -10.7118 O   0  0  0  0  0  0  0  0  0  0  0  0
   52.8759   -3.5623   -8.5569 C   0  0  0  0  0  0  0  0  0  0  0  0
   52.5358   -4.3328   -7.5440 N   0  0  0  0  0  0  0  0  0  0  0  0
   51.5021   -4.0336   -6.7986 C   0  0  0  0  0  0  0  0  0  0  0  0
   51.0462   -4.7979   -5.7054 C   0  0  0  0  0  0  0  0  0  0  0  0
   49.9422   -4.3957   -5.0209 C   0  0  0  0  0  0  0  0  0  0  0  0
   49.2165   -3.2675   -5.3198 C   0  0  0  0  0  0  0  0  0  0  0  0
   49.6534   -2.5153   -6.3766 C   0  0  0  0  0  0  0  0  0  0  0  0
   50.7947   -2.9016   -7.1082 C   0  0  0  0  0  0  0  0  0  0  0  0
   51.6684   -2.3293   -8.4680 S   0  0  0  0  0  0  0  0  0  0  0  0
   55.9127   -3.6551   -8.1439 C   0  0  0  0  0  0  0  0  0  0  0  0
   56.4387   -4.6003   -7.1155 C   0  0  0  0  0  0  0  0  0  0  0  0
   55.9854   -4.2050   -5.7455 C   0  0  0  0  0  0  0  0  0  0  0  0
   55.5024   -5.2648   -4.9212 N   0  0  0  0  0  0  0  0  0  0  0  0
   54.7151   -5.9253   -5.1672 H   0  0  0  0  0  0  0  0  0  0  0  0
   56.7202   -6.7028   -3.3160 N   0  0  0  0  0  0  0  0  0  0  0  0
   56.1219   -5.4653   -3.6559 C   0  0  0  0  0  0  0  0  0  0  0  0
   56.1462   -4.5247   -2.7612 N   0  0  0  0  0  0  0  0  0  0  0  0
   56.1924   -7.4471   -2.7859 H   0  0  0  0  0  0  0  0  0  0  0  0
   57.7099   -6.9250   -3.5935 H   0  0  0  0  0  0  0  0  0  0  0  0
   56.5828   -4.6542   -1.8397 H   0  0  0  0  0  0  0  0  0  0  0  0
 49 50  1  0  0  0
 50 51  2  0  0  0
 50 47  1  0  0  0
 47 46  1  0  0  0
 46 45  1  0  0  0
 45 44  1  0  0  0
 44 32  1  0  0  0
 32  1  1  0  0  0
  1  2  1  0  0  0
  2  3  2  0  0  0
  2  5  1  0  0  0
  5  6  1  0  0  0
  6  7  1  0  0  0
  7  8  1  0  0  0
  8  9  1  0  0  0
  9 10  1  0  0  0
 10 11  2  0  0  0
 10 12  1  0  0  0
 12 25  1  0  0  0
 25 26  1  0  0  0
 26 27  2  0  0  0
 27 28  1  0  0  0
 28 29  2  0  0  0
 29 30  1  0  0  0
 30 31  2  0  0  0
 12 13  1  0  0  0
 13 14  1  0  0  0
 14 15  2  0  0  0
 14 17  1  0  0  0
 17 18  1  0  0  0
 18 19  1  0  0  0
 19 20  2  0  0  0
 20 21  1  0  0  0
 21 22  2  0  0  0
 22 23  1  0  0  0
 23 24  2  0  0  0
 32 33  1  0  0  0
 33 34  2  0  0  0
 33 35  1  0  0  0
 35 36  2  0  0  0
 36 37  1  0  0  0
 37 38  2  0  0  0
 38 39  1  0  0  0
 39 40  2  0  0  0
 40 41  1  0  0  0
 41 42  2  0  0  0
 42 43  1  0  0  0
  9  5  1  0  0  0
 31 26  1  0  0  0
 24 19  1  0  0  0
 43 35  1  0  0  0
 42 37  1  0  0  0
 49 52  1  0  0  0
 49 53  1  0  0  0
 51 54  1  0  0  0
 47 48  1  0  0  0
  1  4  1  0  0  0
 13 16  1  0  0  0
M  END
> <minimizedAffinity>
-7.42212

> <CNNscore>
0.4624379575

> <CNNaffinity>
7.5698800087

> <CNN_VS>
3.5005998611

> <CNNaffinity_variance>
0.1170561537

$$$$
[H]N=C(N([H])[H])N([H])C([H])([H])C([H])([H])C([H])([H])[C@@]([H])(C(=O)c1nc2c([H])c([H])c([H])c([H])c2s1)N([H])C(=O)[C@@]1([H])N(C(=O)[C@]([H])(N([H])C(=O)OC([H])([H])c2c([H])c([H])c([H])c([H])c2[H])C([H])([H])c2c([H])c([H])c([H])c([H])c2[H])C([H])([H])C([H])([H])C1([H])[H]


 54 58  0  0  0  0  0  0  0  0999 V2000
   56.2472   -4.6302  -10.3067 N   0  0  0  0  0  0  0  0  0  0  0  0
   57.1636   -4.6671  -11.2878 C   0  0  0  0  0  0  0  0  0  0  0  0
   58.3695   -5.0850  -11.1158 O   0  0  0  0  0  0  0  0  0  0  0  0
   57.1032   -5.3318   -9.4732 H   0  0  0  0  0  0  0  0  0  0  0  0
   56.7880   -4.2202  -12.6183 C   0  0  0  0  0  0  0  0  0  0  0  0
   56.2675   -5.4451  -13.4404 C   0  0  0  0  0  0  0  0  0  0  0  0
   55.8940   -4.7044  -14.7057 C   0  0  0  0  0  0  0  0  0  0  0  0
   56.6066   -3.3395  -14.6147 C   0  0  0  0  0  0  0  0  0  0  0  0
   57.6693   -3.7236  -13.6264 N   0  0  0  0  0  0  0  0  0  0  0  0
   59.0186   -3.5241  -13.7739 C   0  0  0  0  0  0  0  0  0  0  0  0
   59.7052   -3.7087  -12.6437 O   0  0  0  0  0  0  0  0  0  0  0  0
   59.9764   -3.1661  -14.8404 C   0  0  0  0  0  0  0  0  0  0  0  0
   59.5483   -2.9916  -16.0975 N   0  0  0  0  0  0  0  0  0  0  0  0
   59.0540   -2.0102  -17.0358 C   0  0  0  0  0  0  0  0  0  0  0  0
   58.9368   -0.8509  -16.5853 O   0  0  0  0  0  0  0  0  0  0  0  0
   59.4830   -3.9805  -16.6809 H   0  0  0  0  0  0  0  0  0  0  0  0
   58.7394   -2.2681  -18.3270 O   0  0  0  0  0  0  0  0  0  0  0  0
   57.7000   -3.0239  -18.8686 C   0  0  0  0  0  0  0  0  0  0  0  0
   56.4767   -2.1822  -18.6657 C   0  0  0  0  0  0  0  0  0  0  0  0
   55.3386   -2.7844  -18.2335 C   0  0  0  0  0  0  0  0  0  0  0  0
   54.1343   -2.0793  -18.0896 C   0  0  0  0  0  0  0  0  0  0  0  0
   54.1032   -0.7323  -18.3926 C   0  0  0  0  0  0  0  0  0  0  0  0
   55.2541   -0.1134  -18.8277 C   0  0  0  0  0  0  0  0  0  0  0  0
   56.4473   -0.8436  -18.9638 C   0  0  0  0  0  0  0  0  0  0  0  0
   61.3107   -3.9128  -14.7285 C   0  0  0  0  0  0  0  0  0  0  0  0
   62.0591   -3.9550  -16.0267 C   0  0  0  0  0  0  0  0  0  0  0  0
   62.1461   -5.1434  -16.7265 C   0  0  0  0  0  0  0  0  0  0  0  0
   62.7913   -5.2775  -17.9319 C   0  0  0  0  0  0  0  0  0  0  0  0
   63.4009   -4.1697  -18.4993 C   0  0  0  0  0  0  0  0  0  0  0  0
   63.3085   -2.9701  -17.7854 C   0  0  0  0  0  0  0  0  0  0  0  0
   62.6603   -2.8496  -16.5794 C   0  0  0  0  0  0  0  0  0  0  0  0
   55.3378   -4.6241   -9.2044 C   0  0  0  0  0  0  0  0  0  0  0  0
   54.0916   -3.8439   -9.3320 C   0  0  0  0  0  0  0  0  0  0  0  0
   53.9176   -3.0870  -10.3375 O   0  0  0  0  0  0  0  0  0  0  0  0
   52.9919   -3.8895   -8.3438 C   0  0  0  0  0  0  0  0  0  0  0  0
   51.9992   -3.0543   -8.1150 N   0  0  0  0  0  0  0  0  0  0  0  0
   51.1539   -3.2773   -7.1406 C   0  0  0  0  0  0  0  0  0  0  0  0
   50.0713   -2.4399   -6.8031 C   0  0  0  0  0  0  0  0  0  0  0  0
   49.2747   -2.7665   -5.7504 C   0  0  0  0  0  0  0  0  0  0  0  0
   49.4474   -3.8834   -4.9685 C   0  0  0  0  0  0  0  0  0  0  0  0
   50.4929   -4.7060   -5.2905 C   0  0  0  0  0  0  0  0  0  0  0  0
   51.3385   -4.3992   -6.3758 C   0  0  0  0  0  0  0  0  0  0  0  0
   52.7324   -5.0736   -7.1122 S   0  0  0  0  0  0  0  0  0  0  0  0
   56.0359   -4.1916   -7.9301 C   0  0  0  0  0  0  0  0  0  0  0  0
   56.9229   -5.2560   -7.3752 C   0  0  0  0  0  0  0  0  0  0  0  0
   56.4625   -5.6799   -6.0161 C   0  0  0  0  0  0  0  0  0  0  0  0
   55.9190   -4.6476   -5.1945 N   0  0  0  0  0  0  0  0  0  0  0  0
   55.8892   -3.6197   -5.4377 H   0  0  0  0  0  0  0  0  0  0  0  0
   55.9740   -4.6212   -2.7199 N   0  0  0  0  0  0  0  0  0  0  0  0
   55.3650   -5.0145   -3.9362 C   0  0  0  0  0  0  0  0  0  0  0  0
   54.2891   -5.7372   -3.8588 N   0  0  0  0  0  0  0  0  0  0  0  0
   56.6537   -5.2483   -2.2116 H   0  0  0  0  0  0  0  0  0  0  0  0
   55.7768   -3.6822   -2.2894 H   0  0  0  0  0  0  0  0  0  0  0  0
   53.8791   -6.0175   -2.9589 H   0  0  0  0  0  0  0  0  0  0  0  0
 49 50  1  0  0  0
 50 51  2  0  0  0
 50 47  1  0  0  0
 47 46  1  0  0  0
 46 45  1  0  0  0
 45 44  1  0  0  0
 44 32  1  0  0  0
 32  1  1  0  0  0
  1  2  1  0  0  0
  2  3  2  0  0  0
  2  5  1  0  0  0
  5  6  1  0  0  0
  6  7  1  0  0  0
  7  8  1  0  0  0
  8  9  1  0  0  0
  9 10  1  0  0  0
 10 11  2  0  0  0
 10 12  1  0  0  0
 12 25  1  0  0  0
 25 26  1  0  0  0
 26 27  2  0  0  0
 27 28  1  0  0  0
 28 29  2  0  0  0
 29 30  1  0  0  0
 30 31  2  0  0  0
 12 13  1  0  0  0
 13 14  1  0  0  0
 14 15  2  0  0  0
 14 17  1  0  0  0
 17 18  1  0  0  0
 18 19  1  0  0  0
 19 20  2  0  0  0
 20 21  1  0  0  0
 21 22  2  0  0  0
 22 23  1  0  0  0
 23 24  2  0  0  0
 32 33  1  0  0  0
 33 34  2  0  0  0
 33 35  1  0  0  0
 35 36  2  0  0  0
 36 37  1  0  0  0
 37 38  2  0  0  0
 38 39  1  0  0  0
 39 40  2  0  0  0
 40 41  1  0  0  0
 41 42  2  0  0  0
 42 43  1  0  0  0
  9  5  1  0  0  0
 31 26  1  0  0  0
 24 19  1  0  0  0
 43 35  1  0  0  0
 42 37  1  0  0  0
 49 52  1  0  0  0
 49 53  1  0  0  0
 51 54  1  0  0  0
 47 48  1  0  0  0
  1  4  1  0  0  0
 13 16  1  0  0  0
M  END
> <minimizedAffinity>
-8.06257

> <CNNscore>
0.4332555830

> <CNNaffinity>
7.5781111717

> <CNN_VS>
3.2832589149

> <CNNaffinity_variance>
0.0309991352

$$$$
[H]N=C(N([H])[H])N([H])C([H])([H])C([H])([H])C([H])([H])[C@@]([H])(C(=O)c1nc2c([H])c([H])c([H])c([H])c2s1)N([H])C(=O)[C@@]1([H])N(C(=O)[C@]([H])(N([H])C(=O)OC([H])([H])c2c([H])c([H])c([H])c([H])c2[H])C([H])([H])c2c([H])c([H])c([H])c([H])c2[H])C([H])([H])C([H])([H])C1([H])[H]


 54 58  0  0  0  0  0  0  0  0999 V2000
   55.6770   -3.8259   -8.0124 N   0  0  0  0  0  0  0  0  0  0  0  0
   56.0842   -4.0306   -6.7491 C   0  0  0  0  0  0  0  0  0  0  0  0
   56.5124   -3.0896   -5.9813 O   0  0  0  0  0  0  0  0  0  0  0  0
   55.7521   -2.4558   -7.8205 H   0  0  0  0  0  0  0  0  0  0  0  0
   56.0404   -5.3773   -6.2054 C   0  0  0  0  0  0  0  0  0  0  0  0
   54.6580   -6.0227   -6.5511 C   0  0  0  0  0  0  0  0  0  0  0  0
   54.9093   -7.3890   -5.9516 C   0  0  0  0  0  0  0  0  0  0  0  0
   56.1292   -7.2183   -5.0235 C   0  0  0  0  0  0  0  0  0  0  0  0
   56.0333   -5.7337   -4.8225 N   0  0  0  0  0  0  0  0  0  0  0  0
   56.0240   -5.0817   -3.6154 C   0  0  0  0  0  0  0  0  0  0  0  0
   56.2035   -3.7633   -3.7273 O   0  0  0  0  0  0  0  0  0  0  0  0
   55.8595   -5.4033   -2.1828 C   0  0  0  0  0  0  0  0  0  0  0  0
   56.2222   -6.6060   -1.7179 N   0  0  0  0  0  0  0  0  0  0  0  0
   57.0401   -7.2783   -0.7346 C   0  0  0  0  0  0  0  0  0  0  0  0
   57.7130   -6.5287    0.0042 O   0  0  0  0  0  0  0  0  0  0  0  0
   55.7789   -7.4682   -2.3363 H   0  0  0  0  0  0  0  0  0  0  0  0
   57.1003   -8.6206   -0.5698 O   0  0  0  0  0  0  0  0  0  0  0  0
   57.9838   -9.3991    0.1773 C   0  0  0  0  0  0  0  0  0  0  0  0
   58.7488  -10.1856   -0.8436 C   0  0  0  0  0  0  0  0  0  0  0  0
   59.0989  -11.4645   -0.5491 C   0  0  0  0  0  0  0  0  0  0  0  0
   59.8773  -12.2406   -1.4209 C   0  0  0  0  0  0  0  0  0  0  0  0
   60.2986  -11.6914   -2.6159 C   0  0  0  0  0  0  0  0  0  0  0  0
   59.9443  -10.3965   -2.9238 C   0  0  0  0  0  0  0  0  0  0  0  0
   59.1643   -9.6406   -2.0319 C   0  0  0  0  0  0  0  0  0  0  0  0
   54.5498   -4.8693   -1.5911 C   0  0  0  0  0  0  0  0  0  0  0  0
   53.4277   -5.8588   -1.6861 C   0  0  0  0  0  0  0  0  0  0  0  0
   53.0540   -6.5770   -0.5662 C   0  0  0  0  0  0  0  0  0  0  0  0
   52.0273   -7.4896   -0.5486 C   0  0  0  0  0  0  0  0  0  0  0  0
   51.3101   -7.7229   -1.7112 C   0  0  0  0  0  0  0  0  0  0  0  0
   51.6938   -6.9921   -2.8407 C   0  0  0  0  0  0  0  0  0  0  0  0
   52.7239   -6.0821   -2.8452 C   0  0  0  0  0  0  0  0  0  0  0  0
   55.2650   -3.5173   -9.3455 C   0  0  0  0  0  0  0  0  0  0  0  0
   53.8188   -3.4713   -9.6361 C   0  0  0  0  0  0  0  0  0  0  0  0
   53.4128   -3.5011  -10.8397 O   0  0  0  0  0  0  0  0  0  0  0  0
   52.7751   -3.3995   -8.5904 C   0  0  0  0  0  0  0  0  0  0  0  0
   52.4834   -4.2195   -7.6015 N   0  0  0  0  0  0  0  0  0  0  0  0
   51.4692   -3.9736   -6.8111 C   0  0  0  0  0  0  0  0  0  0  0  0
   51.0642   -4.7933   -5.7381 C   0  0  0  0  0  0  0  0  0  0  0  0
   49.9758   -4.4434   -5.0018 C   0  0  0  0  0  0  0  0  0  0  0  0
   49.2192   -3.3187   -5.2280 C   0  0  0  0  0  0  0  0  0  0  0  0
   49.6066   -2.5132   -6.2646 C   0  0  0  0  0  0  0  0  0  0  0  0
   50.7305   -2.8443   -7.0486 C   0  0  0  0  0  0  0  0  0  0  0  0
   51.5478   -2.1965   -8.4095 S   0  0  0  0  0  0  0  0  0  0  0  0
   55.9164   -4.4545  -10.3433 C   0  0  0  0  0  0  0  0  0  0  0  0
   57.2856   -4.0088  -10.7360 C   0  0  0  0  0  0  0  0  0  0  0  0
   57.5565   -4.3204  -12.1741 C   0  0  0  0  0  0  0  0  0  0  0  0
   56.8911   -3.4908  -13.1254 N   0  0  0  0  0  0  0  0  0  0  0  0
   56.7258   -2.4518  -13.0261 H   0  0  0  0  0  0  0  0  0  0  0  0
   56.0515   -3.3204  -15.4478 N   0  0  0  0  0  0  0  0  0  0  0  0
   56.4014   -4.0965  -14.3163 C   0  0  0  0  0  0  0  0  0  0  0  0
   56.2428   -5.3823  -14.4021 N   0  0  0  0  0  0  0  0  0  0  0  0
   55.0599   -3.0012  -15.6164 H   0  0  0  0  0  0  0  0  0  0  0  0
   56.7744   -3.0257  -16.1523 H   0  0  0  0  0  0  0  0  0  0  0  0
   55.8837   -5.8361  -15.2516 H   0  0  0  0  0  0  0  0  0  0  0  0
 49 50  1  0  0  0
 50 51  2  0  0  0
 50 47  1  0  0  0
 47 46  1  0  0  0
 46 45  1  0  0  0
 45 44  1  0  0  0
 44 32  1  0  0  0
 32  1  1  0  0  0
  1  2  1  0  0  0
  2  3  2  0  0  0
  2  5  1  0  0  0
  5  6  1  0  0  0
  6  7  1  0  0  0
  7  8  1  0  0  0
  8  9  1  0  0  0
  9 10  1  0  0  0
 10 11  2  0  0  0
 10 12  1  0  0  0
 12 25  1  0  0  0
 25 26  1  0  0  0
 26 27  2  0  0  0
 27 28  1  0  0  0
 28 29  2  0  0  0
 29 30  1  0  0  0
 30 31  2  0  0  0
 12 13  1  0  0  0
 13 14  1  0  0  0
 14 15  2  0  0  0
 14 17  1  0  0  0
 17 18  1  0  0  0
 18 19  1  0  0  0
 19 20  2  0  0  0
 20 21  1  0  0  0
 21 22  2  0  0  0
 22 23  1  0  0  0
 23 24  2  0  0  0
 32 33  1  0  0  0
 33 34  2  0  0  0
 33 35  1  0  0  0
 35 36  2  0  0  0
 36 37  1  0  0  0
 37 38  2  0  0  0
 38 39  1  0  0  0
 39 40  2  0  0  0
 40 41  1  0  0  0
 41 42  2  0  0  0
 42 43  1  0  0  0
  9  5  1  0  0  0
 31 26  1  0  0  0
 24 19  1  0  0  0
 43 35  1  0  0  0
 42 37  1  0  0  0
 49 52  1  0  0  0
 49 53  1  0  0  0
 51 54  1  0  0  0
 47 48  1  0  0  0
  1  4  1  0  0  0
 13 16  1  0  0  0
M  END
> <minimizedAffinity>
-9.24772

> <CNNscore>
0.3672379255

> <CNNaffinity>
7.7320928574

> <CNN_VS>
2.8395178318

> <CNNaffinity_variance>
0.2161196470

$$$$
[H]N=C(N([H])[H])N([H])C([H])([H])C([H])([H])C([H])([H])[C@@]([H])(C(=O)c1nc2c([H])c([H])c([H])c([H])c2s1)N([H])C(=O)[C@@]1([H])N(C(=O)[C@]([H])(N([H])C(=O)OC([H])([H])c2c([H])c([H])c([H])c([H])c2[H])C([H])([H])c2c([H])c([H])c([H])c([H])c2[H])C([H])([H])C([H])([H])C1([H])[H]


 54 58  0  0  0  0  0  0  0  0999 V2000
   57.5010   -5.1429   -8.9408 N   0  0  0  0  0  0  0  0  0  0  0  0
   56.6862   -4.4901   -8.0961 C   0  0  0  0  0  0  0  0  0  0  0  0
   57.0951   -3.9170   -7.0178 O   0  0  0  0  0  0  0  0  0  0  0  0
   58.6048   -4.6772   -8.2448 H   0  0  0  0  0  0  0  0  0  0  0  0
   55.2683   -4.4140   -8.4044 C   0  0  0  0  0  0  0  0  0  0  0  0
   54.8465   -2.9107   -8.5000 C   0  0  0  0  0  0  0  0  0  0  0  0
   53.3995   -3.1236   -8.8870 C   0  0  0  0  0  0  0  0  0  0  0  0
   53.0914   -4.5972   -8.5516 C   0  0  0  0  0  0  0  0  0  0  0  0
   54.1932   -4.8202   -7.5566 N   0  0  0  0  0  0  0  0  0  0  0  0
   54.0469   -5.3297   -6.2912 C   0  0  0  0  0  0  0  0  0  0  0  0
   55.2060   -5.6738   -5.7245 O   0  0  0  0  0  0  0  0  0  0  0  0
   52.9626   -5.6127   -5.3284 C   0  0  0  0  0  0  0  0  0  0  0  0
   53.1829   -6.4271   -4.2881 N   0  0  0  0  0  0  0  0  0  0  0  0
   52.9620   -6.5938   -2.8699 C   0  0  0  0  0  0  0  0  0  0  0  0
   52.3454   -5.6619   -2.3115 O   0  0  0  0  0  0  0  0  0  0  0  0
   53.8376   -7.3302   -4.5679 H   0  0  0  0  0  0  0  0  0  0  0  0
   53.3584   -7.6690   -2.1492 O   0  0  0  0  0  0  0  0  0  0  0  0
   54.2698   -7.7641   -1.0980 C   0  0  0  0  0  0  0  0  0  0  0  0
   55.5910   -7.4123   -1.7117 C   0  0  0  0  0  0  0  0  0  0  0  0
   56.1983   -6.2593   -1.3289 C   0  0  0  0  0  0  0  0  0  0  0  0
   57.3990   -5.8244   -1.9097 C   0  0  0  0  0  0  0  0  0  0  0  0
   57.9845   -6.5910   -2.8979 C   0  0  0  0  0  0  0  0  0  0  0  0
   57.3771   -7.7637   -3.2889 C   0  0  0  0  0  0  0  0  0  0  0  0
   56.1737   -8.1759   -2.6910 C   0  0  0  0  0  0  0  0  0  0  0  0
   51.5962   -5.8027   -5.9974 C   0  0  0  0  0  0  0  0  0  0  0  0
   50.6259   -4.7150   -5.6471 C   0  0  0  0  0  0  0  0  0  0  0  0
   50.4204   -3.6726   -6.5306 C   0  0  0  0  0  0  0  0  0  0  0  0
   49.5392   -2.6423   -6.3087 C   0  0  0  0  0  0  0  0  0  0  0  0
   48.8023   -2.6241   -5.1351 C   0  0  0  0  0  0  0  0  0  0  0  0
   49.0152   -3.6827   -4.2457 C   0  0  0  0  0  0  0  0  0  0  0  0
   49.9009   -4.7074   -4.4796 C   0  0  0  0  0  0  0  0  0  0  0  0
   58.4392   -5.8177   -9.7814 C   0  0  0  0  0  0  0  0  0  0  0  0
   59.7879   -6.0874   -9.2463 C   0  0  0  0  0  0  0  0  0  0  0  0
   60.1657   -5.5297   -8.1691 O   0  0  0  0  0  0  0  0  0  0  0  0
   60.7586   -6.9975   -9.8925 C   0  0  0  0  0  0  0  0  0  0  0  0
   60.8389   -8.3124   -9.9003 N   0  0  0  0  0  0  0  0  0  0  0  0
   61.8272   -8.9145  -10.5121 C   0  0  0  0  0  0  0  0  0  0  0  0
   62.0135  -10.3108  -10.5652 C   0  0  0  0  0  0  0  0  0  0  0  0
   63.0964  -10.8179  -11.2128 C   0  0  0  0  0  0  0  0  0  0  0  0
   64.0500  -10.0522  -11.8397 C   0  0  0  0  0  0  0  0  0  0  0  0
   63.8763   -8.6952  -11.7983 C   0  0  0  0  0  0  0  0  0  0  0  0
   62.7649   -8.1346  -11.1367 C   0  0  0  0  0  0  0  0  0  0  0  0
   62.1621   -6.5645  -10.8028 S   0  0  0  0  0  0  0  0  0  0  0  0
   58.5935   -5.0974  -11.1064 C   0  0  0  0  0  0  0  0  0  0  0  0
   57.3175   -4.4797  -11.5728 C   0  0  0  0  0  0  0  0  0  0  0  0
   57.5152   -3.7605  -12.8699 C   0  0  0  0  0  0  0  0  0  0  0  0
   56.3592   -3.6441  -13.6981 N   0  0  0  0  0  0  0  0  0  0  0  0
   55.5310   -3.0144  -13.5131 H   0  0  0  0  0  0  0  0  0  0  0  0
   56.3515   -3.8461  -16.1653 N   0  0  0  0  0  0  0  0  0  0  0  0
   56.2983   -4.4358  -14.8790 C   0  0  0  0  0  0  0  0  0  0  0  0
   56.1755   -5.7270  -14.8189 N   0  0  0  0  0  0  0  0  0  0  0  0
   55.4753   -3.6028  -16.7007 H   0  0  0  0  0  0  0  0  0  0  0  0
   57.2701   -3.6193  -16.6241 H   0  0  0  0  0  0  0  0  0  0  0  0
   56.1227   -6.3136  -15.6612 H   0  0  0  0  0  0  0  0  0  0  0  0
 49 50  1  0  0  0
 50 51  2  0  0  0
 50 47  1  0  0  0
 47 46  1  0  0  0
 46 45  1  0  0  0
 45 44  1  0  0  0
 44 32  1  0  0  0
 32  1  1  0  0  0
  1  2  1  0  0  0
  2  3  2  0  0  0
  2  5  1  0  0  0
  5  6  1  0  0  0
  6  7  1  0  0  0
  7  8  1  0  0  0
  8  9  1  0  0  0
  9 10  1  0  0  0
 10 11  2  0  0  0
 10 12  1  0  0  0
 12 25  1  0  0  0
 25 26  1  0  0  0
 26 27  2  0  0  0
 27 28  1  0  0  0
 28 29  2  0  0  0
 29 30  1  0  0  0
 30 31  2  0  0  0
 12 13  1  0  0  0
 13 14  1  0  0  0
 14 15  2  0  0  0
 14 17  1  0  0  0
 17 18  1  0  0  0
 18 19  1  0  0  0
 19 20  2  0  0  0
 20 21  1  0  0  0
 21 22  2  0  0  0
 22 23  1  0  0  0
 23 24  2  0  0  0
 32 33  1  0  0  0
 33 34  2  0  0  0
 33 35  1  0  0  0
 35 36  2  0  0  0
 36 37  1  0  0  0
 37 38  2  0  0  0
 38 39  1  0  0  0
 39 40  2  0  0  0
 40 41  1  0  0  0
 41 42  2  0  0  0
 42 43  1  0  0  0
  9  5  1  0  0  0
 31 26  1  0  0  0
 24 19  1  0  0  0
 43 35  1  0  0  0
 42 37  1  0  0  0
 49 52  1  0  0  0
 49 53  1  0  0  0
 51 54  1  0  0  0
 47 48  1  0  0  0
  1  4  1  0  0  0
 13 16  1  0  0  0
M  END
> <minimizedAffinity>
-9.51359

> <CNNscore>
0.2490758598

> <CNNaffinity>
7.0122690201

> <CNN_VS>
1.7465869188

> <CNNaffinity_variance>
1.1807941198

$$$$
[H]N=C(N([H])[H])N([H])C([H])([H])C([H])([H])C([H])([H])[C@@]([H])(C(=O)c1nc2c([H])c([H])c([H])c([H])c2s1)N([H])C(=O)[C@@]1([H])N(C(=O)[C@]([H])(N([H])C(=O)OC([H])([H])c2c([H])c([H])c([H])c([H])c2[H])C([H])([H])c2c([H])c([H])c([H])c([H])c2[H])C([H])([H])C([H])([H])C1([H])[H]


 54 58  0  0  0  0  0  0  0  0999 V2000
   57.4886   -5.1109   -8.9617 N   0  0  0  0  0  0  0  0  0  0  0  0
   56.6770   -4.4420   -8.1265 C   0  0  0  0  0  0  0  0  0  0  0  0
   57.0874   -3.8630   -7.0519 O   0  0  0  0  0  0  0  0  0  0  0  0
   58.5942   -4.6498   -8.2655 H   0  0  0  0  0  0  0  0  0  0  0  0
   55.2612   -4.3546   -8.4413 C   0  0  0  0  0  0  0  0  0  0  0  0
   54.8415   -2.8485   -8.4918 C   0  0  0  0  0  0  0  0  0  0  0  0
   53.3968   -3.0474   -8.8947 C   0  0  0  0  0  0  0  0  0  0  0  0
   53.0852   -4.5305   -8.6082 C   0  0  0  0  0  0  0  0  0  0  0  0
   54.1803   -4.7862   -7.6137 N   0  0  0  0  0  0  0  0  0  0  0  0
   54.0254   -5.3354   -6.3661 C   0  0  0  0  0  0  0  0  0  0  0  0
   55.1804   -5.6987   -5.8032 O   0  0  0  0  0  0  0  0  0  0  0  0
   52.9346   -5.6476   -5.4198 C   0  0  0  0  0  0  0  0  0  0  0  0
   53.1383   -6.5186   -4.4228 N   0  0  0  0  0  0  0  0  0  0  0  0
   53.3213   -6.6343   -2.9941 C   0  0  0  0  0  0  0  0  0  0  0  0
   53.3120   -5.5554   -2.3645 O   0  0  0  0  0  0  0  0  0  0  0  0
   53.2780   -7.5953   -4.8015 H   0  0  0  0  0  0  0  0  0  0  0  0
   53.4802   -7.8029   -2.3296 O   0  0  0  0  0  0  0  0  0  0  0  0
   53.5616   -8.0587   -0.9611 C   0  0  0  0  0  0  0  0  0  0  0  0
   52.1597   -8.4026   -0.5580 C   0  0  0  0  0  0  0  0  0  0  0  0
   51.6945   -7.9411    0.6317 C   0  0  0  0  0  0  0  0  0  0  0  0
   50.4208   -8.2799    1.1125 C   0  0  0  0  0  0  0  0  0  0  0  0
   49.6130   -9.1043    0.3543 C   0  0  0  0  0  0  0  0  0  0  0  0
   50.0759   -9.5732   -0.8552 C   0  0  0  0  0  0  0  0  0  0  0  0
   51.3566   -9.2190   -1.3131 C   0  0  0  0  0  0  0  0  0  0  0  0
   51.5659   -5.7775   -6.0983 C   0  0  0  0  0  0  0  0  0  0  0  0
   50.6049   -4.7104   -5.6683 C   0  0  0  0  0  0  0  0  0  0  0  0
   50.3479   -3.6439   -6.5087 C   0  0  0  0  0  0  0  0  0  0  0  0
   49.4700   -2.6294   -6.2128 C   0  0  0  0  0  0  0  0  0  0  0  0
   48.7913   -2.6536   -5.0048 C   0  0  0  0  0  0  0  0  0  0  0  0
   49.0563   -3.7363   -4.1594 C   0  0  0  0  0  0  0  0  0  0  0  0
   49.9379   -4.7448   -4.4672 C   0  0  0  0  0  0  0  0  0  0  0  0
   58.4233   -5.8030   -9.7921 C   0  0  0  0  0  0  0  0  0  0  0  0
   59.7670   -6.0813   -9.2489 C   0  0  0  0  0  0  0  0  0  0  0  0
   60.1398   -5.5304   -8.1664 O   0  0  0  0  0  0  0  0  0  0  0  0
   60.7380   -6.9928   -9.8926 C   0  0  0  0  0  0  0  0  0  0  0  0
   60.8206   -8.3076   -9.8944 N   0  0  0  0  0  0  0  0  0  0  0  0
   61.8088   -8.9109  -10.5052 C   0  0  0  0  0  0  0  0  0  0  0  0
   61.9974  -10.3071  -10.5520 C   0  0  0  0  0  0  0  0  0  0  0  0
   63.0799  -10.8154  -11.1993 C   0  0  0  0  0  0  0  0  0  0  0  0
   64.0311  -10.0510  -11.8316 C   0  0  0  0  0  0  0  0  0  0  0  0
   63.8550   -8.6941  -11.7963 C   0  0  0  0  0  0  0  0  0  0  0  0
   62.7439   -8.1323  -11.1352 C   0  0  0  0  0  0  0  0  0  0  0  0
   62.1391   -6.5617  -10.8076 S   0  0  0  0  0  0  0  0  0  0  0  0
   58.5903   -5.0966  -11.1230 C   0  0  0  0  0  0  0  0  0  0  0  0
   57.3118   -4.5117  -11.6237 C   0  0  0  0  0  0  0  0  0  0  0  0
   57.5340   -3.7490  -12.8916 C   0  0  0  0  0  0  0  0  0  0  0  0
   56.3983   -3.6192  -13.7456 N   0  0  0  0  0  0  0  0  0  0  0  0
   55.5954   -2.9470  -13.6031 H   0  0  0  0  0  0  0  0  0  0  0  0
   56.3970   -3.9245  -16.2021 N   0  0  0  0  0  0  0  0  0  0  0  0
   56.3228   -4.4580  -14.8925 C   0  0  0  0  0  0  0  0  0  0  0  0
   56.1669   -5.7421  -14.7790 N   0  0  0  0  0  0  0  0  0  0  0  0
   55.5297   -3.6819  -16.7522 H   0  0  0  0  0  0  0  0  0  0  0  0
   57.3232   -3.7405  -16.6648 H   0  0  0  0  0  0  0  0  0  0  0  0
   56.1032   -6.3621  -15.5963 H   0  0  0  0  0  0  0  0  0  0  0  0
 49 50  1  0  0  0
 50 51  2  0  0  0
 50 47  1  0  0  0
 47 46  1  0  0  0
 46 45  1  0  0  0
 45 44  1  0  0  0
 44 32  1  0  0  0
 32  1  1  0  0  0
  1  2  1  0  0  0
  2  3  2  0  0  0
  2  5  1  0  0  0
  5  6  1  0  0  0
  6  7  1  0  0  0
  7  8  1  0  0  0
  8  9  1  0  0  0
  9 10  1  0  0  0
 10 11  2  0  0  0
 10 12  1  0  0  0
 12 25  1  0  0  0
 25 26  1  0  0  0
 26 27  2  0  0  0
 27 28  1  0  0  0
 28 29  2  0  0  0
 29 30  1  0  0  0
 30 31  2  0  0  0
 12 13  1  0  0  0
 13 14  1  0  0  0
 14 15  2  0  0  0
 14 17  1  0  0  0
 17 18  1  0  0  0
 18 19  1  0  0  0
 19 20  2  0  0  0
 20 21  1  0  0  0
 21 22  2  0  0  0
 22 23  1  0  0  0
 23 24  2  0  0  0
 32 33  1  0  0  0
 33 34  2  0  0  0
 33 35  1  0  0  0
 35 36  2  0  0  0
 36 37  1  0  0  0
 37 38  2  0  0  0
 38 39  1  0  0  0
 39 40  2  0  0  0
 40 41  1  0  0  0
 41 42  2  0  0  0
 42 43  1  0  0  0
  9  5  1  0  0  0
 31 26  1  0  0  0
 24 19  1  0  0  0
 43 35  1  0  0  0
 42 37  1  0  0  0
 49 52  1  0  0  0
 49 53  1  0  0  0
 51 54  1  0  0  0
 47 48  1  0  0  0
  1  4  1  0  0  0
 13 16  1  0  0  0
M  END
> <minimizedAffinity>
-9.75764

> <CNNscore>
0.2453546077

> <CNNaffinity>
6.7067365646

> <CNN_VS>
1.6455286741

> <CNNaffinity_variance>
1.1458919048

$$$$
[H]N=C(N([H])[H])N([H])C([H])([H])C([H])([H])C([H])([H])[C@@]([H])(C(=O)c1nc2c([H])c([H])c([H])c([H])c2s1)N([H])C(=O)[C@@]1([H])N(C(=O)[C@]([H])(N([H])C(=O)OC([H])([H])c2c([H])c([H])c([H])c([H])c2[H])C([H])([H])c2c([H])c([H])c([H])c([H])c2[H])C([H])([H])C([H])([H])C1([H])[H]


 54 58  0  0  0  0  0  0  0  0999 V2000
   57.5081   -5.0903   -8.9564 N   0  0  0  0  0  0  0  0  0  0  0  0
   56.6709   -4.4416   -8.1306 C   0  0  0  0  0  0  0  0  0  0  0  0
   57.0592   -3.8249   -7.0688 O   0  0  0  0  0  0  0  0  0  0  0  0
   58.5949   -4.5683   -8.2736 H   0  0  0  0  0  0  0  0  0  0  0  0
   55.2516   -4.4219   -8.4411 C   0  0  0  0  0  0  0  0  0  0  0  0
   54.7812   -2.9370   -8.5860 C   0  0  0  0  0  0  0  0  0  0  0  0
   53.3423   -3.2096   -8.9657 C   0  0  0  0  0  0  0  0  0  0  0  0
   53.0820   -4.6806   -8.5820 C   0  0  0  0  0  0  0  0  0  0  0  0
   54.1895   -4.8348   -7.5803 N   0  0  0  0  0  0  0  0  0  0  0  0
   54.0586   -5.3069   -6.2988 C   0  0  0  0  0  0  0  0  0  0  0  0
   55.2277   -5.5943   -5.7213 O   0  0  0  0  0  0  0  0  0  0  0  0
   52.9830   -5.5933   -5.3272 C   0  0  0  0  0  0  0  0  0  0  0  0
   53.2248   -6.3773   -4.2685 N   0  0  0  0  0  0  0  0  0  0  0  0
   52.9531   -6.5521   -2.8601 C   0  0  0  0  0  0  0  0  0  0  0  0
   52.2319   -5.6739   -2.3415 O   0  0  0  0  0  0  0  0  0  0  0  0
   53.9684   -7.2214   -4.5074 H   0  0  0  0  0  0  0  0  0  0  0  0
   53.4079   -7.5828   -2.1095 O   0  0  0  0  0  0  0  0  0  0  0  0
   54.1684   -7.5808   -0.9405 C   0  0  0  0  0  0  0  0  0  0  0  0
   55.4119   -6.8262   -1.3012 C   0  0  0  0  0  0  0  0  0  0  0  0
   56.2974   -7.4036   -2.1540 C   0  0  0  0  0  0  0  0  0  0  0  0
   57.5173   -6.7935   -2.4827 C   0  0  0  0  0  0  0  0  0  0  0  0
   57.8279   -5.5682   -1.9265 C   0  0  0  0  0  0  0  0  0  0  0  0
   56.9333   -4.9742   -1.0640 C   0  0  0  0  0  0  0  0  0  0  0  0
   55.7184   -5.6076   -0.7510 C   0  0  0  0  0  0  0  0  0  0  0  0
   51.6206   -5.8320   -5.9884 C   0  0  0  0  0  0  0  0  0  0  0  0
   50.6467   -4.7245   -5.7198 C   0  0  0  0  0  0  0  0  0  0  0  0
   49.9382   -4.7109   -4.5334 C   0  0  0  0  0  0  0  0  0  0  0  0
   49.0403   -3.7301   -4.1883 C   0  0  0  0  0  0  0  0  0  0  0  0
   48.8127   -2.6825   -5.0666 C   0  0  0  0  0  0  0  0  0  0  0  0
   49.5336   -2.7027   -6.2653 C   0  0  0  0  0  0  0  0  0  0  0  0
   50.4289   -3.6909   -6.5989 C   0  0  0  0  0  0  0  0  0  0  0  0
   58.4693   -5.7566   -9.7775 C   0  0  0  0  0  0  0  0  0  0  0  0
   59.7983   -6.0438   -9.2036 C   0  0  0  0  0  0  0  0  0  0  0  0
   60.1234   -5.5497   -8.0791 O   0  0  0  0  0  0  0  0  0  0  0  0
   60.8074   -6.9011   -9.8629 C   0  0  0  0  0  0  0  0  0  0  0  0
   61.6534   -6.6466  -10.8400 N   0  0  0  0  0  0  0  0  0  0  0  0
   62.4369   -7.5875  -11.3031 C   0  0  0  0  0  0  0  0  0  0  0  0
   63.3622   -7.4236  -12.3538 C   0  0  0  0  0  0  0  0  0  0  0  0
   64.1052   -8.4861  -12.7639 C   0  0  0  0  0  0  0  0  0  0  0  0
   64.0229   -9.7437  -12.2158 C   0  0  0  0  0  0  0  0  0  0  0  0
   63.1308   -9.9128  -11.1916 C   0  0  0  0  0  0  0  0  0  0  0  0
   62.3448   -8.8333  -10.7400 C   0  0  0  0  0  0  0  0  0  0  0  0
   61.1232   -8.5738   -9.5651 S   0  0  0  0  0  0  0  0  0  0  0  0
   58.6708   -5.0150  -11.0843 C   0  0  0  0  0  0  0  0  0  0  0  0
   57.4359   -4.3099  -11.5373 C   0  0  0  0  0  0  0  0  0  0  0  0
   57.5682   -3.8612  -12.9585 C   0  0  0  0  0  0  0  0  0  0  0  0
   56.3439   -3.6653  -13.6646 N   0  0  0  0  0  0  0  0  0  0  0  0
   55.5289   -3.0806  -13.3319 H   0  0  0  0  0  0  0  0  0  0  0  0
   55.9938   -3.5547  -16.1126 N   0  0  0  0  0  0  0  0  0  0  0  0
   56.1886   -4.3037  -14.9268 C   0  0  0  0  0  0  0  0  0  0  0  0
   56.2040   -5.5976  -15.0338 N   0  0  0  0  0  0  0  0  0  0  0  0
   55.0287   -3.3507  -16.4876 H   0  0  0  0  0  0  0  0  0  0  0  0
   56.8080   -3.1655  -16.6524 H   0  0  0  0  0  0  0  0  0  0  0  0
   56.0862   -6.0757  -15.9361 H   0  0  0  0  0  0  0  0  0  0  0  0
 49 50  1  0  0  0
 50 51  2  0  0  0
 50 47  1  0  0  0
 47 46  1  0  0  0
 46 45  1  0  0  0
 45 44  1  0  0  0
 44 32  1  0  0  0
 32  1  1  0  0  0
  1  2  1  0  0  0
  2  3  2  0  0  0
  2  5  1  0  0  0
  5  6  1  0  0  0
  6  7  1  0  0  0
  7  8  1  0  0  0
  8  9  1  0  0  0
  9 10  1  0  0  0
 10 11  2  0  0  0
 10 12  1  0  0  0
 12 25  1  0  0  0
 25 26  1  0  0  0
 26 27  2  0  0  0
 27 28  1  0  0  0
 28 29  2  0  0  0
 29 30  1  0  0  0
 30 31  2  0  0  0
 12 13  1  0  0  0
 13 14  1  0  0  0
 14 15  2  0  0  0
 14 17  1  0  0  0
 17 18  1  0  0  0
 18 19  1  0  0  0
 19 20  2  0  0  0
 20 21  1  0  0  0
 21 22  2  0  0  0
 22 23  1  0  0  0
 23 24  2  0  0  0
 32 33  1  0  0  0
 33 34  2  0  0  0
 33 35  1  0  0  0
 35 36  2  0  0  0
 36 37  1  0  0  0
 37 38  2  0  0  0
 38 39  1  0  0  0
 39 40  2  0  0  0
 40 41  1  0  0  0
 41 42  2  0  0  0
 42 43  1  0  0  0
  9  5  1  0  0  0
 31 26  1  0  0  0
 24 19  1  0  0  0
 43 35  1  0  0  0
 42 37  1  0  0  0
 49 52  1  0  0  0
 49 53  1  0  0  0
 51 54  1  0  0  0
 47 48  1  0  0  0
  1  4  1  0  0  0
 13 16  1  0  0  0
M  END
> <minimizedAffinity>
-9.55695

> <CNNscore>
0.2069084197

> <CNNaffinity>
6.9986352921

> <CNN_VS>
1.4480766058

> <CNNaffinity_variance>
0.8278949857

$$$$
[H]c1nc2c(c([H])c1[H])c(C1=C(c3nc(N4C([H])([H])C([H])([H])N(C([H])([H])[H])C([H])([H])C4([H])[H])nc4c([H])c([H])c(F)c([H])c34)C(=O)N([H])C1=O)c([H])n2[H]


 36 41  0  0  0  0  0  0  0  0999 V2000
   55.9856   -5.2125   -5.8399 C   0  0  0  0  0  0  0  0  0  0  0  0
   54.8383   -4.6364   -6.2177 N   0  0  0  0  0  0  0  0  0  0  0  0
   54.6091   -4.2728   -7.5124 C   0  0  0  0  0  0  0  0  0  0  0  0
   55.5813   -4.5040   -8.4385 C   0  0  0  0  0  0  0  0  0  0  0  0
   55.4887   -4.1612   -9.7651 C   0  0  0  0  0  0  0  0  0  0  0  0
   56.5190   -4.3972  -10.6817 C   0  0  0  0  0  0  0  0  0  0  0  0
   56.4090   -4.0529  -11.9876 F   0  0  0  0  0  0  0  0  0  0  0  0
   57.6754   -4.9923  -10.2570 C   0  0  0  0  0  0  0  0  0  0  0  0
   57.8126   -5.3485   -8.9434 C   0  0  0  0  0  0  0  0  0  0  0  0
   56.7890   -5.1069   -8.0620 C   0  0  0  0  0  0  0  0  0  0  0  0
   56.9251   -5.4321   -6.7658 N   0  0  0  0  0  0  0  0  0  0  0  0
   53.3637   -3.6353   -7.8928 C   0  0  0  0  0  0  0  0  0  0  0  0
   52.1354   -3.9017   -7.4549 C   0  0  0  0  0  0  0  0  0  0  0  0
   51.2209   -3.0007   -8.1333 C   0  0  0  0  0  0  0  0  0  0  0  0
   49.9605   -2.9486   -7.9774 O   0  0  0  0  0  0  0  0  0  0  0  0
   51.9594   -2.1700   -9.0110 N   0  0  0  0  0  0  0  0  0  0  0  0
   53.3163   -2.5546   -8.8743 C   0  0  0  0  0  0  0  0  0  0  0  0
   54.2564   -2.0135   -9.5184 O   0  0  0  0  0  0  0  0  0  0  0  0
   51.5593   -1.4113   -9.6418 H   0  0  0  0  0  0  0  0  0  0  0  0
   51.7700   -4.8768   -6.4090 C   0  0  0  0  0  0  0  0  0  0  0  0
   52.2651   -6.1790   -6.3130 C   0  0  0  0  0  0  0  0  0  0  0  0
   51.7015   -6.7798   -5.2510 N   0  0  0  0  0  0  0  0  0  0  0  0
   50.8480   -5.9319   -4.6323 C   0  0  0  0  0  0  0  0  0  0  0  0
   50.0555   -6.0596   -3.5558 N   0  0  0  0  0  0  0  0  0  0  0  0
   49.2608   -5.0792   -3.1027 C   0  0  0  0  0  0  0  0  0  0  0  0
   49.2787   -3.8924   -3.7971 C   0  0  0  0  0  0  0  0  0  0  0  0
   50.0829   -3.7282   -4.9087 C   0  0  0  0  0  0  0  0  0  0  0  0
   50.8951   -4.7430   -5.3623 C   0  0  0  0  0  0  0  0  0  0  0  0
   51.8616   -7.7693   -4.8994 H   0  0  0  0  0  0  0  0  0  0  0  0
   55.7371   -7.3629   -0.8835 C   0  0  0  0  0  0  0  0  0  0  0  0
   55.4510   -6.9157   -2.1988 N   0  0  0  0  0  0  0  0  0  0  0  0
   55.9750   -7.6563   -3.2695 C   0  0  0  0  0  0  0  0  0  0  0  0
   56.8262   -6.9078   -4.2510 C   0  0  0  0  0  0  0  0  0  0  0  0
   56.2432   -5.5959   -4.5019 N   0  0  0  0  0  0  0  0  0  0  0  0
   55.9708   -4.7824   -3.3473 C   0  0  0  0  0  0  0  0  0  0  0  0
   55.1594   -5.5512   -2.3656 C   0  0  0  0  0  0  0  0  0  0  0  0
 30 31  1  0  0  0
 31 32  1  0  0  0
 32 33  1  0  0  0
 33 34  1  0  0  0
 34 35  1  0  0  0
 35 36  1  0  0  0
 34  1  1  0  0  0
  1  2  2  0  0  0
  2  3  1  0  0  0
  3 12  1  0  0  0
 12 13  2  0  0  0
 13 14  1  0  0  0
 14 15  2  0  0  0
 14 16  1  0  0  0
 16 17  1  0  0  0
 17 18  2  0  0  0
 13 20  1  0  0  0
 20 21  2  0  0  0
 21 22  1  0  0  0
 22 23  1  0  0  0
 23 24  2  0  0  0
 24 25  1  0  0  0
 25 26  2  0  0  0
 26 27  1  0  0  0
 27 28  2  0  0  0
  3  4  2  0  0  0
  4  5  1  0  0  0
  5  6  2  0  0  0
  6  7  1  0  0  0
  6  8  1  0  0  0
  8  9  2  0  0  0
  9 10  1  0  0  0
 10 11  2  0  0  0
 36 31  1  0  0  0
 11  1  1  0  0  0
 17 12  1  0  0  0
 28 20  1  0  0  0
 10  4  1  0  0  0
 28 23  1  0  0  0
 16 19  1  0  0  0
 22 29  1  0  0  0
M  END
> <minimizedAffinity>
-10.34475

> <CNNscore>
0.5567837954

> <CNNaffinity>
7.4626770020

> <CNN_VS>
4.1550974846

> <CNNaffinity_variance>
0.0692842156

$$$$
[H]c1nc2c(c([H])c1[H])c(C1=C(c3nc(N4C([H])([H])C([H])([H])N(C([H])([H])[H])C([H])([H])C4([H])[H])nc4c([H])c([H])c(F)c([H])c34)C(=O)N([H])C1=O)c([H])n2[H]


 36 41  0  0  0  0  0  0  0  0999 V2000
   55.1013   -6.1812   -5.0564 C   0  0  0  0  0  0  0  0  0  0  0  0
   53.9538   -6.6874   -5.5232 N   0  0  0  0  0  0  0  0  0  0  0  0
   53.3506   -6.1892   -6.6407 C   0  0  0  0  0  0  0  0  0  0  0  0
   53.9382   -5.1461   -7.2911 C   0  0  0  0  0  0  0  0  0  0  0  0
   53.4213   -4.5353   -8.4073 C   0  0  0  0  0  0  0  0  0  0  0  0
   54.0454   -3.4518   -9.0349 C   0  0  0  0  0  0  0  0  0  0  0  0
   53.5207   -2.8625  -10.1364 F   0  0  0  0  0  0  0  0  0  0  0  0
   55.2200   -2.9655   -8.5292 C   0  0  0  0  0  0  0  0  0  0  0  0
   55.7703   -3.5415   -7.4171 C   0  0  0  0  0  0  0  0  0  0  0  0
   55.1402   -4.6031   -6.8178 C   0  0  0  0  0  0  0  0  0  0  0  0
   55.6617   -5.1591   -5.7118 N   0  0  0  0  0  0  0  0  0  0  0  0
   52.0990   -6.7452   -7.1166 C   0  0  0  0  0  0  0  0  0  0  0  0
   50.8779   -6.5702   -6.6170 C   0  0  0  0  0  0  0  0  0  0  0  0
   49.9534   -7.3340   -7.4357 C   0  0  0  0  0  0  0  0  0  0  0  0
   48.6952   -7.4154   -7.2751 O   0  0  0  0  0  0  0  0  0  0  0  0
   50.6786   -7.9863   -8.4626 N   0  0  0  0  0  0  0  0  0  0  0  0
   52.0370   -7.6273   -8.2793 C   0  0  0  0  0  0  0  0  0  0  0  0
   52.9671   -8.0363   -9.0269 O   0  0  0  0  0  0  0  0  0  0  0  0
   50.2692   -8.6178   -9.2157 H   0  0  0  0  0  0  0  0  0  0  0  0
   50.5102   -5.6946   -5.4873 C   0  0  0  0  0  0  0  0  0  0  0  0
   50.7186   -5.9894   -4.1383 C   0  0  0  0  0  0  0  0  0  0  0  0
   50.2457   -4.9745   -3.3947 N   0  0  0  0  0  0  0  0  0  0  0  0
   49.7282   -4.0120   -4.1922 C   0  0  0  0  0  0  0  0  0  0  0  0
   49.1419   -2.8317   -3.9347 N   0  0  0  0  0  0  0  0  0  0  0  0
   48.6787   -2.0125   -4.8900 C   0  0  0  0  0  0  0  0  0  0  0  0
   48.8251   -2.4294   -6.1922 C   0  0  0  0  0  0  0  0  0  0  0  0
   49.4240   -3.6382   -6.4913 C   0  0  0  0  0  0  0  0  0  0  0  0
   49.8965   -4.4690   -5.5004 C   0  0  0  0  0  0  0  0  0  0  0  0
   50.2490   -4.8836   -2.3364 H   0  0  0  0  0  0  0  0  0  0  0  0
   57.8768   -6.7296   -0.4469 C   0  0  0  0  0  0  0  0  0  0  0  0
   57.2944   -6.2451   -1.6461 N   0  0  0  0  0  0  0  0  0  0  0  0
   55.9337   -5.9027   -1.6200 C   0  0  0  0  0  0  0  0  0  0  0  0
   55.0497   -6.5865   -2.6196 C   0  0  0  0  0  0  0  0  0  0  0  0
   55.7421   -6.6829   -3.8984 N   0  0  0  0  0  0  0  0  0  0  0  0
   57.0458   -7.2906   -3.8789 C   0  0  0  0  0  0  0  0  0  0  0  0
   57.8985   -6.6282   -2.8556 C   0  0  0  0  0  0  0  0  0  0  0  0
 30 31  1  0  0  0
 31 32  1  0  0  0
 32 33  1  0  0  0
 33 34  1  0  0  0
 34 35  1  0  0  0
 35 36  1  0  0  0
 34  1  1  0  0  0
  1  2  2  0  0  0
  2  3  1  0  0  0
  3 12  1  0  0  0
 12 13  2  0  0  0
 13 14  1  0  0  0
 14 15  2  0  0  0
 14 16  1  0  0  0
 16 17  1  0  0  0
 17 18  2  0  0  0
 13 20  1  0  0  0
 20 21  2  0  0  0
 21 22  1  0  0  0
 22 23  1  0  0  0
 23 24  2  0  0  0
 24 25  1  0  0  0
 25 26  2  0  0  0
 26 27  1  0  0  0
 27 28  2  0  0  0
  3  4  2  0  0  0
  4  5  1  0  0  0
  5  6  2  0  0  0
  6  7  1  0  0  0
  6  8  1  0  0  0
  8  9  2  0  0  0
  9 10  1  0  0  0
 10 11  2  0  0  0
 36 31  1  0  0  0
 11  1  1  0  0  0
 17 12  1  0  0  0
 28 20  1  0  0  0
 10  4  1  0  0  0
 28 23  1  0  0  0
 16 19  1  0  0  0
 22 29  1  0  0  0
M  END
> <minimizedAffinity>
-4.69714

> <CNNscore>
0.5060593486

> <CNNaffinity>
7.0936026573

> <CNN_VS>
3.5897839069

> <CNNaffinity_variance>
0.2541579604

$$$$
[H]c1nc2c(c([H])c1[H])c(C1=C(c3nc(N4C([H])([H])C([H])([H])N(C([H])([H])[H])C([H])([H])C4([H])[H])nc4c([H])c([H])c(F)c([H])c34)C(=O)N([H])C1=O)c([H])n2[H]


 36 41  0  0  0  0  0  0  0  0999 V2000
   59.9735   -8.3237   -3.6541 C   0  0  0  0  0  0  0  0  0  0  0  0
   60.7395   -9.2000   -2.9936 N   0  0  0  0  0  0  0  0  0  0  0  0
   62.0494   -9.3979   -3.3191 C   0  0  0  0  0  0  0  0  0  0  0  0
   62.5830   -8.6813   -4.3478 C   0  0  0  0  0  0  0  0  0  0  0  0
   63.8759   -8.8057   -4.7936 C   0  0  0  0  0  0  0  0  0  0  0  0
   64.3809   -8.0655   -5.8680 C   0  0  0  0  0  0  0  0  0  0  0  0
   65.6602   -8.2010   -6.2932 F   0  0  0  0  0  0  0  0  0  0  0  0
   63.5669   -7.1764   -6.5153 C   0  0  0  0  0  0  0  0  0  0  0  0
   62.2705   -7.0215   -6.1069 C   0  0  0  0  0  0  0  0  0  0  0  0
   61.7968   -7.7585   -5.0508 C   0  0  0  0  0  0  0  0  0  0  0  0
   60.5185   -7.6295   -4.6588 N   0  0  0  0  0  0  0  0  0  0  0  0
   62.8534  -10.3653   -2.5981 C   0  0  0  0  0  0  0  0  0  0  0  0
   63.1973  -11.5943   -2.9756 C   0  0  0  0  0  0  0  0  0  0  0  0
   64.0025  -12.1719   -1.9144 C   0  0  0  0  0  0  0  0  0  0  0  0
   64.5195  -13.3331   -1.9078 O   0  0  0  0  0  0  0  0  0  0  0  0
   64.1301  -11.2271   -0.8670 N   0  0  0  0  0  0  0  0  0  0  0  0
   63.4111  -10.0777   -1.2791 C   0  0  0  0  0  0  0  0  0  0  0  0
   63.3161   -9.0335   -0.5777 O   0  0  0  0  0  0  0  0  0  0  0  0
   64.6642  -11.3678    0.0433 H   0  0  0  0  0  0  0  0  0  0  0  0
   62.8902  -12.2316   -4.2709 C   0  0  0  0  0  0  0  0  0  0  0  0
   61.6757  -12.8348   -4.6044 C   0  0  0  0  0  0  0  0  0  0  0  0
   61.7622  -13.3213   -5.8543 N   0  0  0  0  0  0  0  0  0  0  0  0
   62.9867  -13.0687   -6.3709 C   0  0  0  0  0  0  0  0  0  0  0  0
   63.5538  -13.3529   -7.5545 N   0  0  0  0  0  0  0  0  0  0  0  0
   64.8121  -13.0145   -7.8712 C   0  0  0  0  0  0  0  0  0  0  0  0
   65.5357  -12.3426   -6.9142 C   0  0  0  0  0  0  0  0  0  0  0  0
   64.9818  -12.0346   -5.6863 C   0  0  0  0  0  0  0  0  0  0  0  0
   63.6878  -12.3869   -5.3748 C   0  0  0  0  0  0  0  0  0  0  0  0
   61.0158  -13.8361   -6.4076 H   0  0  0  0  0  0  0  0  0  0  0  0
   55.3164   -6.4096   -1.6796 C   0  0  0  0  0  0  0  0  0  0  0  0
   56.6829   -6.6791   -1.9480 N   0  0  0  0  0  0  0  0  0  0  0  0
   57.2414   -6.1282   -3.1117 C   0  0  0  0  0  0  0  0  0  0  0  0
   57.8746   -7.0892   -4.0728 C   0  0  0  0  0  0  0  0  0  0  0  0
   58.6126   -8.1049   -3.3327 N   0  0  0  0  0  0  0  0  0  0  0  0
   57.8841   -8.8150   -2.3157 C   0  0  0  0  0  0  0  0  0  0  0  0
   57.2293   -7.8488   -1.3933 C   0  0  0  0  0  0  0  0  0  0  0  0
 30 31  1  0  0  0
 31 32  1  0  0  0
 32 33  1  0  0  0
 33 34  1  0  0  0
 34 35  1  0  0  0
 35 36  1  0  0  0
 34  1  1  0  0  0
  1  2  2  0  0  0
  2  3  1  0  0  0
  3 12  1  0  0  0
 12 13  2  0  0  0
 13 14  1  0  0  0
 14 15  2  0  0  0
 14 16  1  0  0  0
 16 17  1  0  0  0
 17 18  2  0  0  0
 13 20  1  0  0  0
 20 21  2  0  0  0
 21 22  1  0  0  0
 22 23  1  0  0  0
 23 24  2  0  0  0
 24 25  1  0  0  0
 25 26  2  0  0  0
 26 27  1  0  0  0
 27 28  2  0  0  0
  3  4  2  0  0  0
  4  5  1  0  0  0
  5  6  2  0  0  0
  6  7  1  0  0  0
  6  8  1  0  0  0
  8  9  2  0  0  0
  9 10  1  0  0  0
 10 11  2  0  0  0
 36 31  1  0  0  0
 11  1  1  0  0  0
 17 12  1  0  0  0
 28 20  1  0  0  0
 10  4  1  0  0  0
 28 23  1  0  0  0
 16 19  1  0  0  0
 22 29  1  0  0  0
M  END
> <minimizedAffinity>
-3.07423

> <CNNscore>
0.4261257052

> <CNNaffinity>
5.8110370636

> <CNN_VS>
2.4762322903

> <CNNaffinity_variance>
0.8159641027

$$$$
[H]c1nc2c(c([H])c1[H])c(C1=C(c3nc(N4C([H])([H])C([H])([H])N(C([H])([H])[H])C([H])([H])C4([H])[H])nc4c([H])c([H])c(F)c([H])c34)C(=O)N([H])C1=O)c([H])n2[H]


 36 41  0  0  0  0  0  0  0  0999 V2000
   55.7817   -4.7349   -9.3167 C   0  0  0  0  0  0  0  0  0  0  0  0
   54.5940   -4.1346   -9.1755 N   0  0  0  0  0  0  0  0  0  0  0  0
   53.9536   -4.0828   -7.9721 C   0  0  0  0  0  0  0  0  0  0  0  0
   54.5456   -4.6630   -6.8908 C   0  0  0  0  0  0  0  0  0  0  0  0
   53.9956   -4.7061   -5.6332 C   0  0  0  0  0  0  0  0  0  0  0  0
   54.6266   -5.3306   -4.5518 C   0  0  0  0  0  0  0  0  0  0  0  0
   54.0688   -5.3621   -3.3174 F   0  0  0  0  0  0  0  0  0  0  0  0
   55.8427   -5.9300   -4.7360 C   0  0  0  0  0  0  0  0  0  0  0  0
   56.4271   -5.9138   -5.9727 C   0  0  0  0  0  0  0  0  0  0  0  0
   55.7894   -5.2957   -7.0189 C   0  0  0  0  0  0  0  0  0  0  0  0
   56.3455   -5.2958   -8.2417 N   0  0  0  0  0  0  0  0  0  0  0  0
   52.6597   -3.4403   -7.8492 C   0  0  0  0  0  0  0  0  0  0  0  0
   51.5758   -3.8865   -7.2189 C   0  0  0  0  0  0  0  0  0  0  0  0
   50.5313   -2.8909   -7.3803 C   0  0  0  0  0  0  0  0  0  0  0  0
   49.3496   -2.9567   -6.9166 O   0  0  0  0  0  0  0  0  0  0  0  0
   51.0378   -1.8121   -8.1455 N   0  0  0  0  0  0  0  0  0  0  0  0
   52.3820   -2.1392   -8.4522 C   0  0  0  0  0  0  0  0  0  0  0  0
   53.1385   -1.3901   -9.1288 O   0  0  0  0  0  0  0  0  0  0  0  0
   50.5019   -0.9359   -8.4261 H   0  0  0  0  0  0  0  0  0  0  0  0
   51.4708   -5.1276   -6.4272 C   0  0  0  0  0  0  0  0  0  0  0  0
   51.6295   -6.4204   -6.9307 C   0  0  0  0  0  0  0  0  0  0  0  0
   51.4490   -7.3002   -5.9307 N   0  0  0  0  0  0  0  0  0  0  0  0
   51.1750   -6.6480   -4.7777 C   0  0  0  0  0  0  0  0  0  0  0  0
   50.9153   -7.0709   -3.5299 N   0  0  0  0  0  0  0  0  0  0  0  0
   50.6534   -6.2427   -2.5083 C   0  0  0  0  0  0  0  0  0  0  0  0
   50.6573   -4.8952   -2.7828 C   0  0  0  0  0  0  0  0  0  0  0  0
   50.9209   -4.4271   -4.0558 C   0  0  0  0  0  0  0  0  0  0  0  0
   51.1896   -5.2888   -5.0953 C   0  0  0  0  0  0  0  0  0  0  0  0
   51.5009   -8.3602   -5.9764 H   0  0  0  0  0  0  0  0  0  0  0  0
   58.9806   -3.7924  -13.5747 C   0  0  0  0  0  0  0  0  0  0  0  0
   58.2428   -3.6949  -12.3671 N   0  0  0  0  0  0  0  0  0  0  0  0
   58.7381   -4.3721  -11.2421 C   0  0  0  0  0  0  0  0  0  0  0  0
   57.8110   -5.3502  -10.5849 C   0  0  0  0  0  0  0  0  0  0  0  0
   56.4615   -4.8005  -10.5564 N   0  0  0  0  0  0  0  0  0  0  0  0
   55.9206   -4.3598  -11.8144 C   0  0  0  0  0  0  0  0  0  0  0  0
   56.8686   -3.4212  -12.4728 C   0  0  0  0  0  0  0  0  0  0  0  0
 30 31  1  0  0  0
 31 32  1  0  0  0
 32 33  1  0  0  0
 33 34  1  0  0  0
 34 35  1  0  0  0
 35 36  1  0  0  0
 34  1  1  0  0  0
  1  2  2  0  0  0
  2  3  1  0  0  0
  3 12  1  0  0  0
 12 13  2  0  0  0
 13 14  1  0  0  0
 14 15  2  0  0  0
 14 16  1  0  0  0
 16 17  1  0  0  0
 17 18  2  0  0  0
 13 20  1  0  0  0
 20 21  2  0  0  0
 21 22  1  0  0  0
 22 23  1  0  0  0
 23 24  2  0  0  0
 24 25  1  0  0  0
 25 26  2  0  0  0
 26 27  1  0  0  0
 27 28  2  0  0  0
  3  4  2  0  0  0
  4  5  1  0  0  0
  5  6  2  0  0  0
  6  7  1  0  0  0
  6  8  1  0  0  0
  8  9  2  0  0  0
  9 10  1  0  0  0
 10 11  2  0  0  0
 36 31  1  0  0  0
 11  1  1  0  0  0
 17 12  1  0  0  0
 28 20  1  0  0  0
 10  4  1  0  0  0
 28 23  1  0  0  0
 16 19  1  0  0  0
 22 29  1  0  0  0
M  END
> <minimizedAffinity>
-6.69329

> <CNNscore>
0.4065181017

> <CNNaffinity>
7.2455534935

> <CNN_VS>
2.9454486370

> <CNNaffinity_variance>
0.1188144237

$$$$
[H]c1nc2c(c([H])c1[H])c(C1=C(c3nc(N4C([H])([H])C([H])([H])N(C([H])([H])[H])C([H])([H])C4([H])[H])nc4c([H])c([H])c(F)c([H])c34)C(=O)N([H])C1=O)c([H])n2[H]


 36 41  0  0  0  0  0  0  0  0999 V2000
   55.2669   -6.5280   -5.6130 C   0  0  0  0  0  0  0  0  0  0  0  0
   54.0345   -6.9285   -5.9470 N   0  0  0  0  0  0  0  0  0  0  0  0
   53.2800   -6.2486   -6.8577 C   0  0  0  0  0  0  0  0  0  0  0  0
   53.8026   -5.1311   -7.4359 C   0  0  0  0  0  0  0  0  0  0  0  0
   53.1390   -4.3422   -8.3432 C   0  0  0  0  0  0  0  0  0  0  0  0
   53.7033   -3.1891   -8.8994 C   0  0  0  0  0  0  0  0  0  0  0  0
   53.0333   -2.4236   -9.7944 F   0  0  0  0  0  0  0  0  0  0  0  0
   54.9679   -2.8150   -8.5352 C   0  0  0  0  0  0  0  0  0  0  0  0
   55.6655   -3.5696   -7.6323 C   0  0  0  0  0  0  0  0  0  0  0  0
   55.0917   -4.6965   -7.0994 C   0  0  0  0  0  0  0  0  0  0  0  0
   55.7609   -5.4297   -6.1945 N   0  0  0  0  0  0  0  0  0  0  0  0
   51.9410   -6.6945   -7.1901 C   0  0  0  0  0  0  0  0  0  0  0  0
   50.8076   -6.4556   -6.5347 C   0  0  0  0  0  0  0  0  0  0  0  0
   49.7344   -7.1169   -7.2552 C   0  0  0  0  0  0  0  0  0  0  0  0
   48.5030   -7.1165   -6.9398 O   0  0  0  0  0  0  0  0  0  0  0  0
   50.2761   -7.7740   -8.3868 N   0  0  0  0  0  0  0  0  0  0  0  0
   51.6699   -7.5195   -8.3646 C   0  0  0  0  0  0  0  0  0  0  0  0
   52.4671   -7.9606   -9.2371 O   0  0  0  0  0  0  0  0  0  0  0  0
   49.7306   -8.3425   -9.1030 H   0  0  0  0  0  0  0  0  0  0  0  0
   50.6491   -5.6054   -5.3388 C   0  0  0  0  0  0  0  0  0  0  0  0
   49.8903   -4.4346   -5.2772 C   0  0  0  0  0  0  0  0  0  0  0  0
   49.9895   -3.9183   -4.0403 N   0  0  0  0  0  0  0  0  0  0  0  0
   50.7853   -4.6964   -3.2712 C   0  0  0  0  0  0  0  0  0  0  0  0
   51.1919   -4.6047   -1.9946 N   0  0  0  0  0  0  0  0  0  0  0  0
   52.0073   -5.4963   -1.4129 C   0  0  0  0  0  0  0  0  0  0  0  0
   52.4338   -6.5485   -2.1887 C   0  0  0  0  0  0  0  0  0  0  0  0
   52.0339   -6.6723   -3.5055 C   0  0  0  0  0  0  0  0  0  0  0  0
   51.1951   -5.7501   -4.0899 C   0  0  0  0  0  0  0  0  0  0  0  0
   49.5353   -3.0354   -3.6629 H   0  0  0  0  0  0  0  0  0  0  0  0
   57.7796   -8.1959   -1.1235 C   0  0  0  0  0  0  0  0  0  0  0  0
   57.0396   -7.4659   -2.0886 N   0  0  0  0  0  0  0  0  0  0  0  0
   55.7350   -7.8966   -2.3747 C   0  0  0  0  0  0  0  0  0  0  0  0
   55.4301   -8.2086   -3.8092 C   0  0  0  0  0  0  0  0  0  0  0  0
   56.0649   -7.2186   -4.6698 N   0  0  0  0  0  0  0  0  0  0  0  0
   57.4777   -7.0192   -4.4863 C   0  0  0  0  0  0  0  0  0  0  0  0
   57.7694   -6.7498   -3.0526 C   0  0  0  0  0  0  0  0  0  0  0  0
 30 31  1  0  0  0
 31 32  1  0  0  0
 32 33  1  0  0  0
 33 34  1  0  0  0
 34 35  1  0  0  0
 35 36  1  0  0  0
 34  1  1  0  0  0
  1  2  2  0  0  0
  2  3  1  0  0  0
  3 12  1  0  0  0
 12 13  2  0  0  0
 13 14  1  0  0  0
 14 15  2  0  0  0
 14 16  1  0  0  0
 16 17  1  0  0  0
 17 18  2  0  0  0
 13 20  1  0  0  0
 20 21  2  0  0  0
 21 22  1  0  0  0
 22 23  1  0  0  0
 23 24  2  0  0  0
 24 25  1  0  0  0
 25 26  2  0  0  0
 26 27  1  0  0  0
 27 28  2  0  0  0
  3  4  2  0  0  0
  4  5  1  0  0  0
  5  6  2  0  0  0
  6  7  1  0  0  0
  6  8  1  0  0  0
  8  9  2  0  0  0
  9 10  1  0  0  0
 10 11  2  0  0  0
 36 31  1  0  0  0
 11  1  1  0  0  0
 17 12  1  0  0  0
 28 20  1  0  0  0
 10  4  1  0  0  0
 28 23  1  0  0  0
 16 19  1  0  0  0
 22 29  1  0  0  0
M  END
> <minimizedAffinity>
-4.52382

> <CNNscore>
0.3573532701

> <CNNaffinity>
6.8710680008

> <CNN_VS>
2.4553985596

> <CNNaffinity_variance>
0.2201484889

$$$$
[H]c1nc2c(c([H])c1[H])c(C1=C(c3nc(N4C([H])([H])C([H])([H])N(C([H])([H])[H])C([H])([H])C4([H])[H])nc4c([H])c([H])c(F)c([H])c34)C(=O)N([H])C1=O)c([H])n2[H]


 36 41  0  0  0  0  0  0  0  0999 V2000
   54.7268   -6.4984   -5.1857 C   0  0  0  0  0  0  0  0  0  0  0  0
   53.4714   -6.2568   -4.7902 N   0  0  0  0  0  0  0  0  0  0  0  0
   52.6431   -5.4309   -5.4922 C   0  0  0  0  0  0  0  0  0  0  0  0
   53.1165   -4.8381   -6.6240 C   0  0  0  0  0  0  0  0  0  0  0  0
   52.3975   -3.9659   -7.4038 C   0  0  0  0  0  0  0  0  0  0  0  0
   52.9270   -3.3611   -8.5489 C   0  0  0  0  0  0  0  0  0  0  0  0
   52.2018   -2.5036   -9.3069 F   0  0  0  0  0  0  0  0  0  0  0  0
   54.2140   -3.6370   -8.9226 C   0  0  0  0  0  0  0  0  0  0  0  0
   54.9683   -4.4983   -8.1739 C   0  0  0  0  0  0  0  0  0  0  0  0
   54.4281   -5.0795   -7.0543 C   0  0  0  0  0  0  0  0  0  0  0  0
   55.1698   -5.9079   -6.3007 N   0  0  0  0  0  0  0  0  0  0  0  0
   51.2922   -5.1729   -5.0333 C   0  0  0  0  0  0  0  0  0  0  0  0
   50.8196   -5.2327   -3.7906 C   0  0  0  0  0  0  0  0  0  0  0  0
   49.4084   -4.8946   -3.8393 C   0  0  0  0  0  0  0  0  0  0  0  0
   48.6120   -4.8406   -2.8501 O   0  0  0  0  0  0  0  0  0  0  0  0
   49.0453   -4.6261   -5.1817 N   0  0  0  0  0  0  0  0  0  0  0  0
   50.2218   -4.7962   -5.9530 C   0  0  0  0  0  0  0  0  0  0  0  0
   50.2580   -4.6335   -7.2034 O   0  0  0  0  0  0  0  0  0  0  0  0
   48.0761   -4.3516   -5.5266 H   0  0  0  0  0  0  0  0  0  0  0  0
   51.5993   -5.5102   -2.5687 C   0  0  0  0  0  0  0  0  0  0  0  0
   52.2918   -4.5557   -1.8206 C   0  0  0  0  0  0  0  0  0  0  0  0
   52.8980   -5.1692   -0.7897 N   0  0  0  0  0  0  0  0  0  0  0  0
   52.6397   -6.4969   -0.8182 C   0  0  0  0  0  0  0  0  0  0  0  0
   53.0147   -7.5163   -0.0286 N   0  0  0  0  0  0  0  0  0  0  0  0
   52.6493   -8.7889   -0.2413 C   0  0  0  0  0  0  0  0  0  0  0  0
   51.8492   -9.0326   -1.3327 C   0  0  0  0  0  0  0  0  0  0  0  0
   51.4455   -8.0062   -2.1650 C   0  0  0  0  0  0  0  0  0  0  0  0
   51.8270   -6.7037   -1.9341 C   0  0  0  0  0  0  0  0  0  0  0  0
   53.5022   -4.7319   -0.0334 H   0  0  0  0  0  0  0  0  0  0  0  0
   57.8682   -8.7950   -1.4295 C   0  0  0  0  0  0  0  0  0  0  0  0
   57.0502   -7.9090   -2.1763 N   0  0  0  0  0  0  0  0  0  0  0  0
   55.6682   -8.1527   -2.1930 C   0  0  0  0  0  0  0  0  0  0  0  0
   55.0312   -8.3165   -3.5404 C   0  0  0  0  0  0  0  0  0  0  0  0
   55.6019   -7.3508   -4.4709 N   0  0  0  0  0  0  0  0  0  0  0  0
   57.0356   -7.3417   -4.5884 C   0  0  0  0  0  0  0  0  0  0  0  0
   57.6538   -7.2185   -3.2409 C   0  0  0  0  0  0  0  0  0  0  0  0
 30 31  1  0  0  0
 31 32  1  0  0  0
 32 33  1  0  0  0
 33 34  1  0  0  0
 34 35  1  0  0  0
 35 36  1  0  0  0
 34  1  1  0  0  0
  1  2  2  0  0  0
  2  3  1  0  0  0
  3 12  1  0  0  0
 12 13  2  0  0  0
 13 14  1  0  0  0
 14 15  2  0  0  0
 14 16  1  0  0  0
 16 17  1  0  0  0
 17 18  2  0  0  0
 13 20  1  0  0  0
 20 21  2  0  0  0
 21 22  1  0  0  0
 22 23  1  0  0  0
 23 24  2  0  0  0
 24 25  1  0  0  0
 25 26  2  0  0  0
 26 27  1  0  0  0
 27 28  2  0  0  0
  3  4  2  0  0  0
  4  5  1  0  0  0
  5  6  2  0  0  0
  6  7  1  0  0  0
  6  8  1  0  0  0
  8  9  2  0  0  0
  9 10  1  0  0  0
 10 11  2  0  0  0
 36 31  1  0  0  0
 11  1  1  0  0  0
 17 12  1  0  0  0
 28 20  1  0  0  0
 10  4  1  0  0  0
 28 23  1  0  0  0
 16 19  1  0  0  0
 22 29  1  0  0  0
M  END
> <minimizedAffinity>
-10.28244

> <CNNscore>
0.1932154745

> <CNNaffinity>
6.7454576492

> <CNN_VS>
1.3033268452

> <CNNaffinity_variance>
0.6775308251

$$$$
[H]c1nc2c(c([H])c1[H])c(C1=C(c3nc(N4C([H])([H])C([H])([H])N(C([H])([H])[H])C([H])([H])C4([H])[H])nc4c([H])c([H])c(F)c([H])c34)C(=O)N([H])C1=O)c([H])n2[H]


 36 41  0  0  0  0  0  0  0  0999 V2000
   57.9999   -5.4891   -8.3271 C   0  0  0  0  0  0  0  0  0  0  0  0
   57.4982   -5.8921   -7.1537 N   0  0  0  0  0  0  0  0  0  0  0  0
   56.2590   -5.5081   -6.7321 C   0  0  0  0  0  0  0  0  0  0  0  0
   55.5203   -4.6899   -7.5328 C   0  0  0  0  0  0  0  0  0  0  0  0
   54.2741   -4.2087   -7.2143 C   0  0  0  0  0  0  0  0  0  0  0  0
   53.5553   -3.3526   -8.0556 C   0  0  0  0  0  0  0  0  0  0  0  0
   52.3259   -2.8888   -7.7249 F   0  0  0  0  0  0  0  0  0  0  0  0
   54.1011   -2.9665   -9.2493 C   0  0  0  0  0  0  0  0  0  0  0  0
   55.3415   -3.4193   -9.6066 C   0  0  0  0  0  0  0  0  0  0  0  0
   56.0284   -4.2580   -8.7653 C   0  0  0  0  0  0  0  0  0  0  0  0
   57.2567   -4.6881   -9.0980 N   0  0  0  0  0  0  0  0  0  0  0  0
   55.7451   -5.9457   -5.4489 C   0  0  0  0  0  0  0  0  0  0  0  0
   54.4985   -6.2912   -5.1360 C   0  0  0  0  0  0  0  0  0  0  0  0
   54.4808   -6.6503   -3.7292 C   0  0  0  0  0  0  0  0  0  0  0  0
   53.4699   -7.0376   -3.0632 O   0  0  0  0  0  0  0  0  0  0  0  0
   55.7863   -6.5034   -3.2002 N   0  0  0  0  0  0  0  0  0  0  0  0
   56.6013   -6.0590   -4.2709 C   0  0  0  0  0  0  0  0  0  0  0  0
   57.8349   -5.8252   -4.1497 O   0  0  0  0  0  0  0  0  0  0  0  0
   56.0809   -6.6937   -2.1949 H   0  0  0  0  0  0  0  0  0  0  0  0
   53.3536   -6.3767   -6.0634 C   0  0  0  0  0  0  0  0  0  0  0  0
   53.3508   -7.0641   -7.2790 C   0  0  0  0  0  0  0  0  0  0  0  0
   52.1489   -6.9112   -7.8608 N   0  0  0  0  0  0  0  0  0  0  0  0
   51.3468   -6.1479   -7.0835 C   0  0  0  0  0  0  0  0  0  0  0  0
   50.0846   -5.7123   -7.2260 N   0  0  0  0  0  0  0  0  0  0  0  0
   49.4631   -4.9396   -6.3233 C   0  0  0  0  0  0  0  0  0  0  0  0
   50.1807   -4.5905   -5.2035 C   0  0  0  0  0  0  0  0  0  0  0  0
   51.4813   -5.0221   -5.0261 C   0  0  0  0  0  0  0  0  0  0  0  0
   52.1069   -5.8164   -5.9605 C   0  0  0  0  0  0  0  0  0  0  0  0
   51.8183   -7.3055   -8.7900 H   0  0  0  0  0  0  0  0  0  0  0  0
   62.4540   -8.2497   -9.6655 C   0  0  0  0  0  0  0  0  0  0  0  0
   61.1983   -7.8437   -9.1457 N   0  0  0  0  0  0  0  0  0  0  0  0
   60.1169   -7.7638  -10.0367 C   0  0  0  0  0  0  0  0  0  0  0  0
   59.4094   -6.4444  -10.1176 C   0  0  0  0  0  0  0  0  0  0  0  0
   59.2835   -5.8752   -8.7818 N   0  0  0  0  0  0  0  0  0  0  0  0
   60.4969   -5.7509   -8.0194 C   0  0  0  0  0  0  0  0  0  0  0  0
   61.2075   -7.0573   -7.9812 C   0  0  0  0  0  0  0  0  0  0  0  0
 30 31  1  0  0  0
 31 32  1  0  0  0
 32 33  1  0  0  0
 33 34  1  0  0  0
 34 35  1  0  0  0
 35 36  1  0  0  0
 34  1  1  0  0  0
  1  2  2  0  0  0
  2  3  1  0  0  0
  3 12  1  0  0  0
 12 13  2  0  0  0
 13 14  1  0  0  0
 14 15  2  0  0  0
 14 16  1  0  0  0
 16 17  1  0  0  0
 17 18  2  0  0  0
 13 20  1  0  0  0
 20 21  2  0  0  0
 21 22  1  0  0  0
 22 23  1  0  0  0
 23 24  2  0  0  0
 24 25  1  0  0  0
 25 26  2  0  0  0
 26 27  1  0  0  0
 27 28  2  0  0  0
  3  4  2  0  0  0
  4  5  1  0  0  0
  5  6  2  0  0  0
  6  7  1  0  0  0
  6  8  1  0  0  0
  8  9  2  0  0  0
  9 10  1  0  0  0
 10 11  2  0  0  0
 36 31  1  0  0  0
 11  1  1  0  0  0
 17 12  1  0  0  0
 28 20  1  0  0  0
 10  4  1  0  0  0
 28 23  1  0  0  0
 16 19  1  0  0  0
 22 29  1  0  0  0
M  END
> <minimizedAffinity>
-5.57916

> <CNNscore>
0.1497467160

> <CNNaffinity>
6.0595231056

> <CNN_VS>
0.9073936939

> <CNNaffinity_variance>
1.2468435764

$$$$
[H]c1nc2c(c([H])c1[H])c(C1=C(c3nc(N4C([H])([H])C([H])([H])N(C([H])([H])[H])C([H])([H])C4([H])[H])nc4c([H])c([H])c(F)c([H])c34)C(=O)N([H])C1=O)c([H])n2[H]


 36 41  0  0  0  0  0  0  0  0999 V2000
   58.3754   -7.9498   -2.4983 C   0  0  0  0  0  0  0  0  0  0  0  0
   58.7560   -9.1483   -2.9559 N   0  0  0  0  0  0  0  0  0  0  0  0
   59.9461   -9.7100   -2.5966 C   0  0  0  0  0  0  0  0  0  0  0  0
   60.7642   -9.0235   -1.7505 C   0  0  0  0  0  0  0  0  0  0  0  0
   61.9973   -9.4623   -1.3348 C   0  0  0  0  0  0  0  0  0  0  0  0
   62.8175   -8.7175   -0.4805 C   0  0  0  0  0  0  0  0  0  0  0  0
   64.0312   -9.1675   -0.0800 F   0  0  0  0  0  0  0  0  0  0  0  0
   62.3908   -7.4978   -0.0309 C   0  0  0  0  0  0  0  0  0  0  0  0
   61.1700   -7.0197   -0.4213 C   0  0  0  0  0  0  0  0  0  0  0  0
   60.3826   -7.7675   -1.2603 C   0  0  0  0  0  0  0  0  0  0  0  0
   59.1929   -7.2946   -1.6671 N   0  0  0  0  0  0  0  0  0  0  0  0
   60.3422  -11.0030   -3.1194 C   0  0  0  0  0  0  0  0  0  0  0  0
   60.9558  -11.2730   -4.2692 C   0  0  0  0  0  0  0  0  0  0  0  0
   61.1341  -12.7120   -4.3460 C   0  0  0  0  0  0  0  0  0  0  0  0
   61.6844  -13.3533   -5.2954 O   0  0  0  0  0  0  0  0  0  0  0  0
   60.5940  -13.3057   -3.1791 N   0  0  0  0  0  0  0  0  0  0  0  0
   60.0883  -12.2429   -2.3901 C   0  0  0  0  0  0  0  0  0  0  0  0
   59.5326  -12.4164   -1.2711 O   0  0  0  0  0  0  0  0  0  0  0  0
   60.5789  -14.3463   -2.9541 H   0  0  0  0  0  0  0  0  0  0  0  0
   61.4441  -10.2886   -5.2544 C   0  0  0  0  0  0  0  0  0  0  0  0
   60.9010  -10.0819   -6.5242 C   0  0  0  0  0  0  0  0  0  0  0  0
   61.6080   -9.1236   -7.1474 N   0  0  0  0  0  0  0  0  0  0  0  0
   62.6036   -8.6808   -6.3456 C   0  0  0  0  0  0  0  0  0  0  0  0
   63.5648   -7.7576   -6.5098 N   0  0  0  0  0  0  0  0  0  0  0  0
   64.4810   -7.4700   -5.5738 C   0  0  0  0  0  0  0  0  0  0  0  0
   64.4080   -8.1735   -4.3945 C   0  0  0  0  0  0  0  0  0  0  0  0
   63.4312   -9.1299   -4.1934 C   0  0  0  0  0  0  0  0  0  0  0  0
   62.4958   -9.4143   -5.1627 C   0  0  0  0  0  0  0  0  0  0  0  0
   61.4567   -8.7302   -8.1223 H   0  0  0  0  0  0  0  0  0  0  0  0
   53.4896   -5.6303   -2.4737 C   0  0  0  0  0  0  0  0  0  0  0  0
   54.6912   -6.2976   -2.1231 N   0  0  0  0  0  0  0  0  0  0  0  0
   55.8482   -5.5196   -1.9632 C   0  0  0  0  0  0  0  0  0  0  0  0
   57.0329   -5.8976   -2.8008 C   0  0  0  0  0  0  0  0  0  0  0  0
   57.1457   -7.3495   -2.8600 N   0  0  0  0  0  0  0  0  0  0  0  0
   55.9754   -8.0679   -3.2882 C   0  0  0  0  0  0  0  0  0  0  0  0
   54.8006   -7.6537   -2.4749 C   0  0  0  0  0  0  0  0  0  0  0  0
 30 31  1  0  0  0
 31 32  1  0  0  0
 32 33  1  0  0  0
 33 34  1  0  0  0
 34 35  1  0  0  0
 35 36  1  0  0  0
 34  1  1  0  0  0
  1  2  2  0  0  0
  2  3  1  0  0  0
  3 12  1  0  0  0
 12 13  2  0  0  0
 13 14  1  0  0  0
 14 15  2  0  0  0
 14 16  1  0  0  0
 16 17  1  0  0  0
 17 18  2  0  0  0
 13 20  1  0  0  0
 20 21  2  0  0  0
 21 22  1  0  0  0
 22 23  1  0  0  0
 23 24  2  0  0  0
 24 25  1  0  0  0
 25 26  2  0  0  0
 26 27  1  0  0  0
 27 28  2  0  0  0
  3  4  2  0  0  0
  4  5  1  0  0  0
  5  6  2  0  0  0
  6  7  1  0  0  0
  6  8  1  0  0  0
  8  9  2  0  0  0
  9 10  1  0  0  0
 10 11  2  0  0  0
 36 31  1  0  0  0
 11  1  1  0  0  0
 17 12  1  0  0  0
 28 20  1  0  0  0
 10  4  1  0  0  0
 28 23  1  0  0  0
 16 19  1  0  0  0
 22 29  1  0  0  0
M  END
> <minimizedAffinity>
-4.64046

> <CNNscore>
0.1304181218

> <CNNaffinity>
5.3952283859

> <CNN_VS>
0.7036355734

> <CNNaffinity_variance>
0.1640761495

$$$$
[H]c1nc2c(c([H])c1[H])c(C1=C(c3nc(N4C([H])([H])C([H])([H])N(C([H])([H])[H])C([H])([H])C4([H])[H])nc4c([H])c([H])c(F)c([H])c34)C(=O)N([H])C1=O)c([H])n2[H]


 36 41  0  0  0  0  0  0  0  0999 V2000
   55.9715   -6.6125   -4.9871 C   0  0  0  0  0  0  0  0  0  0  0  0
   54.6562   -6.4492   -4.8023 N   0  0  0  0  0  0  0  0  0  0  0  0
   53.8911   -5.7342   -5.6766 C   0  0  0  0  0  0  0  0  0  0  0  0
   54.4915   -5.1726   -6.7631 C   0  0  0  0  0  0  0  0  0  0  0  0
   53.8428   -4.4074   -7.7010 C   0  0  0  0  0  0  0  0  0  0  0  0
   54.4997   -3.8301   -8.7930 C   0  0  0  0  0  0  0  0  0  0  0  0
   53.8425   -3.0788   -9.7092 F   0  0  0  0  0  0  0  0  0  0  0  0
   55.8451   -4.0238   -8.9491 C   0  0  0  0  0  0  0  0  0  0  0  0
   56.5327   -4.7771   -8.0375 C   0  0  0  0  0  0  0  0  0  0  0  0
   55.8675   -5.3332   -6.9738 C   0  0  0  0  0  0  0  0  0  0  0  0
   56.5396   -6.0545   -6.0614 N   0  0  0  0  0  0  0  0  0  0  0  0
   52.4707   -5.5585   -5.4448 C   0  0  0  0  0  0  0  0  0  0  0  0
   51.8099   -5.6301   -4.2918 C   0  0  0  0  0  0  0  0  0  0  0  0
   50.4064   -5.3861   -4.5726 C   0  0  0  0  0  0  0  0  0  0  0  0
   49.4601   -5.3693   -3.7241 O   0  0  0  0  0  0  0  0  0  0  0  0
   50.2469   -5.1627   -5.9620 N   0  0  0  0  0  0  0  0  0  0  0  0
   51.5399   -5.2670   -6.5322 C   0  0  0  0  0  0  0  0  0  0  0  0
   51.7657   -5.1216   -7.7647 O   0  0  0  0  0  0  0  0  0  0  0  0
   49.3302   -4.9578   -6.4634 H   0  0  0  0  0  0  0  0  0  0  0  0
   52.3997   -5.8369   -2.9549 C   0  0  0  0  0  0  0  0  0  0  0  0
   53.1381   -4.8881   -2.2443 C   0  0  0  0  0  0  0  0  0  0  0  0
   53.5290   -5.4283   -1.0773 N   0  0  0  0  0  0  0  0  0  0  0  0
   53.0825   -6.7014   -0.9784 C   0  0  0  0  0  0  0  0  0  0  0  0
   53.2130   -7.6428   -0.0297 N   0  0  0  0  0  0  0  0  0  0  0  0
   52.6898   -8.8732   -0.1325 C   0  0  0  0  0  0  0  0  0  0  0  0
   51.9886   -9.1574   -1.2808 C   0  0  0  0  0  0  0  0  0  0  0  0
   51.8355   -8.2112   -2.2760 C   0  0  0  0  0  0  0  0  0  0  0  0
   52.3770   -6.9511   -2.1568 C   0  0  0  0  0  0  0  0  0  0  0  0
   54.1033   -4.9744   -0.3076 H   0  0  0  0  0  0  0  0  0  0  0  0
   58.8238   -8.3152   -0.7190 C   0  0  0  0  0  0  0  0  0  0  0  0
   58.0722   -7.5508   -1.6478 N   0  0  0  0  0  0  0  0  0  0  0  0
   56.6894   -7.7808   -1.7162 C   0  0  0  0  0  0  0  0  0  0  0  0
   56.1355   -8.1499   -3.0598 C   0  0  0  0  0  0  0  0  0  0  0  0
   56.7828   -7.3493   -4.0913 N   0  0  0  0  0  0  0  0  0  0  0  0
   58.2209   -7.3727   -4.1149 C   0  0  0  0  0  0  0  0  0  0  0  0
   58.7553   -7.0435   -2.7661 C   0  0  0  0  0  0  0  0  0  0  0  0
 30 31  1  0  0  0
 31 32  1  0  0  0
 32 33  1  0  0  0
 33 34  1  0  0  0
 34 35  1  0  0  0
 35 36  1  0  0  0
 34  1  1  0  0  0
  1  2  2  0  0  0
  2  3  1  0  0  0
  3 12  1  0  0  0
 12 13  2  0  0  0
 13 14  1  0  0  0
 14 15  2  0  0  0
 14 16  1  0  0  0
 16 17  1  0  0  0
 17 18  2  0  0  0
 13 20  1  0  0  0
 20 21  2  0  0  0
 21 22  1  0  0  0
 22 23  1  0  0  0
 23 24  2  0  0  0
 24 25  1  0  0  0
 25 26  2  0  0  0
 26 27  1  0  0  0
 27 28  2  0  0  0
  3  4  2  0  0  0
  4  5  1  0  0  0
  5  6  2  0  0  0
  6  7  1  0  0  0
  6  8  1  0  0  0
  8  9  2  0  0  0
  9 10  1  0  0  0
 10 11  2  0  0  0
 36 31  1  0  0  0
 11  1  1  0  0  0
 17 12  1  0  0  0
 28 20  1  0  0  0
 10  4  1  0  0  0
 28 23  1  0  0  0
 16 19  1  0  0  0
 22 29  1  0  0  0
M  END
> <minimizedAffinity>
-9.88377

> <CNNscore>
0.1170321330

> <CNNaffinity>
6.5965638161

> <CNN_VS>
0.7720099092

> <CNNaffinity_variance>
0.4111766815

$$$$
[H]O[C@@]1([H])C([H])([H])C([H])([H])[C@]2([H])[C@]1(C([H])([H])[H])C([H])([H])C([H])([H])[C@]1([H])[C@]3([H])C(=C([H])C(=O)C([H])([H])C3([H])[H])C([H])([H])C([H])([H])[C@@]21[H]


 21 24  0  0  0  0  0  0  0  0999 V2000
   65.4178   -6.1339   -9.2697 C   0  0  0  0  0  0  0  0  0  0  0  0
   64.2457   -7.0505   -9.5267 C   0  0  0  0  0  0  0  0  0  0  0  0
   63.0358   -6.5872   -8.8174 C   0  0  0  0  0  0  0  0  0  0  0  0
   62.9471   -7.0210   -7.3815 C   0  0  0  0  0  0  0  0  0  0  0  0
   63.4057   -8.4094   -7.1208 C   0  0  0  0  0  0  0  0  0  0  0  0
   64.7477   -8.7353   -7.7472 C   0  0  0  0  0  0  0  0  0  0  0  0
   64.9887  -10.2287   -7.5436 C   0  0  0  0  0  0  0  0  0  0  0  0
   65.1203  -10.5148   -6.0675 C   0  0  0  0  0  0  0  0  0  0  0  0
   63.8849  -10.0155   -5.4045 C   0  0  0  0  0  0  0  0  0  0  0  0
   63.1954  -10.8473   -4.6643 C   0  0  0  0  0  0  0  0  0  0  0  0
   61.9863  -10.3661   -4.0126 C   0  0  0  0  0  0  0  0  0  0  0  0
   61.0095  -11.1196   -3.7855 O   0  0  0  0  0  0  0  0  0  0  0  0
   61.9852   -8.9083   -3.6298 C   0  0  0  0  0  0  0  0  0  0  0  0
   62.2758   -8.1711   -4.9190 C   0  0  0  0  0  0  0  0  0  0  0  0
   63.5080   -8.6119   -5.6203 C   0  0  0  0  0  0  0  0  0  0  0  0
   64.5843   -8.4958   -9.1966 C   0  0  0  0  0  0  0  0  0  0  0  0
   65.7387   -8.7369  -10.0739 C   0  0  0  0  0  0  0  0  0  0  0  0
   65.3426   -8.0061  -11.3589 C   0  0  0  0  0  0  0  0  0  0  0  0
   64.0944   -7.2123  -11.0129 C   0  0  0  0  0  0  0  0  0  0  0  0
   64.0153   -6.0175  -11.6932 O   0  0  0  0  0  0  0  0  0  0  0  0
   64.1479   -6.1540  -12.6459 H   0  0  0  0  0  0  0  0  0  0  0  0
  2  1  1  0  0  0
  2  3  1  0  0  0
  3  4  1  0  0  0
  4  5  1  0  0  0
  5  6  1  0  0  0
  6  7  1  0  0  0
  7  8  1  0  0  0
  8  9  1  0  0  0
  9 10  2  0  0  0
 10 11  1  0  0  0
 11 12  2  0  0  0
 11 13  1  0  0  0
 13 14  1  0  0  0
 14 15  1  0  0  0
  6 16  1  0  0  0
 16 17  1  0  0  0
 17 18  1  0  0  0
 18 19  1  0  0  0
 19 20  1  0  0  0
 16  2  1  0  0  0
 19  2  1  0  0  0
 15  5  1  0  0  0
 15  9  1  0  0  0
 20 21  1  0  0  0
M  END
> <minimizedAffinity>
-2.24875

> <CNNscore>
0.6371538043

> <CNNaffinity>
4.1375722885

> <CNN_VS>
2.6362698078

> <CNNaffinity_variance>
0.0849502832

$$$$
[H]O[C@@]1([H])C([H])([H])C([H])([H])[C@]2([H])[C@]1(C([H])([H])[H])C([H])([H])C([H])([H])[C@]1([H])[C@]3([H])C(=C([H])C(=O)C([H])([H])C3([H])[H])C([H])([H])C([H])([H])[C@@]21[H]


 21 24  0  0  0  0  0  0  0  0999 V2000
   55.7659   -2.2880  -15.4880 C   0  0  0  0  0  0  0  0  0  0  0  0
   56.2951   -3.6962  -15.6175 C   0  0  0  0  0  0  0  0  0  0  0  0
   55.5944   -4.6197  -14.7021 C   0  0  0  0  0  0  0  0  0  0  0  0
   56.1335   -4.6401  -13.2997 C   0  0  0  0  0  0  0  0  0  0  0  0
   57.6136   -4.5673  -13.2002 C   0  0  0  0  0  0  0  0  0  0  0  0
   58.2276   -3.4684  -14.0457 C   0  0  0  0  0  0  0  0  0  0  0  0
   59.7427   -3.6397  -13.9754 C   0  0  0  0  0  0  0  0  0  0  0  0
   60.2051   -3.4035  -12.5582 C   0  0  0  0  0  0  0  0  0  0  0  0
   59.4582   -4.3469  -11.6823 C   0  0  0  0  0  0  0  0  0  0  0  0
   60.1415   -5.1424  -10.8978 C   0  0  0  0  0  0  0  0  0  0  0  0
   59.4180   -6.0675  -10.0382 C   0  0  0  0  0  0  0  0  0  0  0  0
   59.8949   -7.1804   -9.7103 O   0  0  0  0  0  0  0  0  0  0  0  0
   58.0633   -5.6019   -9.5696 C   0  0  0  0  0  0  0  0  0  0  0  0
   57.3044   -5.2840  -10.8397 C   0  0  0  0  0  0  0  0  0  0  0  0
   57.9905   -4.3319  -11.7492 C   0  0  0  0  0  0  0  0  0  0  0  0
   57.8040   -3.7446  -15.4345 C   0  0  0  0  0  0  0  0  0  0  0  0
   58.2596   -2.8323  -16.4931 C   0  0  0  0  0  0  0  0  0  0  0  0
   57.3195   -3.1676  -17.6533 C   0  0  0  0  0  0  0  0  0  0  0  0
   56.2547   -4.0804  -17.0695 C   0  0  0  0  0  0  0  0  0  0  0  0
   55.0201   -3.9031  -17.6535 O   0  0  0  0  0  0  0  0  0  0  0  0
   55.0884   -3.9408  -18.6219 H   0  0  0  0  0  0  0  0  0  0  0  0
  2  1  1  0  0  0
  2  3  1  0  0  0
  3  4  1  0  0  0
  4  5  1  0  0  0
  5  6  1  0  0  0
  6  7  1  0  0  0
  7  8  1  0  0  0
  8  9  1  0  0  0
  9 10  2  0  0  0
 10 11  1  0  0  0
 11 12  2  0  0  0
 11 13  1  0  0  0
 13 14  1  0  0  0
 14 15  1  0  0  0
  6 16  1  0  0  0
 16 17  1  0  0  0
 17 18  1  0  0  0
 18 19  1  0  0  0
 19 20  1  0  0  0
 16  2  1  0  0  0
 19  2  1  0  0  0
 15  5  1  0  0  0
 15  9  1  0  0  0
 20 21  1  0  0  0
M  END
> <minimizedAffinity>
1.49924

> <CNNscore>
0.5920518041

> <CNNaffinity>
4.5691595078

> <CNN_VS>
2.7051792145

> <CNNaffinity_variance>
0.1375387013

$$$$
[H]O[C@@]1([H])C([H])([H])C([H])([H])[C@]2([H])[C@]1(C([H])([H])[H])C([H])([H])C([H])([H])[C@]1([H])[C@]3([H])C(=C([H])C(=O)C([H])([H])C3([H])[H])C([H])([H])C([H])([H])[C@@]21[H]


 21 24  0  0  0  0  0  0  0  0999 V2000
   63.6749   -7.9997   -6.1581 C   0  0  0  0  0  0  0  0  0  0  0  0
   62.3623   -8.7243   -6.3366 C   0  0  0  0  0  0  0  0  0  0  0  0
   61.2916   -8.1025   -5.5314 C   0  0  0  0  0  0  0  0  0  0  0  0
   61.2441   -8.5524   -4.0985 C   0  0  0  0  0  0  0  0  0  0  0  0
   61.5060   -9.9995   -3.8910 C   0  0  0  0  0  0  0  0  0  0  0  0
   62.7337  -10.5073   -4.6219 C   0  0  0  0  0  0  0  0  0  0  0  0
   62.7610  -12.0244   -4.4561 C   0  0  0  0  0  0  0  0  0  0  0  0
   62.9559  -12.3622   -2.9981 C   0  0  0  0  0  0  0  0  0  0  0  0
   61.8621  -11.6998   -2.2367 C   0  0  0  0  0  0  0  0  0  0  0  0
   61.1112  -12.4367   -1.4566 C   0  0  0  0  0  0  0  0  0  0  0  0
   60.0397  -11.7959   -0.7086 C   0  0  0  0  0  0  0  0  0  0  0  0
   58.9797  -12.4002   -0.4173 O   0  0  0  0  0  0  0  0  0  0  0  0
   60.2866  -10.3639   -0.3086 C   0  0  0  0  0  0  0  0  0  0  0  0
   60.5896   -9.6477   -1.6068 C   0  0  0  0  0  0  0  0  0  0  0  0
   61.6864  -10.2509   -2.4054 C   0  0  0  0  0  0  0  0  0  0  0  0
   62.5024  -10.2115   -6.0515 C   0  0  0  0  0  0  0  0  0  0  0  0
   63.5396  -10.6014   -7.0172 C   0  0  0  0  0  0  0  0  0  0  0  0
   63.1650   -9.7890   -8.2590 C   0  0  0  0  0  0  0  0  0  0  0  0
   62.0797   -8.8261   -7.8089 C   0  0  0  0  0  0  0  0  0  0  0  0
   62.1320   -7.6169   -8.4661 O   0  0  0  0  0  0  0  0  0  0  0  0
   62.1722   -7.7489   -9.4277 H   0  0  0  0  0  0  0  0  0  0  0  0
  2  1  1  0  0  0
  2  3  1  0  0  0
  3  4  1  0  0  0
  4  5  1  0  0  0
  5  6  1  0  0  0
  6  7  1  0  0  0
  7  8  1  0  0  0
  8  9  1  0  0  0
  9 10  2  0  0  0
 10 11  1  0  0  0
 11 12  2  0  0  0
 11 13  1  0  0  0
 13 14  1  0  0  0
 14 15  1  0  0  0
  6 16  1  0  0  0
 16 17  1  0  0  0
 17 18  1  0  0  0
 18 19  1  0  0  0
 19 20  1  0  0  0
 16  2  1  0  0  0
 19  2  1  0  0  0
 15  5  1  0  0  0
 15  9  1  0  0  0
 20 21  1  0  0  0
M  END
> <minimizedAffinity>
-2.67864

> <CNNscore>
0.5908930898

> <CNNaffinity>
4.2533588409

> <CNN_VS>
2.5132803917

> <CNNaffinity_variance>
0.1395713091

$$$$
[H]O[C@@]1([H])C([H])([H])C([H])([H])[C@]2([H])[C@]1(C([H])([H])[H])C([H])([H])C([H])([H])[C@]1([H])[C@]3([H])C(=C([H])C(=O)C([H])([H])C3([H])[H])C([H])([H])C([H])([H])[C@@]21[H]


 21 24  0  0  0  0  0  0  0  0999 V2000
   63.8594   -8.1421   -9.6831 C   0  0  0  0  0  0  0  0  0  0  0  0
   62.7326   -7.5309   -8.8851 C   0  0  0  0  0  0  0  0  0  0  0  0
   63.1820   -6.3279   -8.1555 C   0  0  0  0  0  0  0  0  0  0  0  0
   63.8467   -6.6070   -6.8371 C   0  0  0  0  0  0  0  0  0  0  0  0
   63.2241   -7.6976   -6.0441 C   0  0  0  0  0  0  0  0  0  0  0  0
   62.9614   -8.9588   -6.8440 C   0  0  0  0  0  0  0  0  0  0  0  0
   62.1669   -9.9037   -5.9465 C   0  0  0  0  0  0  0  0  0  0  0  0
   63.0213  -10.3086   -4.7701 C   0  0  0  0  0  0  0  0  0  0  0  0
   63.4559   -9.0613   -4.0843 C   0  0  0  0  0  0  0  0  0  0  0  0
   63.2058   -8.9342   -2.8050 C   0  0  0  0  0  0  0  0  0  0  0  0
   63.6281   -7.7173   -2.1274 C   0  0  0  0  0  0  0  0  0  0  0  0
   62.9976   -7.2489   -1.1493 O   0  0  0  0  0  0  0  0  0  0  0  0
   64.8682   -7.0596   -2.6761 C   0  0  0  0  0  0  0  0  0  0  0  0
   64.5653   -6.8268   -4.1404 C   0  0  0  0  0  0  0  0  0  0  0  0
   64.1429   -8.0394   -4.8858 C   0  0  0  0  0  0  0  0  0  0  0  0
   62.0848   -8.5512   -7.9622 C   0  0  0  0  0  0  0  0  0  0  0  0
   61.6539   -9.5822   -8.9170 C   0  0  0  0  0  0  0  0  0  0  0  0
   61.1529   -8.7540  -10.1024 C   0  0  0  0  0  0  0  0  0  0  0  0
   61.5649   -7.3219   -9.8073 C   0  0  0  0  0  0  0  0  0  0  0  0
   61.8795   -6.6112  -10.9443 O   0  0  0  0  0  0  0  0  0  0  0  0
   61.1747   -6.6932  -11.6079 H   0  0  0  0  0  0  0  0  0  0  0  0
  2  1  1  0  0  0
  2  3  1  0  0  0
  3  4  1  0  0  0
  4  5  1  0  0  0
  5  6  1  0  0  0
  6  7  1  0  0  0
  7  8  1  0  0  0
  8  9  1  0  0  0
  9 10  2  0  0  0
 10 11  1  0  0  0
 11 12  2  0  0  0
 11 13  1  0  0  0
 13 14  1  0  0  0
 14 15  1  0  0  0
  6 16  1  0  0  0
 16 17  1  0  0  0
 17 18  1  0  0  0
 18 19  1  0  0  0
 19 20  1  0  0  0
 16  2  1  0  0  0
 19  2  1  0  0  0
 15  5  1  0  0  0
 15  9  1  0  0  0
 20 21  1  0  0  0
M  END
> <minimizedAffinity>
-3.50635

> <CNNscore>
0.5636169314

> <CNNaffinity>
4.2619810104

> <CNN_VS>
2.4021246433

> <CNNaffinity_variance>
0.0867243409

$$$$
[H]O[C@@]1([H])C([H])([H])C([H])([H])[C@]2([H])[C@]1(C([H])([H])[H])C([H])([H])C([H])([H])[C@]1([H])[C@]3([H])C(=C([H])C(=O)C([H])([H])C3([H])[H])C([H])([H])C([H])([H])[C@@]21[H]


 21 24  0  0  0  0  0  0  0  0999 V2000
   64.0015  -12.2920   -9.4192 C   0  0  0  0  0  0  0  0  0  0  0  0
   62.7475  -11.4729   -9.6105 C   0  0  0  0  0  0  0  0  0  0  0  0
   63.0252  -10.0278   -9.4834 C   0  0  0  0  0  0  0  0  0  0  0  0
   63.0392   -9.5147   -8.0712 C   0  0  0  0  0  0  0  0  0  0  0  0
   61.9943  -10.0927   -7.1881 C   0  0  0  0  0  0  0  0  0  0  0  0
   61.9051  -11.6048   -7.2589 C   0  0  0  0  0  0  0  0  0  0  0  0
   60.6836  -12.0223   -6.4445 C   0  0  0  0  0  0  0  0  0  0  0  0
   60.9085  -11.6705   -4.9941 C   0  0  0  0  0  0  0  0  0  0  0  0
   61.1974  -10.2120   -4.9286 C   0  0  0  0  0  0  0  0  0  0  0  0
   60.4635   -9.4663   -4.1407 C   0  0  0  0  0  0  0  0  0  0  0  0
   60.7403   -8.0391   -4.0712 C   0  0  0  0  0  0  0  0  0  0  0  0
   59.8378   -7.1980   -3.8441 O   0  0  0  0  0  0  0  0  0  0  0  0
   62.1772   -7.6399   -4.2891 C   0  0  0  0  0  0  0  0  0  0  0  0
   62.5421   -8.2315   -5.6333 C   0  0  0  0  0  0  0  0  0  0  0  0
   62.2938   -9.6902   -5.7559 C   0  0  0  0  0  0  0  0  0  0  0  0
   61.6366  -11.9264   -8.6763 C   0  0  0  0  0  0  0  0  0  0  0  0
   61.4932  -13.3402   -9.0517 C   0  0  0  0  0  0  0  0  0  0  0  0
   61.6512  -13.3016  -10.5735 C   0  0  0  0  0  0  0  0  0  0  0  0
   62.1076  -11.8909  -10.9042 C   0  0  0  0  0  0  0  0  0  0  0  0
   62.9622  -11.8448  -11.9832 O   0  0  0  0  0  0  0  0  0  0  0  0
   62.5899  -12.3293  -12.7385 H   0  0  0  0  0  0  0  0  0  0  0  0
  2  1  1  0  0  0
  2  3  1  0  0  0
  3  4  1  0  0  0
  4  5  1  0  0  0
  5  6  1  0  0  0
  6  7  1  0  0  0
  7  8  1  0  0  0
  8  9  1  0  0  0
  9 10  2  0  0  0
 10 11  1  0  0  0
 11 12  2  0  0  0
 11 13  1  0  0  0
 13 14  1  0  0  0
 14 15  1  0  0  0
  6 16  1  0  0  0
 16 17  1  0  0  0
 17 18  1  0  0  0
 18 19  1  0  0  0
 19 20  1  0  0  0
 16  2  1  0  0  0
 19  2  1  0  0  0
 15  5  1  0  0  0
 15  9  1  0  0  0
 20 21  1  0  0  0
M  END
> <minimizedAffinity>
-3.88816

> <CNNscore>
0.5493080616

> <CNNaffinity>
4.2141141891

> <CNN_VS>
2.3148469925

> <CNNaffinity_variance>
0.1398492306

$$$$
[H]O[C@@]1([H])C([H])([H])C([H])([H])[C@]2([H])[C@]1(C([H])([H])[H])C([H])([H])C([H])([H])[C@]1([H])[C@]3([H])C(=C([H])C(=O)C([H])([H])C3([H])[H])C([H])([H])C([H])([H])[C@@]21[H]


 21 24  0  0  0  0  0  0  0  0999 V2000
   54.7685   -7.4128   -6.5133 C   0  0  0  0  0  0  0  0  0  0  0  0
   54.8499   -6.0744   -5.8190 C   0  0  0  0  0  0  0  0  0  0  0  0
   54.1708   -6.1072   -4.5077 C   0  0  0  0  0  0  0  0  0  0  0  0
   52.6856   -5.8875   -4.5662 C   0  0  0  0  0  0  0  0  0  0  0  0
   52.2463   -4.8562   -5.5406 C   0  0  0  0  0  0  0  0  0  0  0  0
   52.8677   -5.0128   -6.9149 C   0  0  0  0  0  0  0  0  0  0  0  0
   52.4621   -3.7906   -7.7342 C   0  0  0  0  0  0  0  0  0  0  0  0
   50.9660   -3.7990   -7.9333 C   0  0  0  0  0  0  0  0  0  0  0  0
   50.3370   -3.8474   -6.5853 C   0  0  0  0  0  0  0  0  0  0  0  0
   49.4615   -2.9248   -6.2729 C   0  0  0  0  0  0  0  0  0  0  0  0
   48.8419   -2.9657   -4.9566 C   0  0  0  0  0  0  0  0  0  0  0  0
   48.4748   -1.9235   -4.3628 O   0  0  0  0  0  0  0  0  0  0  0  0
   48.6711   -4.3376   -4.3563 C   0  0  0  0  0  0  0  0  0  0  0  0
   50.0618   -4.9342   -4.3560 C   0  0  0  0  0  0  0  0  0  0  0  0
   50.7369   -4.9319   -5.6783 C   0  0  0  0  0  0  0  0  0  0  0  0
   54.3296   -4.9533   -6.7050 C   0  0  0  0  0  0  0  0  0  0  0  0
   55.2045   -5.0745   -7.8798 C   0  0  0  0  0  0  0  0  0  0  0  0
   56.5655   -5.3886   -7.2543 C   0  0  0  0  0  0  0  0  0  0  0  0
   56.2915   -5.6519   -5.7835 C   0  0  0  0  0  0  0  0  0  0  0  0
   57.1319   -6.6008   -5.2448 O   0  0  0  0  0  0  0  0  0  0  0  0
   58.0595   -6.3930   -5.4452 H   0  0  0  0  0  0  0  0  0  0  0  0
  2  1  1  0  0  0
  2  3  1  0  0  0
  3  4  1  0  0  0
  4  5  1  0  0  0
  5  6  1  0  0  0
  6  7  1  0  0  0
  7  8  1  0  0  0
  8  9  1  0  0  0
  9 10  2  0  0  0
 10 11  1  0  0  0
 11 12  2  0  0  0
 11 13  1  0  0  0
 13 14  1  0  0  0
 14 15  1  0  0  0
  6 16  1  0  0  0
 16 17  1  0  0  0
 17 18  1  0  0  0
 18 19  1  0  0  0
 19 20  1  0  0  0
 16  2  1  0  0  0
 19  2  1  0  0  0
 15  5  1  0  0  0
 15  9  1  0  0  0
 20 21  1  0  0  0
M  END
> <minimizedAffinity>
-9.45205

> <CNNscore>
0.4972590804

> <CNNaffinity>
6.2962336540

> <CNN_VS>
3.1308593750

> <CNNaffinity_variance>
0.3217090070

$$$$
[H]O[C@@]1([H])C([H])([H])C([H])([H])[C@]2([H])[C@]1(C([H])([H])[H])C([H])([H])C([H])([H])[C@]1([H])[C@]3([H])C(=C([H])C(=O)C([H])([H])C3([H])[H])C([H])([H])C([H])([H])[C@@]21[H]


 21 24  0  0  0  0  0  0  0  0999 V2000
   64.1414   -8.4097   -8.4149 C   0  0  0  0  0  0  0  0  0  0  0  0
   62.7995   -7.9676   -7.8825 C   0  0  0  0  0  0  0  0  0  0  0  0
   62.9008   -7.5139   -6.4805 C   0  0  0  0  0  0  0  0  0  0  0  0
   62.8439   -8.6155   -5.4602 C   0  0  0  0  0  0  0  0  0  0  0  0
   61.8702   -9.6954   -5.7631 C   0  0  0  0  0  0  0  0  0  0  0  0
   61.9636  -10.2191   -7.1831 C   0  0  0  0  0  0  0  0  0  0  0  0
   60.7958  -11.1807   -7.3860 C   0  0  0  0  0  0  0  0  0  0  0  0
   60.9674  -12.3714   -6.4744 C   0  0  0  0  0  0  0  0  0  0  0  0
   61.0786  -11.8553   -5.0829 C   0  0  0  0  0  0  0  0  0  0  0  0
   60.2554  -12.3222   -4.1776 C   0  0  0  0  0  0  0  0  0  0  0  0
   60.3583  -11.8225   -2.8145 C   0  0  0  0  0  0  0  0  0  0  0  0
   59.3599  -11.7429   -2.0593 O   0  0  0  0  0  0  0  0  0  0  0  0
   61.7383  -11.4087   -2.3719 C   0  0  0  0  0  0  0  0  0  0  0  0
   62.1804  -10.3847   -3.3946 C   0  0  0  0  0  0  0  0  0  0  0  0
   62.1098  -10.8466   -4.8039 C   0  0  0  0  0  0  0  0  0  0  0  0
   61.7449   -9.0489   -8.0591 C   0  0  0  0  0  0  0  0  0  0  0  0
   61.7748   -9.2563   -9.5140 C   0  0  0  0  0  0  0  0  0  0  0  0
   61.9370   -7.8331  -10.0530 C   0  0  0  0  0  0  0  0  0  0  0  0
   62.2228   -6.9638   -8.8405 C   0  0  0  0  0  0  0  0  0  0  0  0
   63.0728   -5.9172   -9.1216 O   0  0  0  0  0  0  0  0  0  0  0  0
   62.7662   -5.4242   -9.9006 H   0  0  0  0  0  0  0  0  0  0  0  0
  2  1  1  0  0  0
  2  3  1  0  0  0
  3  4  1  0  0  0
  4  5  1  0  0  0
  5  6  1  0  0  0
  6  7  1  0  0  0
  7  8  1  0  0  0
  8  9  1  0  0  0
  9 10  2  0  0  0
 10 11  1  0  0  0
 11 12  2  0  0  0
 11 13  1  0  0  0
 13 14  1  0  0  0
 14 15  1  0  0  0
  6 16  1  0  0  0
 16 17  1  0  0  0
 17 18  1  0  0  0
 18 19  1  0  0  0
 19 20  1  0  0  0
 16  2  1  0  0  0
 19  2  1  0  0  0
 15  5  1  0  0  0
 15  9  1  0  0  0
 20 21  1  0  0  0
M  END
> <minimizedAffinity>
-4.03102

> <CNNscore>
0.4844896793

> <CNNaffinity>
4.1515803337

> <CNN_VS>
2.0113978386

> <CNNaffinity_variance>
0.1320446432

$$$$
[H]O[C@@]1([H])C([H])([H])C([H])([H])[C@]2([H])[C@]1(C([H])([H])[H])C([H])([H])C([H])([H])[C@]1([H])[C@]3([H])C(=C([H])C(=O)C([H])([H])C3([H])[H])C([H])([H])C([H])([H])[C@@]21[H]


 21 24  0  0  0  0  0  0  0  0999 V2000
   58.8569   -1.5160  -16.1704 C   0  0  0  0  0  0  0  0  0  0  0  0
   58.9242   -2.8861  -15.5395 C   0  0  0  0  0  0  0  0  0  0  0  0
   59.5677   -2.8347  -14.2110 C   0  0  0  0  0  0  0  0  0  0  0  0
   61.0696   -2.8715  -14.2409 C   0  0  0  0  0  0  0  0  0  0  0  0
   61.6501   -3.7948  -15.2491 C   0  0  0  0  0  0  0  0  0  0  0  0
   61.0420   -3.6484  -16.6306 C   0  0  0  0  0  0  0  0  0  0  0  0
   61.6091   -4.7726  -17.4934 C   0  0  0  0  0  0  0  0  0  0  0  0
   63.0968   -4.5752  -17.6533 C   0  0  0  0  0  0  0  0  0  0  0  0
   63.6881   -4.5161  -16.2888 C   0  0  0  0  0  0  0  0  0  0  0  0
   64.6624   -5.3408  -15.9958 C   0  0  0  0  0  0  0  0  0  0  0  0
   65.2458   -5.2888  -14.6634 C   0  0  0  0  0  0  0  0  0  0  0  0
   65.7244   -6.3066  -14.1078 O   0  0  0  0  0  0  0  0  0  0  0  0
   65.2372   -3.9366  -13.9977 C   0  0  0  0  0  0  0  0  0  0  0  0
   63.7847   -3.5119  -14.0064 C   0  0  0  0  0  0  0  0  0  0  0  0
   63.1416   -3.5321  -15.3445 C   0  0  0  0  0  0  0  0  0  0  0  0
   59.5942   -3.8930  -16.4613 C   0  0  0  0  0  0  0  0  0  0  0  0
   58.7348   -3.8217  -17.6516 C   0  0  0  0  0  0  0  0  0  0  0  0
   57.3335   -3.7034  -17.0478 C   0  0  0  0  0  0  0  0  0  0  0  0
   57.5440   -3.4798  -15.5601 C   0  0  0  0  0  0  0  0  0  0  0  0
   56.5842   -2.6654  -15.0011 O   0  0  0  0  0  0  0  0  0  0  0  0
   55.6928   -2.9732  -15.2344 H   0  0  0  0  0  0  0  0  0  0  0  0
  2  1  1  0  0  0
  2  3  1  0  0  0
  3  4  1  0  0  0
  4  5  1  0  0  0
  5  6  1  0  0  0
  6  7  1  0  0  0
  7  8  1  0  0  0
  8  9  1  0  0  0
  9 10  2  0  0  0
 10 11  1  0  0  0
 11 12  2  0  0  0
 11 13  1  0  0  0
 13 14  1  0  0  0
 14 15  1  0  0  0
  6 16  1  0  0  0
 16 17  1  0  0  0
 17 18  1  0  0  0
 18 19  1  0  0  0
 19 20  1  0  0  0
 16  2  1  0  0  0
 19  2  1  0  0  0
 15  5  1  0  0  0
 15  9  1  0  0  0
 20 21  1  0  0  0
M  END
> <minimizedAffinity>
-0.68610

> <CNNscore>
0.4833710194

> <CNNaffinity>
3.8832945824

> <CNN_VS>
1.8770720959

> <CNNaffinity_variance>
0.0457716212

$$$$
[H]O[C@@]1([H])C([H])([H])C([H])([H])[C@]2([H])[C@]1(C([H])([H])[H])C([H])([H])C([H])([H])[C@]1([H])[C@]3([H])C(=C([H])C(=O)C([H])([H])C3([H])[H])C([H])([H])C([H])([H])[C@@]21[H]


 21 24  0  0  0  0  0  0  0  0999 V2000
   54.9273   -8.0648   -4.3780 C   0  0  0  0  0  0  0  0  0  0  0  0
   54.9846   -6.5784   -4.1187 C   0  0  0  0  0  0  0  0  0  0  0  0
   54.2163   -6.2137   -2.9111 C   0  0  0  0  0  0  0  0  0  0  0  0
   52.7427   -6.0280   -3.1388 C   0  0  0  0  0  0  0  0  0  0  0  0
   52.3901   -5.3436   -4.4089 C   0  0  0  0  0  0  0  0  0  0  0  0
   53.1018   -5.9081   -5.6230 C   0  0  0  0  0  0  0  0  0  0  0  0
   52.7755   -4.9944   -6.8013 C   0  0  0  0  0  0  0  0  0  0  0  0
   51.2967   -5.0689   -7.0942 C   0  0  0  0  0  0  0  0  0  0  0  0
   50.5756   -4.7077   -5.8435 C   0  0  0  0  0  0  0  0  0  0  0  0
   49.6972   -3.7373   -5.8889 C   0  0  0  0  0  0  0  0  0  0  0  0
   48.9878   -3.3786   -4.6697 C   0  0  0  0  0  0  0  0  0  0  0  0
   48.5993   -2.2067   -4.4479 O   0  0  0  0  0  0  0  0  0  0  0  0
   48.7516   -4.5037   -3.6951 C   0  0  0  0  0  0  0  0  0  0  0  0
   50.1281   -5.0664   -3.4149 C   0  0  0  0  0  0  0  0  0  0  0  0
   50.8927   -5.4635   -4.6241 C   0  0  0  0  0  0  0  0  0  0  0  0
   54.5466   -5.7818   -5.3378 C   0  0  0  0  0  0  0  0  0  0  0  0
   55.4981   -6.2509   -6.3551 C   0  0  0  0  0  0  0  0  0  0  0  0
   56.8069   -6.3546   -5.5687 C   0  0  0  0  0  0  0  0  0  0  0  0
   56.4276   -6.1593   -4.1108 C   0  0  0  0  0  0  0  0  0  0  0  0
   57.2118   -6.8962   -3.2512 O   0  0  0  0  0  0  0  0  0  0  0  0
   58.1546   -6.7555   -3.4388 H   0  0  0  0  0  0  0  0  0  0  0  0
  2  1  1  0  0  0
  2  3  1  0  0  0
  3  4  1  0  0  0
  4  5  1  0  0  0
  5  6  1  0  0  0
  6  7  1  0  0  0
  7  8  1  0  0  0
  8  9  1  0  0  0
  9 10  2  0  0  0
 10 11  1  0  0  0
 11 12  2  0  0  0
 11 13  1  0  0  0
 13 14  1  0  0  0
 14 15  1  0  0  0
  6 16  1  0  0  0
 16 17  1  0  0  0
 17 18  1  0  0  0
 18 19  1  0  0  0
 19 20  1  0  0  0
 16  2  1  0  0  0
 19  2  1  0  0  0
 15  5  1  0  0  0
 15  9  1  0  0  0
 20 21  1  0  0  0
M  END
> <minimizedAffinity>
-9.14377

> <CNNscore>
0.4806820750

> <CNNaffinity>
5.9549889565

> <CNN_VS>
2.8624565601

> <CNNaffinity_variance>
0.1270755231

$$$$
[H]C([H])([H])C1(C([H])([H])[H])C(=O)C([H])([H])C([H])([H])[C@]2(C([H])([H])[H])[C@@]3([H])C([H])([H])C([H])([H])[C@]4(C([H])([H])[H])[C@@]([H])(C([H])([H])[H])C([H])([H])C([H])([H])C([H])([H])[C@@]4([H])[C@]3([H])C([H])([H])[C@@]([H])(C([H])([H])[H])[C@@]2([H])[C@]1([H])C([H])([H])[H]


 27 30  0  0  0  0  0  0  0  0999 V2000
   56.9309   -4.6518  -13.1289 C   0  0  0  0  0  0  0  0  0  0  0  0
   57.4523   -3.8286  -12.0406 C   0  0  0  0  0  0  0  0  0  0  0  0
   58.7884   -3.1834  -12.4108 C   0  0  0  0  0  0  0  0  0  0  0  0
   59.7481   -4.3426  -12.5505 C   0  0  0  0  0  0  0  0  0  0  0  0
   61.0604   -3.7576  -13.0181 C   0  0  0  0  0  0  0  0  0  0  0  0
   60.8619   -2.8634  -14.1954 C   0  0  0  0  0  0  0  0  0  0  0  0
   62.1117   -2.5739  -14.9603 C   0  0  0  0  0  0  0  0  0  0  0  0
   63.2921   -2.7464  -14.0380 C   0  0  0  0  0  0  0  0  0  0  0  0
   63.4308   -4.1325  -13.5084 C   0  0  0  0  0  0  0  0  0  0  0  0
   64.2698   -4.9568  -14.4930 C   0  0  0  0  0  0  0  0  0  0  0  0
   62.1119   -4.8084  -13.2202 C   0  0  0  0  0  0  0  0  0  0  0  0
   61.7991   -5.7638  -14.3225 C   0  0  0  0  0  0  0  0  0  0  0  0
   62.2683   -5.5165  -11.8745 C   0  0  0  0  0  0  0  0  0  0  0  0
   60.9510   -6.0862  -11.4000 C   0  0  0  0  0  0  0  0  0  0  0  0
   59.9531   -4.9425  -11.2130 C   0  0  0  0  0  0  0  0  0  0  0  0
   58.7014   -5.4137  -10.4998 C   0  0  0  0  0  0  0  0  0  0  0  0
   58.4692   -6.8165  -10.9161 C   0  0  0  0  0  0  0  0  0  0  0  0
   59.1713   -5.4516   -9.0372 C   0  0  0  0  0  0  0  0  0  0  0  0
   58.1052   -5.6885   -8.0425 C   0  0  0  0  0  0  0  0  0  0  0  0
   57.2187   -4.4969   -7.9294 C   0  0  0  0  0  0  0  0  0  0  0  0
   57.5056   -3.6366   -7.1035 O   0  0  0  0  0  0  0  0  0  0  0  0
   55.9940   -4.2440   -8.7378 C   0  0  0  0  0  0  0  0  0  0  0  0
   55.7859   -2.7739   -8.8383 C   0  0  0  0  0  0  0  0  0  0  0  0
   54.8526   -4.9481   -8.0461 C   0  0  0  0  0  0  0  0  0  0  0  0
   56.2629   -4.8841  -10.1167 C   0  0  0  0  0  0  0  0  0  0  0  0
   55.0401   -4.6205  -10.9399 C   0  0  0  0  0  0  0  0  0  0  0  0
   57.5635   -4.4595  -10.6825 C   0  0  0  0  0  0  0  0  0  0  0  0
  1  2  1  0  0  0
  2  3  1  0  0  0
  3  4  1  0  0  0
  4  5  1  0  0  0
  5  6  1  0  0  0
  6  7  1  0  0  0
  7  8  1  0  0  0
  8  9  1  0  0  0
  9 10  1  0  0  0
  9 11  1  0  0  0
 11 12  1  0  0  0
 11 13  1  0  0  0
 13 14  1  0  0  0
 14 15  1  0  0  0
 15 16  1  0  0  0
 16 17  1  0  0  0
 16 18  1  0  0  0
 18 19  1  0  0  0
 19 20  1  0  0  0
 20 21  2  0  0  0
 20 22  1  0  0  0
 22 23  1  0  0  0
 22 24  1  0  0  0
 22 25  1  0  0  0
 25 26  1  0  0  0
 25 27  1  0  0  0
 27  2  1  0  0  0
 15  4  1  0  0  0
 27 16  1  0  0  0
 11  5  1  0  0  0
M  END
> <minimizedAffinity>
4.88145

> <CNNscore>
0.6310981512

> <CNNaffinity>
5.8819513321

> <CNN_VS>
3.7120885849

> <CNNaffinity_variance>
0.4801510870

$$$$
[H]C([H])([H])C1(C([H])([H])[H])C(=O)C([H])([H])C([H])([H])[C@]2(C([H])([H])[H])[C@@]3([H])C([H])([H])C([H])([H])[C@]4(C([H])([H])[H])[C@@]([H])(C([H])([H])[H])C([H])([H])C([H])([H])C([H])([H])[C@@]4([H])[C@]3([H])C([H])([H])[C@@]([H])(C([H])([H])[H])[C@@]2([H])[C@]1([H])C([H])([H])[H]


 27 30  0  0  0  0  0  0  0  0999 V2000
   61.0999   -4.4541  -11.5751 C   0  0  0  0  0  0  0  0  0  0  0  0
   60.6160   -5.8318  -11.5361 C   0  0  0  0  0  0  0  0  0  0  0  0
   59.0913   -5.8922  -11.4350 C   0  0  0  0  0  0  0  0  0  0  0  0
   58.7733   -5.3022  -10.0803 C   0  0  0  0  0  0  0  0  0  0  0  0
   57.2666   -5.2470   -9.9808 C   0  0  0  0  0  0  0  0  0  0  0  0
   56.6709   -4.6011  -11.1862 C   0  0  0  0  0  0  0  0  0  0  0  0
   55.2617   -4.1425  -11.0001 C   0  0  0  0  0  0  0  0  0  0  0  0
   54.6293   -4.9615   -9.9033 C   0  0  0  0  0  0  0  0  0  0  0  0
   55.3040   -4.8038   -8.5839 C   0  0  0  0  0  0  0  0  0  0  0  0
   54.6801   -3.6110   -7.8484 C   0  0  0  0  0  0  0  0  0  0  0  0
   56.8036   -4.6579   -8.6811 C   0  0  0  0  0  0  0  0  0  0  0  0
   57.1688   -3.2215   -8.5113 C   0  0  0  0  0  0  0  0  0  0  0  0
   57.4004   -5.5356   -7.5809 C   0  0  0  0  0  0  0  0  0  0  0  0
   58.9064   -5.6036   -7.6924 C   0  0  0  0  0  0  0  0  0  0  0  0
   59.2777   -6.2257   -9.0393 C   0  0  0  0  0  0  0  0  0  0  0  0
   60.7558   -6.5549   -9.1061 C   0  0  0  0  0  0  0  0  0  0  0  0
   61.4639   -5.5261   -8.3090 C   0  0  0  0  0  0  0  0  0  0  0  0
   60.8199   -7.8652   -8.3060 C   0  0  0  0  0  0  0  0  0  0  0  0
   62.1205   -8.5641   -8.3515 C   0  0  0  0  0  0  0  0  0  0  0  0
   62.3544   -9.1504   -9.7007 C   0  0  0  0  0  0  0  0  0  0  0  0
   61.9710  -10.2965   -9.9097 O   0  0  0  0  0  0  0  0  0  0  0  0
   63.0217   -8.4661  -10.8426 C   0  0  0  0  0  0  0  0  0  0  0  0
   62.4960   -9.0377  -12.1121 C   0  0  0  0  0  0  0  0  0  0  0  0
   64.5069   -8.6770  -10.6796 C   0  0  0  0  0  0  0  0  0  0  0  0
   62.6727   -6.9695  -10.6958 C   0  0  0  0  0  0  0  0  0  0  0  0
   63.3290   -6.2772  -11.8501 C   0  0  0  0  0  0  0  0  0  0  0  0
   61.2193   -6.7528  -10.5149 C   0  0  0  0  0  0  0  0  0  0  0  0
  1  2  1  0  0  0
  2  3  1  0  0  0
  3  4  1  0  0  0
  4  5  1  0  0  0
  5  6  1  0  0  0
  6  7  1  0  0  0
  7  8  1  0  0  0
  8  9  1  0  0  0
  9 10  1  0  0  0
  9 11  1  0  0  0
 11 12  1  0  0  0
 11 13  1  0  0  0
 13 14  1  0  0  0
 14 15  1  0  0  0
 15 16  1  0  0  0
 16 17  1  0  0  0
 16 18  1  0  0  0
 18 19  1  0  0  0
 19 20  1  0  0  0
 20 21  2  0  0  0
 20 22  1  0  0  0
 22 23  1  0  0  0
 22 24  1  0  0  0
 22 25  1  0  0  0
 25 26  1  0  0  0
 25 27  1  0  0  0
 27  2  1  0  0  0
 15  4  1  0  0  0
 27 16  1  0  0  0
 11  5  1  0  0  0
M  END
> <minimizedAffinity>
8.64837

> <CNNscore>
0.6259343028

> <CNNaffinity>
5.7192583084

> <CNN_VS>
3.5798799992

> <CNNaffinity_variance>
0.7616748810

$$$$
[H]C([H])([H])C1(C([H])([H])[H])C(=O)C([H])([H])C([H])([H])[C@]2(C([H])([H])[H])[C@@]3([H])C([H])([H])C([H])([H])[C@]4(C([H])([H])[H])[C@@]([H])(C([H])([H])[H])C([H])([H])C([H])([H])C([H])([H])[C@@]4([H])[C@]3([H])C([H])([H])[C@@]([H])(C([H])([H])[H])[C@@]2([H])[C@]1([H])C([H])([H])[H]


 27 30  0  0  0  0  0  0  0  0999 V2000
   57.6793   -3.5364   -7.0613 C   0  0  0  0  0  0  0  0  0  0  0  0
   56.9357   -4.6526   -7.6401 C   0  0  0  0  0  0  0  0  0  0  0  0
   57.7943   -5.9145   -7.7347 C   0  0  0  0  0  0  0  0  0  0  0  0
   58.8725   -5.5704   -8.7364 C   0  0  0  0  0  0  0  0  0  0  0  0
   59.8069   -6.7569   -8.7837 C   0  0  0  0  0  0  0  0  0  0  0  0
   60.2265   -7.1665   -7.4122 C   0  0  0  0  0  0  0  0  0  0  0  0
   61.4367   -8.0413   -7.3792 C   0  0  0  0  0  0  0  0  0  0  0  0
   61.5516   -8.7550   -8.7026 C   0  0  0  0  0  0  0  0  0  0  0  0
   61.7275   -7.8316   -9.8589 C   0  0  0  0  0  0  0  0  0  0  0  0
   63.2243   -7.5547  -10.0478 C   0  0  0  0  0  0  0  0  0  0  0  0
   60.9487   -6.5442   -9.7333 C   0  0  0  0  0  0  0  0  0  0  0  0
   61.8741   -5.4492   -9.3208 C   0  0  0  0  0  0  0  0  0  0  0  0
   60.3194   -6.2788  -11.1009 C   0  0  0  0  0  0  0  0  0  0  0  0
   59.3718   -5.1022  -11.0477 C   0  0  0  0  0  0  0  0  0  0  0  0
   58.2418   -5.4179  -10.0668 C   0  0  0  0  0  0  0  0  0  0  0  0
   57.1293   -4.3924  -10.1584 C   0  0  0  0  0  0  0  0  0  0  0  0
   57.7639   -3.0950  -10.4888 C   0  0  0  0  0  0  0  0  0  0  0  0
   56.3789   -4.8579  -11.4160 C   0  0  0  0  0  0  0  0  0  0  0  0
   55.0977   -4.1688  -11.6722 C   0  0  0  0  0  0  0  0  0  0  0  0
   54.0721   -4.5788  -10.6729 C   0  0  0  0  0  0  0  0  0  0  0  0
   53.3615   -5.5440  -10.9333 O   0  0  0  0  0  0  0  0  0  0  0  0
   53.8212   -3.9174   -9.3625 C   0  0  0  0  0  0  0  0  0  0  0  0
   53.2667   -4.9261   -8.4194 C   0  0  0  0  0  0  0  0  0  0  0  0
   52.8705   -2.7737   -9.6177 C   0  0  0  0  0  0  0  0  0  0  0  0
   55.1915   -3.3821   -8.8945 C   0  0  0  0  0  0  0  0  0  0  0  0
   54.9487   -2.7281   -7.5695 C   0  0  0  0  0  0  0  0  0  0  0  0
   56.2438   -4.4219   -8.9527 C   0  0  0  0  0  0  0  0  0  0  0  0
  1  2  1  0  0  0
  2  3  1  0  0  0
  3  4  1  0  0  0
  4  5  1  0  0  0
  5  6  1  0  0  0
  6  7  1  0  0  0
  7  8  1  0  0  0
  8  9  1  0  0  0
  9 10  1  0  0  0
  9 11  1  0  0  0
 11 12  1  0  0  0
 11 13  1  0  0  0
 13 14  1  0  0  0
 14 15  1  0  0  0
 15 16  1  0  0  0
 16 17  1  0  0  0
 16 18  1  0  0  0
 18 19  1  0  0  0
 19 20  1  0  0  0
 20 21  2  0  0  0
 20 22  1  0  0  0
 22 23  1  0  0  0
 22 24  1  0  0  0
 22 25  1  0  0  0
 25 26  1  0  0  0
 25 27  1  0  0  0
 27  2  1  0  0  0
 15  4  1  0  0  0
 27 16  1  0  0  0
 11  5  1  0  0  0
M  END
> <minimizedAffinity>
9.63254

> <CNNscore>
0.6198752522

> <CNNaffinity>
6.1541953087

> <CNN_VS>
3.8148334026

> <CNNaffinity_variance>
0.9706979990

$$$$
[H]C([H])([H])C1(C([H])([H])[H])C(=O)C([H])([H])C([H])([H])[C@]2(C([H])([H])[H])[C@@]3([H])C([H])([H])C([H])([H])[C@]4(C([H])([H])[H])[C@@]([H])(C([H])([H])[H])C([H])([H])C([H])([H])C([H])([H])[C@@]4([H])[C@]3([H])C([H])([H])[C@@]([H])(C([H])([H])[H])[C@@]2([H])[C@]1([H])C([H])([H])[H]


 27 30  0  0  0  0  0  0  0  0999 V2000
   58.8410   -4.9293   -8.7730 C   0  0  0  0  0  0  0  0  0  0  0  0
   58.4232   -5.7036   -9.9391 C   0  0  0  0  0  0  0  0  0  0  0  0
   59.3319   -6.9116  -10.1700 C   0  0  0  0  0  0  0  0  0  0  0  0
   60.6756   -6.3180  -10.5259 C   0  0  0  0  0  0  0  0  0  0  0  0
   61.6335   -7.4785  -10.6619 C   0  0  0  0  0  0  0  0  0  0  0  0
   61.5556   -8.3822   -9.4778 C   0  0  0  0  0  0  0  0  0  0  0  0
   62.7230   -9.3029   -9.3340 C   0  0  0  0  0  0  0  0  0  0  0  0
   63.3482   -9.5038  -10.6914 C   0  0  0  0  0  0  0  0  0  0  0  0
   63.8727   -8.2452  -11.2929 C   0  0  0  0  0  0  0  0  0  0  0  0
   65.3180   -8.0371  -10.8232 C   0  0  0  0  0  0  0  0  0  0  0  0
   63.0255   -7.0309  -10.9976 C   0  0  0  0  0  0  0  0  0  0  0  0
   63.6737   -6.2312   -9.9178 C   0  0  0  0  0  0  0  0  0  0  0  0
   62.9152   -6.2464  -12.3050 C   0  0  0  0  0  0  0  0  0  0  0  0
   61.9435   -5.0962  -12.1722 C   0  0  0  0  0  0  0  0  0  0  0  0
   60.5573   -5.6518  -11.8424 C   0  0  0  0  0  0  0  0  0  0  0  0
   59.4931   -4.5776  -11.9476 C   0  0  0  0  0  0  0  0  0  0  0  0
   60.1255   -3.3016  -11.5388 C   0  0  0  0  0  0  0  0  0  0  0  0
   59.2741   -4.5033  -13.4668 C   0  0  0  0  0  0  0  0  0  0  0  0
   58.1320   -3.6701  -13.8952 C   0  0  0  0  0  0  0  0  0  0  0  0
   56.8422   -4.3284  -13.5464 C   0  0  0  0  0  0  0  0  0  0  0  0
   56.3316   -5.0783  -14.3718 O   0  0  0  0  0  0  0  0  0  0  0  0
   56.0981   -4.1608  -12.2675 C   0  0  0  0  0  0  0  0  0  0  0  0
   55.3028   -5.3931  -12.0153 C   0  0  0  0  0  0  0  0  0  0  0  0
   55.2362   -2.9308  -12.4136 C   0  0  0  0  0  0  0  0  0  0  0  0
   57.1740   -3.9367  -11.1833 C   0  0  0  0  0  0  0  0  0  0  0  0
   56.4326   -3.7820   -9.8915 C   0  0  0  0  0  0  0  0  0  0  0  0
   58.2368   -4.9661  -11.2339 C   0  0  0  0  0  0  0  0  0  0  0  0
  1  2  1  0  0  0
  2  3  1  0  0  0
  3  4  1  0  0  0
  4  5  1  0  0  0
  5  6  1  0  0  0
  6  7  1  0  0  0
  7  8  1  0  0  0
  8  9  1  0  0  0
  9 10  1  0  0  0
  9 11  1  0  0  0
 11 12  1  0  0  0
 11 13  1  0  0  0
 13 14  1  0  0  0
 14 15  1  0  0  0
 15 16  1  0  0  0
 16 17  1  0  0  0
 16 18  1  0  0  0
 18 19  1  0  0  0
 19 20  1  0  0  0
 20 21  2  0  0  0
 20 22  1  0  0  0
 22 23  1  0  0  0
 22 24  1  0  0  0
 22 25  1  0  0  0
 25 26  1  0  0  0
 25 27  1  0  0  0
 27  2  1  0  0  0
 15  4  1  0  0  0
 27 16  1  0  0  0
 11  5  1  0  0  0
M  END
> <minimizedAffinity>
10.92033

> <CNNscore>
0.5785623193

> <CNNaffinity>
5.3323779106

> <CNN_VS>
3.0851130486

> <CNNaffinity_variance>
0.3300695121

$$$$
[H]C([H])([H])C1(C([H])([H])[H])C(=O)C([H])([H])C([H])([H])[C@]2(C([H])([H])[H])[C@@]3([H])C([H])([H])C([H])([H])[C@]4(C([H])([H])[H])[C@@]([H])(C([H])([H])[H])C([H])([H])C([H])([H])C([H])([H])[C@@]4([H])[C@]3([H])C([H])([H])[C@@]([H])(C([H])([H])[H])[C@@]2([H])[C@]1([H])C([H])([H])[H]


 27 30  0  0  0  0  0  0  0  0999 V2000
   53.5313   -6.5395   -8.3776 C   0  0  0  0  0  0  0  0  0  0  0  0
   52.7315   -5.5607   -9.1098 C   0  0  0  0  0  0  0  0  0  0  0  0
   53.2840   -5.3174  -10.5147 C   0  0  0  0  0  0  0  0  0  0  0  0
   54.6304   -4.6684  -10.2901 C   0  0  0  0  0  0  0  0  0  0  0  0
   55.2589   -4.5040  -11.6542 C   0  0  0  0  0  0  0  0  0  0  0  0
   55.2136   -5.7802  -12.4251 C   0  0  0  0  0  0  0  0  0  0  0  0
   56.1504   -5.8256  -13.5875 C   0  0  0  0  0  0  0  0  0  0  0  0
   56.4376   -4.4130  -14.0303 C   0  0  0  0  0  0  0  0  0  0  0  0
   57.1025   -3.5885  -12.9820 C   0  0  0  0  0  0  0  0  0  0  0  0
   58.6209   -3.7740  -13.0957 C   0  0  0  0  0  0  0  0  0  0  0  0
   56.6228   -3.8833  -11.5811 C   0  0  0  0  0  0  0  0  0  0  0  0
   57.6314   -4.7349  -10.8862 C   0  0  0  0  0  0  0  0  0  0  0  0
   56.4378   -2.5328  -10.8892 C   0  0  0  0  0  0  0  0  0  0  0  0
   55.7930   -2.6976   -9.5319 C   0  0  0  0  0  0  0  0  0  0  0  0
   54.4095   -3.3241   -9.7114 C   0  0  0  0  0  0  0  0  0  0  0  0
   53.6130   -3.2809   -8.4224 C   0  0  0  0  0  0  0  0  0  0  0  0
   54.5821   -3.4239   -7.3109 C   0  0  0  0  0  0  0  0  0  0  0  0
   53.1239   -1.8242   -8.4067 C   0  0  0  0  0  0  0  0  0  0  0  0
   52.1360   -1.5062   -7.3555 C   0  0  0  0  0  0  0  0  0  0  0  0
   50.8252   -2.1465   -7.6562 C   0  0  0  0  0  0  0  0  0  0  0  0
   50.0088   -1.5141   -8.3180 O   0  0  0  0  0  0  0  0  0  0  0  0
   50.4018   -3.5067   -7.2226 C   0  0  0  0  0  0  0  0  0  0  0  0
   49.4159   -4.0334   -8.2052 C   0  0  0  0  0  0  0  0  0  0  0  0
   49.8254   -3.3705   -5.8348 C   0  0  0  0  0  0  0  0  0  0  0  0
   51.6909   -4.3553   -7.1876 C   0  0  0  0  0  0  0  0  0  0  0  0
   51.2698   -5.7291   -6.7662 C   0  0  0  0  0  0  0  0  0  0  0  0
   52.4657   -4.2411   -8.4440 C   0  0  0  0  0  0  0  0  0  0  0  0
  1  2  1  0  0  0
  2  3  1  0  0  0
  3  4  1  0  0  0
  4  5  1  0  0  0
  5  6  1  0  0  0
  6  7  1  0  0  0
  7  8  1  0  0  0
  8  9  1  0  0  0
  9 10  1  0  0  0
  9 11  1  0  0  0
 11 12  1  0  0  0
 11 13  1  0  0  0
 13 14  1  0  0  0
 14 15  1  0  0  0
 15 16  1  0  0  0
 16 17  1  0  0  0
 16 18  1  0  0  0
 18 19  1  0  0  0
 19 20  1  0  0  0
 20 21  2  0  0  0
 20 22  1  0  0  0
 22 23  1  0  0  0
 22 24  1  0  0  0
 22 25  1  0  0  0
 25 26  1  0  0  0
 25 27  1  0  0  0
 27  2  1  0  0  0
 15  4  1  0  0  0
 27 16  1  0  0  0
 11  5  1  0  0  0
M  END
> <minimizedAffinity>
12.61062

> <CNNscore>
0.5698030591

> <CNNaffinity>
6.6323518753

> <CNN_VS>
3.7791342735

> <CNNaffinity_variance>
0.7534763217

$$$$
[H]C([H])([H])C1(C([H])([H])[H])C(=O)C([H])([H])C([H])([H])[C@]2(C([H])([H])[H])[C@@]3([H])C([H])([H])C([H])([H])[C@]4(C([H])([H])[H])[C@@]([H])(C([H])([H])[H])C([H])([H])C([H])([H])C([H])([H])[C@@]4([H])[C@]3([H])C([H])([H])[C@@]([H])(C([H])([H])[H])[C@@]2([H])[C@]1([H])C([H])([H])[H]


 27 30  0  0  0  0  0  0  0  0999 V2000
   63.7064   -6.0414  -10.5790 C   0  0  0  0  0  0  0  0  0  0  0  0
   62.9532   -7.2468  -10.9162 C   0  0  0  0  0  0  0  0  0  0  0  0
   61.4851   -6.9325  -11.2068 C   0  0  0  0  0  0  0  0  0  0  0  0
   60.9277   -6.4506   -9.8872 C   0  0  0  0  0  0  0  0  0  0  0  0
   59.5012   -6.0298  -10.1534 C   0  0  0  0  0  0  0  0  0  0  0  0
   59.4207   -5.1130  -11.3273 C   0  0  0  0  0  0  0  0  0  0  0  0
   58.1455   -4.3400  -11.4125 C   0  0  0  0  0  0  0  0  0  0  0  0
   57.0712   -5.1001  -10.6765 C   0  0  0  0  0  0  0  0  0  0  0  0
   57.3620   -5.2792   -9.2259 C   0  0  0  0  0  0  0  0  0  0  0  0
   56.8204   -4.0662   -8.4591 C   0  0  0  0  0  0  0  0  0  0  0  0
   58.8235   -5.5055   -8.9219 C   0  0  0  0  0  0  0  0  0  0  0  0
   59.4187   -4.2392   -8.4045 C   0  0  0  0  0  0  0  0  0  0  0  0
   58.8862   -6.6322   -7.8908 C   0  0  0  0  0  0  0  0  0  0  0  0
   60.3128   -7.0637   -7.6385 C   0  0  0  0  0  0  0  0  0  0  0  0
   60.9111   -7.5909   -8.9435 C   0  0  0  0  0  0  0  0  0  0  0  0
   62.2441   -8.2715   -8.7039 C   0  0  0  0  0  0  0  0  0  0  0  0
   62.8970   -7.5593   -7.5806 C   0  0  0  0  0  0  0  0  0  0  0  0
   61.8024   -9.6429   -8.1696 C   0  0  0  0  0  0  0  0  0  0  0  0
   62.8857  -10.6363   -8.0218 C   0  0  0  0  0  0  0  0  0  0  0  0
   63.3635  -11.0941   -9.3563 C   0  0  0  0  0  0  0  0  0  0  0  0
   62.8233  -12.0723   -9.8617 O   0  0  0  0  0  0  0  0  0  0  0  0
   64.4550  -10.4667  -10.1515 C   0  0  0  0  0  0  0  0  0  0  0  0
   64.2026  -10.7286  -11.5946 C   0  0  0  0  0  0  0  0  0  0  0  0
   65.7544  -11.0634   -9.6696 C   0  0  0  0  0  0  0  0  0  0  0  0
   64.4011   -8.9597   -9.8208 C   0  0  0  0  0  0  0  0  0  0  0  0
   65.4874   -8.3203  -10.6290 C   0  0  0  0  0  0  0  0  0  0  0  0
   63.0353   -8.4072   -9.9666 C   0  0  0  0  0  0  0  0  0  0  0  0
  1  2  1  0  0  0
  2  3  1  0  0  0
  3  4  1  0  0  0
  4  5  1  0  0  0
  5  6  1  0  0  0
  6  7  1  0  0  0
  7  8  1  0  0  0
  8  9  1  0  0  0
  9 10  1  0  0  0
  9 11  1  0  0  0
 11 12  1  0  0  0
 11 13  1  0  0  0
 13 14  1  0  0  0
 14 15  1  0  0  0
 15 16  1  0  0  0
 16 17  1  0  0  0
 16 18  1  0  0  0
 18 19  1  0  0  0
 19 20  1  0  0  0
 20 21  2  0  0  0
 20 22  1  0  0  0
 22 23  1  0  0  0
 22 24  1  0  0  0
 22 25  1  0  0  0
 25 26  1  0  0  0
 25 27  1  0  0  0
 27  2  1  0  0  0
 15  4  1  0  0  0
 27 16  1  0  0  0
 11  5  1  0  0  0
M  END
> <minimizedAffinity>
4.67843

> <CNNscore>
0.5530967116

> <CNNaffinity>
5.3804359436

> <CNN_VS>
2.9759013653

> <CNNaffinity_variance>
0.7592210770

$$$$
[H]C([H])([H])C1(C([H])([H])[H])C(=O)C([H])([H])C([H])([H])[C@]2(C([H])([H])[H])[C@@]3([H])C([H])([H])C([H])([H])[C@]4(C([H])([H])[H])[C@@]([H])(C([H])([H])[H])C([H])([H])C([H])([H])C([H])([H])[C@@]4([H])[C@]3([H])C([H])([H])[C@@]([H])(C([H])([H])[H])[C@@]2([H])[C@]1([H])C([H])([H])[H]


 27 30  0  0  0  0  0  0  0  0999 V2000
   57.7458   -5.0046  -13.7284 C   0  0  0  0  0  0  0  0  0  0  0  0
   58.4227   -4.1826  -12.7284 C   0  0  0  0  0  0  0  0  0  0  0  0
   59.6999   -3.5527  -13.2858 C   0  0  0  0  0  0  0  0  0  0  0  0
   60.6192   -4.7223  -13.5527 C   0  0  0  0  0  0  0  0  0  0  0  0
   61.8584   -4.1526  -14.2030 C   0  0  0  0  0  0  0  0  0  0  0  0
   61.5053   -3.2610  -15.3455 C   0  0  0  0  0  0  0  0  0  0  0  0
   62.6381   -2.9875  -16.2798 C   0  0  0  0  0  0  0  0  0  0  0  0
   63.9345   -3.1686  -15.5313 C   0  0  0  0  0  0  0  0  0  0  0  0
   64.1328   -4.5539  -15.0190 C   0  0  0  0  0  0  0  0  0  0  0  0
   64.8172   -5.3907  -16.1072 C   0  0  0  0  0  0  0  0  0  0  0  0
   62.8609   -5.2151  -14.5450 C   0  0  0  0  0  0  0  0  0  0  0  0
   62.3873   -6.1714  -15.5875 C   0  0  0  0  0  0  0  0  0  0  0  0
   63.1979   -5.9194  -13.2308 C   0  0  0  0  0  0  0  0  0  0  0  0
   61.9548   -6.4737  -12.5732 C   0  0  0  0  0  0  0  0  0  0  0  0
   61.0041   -5.3190  -12.2540 C   0  0  0  0  0  0  0  0  0  0  0  0
   59.8604   -5.7745  -11.3697 C   0  0  0  0  0  0  0  0  0  0  0  0
   59.5586   -7.1765  -11.7419 C   0  0  0  0  0  0  0  0  0  0  0  0
   60.5306   -5.8115   -9.9874 C   0  0  0  0  0  0  0  0  0  0  0  0
   59.6125   -6.0335   -8.8517 C   0  0  0  0  0  0  0  0  0  0  0  0
   58.7622   -4.8324   -8.6216 C   0  0  0  0  0  0  0  0  0  0  0  0
   59.1705   -3.9719   -7.8487 O   0  0  0  0  0  0  0  0  0  0  0  0
   57.4386   -4.5700   -9.2515 C   0  0  0  0  0  0  0  0  0  0  0  0
   57.2327   -3.0983   -9.3296 C   0  0  0  0  0  0  0  0  0  0  0  0
   56.3989   -5.2596   -8.4027 C   0  0  0  0  0  0  0  0  0  0  0  0
   57.5051   -5.2182  -10.6510 C   0  0  0  0  0  0  0  0  0  0  0  0
   56.1815   -4.9452  -11.2959 C   0  0  0  0  0  0  0  0  0  0  0  0
   58.7174   -4.8093  -11.3960 C   0  0  0  0  0  0  0  0  0  0  0  0
  1  2  1  0  0  0
  2  3  1  0  0  0
  3  4  1  0  0  0
  4  5  1  0  0  0
  5  6  1  0  0  0
  6  7  1  0  0  0
  7  8  1  0  0  0
  8  9  1  0  0  0
  9 10  1  0  0  0
  9 11  1  0  0  0
 11 12  1  0  0  0
 11 13  1  0  0  0
 13 14  1  0  0  0
 14 15  1  0  0  0
 15 16  1  0  0  0
 16 17  1  0  0  0
 16 18  1  0  0  0
 18 19  1  0  0  0
 19 20  1  0  0  0
 20 21  2  0  0  0
 20 22  1  0  0  0
 22 23  1  0  0  0
 22 24  1  0  0  0
 22 25  1  0  0  0
 25 26  1  0  0  0
 25 27  1  0  0  0
 27  2  1  0  0  0
 15  4  1  0  0  0
 27 16  1  0  0  0
 11  5  1  0  0  0
M  END
> <minimizedAffinity>
17.87168

> <CNNscore>
0.5506445169

> <CNNaffinity>
5.3415751457

> <CNN_VS>
2.9413089752

> <CNNaffinity_variance>
0.6777545214

$$$$
[H]C([H])([H])C1(C([H])([H])[H])C(=O)C([H])([H])C([H])([H])[C@]2(C([H])([H])[H])[C@@]3([H])C([H])([H])C([H])([H])[C@]4(C([H])([H])[H])[C@@]([H])(C([H])([H])[H])C([H])([H])C([H])([H])C([H])([H])[C@@]4([H])[C@]3([H])C([H])([H])[C@@]([H])(C([H])([H])[H])[C@@]2([H])[C@]1([H])C([H])([H])[H]


 27 30  0  0  0  0  0  0  0  0999 V2000
   57.1381   -3.7291  -10.9736 C   0  0  0  0  0  0  0  0  0  0  0  0
   57.2440   -5.1417  -10.6168 C   0  0  0  0  0  0  0  0  0  0  0  0
   55.9161   -5.6938  -10.0968 C   0  0  0  0  0  0  0  0  0  0  0  0
   55.6753   -4.9554   -8.8003 C   0  0  0  0  0  0  0  0  0  0  0  0
   54.3186   -5.3964   -8.3024 C   0  0  0  0  0  0  0  0  0  0  0  0
   53.2892   -5.2856   -9.3761 C   0  0  0  0  0  0  0  0  0  0  0  0
   51.8814   -5.3057   -8.8773 C   0  0  0  0  0  0  0  0  0  0  0  0
   51.8512   -6.0182   -7.5486 C   0  0  0  0  0  0  0  0  0  0  0  0
   52.6637   -5.3433   -6.4973 C   0  0  0  0  0  0  0  0  0  0  0  0
   51.7893   -4.3007   -5.7893 C   0  0  0  0  0  0  0  0  0  0  0  0
   53.9367   -4.7208   -7.0185 C   0  0  0  0  0  0  0  0  0  0  0  0
   53.7434   -3.2475   -7.1520 C   0  0  0  0  0  0  0  0  0  0  0  0
   55.0356   -5.0666   -6.0137 C   0  0  0  0  0  0  0  0  0  0  0  0
   56.3942   -4.6402   -6.5211 C   0  0  0  0  0  0  0  0  0  0  0  0
   56.6969   -5.3880   -7.8204 C   0  0  0  0  0  0  0  0  0  0  0  0
   58.1406   -5.1991   -8.2420 C   0  0  0  0  0  0  0  0  0  0  0  0
   58.5404   -3.8376   -7.8159 C   0  0  0  0  0  0  0  0  0  0  0  0
   58.8672   -6.1897   -7.3189 C   0  0  0  0  0  0  0  0  0  0  0  0
   60.2986   -6.3937   -7.6215 C   0  0  0  0  0  0  0  0  0  0  0  0
   60.4634   -7.1562   -8.8904 C   0  0  0  0  0  0  0  0  0  0  0  0
   60.5199   -8.3798   -8.8288 O   0  0  0  0  0  0  0  0  0  0  0  0
   60.5681   -6.5650  -10.2531 C   0  0  0  0  0  0  0  0  0  0  0  0
   60.0600   -7.5551  -11.2411 C   0  0  0  0  0  0  0  0  0  0  0  0
   62.0188   -6.2133  -10.4739 C   0  0  0  0  0  0  0  0  0  0  0  0
   59.7044   -5.2858  -10.2221 C   0  0  0  0  0  0  0  0  0  0  0  0
   59.7936   -4.6938  -11.5946 C   0  0  0  0  0  0  0  0  0  0  0  0
   58.3496   -5.5428   -9.6832 C   0  0  0  0  0  0  0  0  0  0  0  0
  1  2  1  0  0  0
  2  3  1  0  0  0
  3  4  1  0  0  0
  4  5  1  0  0  0
  5  6  1  0  0  0
  6  7  1  0  0  0
  7  8  1  0  0  0
  8  9  1  0  0  0
  9 10  1  0  0  0
  9 11  1  0  0  0
 11 12  1  0  0  0
 11 13  1  0  0  0
 13 14  1  0  0  0
 14 15  1  0  0  0
 15 16  1  0  0  0
 16 17  1  0  0  0
 16 18  1  0  0  0
 18 19  1  0  0  0
 19 20  1  0  0  0
 20 21  2  0  0  0
 20 22  1  0  0  0
 22 23  1  0  0  0
 22 24  1  0  0  0
 22 25  1  0  0  0
 25 26  1  0  0  0
 25 27  1  0  0  0
 27  2  1  0  0  0
 15  4  1  0  0  0
 27 16  1  0  0  0
 11  5  1  0  0  0
M  END
> <minimizedAffinity>
14.97659

> <CNNscore>
0.5487905145

> <CNNaffinity>
6.3664426804

> <CNN_VS>
3.4938433170

> <CNNaffinity_variance>
1.4911715984

$$$$
[H]C([H])([H])C1(C([H])([H])[H])C(=O)C([H])([H])C([H])([H])[C@]2(C([H])([H])[H])[C@@]3([H])C([H])([H])C([H])([H])[C@]4(C([H])([H])[H])[C@@]([H])(C([H])([H])[H])C([H])([H])C([H])([H])C([H])([H])[C@@]4([H])[C@]3([H])C([H])([H])[C@@]([H])(C([H])([H])[H])[C@@]2([H])[C@]1([H])C([H])([H])[H]


 27 30  0  0  0  0  0  0  0  0999 V2000
   60.4277   -6.6980   -4.8316 C   0  0  0  0  0  0  0  0  0  0  0  0
   60.6814   -7.9061   -5.6126 C   0  0  0  0  0  0  0  0  0  0  0  0
   60.9771   -9.1076   -4.7142 C   0  0  0  0  0  0  0  0  0  0  0  0
   62.2856   -8.7682   -4.0383 C   0  0  0  0  0  0  0  0  0  0  0  0
   62.5645   -9.8856   -3.0603 C   0  0  0  0  0  0  0  0  0  0  0  0
   61.3774  -10.1554   -2.1984 C   0  0  0  0  0  0  0  0  0  0  0  0
   61.6841  -10.9371   -0.9632 C   0  0  0  0  0  0  0  0  0  0  0  0
   62.9362  -11.7429   -1.2014 C   0  0  0  0  0  0  0  0  0  0  0  0
   64.1354  -10.9032   -1.4802 C   0  0  0  0  0  0  0  0  0  0  0  0
   64.8035  -10.5370   -0.1489 C   0  0  0  0  0  0  0  0  0  0  0  0
   63.8370   -9.6682   -2.2959 C   0  0  0  0  0  0  0  0  0  0  0  0
   63.7973   -8.4815   -1.3927 C   0  0  0  0  0  0  0  0  0  0  0  0
   64.9464   -9.5564   -3.3417 C   0  0  0  0  0  0  0  0  0  0  0  0
   64.6572   -8.4493   -4.3294 C   0  0  0  0  0  0  0  0  0  0  0  0
   63.3534   -8.7658   -5.0634 C   0  0  0  0  0  0  0  0  0  0  0  0
   63.1411   -7.8319   -6.2383 C   0  0  0  0  0  0  0  0  0  0  0  0
   63.7232   -6.5229   -5.8603 C   0  0  0  0  0  0  0  0  0  0  0  0
   64.0696   -8.4468   -7.2971 C   0  0  0  0  0  0  0  0  0  0  0  0
   63.9421   -7.8722   -8.6520 C   0  0  0  0  0  0  0  0  0  0  0  0
   62.6490   -8.2738   -9.2728 C   0  0  0  0  0  0  0  0  0  0  0  0
   62.6197   -9.3043   -9.9373 O   0  0  0  0  0  0  0  0  0  0  0  0
   61.3633   -7.5306   -9.1625 C   0  0  0  0  0  0  0  0  0  0  0  0
   60.2414   -8.4986   -9.3003 C   0  0  0  0  0  0  0  0  0  0  0  0
   61.3634   -6.4807  -10.2463 C   0  0  0  0  0  0  0  0  0  0  0  0
   61.3827   -6.8646   -7.7699 C   0  0  0  0  0  0  0  0  0  0  0  0
   60.0853   -6.1272   -7.6467 C   0  0  0  0  0  0  0  0  0  0  0  0
   61.7170   -7.8288   -6.6973 C   0  0  0  0  0  0  0  0  0  0  0  0
  1  2  1  0  0  0
  2  3  1  0  0  0
  3  4  1  0  0  0
  4  5  1  0  0  0
  5  6  1  0  0  0
  6  7  1  0  0  0
  7  8  1  0  0  0
  8  9  1  0  0  0
  9 10  1  0  0  0
  9 11  1  0  0  0
 11 12  1  0  0  0
 11 13  1  0  0  0
 13 14  1  0  0  0
 14 15  1  0  0  0
 15 16  1  0  0  0
 16 17  1  0  0  0
 16 18  1  0  0  0
 18 19  1  0  0  0
 19 20  1  0  0  0
 20 21  2  0  0  0
 20 22  1  0  0  0
 22 23  1  0  0  0
 22 24  1  0  0  0
 22 25  1  0  0  0
 25 26  1  0  0  0
 25 27  1  0  0  0
 27  2  1  0  0  0
 15  4  1  0  0  0
 27 16  1  0  0  0
 11  5  1  0  0  0
M  END
> <minimizedAffinity>
3.19378

> <CNNscore>
0.5169373751

> <CNNaffinity>
5.2189645767

> <CNN_VS>
2.6978778839

> <CNNaffinity_variance>
0.7754074931

$$$$
[H]c1c([H])c([H])c(C([H])([H])OC(=O)N([H])[C@]([H])(C(=O)N([H])[C@]([H])(C(=O)c2nc3c([H])c([H])c([H])c([H])c3s2)C([H])([H])C([H])([H])C([H])([H])N=C(N([H])[H])N([H])[H])C([H])([H])c2c([H])c([H])c([H])c([H])c2[H])c([H])c1[H]


 47 50  0  0  0  0  0  0  0  0999 V2000
   56.7699   -5.9422   -6.8935 N   0  0  0  0  0  0  0  0  0  0  0  0
   56.9511   -4.8299   -7.7550 C   0  0  0  0  0  0  0  0  0  0  0  0
   56.2226   -3.8102   -7.6383 O   0  0  0  0  0  0  0  0  0  0  0  0
   57.3443   -6.7886   -6.9688 H   0  0  0  0  0  0  0  0  0  0  0  0
   55.7234   -5.8965   -5.8570 C   0  0  0  0  0  0  0  0  0  0  0  0
   54.4820   -6.3654   -6.4710 C   0  0  0  0  0  0  0  0  0  0  0  0
   54.3967   -7.4962   -6.9968 O   0  0  0  0  0  0  0  0  0  0  0  0
   53.3040   -5.5022   -6.4736 C   0  0  0  0  0  0  0  0  0  0  0  0
   52.3254   -5.4079   -5.5992 N   0  0  0  0  0  0  0  0  0  0  0  0
   51.3486   -4.5664   -5.7786 C   0  0  0  0  0  0  0  0  0  0  0  0
   50.2517   -4.3754   -4.9185 C   0  0  0  0  0  0  0  0  0  0  0  0
   49.2900   -3.4676   -5.2064 C   0  0  0  0  0  0  0  0  0  0  0  0
   49.3122   -2.6837   -6.3327 C   0  0  0  0  0  0  0  0  0  0  0  0
   50.3748   -2.8527   -7.1884 C   0  0  0  0  0  0  0  0  0  0  0  0
   51.3821   -3.7904   -6.9051 C   0  0  0  0  0  0  0  0  0  0  0  0
   52.8265   -4.3202   -7.6456 S   0  0  0  0  0  0  0  0  0  0  0  0
   55.6319   -4.4715   -5.3402 C   0  0  0  0  0  0  0  0  0  0  0  0
   56.0144   -4.4343   -3.8920 C   0  0  0  0  0  0  0  0  0  0  0  0
   55.4657   -5.6711   -3.1929 C   0  0  0  0  0  0  0  0  0  0  0  0
   52.6284   -4.6700   -1.0501 N   0  0  0  0  0  0  0  0  0  0  0  0
   53.9524   -5.0104   -1.4651 C   0  0  0  0  0  0  0  0  0  0  0  0
   55.0407   -5.0188   -0.5532 N   0  0  0  0  0  0  0  0  0  0  0  0
   54.1588   -5.3138   -2.6859 N   0  0  0  0  0  0  0  0  0  0  0  0
   51.8016   -5.1780   -1.4031 H   0  0  0  0  0  0  0  0  0  0  0  0
   52.4772   -3.8879   -0.3713 H   0  0  0  0  0  0  0  0  0  0  0  0
   55.6920   -4.2168   -0.5493 H   0  0  0  0  0  0  0  0  0  0  0  0
   55.1833   -5.8053    0.0938 H   0  0  0  0  0  0  0  0  0  0  0  0
   58.0415   -4.9459   -8.7908 C   0  0  0  0  0  0  0  0  0  0  0  0
   59.1287   -5.6610   -8.1632 N   0  0  0  0  0  0  0  0  0  0  0  0
   60.2678   -6.1722   -8.7999 C   0  0  0  0  0  0  0  0  0  0  0  0
   60.4371   -6.0304  -10.0309 O   0  0  0  0  0  0  0  0  0  0  0  0
   59.0865   -5.8316   -7.1027 H   0  0  0  0  0  0  0  0  0  0  0  0
   61.2347   -6.8474   -8.0823 O   0  0  0  0  0  0  0  0  0  0  0  0
   61.7108   -8.0904   -8.5665 C   0  0  0  0  0  0  0  0  0  0  0  0
   63.1317   -7.9591   -8.9960 C   0  0  0  0  0  0  0  0  0  0  0  0
   63.7673   -6.7216   -8.9582 C   0  0  0  0  0  0  0  0  0  0  0  0
   65.0726   -6.6047   -9.3534 C   0  0  0  0  0  0  0  0  0  0  0  0
   65.7527   -7.7198   -9.7887 C   0  0  0  0  0  0  0  0  0  0  0  0
   65.1316   -8.9285   -9.8254 C   0  0  0  0  0  0  0  0  0  0  0  0
   63.8130   -9.0641   -9.4296 C   0  0  0  0  0  0  0  0  0  0  0  0
   57.4710   -5.5541   -9.9970 C   0  0  0  0  0  0  0  0  0  0  0  0
   57.5250   -4.8087  -11.2509 C   0  0  0  0  0  0  0  0  0  0  0  0
   58.7404   -4.3976  -11.7729 C   0  0  0  0  0  0  0  0  0  0  0  0
   58.7371   -3.6914  -12.9466 C   0  0  0  0  0  0  0  0  0  0  0  0
   57.5416   -3.3900  -13.6057 C   0  0  0  0  0  0  0  0  0  0  0  0
   56.3322   -3.7957  -13.0913 C   0  0  0  0  0  0  0  0  0  0  0  0
   56.3451   -4.5144  -11.8953 C   0  0  0  0  0  0  0  0  0  0  0  0
 20 21  1  0  0  0
 21 22  1  0  0  0
 21 23  2  0  0  0
 23 19  1  0  0  0
 19 18  1  0  0  0
 18 17  1  0  0  0
 17  5  1  0  0  0
  5  1  1  0  0  0
  1  2  1  0  0  0
  2  3  2  0  0  0
  2 28  1  0  0  0
 28 41  1  0  0  0
 41 42  1  0  0  0
 42 43  2  0  0  0
 43 44  1  0  0  0
 44 45  2  0  0  0
 45 46  1  0  0  0
 46 47  2  0  0  0
 28 29  1  0  0  0
 29 30  1  0  0  0
 30 31  2  0  0  0
 30 33  1  0  0  0
 33 34  1  0  0  0
 34 35  1  0  0  0
 35 36  2  0  0  0
 36 37  1  0  0  0
 37 38  2  0  0  0
 38 39  1  0  0  0
 39 40  2  0  0  0
  5  6  1  0  0  0
  6  7  2  0  0  0
  6  8  1  0  0  0
  8  9  2  0  0  0
  9 10  1  0  0  0
 10 11  2  0  0  0
 11 12  1  0  0  0
 12 13  2  0  0  0
 13 14  1  0  0  0
 14 15  2  0  0  0
 15 16  1  0  0  0
 47 42  1  0  0  0
 40 35  1  0  0  0
 16  8  1  0  0  0
 15 10  1  0  0  0
 20 24  1  0  0  0
 20 25  1  0  0  0
 22 26  1  0  0  0
 22 27  1  0  0  0
  1  4  1  0  0  0
 29 32  1  0  0  0
M  END
> <minimizedAffinity>
-8.06283

> <CNNscore>
0.3225718439

> <CNNaffinity>
6.9208731651

> <CNN_VS>
2.2324788570

> <CNNaffinity_variance>
0.4279072881

$$$$
[H]c1c([H])c([H])c(C([H])([H])OC(=O)N([H])[C@]([H])(C(=O)N([H])[C@]([H])(C(=O)c2nc3c([H])c([H])c([H])c([H])c3s2)C([H])([H])C([H])([H])C([H])([H])N=C(N([H])[H])N([H])[H])C([H])([H])c2c([H])c([H])c([H])c([H])c2[H])c([H])c1[H]


 47 50  0  0  0  0  0  0  0  0999 V2000
   56.8500   -6.0457   -6.9586 N   0  0  0  0  0  0  0  0  0  0  0  0
   56.8623   -4.7424   -7.5184 C   0  0  0  0  0  0  0  0  0  0  0  0
   56.3074   -3.7866   -6.9161 O   0  0  0  0  0  0  0  0  0  0  0  0
   57.2886   -6.8447   -7.4292 H   0  0  0  0  0  0  0  0  0  0  0  0
   56.1846   -6.2749   -5.6639 C   0  0  0  0  0  0  0  0  0  0  0  0
   54.8930   -6.9007   -5.9431 C   0  0  0  0  0  0  0  0  0  0  0  0
   54.7864   -8.1331   -6.1228 O   0  0  0  0  0  0  0  0  0  0  0  0
   53.6890   -6.0771   -6.0130 C   0  0  0  0  0  0  0  0  0  0  0  0
   53.3574   -5.1394   -6.8742 N   0  0  0  0  0  0  0  0  0  0  0  0
   52.2240   -4.5076   -6.7698 C   0  0  0  0  0  0  0  0  0  0  0  0
   51.7607   -3.4911   -7.6252 C   0  0  0  0  0  0  0  0  0  0  0  0
   50.5599   -2.9014   -7.4204 C   0  0  0  0  0  0  0  0  0  0  0  0
   49.7236   -3.2426   -6.3870 C   0  0  0  0  0  0  0  0  0  0  0  0
   50.1553   -4.2337   -5.5377 C   0  0  0  0  0  0  0  0  0  0  0  0
   51.3990   -4.8568   -5.7355 C   0  0  0  0  0  0  0  0  0  0  0  0
   52.3079   -6.0818   -4.9684 S   0  0  0  0  0  0  0  0  0  0  0  0
   56.0587   -4.9384   -4.9541 C   0  0  0  0  0  0  0  0  0  0  0  0
   56.5567   -5.0654   -3.5467 C   0  0  0  0  0  0  0  0  0  0  0  0
   55.6132   -5.9625   -2.7563 C   0  0  0  0  0  0  0  0  0  0  0  0
   52.6300   -4.6197   -1.0413 N   0  0  0  0  0  0  0  0  0  0  0  0
   53.5745   -5.5460   -1.5807 C   0  0  0  0  0  0  0  0  0  0  0  0
   53.3920   -6.9493   -1.4653 N   0  0  0  0  0  0  0  0  0  0  0  0
   54.6064   -5.0981   -2.1802 N   0  0  0  0  0  0  0  0  0  0  0  0
   52.3645   -3.7591   -1.5467 H   0  0  0  0  0  0  0  0  0  0  0  0
   52.1876   -4.8048   -0.1111 H   0  0  0  0  0  0  0  0  0  0  0  0
   53.9240   -7.4619   -0.7431 H   0  0  0  0  0  0  0  0  0  0  0  0
   52.7440   -7.4518   -2.0858 H   0  0  0  0  0  0  0  0  0  0  0  0
   57.5626   -4.5814   -8.8447 C   0  0  0  0  0  0  0  0  0  0  0  0
   58.1277   -5.8709   -9.1691 N   0  0  0  0  0  0  0  0  0  0  0  0
   59.4841   -6.2209   -9.1280 C   0  0  0  0  0  0  0  0  0  0  0  0
   60.3539   -5.3924   -8.7794 O   0  0  0  0  0  0  0  0  0  0  0  0
   57.4644   -6.6598   -9.4747 H   0  0  0  0  0  0  0  0  0  0  0  0
   59.8961   -7.4926   -9.4725 O   0  0  0  0  0  0  0  0  0  0  0  0
   61.2827   -7.7699   -9.5549 C   0  0  0  0  0  0  0  0  0  0  0  0
   61.6963   -8.6404   -8.4184 C   0  0  0  0  0  0  0  0  0  0  0  0
   61.6319  -10.0259   -8.5329 C   0  0  0  0  0  0  0  0  0  0  0  0
   62.0127  -10.8225   -7.4869 C   0  0  0  0  0  0  0  0  0  0  0  0
   62.4601  -10.2439   -6.3206 C   0  0  0  0  0  0  0  0  0  0  0  0
   62.5231   -8.8905   -6.2090 C   0  0  0  0  0  0  0  0  0  0  0  0
   62.1420   -8.0710   -7.2564 C   0  0  0  0  0  0  0  0  0  0  0  0
   56.6065   -4.0271   -9.8085 C   0  0  0  0  0  0  0  0  0  0  0  0
   56.9772   -3.9867  -11.2198 C   0  0  0  0  0  0  0  0  0  0  0  0
   58.2649   -3.6448  -11.5991 C   0  0  0  0  0  0  0  0  0  0  0  0
   58.5599   -3.6106  -12.9363 C   0  0  0  0  0  0  0  0  0  0  0  0
   57.5914   -3.9119  -13.8985 C   0  0  0  0  0  0  0  0  0  0  0  0
   56.3115   -4.2516  -13.5269 C   0  0  0  0  0  0  0  0  0  0  0  0
   56.0198   -4.2838  -12.1626 C   0  0  0  0  0  0  0  0  0  0  0  0
 20 21  1  0  0  0
 21 22  1  0  0  0
 21 23  2  0  0  0
 23 19  1  0  0  0
 19 18  1  0  0  0
 18 17  1  0  0  0
 17  5  1  0  0  0
  5  1  1  0  0  0
  1  2  1  0  0  0
  2  3  2  0  0  0
  2 28  1  0  0  0
 28 41  1  0  0  0
 41 42  1  0  0  0
 42 43  2  0  0  0
 43 44  1  0  0  0
 44 45  2  0  0  0
 45 46  1  0  0  0
 46 47  2  0  0  0
 28 29  1  0  0  0
 29 30  1  0  0  0
 30 31  2  0  0  0
 30 33  1  0  0  0
 33 34  1  0  0  0
 34 35  1  0  0  0
 35 36  2  0  0  0
 36 37  1  0  0  0
 37 38  2  0  0  0
 38 39  1  0  0  0
 39 40  2  0  0  0
  5  6  1  0  0  0
  6  7  2  0  0  0
  6  8  1  0  0  0
  8  9  2  0  0  0
  9 10  1  0  0  0
 10 11  2  0  0  0
 11 12  1  0  0  0
 12 13  2  0  0  0
 13 14  1  0  0  0
 14 15  2  0  0  0
 15 16  1  0  0  0
 47 42  1  0  0  0
 40 35  1  0  0  0
 16  8  1  0  0  0
 15 10  1  0  0  0
 20 24  1  0  0  0
 20 25  1  0  0  0
 22 26  1  0  0  0
 22 27  1  0  0  0
  1  4  1  0  0  0
 29 32  1  0  0  0
M  END
> <minimizedAffinity>
-8.11096

> <CNNscore>
0.2964839935

> <CNNaffinity>
6.7779893875

> <CNN_VS>
2.0095653534

> <CNNaffinity_variance>
0.9266117215

$$$$
[H]c1c([H])c([H])c(C([H])([H])OC(=O)N([H])[C@]([H])(C(=O)N([H])[C@]([H])(C(=O)c2nc3c([H])c([H])c([H])c([H])c3s2)C([H])([H])C([H])([H])C([H])([H])N=C(N([H])[H])N([H])[H])C([H])([H])c2c([H])c([H])c([H])c([H])c2[H])c([H])c1[H]


 47 50  0  0  0  0  0  0  0  0999 V2000
   55.4941   -5.6011   -7.7247 N   0  0  0  0  0  0  0  0  0  0  0  0
   56.4611   -4.5971   -7.9873 C   0  0  0  0  0  0  0  0  0  0  0  0
   56.6677   -3.6793   -7.1512 O   0  0  0  0  0  0  0  0  0  0  0  0
   55.3001   -6.3576   -8.3897 H   0  0  0  0  0  0  0  0  0  0  0  0
   54.7324   -5.5653   -6.4636 C   0  0  0  0  0  0  0  0  0  0  0  0
   55.2722   -6.6139   -5.5992 C   0  0  0  0  0  0  0  0  0  0  0  0
   55.1657   -7.8244   -5.8918 O   0  0  0  0  0  0  0  0  0  0  0  0
   55.9580   -6.2510   -4.3620 C   0  0  0  0  0  0  0  0  0  0  0  0
   57.1281   -6.6381   -3.9015 N   0  0  0  0  0  0  0  0  0  0  0  0
   57.5754   -6.1982   -2.7609 C   0  0  0  0  0  0  0  0  0  0  0  0
   58.8048   -6.5379   -2.1670 C   0  0  0  0  0  0  0  0  0  0  0  0
   59.1690   -6.0171   -0.9720 C   0  0  0  0  0  0  0  0  0  0  0  0
   58.3846   -5.1393   -0.2664 C   0  0  0  0  0  0  0  0  0  0  0  0
   57.1783   -4.7926   -0.8272 C   0  0  0  0  0  0  0  0  0  0  0  0
   56.7843   -5.3235   -2.0670 C   0  0  0  0  0  0  0  0  0  0  0  0
   55.4341   -5.1841   -3.1027 S   0  0  0  0  0  0  0  0  0  0  0  0
   53.2631   -5.7617   -6.7932 C   0  0  0  0  0  0  0  0  0  0  0  0
   52.4336   -5.5092   -5.5713 C   0  0  0  0  0  0  0  0  0  0  0  0
   51.2304   -4.6537   -5.9458 C   0  0  0  0  0  0  0  0  0  0  0  0
   51.4519   -2.0705   -8.5767 N   0  0  0  0  0  0  0  0  0  0  0  0
   50.9791   -2.8170   -7.4541 C   0  0  0  0  0  0  0  0  0  0  0  0
   49.7988   -2.4475   -6.7565 N   0  0  0  0  0  0  0  0  0  0  0  0
   51.6357   -3.8403   -7.0713 N   0  0  0  0  0  0  0  0  0  0  0  0
   51.8449   -2.5353   -9.4109 H   0  0  0  0  0  0  0  0  0  0  0  0
   51.4050   -1.0250   -8.5676 H   0  0  0  0  0  0  0  0  0  0  0  0
   49.8892   -1.9430   -5.8595 H   0  0  0  0  0  0  0  0  0  0  0  0
   48.8688   -2.6749   -7.1318 H   0  0  0  0  0  0  0  0  0  0  0  0
   57.2035   -4.6976   -9.2965 C   0  0  0  0  0  0  0  0  0  0  0  0
   57.9303   -5.9457   -9.2609 N   0  0  0  0  0  0  0  0  0  0  0  0
   59.1798   -6.1998   -9.8425 C   0  0  0  0  0  0  0  0  0  0  0  0
   59.7949   -5.3067  -10.4658 O   0  0  0  0  0  0  0  0  0  0  0  0
   57.4929   -6.7798   -8.7426 H   0  0  0  0  0  0  0  0  0  0  0  0
   59.7653   -7.4459   -9.7422 O   0  0  0  0  0  0  0  0  0  0  0  0
   61.1671   -7.5369   -9.5615 C   0  0  0  0  0  0  0  0  0  0  0  0
   61.5770   -8.9666   -9.4694 C   0  0  0  0  0  0  0  0  0  0  0  0
   62.0372   -9.6412  -10.5964 C   0  0  0  0  0  0  0  0  0  0  0  0
   62.4128  -10.9545  -10.5080 C   0  0  0  0  0  0  0  0  0  0  0  0
   62.3324  -11.6039   -9.2967 C   0  0  0  0  0  0  0  0  0  0  0  0
   61.8829  -10.9446   -8.1961 C   0  0  0  0  0  0  0  0  0  0  0  0
   61.4993   -9.6174   -8.2679 C   0  0  0  0  0  0  0  0  0  0  0  0
   56.2390   -4.5354  -10.3891 C   0  0  0  0  0  0  0  0  0  0  0  0
   56.7402   -4.2557  -11.7312 C   0  0  0  0  0  0  0  0  0  0  0  0
   57.9543   -3.6127  -11.9086 C   0  0  0  0  0  0  0  0  0  0  0  0
   58.3757   -3.3633  -13.1879 C   0  0  0  0  0  0  0  0  0  0  0  0
   57.6054   -3.7452  -14.2903 C   0  0  0  0  0  0  0  0  0  0  0  0
   56.3991   -4.3837  -14.1193 C   0  0  0  0  0  0  0  0  0  0  0  0
   55.9777   -4.6335  -12.8127 C   0  0  0  0  0  0  0  0  0  0  0  0
 20 21  1  0  0  0
 21 22  1  0  0  0
 21 23  2  0  0  0
 23 19  1  0  0  0
 19 18  1  0  0  0
 18 17  1  0  0  0
 17  5  1  0  0  0
  5  1  1  0  0  0
  1  2  1  0  0  0
  2  3  2  0  0  0
  2 28  1  0  0  0
 28 41  1  0  0  0
 41 42  1  0  0  0
 42 43  2  0  0  0
 43 44  1  0  0  0
 44 45  2  0  0  0
 45 46  1  0  0  0
 46 47  2  0  0  0
 28 29  1  0  0  0
 29 30  1  0  0  0
 30 31  2  0  0  0
 30 33  1  0  0  0
 33 34  1  0  0  0
 34 35  1  0  0  0
 35 36  2  0  0  0
 36 37  1  0  0  0
 37 38  2  0  0  0
 38 39  1  0  0  0
 39 40  2  0  0  0
  5  6  1  0  0  0
  6  7  2  0  0  0
  6  8  1  0  0  0
  8  9  2  0  0  0
  9 10  1  0  0  0
 10 11  2  0  0  0
 11 12  1  0  0  0
 12 13  2  0  0  0
 13 14  1  0  0  0
 14 15  2  0  0  0
 15 16  1  0  0  0
 47 42  1  0  0  0
 40 35  1  0  0  0
 16  8  1  0  0  0
 15 10  1  0  0  0
 20 24  1  0  0  0
 20 25  1  0  0  0
 22 26  1  0  0  0
 22 27  1  0  0  0
  1  4  1  0  0  0
 29 32  1  0  0  0
M  END
> <minimizedAffinity>
-7.83418

> <CNNscore>
0.2767533064

> <CNNaffinity>
7.0707612038

> <CNN_VS>
1.9568564892

> <CNNaffinity_variance>
0.1766053885

$$$$
[H]c1c([H])c([H])c(C([H])([H])OC(=O)N([H])[C@]([H])(C(=O)N([H])[C@]([H])(C(=O)c2nc3c([H])c([H])c([H])c([H])c3s2)C([H])([H])C([H])([H])C([H])([H])N=C(N([H])[H])N([H])[H])C([H])([H])c2c([H])c([H])c([H])c([H])c2[H])c([H])c1[H]


 47 50  0  0  0  0  0  0  0  0999 V2000
   56.5003   -5.2228   -8.2416 N   0  0  0  0  0  0  0  0  0  0  0  0
   56.3051   -4.4870   -7.0448 C   0  0  0  0  0  0  0  0  0  0  0  0
   56.7321   -3.3070   -6.9471 O   0  0  0  0  0  0  0  0  0  0  0  0
   56.1688   -6.1876   -8.3480 H   0  0  0  0  0  0  0  0  0  0  0  0
   57.2053   -4.5961   -9.3739 C   0  0  0  0  0  0  0  0  0  0  0  0
   56.2013   -4.2729  -10.3866 C   0  0  0  0  0  0  0  0  0  0  0  0
   54.9935   -4.1397  -10.0936 O   0  0  0  0  0  0  0  0  0  0  0  0
   56.6072   -4.0952  -11.7782 C   0  0  0  0  0  0  0  0  0  0  0  0
   55.9656   -4.3905  -12.8882 N   0  0  0  0  0  0  0  0  0  0  0  0
   56.4999   -4.1538  -14.0513 C   0  0  0  0  0  0  0  0  0  0  0  0
   55.9148   -4.4242  -15.3019 C   0  0  0  0  0  0  0  0  0  0  0  0
   56.5652   -4.1347  -16.4530 C   0  0  0  0  0  0  0  0  0  0  0  0
   57.8153   -3.5690  -16.4858 C   0  0  0  0  0  0  0  0  0  0  0  0
   58.4072   -3.2957  -15.2755 C   0  0  0  0  0  0  0  0  0  0  0  0
   57.7464   -3.5896  -14.0709 C   0  0  0  0  0  0  0  0  0  0  0  0
   58.0792   -3.4315  -12.4037 S   0  0  0  0  0  0  0  0  0  0  0  0
   58.2610   -5.5685   -9.8699 C   0  0  0  0  0  0  0  0  0  0  0  0
   59.2830   -5.7941   -8.7977 C   0  0  0  0  0  0  0  0  0  0  0  0
   60.6047   -6.1987   -9.4371 C   0  0  0  0  0  0  0  0  0  0  0  0
   61.2923   -9.7287  -10.2800 N   0  0  0  0  0  0  0  0  0  0  0  0
   61.5003   -8.3557   -9.9445 C   0  0  0  0  0  0  0  0  0  0  0  0
   62.8041   -7.8144   -9.7926 N   0  0  0  0  0  0  0  0  0  0  0  0
   60.4875   -7.5997   -9.7778 N   0  0  0  0  0  0  0  0  0  0  0  0
   60.5566  -10.0197  -10.9437 H   0  0  0  0  0  0  0  0  0  0  0  0
   61.8933  -10.4697   -9.8499 H   0  0  0  0  0  0  0  0  0  0  0  0
   63.1767   -7.6758   -8.8390 H   0  0  0  0  0  0  0  0  0  0  0  0
   63.3719   -7.5631  -10.6124 H   0  0  0  0  0  0  0  0  0  0  0  0
   55.5744   -5.1908   -5.9284 C   0  0  0  0  0  0  0  0  0  0  0  0
   54.3054   -5.6156   -6.4730 N   0  0  0  0  0  0  0  0  0  0  0  0
   53.1397   -5.8980   -5.7480 C   0  0  0  0  0  0  0  0  0  0  0  0
   53.1122   -5.7885   -4.5024 O   0  0  0  0  0  0  0  0  0  0  0  0
   54.2177   -5.7344   -7.5378 H   0  0  0  0  0  0  0  0  0  0  0  0
   51.9888   -6.3055   -6.3921 O   0  0  0  0  0  0  0  0  0  0  0  0
   50.7664   -6.3204   -5.6768 C   0  0  0  0  0  0  0  0  0  0  0  0
   50.1661   -4.9565   -5.6659 C   0  0  0  0  0  0  0  0  0  0  0  0
   50.1817   -4.1710   -6.8147 C   0  0  0  0  0  0  0  0  0  0  0  0
   49.6294   -2.9187   -6.8010 C   0  0  0  0  0  0  0  0  0  0  0  0
   49.0581   -2.4411   -5.6430 C   0  0  0  0  0  0  0  0  0  0  0  0
   49.0429   -3.2085   -4.5211 C   0  0  0  0  0  0  0  0  0  0  0  0
   49.5967   -4.4762   -4.5177 C   0  0  0  0  0  0  0  0  0  0  0  0
   56.4438   -6.2468   -5.3999 C   0  0  0  0  0  0  0  0  0  0  0  0
   56.4140   -6.5284   -3.9680 C   0  0  0  0  0  0  0  0  0  0  0  0
   56.5958   -5.5098   -3.0471 C   0  0  0  0  0  0  0  0  0  0  0  0
   56.5701   -5.8272   -1.7148 C   0  0  0  0  0  0  0  0  0  0  0  0
   56.3659   -7.1430   -1.2888 C   0  0  0  0  0  0  0  0  0  0  0  0
   56.1852   -8.1579   -2.1993 C   0  0  0  0  0  0  0  0  0  0  0  0
   56.2131   -7.8254   -3.5542 C   0  0  0  0  0  0  0  0  0  0  0  0
 20 21  1  0  0  0
 21 22  1  0  0  0
 21 23  2  0  0  0
 23 19  1  0  0  0
 19 18  1  0  0  0
 18 17  1  0  0  0
 17  5  1  0  0  0
  5  1  1  0  0  0
  1  2  1  0  0  0
  2  3  2  0  0  0
  2 28  1  0  0  0
 28 41  1  0  0  0
 41 42  1  0  0  0
 42 43  2  0  0  0
 43 44  1  0  0  0
 44 45  2  0  0  0
 45 46  1  0  0  0
 46 47  2  0  0  0
 28 29  1  0  0  0
 29 30  1  0  0  0
 30 31  2  0  0  0
 30 33  1  0  0  0
 33 34  1  0  0  0
 34 35  1  0  0  0
 35 36  2  0  0  0
 36 37  1  0  0  0
 37 38  2  0  0  0
 38 39  1  0  0  0
 39 40  2  0  0  0
  5  6  1  0  0  0
  6  7  2  0  0  0
  6  8  1  0  0  0
  8  9  2  0  0  0
  9 10  1  0  0  0
 10 11  2  0  0  0
 11 12  1  0  0  0
 12 13  2  0  0  0
 13 14  1  0  0  0
 14 15  2  0  0  0
 15 16  1  0  0  0
 47 42  1  0  0  0
 40 35  1  0  0  0
 16  8  1  0  0  0
 15 10  1  0  0  0
 20 24  1  0  0  0
 20 25  1  0  0  0
 22 26  1  0  0  0
 22 27  1  0  0  0
  1  4  1  0  0  0
 29 32  1  0  0  0
M  END
> <minimizedAffinity>
-8.83203

> <CNNscore>
0.2741894722

> <CNNaffinity>
6.5747375488

> <CNN_VS>
1.8027237654

> <CNNaffinity_variance>
1.0090117455

$$$$
[H]c1c([H])c([H])c(C([H])([H])OC(=O)N([H])[C@]([H])(C(=O)N([H])[C@]([H])(C(=O)c2nc3c([H])c([H])c([H])c([H])c3s2)C([H])([H])C([H])([H])C([H])([H])N=C(N([H])[H])N([H])[H])C([H])([H])c2c([H])c([H])c([H])c([H])c2[H])c([H])c1[H]


 47 50  0  0  0  0  0  0  0  0999 V2000
   56.6520   -5.3794   -6.1434 N   0  0  0  0  0  0  0  0  0  0  0  0
   56.3062   -6.5251   -5.3819 C   0  0  0  0  0  0  0  0  0  0  0  0
   55.6330   -7.4536   -5.9004 O   0  0  0  0  0  0  0  0  0  0  0  0
   57.1944   -4.6047   -5.7461 H   0  0  0  0  0  0  0  0  0  0  0  0
   56.2201   -5.2828   -7.5490 C   0  0  0  0  0  0  0  0  0  0  0  0
   57.4183   -5.0673   -8.3588 C   0  0  0  0  0  0  0  0  0  0  0  0
   58.5656   -5.1923   -7.8786 O   0  0  0  0  0  0  0  0  0  0  0  0
   57.2853   -4.6997   -9.7659 C   0  0  0  0  0  0  0  0  0  0  0  0
   58.2133   -4.5004  -10.6770 N   0  0  0  0  0  0  0  0  0  0  0  0
   57.8931   -4.1740  -11.8958 C   0  0  0  0  0  0  0  0  0  0  0  0
   58.7910   -3.9362  -12.9524 C   0  0  0  0  0  0  0  0  0  0  0  0
   58.3438   -3.6015  -14.1852 C   0  0  0  0  0  0  0  0  0  0  0  0
   57.0119   -3.4719  -14.4899 C   0  0  0  0  0  0  0  0  0  0  0  0
   56.1153   -3.6996  -13.4729 C   0  0  0  0  0  0  0  0  0  0  0  0
   56.5620   -4.0480  -12.1871 C   0  0  0  0  0  0  0  0  0  0  0  0
   55.8440   -4.4088  -10.6806 S   0  0  0  0  0  0  0  0  0  0  0  0
   55.2151   -4.1495   -7.6577 C   0  0  0  0  0  0  0  0  0  0  0  0
   53.8581   -4.6376   -7.2512 C   0  0  0  0  0  0  0  0  0  0  0  0
   52.8263   -4.1648   -8.2669 C   0  0  0  0  0  0  0  0  0  0  0  0
   49.9383   -2.3063   -6.9073 N   0  0  0  0  0  0  0  0  0  0  0  0
   51.0828   -2.6326   -7.6976 C   0  0  0  0  0  0  0  0  0  0  0  0
   51.5885   -1.7419   -8.6809 N   0  0  0  0  0  0  0  0  0  0  0  0
   51.6626   -3.7527   -7.5129 N   0  0  0  0  0  0  0  0  0  0  0  0
   49.8900   -2.5354   -5.9015 H   0  0  0  0  0  0  0  0  0  0  0  0
   49.1201   -1.8225   -7.3453 H   0  0  0  0  0  0  0  0  0  0  0  0
   51.3657   -1.9195   -9.6740 H   0  0  0  0  0  0  0  0  0  0  0  0
   52.1662   -0.9334   -8.4161 H   0  0  0  0  0  0  0  0  0  0  0  0
   56.7831   -6.5568   -3.9512 C   0  0  0  0  0  0  0  0  0  0  0  0
   55.6686   -6.1280   -3.1380 N   0  0  0  0  0  0  0  0  0  0  0  0
   54.6377   -6.9380   -2.6426 C   0  0  0  0  0  0  0  0  0  0  0  0
   54.6123   -8.1660   -2.8783 O   0  0  0  0  0  0  0  0  0  0  0  0
   55.5982   -5.0893   -2.8701 H   0  0  0  0  0  0  0  0  0  0  0  0
   53.6210   -6.3994   -1.8798 O   0  0  0  0  0  0  0  0  0  0  0  0
   52.3411   -7.0053   -1.9096 C   0  0  0  0  0  0  0  0  0  0  0  0
   51.4645   -6.2959   -2.8837 C   0  0  0  0  0  0  0  0  0  0  0  0
   50.4048   -5.5122   -2.4367 C   0  0  0  0  0  0  0  0  0  0  0  0
   49.6017   -4.8620   -3.3343 C   0  0  0  0  0  0  0  0  0  0  0  0
   49.8491   -4.9883   -4.6827 C   0  0  0  0  0  0  0  0  0  0  0  0
   50.8844   -5.7538   -5.1191 C   0  0  0  0  0  0  0  0  0  0  0  0
   51.7056   -6.4177   -4.2255 C   0  0  0  0  0  0  0  0  0  0  0  0
   57.3186   -7.8930   -3.6714 C   0  0  0  0  0  0  0  0  0  0  0  0
   58.1901   -8.0709   -2.5141 C   0  0  0  0  0  0  0  0  0  0  0  0
   57.9929   -9.1282   -1.6412 C   0  0  0  0  0  0  0  0  0  0  0  0
   58.8308   -9.2454   -0.5639 C   0  0  0  0  0  0  0  0  0  0  0  0
   59.8605   -8.3253   -0.3453 C   0  0  0  0  0  0  0  0  0  0  0  0
   60.0603   -7.2737   -1.2090 C   0  0  0  0  0  0  0  0  0  0  0  0
   59.2018   -7.1621   -2.3035 C   0  0  0  0  0  0  0  0  0  0  0  0
 20 21  1  0  0  0
 21 22  1  0  0  0
 21 23  2  0  0  0
 23 19  1  0  0  0
 19 18  1  0  0  0
 18 17  1  0  0  0
 17  5  1  0  0  0
  5  1  1  0  0  0
  1  2  1  0  0  0
  2  3  2  0  0  0
  2 28  1  0  0  0
 28 41  1  0  0  0
 41 42  1  0  0  0
 42 43  2  0  0  0
 43 44  1  0  0  0
 44 45  2  0  0  0
 45 46  1  0  0  0
 46 47  2  0  0  0
 28 29  1  0  0  0
 29 30  1  0  0  0
 30 31  2  0  0  0
 30 33  1  0  0  0
 33 34  1  0  0  0
 34 35  1  0  0  0
 35 36  2  0  0  0
 36 37  1  0  0  0
 37 38  2  0  0  0
 38 39  1  0  0  0
 39 40  2  0  0  0
  5  6  1  0  0  0
  6  7  2  0  0  0
  6  8  1  0  0  0
  8  9  2  0  0  0
  9 10  1  0  0  0
 10 11  2  0  0  0
 11 12  1  0  0  0
 12 13  2  0  0  0
 13 14  1  0  0  0
 14 15  2  0  0  0
 15 16  1  0  0  0
 47 42  1  0  0  0
 40 35  1  0  0  0
 16  8  1  0  0  0
 15 10  1  0  0  0
 20 24  1  0  0  0
 20 25  1  0  0  0
 22 26  1  0  0  0
 22 27  1  0  0  0
  1  4  1  0  0  0
 29 32  1  0  0  0
M  END
> <minimizedAffinity>
-8.03755

> <CNNscore>
0.2565470040

> <CNNaffinity>
7.4448904991

> <CNN_VS>
1.9099643230

> <CNNaffinity_variance>
0.0303921849

$$$$
[H]c1c([H])c([H])c(C([H])([H])OC(=O)N([H])[C@]([H])(C(=O)N([H])[C@]([H])(C(=O)c2nc3c([H])c([H])c([H])c([H])c3s2)C([H])([H])C([H])([H])C([H])([H])N=C(N([H])[H])N([H])[H])C([H])([H])c2c([H])c([H])c([H])c([H])c2[H])c([H])c1[H]


 47 50  0  0  0  0  0  0  0  0999 V2000
   54.4530   -5.5240   -6.3075 N   0  0  0  0  0  0  0  0  0  0  0  0
   53.1479   -5.9225   -6.6946 C   0  0  0  0  0  0  0  0  0  0  0  0
   52.8262   -5.9499   -7.9111 O   0  0  0  0  0  0  0  0  0  0  0  0
   54.7417   -5.4863   -5.3239 H   0  0  0  0  0  0  0  0  0  0  0  0
   55.4336   -5.1437   -7.3398 C   0  0  0  0  0  0  0  0  0  0  0  0
   56.7348   -5.6575   -6.9144 C   0  0  0  0  0  0  0  0  0  0  0  0
   57.7661   -5.4777   -7.5974 O   0  0  0  0  0  0  0  0  0  0  0  0
   56.8465   -6.3979   -5.6606 C   0  0  0  0  0  0  0  0  0  0  0  0
   57.8816   -6.5565   -4.8640 N   0  0  0  0  0  0  0  0  0  0  0  0
   57.7839   -7.2628   -3.7750 C   0  0  0  0  0  0  0  0  0  0  0  0
   58.8151   -7.5031   -2.8485 C   0  0  0  0  0  0  0  0  0  0  0  0
   58.5991   -8.2564   -1.7450 C   0  0  0  0  0  0  0  0  0  0  0  0
   57.3863   -8.8291   -1.4539 C   0  0  0  0  0  0  0  0  0  0  0  0
   56.3632   -8.6080   -2.3451 C   0  0  0  0  0  0  0  0  0  0  0  0
   56.5696   -7.8285   -3.4956 C   0  0  0  0  0  0  0  0  0  0  0  0
   55.6331   -7.3079   -4.8250 S   0  0  0  0  0  0  0  0  0  0  0  0
   55.4071   -3.6321   -7.4827 C   0  0  0  0  0  0  0  0  0  0  0  0
   54.8902   -3.2624   -8.8396 C   0  0  0  0  0  0  0  0  0  0  0  0
   55.2716   -4.3475   -9.8380 C   0  0  0  0  0  0  0  0  0  0  0  0
   57.8667   -3.3023  -12.2499 N   0  0  0  0  0  0  0  0  0  0  0  0
   57.2127   -3.9997  -11.1884 C   0  0  0  0  0  0  0  0  0  0  0  0
   57.8681   -5.0219  -10.4525 N   0  0  0  0  0  0  0  0  0  0  0  0
   56.0100   -3.6941  -10.8967 N   0  0  0  0  0  0  0  0  0  0  0  0
   57.7474   -2.2856  -12.3858 H   0  0  0  0  0  0  0  0  0  0  0  0
   58.4857   -3.8221  -12.9148 H   0  0  0  0  0  0  0  0  0  0  0  0
   57.6577   -6.0083  -10.6765 H   0  0  0  0  0  0  0  0  0  0  0  0
   58.5407   -4.7914   -9.7095 H   0  0  0  0  0  0  0  0  0  0  0  0
   52.1977   -6.2993   -5.5853 C   0  0  0  0  0  0  0  0  0  0  0  0
   52.6093   -5.5498   -4.4207 N   0  0  0  0  0  0  0  0  0  0  0  0
   52.6148   -6.0052   -3.0953 C   0  0  0  0  0  0  0  0  0  0  0  0
   52.2478   -7.1665   -2.8107 O   0  0  0  0  0  0  0  0  0  0  0  0
   52.9510   -4.5394   -4.5549 H   0  0  0  0  0  0  0  0  0  0  0  0
   53.0265   -5.1812   -2.0671 O   0  0  0  0  0  0  0  0  0  0  0  0
   53.7691   -5.7342   -0.9952 C   0  0  0  0  0  0  0  0  0  0  0  0
   55.1910   -5.2969   -1.0820 C   0  0  0  0  0  0  0  0  0  0  0  0
   56.0682   -5.5404   -0.0292 C   0  0  0  0  0  0  0  0  0  0  0  0
   57.3736   -5.1373   -0.1124 C   0  0  0  0  0  0  0  0  0  0  0  0
   57.8134   -4.4893   -1.2447 C   0  0  0  0  0  0  0  0  0  0  0  0
   56.9565   -4.2517   -2.2729 C   0  0  0  0  0  0  0  0  0  0  0  0
   55.6341   -4.6522   -2.2051 C   0  0  0  0  0  0  0  0  0  0  0  0
   50.8266   -6.0749   -6.0543 C   0  0  0  0  0  0  0  0  0  0  0  0
   50.1555   -4.8310   -5.6895 C   0  0  0  0  0  0  0  0  0  0  0  0
   49.5155   -4.7096   -4.4670 C   0  0  0  0  0  0  0  0  0  0  0  0
   48.8910   -3.5256   -4.1763 C   0  0  0  0  0  0  0  0  0  0  0  0
   48.8957   -2.4633   -5.0852 C   0  0  0  0  0  0  0  0  0  0  0  0
   49.5295   -2.5791   -6.3003 C   0  0  0  0  0  0  0  0  0  0  0  0
   50.1629   -3.7887   -6.5881 C   0  0  0  0  0  0  0  0  0  0  0  0
 20 21  1  0  0  0
 21 22  1  0  0  0
 21 23  2  0  0  0
 23 19  1  0  0  0
 19 18  1  0  0  0
 18 17  1  0  0  0
 17  5  1  0  0  0
  5  1  1  0  0  0
  1  2  1  0  0  0
  2  3  2  0  0  0
  2 28  1  0  0  0
 28 41  1  0  0  0
 41 42  1  0  0  0
 42 43  2  0  0  0
 43 44  1  0  0  0
 44 45  2  0  0  0
 45 46  1  0  0  0
 46 47  2  0  0  0
 28 29  1  0  0  0
 29 30  1  0  0  0
 30 31  2  0  0  0
 30 33  1  0  0  0
 33 34  1  0  0  0
 34 35  1  0  0  0
 35 36  2  0  0  0
 36 37  1  0  0  0
 37 38  2  0  0  0
 38 39  1  0  0  0
 39 40  2  0  0  0
  5  6  1  0  0  0
  6  7  2  0  0  0
  6  8  1  0  0  0
  8  9  2  0  0  0
  9 10  1  0  0  0
 10 11  2  0  0  0
 11 12  1  0  0  0
 12 13  2  0  0  0
 13 14  1  0  0  0
 14 15  2  0  0  0
 15 16  1  0  0  0
 47 42  1  0  0  0
 40 35  1  0  0  0
 16  8  1  0  0  0
 15 10  1  0  0  0
 20 24  1  0  0  0
 20 25  1  0  0  0
 22 26  1  0  0  0
 22 27  1  0  0  0
  1  4  1  0  0  0
 29 32  1  0  0  0
M  END
> <minimizedAffinity>
-8.56163

> <CNNscore>
0.2261721194

> <CNNaffinity>
6.9562683105

> <CNN_VS>
1.5733139515

> <CNNaffinity_variance>
0.6424223185

$$$$
[H]c1c([H])c([H])c(C([H])([H])OC(=O)N([H])[C@]([H])(C(=O)N([H])[C@]([H])(C(=O)c2nc3c([H])c([H])c([H])c([H])c3s2)C([H])([H])C([H])([H])C([H])([H])N=C(N([H])[H])N([H])[H])C([H])([H])c2c([H])c([H])c([H])c([H])c2[H])c([H])c1[H]


 47 50  0  0  0  0  0  0  0  0999 V2000
   55.5083   -6.7841   -4.1711 N   0  0  0  0  0  0  0  0  0  0  0  0
   55.2033   -7.0648   -5.5277 C   0  0  0  0  0  0  0  0  0  0  0  0
   54.9800   -8.2470   -5.8976 O   0  0  0  0  0  0  0  0  0  0  0  0
   55.7006   -5.8319   -3.8419 H   0  0  0  0  0  0  0  0  0  0  0  0
   55.5602   -7.8863   -3.1942 C   0  0  0  0  0  0  0  0  0  0  0  0
   54.5500   -7.6110   -2.1735 C   0  0  0  0  0  0  0  0  0  0  0  0
   54.6851   -8.0032   -0.9944 O   0  0  0  0  0  0  0  0  0  0  0  0
   53.3502   -6.8569   -2.5266 C   0  0  0  0  0  0  0  0  0  0  0  0
   52.6320   -6.8822   -3.6287 N   0  0  0  0  0  0  0  0  0  0  0  0
   51.5809   -6.1252   -3.7581 C   0  0  0  0  0  0  0  0  0  0  0  0
   50.7377   -6.0643   -4.8827 C   0  0  0  0  0  0  0  0  0  0  0  0
   49.6674   -5.2363   -4.9073 C   0  0  0  0  0  0  0  0  0  0  0  0
   49.3323   -4.4130   -3.8615 C   0  0  0  0  0  0  0  0  0  0  0  0
   50.1421   -4.4553   -2.7514 C   0  0  0  0  0  0  0  0  0  0  0  0
   51.2571   -5.3090   -2.7086 C   0  0  0  0  0  0  0  0  0  0  0  0
   52.4919   -5.6806   -1.5895 S   0  0  0  0  0  0  0  0  0  0  0  0
   56.9701   -7.9557   -2.6344 C   0  0  0  0  0  0  0  0  0  0  0  0
   57.6026   -6.5986   -2.6898 C   0  0  0  0  0  0  0  0  0  0  0  0
   59.1178   -6.7488   -2.7250 C   0  0  0  0  0  0  0  0  0  0  0  0
   60.7275   -8.6302   -5.4660 N   0  0  0  0  0  0  0  0  0  0  0  0
   60.4824   -8.0714   -4.1742 C   0  0  0  0  0  0  0  0  0  0  0  0
   61.3653   -8.2958   -3.0850 N   0  0  0  0  0  0  0  0  0  0  0  0
   59.4438   -7.3536   -3.9980 N   0  0  0  0  0  0  0  0  0  0  0  0
   60.5519   -8.0944   -6.3312 H   0  0  0  0  0  0  0  0  0  0  0  0
   61.0943   -9.6064   -5.5532 H   0  0  0  0  0  0  0  0  0  0  0  0
   61.1085   -9.0001   -2.3741 H   0  0  0  0  0  0  0  0  0  0  0  0
   62.2452   -7.7704   -2.9997 H   0  0  0  0  0  0  0  0  0  0  0  0
   55.1661   -5.8884   -6.4711 C   0  0  0  0  0  0  0  0  0  0  0  0
   56.4324   -5.8805   -7.1666 N   0  0  0  0  0  0  0  0  0  0  0  0
   57.1993   -4.7527   -7.4893 C   0  0  0  0  0  0  0  0  0  0  0  0
   56.8215   -3.6033   -7.1721 O   0  0  0  0  0  0  0  0  0  0  0  0
   56.8525   -6.8195   -7.4788 H   0  0  0  0  0  0  0  0  0  0  0  0
   58.3946   -4.8820   -8.1676 O   0  0  0  0  0  0  0  0  0  0  0  0
   58.4553   -5.7255   -9.3038 C   0  0  0  0  0  0  0  0  0  0  0  0
   57.9770   -4.9913  -10.5091 C   0  0  0  0  0  0  0  0  0  0  0  0
   58.8732   -4.6109  -11.5037 C   0  0  0  0  0  0  0  0  0  0  0  0
   58.4303   -3.9367  -12.6095 C   0  0  0  0  0  0  0  0  0  0  0  0
   57.0921   -3.6373  -12.7315 C   0  0  0  0  0  0  0  0  0  0  0  0
   56.2169   -4.0091  -11.7600 C   0  0  0  0  0  0  0  0  0  0  0  0
   56.6477   -4.6909  -10.6361 C   0  0  0  0  0  0  0  0  0  0  0  0
   53.9649   -6.0014   -7.3045 C   0  0  0  0  0  0  0  0  0  0  0  0
   53.3279   -4.7794   -7.7859 C   0  0  0  0  0  0  0  0  0  0  0  0
   53.8611   -4.0842   -8.8589 C   0  0  0  0  0  0  0  0  0  0  0  0
   53.2325   -2.9371   -9.2657 C   0  0  0  0  0  0  0  0  0  0  0  0
   52.0824   -2.4746   -8.6193 C   0  0  0  0  0  0  0  0  0  0  0  0
   51.5493   -3.1612   -7.5534 C   0  0  0  0  0  0  0  0  0  0  0  0
   52.1962   -4.3284   -7.1457 C   0  0  0  0  0  0  0  0  0  0  0  0
 20 21  1  0  0  0
 21 22  1  0  0  0
 21 23  2  0  0  0
 23 19  1  0  0  0
 19 18  1  0  0  0
 18 17  1  0  0  0
 17  5  1  0  0  0
  5  1  1  0  0  0
  1  2  1  0  0  0
  2  3  2  0  0  0
  2 28  1  0  0  0
 28 41  1  0  0  0
 41 42  1  0  0  0
 42 43  2  0  0  0
 43 44  1  0  0  0
 44 45  2  0  0  0
 45 46  1  0  0  0
 46 47  2  0  0  0
 28 29  1  0  0  0
 29 30  1  0  0  0
 30 31  2  0  0  0
 30 33  1  0  0  0
 33 34  1  0  0  0
 34 35  1  0  0  0
 35 36  2  0  0  0
 36 37  1  0  0  0
 37 38  2  0  0  0
 38 39  1  0  0  0
 39 40  2  0  0  0
  5  6  1  0  0  0
  6  7  2  0  0  0
  6  8  1  0  0  0
  8  9  2  0  0  0
  9 10  1  0  0  0
 10 11  2  0  0  0
 11 12  1  0  0  0
 12 13  2  0  0  0
 13 14  1  0  0  0
 14 15  2  0  0  0
 15 16  1  0  0  0
 47 42  1  0  0  0
 40 35  1  0  0  0
 16  8  1  0  0  0
 15 10  1  0  0  0
 20 24  1  0  0  0
 20 25  1  0  0  0
 22 26  1  0  0  0
 22 27  1  0  0  0
  1  4  1  0  0  0
 29 32  1  0  0  0
M  END
> <minimizedAffinity>
-9.24045

> <CNNscore>
0.2191328555

> <CNNaffinity>
6.6548700333

> <CNN_VS>
1.4583007097

> <CNNaffinity_variance>
0.6916199923

$$$$
[H]c1c([H])c([H])c(C([H])([H])OC(=O)N([H])[C@]([H])(C(=O)N([H])[C@]([H])(C(=O)c2nc3c([H])c([H])c([H])c([H])c3s2)C([H])([H])C([H])([H])C([H])([H])N=C(N([H])[H])N([H])[H])C([H])([H])c2c([H])c([H])c([H])c([H])c2[H])c([H])c1[H]


 47 50  0  0  0  0  0  0  0  0999 V2000
   55.5503   -5.3261   -7.5791 N   0  0  0  0  0  0  0  0  0  0  0  0
   56.3039   -5.1528   -6.3899 C   0  0  0  0  0  0  0  0  0  0  0  0
   57.2865   -4.3667   -6.3688 O   0  0  0  0  0  0  0  0  0  0  0  0
   54.7485   -5.9640   -7.6278 H   0  0  0  0  0  0  0  0  0  0  0  0
   55.9232   -4.5769   -8.7921 C   0  0  0  0  0  0  0  0  0  0  0  0
   54.6853   -4.2410   -9.4940 C   0  0  0  0  0  0  0  0  0  0  0  0
   54.6204   -4.2338  -10.7423 O   0  0  0  0  0  0  0  0  0  0  0  0
   53.4867   -3.9071   -8.7294 C   0  0  0  0  0  0  0  0  0  0  0  0
   52.8713   -4.5872   -7.7862 N   0  0  0  0  0  0  0  0  0  0  0  0
   51.8005   -4.1169   -7.2145 C   0  0  0  0  0  0  0  0  0  0  0  0
   51.0585   -4.7481   -6.1994 C   0  0  0  0  0  0  0  0  0  0  0  0
   49.9561   -4.1633   -5.6756 C   0  0  0  0  0  0  0  0  0  0  0  0
   49.4901   -2.9392   -6.0858 C   0  0  0  0  0  0  0  0  0  0  0  0
   50.1992   -2.3032   -7.0770 C   0  0  0  0  0  0  0  0  0  0  0  0
   51.3459   -2.8956   -7.6321 C   0  0  0  0  0  0  0  0  0  0  0  0
   52.4930   -2.4926   -8.8308 S   0  0  0  0  0  0  0  0  0  0  0  0
   56.8586   -5.4453   -9.6149 C   0  0  0  0  0  0  0  0  0  0  0  0
   58.0265   -4.6298  -10.0795 C   0  0  0  0  0  0  0  0  0  0  0  0
   57.7367   -4.0790  -11.4696 C   0  0  0  0  0  0  0  0  0  0  0  0
   60.3863   -3.7047  -14.0158 N   0  0  0  0  0  0  0  0  0  0  0  0
   59.0991   -3.6992  -13.3961 C   0  0  0  0  0  0  0  0  0  0  0  0
   57.9322   -3.3086  -14.1045 N   0  0  0  0  0  0  0  0  0  0  0  0
   58.9989   -4.0544  -12.1760 N   0  0  0  0  0  0  0  0  0  0  0  0
   61.0704   -4.4579  -13.8392 H   0  0  0  0  0  0  0  0  0  0  0  0
   60.6570   -2.9321  -14.6679 H   0  0  0  0  0  0  0  0  0  0  0  0
   57.5529   -2.3597  -13.9525 H   0  0  0  0  0  0  0  0  0  0  0  0
   57.4687   -3.9534  -14.7579 H   0  0  0  0  0  0  0  0  0  0  0  0
   55.8642   -5.9501   -5.1872 C   0  0  0  0  0  0  0  0  0  0  0  0
   57.0197   -6.6966   -4.7456 N   0  0  0  0  0  0  0  0  0  0  0  0
   57.0187   -7.8019   -3.8839 C   0  0  0  0  0  0  0  0  0  0  0  0
   55.9509   -8.2519   -3.4130 O   0  0  0  0  0  0  0  0  0  0  0  0
   57.9900   -6.3970   -5.0984 H   0  0  0  0  0  0  0  0  0  0  0  0
   58.1997   -8.4239   -3.5316 O   0  0  0  0  0  0  0  0  0  0  0  0
   58.3361   -8.9566   -2.2263 C   0  0  0  0  0  0  0  0  0  0  0  0
   59.5511   -8.3948   -1.5715 C   0  0  0  0  0  0  0  0  0  0  0  0
   60.8132   -8.8897   -1.8859 C   0  0  0  0  0  0  0  0  0  0  0  0
   61.9270   -8.3712   -1.2824 C   0  0  0  0  0  0  0  0  0  0  0  0
   61.7904   -7.3565   -0.3621 C   0  0  0  0  0  0  0  0  0  0  0  0
   60.5575   -6.8730   -0.0553 C   0  0  0  0  0  0  0  0  0  0  0  0
   59.4216   -7.3858   -0.6558 C   0  0  0  0  0  0  0  0  0  0  0  0
   55.2716   -5.0286   -4.2125 C   0  0  0  0  0  0  0  0  0  0  0  0
   54.1606   -5.4973   -3.3899 C   0  0  0  0  0  0  0  0  0  0  0  0
   53.1547   -6.2728   -3.9426 C   0  0  0  0  0  0  0  0  0  0  0  0
   52.1282   -6.6786   -3.1314 C   0  0  0  0  0  0  0  0  0  0  0  0
   52.0908   -6.3229   -1.7799 C   0  0  0  0  0  0  0  0  0  0  0  0
   53.0871   -5.5529   -1.2265 C   0  0  0  0  0  0  0  0  0  0  0  0
   54.1286   -5.1440   -2.0603 C   0  0  0  0  0  0  0  0  0  0  0  0
 20 21  1  0  0  0
 21 22  1  0  0  0
 21 23  2  0  0  0
 23 19  1  0  0  0
 19 18  1  0  0  0
 18 17  1  0  0  0
 17  5  1  0  0  0
  5  1  1  0  0  0
  1  2  1  0  0  0
  2  3  2  0  0  0
  2 28  1  0  0  0
 28 41  1  0  0  0
 41 42  1  0  0  0
 42 43  2  0  0  0
 43 44  1  0  0  0
 44 45  2  0  0  0
 45 46  1  0  0  0
 46 47  2  0  0  0
 28 29  1  0  0  0
 29 30  1  0  0  0
 30 31  2  0  0  0
 30 33  1  0  0  0
 33 34  1  0  0  0
 34 35  1  0  0  0
 35 36  2  0  0  0
 36 37  1  0  0  0
 37 38  2  0  0  0
 38 39  1  0  0  0
 39 40  2  0  0  0
  5  6  1  0  0  0
  6  7  2  0  0  0
  6  8  1  0  0  0
  8  9  2  0  0  0
  9 10  1  0  0  0
 10 11  2  0  0  0
 11 12  1  0  0  0
 12 13  2  0  0  0
 13 14  1  0  0  0
 14 15  2  0  0  0
 15 16  1  0  0  0
 47 42  1  0  0  0
 40 35  1  0  0  0
 16  8  1  0  0  0
 15 10  1  0  0  0
 20 24  1  0  0  0
 20 25  1  0  0  0
 22 26  1  0  0  0
 22 27  1  0  0  0
  1  4  1  0  0  0
 29 32  1  0  0  0
M  END
> <minimizedAffinity>
-7.22433

> <CNNscore>
0.2143872231

> <CNNaffinity>
7.1882042885

> <CNN_VS>
1.5410591364

> <CNNaffinity_variance>
0.1449072063

$$$$
[H]c1c([H])c([H])c(C([H])([H])OC(=O)N([H])[C@]([H])(C(=O)N([H])[C@]([H])(C(=O)c2nc3c([H])c([H])c([H])c([H])c3s2)C([H])([H])C([H])([H])C([H])([H])N=C(N([H])[H])N([H])[H])C([H])([H])c2c([H])c([H])c([H])c([H])c2[H])c([H])c1[H]


 47 50  0  0  0  0  0  0  0  0999 V2000
   57.1706   -6.1064   -6.6590 N   0  0  0  0  0  0  0  0  0  0  0  0
   57.3009   -4.9600   -7.4842 C   0  0  0  0  0  0  0  0  0  0  0  0
   56.5961   -3.9394   -7.2704 O   0  0  0  0  0  0  0  0  0  0  0  0
   57.7271   -6.9543   -6.8127 H   0  0  0  0  0  0  0  0  0  0  0  0
   56.2051   -6.0952   -5.5457 C   0  0  0  0  0  0  0  0  0  0  0  0
   54.9627   -6.6859   -6.0412 C   0  0  0  0  0  0  0  0  0  0  0  0
   54.8775   -7.9032   -6.3122 O   0  0  0  0  0  0  0  0  0  0  0  0
   53.7835   -5.8442   -6.2254 C   0  0  0  0  0  0  0  0  0  0  0  0
   52.7379   -5.6748   -5.4450 N   0  0  0  0  0  0  0  0  0  0  0  0
   51.7734   -4.8700   -5.7864 C   0  0  0  0  0  0  0  0  0  0  0  0
   50.6104   -4.6075   -5.0395 C   0  0  0  0  0  0  0  0  0  0  0  0
   49.6693   -3.7477   -5.4941 C   0  0  0  0  0  0  0  0  0  0  0  0
   49.7763   -3.0830   -6.6901 C   0  0  0  0  0  0  0  0  0  0  0  0
   50.9046   -3.3237   -7.4377 C   0  0  0  0  0  0  0  0  0  0  0  0
   51.8917   -4.2131   -6.9809 C   0  0  0  0  0  0  0  0  0  0  0  0
   53.3936   -4.7954   -7.5471 S   0  0  0  0  0  0  0  0  0  0  0  0
   56.0384   -4.6598   -5.0791 C   0  0  0  0  0  0  0  0  0  0  0  0
   56.0387   -4.6126   -3.5815 C   0  0  0  0  0  0  0  0  0  0  0  0
   56.6166   -5.9117   -3.0356 C   0  0  0  0  0  0  0  0  0  0  0  0
   54.3974   -8.0674   -1.0177 N   0  0  0  0  0  0  0  0  0  0  0  0
   55.3534   -7.6536   -1.9954 C   0  0  0  0  0  0  0  0  0  0  0  0
   55.9686   -8.5817   -2.8764 N   0  0  0  0  0  0  0  0  0  0  0  0
   55.6598   -6.4189   -2.0764 N   0  0  0  0  0  0  0  0  0  0  0  0
   53.5532   -7.5088   -0.8138 H   0  0  0  0  0  0  0  0  0  0  0  0
   54.5432   -8.9574   -0.4867 H   0  0  0  0  0  0  0  0  0  0  0  0
   56.9302   -8.8989   -2.6715 H   0  0  0  0  0  0  0  0  0  0  0  0
   55.4716   -8.9352   -3.7044 H   0  0  0  0  0  0  0  0  0  0  0  0
   58.3094   -5.0419   -8.6030 C   0  0  0  0  0  0  0  0  0  0  0  0
   59.4703   -5.7092   -8.0605 N   0  0  0  0  0  0  0  0  0  0  0  0
   60.5693   -6.1910   -8.7846 C   0  0  0  0  0  0  0  0  0  0  0  0
   60.6293   -6.0629  -10.0273 O   0  0  0  0  0  0  0  0  0  0  0  0
   59.5235   -5.8644   -6.9981 H   0  0  0  0  0  0  0  0  0  0  0  0
   61.6165   -6.8211   -8.1428 O   0  0  0  0  0  0  0  0  0  0  0  0
   61.3645   -8.0097   -7.4148 C   0  0  0  0  0  0  0  0  0  0  0  0
   61.8950   -7.8797   -6.0284 C   0  0  0  0  0  0  0  0  0  0  0  0
   61.0773   -8.1451   -4.9338 C   0  0  0  0  0  0  0  0  0  0  0  0
   61.5680   -8.0247   -3.6617 C   0  0  0  0  0  0  0  0  0  0  0  0
   62.8760   -7.6394   -3.4719 C   0  0  0  0  0  0  0  0  0  0  0  0
   63.6745   -7.3805   -4.5412 C   0  0  0  0  0  0  0  0  0  0  0  0
   63.1946   -7.4972   -5.8334 C   0  0  0  0  0  0  0  0  0  0  0  0
   57.6694   -5.6815   -9.7570 C   0  0  0  0  0  0  0  0  0  0  0  0
   57.4347   -4.8864  -10.9584 C   0  0  0  0  0  0  0  0  0  0  0  0
   56.1574   -4.4565  -11.2788 C   0  0  0  0  0  0  0  0  0  0  0  0
   55.9876   -3.7225  -12.4227 C   0  0  0  0  0  0  0  0  0  0  0  0
   57.0710   -3.4116  -13.2499 C   0  0  0  0  0  0  0  0  0  0  0  0
   58.3410   -3.8364  -12.9363 C   0  0  0  0  0  0  0  0  0  0  0  0
   58.5046   -4.5837  -11.7692 C   0  0  0  0  0  0  0  0  0  0  0  0
 20 21  1  0  0  0
 21 22  1  0  0  0
 21 23  2  0  0  0
 23 19  1  0  0  0
 19 18  1  0  0  0
 18 17  1  0  0  0
 17  5  1  0  0  0
  5  1  1  0  0  0
  1  2  1  0  0  0
  2  3  2  0  0  0
  2 28  1  0  0  0
 28 41  1  0  0  0
 41 42  1  0  0  0
 42 43  2  0  0  0
 43 44  1  0  0  0
 44 45  2  0  0  0
 45 46  1  0  0  0
 46 47  2  0  0  0
 28 29  1  0  0  0
 29 30  1  0  0  0
 30 31  2  0  0  0
 30 33  1  0  0  0
 33 34  1  0  0  0
 34 35  1  0  0  0
 35 36  2  0  0  0
 36 37  1  0  0  0
 37 38  2  0  0  0
 38 39  1  0  0  0
 39 40  2  0  0  0
  5  6  1  0  0  0
  6  7  2  0  0  0
  6  8  1  0  0  0
  8  9  2  0  0  0
  9 10  1  0  0  0
 10 11  2  0  0  0
 11 12  1  0  0  0
 12 13  2  0  0  0
 13 14  1  0  0  0
 14 15  2  0  0  0
 15 16  1  0  0  0
 47 42  1  0  0  0
 40 35  1  0  0  0
 16  8  1  0  0  0
 15 10  1  0  0  0
 20 24  1  0  0  0
 20 25  1  0  0  0
 22 26  1  0  0  0
 22 27  1  0  0  0
  1  4  1  0  0  0
 29 32  1  0  0  0
M  END
> <minimizedAffinity>
-7.92846

> <CNNscore>
0.1833775640

> <CNNaffinity>
6.6079521179

> <CNN_VS>
1.2117501497

> <CNNaffinity_variance>
0.4372671247

$$$$
[H]ON([H])C(=O)C([H])([H])C([H])([H])C([H])([H])C([H])([H])C([H])([H])C([H])([H])C(=O)N([H])c1c([H])c([H])c(-c2c([H])nnn2C([H])([H])c2c([H])c([H])c(F)c([H])c2[H])c([H])c1[H]


 35 37  0  0  0  0  0  0  0  0999 V2000
   54.1996   -4.0957   -8.4225 C   0  0  0  0  0  0  0  0  0  0  0  0
   55.3461   -4.4560   -7.7719 C   0  0  0  0  0  0  0  0  0  0  0  0
   56.5596   -4.6956   -8.4324 C   0  0  0  0  0  0  0  0  0  0  0  0
   56.6792   -4.5825   -9.7698 C   0  0  0  0  0  0  0  0  0  0  0  0
   55.5128   -4.2077  -10.4652 C   0  0  0  0  0  0  0  0  0  0  0  0
   54.3415   -3.9798   -9.8158 C   0  0  0  0  0  0  0  0  0  0  0  0
   57.8922   -4.7667  -10.5492 C   0  0  0  0  0  0  0  0  0  0  0  0
   58.0052   -4.3073  -11.8935 C   0  0  0  0  0  0  0  0  0  0  0  0
   59.2531   -4.6159  -12.2545 N   0  0  0  0  0  0  0  0  0  0  0  0
   59.8616   -5.1914  -11.2788 N   0  0  0  0  0  0  0  0  0  0  0  0
   59.0331   -5.2997  -10.1921 N   0  0  0  0  0  0  0  0  0  0  0  0
   59.5778   -5.8241   -8.9512 C   0  0  0  0  0  0  0  0  0  0  0  0
   60.6977   -6.7756   -9.3237 C   0  0  0  0  0  0  0  0  0  0  0  0
   61.9835   -6.3121   -9.0659 C   0  0  0  0  0  0  0  0  0  0  0  0
   63.0620   -7.1450   -9.3303 C   0  0  0  0  0  0  0  0  0  0  0  0
   62.8486   -8.4112   -9.8429 C   0  0  0  0  0  0  0  0  0  0  0  0
   63.8987   -9.2673  -10.1121 F   0  0  0  0  0  0  0  0  0  0  0  0
   61.5675   -8.8718  -10.1006 C   0  0  0  0  0  0  0  0  0  0  0  0
   60.4892   -8.0167   -9.8272 C   0  0  0  0  0  0  0  0  0  0  0  0
   52.1185   -2.8119   -8.1093 C   0  0  0  0  0  0  0  0  0  0  0  0
   52.4648   -1.8980   -8.9166 O   0  0  0  0  0  0  0  0  0  0  0  0
   52.9335   -3.9297   -7.8336 N   0  0  0  0  0  0  0  0  0  0  0  0
   52.5885   -4.6576   -7.1801 H   0  0  0  0  0  0  0  0  0  0  0  0
   50.7816   -2.6392   -7.4501 C   0  0  0  0  0  0  0  0  0  0  0  0
   50.2301   -3.9942   -7.1191 C   0  0  0  0  0  0  0  0  0  0  0  0
   50.9835   -4.5910   -5.9617 C   0  0  0  0  0  0  0  0  0  0  0  0
   50.0636   -5.5921   -5.2935 C   0  0  0  0  0  0  0  0  0  0  0  0
   49.5575   -5.1924   -3.9608 C   0  0  0  0  0  0  0  0  0  0  0  0
   49.5023   -3.7129   -3.7736 C   0  0  0  0  0  0  0  0  0  0  0  0
   46.0786   -4.5121   -3.0774 O   0  0  0  0  0  0  0  0  0  0  0  0
   46.9986   -3.9332   -3.5601 N   0  0  0  0  0  0  0  0  0  0  0  0
   48.0931   -3.2446   -4.1342 C   0  0  0  0  0  0  0  0  0  0  0  0
   47.9840   -2.2845   -4.9068 O   0  0  0  0  0  0  0  0  0  0  0  0
   45.8572   -4.3819   -2.1023 H   0  0  0  0  0  0  0  0  0  0  0  0
   46.1493   -3.0848   -4.1961 H   0  0  0  0  0  0  0  0  0  0  0  0
 30 31  1  0  0  0
 31 32  1  0  0  0
 32 33  2  0  0  0
 32 29  1  0  0  0
 29 28  1  0  0  0
 28 27  1  0  0  0
 27 26  1  0  0  0
 26 25  1  0  0  0
 25 24  1  0  0  0
 24 20  1  0  0  0
 20 21  2  0  0  0
 20 22  1  0  0  0
 22  1  1  0  0  0
  1  2  2  0  0  0
  2  3  1  0  0  0
  3  4  2  0  0  0
  4  5  1  0  0  0
  5  6  2  0  0  0
  4  7  1  0  0  0
  7  8  2  0  0  0
  8  9  1  0  0  0
  9 10  2  0  0  0
 10 11  1  0  0  0
 11 12  1  0  0  0
 12 13  1  0  0  0
 13 14  2  0  0  0
 14 15  1  0  0  0
 15 16  2  0  0  0
 16 17  1  0  0  0
 16 18  1  0  0  0
 18 19  2  0  0  0
  6  1  1  0  0  0
 11  7  1  0  0  0
 19 13  1  0  0  0
 30 34  1  0  0  0
 31 35  1  0  0  0
 22 23  1  0  0  0
M  END
> <minimizedAffinity>
-8.41658

> <CNNscore>
0.5418286920

> <CNNaffinity>
6.7618703842

> <CNN_VS>
3.6637754440

> <CNNaffinity_variance>
0.0875102282

$$$$
[H]ON([H])C(=O)C([H])([H])C([H])([H])C([H])([H])C([H])([H])C([H])([H])C([H])([H])C(=O)N([H])c1c([H])c([H])c(-c2c([H])nnn2C([H])([H])c2c([H])c([H])c(F)c([H])c2[H])c([H])c1[H]


 35 37  0  0  0  0  0  0  0  0999 V2000
   53.3293   -3.6342   -8.9312 C   0  0  0  0  0  0  0  0  0  0  0  0
   52.4771   -2.5773   -8.7757 C   0  0  0  0  0  0  0  0  0  0  0  0
   51.4624   -2.5462   -7.8085 C   0  0  0  0  0  0  0  0  0  0  0  0
   51.2585   -3.5682   -6.9543 C   0  0  0  0  0  0  0  0  0  0  0  0
   52.1264   -4.6695   -7.0896 C   0  0  0  0  0  0  0  0  0  0  0  0
   53.1051   -4.6904   -8.0316 C   0  0  0  0  0  0  0  0  0  0  0  0
   50.2682   -3.6240   -5.8918 C   0  0  0  0  0  0  0  0  0  0  0  0
   49.2844   -2.6072   -5.7199 C   0  0  0  0  0  0  0  0  0  0  0  0
   48.5452   -3.0204   -4.6876 N   0  0  0  0  0  0  0  0  0  0  0  0
   48.9879   -4.1476   -4.2553 N   0  0  0  0  0  0  0  0  0  0  0  0
   50.0697   -4.5542   -4.9926 N   0  0  0  0  0  0  0  0  0  0  0  0
   50.6416   -5.8630   -4.7256 C   0  0  0  0  0  0  0  0  0  0  0  0
   51.7219   -5.6716   -3.6793 C   0  0  0  0  0  0  0  0  0  0  0  0
   53.0216   -5.9068   -4.1152 C   0  0  0  0  0  0  0  0  0  0  0  0
   54.0724   -5.7026   -3.2314 C   0  0  0  0  0  0  0  0  0  0  0  0
   53.8181   -5.2744   -1.9416 C   0  0  0  0  0  0  0  0  0  0  0  0
   54.8405   -5.0562   -1.0389 F   0  0  0  0  0  0  0  0  0  0  0  0
   52.5231   -5.0415   -1.5077 C   0  0  0  0  0  0  0  0  0  0  0  0
   51.4732   -5.2528   -2.4144 C   0  0  0  0  0  0  0  0  0  0  0  0
   55.6816   -3.8454   -9.6379 C   0  0  0  0  0  0  0  0  0  0  0  0
   56.1255   -3.8192   -8.4508 O   0  0  0  0  0  0  0  0  0  0  0  0
   54.3048   -3.7676   -9.9351 N   0  0  0  0  0  0  0  0  0  0  0  0
   53.9981   -3.8157  -10.9248 H   0  0  0  0  0  0  0  0  0  0  0  0
   56.7093   -3.9604  -10.7251 C   0  0  0  0  0  0  0  0  0  0  0  0
   56.0051   -4.1781  -12.0314 C   0  0  0  0  0  0  0  0  0  0  0  0
   56.9613   -3.9743  -13.1750 C   0  0  0  0  0  0  0  0  0  0  0  0
   56.2683   -4.4560  -14.4330 C   0  0  0  0  0  0  0  0  0  0  0  0
   56.0786   -3.4284  -15.4818 C   0  0  0  0  0  0  0  0  0  0  0  0
   56.5607   -3.8647  -16.8250 C   0  0  0  0  0  0  0  0  0  0  0  0
   59.0936   -1.3980  -16.2378 O   0  0  0  0  0  0  0  0  0  0  0  0
   58.6314   -2.4575  -16.5176 N   0  0  0  0  0  0  0  0  0  0  0  0
   58.0815   -3.7179  -16.8504 C   0  0  0  0  0  0  0  0  0  0  0  0
   58.7522   -4.7112  -17.1572 O   0  0  0  0  0  0  0  0  0  0  0  0
   59.0936   -1.0859  -15.2790 H   0  0  0  0  0  0  0  0  0  0  0  0
   59.8773   -2.9725  -16.6855 H   0  0  0  0  0  0  0  0  0  0  0  0
 30 31  1  0  0  0
 31 32  1  0  0  0
 32 33  2  0  0  0
 32 29  1  0  0  0
 29 28  1  0  0  0
 28 27  1  0  0  0
 27 26  1  0  0  0
 26 25  1  0  0  0
 25 24  1  0  0  0
 24 20  1  0  0  0
 20 21  2  0  0  0
 20 22  1  0  0  0
 22  1  1  0  0  0
  1  2  2  0  0  0
  2  3  1  0  0  0
  3  4  2  0  0  0
  4  5  1  0  0  0
  5  6  2  0  0  0
  4  7  1  0  0  0
  7  8  2  0  0  0
  8  9  1  0  0  0
  9 10  2  0  0  0
 10 11  1  0  0  0
 11 12  1  0  0  0
 12 13  1  0  0  0
 13 14  2  0  0  0
 14 15  1  0  0  0
 15 16  2  0  0  0
 16 17  1  0  0  0
 16 18  1  0  0  0
 18 19  2  0  0  0
  6  1  1  0  0  0
 11  7  1  0  0  0
 19 13  1  0  0  0
 30 34  1  0  0  0
 31 35  1  0  0  0
 22 23  1  0  0  0
M  END
> <minimizedAffinity>
-9.59029

> <CNNscore>
0.5032522082

> <CNNaffinity>
7.0805816650

> <CNN_VS>
3.5633182526

> <CNNaffinity_variance>
0.0198174082

$$$$
[H]ON([H])C(=O)C([H])([H])C([H])([H])C([H])([H])C([H])([H])C([H])([H])C([H])([H])C(=O)N([H])c1c([H])c([H])c(-c2c([H])nnn2C([H])([H])c2c([H])c([H])c(F)c([H])c2[H])c([H])c1[H]


 35 37  0  0  0  0  0  0  0  0999 V2000
   52.7503   -3.5025   -8.5028 C   0  0  0  0  0  0  0  0  0  0  0  0
   51.8073   -2.5248   -8.3538 C   0  0  0  0  0  0  0  0  0  0  0  0
   50.8259   -2.5522   -7.3525 C   0  0  0  0  0  0  0  0  0  0  0  0
   50.7475   -3.5557   -6.4567 C   0  0  0  0  0  0  0  0  0  0  0  0
   51.7111   -4.5753   -6.5847 C   0  0  0  0  0  0  0  0  0  0  0  0
   52.6565   -4.5402   -7.5598 C   0  0  0  0  0  0  0  0  0  0  0  0
   49.8018   -3.6637   -5.3583 C   0  0  0  0  0  0  0  0  0  0  0  0
   48.8065   -2.6727   -5.1163 C   0  0  0  0  0  0  0  0  0  0  0  0
   48.1172   -3.1319   -4.0690 N   0  0  0  0  0  0  0  0  0  0  0  0
   48.5982   -4.2624   -3.6897 N   0  0  0  0  0  0  0  0  0  0  0  0
   49.6572   -4.6245   -4.4812 N   0  0  0  0  0  0  0  0  0  0  0  0
   50.2641   -5.9290   -4.2778 C   0  0  0  0  0  0  0  0  0  0  0  0
   51.4955   -5.7179   -3.4190 C   0  0  0  0  0  0  0  0  0  0  0  0
   52.6990   -6.1075   -3.9974 C   0  0  0  0  0  0  0  0  0  0  0  0
   53.8785   -5.8987   -3.2960 C   0  0  0  0  0  0  0  0  0  0  0  0
   53.8442   -5.3140   -2.0436 C   0  0  0  0  0  0  0  0  0  0  0  0
   54.9994   -5.0869   -1.3213 F   0  0  0  0  0  0  0  0  0  0  0  0
   52.6449   -4.9272   -1.4676 C   0  0  0  0  0  0  0  0  0  0  0  0
   51.4624   -5.1456   -2.1907 C   0  0  0  0  0  0  0  0  0  0  0  0
   55.0824   -3.7047   -9.2763 C   0  0  0  0  0  0  0  0  0  0  0  0
   55.5522   -3.7702   -8.1008 O   0  0  0  0  0  0  0  0  0  0  0  0
   53.7012   -3.5820   -9.5357 N   0  0  0  0  0  0  0  0  0  0  0  0
   53.3723   -3.5547  -10.5191 H   0  0  0  0  0  0  0  0  0  0  0  0
   56.0840   -3.7609  -10.3921 C   0  0  0  0  0  0  0  0  0  0  0  0
   57.2077   -4.6668   -9.9845 C   0  0  0  0  0  0  0  0  0  0  0  0
   58.1737   -4.8386  -11.1251 C   0  0  0  0  0  0  0  0  0  0  0  0
   57.4381   -4.4722  -12.3977 C   0  0  0  0  0  0  0  0  0  0  0  0
   58.2588   -3.7981  -13.4291 C   0  0  0  0  0  0  0  0  0  0  0  0
   59.7085   -3.7398  -13.0797 C   0  0  0  0  0  0  0  0  0  0  0  0
   59.6110   -1.8926  -16.1495 O   0  0  0  0  0  0  0  0  0  0  0  0
   60.0170   -2.6637  -15.3401 N   0  0  0  0  0  0  0  0  0  0  0  0
   60.4999   -3.5809  -14.3772 C   0  0  0  0  0  0  0  0  0  0  0  0
   61.5243   -4.2607  -14.5154 O   0  0  0  0  0  0  0  0  0  0  0  0
   59.7007   -0.9010  -15.9898 H   0  0  0  0  0  0  0  0  0  0  0  0
   61.0809   -2.9569  -16.1324 H   0  0  0  0  0  0  0  0  0  0  0  0
 30 31  1  0  0  0
 31 32  1  0  0  0
 32 33  2  0  0  0
 32 29  1  0  0  0
 29 28  1  0  0  0
 28 27  1  0  0  0
 27 26  1  0  0  0
 26 25  1  0  0  0
 25 24  1  0  0  0
 24 20  1  0  0  0
 20 21  2  0  0  0
 20 22  1  0  0  0
 22  1  1  0  0  0
  1  2  2  0  0  0
  2  3  1  0  0  0
  3  4  2  0  0  0
  4  5  1  0  0  0
  5  6  2  0  0  0
  4  7  1  0  0  0
  7  8  2  0  0  0
  8  9  1  0  0  0
  9 10  2  0  0  0
 10 11  1  0  0  0
 11 12  1  0  0  0
 12 13  1  0  0  0
 13 14  2  0  0  0
 14 15  1  0  0  0
 15 16  2  0  0  0
 16 17  1  0  0  0
 16 18  1  0  0  0
 18 19  2  0  0  0
  6  1  1  0  0  0
 11  7  1  0  0  0
 19 13  1  0  0  0
 30 34  1  0  0  0
 31 35  1  0  0  0
 22 23  1  0  0  0
M  END
> <minimizedAffinity>
-9.20027

> <CNNscore>
0.4858727753

> <CNNaffinity>
6.9246354103

> <CNN_VS>
3.3644919395

> <CNNaffinity_variance>
0.0572146289

$$$$
[H]ON([H])C(=O)C([H])([H])C([H])([H])C([H])([H])C([H])([H])C([H])([H])C([H])([H])C(=O)N([H])c1c([H])c([H])c(-c2c([H])nnn2C([H])([H])c2c([H])c([H])c(F)c([H])c2[H])c([H])c1[H]


 35 37  0  0  0  0  0  0  0  0999 V2000
   53.9709   -3.9837   -9.2711 C   0  0  0  0  0  0  0  0  0  0  0  0
   53.6819   -4.9590   -8.3585 C   0  0  0  0  0  0  0  0  0  0  0  0
   52.6400   -4.8523   -7.4261 C   0  0  0  0  0  0  0  0  0  0  0  0
   51.8417   -3.7683   -7.3684 C   0  0  0  0  0  0  0  0  0  0  0  0
   52.1149   -2.7489   -8.3014 C   0  0  0  0  0  0  0  0  0  0  0  0
   53.1281   -2.8614   -9.1994 C   0  0  0  0  0  0  0  0  0  0  0  0
   50.7127   -3.5713   -6.4743 C   0  0  0  0  0  0  0  0  0  0  0  0
   49.8897   -2.4096   -6.5389 C   0  0  0  0  0  0  0  0  0  0  0  0
   48.9533   -2.6041   -5.6072 N   0  0  0  0  0  0  0  0  0  0  0  0
   49.1432   -3.7345   -5.0246 N   0  0  0  0  0  0  0  0  0  0  0  0
   50.2408   -4.3671   -5.5484 N   0  0  0  0  0  0  0  0  0  0  0  0
   50.5518   -5.7119   -5.0941 C   0  0  0  0  0  0  0  0  0  0  0  0
   51.6276   -5.5857   -4.0333 C   0  0  0  0  0  0  0  0  0  0  0  0
   51.1733   -5.2574   -2.7604 C   0  0  0  0  0  0  0  0  0  0  0  0
   52.0906   -5.1743   -1.7219 C   0  0  0  0  0  0  0  0  0  0  0  0
   53.4309   -5.4143   -1.9621 C   0  0  0  0  0  0  0  0  0  0  0  0
   54.3689   -5.3456   -0.9506 F   0  0  0  0  0  0  0  0  0  0  0  0
   53.8828   -5.7402   -3.2306 C   0  0  0  0  0  0  0  0  0  0  0  0
   52.9418   -5.8199   -4.2684 C   0  0  0  0  0  0  0  0  0  0  0  0
   56.3368   -4.4369   -9.7951 C   0  0  0  0  0  0  0  0  0  0  0  0
   56.5927   -4.8818   -8.6360 O   0  0  0  0  0  0  0  0  0  0  0  0
   55.0530   -3.9877  -10.1692 N   0  0  0  0  0  0  0  0  0  0  0  0
   54.8971   -3.6541  -11.1389 H   0  0  0  0  0  0  0  0  0  0  0  0
   57.4855   -4.4080  -10.7601 C   0  0  0  0  0  0  0  0  0  0  0  0
   57.2424   -3.3211  -11.7647 C   0  0  0  0  0  0  0  0  0  0  0  0
   57.4949   -3.8360  -13.1556 C   0  0  0  0  0  0  0  0  0  0  0  0
   56.3169   -4.7103  -13.5332 C   0  0  0  0  0  0  0  0  0  0  0  0
   56.0731   -4.8472  -14.9871 C   0  0  0  0  0  0  0  0  0  0  0  0
   56.2330   -3.5642  -15.7322 C   0  0  0  0  0  0  0  0  0  0  0  0
   59.1190   -1.5037  -16.2521 O   0  0  0  0  0  0  0  0  0  0  0  0
   58.4181   -2.4604  -16.3404 N   0  0  0  0  0  0  0  0  0  0  0  0
   57.5841   -3.5985  -16.4453 C   0  0  0  0  0  0  0  0  0  0  0  0
   57.8791   -4.6224  -17.0739 O   0  0  0  0  0  0  0  0  0  0  0  0
   59.5969   -1.3076  -15.3861 H   0  0  0  0  0  0  0  0  0  0  0  0
   59.3579   -3.0977  -17.0862 H   0  0  0  0  0  0  0  0  0  0  0  0
 30 31  1  0  0  0
 31 32  1  0  0  0
 32 33  2  0  0  0
 32 29  1  0  0  0
 29 28  1  0  0  0
 28 27  1  0  0  0
 27 26  1  0  0  0
 26 25  1  0  0  0
 25 24  1  0  0  0
 24 20  1  0  0  0
 20 21  2  0  0  0
 20 22  1  0  0  0
 22  1  1  0  0  0
  1  2  2  0  0  0
  2  3  1  0  0  0
  3  4  2  0  0  0
  4  5  1  0  0  0
  5  6  2  0  0  0
  4  7  1  0  0  0
  7  8  2  0  0  0
  8  9  1  0  0  0
  9 10  2  0  0  0
 10 11  1  0  0  0
 11 12  1  0  0  0
 12 13  1  0  0  0
 13 14  2  0  0  0
 14 15  1  0  0  0
 15 16  2  0  0  0
 16 17  1  0  0  0
 16 18  1  0  0  0
 18 19  2  0  0  0
  6  1  1  0  0  0
 11  7  1  0  0  0
 19 13  1  0  0  0
 30 34  1  0  0  0
 31 35  1  0  0  0
 22 23  1  0  0  0
M  END
> <minimizedAffinity>
-9.57703

> <CNNscore>
0.4162762761

> <CNNaffinity>
6.9444246292

> <CNN_VS>
2.8907992840

> <CNNaffinity_variance>
0.0824534446

$$$$
[H]ON([H])C(=O)C([H])([H])C([H])([H])C([H])([H])C([H])([H])C([H])([H])C([H])([H])C(=O)N([H])c1c([H])c([H])c(-c2c([H])nnn2C([H])([H])c2c([H])c([H])c(F)c([H])c2[H])c([H])c1[H]


 35 37  0  0  0  0  0  0  0  0999 V2000
   55.5307   -4.5627   -9.2779 C   0  0  0  0  0  0  0  0  0  0  0  0
   54.7577   -3.5943   -9.8542 C   0  0  0  0  0  0  0  0  0  0  0  0
   53.5082   -3.2084   -9.3481 C   0  0  0  0  0  0  0  0  0  0  0  0
   52.9801   -3.7716   -8.2438 C   0  0  0  0  0  0  0  0  0  0  0  0
   53.7586   -4.7705   -7.6267 C   0  0  0  0  0  0  0  0  0  0  0  0
   54.9672   -5.1384   -8.1264 C   0  0  0  0  0  0  0  0  0  0  0  0
   51.7188   -3.4215   -7.6121 C   0  0  0  0  0  0  0  0  0  0  0  0
   51.1130   -2.1436   -7.7885 C   0  0  0  0  0  0  0  0  0  0  0  0
   49.9705   -2.2111   -7.1007 N   0  0  0  0  0  0  0  0  0  0  0  0
   49.8536   -3.3712   -6.5586 N   0  0  0  0  0  0  0  0  0  0  0  0
   50.9360   -4.1555   -6.8626 N   0  0  0  0  0  0  0  0  0  0  0  0
   50.9331   -5.5430   -6.4312 C   0  0  0  0  0  0  0  0  0  0  0  0
   51.4035   -5.5621   -4.9901 C   0  0  0  0  0  0  0  0  0  0  0  0
   50.4223   -5.2999   -4.0398 C   0  0  0  0  0  0  0  0  0  0  0  0
   50.7612   -5.3502   -2.6946 C   0  0  0  0  0  0  0  0  0  0  0  0
   52.0563   -5.6553   -2.3187 C   0  0  0  0  0  0  0  0  0  0  0  0
   52.4257   -5.7193   -0.9893 F   0  0  0  0  0  0  0  0  0  0  0  0
   53.0335   -5.9152   -3.2659 C   0  0  0  0  0  0  0  0  0  0  0  0
   52.6732   -5.8601   -4.6209 C   0  0  0  0  0  0  0  0  0  0  0  0
   57.9055   -5.1566   -8.9864 C   0  0  0  0  0  0  0  0  0  0  0  0
   57.9229   -4.8229   -7.7636 O   0  0  0  0  0  0  0  0  0  0  0  0
   56.7456   -5.0588   -9.7832 N   0  0  0  0  0  0  0  0  0  0  0  0
   56.7849   -5.3672  -10.7728 H   0  0  0  0  0  0  0  0  0  0  0  0
   59.1999   -5.6635   -9.5514 C   0  0  0  0  0  0  0  0  0  0  0  0
   60.0659   -6.1352   -8.4213 C   0  0  0  0  0  0  0  0  0  0  0  0
   61.4692   -6.3726   -8.9089 C   0  0  0  0  0  0  0  0  0  0  0  0
   61.4356   -6.3178  -10.4224 C   0  0  0  0  0  0  0  0  0  0  0  0
   62.6810   -6.7487  -11.0972 C   0  0  0  0  0  0  0  0  0  0  0  0
   62.7762   -6.2778  -12.5100 C   0  0  0  0  0  0  0  0  0  0  0  0
   64.8355   -3.5071  -13.4731 O   0  0  0  0  0  0  0  0  0  0  0  0
   64.5638   -4.6234  -13.1659 N   0  0  0  0  0  0  0  0  0  0  0  0
   64.2405   -5.9515  -12.8004 C   0  0  0  0  0  0  0  0  0  0  0  0
   65.0672   -6.8660  -12.6966 O   0  0  0  0  0  0  0  0  0  0  0  0
   64.8253   -2.7768  -12.7778 H   0  0  0  0  0  0  0  0  0  0  0  0
   65.8736   -4.9771  -13.2379 H   0  0  0  0  0  0  0  0  0  0  0  0
 30 31  1  0  0  0
 31 32  1  0  0  0
 32 33  2  0  0  0
 32 29  1  0  0  0
 29 28  1  0  0  0
 28 27  1  0  0  0
 27 26  1  0  0  0
 26 25  1  0  0  0
 25 24  1  0  0  0
 24 20  1  0  0  0
 20 21  2  0  0  0
 20 22  1  0  0  0
 22  1  1  0  0  0
  1  2  2  0  0  0
  2  3  1  0  0  0
  3  4  2  0  0  0
  4  5  1  0  0  0
  5  6  2  0  0  0
  4  7  1  0  0  0
  7  8  2  0  0  0
  8  9  1  0  0  0
  9 10  2  0  0  0
 10 11  1  0  0  0
 11 12  1  0  0  0
 12 13  1  0  0  0
 13 14  2  0  0  0
 14 15  1  0  0  0
 15 16  2  0  0  0
 16 17  1  0  0  0
 16 18  1  0  0  0
 18 19  2  0  0  0
  6  1  1  0  0  0
 11  7  1  0  0  0
 19 13  1  0  0  0
 30 34  1  0  0  0
 31 35  1  0  0  0
 22 23  1  0  0  0
M  END
> <minimizedAffinity>
-7.61506

> <CNNscore>
0.3871665597

> <CNNaffinity>
6.5114850998

> <CNN_VS>
2.5210292339

> <CNNaffinity_variance>
0.0449352637

$$$$
[H]ON([H])C(=O)C([H])([H])C([H])([H])C([H])([H])C([H])([H])C([H])([H])C([H])([H])C(=O)N([H])c1c([H])c([H])c(-c2c([H])nnn2C([H])([H])c2c([H])c([H])c(F)c([H])c2[H])c([H])c1[H]


 35 37  0  0  0  0  0  0  0  0999 V2000
   55.8075   -4.0419   -9.3811 C   0  0  0  0  0  0  0  0  0  0  0  0
   54.4630   -3.9880   -9.1424 C   0  0  0  0  0  0  0  0  0  0  0  0
   53.8738   -4.4655   -7.9630 C   0  0  0  0  0  0  0  0  0  0  0  0
   54.6032   -5.0140   -6.9717 C   0  0  0  0  0  0  0  0  0  0  0  0
   55.9934   -5.0781   -7.1898 C   0  0  0  0  0  0  0  0  0  0  0  0
   56.5541   -4.6143   -8.3371 C   0  0  0  0  0  0  0  0  0  0  0  0
   54.1033   -5.5011   -5.6968 C   0  0  0  0  0  0  0  0  0  0  0  0
   54.8770   -5.4273   -4.5022 C   0  0  0  0  0  0  0  0  0  0  0  0
   54.0830   -5.9255   -3.5514 N   0  0  0  0  0  0  0  0  0  0  0  0
   52.9535   -6.2701   -4.0603 N   0  0  0  0  0  0  0  0  0  0  0  0
   52.9347   -6.0146   -5.4069 N   0  0  0  0  0  0  0  0  0  0  0  0
   51.6993   -6.2342   -6.1397 C   0  0  0  0  0  0  0  0  0  0  0  0
   50.7812   -5.0699   -5.8234 C   0  0  0  0  0  0  0  0  0  0  0  0
   50.1644   -5.1191   -4.5778 C   0  0  0  0  0  0  0  0  0  0  0  0
   49.3490   -4.0643   -4.1913 C   0  0  0  0  0  0  0  0  0  0  0  0
   49.1599   -2.9894   -5.0400 C   0  0  0  0  0  0  0  0  0  0  0  0
   48.3598   -1.9211   -4.6842 F   0  0  0  0  0  0  0  0  0  0  0  0
   49.7738   -2.9415   -6.2811 C   0  0  0  0  0  0  0  0  0  0  0  0
   50.5947   -4.0162   -6.6554 C   0  0  0  0  0  0  0  0  0  0  0  0
   57.4765   -4.4432  -11.1505 C   0  0  0  0  0  0  0  0  0  0  0  0
   57.8713   -5.5357  -10.6431 O   0  0  0  0  0  0  0  0  0  0  0  0
   56.4501   -3.6660  -10.5740 N   0  0  0  0  0  0  0  0  0  0  0  0
   56.1534   -2.7910  -11.0456 H   0  0  0  0  0  0  0  0  0  0  0  0
   58.1688   -4.0113  -12.4098 C   0  0  0  0  0  0  0  0  0  0  0  0
   57.1307   -3.6193  -13.4190 C   0  0  0  0  0  0  0  0  0  0  0  0
   56.2110   -4.7781  -13.6922 C   0  0  0  0  0  0  0  0  0  0  0  0
   56.1203   -4.9367  -15.1960 C   0  0  0  0  0  0  0  0  0  0  0  0
   55.9535   -3.6762  -15.9544 C   0  0  0  0  0  0  0  0  0  0  0  0
   56.6899   -3.6703  -17.2523 C   0  0  0  0  0  0  0  0  0  0  0  0
   59.1965   -1.4171  -16.0334 O   0  0  0  0  0  0  0  0  0  0  0  0
   58.7352   -2.4312  -16.4497 N   0  0  0  0  0  0  0  0  0  0  0  0
   58.1865   -3.6377  -16.9448 C   0  0  0  0  0  0  0  0  0  0  0  0
   58.8388   -4.6703  -17.1416 O   0  0  0  0  0  0  0  0  0  0  0  0
   59.0096   -1.1309  -15.0848 H   0  0  0  0  0  0  0  0  0  0  0  0
   59.9500   -3.0340  -16.3677 H   0  0  0  0  0  0  0  0  0  0  0  0
 30 31  1  0  0  0
 31 32  1  0  0  0
 32 33  2  0  0  0
 32 29  1  0  0  0
 29 28  1  0  0  0
 28 27  1  0  0  0
 27 26  1  0  0  0
 26 25  1  0  0  0
 25 24  1  0  0  0
 24 20  1  0  0  0
 20 21  2  0  0  0
 20 22  1  0  0  0
 22  1  1  0  0  0
  1  2  2  0  0  0
  2  3  1  0  0  0
  3  4  2  0  0  0
  4  5  1  0  0  0
  5  6  2  0  0  0
  4  7  1  0  0  0
  7  8  2  0  0  0
  8  9  1  0  0  0
  9 10  2  0  0  0
 10 11  1  0  0  0
 11 12  1  0  0  0
 12 13  1  0  0  0
 13 14  2  0  0  0
 14 15  1  0  0  0
 15 16  2  0  0  0
 16 17  1  0  0  0
 16 18  1  0  0  0
 18 19  2  0  0  0
  6  1  1  0  0  0
 11  7  1  0  0  0
 19 13  1  0  0  0
 30 34  1  0  0  0
 31 35  1  0  0  0
 22 23  1  0  0  0
M  END
> <minimizedAffinity>
-9.75509

> <CNNscore>
0.3785376549

> <CNNaffinity>
6.7225370407

> <CNN_VS>
2.5447335243

> <CNNaffinity_variance>
0.1187040359

$$$$
[H]ON([H])C(=O)C([H])([H])C([H])([H])C([H])([H])C([H])([H])C([H])([H])C([H])([H])C(=O)N([H])c1c([H])c([H])c(-c2c([H])nnn2C([H])([H])c2c([H])c([H])c(F)c([H])c2[H])c([H])c1[H]


 35 37  0  0  0  0  0  0  0  0999 V2000
   53.5523   -4.0248   -8.0968 C   0  0  0  0  0  0  0  0  0  0  0  0
   54.6672   -4.4100   -7.4069 C   0  0  0  0  0  0  0  0  0  0  0  0
   55.8997   -4.6684   -8.0238 C   0  0  0  0  0  0  0  0  0  0  0  0
   56.0706   -4.5498   -9.3551 C   0  0  0  0  0  0  0  0  0  0  0  0
   54.9378   -4.1494  -10.0906 C   0  0  0  0  0  0  0  0  0  0  0  0
   53.7476   -3.9035   -9.4832 C   0  0  0  0  0  0  0  0  0  0  0  0
   57.3079   -4.7519  -10.0905 C   0  0  0  0  0  0  0  0  0  0  0  0
   58.2205   -5.7968   -9.7639 C   0  0  0  0  0  0  0  0  0  0  0  0
   59.1976   -5.6896  -10.6675 N   0  0  0  0  0  0  0  0  0  0  0  0
   58.9494   -4.7138  -11.4673 N   0  0  0  0  0  0  0  0  0  0  0  0
   57.7678   -4.1053  -11.1315 N   0  0  0  0  0  0  0  0  0  0  0  0
   57.2608   -3.0483  -11.9900 C   0  0  0  0  0  0  0  0  0  0  0  0
   57.2315   -3.5978  -13.4027 C   0  0  0  0  0  0  0  0  0  0  0  0
   56.2075   -4.5004  -13.6696 C   0  0  0  0  0  0  0  0  0  0  0  0
   56.0805   -5.0093  -14.9548 C   0  0  0  0  0  0  0  0  0  0  0  0
   56.9645   -4.6192  -15.9437 C   0  0  0  0  0  0  0  0  0  0  0  0
   56.8629   -5.1019  -17.2338 F   0  0  0  0  0  0  0  0  0  0  0  0
   57.9850   -3.7210  -15.6768 C   0  0  0  0  0  0  0  0  0  0  0  0
   58.0985   -3.2165  -14.3724 C   0  0  0  0  0  0  0  0  0  0  0  0
   51.4827   -2.7071   -7.8566 C   0  0  0  0  0  0  0  0  0  0  0  0
   51.8732   -1.7978   -8.6488 O   0  0  0  0  0  0  0  0  0  0  0  0
   52.2685   -3.8388   -7.5539 N   0  0  0  0  0  0  0  0  0  0  0  0
   51.8881   -4.5619   -6.9150 H   0  0  0  0  0  0  0  0  0  0  0  0
   50.1258   -2.5133   -7.2459 C   0  0  0  0  0  0  0  0  0  0  0  0
   49.8719   -3.6279   -6.2749 C   0  0  0  0  0  0  0  0  0  0  0  0
   49.2537   -3.0859   -5.0149 C   0  0  0  0  0  0  0  0  0  0  0  0
   49.3498   -4.1715   -3.9627 C   0  0  0  0  0  0  0  0  0  0  0  0
   50.1566   -5.3521   -4.3462 C   0  0  0  0  0  0  0  0  0  0  0  0
   51.4178   -5.4817   -3.5591 C   0  0  0  0  0  0  0  0  0  0  0  0
   54.9982   -5.5414   -3.7090 O   0  0  0  0  0  0  0  0  0  0  0  0
   53.8775   -5.6764   -4.0834 N   0  0  0  0  0  0  0  0  0  0  0  0
   52.5442   -5.8368   -4.5288 C   0  0  0  0  0  0  0  0  0  0  0  0
   52.2301   -6.2501   -5.6518 O   0  0  0  0  0  0  0  0  0  0  0  0
   55.3876   -6.1892   -3.0415 H   0  0  0  0  0  0  0  0  0  0  0  0
   54.3186   -6.1466   -5.2792 H   0  0  0  0  0  0  0  0  0  0  0  0
 30 31  1  0  0  0
 31 32  1  0  0  0
 32 33  2  0  0  0
 32 29  1  0  0  0
 29 28  1  0  0  0
 28 27  1  0  0  0
 27 26  1  0  0  0
 26 25  1  0  0  0
 25 24  1  0  0  0
 24 20  1  0  0  0
 20 21  2  0  0  0
 20 22  1  0  0  0
 22  1  1  0  0  0
  1  2  2  0  0  0
  2  3  1  0  0  0
  3  4  2  0  0  0
  4  5  1  0  0  0
  5  6  2  0  0  0
  4  7  1  0  0  0
  7  8  2  0  0  0
  8  9  1  0  0  0
  9 10  2  0  0  0
 10 11  1  0  0  0
 11 12  1  0  0  0
 12 13  1  0  0  0
 13 14  2  0  0  0
 14 15  1  0  0  0
 15 16  2  0  0  0
 16 17  1  0  0  0
 16 18  1  0  0  0
 18 19  2  0  0  0
  6  1  1  0  0  0
 11  7  1  0  0  0
 19 13  1  0  0  0
 30 34  1  0  0  0
 31 35  1  0  0  0
 22 23  1  0  0  0
M  END
> <minimizedAffinity>
-8.78403

> <CNNscore>
0.3395728171

> <CNNaffinity>
6.5823044777

> <CNN_VS>
2.2351715565

> <CNNaffinity_variance>
0.4779093862

$$$$
[H]ON([H])C(=O)C([H])([H])C([H])([H])C([H])([H])C([H])([H])C([H])([H])C([H])([H])C(=O)N([H])c1c([H])c([H])c(-c2c([H])nnn2C([H])([H])c2c([H])c([H])c(F)c([H])c2[H])c([H])c1[H]


 35 37  0  0  0  0  0  0  0  0999 V2000
   55.9855   -3.8083   -9.8393 C   0  0  0  0  0  0  0  0  0  0  0  0
   54.6409   -3.8960   -9.6117 C   0  0  0  0  0  0  0  0  0  0  0  0
   54.0955   -4.4255   -8.4333 C   0  0  0  0  0  0  0  0  0  0  0  0
   54.8705   -4.8866   -7.4321 C   0  0  0  0  0  0  0  0  0  0  0  0
   56.2615   -4.8040   -7.6387 C   0  0  0  0  0  0  0  0  0  0  0  0
   56.7797   -4.2910   -8.7851 C   0  0  0  0  0  0  0  0  0  0  0  0
   54.4142   -5.4155   -6.1575 C   0  0  0  0  0  0  0  0  0  0  0  0
   55.2383   -5.4046   -4.9947 C   0  0  0  0  0  0  0  0  0  0  0  0
   54.4744   -5.9259   -4.0317 N   0  0  0  0  0  0  0  0  0  0  0  0
   53.3179   -6.2284   -4.5055 N   0  0  0  0  0  0  0  0  0  0  0  0
   53.2484   -5.9183   -5.8390 N   0  0  0  0  0  0  0  0  0  0  0  0
   51.9794   -6.0848   -6.5270 C   0  0  0  0  0  0  0  0  0  0  0  0
   51.0436   -5.0148   -5.9999 C   0  0  0  0  0  0  0  0  0  0  0  0
   50.8419   -3.9302   -6.8469 C   0  0  0  0  0  0  0  0  0  0  0  0
   49.9579   -2.9325   -6.4597 C   0  0  0  0  0  0  0  0  0  0  0  0
   49.2965   -3.0261   -5.2492 C   0  0  0  0  0  0  0  0  0  0  0  0
   48.4062   -2.0541   -4.8362 F   0  0  0  0  0  0  0  0  0  0  0  0
   49.4987   -4.1063   -4.4055 C   0  0  0  0  0  0  0  0  0  0  0  0
   50.3956   -5.1056   -4.8129 C   0  0  0  0  0  0  0  0  0  0  0  0
   57.5238   -4.1713  -11.7313 C   0  0  0  0  0  0  0  0  0  0  0  0
   57.8537   -5.3328  -11.3457 O   0  0  0  0  0  0  0  0  0  0  0  0
   56.5949   -3.3742  -11.0300 N   0  0  0  0  0  0  0  0  0  0  0  0
   56.3467   -2.4394  -11.4048 H   0  0  0  0  0  0  0  0  0  0  0  0
   58.1837   -3.6793  -12.9858 C   0  0  0  0  0  0  0  0  0  0  0  0
   59.6557   -3.9524  -12.8938 C   0  0  0  0  0  0  0  0  0  0  0  0
   60.4020   -3.1084  -13.8909 C   0  0  0  0  0  0  0  0  0  0  0  0
   59.6633   -3.2099  -15.2095 C   0  0  0  0  0  0  0  0  0  0  0  0
   60.5231   -3.2259  -16.4147 C   0  0  0  0  0  0  0  0  0  0  0  0
   61.9806   -3.2529  -16.0955 C   0  0  0  0  0  0  0  0  0  0  0  0
   61.4884   -6.7289  -16.8169 O   0  0  0  0  0  0  0  0  0  0  0  0
   62.0045   -5.6581  -16.8552 N   0  0  0  0  0  0  0  0  0  0  0  0
   62.6185   -4.3842  -16.9007 C   0  0  0  0  0  0  0  0  0  0  0  0
   63.6369   -4.1249  -17.5536 O   0  0  0  0  0  0  0  0  0  0  0  0
   60.6215   -6.8879  -17.3069 H   0  0  0  0  0  0  0  0  0  0  0  0
   62.9470   -6.1274  -17.7138 H   0  0  0  0  0  0  0  0  0  0  0  0
 30 31  1  0  0  0
 31 32  1  0  0  0
 32 33  2  0  0  0
 32 29  1  0  0  0
 29 28  1  0  0  0
 28 27  1  0  0  0
 27 26  1  0  0  0
 26 25  1  0  0  0
 25 24  1  0  0  0
 24 20  1  0  0  0
 20 21  2  0  0  0
 20 22  1  0  0  0
 22  1  1  0  0  0
  1  2  2  0  0  0
  2  3  1  0  0  0
  3  4  2  0  0  0
  4  5  1  0  0  0
  5  6  2  0  0  0
  4  7  1  0  0  0
  7  8  2  0  0  0
  8  9  1  0  0  0
  9 10  2  0  0  0
 10 11  1  0  0  0
 11 12  1  0  0  0
 12 13  1  0  0  0
 13 14  2  0  0  0
 14 15  1  0  0  0
 15 16  2  0  0  0
 16 17  1  0  0  0
 16 18  1  0  0  0
 18 19  2  0  0  0
  6  1  1  0  0  0
 11  7  1  0  0  0
 19 13  1  0  0  0
 30 34  1  0  0  0
 31 35  1  0  0  0
 22 23  1  0  0  0
M  END
> <minimizedAffinity>
-8.47841

> <CNNscore>
0.3208771348

> <CNNaffinity>
6.3756041527

> <CNN_VS>
2.0457856655

> <CNNaffinity_variance>
0.2051672488

$$$$
[H]ON([H])C(=O)C([H])([H])C([H])([H])C([H])([H])C([H])([H])C([H])([H])C([H])([H])C(=O)N([H])c1c([H])c([H])c(-c2c([H])nnn2C([H])([H])c2c([H])c([H])c(F)c([H])c2[H])c([H])c1[H]


 35 37  0  0  0  0  0  0  0  0999 V2000
   53.7850   -3.9563   -8.3262 C   0  0  0  0  0  0  0  0  0  0  0  0
   54.9557   -4.1948   -7.6628 C   0  0  0  0  0  0  0  0  0  0  0  0
   56.1698   -4.4483   -8.3169 C   0  0  0  0  0  0  0  0  0  0  0  0
   56.2658   -4.4711   -9.6608 C   0  0  0  0  0  0  0  0  0  0  0  0
   55.0740   -4.2238  -10.3699 C   0  0  0  0  0  0  0  0  0  0  0  0
   53.9023   -3.9812   -9.7264 C   0  0  0  0  0  0  0  0  0  0  0  0
   57.4753   -4.6820  -10.4388 C   0  0  0  0  0  0  0  0  0  0  0  0
   57.5790   -4.2771  -11.8013 C   0  0  0  0  0  0  0  0  0  0  0  0
   58.8263   -4.5951  -12.1564 N   0  0  0  0  0  0  0  0  0  0  0  0
   59.4425   -5.1281  -11.1616 N   0  0  0  0  0  0  0  0  0  0  0  0
   58.6204   -5.1954  -10.0667 N   0  0  0  0  0  0  0  0  0  0  0  0
   59.1741   -5.6667   -8.8087 C   0  0  0  0  0  0  0  0  0  0  0  0
   60.3643   -6.5428   -9.1466 C   0  0  0  0  0  0  0  0  0  0  0  0
   61.5973   -6.0646   -8.7157 C   0  0  0  0  0  0  0  0  0  0  0  0
   62.7305   -6.8341   -8.9403 C   0  0  0  0  0  0  0  0  0  0  0  0
   62.6225   -8.0529   -9.5841 C   0  0  0  0  0  0  0  0  0  0  0  0
   63.7289   -8.8459   -9.8183 F   0  0  0  0  0  0  0  0  0  0  0  0
   61.3941   -8.5281  -10.0141 C   0  0  0  0  0  0  0  0  0  0  0  0
   60.2592   -7.7373   -9.7786 C   0  0  0  0  0  0  0  0  0  0  0  0
   51.7083   -2.6659   -8.0098 C   0  0  0  0  0  0  0  0  0  0  0  0
   52.0556   -1.7539   -8.8189 O   0  0  0  0  0  0  0  0  0  0  0  0
   52.5206   -3.7859   -7.7347 N   0  0  0  0  0  0  0  0  0  0  0  0
   52.1749   -4.5121   -7.0797 H   0  0  0  0  0  0  0  0  0  0  0  0
   50.3735   -2.4885   -7.3478 C   0  0  0  0  0  0  0  0  0  0  0  0
   50.2651   -3.4654   -6.2148 C   0  0  0  0  0  0  0  0  0  0  0  0
   49.2335   -2.9972   -5.2247 C   0  0  0  0  0  0  0  0  0  0  0  0
   49.2597   -3.9616   -4.0567 C   0  0  0  0  0  0  0  0  0  0  0  0
   50.1403   -5.1390   -4.2303 C   0  0  0  0  0  0  0  0  0  0  0  0
   50.8214   -5.5535   -2.9688 C   0  0  0  0  0  0  0  0  0  0  0  0
   52.8993   -6.2686   -5.8000 O   0  0  0  0  0  0  0  0  0  0  0  0
   52.6158   -6.0872   -4.6593 N   0  0  0  0  0  0  0  0  0  0  0  0
   52.2784   -5.8714   -3.3024 C   0  0  0  0  0  0  0  0  0  0  0  0
   53.0873   -5.9193   -2.3675 O   0  0  0  0  0  0  0  0  0  0  0  0
   52.9376   -5.4898   -6.4394 H   0  0  0  0  0  0  0  0  0  0  0  0
   53.9123   -6.2641   -4.2942 H   0  0  0  0  0  0  0  0  0  0  0  0
 30 31  1  0  0  0
 31 32  1  0  0  0
 32 33  2  0  0  0
 32 29  1  0  0  0
 29 28  1  0  0  0
 28 27  1  0  0  0
 27 26  1  0  0  0
 26 25  1  0  0  0
 25 24  1  0  0  0
 24 20  1  0  0  0
 20 21  2  0  0  0
 20 22  1  0  0  0
 22  1  1  0  0  0
  1  2  2  0  0  0
  2  3  1  0  0  0
  3  4  2  0  0  0
  4  5  1  0  0  0
  5  6  2  0  0  0
  4  7  1  0  0  0
  7  8  2  0  0  0
  8  9  1  0  0  0
  9 10  2  0  0  0
 10 11  1  0  0  0
 11 12  1  0  0  0
 12 13  1  0  0  0
 13 14  2  0  0  0
 14 15  1  0  0  0
 15 16  2  0  0  0
 16 17  1  0  0  0
 16 18  1  0  0  0
 18 19  2  0  0  0
  6  1  1  0  0  0
 11  7  1  0  0  0
 19 13  1  0  0  0
 30 34  1  0  0  0
 31 35  1  0  0  0
 22 23  1  0  0  0
M  END
> <minimizedAffinity>
-9.01807

> <CNNscore>
0.3177530169

> <CNNaffinity>
6.3977165222

> <CNN_VS>
2.0328936577

> <CNNaffinity_variance>
0.1212350354

$$$$
[H]N=C(N([H])[H])N([H])C([H])([H])C([H])([H])C([H])([H])[C@@]([H])(C(=O)c1nc2c([H])c([H])c([H])c([H])c2s1)N([H])C(=O)[C@@]1([H])N(C(=O)[C@@]([H])(N([H])C(=O)OC(C([H])([H])[H])(C([H])([H])[H])C([H])([H])[H])C([H])([H])C([H])([H])C(=O)O[H])C([H])([H])C([H])([H])C1([H])[H]


 50 52  0  0  0  0  0  0  0  0999 V2000
   56.2725   -4.3291  -10.3691 C   0  0  0  0  0  0  0  0  0  0  0  0
   55.4759   -4.9436  -11.1885 O   0  0  0  0  0  0  0  0  0  0  0  0
   55.7986   -4.1779   -9.0757 N   0  0  0  0  0  0  0  0  0  0  0  0
   56.3246   -3.7201   -8.3064 H   0  0  0  0  0  0  0  0  0  0  0  0
   59.1272   -5.5487   -9.7473 C   0  0  0  0  0  0  0  0  0  0  0  0
   58.4336   -5.5605   -8.6894 O   0  0  0  0  0  0  0  0  0  0  0  0
   58.6920   -4.7061  -10.8022 N   0  0  0  0  0  0  0  0  0  0  0  0
   59.5335   -4.5395  -11.9936 C   0  0  0  0  0  0  0  0  0  0  0  0
   58.7881   -3.5715  -12.8953 C   0  0  0  0  0  0  0  0  0  0  0  0
   57.3689   -3.7829  -12.4774 C   0  0  0  0  0  0  0  0  0  0  0  0
   57.5263   -3.9070  -10.9288 C   0  0  0  0  0  0  0  0  0  0  0  0
   60.3145   -6.4178   -9.7560 C   0  0  0  0  0  0  0  0  0  0  0  0
   62.2590   -6.2338   -8.1389 C   0  0  0  0  0  0  0  0  0  0  0  0
   63.0624   -5.9696   -9.0834 O   0  0  0  0  0  0  0  0  0  0  0  0
   60.8783   -6.4698   -8.3790 N   0  0  0  0  0  0  0  0  0  0  0  0
   60.2192   -6.6876   -7.6092 H   0  0  0  0  0  0  0  0  0  0  0  0
   62.7699   -6.2864   -6.8625 O   0  0  0  0  0  0  0  0  0  0  0  0
   63.9792   -7.0339   -5.0018 C   0  0  0  0  0  0  0  0  0  0  0  0
   62.9983   -7.4411   -6.1180 C   0  0  0  0  0  0  0  0  0  0  0  0
   63.6474   -8.5346   -6.9440 C   0  0  0  0  0  0  0  0  0  0  0  0
   61.7659   -8.0166   -5.4674 C   0  0  0  0  0  0  0  0  0  0  0  0
   60.0025   -7.8603  -10.1419 C   0  0  0  0  0  0  0  0  0  0  0  0
   61.0085   -8.8058   -9.4855 C   0  0  0  0  0  0  0  0  0  0  0  0
   61.9826   -9.2091  -10.4999 C   0  0  0  0  0  0  0  0  0  0  0  0
   62.7242   -8.2191  -11.1405 O   0  0  0  0  0  0  0  0  0  0  0  0
   62.1530  -10.4072  -10.7912 O   0  0  0  0  0  0  0  0  0  0  0  0
   62.3403   -7.6143  -11.8584 H   0  0  0  0  0  0  0  0  0  0  0  0
   54.4697   -4.7051   -8.6987 C   0  0  0  0  0  0  0  0  0  0  0  0
   53.4162   -3.7241   -8.8601 C   0  0  0  0  0  0  0  0  0  0  0  0
   53.3055   -2.9150   -9.8020 O   0  0  0  0  0  0  0  0  0  0  0  0
   52.3334   -3.6332   -7.8383 C   0  0  0  0  0  0  0  0  0  0  0  0
   52.1078   -4.4362   -6.8178 N   0  0  0  0  0  0  0  0  0  0  0  0
   51.0949   -4.2419   -6.0339 C   0  0  0  0  0  0  0  0  0  0  0  0
   50.7347   -5.0201   -4.9183 C   0  0  0  0  0  0  0  0  0  0  0  0
   49.6517   -4.7371   -4.1649 C   0  0  0  0  0  0  0  0  0  0  0  0
   48.8218   -3.6700   -4.4291 C   0  0  0  0  0  0  0  0  0  0  0  0
   49.1509   -2.8869   -5.5187 C   0  0  0  0  0  0  0  0  0  0  0  0
   50.2732   -3.1773   -6.3027 C   0  0  0  0  0  0  0  0  0  0  0  0
   51.0323   -2.5162   -7.6943 S   0  0  0  0  0  0  0  0  0  0  0  0
   54.5441   -5.3116   -7.3181 C   0  0  0  0  0  0  0  0  0  0  0  0
   55.7097   -4.7982   -6.5175 C   0  0  0  0  0  0  0  0  0  0  0  0
   55.6695   -5.5413   -5.1705 C   0  0  0  0  0  0  0  0  0  0  0  0
   54.3144   -5.5397   -4.6712 N   0  0  0  0  0  0  0  0  0  0  0  0
   53.5409   -5.4161   -5.3487 H   0  0  0  0  0  0  0  0  0  0  0  0
   54.1196   -5.7078   -3.2739 C   0  0  0  0  0  0  0  0  0  0  0  0
   54.7542   -4.7988   -2.3903 N   0  0  0  0  0  0  0  0  0  0  0  0
   53.3791   -6.6668   -2.8059 N   0  0  0  0  0  0  0  0  0  0  0  0
   55.4197   -4.0840   -2.7174 H   0  0  0  0  0  0  0  0  0  0  0  0
   54.5546   -4.8342   -1.3593 H   0  0  0  0  0  0  0  0  0  0  0  0
   53.2203   -6.8118   -1.7906 H   0  0  0  0  0  0  0  0  0  0  0  0
 18 19  1  0  0  0
 19 20  1  0  0  0
 19 21  1  0  0  0
 19 17  1  0  0  0
 17 13  1  0  0  0
 13 14  2  0  0  0
 13 15  1  0  0  0
 15 12  1  0  0  0
 12 22  1  0  0  0
 22 23  1  0  0  0
 23 24  1  0  0  0
 24 25  1  0  0  0
 24 26  2  0  0  0
 12  5  1  0  0  0
  5  6  2  0  0  0
  5  7  1  0  0  0
  7  8  1  0  0  0
  8  9  1  0  0  0
  9 10  1  0  0  0
 10 11  1  0  0  0
 11  1  1  0  0  0
  1  2  2  0  0  0
  1  3  1  0  0  0
  3 28  1  0  0  0
 28 40  1  0  0  0
 40 41  1  0  0  0
 41 42  1  0  0  0
 42 43  1  0  0  0
 43 45  1  0  0  0
 45 46  1  0  0  0
 45 47  2  0  0  0
 28 29  1  0  0  0
 29 30  2  0  0  0
 29 31  1  0  0  0
 31 32  2  0  0  0
 32 33  1  0  0  0
 33 34  2  0  0  0
 34 35  1  0  0  0
 35 36  2  0  0  0
 36 37  1  0  0  0
 37 38  2  0  0  0
 38 39  1  0  0  0
 11  7  1  0  0  0
 39 31  1  0  0  0
 38 33  1  0  0  0
 15 16  1  0  0  0
 25 27  1  0  0  0
  3  4  1  0  0  0
 43 44  1  0  0  0
 46 48  1  0  0  0
 46 49  1  0  0  0
 47 50  1  0  0  0
M  END
> <minimizedAffinity>
-6.95743

> <CNNscore>
0.4851215482

> <CNNaffinity>
7.4473176003

> <CNN_VS>
3.6128542423

> <CNNaffinity_variance>
0.2670764923

$$$$
[H]N=C(N([H])[H])N([H])C([H])([H])C([H])([H])C([H])([H])[C@@]([H])(C(=O)c1nc2c([H])c([H])c([H])c([H])c2s1)N([H])C(=O)[C@@]1([H])N(C(=O)[C@@]([H])(N([H])C(=O)OC(C([H])([H])[H])(C([H])([H])[H])C([H])([H])[H])C([H])([H])C([H])([H])C(=O)O[H])C([H])([H])C([H])([H])C1([H])[H]


 50 52  0  0  0  0  0  0  0  0999 V2000
   54.2472   -5.5651   -6.5636 C   0  0  0  0  0  0  0  0  0  0  0  0
   53.8533   -6.6653   -7.1276 O   0  0  0  0  0  0  0  0  0  0  0  0
   54.4290   -5.6291   -5.1913 N   0  0  0  0  0  0  0  0  0  0  0  0
   54.7522   -4.8368   -4.6033 H   0  0  0  0  0  0  0  0  0  0  0  0
   56.8156   -4.9688   -8.3159 C   0  0  0  0  0  0  0  0  0  0  0  0
   57.1763   -5.4682   -7.2109 O   0  0  0  0  0  0  0  0  0  0  0  0
   55.5006   -4.4430   -8.3949 N   0  0  0  0  0  0  0  0  0  0  0  0
   55.0776   -3.7212   -9.6013 C   0  0  0  0  0  0  0  0  0  0  0  0
   53.6463   -3.2850   -9.3428 C   0  0  0  0  0  0  0  0  0  0  0  0
   53.1789   -4.3091   -8.3598 C   0  0  0  0  0  0  0  0  0  0  0  0
   54.4408   -4.4525   -7.4513 C   0  0  0  0  0  0  0  0  0  0  0  0
   57.8139   -4.9922   -9.3967 C   0  0  0  0  0  0  0  0  0  0  0  0
   59.8115   -6.4274  -10.0129 C   0  0  0  0  0  0  0  0  0  0  0  0
   60.2772   -5.5162  -10.7612 O   0  0  0  0  0  0  0  0  0  0  0  0
   58.5960   -6.2551   -9.2969 N   0  0  0  0  0  0  0  0  0  0  0  0
   58.2118   -6.9989   -8.6856 H   0  0  0  0  0  0  0  0  0  0  0  0
   60.5252   -7.5997   -9.9151 O   0  0  0  0  0  0  0  0  0  0  0  0
   62.8624   -7.6417  -10.0534 C   0  0  0  0  0  0  0  0  0  0  0  0
   61.6486   -7.8112   -9.1196 C   0  0  0  0  0  0  0  0  0  0  0  0
   61.6855   -9.2135   -8.5438 C   0  0  0  0  0  0  0  0  0  0  0  0
   61.7980   -6.8347   -7.9805 C   0  0  0  0  0  0  0  0  0  0  0  0
   57.1936   -4.9858  -10.7903 C   0  0  0  0  0  0  0  0  0  0  0  0
   57.6180   -3.7259  -11.5450 C   0  0  0  0  0  0  0  0  0  0  0  0
   57.7372   -4.0639  -12.9635 C   0  0  0  0  0  0  0  0  0  0  0  0
   58.7941   -3.5204  -13.6901 O   0  0  0  0  0  0  0  0  0  0  0  0
   56.9183   -4.8197  -13.5182 O   0  0  0  0  0  0  0  0  0  0  0  0
   58.8188   -2.5538  -13.9963 H   0  0  0  0  0  0  0  0  0  0  0  0
   54.1851   -6.8917   -4.4617 C   0  0  0  0  0  0  0  0  0  0  0  0
   53.0570   -6.8022   -3.5574 C   0  0  0  0  0  0  0  0  0  0  0  0
   52.9226   -7.4287   -2.4880 O   0  0  0  0  0  0  0  0  0  0  0  0
   51.9252   -5.8866   -3.8822 C   0  0  0  0  0  0  0  0  0  0  0  0
   51.6976   -5.2416   -5.0089 N   0  0  0  0  0  0  0  0  0  0  0  0
   50.6804   -4.4477   -5.1233 C   0  0  0  0  0  0  0  0  0  0  0  0
   50.3243   -3.6970   -6.2590 C   0  0  0  0  0  0  0  0  0  0  0  0
   49.2429   -2.8903   -6.2763 C   0  0  0  0  0  0  0  0  0  0  0  0
   48.4097   -2.7421   -5.1895 C   0  0  0  0  0  0  0  0  0  0  0  0
   48.7340   -3.4678   -4.0595 C   0  0  0  0  0  0  0  0  0  0  0  0
   49.8549   -4.3054   -4.0374 C   0  0  0  0  0  0  0  0  0  0  0  0
   50.6167   -5.3466   -2.9037 S   0  0  0  0  0  0  0  0  0  0  0  0
   55.4670   -7.3490   -3.8082 C   0  0  0  0  0  0  0  0  0  0  0  0
   56.4697   -6.2386   -3.6506 C   0  0  0  0  0  0  0  0  0  0  0  0
   56.6853   -6.0628   -2.1371 C   0  0  0  0  0  0  0  0  0  0  0  0
   55.8135   -5.0174   -1.6548 N   0  0  0  0  0  0  0  0  0  0  0  0
   55.9486   -4.0574   -2.0191 H   0  0  0  0  0  0  0  0  0  0  0  0
   54.8171   -5.3673   -0.7043 C   0  0  0  0  0  0  0  0  0  0  0  0
   54.8377   -6.6744   -0.1557 N   0  0  0  0  0  0  0  0  0  0  0  0
   53.9052   -4.5179   -0.3381 N   0  0  0  0  0  0  0  0  0  0  0  0
   55.4867   -7.4022   -0.4870 H   0  0  0  0  0  0  0  0  0  0  0  0
   54.1774   -6.9351    0.6190 H   0  0  0  0  0  0  0  0  0  0  0  0
   53.1667   -4.7476    0.3539 H   0  0  0  0  0  0  0  0  0  0  0  0
 18 19  1  0  0  0
 19 20  1  0  0  0
 19 21  1  0  0  0
 19 17  1  0  0  0
 17 13  1  0  0  0
 13 14  2  0  0  0
 13 15  1  0  0  0
 15 12  1  0  0  0
 12 22  1  0  0  0
 22 23  1  0  0  0
 23 24  1  0  0  0
 24 25  1  0  0  0
 24 26  2  0  0  0
 12  5  1  0  0  0
  5  6  2  0  0  0
  5  7  1  0  0  0
  7  8  1  0  0  0
  8  9  1  0  0  0
  9 10  1  0  0  0
 10 11  1  0  0  0
 11  1  1  0  0  0
  1  2  2  0  0  0
  1  3  1  0  0  0
  3 28  1  0  0  0
 28 40  1  0  0  0
 40 41  1  0  0  0
 41 42  1  0  0  0
 42 43  1  0  0  0
 43 45  1  0  0  0
 45 46  1  0  0  0
 45 47  2  0  0  0
 28 29  1  0  0  0
 29 30  2  0  0  0
 29 31  1  0  0  0
 31 32  2  0  0  0
 32 33  1  0  0  0
 33 34  2  0  0  0
 34 35  1  0  0  0
 35 36  2  0  0  0
 36 37  1  0  0  0
 37 38  2  0  0  0
 38 39  1  0  0  0
 11  7  1  0  0  0
 39 31  1  0  0  0
 38 33  1  0  0  0
 15 16  1  0  0  0
 25 27  1  0  0  0
  3  4  1  0  0  0
 43 44  1  0  0  0
 46 48  1  0  0  0
 46 49  1  0  0  0
 47 50  1  0  0  0
M  END
> <minimizedAffinity>
-8.93953

> <CNNscore>
0.4286125004

> <CNNaffinity>
7.2398557663

> <CNN_VS>
3.1030926704

> <CNNaffinity_variance>
0.7352145910

$$$$
[H]N=C(N([H])[H])N([H])C([H])([H])C([H])([H])C([H])([H])[C@@]([H])(C(=O)c1nc2c([H])c([H])c([H])c([H])c2s1)N([H])C(=O)[C@@]1([H])N(C(=O)[C@@]([H])(N([H])C(=O)OC(C([H])([H])[H])(C([H])([H])[H])C([H])([H])[H])C([H])([H])C([H])([H])C(=O)O[H])C([H])([H])C([H])([H])C1([H])[H]


 50 52  0  0  0  0  0  0  0  0999 V2000
   53.4447   -3.7075   -8.4336 C   0  0  0  0  0  0  0  0  0  0  0  0
   54.1776   -2.6394   -8.5079 O   0  0  0  0  0  0  0  0  0  0  0  0
   54.1249   -4.9085   -8.5575 N   0  0  0  0  0  0  0  0  0  0  0  0
   53.6791   -5.8448   -8.5069 H   0  0  0  0  0  0  0  0  0  0  0  0
   51.6187   -5.0374   -6.2155 C   0  0  0  0  0  0  0  0  0  0  0  0
   52.4669   -5.8864   -6.6158 O   0  0  0  0  0  0  0  0  0  0  0  0
   51.3977   -3.9011   -7.0352 N   0  0  0  0  0  0  0  0  0  0  0  0
   50.3234   -2.9591   -6.6975 C   0  0  0  0  0  0  0  0  0  0  0  0
   50.3534   -1.8919   -7.7771 C   0  0  0  0  0  0  0  0  0  0  0  0
   51.7780   -1.9399   -8.2263 C   0  0  0  0  0  0  0  0  0  0  0  0
   52.0417   -3.4790   -8.2271 C   0  0  0  0  0  0  0  0  0  0  0  0
   50.9557   -5.3344   -4.9359 C   0  0  0  0  0  0  0  0  0  0  0  0
   52.0136   -6.6364   -3.0345 C   0  0  0  0  0  0  0  0  0  0  0  0
   51.1459   -7.5551   -3.1368 O   0  0  0  0  0  0  0  0  0  0  0  0
   51.9975   -5.4980   -3.8850 N   0  0  0  0  0  0  0  0  0  0  0  0
   52.7046   -4.7444   -3.8029 H   0  0  0  0  0  0  0  0  0  0  0  0
   52.9799   -6.7764   -2.0651 O   0  0  0  0  0  0  0  0  0  0  0  0
   54.0563   -6.3550   -0.0286 C   0  0  0  0  0  0  0  0  0  0  0  0
   53.5935   -5.7413   -1.3640 C   0  0  0  0  0  0  0  0  0  0  0  0
   52.6317   -4.6097   -1.0577 C   0  0  0  0  0  0  0  0  0  0  0  0
   54.8014   -5.1547   -2.0498 C   0  0  0  0  0  0  0  0  0  0  0  0
   50.0412   -4.2117   -4.4562 C   0  0  0  0  0  0  0  0  0  0  0  0
   49.0189   -4.7601   -3.4606 C   0  0  0  0  0  0  0  0  0  0  0  0
   47.7994   -3.9598   -3.5735 C   0  0  0  0  0  0  0  0  0  0  0  0
   47.8537   -2.7611   -4.2810 O   0  0  0  0  0  0  0  0  0  0  0  0
   46.7318   -4.3327   -3.0532 O   0  0  0  0  0  0  0  0  0  0  0  0
   48.2823   -1.9183   -3.9140 H   0  0  0  0  0  0  0  0  0  0  0  0
   55.5904   -4.9225   -8.7526 C   0  0  0  0  0  0  0  0  0  0  0  0
   56.3162   -4.6233   -7.5352 C   0  0  0  0  0  0  0  0  0  0  0  0
   57.0220   -3.6163   -7.3307 O   0  0  0  0  0  0  0  0  0  0  0  0
   56.2432   -5.5694   -6.3844 C   0  0  0  0  0  0  0  0  0  0  0  0
   57.1267   -5.7519   -5.4234 N   0  0  0  0  0  0  0  0  0  0  0  0
   56.9323   -6.6462   -4.5066 C   0  0  0  0  0  0  0  0  0  0  0  0
   57.7900   -6.9487   -3.4330 C   0  0  0  0  0  0  0  0  0  0  0  0
   57.4987   -7.9074   -2.5293 C   0  0  0  0  0  0  0  0  0  0  0  0
   56.3452   -8.6579   -2.5888 C   0  0  0  0  0  0  0  0  0  0  0  0
   55.4828   -8.3828   -3.6325 C   0  0  0  0  0  0  0  0  0  0  0  0
   55.7815   -7.3894   -4.5719 C   0  0  0  0  0  0  0  0  0  0  0  0
   55.0440   -6.7348   -5.9782 S   0  0  0  0  0  0  0  0  0  0  0  0
   55.9493   -4.0357   -9.9206 C   0  0  0  0  0  0  0  0  0  0  0  0
   56.9598   -4.6641  -10.8410 C   0  0  0  0  0  0  0  0  0  0  0  0
   57.1467   -3.6831  -12.0119 C   0  0  0  0  0  0  0  0  0  0  0  0
   57.1698   -4.4257  -13.2503 N   0  0  0  0  0  0  0  0  0  0  0  0
   57.1733   -5.4603  -13.2032 H   0  0  0  0  0  0  0  0  0  0  0  0
   57.1871   -3.6915  -14.4665 C   0  0  0  0  0  0  0  0  0  0  0  0
   55.9586   -3.4716  -15.1391 N   0  0  0  0  0  0  0  0  0  0  0  0
   58.2954   -3.2269  -14.9591 N   0  0  0  0  0  0  0  0  0  0  0  0
   55.0748   -3.9000  -14.8291 H   0  0  0  0  0  0  0  0  0  0  0  0
   55.9214   -2.8521  -15.9870 H   0  0  0  0  0  0  0  0  0  0  0  0
   58.3360   -2.6877  -15.8450 H   0  0  0  0  0  0  0  0  0  0  0  0
 18 19  1  0  0  0
 19 20  1  0  0  0
 19 21  1  0  0  0
 19 17  1  0  0  0
 17 13  1  0  0  0
 13 14  2  0  0  0
 13 15  1  0  0  0
 15 12  1  0  0  0
 12 22  1  0  0  0
 22 23  1  0  0  0
 23 24  1  0  0  0
 24 25  1  0  0  0
 24 26  2  0  0  0
 12  5  1  0  0  0
  5  6  2  0  0  0
  5  7  1  0  0  0
  7  8  1  0  0  0
  8  9  1  0  0  0
  9 10  1  0  0  0
 10 11  1  0  0  0
 11  1  1  0  0  0
  1  2  2  0  0  0
  1  3  1  0  0  0
  3 28  1  0  0  0
 28 40  1  0  0  0
 40 41  1  0  0  0
 41 42  1  0  0  0
 42 43  1  0  0  0
 43 45  1  0  0  0
 45 46  1  0  0  0
 45 47  2  0  0  0
 28 29  1  0  0  0
 29 30  2  0  0  0
 29 31  1  0  0  0
 31 32  2  0  0  0
 32 33  1  0  0  0
 33 34  2  0  0  0
 34 35  1  0  0  0
 35 36  2  0  0  0
 36 37  1  0  0  0
 37 38  2  0  0  0
 38 39  1  0  0  0
 11  7  1  0  0  0
 39 31  1  0  0  0
 38 33  1  0  0  0
 15 16  1  0  0  0
 25 27  1  0  0  0
  3  4  1  0  0  0
 43 44  1  0  0  0
 46 48  1  0  0  0
 46 49  1  0  0  0
 47 50  1  0  0  0
M  END
> <minimizedAffinity>
-7.67826

> <CNNscore>
0.3869584203

> <CNNaffinity>
7.8304014206

> <CNN_VS>
3.0300397873

> <CNNaffinity_variance>
0.1611313671

$$$$
[H]N=C(N([H])[H])N([H])C([H])([H])C([H])([H])C([H])([H])[C@@]([H])(C(=O)c1nc2c([H])c([H])c([H])c([H])c2s1)N([H])C(=O)[C@@]1([H])N(C(=O)[C@@]([H])(N([H])C(=O)OC(C([H])([H])[H])(C([H])([H])[H])C([H])([H])[H])C([H])([H])C([H])([H])C(=O)O[H])C([H])([H])C([H])([H])C1([H])[H]


 50 52  0  0  0  0  0  0  0  0999 V2000
   56.4553   -4.5987   -8.3017 C   0  0  0  0  0  0  0  0  0  0  0  0
   56.4538   -3.6568   -7.4093 O   0  0  0  0  0  0  0  0  0  0  0  0
   55.7327   -5.7345   -7.9727 N   0  0  0  0  0  0  0  0  0  0  0  0
   55.6302   -6.5649   -8.5874 H   0  0  0  0  0  0  0  0  0  0  0  0
   59.4325   -5.4758   -8.9266 C   0  0  0  0  0  0  0  0  0  0  0  0
   59.3325   -5.2008   -7.6958 O   0  0  0  0  0  0  0  0  0  0  0  0
   58.4102   -4.9978   -9.7859 N   0  0  0  0  0  0  0  0  0  0  0  0
   58.5476   -5.1587  -11.2387 C   0  0  0  0  0  0  0  0  0  0  0  0
   57.3069   -4.5273  -11.8448 C   0  0  0  0  0  0  0  0  0  0  0  0
   56.3143   -4.6579  -10.7352 C   0  0  0  0  0  0  0  0  0  0  0  0
   57.2007   -4.3146   -9.4964 C   0  0  0  0  0  0  0  0  0  0  0  0
   60.6095   -6.2648   -9.3230 C   0  0  0  0  0  0  0  0  0  0  0  0
   61.3656   -8.4156   -8.2129 C   0  0  0  0  0  0  0  0  0  0  0  0
   62.4663   -7.8895   -7.8680 O   0  0  0  0  0  0  0  0  0  0  0  0
   60.3847   -7.6849   -8.9364 N   0  0  0  0  0  0  0  0  0  0  0  0
   59.4844   -8.1126   -9.2212 H   0  0  0  0  0  0  0  0  0  0  0  0
   61.1483   -9.7282   -7.8625 O   0  0  0  0  0  0  0  0  0  0  0  0
   63.1313  -10.9069   -7.4601 C   0  0  0  0  0  0  0  0  0  0  0  0
   61.8612  -10.8299   -8.3291 C   0  0  0  0  0  0  0  0  0  0  0  0
   62.2856  -10.6651   -9.7755 C   0  0  0  0  0  0  0  0  0  0  0  0
   61.1311  -12.1431   -8.2034 C   0  0  0  0  0  0  0  0  0  0  0  0
   60.8535   -6.2681  -10.8288 C   0  0  0  0  0  0  0  0  0  0  0  0
   62.3370   -6.4984  -11.1170 C   0  0  0  0  0  0  0  0  0  0  0  0
   62.5878   -6.1514  -12.5160 C   0  0  0  0  0  0  0  0  0  0  0  0
   61.6881   -5.3079  -13.1636 O   0  0  0  0  0  0  0  0  0  0  0  0
   63.5802   -6.5942  -13.1231 O   0  0  0  0  0  0  0  0  0  0  0  0
   60.7735   -5.6100  -13.4814 H   0  0  0  0  0  0  0  0  0  0  0  0
   55.0171   -5.8189   -6.6817 C   0  0  0  0  0  0  0  0  0  0  0  0
   55.4839   -6.9153   -5.8580 C   0  0  0  0  0  0  0  0  0  0  0  0
   55.2544   -8.1257   -6.0492 O   0  0  0  0  0  0  0  0  0  0  0  0
   56.3264   -6.6288   -4.6611 C   0  0  0  0  0  0  0  0  0  0  0  0
   56.1615   -5.6842   -3.7567 N   0  0  0  0  0  0  0  0  0  0  0  0
   57.0082   -5.5412   -2.7868 C   0  0  0  0  0  0  0  0  0  0  0  0
   56.9574   -4.5776   -1.7627 C   0  0  0  0  0  0  0  0  0  0  0  0
   57.8962   -4.5070   -0.7961 C   0  0  0  0  0  0  0  0  0  0  0  0
   58.9691   -5.3689   -0.7387 C   0  0  0  0  0  0  0  0  0  0  0  0
   59.0452   -6.3268   -1.7314 C   0  0  0  0  0  0  0  0  0  0  0  0
   58.0738   -6.4032   -2.7358 C   0  0  0  0  0  0  0  0  0  0  0  0
   57.7757   -7.3802   -4.1166 S   0  0  0  0  0  0  0  0  0  0  0  0
   53.5284   -5.8239   -6.9328 C   0  0  0  0  0  0  0  0  0  0  0  0
   52.7388   -5.2900   -5.7690 C   0  0  0  0  0  0  0  0  0  0  0  0
   51.3150   -5.8547   -5.9173 C   0  0  0  0  0  0  0  0  0  0  0  0
   50.6261   -5.1295   -6.9590 N   0  0  0  0  0  0  0  0  0  0  0  0
   50.3547   -5.6413   -7.8175 H   0  0  0  0  0  0  0  0  0  0  0  0
   50.3599   -3.7502   -6.7457 C   0  0  0  0  0  0  0  0  0  0  0  0
   49.6183   -3.3763   -5.5968 N   0  0  0  0  0  0  0  0  0  0  0  0
   50.7821   -2.8448   -7.5757 N   0  0  0  0  0  0  0  0  0  0  0  0
   49.1902   -4.0690   -4.9662 H   0  0  0  0  0  0  0  0  0  0  0  0
   49.4869   -2.3617   -5.3571 H   0  0  0  0  0  0  0  0  0  0  0  0
   50.6018   -1.8313   -7.4435 H   0  0  0  0  0  0  0  0  0  0  0  0
 18 19  1  0  0  0
 19 20  1  0  0  0
 19 21  1  0  0  0
 19 17  1  0  0  0
 17 13  1  0  0  0
 13 14  2  0  0  0
 13 15  1  0  0  0
 15 12  1  0  0  0
 12 22  1  0  0  0
 22 23  1  0  0  0
 23 24  1  0  0  0
 24 25  1  0  0  0
 24 26  2  0  0  0
 12  5  1  0  0  0
  5  6  2  0  0  0
  5  7  1  0  0  0
  7  8  1  0  0  0
  8  9  1  0  0  0
  9 10  1  0  0  0
 10 11  1  0  0  0
 11  1  1  0  0  0
  1  2  2  0  0  0
  1  3  1  0  0  0
  3 28  1  0  0  0
 28 40  1  0  0  0
 40 41  1  0  0  0
 41 42  1  0  0  0
 42 43  1  0  0  0
 43 45  1  0  0  0
 45 46  1  0  0  0
 45 47  2  0  0  0
 28 29  1  0  0  0
 29 30  2  0  0  0
 29 31  1  0  0  0
 31 32  2  0  0  0
 32 33  1  0  0  0
 33 34  2  0  0  0
 34 35  1  0  0  0
 35 36  2  0  0  0
 36 37  1  0  0  0
 37 38  2  0  0  0
 38 39  1  0  0  0
 11  7  1  0  0  0
 39 31  1  0  0  0
 38 33  1  0  0  0
 15 16  1  0  0  0
 25 27  1  0  0  0
  3  4  1  0  0  0
 43 44  1  0  0  0
 46 48  1  0  0  0
 46 49  1  0  0  0
 47 50  1  0  0  0
M  END
> <minimizedAffinity>
-5.44172

> <CNNscore>
0.3648153841

> <CNNaffinity>
6.9502015114

> <CNN_VS>
2.5355403423

> <CNNaffinity_variance>
0.1308538318

$$$$
[H]N=C(N([H])[H])N([H])C([H])([H])C([H])([H])C([H])([H])[C@@]([H])(C(=O)c1nc2c([H])c([H])c([H])c([H])c2s1)N([H])C(=O)[C@@]1([H])N(C(=O)[C@@]([H])(N([H])C(=O)OC(C([H])([H])[H])(C([H])([H])[H])C([H])([H])[H])C([H])([H])C([H])([H])C(=O)O[H])C([H])([H])C([H])([H])C1([H])[H]


 50 52  0  0  0  0  0  0  0  0999 V2000
   55.7081   -5.9794   -5.6676 C   0  0  0  0  0  0  0  0  0  0  0  0
   55.6510   -4.8459   -5.0386 O   0  0  0  0  0  0  0  0  0  0  0  0
   55.9745   -5.8965   -7.0250 N   0  0  0  0  0  0  0  0  0  0  0  0
   56.0629   -6.7147   -7.6580 H   0  0  0  0  0  0  0  0  0  0  0  0
   57.8154   -7.3683   -3.7563 C   0  0  0  0  0  0  0  0  0  0  0  0
   58.4125   -6.9351   -4.7840 O   0  0  0  0  0  0  0  0  0  0  0  0
   56.4054   -7.5035   -3.8307 N   0  0  0  0  0  0  0  0  0  0  0  0
   55.6766   -8.1374   -2.7250 C   0  0  0  0  0  0  0  0  0  0  0  0
   54.2153   -8.1365   -3.1373 C   0  0  0  0  0  0  0  0  0  0  0  0
   54.1539   -6.9726   -4.0728 C   0  0  0  0  0  0  0  0  0  0  0  0
   55.4932   -7.1455   -4.8569 C   0  0  0  0  0  0  0  0  0  0  0  0
   58.6638   -7.6844   -2.5964 C   0  0  0  0  0  0  0  0  0  0  0  0
   59.9924   -9.8204   -2.9160 C   0  0  0  0  0  0  0  0  0  0  0  0
   59.0800  -10.5091   -2.3677 O   0  0  0  0  0  0  0  0  0  0  0  0
   59.8716   -8.4131   -3.0726 N   0  0  0  0  0  0  0  0  0  0  0  0
   60.6165   -7.8470   -3.5190 H   0  0  0  0  0  0  0  0  0  0  0  0
   61.1140  -10.4835   -3.3580 O   0  0  0  0  0  0  0  0  0  0  0  0
   62.7300  -11.5738   -4.6554 C   0  0  0  0  0  0  0  0  0  0  0  0
   61.2611  -11.1128   -4.5916 C   0  0  0  0  0  0  0  0  0  0  0  0
   61.0104  -10.1664   -5.7496 C   0  0  0  0  0  0  0  0  0  0  0  0
   60.3845  -12.3249   -4.7810 C   0  0  0  0  0  0  0  0  0  0  0  0
   59.1751   -6.4453   -1.8682 C   0  0  0  0  0  0  0  0  0  0  0  0
   58.0666   -5.8587   -0.9940 C   0  0  0  0  0  0  0  0  0  0  0  0
   57.5797   -4.6373   -1.6356 C   0  0  0  0  0  0  0  0  0  0  0  0
   56.2776   -4.6196   -2.1304 O   0  0  0  0  0  0  0  0  0  0  0  0
   58.3043   -3.6307   -1.7418 O   0  0  0  0  0  0  0  0  0  0  0  0
   56.0022   -5.0887   -2.9864 H   0  0  0  0  0  0  0  0  0  0  0  0
   56.1805   -4.5815   -7.6688 C   0  0  0  0  0  0  0  0  0  0  0  0
   55.1439   -4.2645   -8.6296 C   0  0  0  0  0  0  0  0  0  0  0  0
   55.2608   -4.2915   -9.8704 O   0  0  0  0  0  0  0  0  0  0  0  0
   53.7894   -3.8691   -8.1462 C   0  0  0  0  0  0  0  0  0  0  0  0
   53.0573   -4.4458   -7.2141 N   0  0  0  0  0  0  0  0  0  0  0  0
   51.8745   -3.9998   -6.9310 C   0  0  0  0  0  0  0  0  0  0  0  0
   50.9886   -4.5199   -5.9695 C   0  0  0  0  0  0  0  0  0  0  0  0
   49.7691   -3.9846   -5.7527 C   0  0  0  0  0  0  0  0  0  0  0  0
   49.3022   -2.8936   -6.4521 C   0  0  0  0  0  0  0  0  0  0  0  0
   50.1509   -2.3606   -7.4031 C   0  0  0  0  0  0  0  0  0  0  0  0
   51.4163   -2.9131   -7.6311 C   0  0  0  0  0  0  0  0  0  0  0  0
   52.7486   -2.6024   -8.6695 S   0  0  0  0  0  0  0  0  0  0  0  0
   57.5823   -4.5094   -8.2247 C   0  0  0  0  0  0  0  0  0  0  0  0
   57.9790   -5.7547   -8.9697 C   0  0  0  0  0  0  0  0  0  0  0  0
   58.7811   -5.2869  -10.1970 C   0  0  0  0  0  0  0  0  0  0  0  0
   57.8681   -5.0219  -11.2841 N   0  0  0  0  0  0  0  0  0  0  0  0
   57.1849   -5.7562  -11.5424 H   0  0  0  0  0  0  0  0  0  0  0  0
   57.9604   -3.7647  -11.9395 C   0  0  0  0  0  0  0  0  0  0  0  0
   58.9944   -3.5742  -12.8905 N   0  0  0  0  0  0  0  0  0  0  0  0
   57.1224   -2.8062  -11.6827 N   0  0  0  0  0  0  0  0  0  0  0  0
   59.7304   -4.2758  -13.0542 H   0  0  0  0  0  0  0  0  0  0  0  0
   59.0332   -2.6939  -13.4629 H   0  0  0  0  0  0  0  0  0  0  0  0
   57.1673   -1.8791  -12.1469 H   0  0  0  0  0  0  0  0  0  0  0  0
 18 19  1  0  0  0
 19 20  1  0  0  0
 19 21  1  0  0  0
 19 17  1  0  0  0
 17 13  1  0  0  0
 13 14  2  0  0  0
 13 15  1  0  0  0
 15 12  1  0  0  0
 12 22  1  0  0  0
 22 23  1  0  0  0
 23 24  1  0  0  0
 24 25  1  0  0  0
 24 26  2  0  0  0
 12  5  1  0  0  0
  5  6  2  0  0  0
  5  7  1  0  0  0
  7  8  1  0  0  0
  8  9  1  0  0  0
  9 10  1  0  0  0
 10 11  1  0  0  0
 11  1  1  0  0  0
  1  2  2  0  0  0
  1  3  1  0  0  0
  3 28  1  0  0  0
 28 40  1  0  0  0
 40 41  1  0  0  0
 41 42  1  0  0  0
 42 43  1  0  0  0
 43 45  1  0  0  0
 45 46  1  0  0  0
 45 47  2  0  0  0
 28 29  1  0  0  0
 29 30  2  0  0  0
 29 31  1  0  0  0
 31 32  2  0  0  0
 32 33  1  0  0  0
 33 34  2  0  0  0
 34 35  1  0  0  0
 35 36  2  0  0  0
 36 37  1  0  0  0
 37 38  2  0  0  0
 38 39  1  0  0  0
 11  7  1  0  0  0
 39 31  1  0  0  0
 38 33  1  0  0  0
 15 16  1  0  0  0
 25 27  1  0  0  0
  3  4  1  0  0  0
 43 44  1  0  0  0
 46 48  1  0  0  0
 46 49  1  0  0  0
 47 50  1  0  0  0
M  END
> <minimizedAffinity>
-8.37034

> <CNNscore>
0.3615323007

> <CNNaffinity>
7.1876592636

> <CNN_VS>
2.5985710621

> <CNNaffinity_variance>
0.2324221432

$$$$
[H]N=C(N([H])[H])N([H])C([H])([H])C([H])([H])C([H])([H])[C@@]([H])(C(=O)c1nc2c([H])c([H])c([H])c([H])c2s1)N([H])C(=O)[C@@]1([H])N(C(=O)[C@@]([H])(N([H])C(=O)OC(C([H])([H])[H])(C([H])([H])[H])C([H])([H])[H])C([H])([H])C([H])([H])C(=O)O[H])C([H])([H])C([H])([H])C1([H])[H]


 50 52  0  0  0  0  0  0  0  0999 V2000
   54.5443   -3.8704   -9.2234 C   0  0  0  0  0  0  0  0  0  0  0  0
   55.2248   -2.7933   -8.9776 O   0  0  0  0  0  0  0  0  0  0  0  0
   55.2618   -4.9158   -9.7825 N   0  0  0  0  0  0  0  0  0  0  0  0
   54.8601   -5.8425  -10.0231 H   0  0  0  0  0  0  0  0  0  0  0  0
   53.0793   -5.6136   -7.0237 C   0  0  0  0  0  0  0  0  0  0  0  0
   53.9609   -6.3211   -7.5918 O   0  0  0  0  0  0  0  0  0  0  0  0
   52.6720   -4.4262   -7.6841 N   0  0  0  0  0  0  0  0  0  0  0  0
   51.5515   -3.6439   -7.1476 C   0  0  0  0  0  0  0  0  0  0  0  0
   51.3739   -2.4707   -8.0950 C   0  0  0  0  0  0  0  0  0  0  0  0
   52.7456   -2.3204   -8.6689 C   0  0  0  0  0  0  0  0  0  0  0  0
   53.1529   -3.8143   -8.8706 C   0  0  0  0  0  0  0  0  0  0  0  0
   52.5764   -6.1132   -5.7343 C   0  0  0  0  0  0  0  0  0  0  0  0
   54.4891   -6.2000   -4.0719 C   0  0  0  0  0  0  0  0  0  0  0  0
   54.8293   -7.3534   -4.4733 O   0  0  0  0  0  0  0  0  0  0  0  0
   53.3848   -5.5089   -4.6399 N   0  0  0  0  0  0  0  0  0  0  0  0
   53.1031   -4.5665   -4.3128 H   0  0  0  0  0  0  0  0  0  0  0  0
   55.2282   -5.6330   -3.0593 O   0  0  0  0  0  0  0  0  0  0  0  0
   54.8577   -7.2326   -1.3897 C   0  0  0  0  0  0  0  0  0  0  0  0
   54.9578   -5.7259   -1.6962 C   0  0  0  0  0  0  0  0  0  0  0  0
   53.6361   -5.0788   -1.3303 C   0  0  0  0  0  0  0  0  0  0  0  0
   56.0262   -5.1403   -0.8080 C   0  0  0  0  0  0  0  0  0  0  0  0
   51.1283   -5.7202   -5.4593 C   0  0  0  0  0  0  0  0  0  0  0  0
   50.9330   -5.4575   -3.9660 C   0  0  0  0  0  0  0  0  0  0  0  0
   49.6958   -4.6952   -3.7963 C   0  0  0  0  0  0  0  0  0  0  0  0
   48.8050   -5.0865   -2.7993 O   0  0  0  0  0  0  0  0  0  0  0  0
   49.4355   -3.7171   -4.5209 O   0  0  0  0  0  0  0  0  0  0  0  0
   48.2039   -5.8995   -2.8792 H   0  0  0  0  0  0  0  0  0  0  0  0
   56.7074   -4.7699  -10.0562 C   0  0  0  0  0  0  0  0  0  0  0  0
   57.5239   -5.0393   -8.8904 C   0  0  0  0  0  0  0  0  0  0  0  0
   57.2012   -4.8301   -7.7046 O   0  0  0  0  0  0  0  0  0  0  0  0
   58.8833   -5.6277   -9.0650 C   0  0  0  0  0  0  0  0  0  0  0  0
   59.7042   -6.0709   -8.1338 N   0  0  0  0  0  0  0  0  0  0  0  0
   60.8769   -6.5240   -8.4462 C   0  0  0  0  0  0  0  0  0  0  0  0
   61.8499   -7.0192   -7.5584 C   0  0  0  0  0  0  0  0  0  0  0  0
   63.0500   -7.4653   -7.9845 C   0  0  0  0  0  0  0  0  0  0  0  0
   63.4109   -7.4703   -9.3138 C   0  0  0  0  0  0  0  0  0  0  0  0
   62.4750   -6.9901  -10.2095 C   0  0  0  0  0  0  0  0  0  0  0  0
   61.2294   -6.5264   -9.7716 C   0  0  0  0  0  0  0  0  0  0  0  0
   59.8179   -5.8625  -10.4907 S   0  0  0  0  0  0  0  0  0  0  0  0
   56.9639   -3.4256  -10.6939 C   0  0  0  0  0  0  0  0  0  0  0  0
   57.5214   -3.5377  -12.0867 C   0  0  0  0  0  0  0  0  0  0  0  0
   56.3113   -3.5414  -13.0375 C   0  0  0  0  0  0  0  0  0  0  0  0
   56.6219   -4.3499  -14.1931 N   0  0  0  0  0  0  0  0  0  0  0  0
   56.7178   -5.3732  -14.0658 H   0  0  0  0  0  0  0  0  0  0  0  0
   56.7793   -3.6923  -15.4427 C   0  0  0  0  0  0  0  0  0  0  0  0
   57.9078   -2.8541  -15.6263 N   0  0  0  0  0  0  0  0  0  0  0  0
   55.9172   -3.8490  -16.4014 N   0  0  0  0  0  0  0  0  0  0  0  0
   58.5622   -2.6336  -14.8622 H   0  0  0  0  0  0  0  0  0  0  0  0
   58.1066   -2.4306  -16.5671 H   0  0  0  0  0  0  0  0  0  0  0  0
   56.0085   -3.3809  -17.3232 H   0  0  0  0  0  0  0  0  0  0  0  0
 18 19  1  0  0  0
 19 20  1  0  0  0
 19 21  1  0  0  0
 19 17  1  0  0  0
 17 13  1  0  0  0
 13 14  2  0  0  0
 13 15  1  0  0  0
 15 12  1  0  0  0
 12 22  1  0  0  0
 22 23  1  0  0  0
 23 24  1  0  0  0
 24 25  1  0  0  0
 24 26  2  0  0  0
 12  5  1  0  0  0
  5  6  2  0  0  0
  5  7  1  0  0  0
  7  8  1  0  0  0
  8  9  1  0  0  0
  9 10  1  0  0  0
 10 11  1  0  0  0
 11  1  1  0  0  0
  1  2  2  0  0  0
  1  3  1  0  0  0
  3 28  1  0  0  0
 28 40  1  0  0  0
 40 41  1  0  0  0
 41 42  1  0  0  0
 42 43  1  0  0  0
 43 45  1  0  0  0
 45 46  1  0  0  0
 45 47  2  0  0  0
 28 29  1  0  0  0
 29 30  2  0  0  0
 29 31  1  0  0  0
 31 32  2  0  0  0
 32 33  1  0  0  0
 33 34  2  0  0  0
 34 35  1  0  0  0
 35 36  2  0  0  0
 36 37  1  0  0  0
 37 38  2  0  0  0
 38 39  1  0  0  0
 11  7  1  0  0  0
 39 31  1  0  0  0
 38 33  1  0  0  0
 15 16  1  0  0  0
 25 27  1  0  0  0
  3  4  1  0  0  0
 43 44  1  0  0  0
 46 48  1  0  0  0
 46 49  1  0  0  0
 47 50  1  0  0  0
M  END
> <minimizedAffinity>
-7.57099

> <CNNscore>
0.3070301116

> <CNNaffinity>
7.1532731056

> <CNN_VS>
2.1962702274

> <CNNaffinity_variance>
0.4571426809

$$$$
[H]N=C(N([H])[H])N([H])C([H])([H])C([H])([H])C([H])([H])[C@@]([H])(C(=O)c1nc2c([H])c([H])c([H])c([H])c2s1)N([H])C(=O)[C@@]1([H])N(C(=O)[C@@]([H])(N([H])C(=O)OC(C([H])([H])[H])(C([H])([H])[H])C([H])([H])[H])C([H])([H])C([H])([H])C(=O)O[H])C([H])([H])C([H])([H])C1([H])[H]


 50 52  0  0  0  0  0  0  0  0999 V2000
   52.7225   -4.8552   -7.4803 C   0  0  0  0  0  0  0  0  0  0  0  0
   53.0188   -5.3352   -8.6489 O   0  0  0  0  0  0  0  0  0  0  0  0
   53.7280   -4.9332   -6.5300 N   0  0  0  0  0  0  0  0  0  0  0  0
   53.6458   -4.5814   -5.5566 H   0  0  0  0  0  0  0  0  0  0  0  0
   50.6441   -5.4484   -5.1670 C   0  0  0  0  0  0  0  0  0  0  0  0
   51.2941   -6.5041   -5.4190 O   0  0  0  0  0  0  0  0  0  0  0  0
   50.6741   -4.4170   -6.1402 N   0  0  0  0  0  0  0  0  0  0  0  0
   49.8234   -3.2326   -5.9707 C   0  0  0  0  0  0  0  0  0  0  0  0
   50.0852   -2.3571   -7.1833 C   0  0  0  0  0  0  0  0  0  0  0  0
   51.4691   -2.7657   -7.5723 C   0  0  0  0  0  0  0  0  0  0  0  0
   51.3992   -4.3105   -7.3553 C   0  0  0  0  0  0  0  0  0  0  0  0
   49.9267   -5.4177   -3.8827 C   0  0  0  0  0  0  0  0  0  0  0  0
   51.1923   -6.3943   -1.9143 C   0  0  0  0  0  0  0  0  0  0  0  0
   50.5991   -7.5074   -2.0427 O   0  0  0  0  0  0  0  0  0  0  0  0
   50.9226   -5.3016   -2.7821 N   0  0  0  0  0  0  0  0  0  0  0  0
   51.4046   -4.3898   -2.6787 H   0  0  0  0  0  0  0  0  0  0  0  0
   52.1132   -6.2754   -0.8991 O   0  0  0  0  0  0  0  0  0  0  0  0
   53.7400   -7.3425   -2.2023 C   0  0  0  0  0  0  0  0  0  0  0  0
   53.2871   -7.0130   -0.7668 C   0  0  0  0  0  0  0  0  0  0  0  0
   53.0618   -8.3186   -0.0292 C   0  0  0  0  0  0  0  0  0  0  0  0
   54.4110   -6.2775   -0.0817 C   0  0  0  0  0  0  0  0  0  0  0  0
   48.9955   -4.2177   -3.7411 C   0  0  0  0  0  0  0  0  0  0  0  0
   47.6148   -4.6801   -3.2756 C   0  0  0  0  0  0  0  0  0  0  0  0
   46.6942   -3.5486   -3.3886 C   0  0  0  0  0  0  0  0  0  0  0  0
   45.5275   -3.5620   -2.6276 O   0  0  0  0  0  0  0  0  0  0  0  0
   46.9387   -2.5902   -4.1444 O   0  0  0  0  0  0  0  0  0  0  0  0
   44.7247   -4.1399   -2.8516 H   0  0  0  0  0  0  0  0  0  0  0  0
   55.0384   -5.5258   -6.8732 C   0  0  0  0  0  0  0  0  0  0  0  0
   55.4524   -6.5439   -5.9296 C   0  0  0  0  0  0  0  0  0  0  0  0
   55.2912   -7.7733   -6.0594 O   0  0  0  0  0  0  0  0  0  0  0  0
   56.1462   -6.1422   -4.6719 C   0  0  0  0  0  0  0  0  0  0  0  0
   57.0745   -6.8016   -4.0081 N   0  0  0  0  0  0  0  0  0  0  0  0
   57.5572   -6.3315   -2.9016 C   0  0  0  0  0  0  0  0  0  0  0  0
   58.5408   -6.9302   -2.0929 C   0  0  0  0  0  0  0  0  0  0  0  0
   58.9748   -6.3602   -0.9495 C   0  0  0  0  0  0  0  0  0  0  0  0
   58.4907   -5.1551   -0.4904 C   0  0  0  0  0  0  0  0  0  0  0  0
   57.5237   -4.5431   -1.2643 C   0  0  0  0  0  0  0  0  0  0  0  0
   57.0708   -5.1311   -2.4507 C   0  0  0  0  0  0  0  0  0  0  0  0
   55.9289   -4.7548   -3.6772 S   0  0  0  0  0  0  0  0  0  0  0  0
   56.0495   -4.4232   -7.0769 C   0  0  0  0  0  0  0  0  0  0  0  0
   57.0148   -4.7160   -8.1930 C   0  0  0  0  0  0  0  0  0  0  0  0
   56.4064   -4.0972   -9.4639 C   0  0  0  0  0  0  0  0  0  0  0  0
   57.0379   -4.6836  -10.6228 N   0  0  0  0  0  0  0  0  0  0  0  0
   57.4519   -5.6286  -10.5317 H   0  0  0  0  0  0  0  0  0  0  0  0
   57.0555   -3.9274  -11.8254 C   0  0  0  0  0  0  0  0  0  0  0  0
   56.4850   -4.4995  -12.9903 N   0  0  0  0  0  0  0  0  0  0  0  0
   57.5776   -2.7389  -11.8681 N   0  0  0  0  0  0  0  0  0  0  0  0
   56.1445   -5.4711  -13.0185 H   0  0  0  0  0  0  0  0  0  0  0  0
   56.3937   -3.9322  -13.8700 H   0  0  0  0  0  0  0  0  0  0  0  0
   57.6033   -2.1655  -12.7329 H   0  0  0  0  0  0  0  0  0  0  0  0
 18 19  1  0  0  0
 19 20  1  0  0  0
 19 21  1  0  0  0
 19 17  1  0  0  0
 17 13  1  0  0  0
 13 14  2  0  0  0
 13 15  1  0  0  0
 15 12  1  0  0  0
 12 22  1  0  0  0
 22 23  1  0  0  0
 23 24  1  0  0  0
 24 25  1  0  0  0
 24 26  2  0  0  0
 12  5  1  0  0  0
  5  6  2  0  0  0
  5  7  1  0  0  0
  7  8  1  0  0  0
  8  9  1  0  0  0
  9 10  1  0  0  0
 10 11  1  0  0  0
 11  1  1  0  0  0
  1  2  2  0  0  0
  1  3  1  0  0  0
  3 28  1  0  0  0
 28 40  1  0  0  0
 40 41  1  0  0  0
 41 42  1  0  0  0
 42 43  1  0  0  0
 43 45  1  0  0  0
 45 46  1  0  0  0
 45 47  2  0  0  0
 28 29  1  0  0  0
 29 30  2  0  0  0
 29 31  1  0  0  0
 31 32  2  0  0  0
 32 33  1  0  0  0
 33 34  2  0  0  0
 34 35  1  0  0  0
 35 36  2  0  0  0
 36 37  1  0  0  0
 37 38  2  0  0  0
 38 39  1  0  0  0
 11  7  1  0  0  0
 39 31  1  0  0  0
 38 33  1  0  0  0
 15 16  1  0  0  0
 25 27  1  0  0  0
  3  4  1  0  0  0
 43 44  1  0  0  0
 46 48  1  0  0  0
 46 49  1  0  0  0
 47 50  1  0  0  0
M  END
> <minimizedAffinity>
-8.20242

> <CNNscore>
0.2940728962

> <CNNaffinity>
7.5838432312

> <CNN_VS>
2.2302026749

> <CNNaffinity_variance>
0.4559682310

$$$$
[H]N=C(N([H])[H])N([H])C([H])([H])C([H])([H])C([H])([H])[C@@]([H])(C(=O)c1nc2c([H])c([H])c([H])c([H])c2s1)N([H])C(=O)[C@@]1([H])N(C(=O)[C@@]([H])(N([H])C(=O)OC(C([H])([H])[H])(C([H])([H])[H])C([H])([H])[H])C([H])([H])C([H])([H])C(=O)O[H])C([H])([H])C([H])([H])C1([H])[H]


 50 52  0  0  0  0  0  0  0  0999 V2000
   56.3609   -4.3764  -10.3419 C   0  0  0  0  0  0  0  0  0  0  0  0
   55.5635   -4.9600  -11.1829 O   0  0  0  0  0  0  0  0  0  0  0  0
   55.8594   -4.2091   -9.0610 N   0  0  0  0  0  0  0  0  0  0  0  0
   56.3818   -3.7721   -8.2773 H   0  0  0  0  0  0  0  0  0  0  0  0
   59.1542   -5.6851   -9.6293 C   0  0  0  0  0  0  0  0  0  0  0  0
   58.4305   -5.6654   -8.5918 O   0  0  0  0  0  0  0  0  0  0  0  0
   58.7779   -4.8369  -10.7021 N   0  0  0  0  0  0  0  0  0  0  0  0
   59.6582   -4.7077  -11.8698 C   0  0  0  0  0  0  0  0  0  0  0  0
   58.9718   -3.7227  -12.7995 C   0  0  0  0  0  0  0  0  0  0  0  0
   57.5349   -3.8836  -12.4214 C   0  0  0  0  0  0  0  0  0  0  0  0
   57.6436   -4.0006  -10.8680 C   0  0  0  0  0  0  0  0  0  0  0  0
   60.3116   -6.5931   -9.5975 C   0  0  0  0  0  0  0  0  0  0  0  0
   62.2772   -6.6028  -11.1994 C   0  0  0  0  0  0  0  0  0  0  0  0
   62.0518   -7.8082  -11.5209 O   0  0  0  0  0  0  0  0  0  0  0  0
   61.4654   -5.9193  -10.2542 N   0  0  0  0  0  0  0  0  0  0  0  0
   61.6480   -4.9342   -9.9880 H   0  0  0  0  0  0  0  0  0  0  0  0
   63.3425   -5.9709  -11.7987 O   0  0  0  0  0  0  0  0  0  0  0  0
   64.9474   -6.4149  -10.1524 C   0  0  0  0  0  0  0  0  0  0  0  0
   64.6836   -6.3229  -11.6676 C   0  0  0  0  0  0  0  0  0  0  0  0
   65.6098   -5.2715  -12.2473 C   0  0  0  0  0  0  0  0  0  0  0  0
   65.0419   -7.6516  -12.2838 C   0  0  0  0  0  0  0  0  0  0  0  0
   60.7691   -6.9370   -8.1835 C   0  0  0  0  0  0  0  0  0  0  0  0
   62.0198   -7.8143   -8.2381 C   0  0  0  0  0  0  0  0  0  0  0  0
   61.6004   -9.2116   -8.1279 C   0  0  0  0  0  0  0  0  0  0  0  0
   61.0298   -9.6424   -6.9324 O   0  0  0  0  0  0  0  0  0  0  0  0
   61.7452  -10.0059   -9.0753 O   0  0  0  0  0  0  0  0  0  0  0  0
   61.5683   -9.8167   -6.0908 H   0  0  0  0  0  0  0  0  0  0  0  0
   54.5025   -4.6870   -8.7196 C   0  0  0  0  0  0  0  0  0  0  0  0
   53.4907   -3.6672   -8.9060 C   0  0  0  0  0  0  0  0  0  0  0  0
   53.4383   -2.8489   -9.8450 O   0  0  0  0  0  0  0  0  0  0  0  0
   52.3811   -3.5430   -7.9170 C   0  0  0  0  0  0  0  0  0  0  0  0
   52.1116   -4.3282   -6.8932 N   0  0  0  0  0  0  0  0  0  0  0  0
   51.0806   -4.1051   -6.1413 C   0  0  0  0  0  0  0  0  0  0  0  0
   50.6743   -4.8618   -5.0267 C   0  0  0  0  0  0  0  0  0  0  0  0
   49.5757   -4.5491   -4.3084 C   0  0  0  0  0  0  0  0  0  0  0  0
   48.7737   -3.4706   -4.6099 C   0  0  0  0  0  0  0  0  0  0  0  0
   49.1482   -2.7082   -5.6995 C   0  0  0  0  0  0  0  0  0  0  0  0
   50.2868   -3.0293   -6.4472 C   0  0  0  0  0  0  0  0  0  0  0  0
   51.0975   -2.4007   -7.8247 S   0  0  0  0  0  0  0  0  0  0  0  0
   54.5185   -5.2977   -7.3390 C   0  0  0  0  0  0  0  0  0  0  0  0
   55.6974   -4.8520   -6.5177 C   0  0  0  0  0  0  0  0  0  0  0  0
   55.7376   -5.7720   -5.2847 C   0  0  0  0  0  0  0  0  0  0  0  0
   54.5351   -5.5749   -4.5097 N   0  0  0  0  0  0  0  0  0  0  0  0
   53.6653   -5.3164   -5.0089 H   0  0  0  0  0  0  0  0  0  0  0  0
   54.6149   -5.7470   -3.1016 C   0  0  0  0  0  0  0  0  0  0  0  0
   54.4586   -7.0526   -2.5718 N   0  0  0  0  0  0  0  0  0  0  0  0
   54.8270   -4.7399   -2.3092 N   0  0  0  0  0  0  0  0  0  0  0  0
   54.1995   -7.8590   -3.1577 H   0  0  0  0  0  0  0  0  0  0  0  0
   54.6079   -7.2307   -1.5471 H   0  0  0  0  0  0  0  0  0  0  0  0
   54.8899   -4.8380   -1.2779 H   0  0  0  0  0  0  0  0  0  0  0  0
 18 19  1  0  0  0
 19 20  1  0  0  0
 19 21  1  0  0  0
 19 17  1  0  0  0
 17 13  1  0  0  0
 13 14  2  0  0  0
 13 15  1  0  0  0
 15 12  1  0  0  0
 12 22  1  0  0  0
 22 23  1  0  0  0
 23 24  1  0  0  0
 24 25  1  0  0  0
 24 26  2  0  0  0
 12  5  1  0  0  0
  5  6  2  0  0  0
  5  7  1  0  0  0
  7  8  1  0  0  0
  8  9  1  0  0  0
  9 10  1  0  0  0
 10 11  1  0  0  0
 11  1  1  0  0  0
  1  2  2  0  0  0
  1  3  1  0  0  0
  3 28  1  0  0  0
 28 40  1  0  0  0
 40 41  1  0  0  0
 41 42  1  0  0  0
 42 43  1  0  0  0
 43 45  1  0  0  0
 45 46  1  0  0  0
 45 47  2  0  0  0
 28 29  1  0  0  0
 29 30  2  0  0  0
 29 31  1  0  0  0
 31 32  2  0  0  0
 32 33  1  0  0  0
 33 34  2  0  0  0
 34 35  1  0  0  0
 35 36  2  0  0  0
 36 37  1  0  0  0
 37 38  2  0  0  0
 38 39  1  0  0  0
 11  7  1  0  0  0
 39 31  1  0  0  0
 38 33  1  0  0  0
 15 16  1  0  0  0
 25 27  1  0  0  0
  3  4  1  0  0  0
 43 44  1  0  0  0
 46 48  1  0  0  0
 46 49  1  0  0  0
 47 50  1  0  0  0
M  END
> <minimizedAffinity>
-6.91981

> <CNNscore>
0.2933855057

> <CNNaffinity>
7.1811943054

> <CNN_VS>
2.1068582535

> <CNNaffinity_variance>
0.2176244259

$$$$
[H]N=C(N([H])[H])N([H])C([H])([H])C([H])([H])C([H])([H])[C@@]([H])(C(=O)c1nc2c([H])c([H])c([H])c([H])c2s1)N([H])C(=O)[C@@]1([H])N(C(=O)[C@@]([H])(N([H])C(=O)OC(C([H])([H])[H])(C([H])([H])[H])C([H])([H])[H])C([H])([H])C([H])([H])C(=O)O[H])C([H])([H])C([H])([H])C1([H])[H]


 50 52  0  0  0  0  0  0  0  0999 V2000
   59.5854   -6.0729   -9.0729 C   0  0  0  0  0  0  0  0  0  0  0  0
   58.9073   -6.9066   -9.8001 O   0  0  0  0  0  0  0  0  0  0  0  0
   58.8416   -5.3147   -8.1828 N   0  0  0  0  0  0  0  0  0  0  0  0
   59.2423   -4.6161   -7.5275 H   0  0  0  0  0  0  0  0  0  0  0  0
   61.7860   -7.4892   -7.2913 C   0  0  0  0  0  0  0  0  0  0  0  0
   60.8709   -7.0430   -6.5403 O   0  0  0  0  0  0  0  0  0  0  0  0
   61.8576   -6.9704   -8.6095 N   0  0  0  0  0  0  0  0  0  0  0  0
   62.9837   -7.3402   -9.4759 C   0  0  0  0  0  0  0  0  0  0  0  0
   62.7593   -6.6032  -10.7844 C   0  0  0  0  0  0  0  0  0  0  0  0
   61.2752   -6.4269  -10.7947 C   0  0  0  0  0  0  0  0  0  0  0  0
   61.0040   -6.0706   -9.2987 C   0  0  0  0  0  0  0  0  0  0  0  0
   62.6758   -8.5014   -6.7007 C   0  0  0  0  0  0  0  0  0  0  0  0
   63.5772   -7.4007   -4.6018 C   0  0  0  0  0  0  0  0  0  0  0  0
   64.3878   -6.6987   -5.2781 O   0  0  0  0  0  0  0  0  0  0  0  0
   62.6901   -8.3209   -5.2230 N   0  0  0  0  0  0  0  0  0  0  0  0
   62.0274   -8.8974   -4.6727 H   0  0  0  0  0  0  0  0  0  0  0  0
   63.5834   -7.2433   -3.2349 O   0  0  0  0  0  0  0  0  0  0  0  0
   65.5899   -7.1574   -2.0307 C   0  0  0  0  0  0  0  0  0  0  0  0
   64.3289   -7.9916   -2.3272 C   0  0  0  0  0  0  0  0  0  0  0  0
   64.7664   -9.3228   -2.9069 C   0  0  0  0  0  0  0  0  0  0  0  0
   63.6298   -8.2595   -1.0184 C   0  0  0  0  0  0  0  0  0  0  0  0
   62.2094   -9.9324   -6.9493 C   0  0  0  0  0  0  0  0  0  0  0  0
   61.3368  -10.4066   -5.7871 C   0  0  0  0  0  0  0  0  0  0  0  0
   60.6472  -11.6274   -6.2047 C   0  0  0  0  0  0  0  0  0  0  0  0
   60.6276  -12.7122   -5.3311 O   0  0  0  0  0  0  0  0  0  0  0  0
   60.0869  -11.7055   -7.3136 O   0  0  0  0  0  0  0  0  0  0  0  0
   61.4303  -13.3110   -5.1707 H   0  0  0  0  0  0  0  0  0  0  0  0
   57.3754   -5.4846   -8.0973 C   0  0  0  0  0  0  0  0  0  0  0  0
   56.6634   -4.6572   -9.0495 C   0  0  0  0  0  0  0  0  0  0  0  0
   57.0802   -4.3042  -10.1702 O   0  0  0  0  0  0  0  0  0  0  0  0
   55.2986   -4.1581   -8.7138 C   0  0  0  0  0  0  0  0  0  0  0  0
   54.4020   -4.7106   -7.9213 N   0  0  0  0  0  0  0  0  0  0  0  0
   53.2373   -4.1671   -7.7590 C   0  0  0  0  0  0  0  0  0  0  0  0
   52.1900   -4.6500   -6.9528 C   0  0  0  0  0  0  0  0  0  0  0  0
   51.0059   -4.0104   -6.8548 C   0  0  0  0  0  0  0  0  0  0  0  0
   50.7348   -2.8422   -7.5323 C   0  0  0  0  0  0  0  0  0  0  0  0
   51.7451   -2.3435   -8.3318 C   0  0  0  0  0  0  0  0  0  0  0  0
   52.9744   -3.0039   -8.4364 C   0  0  0  0  0  0  0  0  0  0  0  0
   54.4536   -2.7687   -9.2770 S   0  0  0  0  0  0  0  0  0  0  0  0
   56.9319   -5.3019   -6.6658 C   0  0  0  0  0  0  0  0  0  0  0  0
   56.8813   -6.5964   -5.9011 C   0  0  0  0  0  0  0  0  0  0  0  0
   55.5950   -6.5500   -5.0576 C   0  0  0  0  0  0  0  0  0  0  0  0
   55.3079   -5.1779   -4.7104 N   0  0  0  0  0  0  0  0  0  0  0  0
   55.0062   -4.5332   -5.4627 H   0  0  0  0  0  0  0  0  0  0  0  0
   55.4569   -4.7899   -3.3518 C   0  0  0  0  0  0  0  0  0  0  0  0
   54.3906   -5.0512   -2.4549 N   0  0  0  0  0  0  0  0  0  0  0  0
   56.5401   -4.2104   -2.9300 N   0  0  0  0  0  0  0  0  0  0  0  0
   53.4836   -5.4247   -2.7690 H   0  0  0  0  0  0  0  0  0  0  0  0
   54.5047   -4.8665   -1.4268 H   0  0  0  0  0  0  0  0  0  0  0  0
   56.6747   -3.9172   -1.9436 H   0  0  0  0  0  0  0  0  0  0  0  0
 18 19  1  0  0  0
 19 20  1  0  0  0
 19 21  1  0  0  0
 19 17  1  0  0  0
 17 13  1  0  0  0
 13 14  2  0  0  0
 13 15  1  0  0  0
 15 12  1  0  0  0
 12 22  1  0  0  0
 22 23  1  0  0  0
 23 24  1  0  0  0
 24 25  1  0  0  0
 24 26  2  0  0  0
 12  5  1  0  0  0
  5  6  2  0  0  0
  5  7  1  0  0  0
  7  8  1  0  0  0
  8  9  1  0  0  0
  9 10  1  0  0  0
 10 11  1  0  0  0
 11  1  1  0  0  0
  1  2  2  0  0  0
  1  3  1  0  0  0
  3 28  1  0  0  0
 28 40  1  0  0  0
 40 41  1  0  0  0
 41 42  1  0  0  0
 42 43  1  0  0  0
 43 45  1  0  0  0
 45 46  1  0  0  0
 45 47  2  0  0  0
 28 29  1  0  0  0
 29 30  2  0  0  0
 29 31  1  0  0  0
 31 32  2  0  0  0
 32 33  1  0  0  0
 33 34  2  0  0  0
 34 35  1  0  0  0
 35 36  2  0  0  0
 36 37  1  0  0  0
 37 38  2  0  0  0
 38 39  1  0  0  0
 11  7  1  0  0  0
 39 31  1  0  0  0
 38 33  1  0  0  0
 15 16  1  0  0  0
 25 27  1  0  0  0
  3  4  1  0  0  0
 43 44  1  0  0  0
 46 48  1  0  0  0
 46 49  1  0  0  0
 47 50  1  0  0  0
M  END
> <minimizedAffinity>
-5.89082

> <CNNscore>
0.2691489756

> <CNNaffinity>
6.6731414795

> <CNN_VS>
1.7960691452

> <CNNaffinity_variance>
0.1300082505

$$$$
[H]N=C(N([H])[H])N([H])C([H])([H])C([H])([H])C([H])([H])[C@@]([H])(C([H])=O)N([H])C(=O)[C@@]([H])(N([H])C(=O)[C@@]1([H])N(C(=O)[C@@]([H])(N([H])C(=O)OC([H])([H])c2c([H])c([H])c([H])c([H])c2[H])C([H])([H])c2c([H])c([H])c([H])c([H])c2[H])C([H])([H])C([H])([H])C1([H])[H])C([H])([H])C([H])([H])C([H])([H])N([H])C(=N[H])N([H])[H]


 61 63  0  0  0  0  0  0  0  0999 V2000
   54.5804   -5.7498   -6.8083 N   0  0  0  0  0  0  0  0  0  0  0  0
   55.6278   -5.7273   -5.8486 C   0  0  0  0  0  0  0  0  0  0  0  0
   56.0017   -4.5650   -5.4895 O   0  0  0  0  0  0  0  0  0  0  0  0
   54.2210   -6.6518   -7.1591 H   0  0  0  0  0  0  0  0  0  0  0  0
   56.2206   -6.9657   -5.3179 C   0  0  0  0  0  0  0  0  0  0  0  0
   55.0995   -8.0040   -5.1847 C   0  0  0  0  0  0  0  0  0  0  0  0
   54.4396   -7.5862   -3.8872 C   0  0  0  0  0  0  0  0  0  0  0  0
   55.3962   -6.6427   -3.1858 C   0  0  0  0  0  0  0  0  0  0  0  0
   56.6209   -6.8424   -3.9429 N   0  0  0  0  0  0  0  0  0  0  0  0
   57.9507   -6.9423   -3.4276 C   0  0  0  0  0  0  0  0  0  0  0  0
   58.8752   -7.1751   -4.2365 O   0  0  0  0  0  0  0  0  0  0  0  0
   58.2635   -6.7861   -1.9854 C   0  0  0  0  0  0  0  0  0  0  0  0
   59.2535   -7.7374   -1.5763 N   0  0  0  0  0  0  0  0  0  0  0  0
   58.9059   -9.1069   -1.4347 C   0  0  0  0  0  0  0  0  0  0  0  0
   57.7259   -9.5147   -1.6630 O   0  0  0  0  0  0  0  0  0  0  0  0
   60.2219   -7.4488   -1.3796 H   0  0  0  0  0  0  0  0  0  0  0  0
   59.8073  -10.0786   -1.0476 O   0  0  0  0  0  0  0  0  0  0  0  0
   59.3270  -11.3545   -0.5949 C   0  0  0  0  0  0  0  0  0  0  0  0
   59.8636  -12.4494   -1.4601 C   0  0  0  0  0  0  0  0  0  0  0  0
   60.1870  -13.6627   -0.9012 C   0  0  0  0  0  0  0  0  0  0  0  0
   60.6820  -14.6793   -1.6853 C   0  0  0  0  0  0  0  0  0  0  0  0
   60.8730  -14.5259   -3.0546 C   0  0  0  0  0  0  0  0  0  0  0  0
   60.5369  -13.2957   -3.5761 C   0  0  0  0  0  0  0  0  0  0  0  0
   60.0438  -12.2745   -2.8091 C   0  0  0  0  0  0  0  0  0  0  0  0
   58.7121   -5.3686   -1.6730 C   0  0  0  0  0  0  0  0  0  0  0  0
   58.4060   -4.9600   -0.2907 C   0  0  0  0  0  0  0  0  0  0  0  0
   57.0964   -4.9991    0.1772 C   0  0  0  0  0  0  0  0  0  0  0  0
   56.7736   -4.6287    1.4622 C   0  0  0  0  0  0  0  0  0  0  0  0
   57.7385   -4.2000    2.3496 C   0  0  0  0  0  0  0  0  0  0  0  0
   59.0465   -4.1546    1.9006 C   0  0  0  0  0  0  0  0  0  0  0  0
   59.3691   -4.5321    0.5923 C   0  0  0  0  0  0  0  0  0  0  0  0
   53.9504   -4.5310   -7.3548 C   0  0  0  0  0  0  0  0  0  0  0  0
   52.5031   -4.7114   -7.1335 C   0  0  0  0  0  0  0  0  0  0  0  0
   51.9282   -5.7905   -7.5730 O   0  0  0  0  0  0  0  0  0  0  0  0
   51.6494   -3.8153   -6.4666 N   0  0  0  0  0  0  0  0  0  0  0  0
   51.9310   -2.9341   -6.0539 H   0  0  0  0  0  0  0  0  0  0  0  0
   50.1953   -4.1778   -6.3182 C   0  0  0  0  0  0  0  0  0  0  0  0
   49.4475   -3.0582   -6.9100 C   0  0  0  0  0  0  0  0  0  0  0  0
   50.0486   -1.9995   -7.2002 O   0  0  0  0  0  0  0  0  0  0  0  0
   49.9708   -4.4182   -4.8648 C   0  0  0  0  0  0  0  0  0  0  0  0
   50.9093   -5.2176   -4.0885 C   0  0  0  0  0  0  0  0  0  0  0  0
   50.6540   -5.4426   -2.6469 C   0  0  0  0  0  0  0  0  0  0  0  0
   51.8046   -6.1902   -2.0978 N   0  0  0  0  0  0  0  0  0  0  0  0
   52.0003   -7.1351   -2.4511 H   0  0  0  0  0  0  0  0  0  0  0  0
   52.6056   -5.5833   -1.1008 C   0  0  0  0  0  0  0  0  0  0  0  0
   52.8416   -6.2406    0.1303 N   0  0  0  0  0  0  0  0  0  0  0  0
   53.1213   -4.4329   -1.3078 N   0  0  0  0  0  0  0  0  0  0  0  0
   53.7692   -6.1443    0.5830 H   0  0  0  0  0  0  0  0  0  0  0  0
   52.1064   -6.8159    0.5877 H   0  0  0  0  0  0  0  0  0  0  0  0
   52.9746   -3.9190   -2.1893 H   0  0  0  0  0  0  0  0  0  0  0  0
   54.2920   -4.4136   -8.7935 C   0  0  0  0  0  0  0  0  0  0  0  0
   55.5487   -3.6420   -9.0324 C   0  0  0  0  0  0  0  0  0  0  0  0
   56.3437   -4.3413  -10.1460 C   0  0  0  0  0  0  0  0  0  0  0  0
   56.3851   -3.5020  -11.3240 N   0  0  0  0  0  0  0  0  0  0  0  0
   55.9514   -2.5596  -11.3440 H   0  0  0  0  0  0  0  0  0  0  0  0
   56.4662   -3.6618  -13.7514 N   0  0  0  0  0  0  0  0  0  0  0  0
   57.0286   -3.9647  -12.4911 C   0  0  0  0  0  0  0  0  0  0  0  0
   58.1069   -4.6454  -12.3945 N   0  0  0  0  0  0  0  0  0  0  0  0
   56.9998   -3.0766  -14.4135 H   0  0  0  0  0  0  0  0  0  0  0  0
   55.5324   -4.0195  -14.0107 H   0  0  0  0  0  0  0  0  0  0  0  0
   58.6441   -5.0214  -13.2037 H   0  0  0  0  0  0  0  0  0  0  0  0
 56 57  1  0  0  0
 57 58  2  0  0  0
 57 54  1  0  0  0
 54 53  1  0  0  0
 53 52  1  0  0  0
 52 51  1  0  0  0
 51 32  1  0  0  0
 32  1  1  0  0  0
  1  2  1  0  0  0
  2  3  2  0  0  0
  2  5  1  0  0  0
  5  6  1  0  0  0
  6  7  1  0  0  0
  7  8  1  0  0  0
  8  9  1  0  0  0
  9 10  1  0  0  0
 10 11  2  0  0  0
 10 12  1  0  0  0
 12 25  1  0  0  0
 25 26  1  0  0  0
 26 27  2  0  0  0
 27 28  1  0  0  0
 28 29  2  0  0  0
 29 30  1  0  0  0
 30 31  2  0  0  0
 12 13  1  0  0  0
 13 14  1  0  0  0
 14 15  2  0  0  0
 14 17  1  0  0  0
 17 18  1  0  0  0
 18 19  1  0  0  0
 19 20  2  0  0  0
 20 21  1  0  0  0
 21 22  2  0  0  0
 22 23  1  0  0  0
 23 24  2  0  0  0
 32 33  1  0  0  0
 33 34  2  0  0  0
 33 35  1  0  0  0
 35 37  1  0  0  0
 37 40  1  0  0  0
 40 41  1  0  0  0
 41 42  1  0  0  0
 42 43  1  0  0  0
 43 45  1  0  0  0
 45 46  1  0  0  0
 45 47  2  0  0  0
 37 38  1  0  0  0
 38 39  2  0  0  0
  9  5  1  0  0  0
 31 26  1  0  0  0
 24 19  1  0  0  0
 56 59  1  0  0  0
 56 60  1  0  0  0
 58 61  1  0  0  0
 54 55  1  0  0  0
  1  4  1  0  0  0
 13 16  1  0  0  0
 35 36  1  0  0  0
 43 44  1  0  0  0
 46 48  1  0  0  0
 46 49  1  0  0  0
 47 50  1  0  0  0
M  END
> <minimizedAffinity>
-7.85043

> <CNNscore>
0.1822240949

> <CNNaffinity>
6.7452087402

> <CNN_VS>
1.2291395664

> <CNNaffinity_variance>
0.7716848254

$$$$
[H]N=C(N([H])[H])N([H])C([H])([H])C([H])([H])C([H])([H])[C@@]([H])(C([H])=O)N([H])C(=O)[C@@]([H])(N([H])C(=O)[C@@]1([H])N(C(=O)[C@@]([H])(N([H])C(=O)OC([H])([H])c2c([H])c([H])c([H])c([H])c2[H])C([H])([H])c2c([H])c([H])c([H])c([H])c2[H])C([H])([H])C([H])([H])C1([H])[H])C([H])([H])C([H])([H])C([H])([H])N([H])C(=N[H])N([H])[H]


 61 63  0  0  0  0  0  0  0  0999 V2000
   54.8778   -4.7298   -7.6320 N   0  0  0  0  0  0  0  0  0  0  0  0
   55.7975   -4.9464   -6.5708 C   0  0  0  0  0  0  0  0  0  0  0  0
   56.3714   -3.8972   -6.1356 O   0  0  0  0  0  0  0  0  0  0  0  0
   54.3729   -5.5282   -8.0485 H   0  0  0  0  0  0  0  0  0  0  0  0
   56.0510   -6.2901   -6.0261 C   0  0  0  0  0  0  0  0  0  0  0  0
   54.7224   -7.0566   -6.0278 C   0  0  0  0  0  0  0  0  0  0  0  0
   54.0485   -6.5157   -4.7841 C   0  0  0  0  0  0  0  0  0  0  0  0
   55.1163   -5.8135   -3.9696 C   0  0  0  0  0  0  0  0  0  0  0  0
   56.3346   -6.2714   -4.6171 N   0  0  0  0  0  0  0  0  0  0  0  0
   57.5545   -6.6673   -3.9854 C   0  0  0  0  0  0  0  0  0  0  0  0
   58.4790   -7.0907   -4.7129 O   0  0  0  0  0  0  0  0  0  0  0  0
   57.7539   -6.5978   -2.5165 C   0  0  0  0  0  0  0  0  0  0  0  0
   58.7844   -7.5027   -2.1022 N   0  0  0  0  0  0  0  0  0  0  0  0
   58.4404   -8.7500   -1.5171 C   0  0  0  0  0  0  0  0  0  0  0  0
   57.2286   -9.0875   -1.3487 O   0  0  0  0  0  0  0  0  0  0  0  0
   59.7798   -7.2675   -2.2191 H   0  0  0  0  0  0  0  0  0  0  0  0
   59.3790   -9.6716   -1.0975 O   0  0  0  0  0  0  0  0  0  0  0  0
   59.0058  -10.6870   -0.1523 C   0  0  0  0  0  0  0  0  0  0  0  0
   59.4936  -12.0254   -0.6065 C   0  0  0  0  0  0  0  0  0  0  0  0
   60.0499  -12.1594   -1.8561 C   0  0  0  0  0  0  0  0  0  0  0  0
   60.5028  -13.3851   -2.2874 C   0  0  0  0  0  0  0  0  0  0  0  0
   60.4188  -14.5223   -1.4908 C   0  0  0  0  0  0  0  0  0  0  0  0
   59.8552  -14.3462   -0.2460 C   0  0  0  0  0  0  0  0  0  0  0  0
   59.3998  -13.1335    0.1972 C   0  0  0  0  0  0  0  0  0  0  0  0
   58.0679   -5.1789   -2.0733 C   0  0  0  0  0  0  0  0  0  0  0  0
   57.8301   -4.9595   -0.6357 C   0  0  0  0  0  0  0  0  0  0  0  0
   58.8918   -4.6587    0.2117 C   0  0  0  0  0  0  0  0  0  0  0  0
   58.7073   -4.4442    1.5580 C   0  0  0  0  0  0  0  0  0  0  0  0
   57.4551   -4.5175    2.1317 C   0  0  0  0  0  0  0  0  0  0  0  0
   56.3878   -4.8160    1.3034 C   0  0  0  0  0  0  0  0  0  0  0  0
   56.5812   -5.0338   -0.0653 C   0  0  0  0  0  0  0  0  0  0  0  0
   54.5856   -3.3969   -8.1970 C   0  0  0  0  0  0  0  0  0  0  0  0
   53.1191   -3.3555   -8.3513 C   0  0  0  0  0  0  0  0  0  0  0  0
   52.6158   -3.0186   -9.5007 O   0  0  0  0  0  0  0  0  0  0  0  0
   52.1730   -3.6611   -7.3573 N   0  0  0  0  0  0  0  0  0  0  0  0
   52.3893   -3.9507   -6.4110 H   0  0  0  0  0  0  0  0  0  0  0  0
   50.7097   -3.5820   -7.7042 C   0  0  0  0  0  0  0  0  0  0  0  0
   50.2118   -2.3688   -7.0385 C   0  0  0  0  0  0  0  0  0  0  0  0
   50.2381   -1.2756   -7.6474 O   0  0  0  0  0  0  0  0  0  0  0  0
   50.1042   -4.8682   -7.2574 C   0  0  0  0  0  0  0  0  0  0  0  0
   50.9388   -5.9438   -6.7389 C   0  0  0  0  0  0  0  0  0  0  0  0
   50.7858   -6.3671   -5.3277 C   0  0  0  0  0  0  0  0  0  0  0  0
   50.7987   -5.1500   -4.4893 N   0  0  0  0  0  0  0  0  0  0  0  0
   51.5098   -4.4297   -4.6661 H   0  0  0  0  0  0  0  0  0  0  0  0
   49.8303   -5.0103   -3.4662 C   0  0  0  0  0  0  0  0  0  0  0  0
   48.7298   -4.1360   -3.6327 N   0  0  0  0  0  0  0  0  0  0  0  0
   49.9461   -5.6752   -2.3814 N   0  0  0  0  0  0  0  0  0  0  0  0
   47.8079   -4.4070   -3.2437 H   0  0  0  0  0  0  0  0  0  0  0  0
   48.8270   -3.2313   -4.1354 H   0  0  0  0  0  0  0  0  0  0  0  0
   50.7318   -6.3222   -2.2183 H   0  0  0  0  0  0  0  0  0  0  0  0
   55.2947   -3.2547   -9.4921 C   0  0  0  0  0  0  0  0  0  0  0  0
   56.2016   -4.4041   -9.7886 C   0  0  0  0  0  0  0  0  0  0  0  0
   56.3284   -4.5417  -11.3139 C   0  0  0  0  0  0  0  0  0  0  0  0
   57.0431   -3.4053  -11.8538 N   0  0  0  0  0  0  0  0  0  0  0  0
   56.9575   -2.4558  -11.4442 H   0  0  0  0  0  0  0  0  0  0  0  0
   59.2845   -3.5009  -12.7979 N   0  0  0  0  0  0  0  0  0  0  0  0
   57.8845   -3.5749  -12.9735 C   0  0  0  0  0  0  0  0  0  0  0  0
   57.3731   -3.7946  -14.1248 N   0  0  0  0  0  0  0  0  0  0  0  0
   59.8614   -4.3343  -12.9933 H   0  0  0  0  0  0  0  0  0  0  0  0
   59.7292   -2.6251  -12.4778 H   0  0  0  0  0  0  0  0  0  0  0  0
   57.9213   -3.9328  -14.9995 H   0  0  0  0  0  0  0  0  0  0  0  0
 56 57  1  0  0  0
 57 58  2  0  0  0
 57 54  1  0  0  0
 54 53  1  0  0  0
 53 52  1  0  0  0
 52 51  1  0  0  0
 51 32  1  0  0  0
 32  1  1  0  0  0
  1  2  1  0  0  0
  2  3  2  0  0  0
  2  5  1  0  0  0
  5  6  1  0  0  0
  6  7  1  0  0  0
  7  8  1  0  0  0
  8  9  1  0  0  0
  9 10  1  0  0  0
 10 11  2  0  0  0
 10 12  1  0  0  0
 12 25  1  0  0  0
 25 26  1  0  0  0
 26 27  2  0  0  0
 27 28  1  0  0  0
 28 29  2  0  0  0
 29 30  1  0  0  0
 30 31  2  0  0  0
 12 13  1  0  0  0
 13 14  1  0  0  0
 14 15  2  0  0  0
 14 17  1  0  0  0
 17 18  1  0  0  0
 18 19  1  0  0  0
 19 20  2  0  0  0
 20 21  1  0  0  0
 21 22  2  0  0  0
 22 23  1  0  0  0
 23 24  2  0  0  0
 32 33  1  0  0  0
 33 34  2  0  0  0
 33 35  1  0  0  0
 35 37  1  0  0  0
 37 40  1  0  0  0
 40 41  1  0  0  0
 41 42  1  0  0  0
 42 43  1  0  0  0
 43 45  1  0  0  0
 45 46  1  0  0  0
 45 47  2  0  0  0
 37 38  1  0  0  0
 38 39  2  0  0  0
  9  5  1  0  0  0
 31 26  1  0  0  0
 24 19  1  0  0  0
 56 59  1  0  0  0
 56 60  1  0  0  0
 58 61  1  0  0  0
 54 55  1  0  0  0
  1  4  1  0  0  0
 13 16  1  0  0  0
 35 36  1  0  0  0
 43 44  1  0  0  0
 46 48  1  0  0  0
 46 49  1  0  0  0
 47 50  1  0  0  0
M  END
> <minimizedAffinity>
-7.36461

> <CNNscore>
0.1751599908

> <CNNaffinity>
7.0363798141

> <CNN_VS>
1.2324922085

> <CNNaffinity_variance>
0.4270969331

$$$$
[H]N=C(N([H])[H])N([H])C([H])([H])C([H])([H])C([H])([H])[C@@]([H])(C([H])=O)N([H])C(=O)[C@@]([H])(N([H])C(=O)[C@@]1([H])N(C(=O)[C@@]([H])(N([H])C(=O)OC([H])([H])c2c([H])c([H])c([H])c([H])c2[H])C([H])([H])c2c([H])c([H])c([H])c([H])c2[H])C([H])([H])C([H])([H])C1([H])[H])C([H])([H])C([H])([H])C([H])([H])N([H])C(=N[H])N([H])[H]


 61 63  0  0  0  0  0  0  0  0999 V2000
   57.0567   -4.2513   -9.7685 N   0  0  0  0  0  0  0  0  0  0  0  0
   55.6856   -4.2236   -9.3973 C   0  0  0  0  0  0  0  0  0  0  0  0
   54.8781   -4.6240  -10.2957 O   0  0  0  0  0  0  0  0  0  0  0  0
   57.7788   -3.9369   -9.1010 H   0  0  0  0  0  0  0  0  0  0  0  0
   55.2511   -3.7667   -8.0672 C   0  0  0  0  0  0  0  0  0  0  0  0
   56.4983   -3.6376   -7.1837 C   0  0  0  0  0  0  0  0  0  0  0  0
   56.7419   -5.0756   -6.7758 C   0  0  0  0  0  0  0  0  0  0  0  0
   55.4780   -5.8485   -7.0954 C   0  0  0  0  0  0  0  0  0  0  0  0
   54.5279   -4.7768   -7.3442 N   0  0  0  0  0  0  0  0  0  0  0  0
   53.1640   -4.7133   -6.9204 C   0  0  0  0  0  0  0  0  0  0  0  0
   52.5183   -3.6751   -7.1819 O   0  0  0  0  0  0  0  0  0  0  0  0
   52.5019   -5.8205   -6.1869 C   0  0  0  0  0  0  0  0  0  0  0  0
   52.6887   -5.6746   -4.7740 N   0  0  0  0  0  0  0  0  0  0  0  0
   53.6015   -6.5188   -4.0881 C   0  0  0  0  0  0  0  0  0  0  0  0
   54.2635   -7.4108   -4.7018 O   0  0  0  0  0  0  0  0  0  0  0  0
   52.1706   -4.9649   -4.2377 H   0  0  0  0  0  0  0  0  0  0  0  0
   53.8343   -6.4334   -2.7298 O   0  0  0  0  0  0  0  0  0  0  0  0
   52.7786   -6.0097   -1.8524 C   0  0  0  0  0  0  0  0  0  0  0  0
   52.1779   -7.1875   -1.1543 C   0  0  0  0  0  0  0  0  0  0  0  0
   52.9810   -8.0252   -0.4179 C   0  0  0  0  0  0  0  0  0  0  0  0
   52.4418   -9.1131    0.2297 C   0  0  0  0  0  0  0  0  0  0  0  0
   51.0836   -9.4069    0.1684 C   0  0  0  0  0  0  0  0  0  0  0  0
   50.3130   -8.5434   -0.5793 C   0  0  0  0  0  0  0  0  0  0  0  0
   50.8347   -7.4574   -1.2295 C   0  0  0  0  0  0  0  0  0  0  0  0
   51.0247   -5.9000   -6.5332 C   0  0  0  0  0  0  0  0  0  0  0  0
   50.2083   -4.9168   -5.7996 C   0  0  0  0  0  0  0  0  0  0  0  0
   49.8474   -5.1540   -4.4771 C   0  0  0  0  0  0  0  0  0  0  0  0
   49.0893   -4.2575   -3.7598 C   0  0  0  0  0  0  0  0  0  0  0  0
   48.6510   -3.0767   -4.3220 C   0  0  0  0  0  0  0  0  0  0  0  0
   49.0006   -2.8249   -5.6368 C   0  0  0  0  0  0  0  0  0  0  0  0
   49.7715   -3.7406   -6.3619 C   0  0  0  0  0  0  0  0  0  0  0  0
   57.5341   -4.7149  -11.0870 C   0  0  0  0  0  0  0  0  0  0  0  0
   58.8732   -5.2809  -10.8361 C   0  0  0  0  0  0  0  0  0  0  0  0
   59.8463   -4.9776  -11.6417 O   0  0  0  0  0  0  0  0  0  0  0  0
   59.2257   -6.1356   -9.7771 N   0  0  0  0  0  0  0  0  0  0  0  0
   58.5966   -6.4638   -9.0540 H   0  0  0  0  0  0  0  0  0  0  0  0
   60.6539   -6.6007   -9.6691 C   0  0  0  0  0  0  0  0  0  0  0  0
   60.6175   -8.0483   -9.9260 C   0  0  0  0  0  0  0  0  0  0  0  0
   61.4159   -8.5493  -10.7494 O   0  0  0  0  0  0  0  0  0  0  0  0
   61.1266   -6.1884   -8.3174 C   0  0  0  0  0  0  0  0  0  0  0  0
   62.3011   -6.8078   -7.7180 C   0  0  0  0  0  0  0  0  0  0  0  0
   63.6506   -6.3885   -8.1619 C   0  0  0  0  0  0  0  0  0  0  0  0
   64.6393   -7.0719   -7.3017 N   0  0  0  0  0  0  0  0  0  0  0  0
   64.6439   -8.0988   -7.2653 H   0  0  0  0  0  0  0  0  0  0  0  0
   65.5531   -6.2924   -6.5524 C   0  0  0  0  0  0  0  0  0  0  0  0
   65.4650   -6.2408   -5.1407 N   0  0  0  0  0  0  0  0  0  0  0  0
   66.4659   -5.6275   -7.1497 N   0  0  0  0  0  0  0  0  0  0  0  0
   66.3374   -6.1925   -4.5830 H   0  0  0  0  0  0  0  0  0  0  0  0
   64.5465   -6.2505   -4.6539 H   0  0  0  0  0  0  0  0  0  0  0  0
   66.5657   -5.6362   -8.1756 H   0  0  0  0  0  0  0  0  0  0  0  0
   57.5732   -3.5623  -12.0199 C   0  0  0  0  0  0  0  0  0  0  0  0
   56.7235   -3.7651  -13.2317 C   0  0  0  0  0  0  0  0  0  0  0  0
   57.5741   -3.4681  -14.4765 C   0  0  0  0  0  0  0  0  0  0  0  0
   58.9700   -3.3702  -14.1080 N   0  0  0  0  0  0  0  0  0  0  0  0
   59.3027   -3.5853  -13.1490 H   0  0  0  0  0  0  0  0  0  0  0  0
   59.7593   -3.3822  -16.4105 N   0  0  0  0  0  0  0  0  0  0  0  0
   59.9214   -2.9686  -15.0692 C   0  0  0  0  0  0  0  0  0  0  0  0
   60.9104   -2.2381  -14.7174 N   0  0  0  0  0  0  0  0  0  0  0  0
   59.6080   -2.6701  -17.1424 H   0  0  0  0  0  0  0  0  0  0  0  0
   59.7909   -4.3843  -16.6597 H   0  0  0  0  0  0  0  0  0  0  0  0
   61.6536   -1.8973  -15.3625 H   0  0  0  0  0  0  0  0  0  0  0  0
 56 57  1  0  0  0
 57 58  2  0  0  0
 57 54  1  0  0  0
 54 53  1  0  0  0
 53 52  1  0  0  0
 52 51  1  0  0  0
 51 32  1  0  0  0
 32  1  1  0  0  0
  1  2  1  0  0  0
  2  3  2  0  0  0
  2  5  1  0  0  0
  5  6  1  0  0  0
  6  7  1  0  0  0
  7  8  1  0  0  0
  8  9  1  0  0  0
  9 10  1  0  0  0
 10 11  2  0  0  0
 10 12  1  0  0  0
 12 25  1  0  0  0
 25 26  1  0  0  0
 26 27  2  0  0  0
 27 28  1  0  0  0
 28 29  2  0  0  0
 29 30  1  0  0  0
 30 31  2  0  0  0
 12 13  1  0  0  0
 13 14  1  0  0  0
 14 15  2  0  0  0
 14 17  1  0  0  0
 17 18  1  0  0  0
 18 19  1  0  0  0
 19 20  2  0  0  0
 20 21  1  0  0  0
 21 22  2  0  0  0
 22 23  1  0  0  0
 23 24  2  0  0  0
 32 33  1  0  0  0
 33 34  2  0  0  0
 33 35  1  0  0  0
 35 37  1  0  0  0
 37 40  1  0  0  0
 40 41  1  0  0  0
 41 42  1  0  0  0
 42 43  1  0  0  0
 43 45  1  0  0  0
 45 46  1  0  0  0
 45 47  2  0  0  0
 37 38  1  0  0  0
 38 39  2  0  0  0
  9  5  1  0  0  0
 31 26  1  0  0  0
 24 19  1  0  0  0
 56 59  1  0  0  0
 56 60  1  0  0  0
 58 61  1  0  0  0
 54 55  1  0  0  0
  1  4  1  0  0  0
 13 16  1  0  0  0
 35 36  1  0  0  0
 43 44  1  0  0  0
 46 48  1  0  0  0
 46 49  1  0  0  0
 47 50  1  0  0  0
M  END
> <minimizedAffinity>
-7.55763

> <CNNscore>
0.1539826542

> <CNNaffinity>
6.8187360764

> <CNN_VS>
1.0499670506

> <CNNaffinity_variance>
0.1598120630

$$$$
[H]N=C(N([H])[H])N([H])C([H])([H])C([H])([H])C([H])([H])[C@@]([H])(C([H])=O)N([H])C(=O)[C@@]([H])(N([H])C(=O)[C@@]1([H])N(C(=O)[C@@]([H])(N([H])C(=O)OC([H])([H])c2c([H])c([H])c([H])c([H])c2[H])C([H])([H])c2c([H])c([H])c([H])c([H])c2[H])C([H])([H])C([H])([H])C1([H])[H])C([H])([H])C([H])([H])C([H])([H])N([H])C(=N[H])N([H])[H]


 61 63  0  0  0  0  0  0  0  0999 V2000
   55.0627   -5.0805   -7.6527 N   0  0  0  0  0  0  0  0  0  0  0  0
   55.8297   -5.1656   -6.4597 C   0  0  0  0  0  0  0  0  0  0  0  0
   56.2231   -4.0485   -5.9939 O   0  0  0  0  0  0  0  0  0  0  0  0
   54.7092   -5.9404   -8.1015 H   0  0  0  0  0  0  0  0  0  0  0  0
   56.1328   -6.4575   -5.8227 C   0  0  0  0  0  0  0  0  0  0  0  0
   54.8744   -7.3304   -5.9079 C   0  0  0  0  0  0  0  0  0  0  0  0
   54.0422   -6.7909   -4.7634 C   0  0  0  0  0  0  0  0  0  0  0  0
   54.9676   -5.9663   -3.8911 C   0  0  0  0  0  0  0  0  0  0  0  0
   56.2752   -6.3511   -4.3964 N   0  0  0  0  0  0  0  0  0  0  0  0
   57.4547   -6.6156   -3.6331 C   0  0  0  0  0  0  0  0  0  0  0  0
   58.4759   -6.9940   -4.2472 O   0  0  0  0  0  0  0  0  0  0  0  0
   57.5037   -6.4629   -2.1578 C   0  0  0  0  0  0  0  0  0  0  0  0
   58.3656   -7.4480   -1.5753 N   0  0  0  0  0  0  0  0  0  0  0  0
   57.8366   -8.4110   -0.6758 C   0  0  0  0  0  0  0  0  0  0  0  0
   56.6049   -8.4210   -0.3700 O   0  0  0  0  0  0  0  0  0  0  0  0
   59.3710   -7.4745   -1.7951 H   0  0  0  0  0  0  0  0  0  0  0  0
   58.6061   -9.3902   -0.0796 O   0  0  0  0  0  0  0  0  0  0  0  0
   60.0354   -9.3546   -0.2187 C   0  0  0  0  0  0  0  0  0  0  0  0
   60.6289   -8.3854    0.7528 C   0  0  0  0  0  0  0  0  0  0  0  0
   60.1987   -8.3796    2.0581 C   0  0  0  0  0  0  0  0  0  0  0  0
   60.7358   -7.4930    2.9630 C   0  0  0  0  0  0  0  0  0  0  0  0
   61.7210   -6.5798    2.6021 C   0  0  0  0  0  0  0  0  0  0  0  0
   62.1250   -6.6176    1.2853 C   0  0  0  0  0  0  0  0  0  0  0  0
   61.6000   -7.4933    0.3733 C   0  0  0  0  0  0  0  0  0  0  0  0
   57.9404   -5.0612   -1.7668 C   0  0  0  0  0  0  0  0  0  0  0  0
   57.9360   -4.8430   -0.3095 C   0  0  0  0  0  0  0  0  0  0  0  0
   59.1149   -4.5161    0.3530 C   0  0  0  0  0  0  0  0  0  0  0  0
   59.1483   -4.3018    1.7116 C   0  0  0  0  0  0  0  0  0  0  0  0
   58.0088   -4.4013    2.4823 C   0  0  0  0  0  0  0  0  0  0  0  0
   56.8273   -4.7259    1.8395 C   0  0  0  0  0  0  0  0  0  0  0  0
   56.7992   -4.9434    0.4573 C   0  0  0  0  0  0  0  0  0  0  0  0
   54.7258   -3.8041   -8.3149 C   0  0  0  0  0  0  0  0  0  0  0  0
   53.2521   -3.7397   -8.3031 C   0  0  0  0  0  0  0  0  0  0  0  0
   52.6328   -3.2888   -9.3525 O   0  0  0  0  0  0  0  0  0  0  0  0
   52.4144   -4.1362   -7.2460 N   0  0  0  0  0  0  0  0  0  0  0  0
   52.7272   -4.5186   -6.3616 H   0  0  0  0  0  0  0  0  0  0  0  0
   50.9236   -4.0155   -7.4215 C   0  0  0  0  0  0  0  0  0  0  0  0
   50.5710   -2.6883   -6.8949 C   0  0  0  0  0  0  0  0  0  0  0  0
   49.4700   -2.1764   -7.1985 O   0  0  0  0  0  0  0  0  0  0  0  0
   50.3236   -5.1807   -6.7125 C   0  0  0  0  0  0  0  0  0  0  0  0
   50.0374   -5.1174   -5.2854 C   0  0  0  0  0  0  0  0  0  0  0  0
   50.8188   -5.9581   -4.3490 C   0  0  0  0  0  0  0  0  0  0  0  0
   51.0277   -5.1775   -3.1115 N   0  0  0  0  0  0  0  0  0  0  0  0
   50.9628   -4.1528   -3.1508 H   0  0  0  0  0  0  0  0  0  0  0  0
   51.3109   -5.8637   -1.9061 C   0  0  0  0  0  0  0  0  0  0  0  0
   52.4271   -5.4984   -1.1162 N   0  0  0  0  0  0  0  0  0  0  0  0
   50.5571   -6.8217   -1.5237 N   0  0  0  0  0  0  0  0  0  0  0  0
   52.3492   -5.5421   -0.0834 H   0  0  0  0  0  0  0  0  0  0  0  0
   53.3198   -5.1883   -1.5492 H   0  0  0  0  0  0  0  0  0  0  0  0
   49.7347   -7.1207   -2.0686 H   0  0  0  0  0  0  0  0  0  0  0  0
   55.2805   -3.8119   -9.6906 C   0  0  0  0  0  0  0  0  0  0  0  0
   56.5998   -4.5065   -9.7825 C   0  0  0  0  0  0  0  0  0  0  0  0
   57.2547   -4.1301  -11.1207 C   0  0  0  0  0  0  0  0  0  0  0  0
   56.3189   -4.3405  -12.2041 N   0  0  0  0  0  0  0  0  0  0  0  0
   55.3112   -4.5200  -12.0341 H   0  0  0  0  0  0  0  0  0  0  0  0
   57.7599   -3.3631  -13.9049 N   0  0  0  0  0  0  0  0  0  0  0  0
   56.7742   -4.3069  -13.5390 C   0  0  0  0  0  0  0  0  0  0  0  0
   56.2941   -5.1273  -14.3946 N   0  0  0  0  0  0  0  0  0  0  0  0
   58.6800   -3.6972  -14.2329 H   0  0  0  0  0  0  0  0  0  0  0  0
   57.5663   -2.3501  -13.8460 H   0  0  0  0  0  0  0  0  0  0  0  0
   56.5761   -5.1704  -15.3963 H   0  0  0  0  0  0  0  0  0  0  0  0
 56 57  1  0  0  0
 57 58  2  0  0  0
 57 54  1  0  0  0
 54 53  1  0  0  0
 53 52  1  0  0  0
 52 51  1  0  0  0
 51 32  1  0  0  0
 32  1  1  0  0  0
  1  2  1  0  0  0
  2  3  2  0  0  0
  2  5  1  0  0  0
  5  6  1  0  0  0
  6  7  1  0  0  0
  7  8  1  0  0  0
  8  9  1  0  0  0
  9 10  1  0  0  0
 10 11  2  0  0  0
 10 12  1  0  0  0
 12 25  1  0  0  0
 25 26  1  0  0  0
 26 27  2  0  0  0
 27 28  1  0  0  0
 28 29  2  0  0  0
 29 30  1  0  0  0
 30 31  2  0  0  0
 12 13  1  0  0  0
 13 14  1  0  0  0
 14 15  2  0  0  0
 14 17  1  0  0  0
 17 18  1  0  0  0
 18 19  1  0  0  0
 19 20  2  0  0  0
 20 21  1  0  0  0
 21 22  2  0  0  0
 22 23  1  0  0  0
 23 24  2  0  0  0
 32 33  1  0  0  0
 33 34  2  0  0  0
 33 35  1  0  0  0
 35 37  1  0  0  0
 37 40  1  0  0  0
 40 41  1  0  0  0
 41 42  1  0  0  0
 42 43  1  0  0  0
 43 45  1  0  0  0
 45 46  1  0  0  0
 45 47  2  0  0  0
 37 38  1  0  0  0
 38 39  2  0  0  0
  9  5  1  0  0  0
 31 26  1  0  0  0
 24 19  1  0  0  0
 56 59  1  0  0  0
 56 60  1  0  0  0
 58 61  1  0  0  0
 54 55  1  0  0  0
  1  4  1  0  0  0
 13 16  1  0  0  0
 35 36  1  0  0  0
 43 44  1  0  0  0
 46 48  1  0  0  0
 46 49  1  0  0  0
 47 50  1  0  0  0
M  END
> <minimizedAffinity>
-7.36504

> <CNNscore>
0.1499647647

> <CNNaffinity>
6.8764939308

> <CNN_VS>
1.0312317610

> <CNNaffinity_variance>
0.6425518990

$$$$
[H]N=C(N([H])[H])N([H])C([H])([H])C([H])([H])C([H])([H])[C@@]([H])(C([H])=O)N([H])C(=O)[C@@]([H])(N([H])C(=O)[C@@]1([H])N(C(=O)[C@@]([H])(N([H])C(=O)OC([H])([H])c2c([H])c([H])c([H])c([H])c2[H])C([H])([H])c2c([H])c([H])c([H])c([H])c2[H])C([H])([H])C([H])([H])C1([H])[H])C([H])([H])C([H])([H])C([H])([H])N([H])C(=N[H])N([H])[H]


 61 63  0  0  0  0  0  0  0  0999 V2000
   54.1809   -8.0368   -2.2669 N   0  0  0  0  0  0  0  0  0  0  0  0
   53.9194   -7.2808   -3.4411 C   0  0  0  0  0  0  0  0  0  0  0  0
   52.9488   -6.4631   -3.3478 O   0  0  0  0  0  0  0  0  0  0  0  0
   54.9474   -8.7284   -2.2583 H   0  0  0  0  0  0  0  0  0  0  0  0
   54.7243   -7.4421   -4.6629 C   0  0  0  0  0  0  0  0  0  0  0  0
   56.2013   -7.4812   -4.2512 C   0  0  0  0  0  0  0  0  0  0  0  0
   56.5113   -6.0111   -4.0609 C   0  0  0  0  0  0  0  0  0  0  0  0
   55.3885   -5.2317   -4.7159 C   0  0  0  0  0  0  0  0  0  0  0  0
   54.7190   -6.2653   -5.4882 N   0  0  0  0  0  0  0  0  0  0  0  0
   54.1993   -6.1544   -6.8154 C   0  0  0  0  0  0  0  0  0  0  0  0
   53.7069   -7.1780   -7.3379 O   0  0  0  0  0  0  0  0  0  0  0  0
   54.2297   -4.8847   -7.5829 C   0  0  0  0  0  0  0  0  0  0  0  0
   53.1462   -4.0320   -7.1937 N   0  0  0  0  0  0  0  0  0  0  0  0
   52.4479   -3.2794   -8.1748 C   0  0  0  0  0  0  0  0  0  0  0  0
   52.7635   -3.3427   -9.4024 O   0  0  0  0  0  0  0  0  0  0  0  0
   52.8588   -3.9501   -6.2087 H   0  0  0  0  0  0  0  0  0  0  0  0
   51.3934   -2.4405   -7.8736 O   0  0  0  0  0  0  0  0  0  0  0  0
   50.0628   -2.9746   -7.7839 C   0  0  0  0  0  0  0  0  0  0  0  0
   49.7823   -3.4418   -6.3916 C   0  0  0  0  0  0  0  0  0  0  0  0
   49.0203   -2.6641   -5.5528 C   0  0  0  0  0  0  0  0  0  0  0  0
   48.7543   -3.0814   -4.2688 C   0  0  0  0  0  0  0  0  0  0  0  0
   49.2366   -4.2881   -3.7727 C   0  0  0  0  0  0  0  0  0  0  0  0
   49.9957   -5.0381   -4.6443 C   0  0  0  0  0  0  0  0  0  0  0  0
   50.2693   -4.6364   -5.9241 C   0  0  0  0  0  0  0  0  0  0  0  0
   55.5635   -4.1765   -7.4167 C   0  0  0  0  0  0  0  0  0  0  0  0
   56.5421   -4.5419   -8.4560 C   0  0  0  0  0  0  0  0  0  0  0  0
   56.3137   -4.1980   -9.7846 C   0  0  0  0  0  0  0  0  0  0  0  0
   57.2062   -4.5192  -10.7811 C   0  0  0  0  0  0  0  0  0  0  0  0
   58.3741   -5.1998  -10.5068 C   0  0  0  0  0  0  0  0  0  0  0  0
   58.6171   -5.5499   -9.1904 C   0  0  0  0  0  0  0  0  0  0  0  0
   57.7055   -5.2211   -8.1808 C   0  0  0  0  0  0  0  0  0  0  0  0
   53.4059   -7.8951   -1.0177 C   0  0  0  0  0  0  0  0  0  0  0  0
   54.3620   -8.1912    0.0660 C   0  0  0  0  0  0  0  0  0  0  0  0
   54.1196   -9.1864    0.8654 O   0  0  0  0  0  0  0  0  0  0  0  0
   55.5541   -7.4951    0.3317 N   0  0  0  0  0  0  0  0  0  0  0  0
   55.9009   -6.7031   -0.1963 H   0  0  0  0  0  0  0  0  0  0  0  0
   56.4195   -7.9548    1.4752 C   0  0  0  0  0  0  0  0  0  0  0  0
   56.3695   -6.8709    2.4679 C   0  0  0  0  0  0  0  0  0  0  0  0
   55.7405   -5.8214    2.2046 O   0  0  0  0  0  0  0  0  0  0  0  0
   57.7599   -8.2472    0.8935 C   0  0  0  0  0  0  0  0  0  0  0  0
   58.8112   -7.2387    0.9011 C   0  0  0  0  0  0  0  0  0  0  0  0
   58.9186   -6.2918   -0.2329 C   0  0  0  0  0  0  0  0  0  0  0  0
   58.1698   -5.0700    0.1291 N   0  0  0  0  0  0  0  0  0  0  0  0
   58.3207   -4.6477    1.0536 H   0  0  0  0  0  0  0  0  0  0  0  0
   57.2659   -4.5151   -0.8085 C   0  0  0  0  0  0  0  0  0  0  0  0
   57.7341   -3.6806   -1.8513 N   0  0  0  0  0  0  0  0  0  0  0  0
   56.0164   -4.7654   -0.7169 N   0  0  0  0  0  0  0  0  0  0  0  0
   57.2803   -3.7344   -2.7817 H   0  0  0  0  0  0  0  0  0  0  0  0
   58.5211   -3.0176   -1.7035 H   0  0  0  0  0  0  0  0  0  0  0  0
   55.6327   -5.3671    0.0269 H   0  0  0  0  0  0  0  0  0  0  0  0
   52.2682   -8.8466   -1.0438 C   0  0  0  0  0  0  0  0  0  0  0  0
   50.9720   -8.2150   -0.6535 C   0  0  0  0  0  0  0  0  0  0  0  0
   50.6244   -8.6625    0.7749 C   0  0  0  0  0  0  0  0  0  0  0  0
   49.4994   -7.8995    1.2707 N   0  0  0  0  0  0  0  0  0  0  0  0
   49.5659   -6.8819    1.4624 H   0  0  0  0  0  0  0  0  0  0  0  0
   48.2409   -9.6947    2.3282 N   0  0  0  0  0  0  0  0  0  0  0  0
   48.2670   -8.5436    1.5092 C   0  0  0  0  0  0  0  0  0  0  0  0
   47.1961   -8.0792    0.9868 N   0  0  0  0  0  0  0  0  0  0  0  0
   47.7136   -9.6698    3.2153 H   0  0  0  0  0  0  0  0  0  0  0  0
   48.7426  -10.5526    2.0464 H   0  0  0  0  0  0  0  0  0  0  0  0
   46.2483   -8.4918    1.1140 H   0  0  0  0  0  0  0  0  0  0  0  0
 56 57  1  0  0  0
 57 58  2  0  0  0
 57 54  1  0  0  0
 54 53  1  0  0  0
 53 52  1  0  0  0
 52 51  1  0  0  0
 51 32  1  0  0  0
 32  1  1  0  0  0
  1  2  1  0  0  0
  2  3  2  0  0  0
  2  5  1  0  0  0
  5  6  1  0  0  0
  6  7  1  0  0  0
  7  8  1  0  0  0
  8  9  1  0  0  0
  9 10  1  0  0  0
 10 11  2  0  0  0
 10 12  1  0  0  0
 12 25  1  0  0  0
 25 26  1  0  0  0
 26 27  2  0  0  0
 27 28  1  0  0  0
 28 29  2  0  0  0
 29 30  1  0  0  0
 30 31  2  0  0  0
 12 13  1  0  0  0
 13 14  1  0  0  0
 14 15  2  0  0  0
 14 17  1  0  0  0
 17 18  1  0  0  0
 18 19  1  0  0  0
 19 20  2  0  0  0
 20 21  1  0  0  0
 21 22  2  0  0  0
 22 23  1  0  0  0
 23 24  2  0  0  0
 32 33  1  0  0  0
 33 34  2  0  0  0
 33 35  1  0  0  0
 35 37  1  0  0  0
 37 40  1  0  0  0
 40 41  1  0  0  0
 41 42  1  0  0  0
 42 43  1  0  0  0
 43 45  1  0  0  0
 45 46  1  0  0  0
 45 47  2  0  0  0
 37 38  1  0  0  0
 38 39  2  0  0  0
  9  5  1  0  0  0
 31 26  1  0  0  0
 24 19  1  0  0  0
 56 59  1  0  0  0
 56 60  1  0  0  0
 58 61  1  0  0  0
 54 55  1  0  0  0
  1  4  1  0  0  0
 13 16  1  0  0  0
 35 36  1  0  0  0
 43 44  1  0  0  0
 46 48  1  0  0  0
 46 49  1  0  0  0
 47 50  1  0  0  0
M  END
> <minimizedAffinity>
-9.08804

> <CNNscore>
0.1367629021

> <CNNaffinity>
7.0924386978

> <CNN_VS>
0.9699825048

> <CNNaffinity_variance>
0.5758435130

$$$$
[H]N=C(N([H])[H])N([H])C([H])([H])C([H])([H])C([H])([H])[C@@]([H])(C([H])=O)N([H])C(=O)[C@@]([H])(N([H])C(=O)[C@@]1([H])N(C(=O)[C@@]([H])(N([H])C(=O)OC([H])([H])c2c([H])c([H])c([H])c([H])c2[H])C([H])([H])c2c([H])c([H])c([H])c([H])c2[H])C([H])([H])C([H])([H])C1([H])[H])C([H])([H])C([H])([H])C([H])([H])N([H])C(=N[H])N([H])[H]


 61 63  0  0  0  0  0  0  0  0999 V2000
   56.9723   -3.8394  -11.0157 N   0  0  0  0  0  0  0  0  0  0  0  0
   55.7541   -4.1286  -10.3441 C   0  0  0  0  0  0  0  0  0  0  0  0
   54.9262   -4.8277  -11.0115 O   0  0  0  0  0  0  0  0  0  0  0  0
   57.6972   -3.2719  -10.5485 H   0  0  0  0  0  0  0  0  0  0  0  0
   55.4892   -3.6504   -8.9775 C   0  0  0  0  0  0  0  0  0  0  0  0
   56.8258   -3.6099   -8.2261 C   0  0  0  0  0  0  0  0  0  0  0  0
   57.0123   -5.0631   -7.8426 C   0  0  0  0  0  0  0  0  0  0  0  0
   55.6733   -5.7478   -8.0303 C   0  0  0  0  0  0  0  0  0  0  0  0
   54.7771   -4.6134   -8.1827 N   0  0  0  0  0  0  0  0  0  0  0  0
   53.4709   -4.4606   -7.6220 C   0  0  0  0  0  0  0  0  0  0  0  0
   52.8732   -3.3801   -7.8180 O   0  0  0  0  0  0  0  0  0  0  0  0
   52.8140   -5.5246   -6.8229 C   0  0  0  0  0  0  0  0  0  0  0  0
   53.0483   -5.3244   -5.4238 N   0  0  0  0  0  0  0  0  0  0  0  0
   53.9251   -6.1917   -4.7199 C   0  0  0  0  0  0  0  0  0  0  0  0
   54.5131   -7.1520   -5.3053 O   0  0  0  0  0  0  0  0  0  0  0  0
   52.5905   -4.5586   -4.9102 H   0  0  0  0  0  0  0  0  0  0  0  0
   54.2000   -6.0572   -3.3735 O   0  0  0  0  0  0  0  0  0  0  0  0
   54.2990   -7.2283   -2.5474 C   0  0  0  0  0  0  0  0  0  0  0  0
   52.9636   -7.5720   -1.9695 C   0  0  0  0  0  0  0  0  0  0  0  0
   52.7480   -8.8267   -1.4518 C   0  0  0  0  0  0  0  0  0  0  0  0
   51.5239   -9.1570   -0.9171 C   0  0  0  0  0  0  0  0  0  0  0  0
   50.4696   -8.2506   -0.8777 C   0  0  0  0  0  0  0  0  0  0  0  0
   50.7259   -7.0042   -1.4062 C   0  0  0  0  0  0  0  0  0  0  0  0
   51.9380   -6.6608   -1.9419 C   0  0  0  0  0  0  0  0  0  0  0  0
   51.3253   -5.5914   -7.1192 C   0  0  0  0  0  0  0  0  0  0  0  0
   50.5130   -4.8223   -6.1600 C   0  0  0  0  0  0  0  0  0  0  0  0
   50.0262   -3.5654   -6.5045 C   0  0  0  0  0  0  0  0  0  0  0  0
   49.2619   -2.8203   -5.6365 C   0  0  0  0  0  0  0  0  0  0  0  0
   48.9415   -3.2881   -4.3792 C   0  0  0  0  0  0  0  0  0  0  0  0
   49.4179   -4.5365   -4.0199 C   0  0  0  0  0  0  0  0  0  0  0  0
   50.1953   -5.2899   -4.9066 C   0  0  0  0  0  0  0  0  0  0  0  0
   57.2817   -4.3115  -12.3805 C   0  0  0  0  0  0  0  0  0  0  0  0
   58.7310   -4.0919  -12.5462 C   0  0  0  0  0  0  0  0  0  0  0  0
   59.5576   -4.7345  -11.7769 O   0  0  0  0  0  0  0  0  0  0  0  0
   59.3372   -3.2398  -13.4857 N   0  0  0  0  0  0  0  0  0  0  0  0
   58.8456   -2.6737  -14.1670 H   0  0  0  0  0  0  0  0  0  0  0  0
   60.8405   -3.1572  -13.5217 C   0  0  0  0  0  0  0  0  0  0  0  0
   61.1617   -1.7347  -13.3311 C   0  0  0  0  0  0  0  0  0  0  0  0
   62.3111   -1.3199  -13.6019 O   0  0  0  0  0  0  0  0  0  0  0  0
   61.2608   -3.7540  -14.8208 C   0  0  0  0  0  0  0  0  0  0  0  0
   60.7232   -3.2535  -16.0790 C   0  0  0  0  0  0  0  0  0  0  0  0
   61.0947   -3.9239  -17.3464 C   0  0  0  0  0  0  0  0  0  0  0  0
   61.1084   -2.8981  -18.4104 N   0  0  0  0  0  0  0  0  0  0  0  0
   62.0033   -2.4719  -18.6812 H   0  0  0  0  0  0  0  0  0  0  0  0
   59.8881   -2.5320  -19.0274 C   0  0  0  0  0  0  0  0  0  0  0  0
   59.1814   -1.3836  -18.5973 N   0  0  0  0  0  0  0  0  0  0  0  0
   59.4156   -3.2405  -19.9797 N   0  0  0  0  0  0  0  0  0  0  0  0
   58.6830   -0.8065  -19.2995 H   0  0  0  0  0  0  0  0  0  0  0  0
   59.1524   -1.1082  -17.5953 H   0  0  0  0  0  0  0  0  0  0  0  0
   59.8970   -4.0846  -20.3236 H   0  0  0  0  0  0  0  0  0  0  0  0
   56.4770   -3.5348  -13.3549 C   0  0  0  0  0  0  0  0  0  0  0  0
   56.0849   -4.3341  -14.5544 C   0  0  0  0  0  0  0  0  0  0  0  0
   56.1183   -3.4129  -15.7840 C   0  0  0  0  0  0  0  0  0  0  0  0
   57.2984   -3.6885  -16.5747 N   0  0  0  0  0  0  0  0  0  0  0  0
   58.1926   -3.1844  -16.4232 H   0  0  0  0  0  0  0  0  0  0  0  0
   56.5900   -4.3669  -18.8023 N   0  0  0  0  0  0  0  0  0  0  0  0
   57.2486   -4.6677  -17.5891 C   0  0  0  0  0  0  0  0  0  0  0  0
   57.7989   -5.8065  -17.4000 N   0  0  0  0  0  0  0  0  0  0  0  0
   57.1337   -4.3490  -19.6796 H   0  0  0  0  0  0  0  0  0  0  0  0
   55.5767   -4.1663  -18.8154 H   0  0  0  0  0  0  0  0  0  0  0  0
   57.8096   -6.5816  -18.0957 H   0  0  0  0  0  0  0  0  0  0  0  0
 56 57  1  0  0  0
 57 58  2  0  0  0
 57 54  1  0  0  0
 54 53  1  0  0  0
 53 52  1  0  0  0
 52 51  1  0  0  0
 51 32  1  0  0  0
 32  1  1  0  0  0
  1  2  1  0  0  0
  2  3  2  0  0  0
  2  5  1  0  0  0
  5  6  1  0  0  0
  6  7  1  0  0  0
  7  8  1  0  0  0
  8  9  1  0  0  0
  9 10  1  0  0  0
 10 11  2  0  0  0
 10 12  1  0  0  0
 12 25  1  0  0  0
 25 26  1  0  0  0
 26 27  2  0  0  0
 27 28  1  0  0  0
 28 29  2  0  0  0
 29 30  1  0  0  0
 30 31  2  0  0  0
 12 13  1  0  0  0
 13 14  1  0  0  0
 14 15  2  0  0  0
 14 17  1  0  0  0
 17 18  1  0  0  0
 18 19  1  0  0  0
 19 20  2  0  0  0
 20 21  1  0  0  0
 21 22  2  0  0  0
 22 23  1  0  0  0
 23 24  2  0  0  0
 32 33  1  0  0  0
 33 34  2  0  0  0
 33 35  1  0  0  0
 35 37  1  0  0  0
 37 40  1  0  0  0
 40 41  1  0  0  0
 41 42  1  0  0  0
 42 43  1  0  0  0
 43 45  1  0  0  0
 45 46  1  0  0  0
 45 47  2  0  0  0
 37 38  1  0  0  0
 38 39  2  0  0  0
  9  5  1  0  0  0
 31 26  1  0  0  0
 24 19  1  0  0  0
 56 59  1  0  0  0
 56 60  1  0  0  0
 58 61  1  0  0  0
 54 55  1  0  0  0
  1  4  1  0  0  0
 13 16  1  0  0  0
 35 36  1  0  0  0
 43 44  1  0  0  0
 46 48  1  0  0  0
 46 49  1  0  0  0
 47 50  1  0  0  0
M  END
> <minimizedAffinity>
-7.10041

> <CNNscore>
0.1180649027

> <CNNaffinity>
6.6866407394

> <CNN_VS>
0.7894575596

> <CNNaffinity_variance>
0.1220505610

$$$$
[H]N=C(N([H])[H])N([H])C([H])([H])C([H])([H])C([H])([H])[C@@]([H])(C([H])=O)N([H])C(=O)[C@@]([H])(N([H])C(=O)[C@@]1([H])N(C(=O)[C@@]([H])(N([H])C(=O)OC([H])([H])c2c([H])c([H])c([H])c([H])c2[H])C([H])([H])c2c([H])c([H])c([H])c([H])c2[H])C([H])([H])C([H])([H])C1([H])[H])C([H])([H])C([H])([H])C([H])([H])N([H])C(=N[H])N([H])[H]


 61 63  0  0  0  0  0  0  0  0999 V2000
   56.8836   -3.7573  -10.9643 N   0  0  0  0  0  0  0  0  0  0  0  0
   55.6804   -4.1104  -10.2964 C   0  0  0  0  0  0  0  0  0  0  0  0
   54.9163   -4.8941  -10.9457 O   0  0  0  0  0  0  0  0  0  0  0  0
   57.5577   -3.1201  -10.5112 H   0  0  0  0  0  0  0  0  0  0  0  0
   55.3608   -3.6014   -8.9527 C   0  0  0  0  0  0  0  0  0  0  0  0
   56.6705   -3.5145   -8.1591 C   0  0  0  0  0  0  0  0  0  0  0  0
   56.8716   -4.9529   -7.7302 C   0  0  0  0  0  0  0  0  0  0  0  0
   55.5528   -5.6688   -7.9432 C   0  0  0  0  0  0  0  0  0  0  0  0
   54.6409   -4.5569   -8.1560 N   0  0  0  0  0  0  0  0  0  0  0  0
   53.3140   -4.4152   -7.6430 C   0  0  0  0  0  0  0  0  0  0  0  0
   52.7029   -3.3523   -7.8880 O   0  0  0  0  0  0  0  0  0  0  0  0
   52.6509   -5.4703   -6.8373 C   0  0  0  0  0  0  0  0  0  0  0  0
   52.9106   -5.2795   -5.4414 N   0  0  0  0  0  0  0  0  0  0  0  0
   53.7579   -6.1831   -4.7472 C   0  0  0  0  0  0  0  0  0  0  0  0
   54.2970   -7.1682   -5.3386 O   0  0  0  0  0  0  0  0  0  0  0  0
   52.4923   -4.4944   -4.9232 H   0  0  0  0  0  0  0  0  0  0  0  0
   54.0547   -6.0597   -3.4044 O   0  0  0  0  0  0  0  0  0  0  0  0
   53.0257   -5.6685   -2.4815 C   0  0  0  0  0  0  0  0  0  0  0  0
   52.3520   -6.8751   -1.9109 C   0  0  0  0  0  0  0  0  0  0  0  0
   51.0423   -6.7944   -1.5020 C   0  0  0  0  0  0  0  0  0  0  0  0
   50.4097   -7.8968   -0.9747 C   0  0  0  0  0  0  0  0  0  0  0  0
   51.0572   -9.1200   -0.8354 C   0  0  0  0  0  0  0  0  0  0  0  0
   52.3684   -9.1596   -1.2568 C   0  0  0  0  0  0  0  0  0  0  0  0
   53.0115   -8.0715   -1.7829 C   0  0  0  0  0  0  0  0  0  0  0  0
   51.1569   -5.5098   -7.1104 C   0  0  0  0  0  0  0  0  0  0  0  0
   50.3699   -4.7644   -6.1121 C   0  0  0  0  0  0  0  0  0  0  0  0
   49.8515   -3.5114   -6.4230 C   0  0  0  0  0  0  0  0  0  0  0  0
   49.1094   -2.7882   -5.5180 C   0  0  0  0  0  0  0  0  0  0  0  0
   48.8440   -3.2752   -4.2551 C   0  0  0  0  0  0  0  0  0  0  0  0
   49.3524   -4.5200   -3.9290 C   0  0  0  0  0  0  0  0  0  0  0  0
   50.1070   -5.2511   -4.8534 C   0  0  0  0  0  0  0  0  0  0  0  0
   57.2471   -4.2569  -12.3058 C   0  0  0  0  0  0  0  0  0  0  0  0
   58.7159   -4.1390  -12.3773 C   0  0  0  0  0  0  0  0  0  0  0  0
   59.4416   -4.7661  -11.5009 O   0  0  0  0  0  0  0  0  0  0  0  0
   59.4421   -3.4035  -13.3302 N   0  0  0  0  0  0  0  0  0  0  0  0
   59.0384   -2.8657  -14.0879 H   0  0  0  0  0  0  0  0  0  0  0  0
   60.9462   -3.4148  -13.2582 C   0  0  0  0  0  0  0  0  0  0  0  0
   61.3855   -2.2266  -14.0052 C   0  0  0  0  0  0  0  0  0  0  0  0
   61.5556   -2.3035  -15.2428 O   0  0  0  0  0  0  0  0  0  0  0  0
   61.3810   -4.7300  -13.8076 C   0  0  0  0  0  0  0  0  0  0  0  0
   62.7236   -5.2358  -13.5546 C   0  0  0  0  0  0  0  0  0  0  0  0
   63.7310   -5.1991  -14.6398 C   0  0  0  0  0  0  0  0  0  0  0  0
   64.9170   -4.4806  -14.1283 N   0  0  0  0  0  0  0  0  0  0  0  0
   65.7029   -5.0222  -13.7477 H   0  0  0  0  0  0  0  0  0  0  0  0
   64.9374   -3.0660  -14.1776 C   0  0  0  0  0  0  0  0  0  0  0  0
   64.7240   -2.3863  -15.4006 N   0  0  0  0  0  0  0  0  0  0  0  0
   65.1506   -2.3924  -13.1132 N   0  0  0  0  0  0  0  0  0  0  0  0
   64.1983   -1.4929  -15.3952 H   0  0  0  0  0  0  0  0  0  0  0  0
   65.0825   -2.7636  -16.3005 H   0  0  0  0  0  0  0  0  0  0  0  0
   65.3114   -2.8468  -12.2020 H   0  0  0  0  0  0  0  0  0  0  0  0
   56.5630   -3.4313  -13.3310 C   0  0  0  0  0  0  0  0  0  0  0  0
   56.0241   -4.2404  -14.4651 C   0  0  0  0  0  0  0  0  0  0  0  0
   56.3023   -3.4864  -15.7749 C   0  0  0  0  0  0  0  0  0  0  0  0
   57.4071   -4.1054  -16.4751 N   0  0  0  0  0  0  0  0  0  0  0  0
   57.3438   -5.0652  -16.8641 H   0  0  0  0  0  0  0  0  0  0  0  0
   58.6501   -2.0169  -16.3410 N   0  0  0  0  0  0  0  0  0  0  0  0
   58.6161   -3.3973  -16.6405 C   0  0  0  0  0  0  0  0  0  0  0  0
   59.6595   -4.0102  -17.0541 N   0  0  0  0  0  0  0  0  0  0  0  0
   59.2579   -1.6822  -15.5767 H   0  0  0  0  0  0  0  0  0  0  0  0
   58.0748   -1.3476  -16.8778 H   0  0  0  0  0  0  0  0  0  0  0  0
   60.5891   -3.5638  -17.2007 H   0  0  0  0  0  0  0  0  0  0  0  0
 56 57  1  0  0  0
 57 58  2  0  0  0
 57 54  1  0  0  0
 54 53  1  0  0  0
 53 52  1  0  0  0
 52 51  1  0  0  0
 51 32  1  0  0  0
 32  1  1  0  0  0
  1  2  1  0  0  0
  2  3  2  0  0  0
  2  5  1  0  0  0
  5  6  1  0  0  0
  6  7  1  0  0  0
  7  8  1  0  0  0
  8  9  1  0  0  0
  9 10  1  0  0  0
 10 11  2  0  0  0
 10 12  1  0  0  0
 12 25  1  0  0  0
 25 26  1  0  0  0
 26 27  2  0  0  0
 27 28  1  0  0  0
 28 29  2  0  0  0
 29 30  1  0  0  0
 30 31  2  0  0  0
 12 13  1  0  0  0
 13 14  1  0  0  0
 14 15  2  0  0  0
 14 17  1  0  0  0
 17 18  1  0  0  0
 18 19  1  0  0  0
 19 20  2  0  0  0
 20 21  1  0  0  0
 21 22  2  0  0  0
 22 23  1  0  0  0
 23 24  2  0  0  0
 32 33  1  0  0  0
 33 34  2  0  0  0
 33 35  1  0  0  0
 35 37  1  0  0  0
 37 40  1  0  0  0
 40 41  1  0  0  0
 41 42  1  0  0  0
 42 43  1  0  0  0
 43 45  1  0  0  0
 45 46  1  0  0  0
 45 47  2  0  0  0
 37 38  1  0  0  0
 38 39  2  0  0  0
  9  5  1  0  0  0
 31 26  1  0  0  0
 24 19  1  0  0  0
 56 59  1  0  0  0
 56 60  1  0  0  0
 58 61  1  0  0  0
 54 55  1  0  0  0
  1  4  1  0  0  0
 13 16  1  0  0  0
 35 36  1  0  0  0
 43 44  1  0  0  0
 46 48  1  0  0  0
 46 49  1  0  0  0
 47 50  1  0  0  0
M  END
> <minimizedAffinity>
-6.83405

> <CNNscore>
0.1174062341

> <CNNaffinity>
6.7958145142

> <CNN_VS>
0.7978709936

> <CNNaffinity_variance>
0.0757463351

$$$$
[H]N=C(N([H])[H])N([H])C([H])([H])C([H])([H])C([H])([H])[C@@]([H])(C([H])=O)N([H])C(=O)[C@@]([H])(N([H])C(=O)[C@@]1([H])N(C(=O)[C@@]([H])(N([H])C(=O)OC([H])([H])c2c([H])c([H])c([H])c([H])c2[H])C([H])([H])c2c([H])c([H])c([H])c([H])c2[H])C([H])([H])C([H])([H])C1([H])[H])C([H])([H])C([H])([H])C([H])([H])N([H])C(=N[H])N([H])[H]


 61 63  0  0  0  0  0  0  0  0999 V2000
   54.4707   -5.8422   -6.7232 N   0  0  0  0  0  0  0  0  0  0  0  0
   55.6115   -5.7976   -5.8775 C   0  0  0  0  0  0  0  0  0  0  0  0
   56.1027   -4.6371   -5.6998 O   0  0  0  0  0  0  0  0  0  0  0  0
   54.0133   -6.7453   -6.9258 H   0  0  0  0  0  0  0  0  0  0  0  0
   56.1667   -7.0124   -5.2589 C   0  0  0  0  0  0  0  0  0  0  0  0
   55.0074   -7.9857   -5.0112 C   0  0  0  0  0  0  0  0  0  0  0  0
   54.4022   -7.4327   -3.7379 C   0  0  0  0  0  0  0  0  0  0  0  0
   55.4166   -6.4771   -3.1421 C   0  0  0  0  0  0  0  0  0  0  0  0
   56.6102   -6.7928   -3.9094 N   0  0  0  0  0  0  0  0  0  0  0  0
   57.9486   -6.9079   -3.4202 C   0  0  0  0  0  0  0  0  0  0  0  0
   58.8395   -7.2477   -4.2289 O   0  0  0  0  0  0  0  0  0  0  0  0
   58.3080   -6.6462   -2.0044 C   0  0  0  0  0  0  0  0  0  0  0  0
   59.5419   -7.2917   -1.6678 N   0  0  0  0  0  0  0  0  0  0  0  0
   59.5310   -8.4904   -0.9066 C   0  0  0  0  0  0  0  0  0  0  0  0
   58.4429   -9.0105   -0.5110 O   0  0  0  0  0  0  0  0  0  0  0  0
   60.4467   -6.9027   -1.9671 H   0  0  0  0  0  0  0  0  0  0  0  0
   60.6796   -9.1677   -0.5482 O   0  0  0  0  0  0  0  0  0  0  0  0
   61.6018   -9.5916   -1.5647 C   0  0  0  0  0  0  0  0  0  0  0  0
   62.9436   -8.9708   -1.3418 C   0  0  0  0  0  0  0  0  0  0  0  0
   63.0442   -7.8093   -0.6139 C   0  0  0  0  0  0  0  0  0  0  0  0
   64.2724   -7.2267   -0.4011 C   0  0  0  0  0  0  0  0  0  0  0  0
   65.4457   -7.7787   -0.9048 C   0  0  0  0  0  0  0  0  0  0  0  0
   65.3024   -8.9423   -1.6285 C   0  0  0  0  0  0  0  0  0  0  0  0
   64.0875   -9.5337   -1.8490 C   0  0  0  0  0  0  0  0  0  0  0  0
   58.3828   -5.1545   -1.7255 C   0  0  0  0  0  0  0  0  0  0  0  0
   58.2080   -4.8267   -0.2995 C   0  0  0  0  0  0  0  0  0  0  0  0
   56.9579   -4.9486    0.2988 C   0  0  0  0  0  0  0  0  0  0  0  0
   56.7578   -4.6549    1.6279 C   0  0  0  0  0  0  0  0  0  0  0  0
   57.7927   -4.2246    2.4317 C   0  0  0  0  0  0  0  0  0  0  0  0
   59.0429   -4.0974    1.8527 C   0  0  0  0  0  0  0  0  0  0  0  0
   59.2407   -4.3971    0.5002 C   0  0  0  0  0  0  0  0  0  0  0  0
   53.8756   -4.6455   -7.3516 C   0  0  0  0  0  0  0  0  0  0  0  0
   52.4235   -4.7704   -7.1229 C   0  0  0  0  0  0  0  0  0  0  0  0
   51.8276   -5.8782   -7.4480 O   0  0  0  0  0  0  0  0  0  0  0  0
   51.5862   -3.7899   -6.5627 N   0  0  0  0  0  0  0  0  0  0  0  0
   51.8848   -2.8755   -6.2450 H   0  0  0  0  0  0  0  0  0  0  0  0
   50.1238   -4.1036   -6.3869 C   0  0  0  0  0  0  0  0  0  0  0  0
   49.4029   -3.0058   -7.0488 C   0  0  0  0  0  0  0  0  0  0  0  0
   49.9119   -1.8628   -7.0787 O   0  0  0  0  0  0  0  0  0  0  0  0
   49.8996   -4.2425   -4.9203 C   0  0  0  0  0  0  0  0  0  0  0  0
   50.4391   -5.3811   -4.1889 C   0  0  0  0  0  0  0  0  0  0  0  0
   50.4681   -5.3467   -2.7084 C   0  0  0  0  0  0  0  0  0  0  0  0
   51.8804   -5.2268   -2.2891 N   0  0  0  0  0  0  0  0  0  0  0  0
   52.5442   -4.7407   -2.9047 H   0  0  0  0  0  0  0  0  0  0  0  0
   52.2789   -5.7844   -1.0505 C   0  0  0  0  0  0  0  0  0  0  0  0
   51.7631   -7.0316   -0.6245 N   0  0  0  0  0  0  0  0  0  0  0  0
   53.1097   -5.1609   -0.3067 N   0  0  0  0  0  0  0  0  0  0  0  0
   52.3812   -7.6812   -0.1044 H   0  0  0  0  0  0  0  0  0  0  0  0
   50.7807   -7.3083   -0.8221 H   0  0  0  0  0  0  0  0  0  0  0  0
   53.5094   -4.2503   -0.5779 H   0  0  0  0  0  0  0  0  0  0  0  0
   54.2219   -4.6338   -8.7939 C   0  0  0  0  0  0  0  0  0  0  0  0
   55.1733   -3.5404   -9.1553 C   0  0  0  0  0  0  0  0  0  0  0  0
   56.4506   -4.1767   -9.7252 C   0  0  0  0  0  0  0  0  0  0  0  0
   57.3289   -4.5718   -8.6452 N   0  0  0  0  0  0  0  0  0  0  0  0
   57.1575   -4.2843   -7.6630 H   0  0  0  0  0  0  0  0  0  0  0  0
   58.8568   -5.5617  -10.2608 N   0  0  0  0  0  0  0  0  0  0  0  0
   58.4595   -5.3702   -8.9185 C   0  0  0  0  0  0  0  0  0  0  0  0
   59.1077   -5.9046   -7.9543 N   0  0  0  0  0  0  0  0  0  0  0  0
   59.7777   -5.2111  -10.5684 H   0  0  0  0  0  0  0  0  0  0  0  0
   58.2358   -6.0458  -10.9295 H   0  0  0  0  0  0  0  0  0  0  0  0
   59.9516   -6.5041   -8.0688 H   0  0  0  0  0  0  0  0  0  0  0  0
 56 57  1  0  0  0
 57 58  2  0  0  0
 57 54  1  0  0  0
 54 53  1  0  0  0
 53 52  1  0  0  0
 52 51  1  0  0  0
 51 32  1  0  0  0
 32  1  1  0  0  0
  1  2  1  0  0  0
  2  3  2  0  0  0
  2  5  1  0  0  0
  5  6  1  0  0  0
  6  7  1  0  0  0
  7  8  1  0  0  0
  8  9  1  0  0  0
  9 10  1  0  0  0
 10 11  2  0  0  0
 10 12  1  0  0  0
 12 25  1  0  0  0
 25 26  1  0  0  0
 26 27  2  0  0  0
 27 28  1  0  0  0
 28 29  2  0  0  0
 29 30  1  0  0  0
 30 31  2  0  0  0
 12 13  1  0  0  0
 13 14  1  0  0  0
 14 15  2  0  0  0
 14 17  1  0  0  0
 17 18  1  0  0  0
 18 19  1  0  0  0
 19 20  2  0  0  0
 20 21  1  0  0  0
 21 22  2  0  0  0
 22 23  1  0  0  0
 23 24  2  0  0  0
 32 33  1  0  0  0
 33 34  2  0  0  0
 33 35  1  0  0  0
 35 37  1  0  0  0
 37 40  1  0  0  0
 40 41  1  0  0  0
 41 42  1  0  0  0
 42 43  1  0  0  0
 43 45  1  0  0  0
 45 46  1  0  0  0
 45 47  2  0  0  0
 37 38  1  0  0  0
 38 39  2  0  0  0
  9  5  1  0  0  0
 31 26  1  0  0  0
 24 19  1  0  0  0
 56 59  1  0  0  0
 56 60  1  0  0  0
 58 61  1  0  0  0
 54 55  1  0  0  0
  1  4  1  0  0  0
 13 16  1  0  0  0
 35 36  1  0  0  0
 43 44  1  0  0  0
 46 48  1  0  0  0
 46 49  1  0  0  0
 47 50  1  0  0  0
M  END
> <minimizedAffinity>
-7.17061

> <CNNscore>
0.1031868756

> <CNNaffinity>
6.5318326950

> <CNN_VS>
0.6739994287

> <CNNaffinity_variance>
0.6551784277

$$$$
[H]N=C(N([H])[H])N([H])C([H])([H])C([H])([H])C([H])([H])[C@@]([H])(C([H])=O)N([H])C(=O)[C@@]([H])(N([H])C(=O)[C@@]1([H])N(C(=O)[C@@]([H])(N([H])C(=O)OC([H])([H])c2c([H])c([H])c([H])c([H])c2[H])C([H])([H])c2c([H])c([H])c([H])c([H])c2[H])C([H])([H])C([H])([H])C1([H])[H])C([H])([H])C([H])([H])C([H])([H])N([H])C(=N[H])N([H])[H]


 61 63  0  0  0  0  0  0  0  0999 V2000
   54.7527   -5.0999   -7.7416 N   0  0  0  0  0  0  0  0  0  0  0  0
   55.7223   -5.1559   -6.7046 C   0  0  0  0  0  0  0  0  0  0  0  0
   56.3325   -4.0618   -6.4807 O   0  0  0  0  0  0  0  0  0  0  0  0
   54.2160   -5.9453   -7.9927 H   0  0  0  0  0  0  0  0  0  0  0  0
   55.9845   -6.3945   -5.9537 C   0  0  0  0  0  0  0  0  0  0  0  0
   54.6851   -7.2089   -5.9215 C   0  0  0  0  0  0  0  0  0  0  0  0
   53.9141   -6.5226   -4.8134 C   0  0  0  0  0  0  0  0  0  0  0  0
   54.9028   -5.6650   -4.0491 C   0  0  0  0  0  0  0  0  0  0  0  0
   56.1751   -6.1598   -4.5485 N   0  0  0  0  0  0  0  0  0  0  0  0
   57.3638   -6.4078   -3.7940 C   0  0  0  0  0  0  0  0  0  0  0  0
   58.3472   -6.8926   -4.3950 O   0  0  0  0  0  0  0  0  0  0  0  0
   57.4649   -6.1178   -2.3422 C   0  0  0  0  0  0  0  0  0  0  0  0
   56.1877   -6.2566   -1.7082 N   0  0  0  0  0  0  0  0  0  0  0  0
   55.5970   -7.5411   -1.5762 C   0  0  0  0  0  0  0  0  0  0  0  0
   56.1780   -8.5821   -2.0116 O   0  0  0  0  0  0  0  0  0  0  0  0
   55.6816   -5.4382   -1.3425 H   0  0  0  0  0  0  0  0  0  0  0  0
   54.3718   -7.7506   -0.9748 O   0  0  0  0  0  0  0  0  0  0  0  0
   54.3141   -8.3219    0.3419 C   0  0  0  0  0  0  0  0  0  0  0  0
   55.4633   -7.8411    1.1687 C   0  0  0  0  0  0  0  0  0  0  0  0
   56.5313   -8.6744    1.4006 C   0  0  0  0  0  0  0  0  0  0  0  0
   57.5957   -8.2453    2.1599 C   0  0  0  0  0  0  0  0  0  0  0  0
   57.6362   -6.9710    2.7160 C   0  0  0  0  0  0  0  0  0  0  0  0
   56.5471   -6.1666    2.4605 C   0  0  0  0  0  0  0  0  0  0  0  0
   55.4808   -6.5792    1.7075 C   0  0  0  0  0  0  0  0  0  0  0  0
   58.5001   -7.0088   -1.6768 C   0  0  0  0  0  0  0  0  0  0  0  0
   59.2517   -6.3211   -0.6121 C   0  0  0  0  0  0  0  0  0  0  0  0
   58.8750   -5.0467   -0.2004 C   0  0  0  0  0  0  0  0  0  0  0  0
   59.5506   -4.3756    0.7926 C   0  0  0  0  0  0  0  0  0  0  0  0
   60.6373   -4.9389    1.4285 C   0  0  0  0  0  0  0  0  0  0  0  0
   61.0258   -6.2059    1.0311 C   0  0  0  0  0  0  0  0  0  0  0  0
   60.3353   -6.8838    0.0202 C   0  0  0  0  0  0  0  0  0  0  0  0
   54.4507   -3.8746   -8.5087 C   0  0  0  0  0  0  0  0  0  0  0  0
   52.9893   -3.7031   -8.4038 C   0  0  0  0  0  0  0  0  0  0  0  0
   52.3613   -3.0610   -9.3425 O   0  0  0  0  0  0  0  0  0  0  0  0
   52.1715   -4.1843   -7.3664 N   0  0  0  0  0  0  0  0  0  0  0  0
   52.4925   -4.7122   -6.5635 H   0  0  0  0  0  0  0  0  0  0  0  0
   50.6891   -3.9289   -7.4376 C   0  0  0  0  0  0  0  0  0  0  0  0
   50.4796   -2.6346   -6.7714 C   0  0  0  0  0  0  0  0  0  0  0  0
   49.3438   -2.3419   -6.3347 O   0  0  0  0  0  0  0  0  0  0  0  0
   50.0315   -5.1054   -6.8021 C   0  0  0  0  0  0  0  0  0  0  0  0
   50.5657   -5.6858   -5.5773 C   0  0  0  0  0  0  0  0  0  0  0  0
   50.7658   -4.8224   -4.3905 C   0  0  0  0  0  0  0  0  0  0  0  0
   50.3717   -5.6003   -3.1971 N   0  0  0  0  0  0  0  0  0  0  0  0
   49.3730   -5.7375   -2.9982 H   0  0  0  0  0  0  0  0  0  0  0  0
   51.3815   -6.1353   -2.3615 C   0  0  0  0  0  0  0  0  0  0  0  0
   51.6605   -7.5228   -2.3694 N   0  0  0  0  0  0  0  0  0  0  0  0
   52.0487   -5.3645   -1.5915 N   0  0  0  0  0  0  0  0  0  0  0  0
   52.6411   -7.8400   -2.2582 H   0  0  0  0  0  0  0  0  0  0  0  0
   50.9048   -8.2274   -2.4842 H   0  0  0  0  0  0  0  0  0  0  0  0
   51.8779   -4.3487   -1.5537 H   0  0  0  0  0  0  0  0  0  0  0  0
   54.8992   -4.0588   -9.9106 C   0  0  0  0  0  0  0  0  0  0  0  0
   56.3802   -4.2105  -10.0329 C   0  0  0  0  0  0  0  0  0  0  0  0
   56.8425   -3.4631  -11.2934 C   0  0  0  0  0  0  0  0  0  0  0  0
   57.7785   -4.2798  -12.0355 N   0  0  0  0  0  0  0  0  0  0  0  0
   58.0605   -5.2249  -11.7133 H   0  0  0  0  0  0  0  0  0  0  0  0
   57.4813   -3.4911  -14.3190 N   0  0  0  0  0  0  0  0  0  0  0  0
   58.3369   -3.7903  -13.2351 C   0  0  0  0  0  0  0  0  0  0  0  0
   59.6015   -3.6224  -13.3249 N   0  0  0  0  0  0  0  0  0  0  0  0
   57.4174   -2.5175  -14.6563 H   0  0  0  0  0  0  0  0  0  0  0  0
   56.9245   -4.2347  -14.7709 H   0  0  0  0  0  0  0  0  0  0  0  0
   60.0926   -3.2645  -14.1708 H   0  0  0  0  0  0  0  0  0  0  0  0
 56 57  1  0  0  0
 57 58  2  0  0  0
 57 54  1  0  0  0
 54 53  1  0  0  0
 53 52  1  0  0  0
 52 51  1  0  0  0
 51 32  1  0  0  0
 32  1  1  0  0  0
  1  2  1  0  0  0
  2  3  2  0  0  0
  2  5  1  0  0  0
  5  6  1  0  0  0
  6  7  1  0  0  0
  7  8  1  0  0  0
  8  9  1  0  0  0
  9 10  1  0  0  0
 10 11  2  0  0  0
 10 12  1  0  0  0
 12 25  1  0  0  0
 25 26  1  0  0  0
 26 27  2  0  0  0
 27 28  1  0  0  0
 28 29  2  0  0  0
 29 30  1  0  0  0
 30 31  2  0  0  0
 12 13  1  0  0  0
 13 14  1  0  0  0
 14 15  2  0  0  0
 14 17  1  0  0  0
 17 18  1  0  0  0
 18 19  1  0  0  0
 19 20  2  0  0  0
 20 21  1  0  0  0
 21 22  2  0  0  0
 22 23  1  0  0  0
 23 24  2  0  0  0
 32 33  1  0  0  0
 33 34  2  0  0  0
 33 35  1  0  0  0
 35 37  1  0  0  0
 37 40  1  0  0  0
 40 41  1  0  0  0
 41 42  1  0  0  0
 42 43  1  0  0  0
 43 45  1  0  0  0
 45 46  1  0  0  0
 45 47  2  0  0  0
 37 38  1  0  0  0
 38 39  2  0  0  0
  9  5  1  0  0  0
 31 26  1  0  0  0
 24 19  1  0  0  0
 56 59  1  0  0  0
 56 60  1  0  0  0
 58 61  1  0  0  0
 54 55  1  0  0  0
  1  4  1  0  0  0
 13 16  1  0  0  0
 35 36  1  0  0  0
 43 44  1  0  0  0
 46 48  1  0  0  0
 46 49  1  0  0  0
 47 50  1  0  0  0
M  END
> <minimizedAffinity>
-7.24211

> <CNNscore>
0.0933408514

> <CNNaffinity>
6.8486504555

> <CNN_VS>
0.6392588615

> <CNNaffinity_variance>
0.6325662732

$$$$
[H]C1=C([H])C([H])(F)C([H])([H])C([H])=C1N([H])C(=O)C1(C(=O)N([H])c2c([H])c([H])c(Oc3c([H])c([H])nc4c([H])c(OC([H])([H])C([H])([H])C([H])([H])N5C([H])([H])C([H])([H])OC([H])([H])C5([H])[H])c(OC([H])([H])[H])c([H])c34)c(F)c2[H])C([H])([H])C1([H])[H]


 48 53  0  0  0  0  0  0  0  0999 V2000
   56.1828   -4.4601   -9.9571 C   0  0  0  0  0  0  0  0  0  0  0  0
   55.5698   -3.7250  -10.9622 C   0  0  0  0  0  0  0  0  0  0  0  0
   56.1525   -3.4062  -12.1527 C   0  0  0  0  0  0  0  0  0  0  0  0
   57.4598   -3.8373  -12.4049 C   0  0  0  0  0  0  0  0  0  0  0  0
   58.1007   -4.5663  -11.4403 C   0  0  0  0  0  0  0  0  0  0  0  0
   57.4746   -4.8799  -10.2228 C   0  0  0  0  0  0  0  0  0  0  0  0
   58.1646   -5.6273   -9.3302 F   0  0  0  0  0  0  0  0  0  0  0  0
   58.0477   -3.5309  -13.6832 N   0  0  0  0  0  0  0  0  0  0  0  0
   57.5161   -3.9652  -14.8758 C   0  0  0  0  0  0  0  0  0  0  0  0
   56.4569   -4.7098  -14.7879 O   0  0  0  0  0  0  0  0  0  0  0  0
   58.9165   -2.9786  -13.6188 H   0  0  0  0  0  0  0  0  0  0  0  0
   57.9437   -3.7363  -16.2771 C   0  0  0  0  0  0  0  0  0  0  0  0
   58.4650   -2.3367  -16.5560 C   0  0  0  0  0  0  0  0  0  0  0  0
   57.0974   -2.6080  -16.9889 C   0  0  0  0  0  0  0  0  0  0  0  0
   58.3633   -4.7947  -17.1964 C   0  0  0  0  0  0  0  0  0  0  0  0
   59.6691   -4.9039  -17.3024 O   0  0  0  0  0  0  0  0  0  0  0  0
   57.6717   -5.7128  -17.9771 N   0  0  0  0  0  0  0  0  0  0  0  0
   56.6423   -5.7968  -18.0045 H   0  0  0  0  0  0  0  0  0  0  0  0
   58.3898   -6.6739  -18.8147 C   0  0  0  0  0  0  0  0  0  0  0  0
   58.6943   -6.2979  -20.0361 C   0  0  0  0  0  0  0  0  0  0  0  0
   59.4059   -7.0989  -21.0276 C   0  0  0  0  0  0  0  0  0  0  0  0
   59.7623   -8.4689  -20.5995 C   0  0  0  0  0  0  0  0  0  0  0  0
   61.1663   -8.6485  -20.6915 F   0  0  0  0  0  0  0  0  0  0  0  0
   59.3795   -8.7875  -19.2227 C   0  0  0  0  0  0  0  0  0  0  0  0
   58.7518   -7.9862  -18.3861 C   0  0  0  0  0  0  0  0  0  0  0  0
   55.5370   -4.7520   -8.7758 O   0  0  0  0  0  0  0  0  0  0  0  0
   53.6185   -6.2593   -5.4870 C   0  0  0  0  0  0  0  0  0  0  0  0
   54.2731   -5.7670   -6.5825 C   0  0  0  0  0  0  0  0  0  0  0  0
   53.6461   -4.8193   -7.3623 C   0  0  0  0  0  0  0  0  0  0  0  0
   54.2809   -4.2844   -8.5041 C   0  0  0  0  0  0  0  0  0  0  0  0
   53.6357   -3.3433   -9.2714 C   0  0  0  0  0  0  0  0  0  0  0  0
   52.3710   -2.9064   -8.9441 C   0  0  0  0  0  0  0  0  0  0  0  0
   51.7703   -3.4161   -7.8573 N   0  0  0  0  0  0  0  0  0  0  0  0
   52.3888   -4.3499   -7.0824 C   0  0  0  0  0  0  0  0  0  0  0  0
   51.7298   -4.8524   -5.9708 C   0  0  0  0  0  0  0  0  0  0  0  0
   52.3296   -5.7973   -5.1734 C   0  0  0  0  0  0  0  0  0  0  0  0
   55.3902   -7.8063   -4.9464 C   0  0  0  0  0  0  0  0  0  0  0  0
   54.1510   -7.2103   -4.6379 O   0  0  0  0  0  0  0  0  0  0  0  0
   51.6967   -6.2895   -4.0791 O   0  0  0  0  0  0  0  0  0  0  0  0
   51.3590   -5.5636   -2.9535 C   0  0  0  0  0  0  0  0  0  0  0  0
   52.1074   -6.0319   -1.7133 C   0  0  0  0  0  0  0  0  0  0  0  0
   53.2366   -5.0326   -1.4284 C   0  0  0  0  0  0  0  0  0  0  0  0
   54.4694   -5.7723   -1.3232 N   0  0  0  0  0  0  0  0  0  0  0  0
   55.3637   -5.1191   -0.3391 C   0  0  0  0  0  0  0  0  0  0  0  0
   56.5610   -6.0678   -0.2307 C   0  0  0  0  0  0  0  0  0  0  0  0
   56.6246   -6.9605   -1.3006 O   0  0  0  0  0  0  0  0  0  0  0  0
   55.5527   -7.8748   -1.2858 C   0  0  0  0  0  0  0  0  0  0  0  0
   54.2832   -7.1386   -0.8377 C   0  0  0  0  0  0  0  0  0  0  0  0
 37 38  1  0  0  0
 38 27  1  0  0  0
 27 28  2  0  0  0
 28 29  1  0  0  0
 29 30  2  0  0  0
 30 26  1  0  0  0
 26  1  1  0  0  0
  1  2  2  0  0  0
  2  3  1  0  0  0
  3  4  2  0  0  0
  4  8  1  0  0  0
  8  9  1  0  0  0
  9 10  2  0  0  0
  9 12  1  0  0  0
 12 13  1  0  0  0
 13 14  1  0  0  0
 12 15  1  0  0  0
 15 16  2  0  0  0
 15 17  1  0  0  0
 17 19  1  0  0  0
 19 20  2  0  0  0
 20 21  1  0  0  0
 21 22  1  0  0  0
 22 23  1  0  0  0
 22 24  1  0  0  0
 24 25  2  0  0  0
  4  5  1  0  0  0
  5  6  2  0  0  0
  6  7  1  0  0  0
 30 31  1  0  0  0
 31 32  2  0  0  0
 32 33  1  0  0  0
 33 34  2  0  0  0
 34 35  1  0  0  0
 35 36  2  0  0  0
 36 39  1  0  0  0
 39 40  1  0  0  0
 40 41  1  0  0  0
 41 42  1  0  0  0
 42 43  1  0  0  0
 43 44  1  0  0  0
 44 45  1  0  0  0
 45 46  1  0  0  0
 46 47  1  0  0  0
 47 48  1  0  0  0
 36 27  1  0  0  0
 48 43  1  0  0  0
 34 29  1  0  0  0
  6  1  1  0  0  0
 14 12  1  0  0  0
 25 19  1  0  0  0
  8 11  1  0  0  0
 17 18  1  0  0  0
M  END
> <minimizedAffinity>
-8.44961

> <CNNscore>
0.3133237362

> <CNNaffinity>
7.1028466225

> <CNN_VS>
2.2254903316

> <CNNaffinity_variance>
0.0665130019

$$$$
[H]C1=C([H])C([H])(F)C([H])([H])C([H])=C1N([H])C(=O)C1(C(=O)N([H])c2c([H])c([H])c(Oc3c([H])c([H])nc4c([H])c(OC([H])([H])C([H])([H])C([H])([H])N5C([H])([H])C([H])([H])OC([H])([H])C5([H])[H])c(OC([H])([H])[H])c([H])c34)c(F)c2[H])C([H])([H])C1([H])[H]


 48 53  0  0  0  0  0  0  0  0999 V2000
   55.4638   -5.5529   -5.4784 C   0  0  0  0  0  0  0  0  0  0  0  0
   55.8059   -4.9210   -4.2909 C   0  0  0  0  0  0  0  0  0  0  0  0
   55.1573   -5.0990   -3.1052 C   0  0  0  0  0  0  0  0  0  0  0  0
   54.0666   -5.9743   -3.0535 C   0  0  0  0  0  0  0  0  0  0  0  0
   53.6964   -6.6192   -4.2022 C   0  0  0  0  0  0  0  0  0  0  0  0
   54.3840   -6.4161   -5.4098 C   0  0  0  0  0  0  0  0  0  0  0  0
   53.9739   -7.1108   -6.4964 F   0  0  0  0  0  0  0  0  0  0  0  0
   53.4177   -6.1861   -1.7855 N   0  0  0  0  0  0  0  0  0  0  0  0
   53.4448   -7.3915   -1.1221 C   0  0  0  0  0  0  0  0  0  0  0  0
   54.0667   -8.3577   -1.7249 O   0  0  0  0  0  0  0  0  0  0  0  0
   52.9107   -5.3590   -1.4354 H   0  0  0  0  0  0  0  0  0  0  0  0
   52.8767   -7.8001    0.1853 C   0  0  0  0  0  0  0  0  0  0  0  0
   53.3654   -6.9811    1.3680 C   0  0  0  0  0  0  0  0  0  0  0  0
   53.9860   -8.2915    1.1972 C   0  0  0  0  0  0  0  0  0  0  0  0
   51.6066   -8.5079    0.3494 C   0  0  0  0  0  0  0  0  0  0  0  0
   50.5901   -7.7061    0.5776 O   0  0  0  0  0  0  0  0  0  0  0  0
   51.2476   -9.8497    0.3093 N   0  0  0  0  0  0  0  0  0  0  0  0
   51.9041  -10.6236    0.1161 H   0  0  0  0  0  0  0  0  0  0  0  0
   49.8578  -10.2588    0.5147 C   0  0  0  0  0  0  0  0  0  0  0  0
   49.0344  -10.1234   -0.4999 C   0  0  0  0  0  0  0  0  0  0  0  0
   47.6166  -10.4711   -0.5060 C   0  0  0  0  0  0  0  0  0  0  0  0
   47.0818  -10.9775    0.7764 C   0  0  0  0  0  0  0  0  0  0  0  0
   46.5291  -12.2700    0.5869 F   0  0  0  0  0  0  0  0  0  0  0  0
   48.0800  -11.0910    1.8415 C   0  0  0  0  0  0  0  0  0  0  0  0
   49.3544  -10.7696    1.7487 C   0  0  0  0  0  0  0  0  0  0  0  0
   56.1631   -5.3322   -6.6446 O   0  0  0  0  0  0  0  0  0  0  0  0
   58.3447   -5.2085  -10.1078 C   0  0  0  0  0  0  0  0  0  0  0  0
   57.6302   -5.2569   -8.9425 C   0  0  0  0  0  0  0  0  0  0  0  0
   56.3486   -4.7501   -8.9260 C   0  0  0  0  0  0  0  0  0  0  0  0
   55.5741   -4.7754   -7.7461 C   0  0  0  0  0  0  0  0  0  0  0  0
   54.2993   -4.2600   -7.7499 C   0  0  0  0  0  0  0  0  0  0  0  0
   53.7569   -3.7161   -8.8933 C   0  0  0  0  0  0  0  0  0  0  0  0
   54.4954   -3.6943  -10.0140 N   0  0  0  0  0  0  0  0  0  0  0  0
   55.7607   -4.1978  -10.0346 C   0  0  0  0  0  0  0  0  0  0  0  0
   56.4896   -4.1513  -11.2132 C   0  0  0  0  0  0  0  0  0  0  0  0
   57.7693   -4.6496  -11.2611 C   0  0  0  0  0  0  0  0  0  0  0  0
   60.2062   -6.4453   -9.1971 C   0  0  0  0  0  0  0  0  0  0  0  0
   59.6349   -5.6854  -10.2374 O   0  0  0  0  0  0  0  0  0  0  0  0
   58.4880   -4.6162  -12.4111 O   0  0  0  0  0  0  0  0  0  0  0  0
   58.8139   -3.4767  -13.1206 C   0  0  0  0  0  0  0  0  0  0  0  0
   60.2731   -3.4588  -13.5539 C   0  0  0  0  0  0  0  0  0  0  0  0
   60.3178   -3.3733  -15.0855 C   0  0  0  0  0  0  0  0  0  0  0  0
   61.3946   -4.2133  -15.5469 N   0  0  0  0  0  0  0  0  0  0  0  0
   62.3436   -3.4131  -16.3556 C   0  0  0  0  0  0  0  0  0  0  0  0
   63.4871   -4.3840  -16.6641 C   0  0  0  0  0  0  0  0  0  0  0  0
   63.1193   -5.7137  -16.4588 O   0  0  0  0  0  0  0  0  0  0  0  0
   62.8894   -5.9904  -15.0965 C   0  0  0  0  0  0  0  0  0  0  0  0
   62.1889   -4.7828  -14.4598 C   0  0  0  0  0  0  0  0  0  0  0  0
 37 38  1  0  0  0
 38 27  1  0  0  0
 27 28  2  0  0  0
 28 29  1  0  0  0
 29 30  2  0  0  0
 30 26  1  0  0  0
 26  1  1  0  0  0
  1  2  2  0  0  0
  2  3  1  0  0  0
  3  4  2  0  0  0
  4  8  1  0  0  0
  8  9  1  0  0  0
  9 10  2  0  0  0
  9 12  1  0  0  0
 12 13  1  0  0  0
 13 14  1  0  0  0
 12 15  1  0  0  0
 15 16  2  0  0  0
 15 17  1  0  0  0
 17 19  1  0  0  0
 19 20  2  0  0  0
 20 21  1  0  0  0
 21 22  1  0  0  0
 22 23  1  0  0  0
 22 24  1  0  0  0
 24 25  2  0  0  0
  4  5  1  0  0  0
  5  6  2  0  0  0
  6  7  1  0  0  0
 30 31  1  0  0  0
 31 32  2  0  0  0
 32 33  1  0  0  0
 33 34  2  0  0  0
 34 35  1  0  0  0
 35 36  2  0  0  0
 36 39  1  0  0  0
 39 40  1  0  0  0
 40 41  1  0  0  0
 41 42  1  0  0  0
 42 43  1  0  0  0
 43 44  1  0  0  0
 44 45  1  0  0  0
 45 46  1  0  0  0
 46 47  1  0  0  0
 47 48  1  0  0  0
 36 27  1  0  0  0
 48 43  1  0  0  0
 34 29  1  0  0  0
  6  1  1  0  0  0
 14 12  1  0  0  0
 25 19  1  0  0  0
  8 11  1  0  0  0
 17 18  1  0  0  0
M  END
> <minimizedAffinity>
-9.34858

> <CNNscore>
0.2511548698

> <CNNaffinity>
6.7276563644

> <CNN_VS>
1.6896836758

> <CNNaffinity_variance>
0.1695623696

$$$$
[H]C1=C([H])C([H])(F)C([H])([H])C([H])=C1N([H])C(=O)C1(C(=O)N([H])c2c([H])c([H])c(Oc3c([H])c([H])nc4c([H])c(OC([H])([H])C([H])([H])C([H])([H])N5C([H])([H])C([H])([H])OC([H])([H])C5([H])[H])c(OC([H])([H])[H])c([H])c34)c(F)c2[H])C([H])([H])C1([H])[H]


 48 53  0  0  0  0  0  0  0  0999 V2000
   56.3258   -4.5238  -10.1182 C   0  0  0  0  0  0  0  0  0  0  0  0
   55.5485   -3.8978  -11.0827 C   0  0  0  0  0  0  0  0  0  0  0  0
   55.9912   -3.5421  -12.3219 C   0  0  0  0  0  0  0  0  0  0  0  0
   57.3184   -3.8151  -12.6722 C   0  0  0  0  0  0  0  0  0  0  0  0
   58.1194   -4.4327  -11.7505 C   0  0  0  0  0  0  0  0  0  0  0  0
   57.6352   -4.7879  -10.4808 C   0  0  0  0  0  0  0  0  0  0  0  0
   58.4814   -5.4196   -9.6345 F   0  0  0  0  0  0  0  0  0  0  0  0
   57.7610   -3.4734  -13.9992 N   0  0  0  0  0  0  0  0  0  0  0  0
   57.2608   -4.0715  -15.1331 C   0  0  0  0  0  0  0  0  0  0  0  0
   56.3779   -5.0030  -14.9415 O   0  0  0  0  0  0  0  0  0  0  0  0
   58.5044   -2.7587  -14.0176 H   0  0  0  0  0  0  0  0  0  0  0  0
   57.5552   -3.8442  -16.5685 C   0  0  0  0  0  0  0  0  0  0  0  0
   57.7678   -2.3876  -16.9450 C   0  0  0  0  0  0  0  0  0  0  0  0
   56.4609   -2.9491  -17.2738 C   0  0  0  0  0  0  0  0  0  0  0  0
   58.1275   -4.8500  -17.4640 C   0  0  0  0  0  0  0  0  0  0  0  0
   59.4413   -4.8236  -17.5038 O   0  0  0  0  0  0  0  0  0  0  0  0
   57.5745   -5.8315  -18.2775 N   0  0  0  0  0  0  0  0  0  0  0  0
   56.5619   -6.0210  -18.3569 H   0  0  0  0  0  0  0  0  0  0  0  0
   58.4292   -6.7101  -19.0766 C   0  0  0  0  0  0  0  0  0  0  0  0
   59.0454   -6.1760  -20.1065 C   0  0  0  0  0  0  0  0  0  0  0  0
   59.9400   -6.8725  -21.0262 C   0  0  0  0  0  0  0  0  0  0  0  0
   60.1104   -8.3194  -20.7722 C   0  0  0  0  0  0  0  0  0  0  0  0
   61.4826   -8.6092  -20.5600 F   0  0  0  0  0  0  0  0  0  0  0  0
   59.3827   -8.8144  -19.6021 C   0  0  0  0  0  0  0  0  0  0  0  0
   58.6078   -8.1009  -18.8106 C   0  0  0  0  0  0  0  0  0  0  0  0
   55.8166   -4.8609   -8.8834 O   0  0  0  0  0  0  0  0  0  0  0  0
   54.2430   -6.5958   -5.5245 C   0  0  0  0  0  0  0  0  0  0  0  0
   54.7828   -6.0273   -6.6452 C   0  0  0  0  0  0  0  0  0  0  0  0
   54.0662   -5.0555   -7.3097 C   0  0  0  0  0  0  0  0  0  0  0  0
   54.5812   -4.4424   -8.4723 C   0  0  0  0  0  0  0  0  0  0  0  0
   53.8478   -3.4784   -9.1231 C   0  0  0  0  0  0  0  0  0  0  0  0
   52.6096   -3.0938   -8.6578 C   0  0  0  0  0  0  0  0  0  0  0  0
   52.1230   -3.6778   -7.5515 N   0  0  0  0  0  0  0  0  0  0  0  0
   52.8304   -4.6357   -6.8903 C   0  0  0  0  0  0  0  0  0  0  0  0
   52.2878   -5.2155   -5.7536 C   0  0  0  0  0  0  0  0  0  0  0  0
   52.9789   -6.1861   -5.0691 C   0  0  0  0  0  0  0  0  0  0  0  0
   56.0057   -7.2510   -4.0118 C   0  0  0  0  0  0  0  0  0  0  0  0
   54.8720   -7.5772   -4.7827 O   0  0  0  0  0  0  0  0  0  0  0  0
   52.4606   -6.7539   -3.9514 O   0  0  0  0  0  0  0  0  0  0  0  0
   52.3366   -6.1369   -2.7218 C   0  0  0  0  0  0  0  0  0  0  0  0
   51.0679   -6.5503   -1.9890 C   0  0  0  0  0  0  0  0  0  0  0  0
   51.4640   -7.4661   -0.8231 C   0  0  0  0  0  0  0  0  0  0  0  0
   50.2568   -8.0175   -0.2604 N   0  0  0  0  0  0  0  0  0  0  0  0
   49.9742   -9.3361   -0.8739 C   0  0  0  0  0  0  0  0  0  0  0  0
   48.7593   -9.8582   -0.1013 C   0  0  0  0  0  0  0  0  0  0  0  0
   48.1025   -8.8441    0.5958 O   0  0  0  0  0  0  0  0  0  0  0  0
   48.8913   -8.3326    1.6453 C   0  0  0  0  0  0  0  0  0  0  0  0
   50.3510   -8.2657    1.1771 C   0  0  0  0  0  0  0  0  0  0  0  0
 37 38  1  0  0  0
 38 27  1  0  0  0
 27 28  2  0  0  0
 28 29  1  0  0  0
 29 30  2  0  0  0
 30 26  1  0  0  0
 26  1  1  0  0  0
  1  2  2  0  0  0
  2  3  1  0  0  0
  3  4  2  0  0  0
  4  8  1  0  0  0
  8  9  1  0  0  0
  9 10  2  0  0  0
  9 12  1  0  0  0
 12 13  1  0  0  0
 13 14  1  0  0  0
 12 15  1  0  0  0
 15 16  2  0  0  0
 15 17  1  0  0  0
 17 19  1  0  0  0
 19 20  2  0  0  0
 20 21  1  0  0  0
 21 22  1  0  0  0
 22 23  1  0  0  0
 22 24  1  0  0  0
 24 25  2  0  0  0
  4  5  1  0  0  0
  5  6  2  0  0  0
  6  7  1  0  0  0
 30 31  1  0  0  0
 31 32  2  0  0  0
 32 33  1  0  0  0
 33 34  2  0  0  0
 34 35  1  0  0  0
 35 36  2  0  0  0
 36 39  1  0  0  0
 39 40  1  0  0  0
 40 41  1  0  0  0
 41 42  1  0  0  0
 42 43  1  0  0  0
 43 44  1  0  0  0
 44 45  1  0  0  0
 45 46  1  0  0  0
 46 47  1  0  0  0
 47 48  1  0  0  0
 36 27  1  0  0  0
 48 43  1  0  0  0
 34 29  1  0  0  0
  6  1  1  0  0  0
 14 12  1  0  0  0
 25 19  1  0  0  0
  8 11  1  0  0  0
 17 18  1  0  0  0
M  END
> <minimizedAffinity>
-8.98748

> <CNNscore>
0.2393307239

> <CNNaffinity>
6.7712745667

> <CNN_VS>
1.6205739975

> <CNNaffinity_variance>
0.0915875435

$$$$
[H]C1=C([H])C([H])(F)C([H])([H])C([H])=C1N([H])C(=O)C1(C(=O)N([H])c2c([H])c([H])c(Oc3c([H])c([H])nc4c([H])c(OC([H])([H])C([H])([H])C([H])([H])N5C([H])([H])C([H])([H])OC([H])([H])C5([H])[H])c(OC([H])([H])[H])c([H])c34)c(F)c2[H])C([H])([H])C1([H])[H]


 48 53  0  0  0  0  0  0  0  0999 V2000
   55.7925   -5.8812   -4.9574 C   0  0  0  0  0  0  0  0  0  0  0  0
   55.8757   -5.1903   -3.7565 C   0  0  0  0  0  0  0  0  0  0  0  0
   55.4624   -5.6787   -2.5528 C   0  0  0  0  0  0  0  0  0  0  0  0
   54.9113   -6.9638   -2.4953 C   0  0  0  0  0  0  0  0  0  0  0  0
   54.8117   -7.6802   -3.6569 C   0  0  0  0  0  0  0  0  0  0  0  0
   55.2464   -7.1509   -4.8831 C   0  0  0  0  0  0  0  0  0  0  0  0
   55.1388   -7.9314   -5.9834 F   0  0  0  0  0  0  0  0  0  0  0  0
   54.5187   -7.4841   -1.2113 N   0  0  0  0  0  0  0  0  0  0  0  0
   53.2388   -7.3744   -0.7179 C   0  0  0  0  0  0  0  0  0  0  0  0
   52.3942   -6.7344   -1.4670 O   0  0  0  0  0  0  0  0  0  0  0  0
   55.2914   -7.9225   -0.6872 H   0  0  0  0  0  0  0  0  0  0  0  0
   52.6334   -7.8618    0.5449 C   0  0  0  0  0  0  0  0  0  0  0  0
   52.9243   -6.9951    1.7585 C   0  0  0  0  0  0  0  0  0  0  0  0
   53.7191   -8.2137    1.6373 C   0  0  0  0  0  0  0  0  0  0  0  0
   51.4562   -8.7280    0.6166 C   0  0  0  0  0  0  0  0  0  0  0  0
   51.5968   -9.8527   -0.0494 O   0  0  0  0  0  0  0  0  0  0  0  0
   50.2222   -8.6143    1.2453 N   0  0  0  0  0  0  0  0  0  0  0  0
   49.9396   -7.8145    1.8351 H   0  0  0  0  0  0  0  0  0  0  0  0
   49.2233   -9.6773    1.1306 C   0  0  0  0  0  0  0  0  0  0  0  0
   48.4827   -9.6926    0.0457 C   0  0  0  0  0  0  0  0  0  0  0  0
   47.4365  -10.6621   -0.2648 C   0  0  0  0  0  0  0  0  0  0  0  0
   47.1838  -11.6792    0.7786 C   0  0  0  0  0  0  0  0  0  0  0  0
   47.3676  -12.9767    0.2360 F   0  0  0  0  0  0  0  0  0  0  0  0
   48.0621  -11.5749    1.9454 C   0  0  0  0  0  0  0  0  0  0  0  0
   49.0017  -10.6703    2.1315 C   0  0  0  0  0  0  0  0  0  0  0  0
   56.2318   -5.3318   -6.1418 O   0  0  0  0  0  0  0  0  0  0  0  0
   57.6447   -4.9603   -9.9673 C   0  0  0  0  0  0  0  0  0  0  0  0
   57.1893   -5.0891   -8.6840 C   0  0  0  0  0  0  0  0  0  0  0  0
   55.8761   -4.7736   -8.4090 C   0  0  0  0  0  0  0  0  0  0  0  0
   55.3620   -4.8880   -7.0993 C   0  0  0  0  0  0  0  0  0  0  0  0
   54.0502   -4.5633   -6.8453 C   0  0  0  0  0  0  0  0  0  0  0  0
   53.2192   -4.1263   -7.8532 C   0  0  0  0  0  0  0  0  0  0  0  0
   53.7107   -4.0195   -9.0978 N   0  0  0  0  0  0  0  0  0  0  0  0
   55.0067   -4.3343   -9.3736 C   0  0  0  0  0  0  0  0  0  0  0  0
   55.4738   -4.2054  -10.6728 C   0  0  0  0  0  0  0  0  0  0  0  0
   56.7776   -4.5135  -10.9781 C   0  0  0  0  0  0  0  0  0  0  0  0
   59.7694   -6.0084   -9.5072 C   0  0  0  0  0  0  0  0  0  0  0  0
   58.9395   -5.2473  -10.3546 O   0  0  0  0  0  0  0  0  0  0  0  0
   57.2423   -4.3986  -12.2475 O   0  0  0  0  0  0  0  0  0  0  0  0
   56.5776   -3.7876  -13.2927 C   0  0  0  0  0  0  0  0  0  0  0  0
   56.1686   -4.7740  -14.3777 C   0  0  0  0  0  0  0  0  0  0  0  0
   56.2089   -4.0460  -15.7280 C   0  0  0  0  0  0  0  0  0  0  0  0
   57.5381   -4.1841  -16.2685 N   0  0  0  0  0  0  0  0  0  0  0  0
   57.4670   -4.7478  -17.6368 C   0  0  0  0  0  0  0  0  0  0  0  0
   58.9157   -4.7164  -18.1326 C   0  0  0  0  0  0  0  0  0  0  0  0
   59.8272   -4.5666  -17.0875 O   0  0  0  0  0  0  0  0  0  0  0  0
   59.7226   -3.3011  -16.4770 C   0  0  0  0  0  0  0  0  0  0  0  0
   58.2408   -2.9095  -16.4054 C   0  0  0  0  0  0  0  0  0  0  0  0
 37 38  1  0  0  0
 38 27  1  0  0  0
 27 28  2  0  0  0
 28 29  1  0  0  0
 29 30  2  0  0  0
 30 26  1  0  0  0
 26  1  1  0  0  0
  1  2  2  0  0  0
  2  3  1  0  0  0
  3  4  2  0  0  0
  4  8  1  0  0  0
  8  9  1  0  0  0
  9 10  2  0  0  0
  9 12  1  0  0  0
 12 13  1  0  0  0
 13 14  1  0  0  0
 12 15  1  0  0  0
 15 16  2  0  0  0
 15 17  1  0  0  0
 17 19  1  0  0  0
 19 20  2  0  0  0
 20 21  1  0  0  0
 21 22  1  0  0  0
 22 23  1  0  0  0
 22 24  1  0  0  0
 24 25  2  0  0  0
  4  5  1  0  0  0
  5  6  2  0  0  0
  6  7  1  0  0  0
 30 31  1  0  0  0
 31 32  2  0  0  0
 32 33  1  0  0  0
 33 34  2  0  0  0
 34 35  1  0  0  0
 35 36  2  0  0  0
 36 39  1  0  0  0
 39 40  1  0  0  0
 40 41  1  0  0  0
 41 42  1  0  0  0
 42 43  1  0  0  0
 43 44  1  0  0  0
 44 45  1  0  0  0
 45 46  1  0  0  0
 46 47  1  0  0  0
 47 48  1  0  0  0
 36 27  1  0  0  0
 48 43  1  0  0  0
 34 29  1  0  0  0
  6  1  1  0  0  0
 14 12  1  0  0  0
 25 19  1  0  0  0
  8 11  1  0  0  0
 17 18  1  0  0  0
M  END
> <minimizedAffinity>
-10.15579

> <CNNscore>
0.2324037552

> <CNNaffinity>
6.8534712791

> <CNN_VS>
1.5927724838

> <CNNaffinity_variance>
0.0991828293

$$$$
[H]C1=C([H])C([H])(F)C([H])([H])C([H])=C1N([H])C(=O)C1(C(=O)N([H])c2c([H])c([H])c(Oc3c([H])c([H])nc4c([H])c(OC([H])([H])C([H])([H])C([H])([H])N5C([H])([H])C([H])([H])OC([H])([H])C5([H])[H])c(OC([H])([H])[H])c([H])c34)c(F)c2[H])C([H])([H])C1([H])[H]


 48 53  0  0  0  0  0  0  0  0999 V2000
   56.2280   -4.3837  -10.1685 C   0  0  0  0  0  0  0  0  0  0  0  0
   55.5392   -3.8348  -11.2411 C   0  0  0  0  0  0  0  0  0  0  0  0
   56.0784   -3.6081  -12.4724 C   0  0  0  0  0  0  0  0  0  0  0  0
   57.4185   -3.9426  -12.6979 C   0  0  0  0  0  0  0  0  0  0  0  0
   58.1342   -4.4877  -11.6668 C   0  0  0  0  0  0  0  0  0  0  0  0
   57.5515   -4.7101  -10.4084 C   0  0  0  0  0  0  0  0  0  0  0  0
   58.3171   -5.2775   -9.4476 F   0  0  0  0  0  0  0  0  0  0  0  0
   57.9634   -3.7381  -14.0151 N   0  0  0  0  0  0  0  0  0  0  0  0
   59.2875   -3.4381  -14.2399 C   0  0  0  0  0  0  0  0  0  0  0  0
   60.0286   -3.3110  -13.1823 O   0  0  0  0  0  0  0  0  0  0  0  0
   57.2641   -3.8120  -14.7696 H   0  0  0  0  0  0  0  0  0  0  0  0
   60.0407   -3.2246  -15.4993 C   0  0  0  0  0  0  0  0  0  0  0  0
   59.3527   -2.3084  -16.4971 C   0  0  0  0  0  0  0  0  0  0  0  0
   59.2522   -3.7395  -16.7678 C   0  0  0  0  0  0  0  0  0  0  0  0
   61.4898   -3.3790  -15.6317 C   0  0  0  0  0  0  0  0  0  0  0  0
   62.0672   -2.3665  -16.2399 O   0  0  0  0  0  0  0  0  0  0  0  0
   62.3853   -4.3685  -15.2448 N   0  0  0  0  0  0  0  0  0  0  0  0
   62.1216   -5.2257  -14.7319 H   0  0  0  0  0  0  0  0  0  0  0  0
   63.8154   -4.2340  -15.5238 C   0  0  0  0  0  0  0  0  0  0  0  0
   64.2707   -4.8002  -16.6183 C   0  0  0  0  0  0  0  0  0  0  0  0
   65.6556   -4.7837  -17.0799 C   0  0  0  0  0  0  0  0  0  0  0  0
   66.6138   -4.0962  -16.1877 C   0  0  0  0  0  0  0  0  0  0  0  0
   67.2571   -3.0477  -16.8940 F   0  0  0  0  0  0  0  0  0  0  0  0
   66.0054   -3.4996  -14.9971 C   0  0  0  0  0  0  0  0  0  0  0  0
   64.7301   -3.5478  -14.6698 C   0  0  0  0  0  0  0  0  0  0  0  0
   55.6233   -4.5908   -8.9482 O   0  0  0  0  0  0  0  0  0  0  0  0
   53.6541   -6.1987   -5.7379 C   0  0  0  0  0  0  0  0  0  0  0  0
   54.3255   -5.6731   -6.8074 C   0  0  0  0  0  0  0  0  0  0  0  0
   53.7144   -4.6944   -7.5612 C   0  0  0  0  0  0  0  0  0  0  0  0
   54.3669   -4.1243   -8.6757 C   0  0  0  0  0  0  0  0  0  0  0  0
   53.7375   -3.1526   -9.4175 C   0  0  0  0  0  0  0  0  0  0  0  0
   52.4716   -2.7186   -9.0906 C   0  0  0  0  0  0  0  0  0  0  0  0
   51.8541   -3.2618   -8.0298 N   0  0  0  0  0  0  0  0  0  0  0  0
   52.4568   -4.2263   -7.2805 C   0  0  0  0  0  0  0  0  0  0  0  0
   51.7807   -4.7628   -6.1953 C   0  0  0  0  0  0  0  0  0  0  0  0
   52.3643   -5.7390   -5.4242 C   0  0  0  0  0  0  0  0  0  0  0  0
   55.5531   -7.4509   -4.9317 C   0  0  0  0  0  0  0  0  0  0  0  0
   54.1697   -7.1825   -4.9162 O   0  0  0  0  0  0  0  0  0  0  0  0
   51.7147   -6.2648   -4.3556 O   0  0  0  0  0  0  0  0  0  0  0  0
   50.7572   -5.6162   -3.6003 C   0  0  0  0  0  0  0  0  0  0  0  0
   50.7510   -6.0767   -2.1493 C   0  0  0  0  0  0  0  0  0  0  0  0
   52.2033   -6.3176   -1.7161 C   0  0  0  0  0  0  0  0  0  0  0  0
   52.1950   -7.2919   -0.6536 N   0  0  0  0  0  0  0  0  0  0  0  0
   50.9240   -8.0525   -0.6808 C   0  0  0  0  0  0  0  0  0  0  0  0
   51.1034   -9.1240    0.3987 C   0  0  0  0  0  0  0  0  0  0  0  0
   52.1451   -8.8199    1.2750 O   0  0  0  0  0  0  0  0  0  0  0  0
   53.3997   -8.8673    0.6356 C   0  0  0  0  0  0  0  0  0  0  0  0
   53.2536   -8.2922   -0.7794 C   0  0  0  0  0  0  0  0  0  0  0  0
 37 38  1  0  0  0
 38 27  1  0  0  0
 27 28  2  0  0  0
 28 29  1  0  0  0
 29 30  2  0  0  0
 30 26  1  0  0  0
 26  1  1  0  0  0
  1  2  2  0  0  0
  2  3  1  0  0  0
  3  4  2  0  0  0
  4  8  1  0  0  0
  8  9  1  0  0  0
  9 10  2  0  0  0
  9 12  1  0  0  0
 12 13  1  0  0  0
 13 14  1  0  0  0
 12 15  1  0  0  0
 15 16  2  0  0  0
 15 17  1  0  0  0
 17 19  1  0  0  0
 19 20  2  0  0  0
 20 21  1  0  0  0
 21 22  1  0  0  0
 22 23  1  0  0  0
 22 24  1  0  0  0
 24 25  2  0  0  0
  4  5  1  0  0  0
  5  6  2  0  0  0
  6  7  1  0  0  0
 30 31  1  0  0  0
 31 32  2  0  0  0
 32 33  1  0  0  0
 33 34  2  0  0  0
 34 35  1  0  0  0
 35 36  2  0  0  0
 36 39  1  0  0  0
 39 40  1  0  0  0
 40 41  1  0  0  0
 41 42  1  0  0  0
 42 43  1  0  0  0
 43 44  1  0  0  0
 44 45  1  0  0  0
 45 46  1  0  0  0
 46 47  1  0  0  0
 47 48  1  0  0  0
 36 27  1  0  0  0
 48 43  1  0  0  0
 34 29  1  0  0  0
  6  1  1  0  0  0
 14 12  1  0  0  0
 25 19  1  0  0  0
  8 11  1  0  0  0
 17 18  1  0  0  0
M  END
> <minimizedAffinity>
-8.18533

> <CNNscore>
0.2166082710

> <CNNaffinity>
6.6016616821

> <CNN_VS>
1.4299745560

> <CNNaffinity_variance>
0.1123380288

$$$$
[H]C1=C([H])C([H])(F)C([H])([H])C([H])=C1N([H])C(=O)C1(C(=O)N([H])c2c([H])c([H])c(Oc3c([H])c([H])nc4c([H])c(OC([H])([H])C([H])([H])C([H])([H])N5C([H])([H])C([H])([H])OC([H])([H])C5([H])[H])c(OC([H])([H])[H])c([H])c34)c(F)c2[H])C([H])([H])C1([H])[H]


 48 53  0  0  0  0  0  0  0  0999 V2000
   56.5615   -4.5684  -10.1214 C   0  0  0  0  0  0  0  0  0  0  0  0
   55.5962   -4.0217  -10.9555 C   0  0  0  0  0  0  0  0  0  0  0  0
   55.8115   -3.6524  -12.2499 C   0  0  0  0  0  0  0  0  0  0  0  0
   57.0861   -3.8253  -12.8015 C   0  0  0  0  0  0  0  0  0  0  0  0
   58.0674   -4.3623  -12.0134 C   0  0  0  0  0  0  0  0  0  0  0  0
   57.8160   -4.7339  -10.6825 C   0  0  0  0  0  0  0  0  0  0  0  0
   58.8313   -5.2827   -9.9758 F   0  0  0  0  0  0  0  0  0  0  0  0
   57.2887   -3.4714  -14.1825 N   0  0  0  0  0  0  0  0  0  0  0  0
   56.8473   -4.2497  -15.2280 C   0  0  0  0  0  0  0  0  0  0  0  0
   56.2584   -5.3589  -14.9011 O   0  0  0  0  0  0  0  0  0  0  0  0
   57.8170   -2.5952  -14.3132 H   0  0  0  0  0  0  0  0  0  0  0  0
   56.9260   -4.0508  -16.6953 C   0  0  0  0  0  0  0  0  0  0  0  0
   57.6936   -5.1319  -17.4373 C   0  0  0  0  0  0  0  0  0  0  0  0
   58.4131   -3.8836  -17.2019 C   0  0  0  0  0  0  0  0  0  0  0  0
   55.9701   -3.2638  -17.4750 C   0  0  0  0  0  0  0  0  0  0  0  0
   55.3501   -2.3470  -16.7654 O   0  0  0  0  0  0  0  0  0  0  0  0
   55.5834   -3.2777  -18.8096 N   0  0  0  0  0  0  0  0  0  0  0  0
   55.9792   -3.9093  -19.5249 H   0  0  0  0  0  0  0  0  0  0  0  0
   54.5762   -2.3399  -19.3066 C   0  0  0  0  0  0  0  0  0  0  0  0
   53.3207   -2.7234  -19.2573 C   0  0  0  0  0  0  0  0  0  0  0  0
   52.1679   -1.9435  -19.6977 C   0  0  0  0  0  0  0  0  0  0  0  0
   52.4821   -0.6246  -20.2884 C   0  0  0  0  0  0  0  0  0  0  0  0
   51.8228    0.3962  -19.5569 F   0  0  0  0  0  0  0  0  0  0  0  0
   53.9082   -0.2931  -20.2953 C   0  0  0  0  0  0  0  0  0  0  0  0
   54.8854   -1.0583  -19.8532 C   0  0  0  0  0  0  0  0  0  0  0  0
   56.2786   -4.9244   -8.8211 O   0  0  0  0  0  0  0  0  0  0  0  0
   55.4794   -6.7623   -5.2501 C   0  0  0  0  0  0  0  0  0  0  0  0
   55.7625   -6.1564   -6.4431 C   0  0  0  0  0  0  0  0  0  0  0  0
   54.7949   -5.3775   -7.0402 C   0  0  0  0  0  0  0  0  0  0  0  0
   55.0401   -4.7348   -8.2729 C   0  0  0  0  0  0  0  0  0  0  0  0
   54.0592   -3.9661   -8.8541 C   0  0  0  0  0  0  0  0  0  0  0  0
   52.8311   -3.8075   -8.2509 C   0  0  0  0  0  0  0  0  0  0  0  0
   52.6011   -4.4190   -7.0783 N   0  0  0  0  0  0  0  0  0  0  0  0
   53.5566   -5.1862   -6.4838 C   0  0  0  0  0  0  0  0  0  0  0  0
   53.2749   -5.8030   -5.2743 C   0  0  0  0  0  0  0  0  0  0  0  0
   54.2197   -6.5846   -4.6542 C   0  0  0  0  0  0  0  0  0  0  0  0
   57.5017   -6.9852   -3.9520 C   0  0  0  0  0  0  0  0  0  0  0  0
   56.3725   -7.5638   -4.5653 O   0  0  0  0  0  0  0  0  0  0  0  0
   53.9571   -7.1859   -3.4669 O   0  0  0  0  0  0  0  0  0  0  0  0
   52.7839   -7.0637   -2.7481 C   0  0  0  0  0  0  0  0  0  0  0  0
   52.5599   -8.2316   -1.7977 C   0  0  0  0  0  0  0  0  0  0  0  0
   52.2714   -7.6651   -0.4010 C   0  0  0  0  0  0  0  0  0  0  0  0
   50.9353   -8.0580   -0.0287 N   0  0  0  0  0  0  0  0  0  0  0  0
   50.5258   -9.2473   -0.8116 C   0  0  0  0  0  0  0  0  0  0  0  0
   49.1620   -9.6300   -0.2293 C   0  0  0  0  0  0  0  0  0  0  0  0
   48.5930   -8.5909    0.5069 O   0  0  0  0  0  0  0  0  0  0  0  0
   49.3221   -8.3192    1.6815 C   0  0  0  0  0  0  0  0  0  0  0  0
   50.8194   -8.4528    1.3741 C   0  0  0  0  0  0  0  0  0  0  0  0
 37 38  1  0  0  0
 38 27  1  0  0  0
 27 28  2  0  0  0
 28 29  1  0  0  0
 29 30  2  0  0  0
 30 26  1  0  0  0
 26  1  1  0  0  0
  1  2  2  0  0  0
  2  3  1  0  0  0
  3  4  2  0  0  0
  4  8  1  0  0  0
  8  9  1  0  0  0
  9 10  2  0  0  0
  9 12  1  0  0  0
 12 13  1  0  0  0
 13 14  1  0  0  0
 12 15  1  0  0  0
 15 16  2  0  0  0
 15 17  1  0  0  0
 17 19  1  0  0  0
 19 20  2  0  0  0
 20 21  1  0  0  0
 21 22  1  0  0  0
 22 23  1  0  0  0
 22 24  1  0  0  0
 24 25  2  0  0  0
  4  5  1  0  0  0
  5  6  2  0  0  0
  6  7  1  0  0  0
 30 31  1  0  0  0
 31 32  2  0  0  0
 32 33  1  0  0  0
 33 34  2  0  0  0
 34 35  1  0  0  0
 35 36  2  0  0  0
 36 39  1  0  0  0
 39 40  1  0  0  0
 40 41  1  0  0  0
 41 42  1  0  0  0
 42 43  1  0  0  0
 43 44  1  0  0  0
 44 45  1  0  0  0
 45 46  1  0  0  0
 46 47  1  0  0  0
 47 48  1  0  0  0
 36 27  1  0  0  0
 48 43  1  0  0  0
 34 29  1  0  0  0
  6  1  1  0  0  0
 14 12  1  0  0  0
 25 19  1  0  0  0
  8 11  1  0  0  0
 17 18  1  0  0  0
M  END
> <minimizedAffinity>
-9.02312

> <CNNscore>
0.2049068511

> <CNNaffinity>
6.7250976562

> <CNN_VS>
1.3780186176

> <CNNaffinity_variance>
0.2061432600

$$$$
[H]C1=C([H])C([H])(F)C([H])([H])C([H])=C1N([H])C(=O)C1(C(=O)N([H])c2c([H])c([H])c(Oc3c([H])c([H])nc4c([H])c(OC([H])([H])C([H])([H])C([H])([H])N5C([H])([H])C([H])([H])OC([H])([H])C5([H])[H])c(OC([H])([H])[H])c([H])c34)c(F)c2[H])C([H])([H])C1([H])[H]


 48 53  0  0  0  0  0  0  0  0999 V2000
   57.1056   -4.4537  -10.5172 C   0  0  0  0  0  0  0  0  0  0  0  0
   55.8137   -3.9647  -10.6510 C   0  0  0  0  0  0  0  0  0  0  0  0
   54.8962   -3.9175   -9.6439 C   0  0  0  0  0  0  0  0  0  0  0  0
   55.2557   -4.3892   -8.3763 C   0  0  0  0  0  0  0  0  0  0  0  0
   56.5212   -4.8791   -8.2005 C   0  0  0  0  0  0  0  0  0  0  0  0
   57.4457   -4.9149   -9.2573 C   0  0  0  0  0  0  0  0  0  0  0  0
   58.6861   -5.3896   -8.9975 F   0  0  0  0  0  0  0  0  0  0  0  0
   54.2916   -4.2937   -7.3109 N   0  0  0  0  0  0  0  0  0  0  0  0
   53.1993   -5.1248   -7.2122 C   0  0  0  0  0  0  0  0  0  0  0  0
   53.0587   -5.9936   -8.1658 O   0  0  0  0  0  0  0  0  0  0  0  0
   54.4828   -3.5292   -6.6455 H   0  0  0  0  0  0  0  0  0  0  0  0
   52.1251   -5.2096   -6.1935 C   0  0  0  0  0  0  0  0  0  0  0  0
   50.7368   -5.4533   -6.7608 C   0  0  0  0  0  0  0  0  0  0  0  0
   51.0361   -4.0788   -6.3704 C   0  0  0  0  0  0  0  0  0  0  0  0
   52.3414   -5.5737   -4.7929 C   0  0  0  0  0  0  0  0  0  0  0  0
   53.5743   -5.9524   -4.5385 O   0  0  0  0  0  0  0  0  0  0  0  0
   51.5188   -5.5980   -3.6732 N   0  0  0  0  0  0  0  0  0  0  0  0
   50.5267   -5.3097   -3.6719 H   0  0  0  0  0  0  0  0  0  0  0  0
   52.0385   -6.0197   -2.3720 C   0  0  0  0  0  0  0  0  0  0  0  0
   51.6838   -7.2081   -1.9388 C   0  0  0  0  0  0  0  0  0  0  0  0
   52.0902   -7.8168   -0.6757 C   0  0  0  0  0  0  0  0  0  0  0  0
   52.9427   -6.9736    0.1899 C   0  0  0  0  0  0  0  0  0  0  0  0
   54.1666   -7.6411    0.4516 F   0  0  0  0  0  0  0  0  0  0  0  0
   53.2805   -5.6702   -0.3849 C   0  0  0  0  0  0  0  0  0  0  0  0
   52.8809   -5.2095   -1.5528 C   0  0  0  0  0  0  0  0  0  0  0  0
   57.9875   -4.4708  -11.5754 O   0  0  0  0  0  0  0  0  0  0  0  0
   60.9285   -3.3236  -14.1837 C   0  0  0  0  0  0  0  0  0  0  0  0
   59.9586   -3.7085  -13.2995 C   0  0  0  0  0  0  0  0  0  0  0  0
   58.6446   -3.7180  -13.7155 C   0  0  0  0  0  0  0  0  0  0  0  0
   57.6090   -4.1049  -12.8376 C   0  0  0  0  0  0  0  0  0  0  0  0
   56.3041   -4.1026  -13.2712 C   0  0  0  0  0  0  0  0  0  0  0  0
   55.9843   -3.7286  -14.5578 C   0  0  0  0  0  0  0  0  0  0  0  0
   56.9713   -3.3621  -15.3905 N   0  0  0  0  0  0  0  0  0  0  0  0
   58.2710   -3.3555  -14.9837 C   0  0  0  0  0  0  0  0  0  0  0  0
   59.2584   -2.9659  -15.8758 C   0  0  0  0  0  0  0  0  0  0  0  0
   60.5774   -2.9474  -15.4907 C   0  0  0  0  0  0  0  0  0  0  0  0
   63.0472   -4.4526  -13.9371 C   0  0  0  0  0  0  0  0  0  0  0  0
   62.2742   -3.2760  -13.8740 O   0  0  0  0  0  0  0  0  0  0  0  0
   61.5518   -2.5756  -16.3582 O   0  0  0  0  0  0  0  0  0  0  0  0
   61.6979   -3.0442  -17.6493 C   0  0  0  0  0  0  0  0  0  0  0  0
   61.4608   -1.9604  -18.6917 C   0  0  0  0  0  0  0  0  0  0  0  0
   60.5171   -2.5233  -19.7629 C   0  0  0  0  0  0  0  0  0  0  0  0
   59.2982   -1.7543  -19.7307 N   0  0  0  0  0  0  0  0  0  0  0  0
   58.1910   -2.5911  -19.2122 C   0  0  0  0  0  0  0  0  0  0  0  0
   57.0066   -1.6258  -19.1077 C   0  0  0  0  0  0  0  0  0  0  0  0
   57.2057   -0.4648  -19.8547 O   0  0  0  0  0  0  0  0  0  0  0  0
   58.2464    0.3259  -19.3286 C   0  0  0  0  0  0  0  0  0  0  0  0
   59.3680   -0.5990  -18.8378 C   0  0  0  0  0  0  0  0  0  0  0  0
 37 38  1  0  0  0
 38 27  1  0  0  0
 27 28  2  0  0  0
 28 29  1  0  0  0
 29 30  2  0  0  0
 30 26  1  0  0  0
 26  1  1  0  0  0
  1  2  2  0  0  0
  2  3  1  0  0  0
  3  4  2  0  0  0
  4  8  1  0  0  0
  8  9  1  0  0  0
  9 10  2  0  0  0
  9 12  1  0  0  0
 12 13  1  0  0  0
 13 14  1  0  0  0
 12 15  1  0  0  0
 15 16  2  0  0  0
 15 17  1  0  0  0
 17 19  1  0  0  0
 19 20  2  0  0  0
 20 21  1  0  0  0
 21 22  1  0  0  0
 22 23  1  0  0  0
 22 24  1  0  0  0
 24 25  2  0  0  0
  4  5  1  0  0  0
  5  6  2  0  0  0
  6  7  1  0  0  0
 30 31  1  0  0  0
 31 32  2  0  0  0
 32 33  1  0  0  0
 33 34  2  0  0  0
 34 35  1  0  0  0
 35 36  2  0  0  0
 36 39  1  0  0  0
 39 40  1  0  0  0
 40 41  1  0  0  0
 41 42  1  0  0  0
 42 43  1  0  0  0
 43 44  1  0  0  0
 44 45  1  0  0  0
 45 46  1  0  0  0
 46 47  1  0  0  0
 47 48  1  0  0  0
 36 27  1  0  0  0
 48 43  1  0  0  0
 34 29  1  0  0  0
  6  1  1  0  0  0
 14 12  1  0  0  0
 25 19  1  0  0  0
  8 11  1  0  0  0
 17 18  1  0  0  0
M  END
> <minimizedAffinity>
-8.34196

> <CNNscore>
0.2001953572

> <CNNaffinity>
6.7257218361

> <CNN_VS>
1.3464583158

> <CNNaffinity_variance>
0.1633212864

$$$$
[H]C1=C([H])C([H])(F)C([H])([H])C([H])=C1N([H])C(=O)C1(C(=O)N([H])c2c([H])c([H])c(Oc3c([H])c([H])nc4c([H])c(OC([H])([H])C([H])([H])C([H])([H])N5C([H])([H])C([H])([H])OC([H])([H])C5([H])[H])c(OC([H])([H])[H])c([H])c34)c(F)c2[H])C([H])([H])C1([H])[H]


 48 53  0  0  0  0  0  0  0  0999 V2000
   56.5830   -4.7075   -9.5043 C   0  0  0  0  0  0  0  0  0  0  0  0
   55.8860   -3.8538  -10.3478 C   0  0  0  0  0  0  0  0  0  0  0  0
   56.3353   -3.4300  -11.5630 C   0  0  0  0  0  0  0  0  0  0  0  0
   57.5838   -3.8710  -12.0160 C   0  0  0  0  0  0  0  0  0  0  0  0
   58.3040   -4.7153  -11.2153 C   0  0  0  0  0  0  0  0  0  0  0  0
   57.8151   -5.1355   -9.9675 C   0  0  0  0  0  0  0  0  0  0  0  0
   58.5747   -5.9920   -9.2458 F   0  0  0  0  0  0  0  0  0  0  0  0
   58.0273   -3.4505  -13.3199 N   0  0  0  0  0  0  0  0  0  0  0  0
   57.4102   -3.8456  -14.4847 C   0  0  0  0  0  0  0  0  0  0  0  0
   56.4100   -4.6612  -14.3491 O   0  0  0  0  0  0  0  0  0  0  0  0
   58.8642   -2.8479  -13.2993 H   0  0  0  0  0  0  0  0  0  0  0  0
   57.6872   -3.5053  -15.9011 C   0  0  0  0  0  0  0  0  0  0  0  0
   56.4644   -3.0836  -16.6984 C   0  0  0  0  0  0  0  0  0  0  0  0
   56.9244   -4.4531  -16.9090 C   0  0  0  0  0  0  0  0  0  0  0  0
   58.9897   -3.0712  -16.4072 C   0  0  0  0  0  0  0  0  0  0  0  0
   59.1855   -1.7760  -16.2959 O   0  0  0  0  0  0  0  0  0  0  0  0
   60.0662   -3.7410  -16.9759 N   0  0  0  0  0  0  0  0  0  0  0  0
   60.1071   -4.7633  -17.1195 H   0  0  0  0  0  0  0  0  0  0  0  0
   61.2654   -3.0130  -17.3917 C   0  0  0  0  0  0  0  0  0  0  0  0
   61.2319   -2.4169  -18.5619 C   0  0  0  0  0  0  0  0  0  0  0  0
   62.3141   -1.6411  -19.1603 C   0  0  0  0  0  0  0  0  0  0  0  0
   63.5624   -1.5784  -18.3698 C   0  0  0  0  0  0  0  0  0  0  0  0
   63.8857   -0.2252  -18.0934 F   0  0  0  0  0  0  0  0  0  0  0  0
   63.4950   -2.2736  -17.0830 C   0  0  0  0  0  0  0  0  0  0  0  0
   62.4584   -2.9366  -16.6120 C   0  0  0  0  0  0  0  0  0  0  0  0
   56.0712   -5.1017   -8.2876 O   0  0  0  0  0  0  0  0  0  0  0  0
   54.7140   -6.6855   -4.7636 C   0  0  0  0  0  0  0  0  0  0  0  0
   55.1829   -6.1653   -5.9384 C   0  0  0  0  0  0  0  0  0  0  0  0
   54.3456   -5.3776   -6.6987 C   0  0  0  0  0  0  0  0  0  0  0  0
   54.7843   -4.8212   -7.9197 C   0  0  0  0  0  0  0  0  0  0  0  0
   53.9313   -4.0422   -8.6656 C   0  0  0  0  0  0  0  0  0  0  0  0
   52.6456   -3.7899   -8.2402 C   0  0  0  0  0  0  0  0  0  0  0  0
   52.2317   -4.3195   -7.0783 N   0  0  0  0  0  0  0  0  0  0  0  0
   53.0579   -5.0949   -6.3228 C   0  0  0  0  0  0  0  0  0  0  0  0
   52.5876   -5.6252   -5.1310 C   0  0  0  0  0  0  0  0  0  0  0  0
   53.3992   -6.4131   -4.3508 C   0  0  0  0  0  0  0  0  0  0  0  0
   56.8511   -7.2644   -3.8034 C   0  0  0  0  0  0  0  0  0  0  0  0
   55.4648   -7.4870   -3.9253 O   0  0  0  0  0  0  0  0  0  0  0  0
   52.9515   -6.9300   -3.1792 O   0  0  0  0  0  0  0  0  0  0  0  0
   52.2942   -6.2245   -2.1902 C   0  0  0  0  0  0  0  0  0  0  0  0
   50.9607   -6.8553   -1.8143 C   0  0  0  0  0  0  0  0  0  0  0  0
   51.1889   -7.7772   -0.6089 C   0  0  0  0  0  0  0  0  0  0  0  0
   49.9039   -8.2585   -0.1672 N   0  0  0  0  0  0  0  0  0  0  0  0
   49.6996   -9.6480   -0.6391 C   0  0  0  0  0  0  0  0  0  0  0  0
   48.3759  -10.0729    0.0033 C   0  0  0  0  0  0  0  0  0  0  0  0
   47.6351   -8.9810    0.4554 O   0  0  0  0  0  0  0  0  0  0  0  0
   48.2640   -8.3312    1.5359 C   0  0  0  0  0  0  0  0  0  0  0  0
   49.7781   -8.3160    1.2881 C   0  0  0  0  0  0  0  0  0  0  0  0
 37 38  1  0  0  0
 38 27  1  0  0  0
 27 28  2  0  0  0
 28 29  1  0  0  0
 29 30  2  0  0  0
 30 26  1  0  0  0
 26  1  1  0  0  0
  1  2  2  0  0  0
  2  3  1  0  0  0
  3  4  2  0  0  0
  4  8  1  0  0  0
  8  9  1  0  0  0
  9 10  2  0  0  0
  9 12  1  0  0  0
 12 13  1  0  0  0
 13 14  1  0  0  0
 12 15  1  0  0  0
 15 16  2  0  0  0
 15 17  1  0  0  0
 17 19  1  0  0  0
 19 20  2  0  0  0
 20 21  1  0  0  0
 21 22  1  0  0  0
 22 23  1  0  0  0
 22 24  1  0  0  0
 24 25  2  0  0  0
  4  5  1  0  0  0
  5  6  2  0  0  0
  6  7  1  0  0  0
 30 31  1  0  0  0
 31 32  2  0  0  0
 32 33  1  0  0  0
 33 34  2  0  0  0
 34 35  1  0  0  0
 35 36  2  0  0  0
 36 39  1  0  0  0
 39 40  1  0  0  0
 40 41  1  0  0  0
 41 42  1  0  0  0
 42 43  1  0  0  0
 43 44  1  0  0  0
 44 45  1  0  0  0
 45 46  1  0  0  0
 46 47  1  0  0  0
 47 48  1  0  0  0
 36 27  1  0  0  0
 48 43  1  0  0  0
 34 29  1  0  0  0
  6  1  1  0  0  0
 14 12  1  0  0  0
 25 19  1  0  0  0
  8 11  1  0  0  0
 17 18  1  0  0  0
M  END
> <minimizedAffinity>
-9.41116

> <CNNscore>
0.1996986568

> <CNNaffinity>
6.6225676537

> <CNN_VS>
1.3225178719

> <CNNaffinity_variance>
0.1502126306

$$$$
[H]C1=C([H])C([H])(F)C([H])([H])C([H])=C1N([H])C(=O)C1(C(=O)N([H])c2c([H])c([H])c(Oc3c([H])c([H])nc4c([H])c(OC([H])([H])C([H])([H])C([H])([H])N5C([H])([H])C([H])([H])OC([H])([H])C5([H])[H])c(OC([H])([H])[H])c([H])c34)c(F)c2[H])C([H])([H])C1([H])[H]


 48 53  0  0  0  0  0  0  0  0999 V2000
   56.5224   -3.9715   -8.7012 C   0  0  0  0  0  0  0  0  0  0  0  0
   57.2893   -4.6845   -7.7903 C   0  0  0  0  0  0  0  0  0  0  0  0
   58.2158   -5.6256   -8.1282 C   0  0  0  0  0  0  0  0  0  0  0  0
   58.4284   -5.9128   -9.4813 C   0  0  0  0  0  0  0  0  0  0  0  0
   57.6936   -5.2313  -10.4131 C   0  0  0  0  0  0  0  0  0  0  0  0
   56.7457   -4.2664  -10.0350 C   0  0  0  0  0  0  0  0  0  0  0  0
   56.0779   -3.6164  -11.0163 F   0  0  0  0  0  0  0  0  0  0  0  0
   59.4404   -6.8775   -9.8261 N   0  0  0  0  0  0  0  0  0  0  0  0
   60.6901   -6.8908   -9.2503 C   0  0  0  0  0  0  0  0  0  0  0  0
   60.9287   -5.9498   -8.3892 O   0  0  0  0  0  0  0  0  0  0  0  0
   59.1494   -7.5393  -10.5618 H   0  0  0  0  0  0  0  0  0  0  0  0
   61.8438   -7.8029   -9.4403 C   0  0  0  0  0  0  0  0  0  0  0  0
   63.1468   -7.1054   -9.7926 C   0  0  0  0  0  0  0  0  0  0  0  0
   62.4349   -7.7301  -10.9036 C   0  0  0  0  0  0  0  0  0  0  0  0
   61.9456   -9.1396   -8.8540 C   0  0  0  0  0  0  0  0  0  0  0  0
   63.1606   -9.4398   -8.4516 O   0  0  0  0  0  0  0  0  0  0  0  0
   61.0266  -10.1571   -8.6277 N   0  0  0  0  0  0  0  0  0  0  0  0
   60.0202  -10.0946   -8.8525 H   0  0  0  0  0  0  0  0  0  0  0  0
   61.4408  -11.4143   -8.0040 C   0  0  0  0  0  0  0  0  0  0  0  0
   61.2691  -11.5274   -6.7065 C   0  0  0  0  0  0  0  0  0  0  0  0
   61.6110  -12.6914   -5.8945 C   0  0  0  0  0  0  0  0  0  0  0  0
   62.2472  -13.8095   -6.6242 C   0  0  0  0  0  0  0  0  0  0  0  0
   61.4719  -14.9866   -6.4653 F   0  0  0  0  0  0  0  0  0  0  0  0
   62.3918  -13.5834   -8.0635 C   0  0  0  0  0  0  0  0  0  0  0  0
   62.0320  -12.4987   -8.7192 C   0  0  0  0  0  0  0  0  0  0  0  0
   55.6034   -3.0293   -8.2945 O   0  0  0  0  0  0  0  0  0  0  0  0
   54.1516   -5.5818   -5.4404 C   0  0  0  0  0  0  0  0  0  0  0  0
   54.6532   -4.7323   -6.3877 C   0  0  0  0  0  0  0  0  0  0  0  0
   53.7877   -4.1637   -7.2972 C   0  0  0  0  0  0  0  0  0  0  0  0
   54.2596   -3.2833   -8.2946 C   0  0  0  0  0  0  0  0  0  0  0  0
   53.3798   -2.7307   -9.1955 C   0  0  0  0  0  0  0  0  0  0  0  0
   52.0342   -3.0203   -9.1424 C   0  0  0  0  0  0  0  0  0  0  0  0
   51.5883   -3.8571   -8.1922 N   0  0  0  0  0  0  0  0  0  0  0  0
   52.4405   -4.4174   -7.2896 C   0  0  0  0  0  0  0  0  0  0  0  0
   51.9374   -5.2796   -6.3272 C   0  0  0  0  0  0  0  0  0  0  0  0
   52.7753   -5.8608   -5.4062 C   0  0  0  0  0  0  0  0  0  0  0  0
   55.8732   -7.1750   -4.8730 C   0  0  0  0  0  0  0  0  0  0  0  0
   54.9266   -6.2069   -4.4825 O   0  0  0  0  0  0  0  0  0  0  0  0
   52.2921   -6.6994   -4.4555 O   0  0  0  0  0  0  0  0  0  0  0  0
   51.4569   -6.3379   -3.4165 C   0  0  0  0  0  0  0  0  0  0  0  0
   52.0063   -6.7506   -2.0581 C   0  0  0  0  0  0  0  0  0  0  0  0
   51.3174   -8.0560   -1.6384 C   0  0  0  0  0  0  0  0  0  0  0  0
   51.2987   -8.1061   -0.1978 N   0  0  0  0  0  0  0  0  0  0  0  0
   49.9046   -8.2552    0.2807 C   0  0  0  0  0  0  0  0  0  0  0  0
   50.0430   -8.4263    1.7963 C   0  0  0  0  0  0  0  0  0  0  0  0
   51.2911   -8.0122    2.2615 O   0  0  0  0  0  0  0  0  0  0  0  0
   52.3273   -8.8475    1.7991 C   0  0  0  0  0  0  0  0  0  0  0  0
   52.0259   -9.2501    0.3495 C   0  0  0  0  0  0  0  0  0  0  0  0
 37 38  1  0  0  0
 38 27  1  0  0  0
 27 28  2  0  0  0
 28 29  1  0  0  0
 29 30  2  0  0  0
 30 26  1  0  0  0
 26  1  1  0  0  0
  1  2  2  0  0  0
  2  3  1  0  0  0
  3  4  2  0  0  0
  4  8  1  0  0  0
  8  9  1  0  0  0
  9 10  2  0  0  0
  9 12  1  0  0  0
 12 13  1  0  0  0
 13 14  1  0  0  0
 12 15  1  0  0  0
 15 16  2  0  0  0
 15 17  1  0  0  0
 17 19  1  0  0  0
 19 20  2  0  0  0
 20 21  1  0  0  0
 21 22  1  0  0  0
 22 23  1  0  0  0
 22 24  1  0  0  0
 24 25  2  0  0  0
  4  5  1  0  0  0
  5  6  2  0  0  0
  6  7  1  0  0  0
 30 31  1  0  0  0
 31 32  2  0  0  0
 32 33  1  0  0  0
 33 34  2  0  0  0
 34 35  1  0  0  0
 35 36  2  0  0  0
 36 39  1  0  0  0
 39 40  1  0  0  0
 40 41  1  0  0  0
 41 42  1  0  0  0
 42 43  1  0  0  0
 43 44  1  0  0  0
 44 45  1  0  0  0
 45 46  1  0  0  0
 46 47  1  0  0  0
 47 48  1  0  0  0
 36 27  1  0  0  0
 48 43  1  0  0  0
 34 29  1  0  0  0
  6  1  1  0  0  0
 14 12  1  0  0  0
 25 19  1  0  0  0
  8 11  1  0  0  0
 17 18  1  0  0  0
M  END
> <minimizedAffinity>
-8.02983

> <CNNscore>
0.1971016228

> <CNNaffinity>
6.8803911209

> <CNN_VS>
1.3561362028

> <CNNaffinity_variance>
0.0909447223

$$$$
[H]c1c([H])c(C2([H])c3c(nc(-c4c([H])c(C#N)c([H])c([H])c4OC([H])([H])[H])n3C([H])(C([H])([H])[H])C([H])([H])[H])C(=O)N2c2c([H])c(Cl)c([H])c([H])c2C([H])([H])[H])c([H])c([H])c1Cl


 37 41  0  0  0  0  0  0  0  0999 V2000
   56.5810   -4.3192  -10.3196 C   0  0  0  0  0  0  0  0  0  0  0  0
   55.2827   -4.1168  -10.7446 N   0  0  0  0  0  0  0  0  0  0  0  0
   54.4797   -4.0310   -9.7044 C   0  0  0  0  0  0  0  0  0  0  0  0
   53.0533   -3.8499   -9.3383 C   0  0  0  0  0  0  0  0  0  0  0  0
   52.1314   -3.6892  -10.2107 O   0  0  0  0  0  0  0  0  0  0  0  0
   53.0081   -3.8967   -7.9441 N   0  0  0  0  0  0  0  0  0  0  0  0
   54.3702   -4.0375   -7.3977 C   0  0  0  0  0  0  0  0  0  0  0  0
   55.2459   -4.1749   -8.5691 C   0  0  0  0  0  0  0  0  0  0  0  0
   56.5302   -4.3499   -8.9843 N   0  0  0  0  0  0  0  0  0  0  0  0
   51.8230   -3.8044   -7.1569 C   0  0  0  0  0  0  0  0  0  0  0  0
   51.5490   -4.7981   -6.2053 C   0  0  0  0  0  0  0  0  0  0  0  0
   50.4220   -4.7525   -5.4245 C   0  0  0  0  0  0  0  0  0  0  0  0
   50.1028   -6.0031   -4.2401 Cl  0  0  0  0  0  0  0  0  0  0  0  0
   49.5118   -3.7224   -5.5479 C   0  0  0  0  0  0  0  0  0  0  0  0
   49.7609   -2.7424   -6.4712 C   0  0  0  0  0  0  0  0  0  0  0  0
   50.9107   -2.7865   -7.2694 C   0  0  0  0  0  0  0  0  0  0  0  0
   51.0560   -1.6675   -8.2184 C   0  0  0  0  0  0  0  0  0  0  0  0
   54.4076   -5.1273   -6.4360 C   0  0  0  0  0  0  0  0  0  0  0  0
   54.4061   -4.9397   -5.0785 C   0  0  0  0  0  0  0  0  0  0  0  0
   54.4863   -6.0008   -4.2251 C   0  0  0  0  0  0  0  0  0  0  0  0
   54.5716   -7.2912   -4.7032 C   0  0  0  0  0  0  0  0  0  0  0  0
   54.6757   -8.6735   -3.6583 Cl  0  0  0  0  0  0  0  0  0  0  0  0
   54.5744   -7.5030   -6.0615 C   0  0  0  0  0  0  0  0  0  0  0  0
   54.4943   -6.4430   -6.9061 C   0  0  0  0  0  0  0  0  0  0  0  0
   57.6055   -3.7321  -12.5012 C   0  0  0  0  0  0  0  0  0  0  0  0
   58.7332   -3.7378  -13.3595 C   0  0  0  0  0  0  0  0  0  0  0  0
   59.9055   -4.3534  -13.0032 C   0  0  0  0  0  0  0  0  0  0  0  0
   59.9786   -4.9790  -11.7776 C   0  0  0  0  0  0  0  0  0  0  0  0
   58.8799   -4.9705  -10.9500 C   0  0  0  0  0  0  0  0  0  0  0  0
   57.6649   -4.3453  -11.2972 C   0  0  0  0  0  0  0  0  0  0  0  0
   55.9883   -3.3125  -14.2386 C   0  0  0  0  0  0  0  0  0  0  0  0
   56.4783   -3.0753  -12.9489 O   0  0  0  0  0  0  0  0  0  0  0  0
   61.2124   -5.6333  -11.3980 C   0  0  0  0  0  0  0  0  0  0  0  0
   62.2026   -6.1766  -11.1069 N   0  0  0  0  0  0  0  0  0  0  0  0
   57.6902   -4.4564   -8.1151 C   0  0  0  0  0  0  0  0  0  0  0  0
   57.3950   -3.7512   -6.7751 C   0  0  0  0  0  0  0  0  0  0  0  0
   58.1345   -5.8605   -7.8132 C   0  0  0  0  0  0  0  0  0  0  0  0
 31 32  1  0  0  0
 32 25  1  0  0  0
 25 26  2  0  0  0
 26 27  1  0  0  0
 27 28  2  0  0  0
 28 29  1  0  0  0
 29 30  2  0  0  0
 30  1  1  0  0  0
  1  2  2  0  0  0
  2  3  1  0  0  0
  3  4  1  0  0  0
  4  5  2  0  0  0
  4  6  1  0  0  0
  6  7  1  0  0  0
  7  8  1  0  0  0
  8  9  1  0  0  0
  9 35  1  0  0  0
 35 36  1  0  0  0
 35 37  1  0  0  0
  7 18  1  0  0  0
 18 19  2  0  0  0
 19 20  1  0  0  0
 20 21  2  0  0  0
 21 22  1  0  0  0
 21 23  1  0  0  0
 23 24  2  0  0  0
  6 10  1  0  0  0
 10 11  2  0  0  0
 11 12  1  0  0  0
 12 13  1  0  0  0
 12 14  2  0  0  0
 14 15  1  0  0  0
 15 16  2  0  0  0
 16 17  1  0  0  0
 28 33  1  0  0  0
 33 34  3  0  0  0
 30 25  1  0  0  0
  9  1  1  0  0  0
 24 18  1  0  0  0
 16 10  1  0  0  0
  8  3  2  0  0  0
M  END
> <minimizedAffinity>
-4.66215

> <CNNscore>
0.5556073785

> <CNNaffinity>
7.4671792984

> <CNN_VS>
4.1488199234

> <CNNaffinity_variance>
0.3486548364

$$$$
[H]c1c([H])c(C2([H])c3c(nc(-c4c([H])c(C#N)c([H])c([H])c4OC([H])([H])[H])n3C([H])(C([H])([H])[H])C([H])([H])[H])C(=O)N2c2c([H])c(Cl)c([H])c([H])c2C([H])([H])[H])c([H])c([H])c1Cl


 37 41  0  0  0  0  0  0  0  0999 V2000
   58.3790   -3.8951  -14.1005 C   0  0  0  0  0  0  0  0  0  0  0  0
   59.7399   -3.9812  -13.8824 N   0  0  0  0  0  0  0  0  0  0  0  0
   59.9737   -4.6548  -12.7752 C   0  0  0  0  0  0  0  0  0  0  0  0
   61.0776   -5.1321  -11.9063 C   0  0  0  0  0  0  0  0  0  0  0  0
   62.3101   -4.9215  -12.1770 O   0  0  0  0  0  0  0  0  0  0  0  0
   60.4658   -5.7962  -10.8420 N   0  0  0  0  0  0  0  0  0  0  0  0
   59.0038   -5.8178  -11.0318 C   0  0  0  0  0  0  0  0  0  0  0  0
   58.7584   -5.0269  -12.2451 C   0  0  0  0  0  0  0  0  0  0  0  0
   57.8019   -4.5439  -13.0844 N   0  0  0  0  0  0  0  0  0  0  0  0
   61.1501   -6.3853   -9.7387 C   0  0  0  0  0  0  0  0  0  0  0  0
   61.9374   -5.5769   -8.9052 C   0  0  0  0  0  0  0  0  0  0  0  0
   62.6142   -6.0979   -7.8317 C   0  0  0  0  0  0  0  0  0  0  0  0
   63.5885   -5.0679   -6.8027 Cl  0  0  0  0  0  0  0  0  0  0  0  0
   62.5454   -7.4432   -7.5316 C   0  0  0  0  0  0  0  0  0  0  0  0
   61.7822   -8.2494   -8.3331 C   0  0  0  0  0  0  0  0  0  0  0  0
   61.0900   -7.7202   -9.4294 C   0  0  0  0  0  0  0  0  0  0  0  0
   60.3051   -8.6984  -10.2045 C   0  0  0  0  0  0  0  0  0  0  0  0
   58.3407   -5.3604   -9.8214 C   0  0  0  0  0  0  0  0  0  0  0  0
   58.6535   -5.8171   -8.5678 C   0  0  0  0  0  0  0  0  0  0  0  0
   57.9661   -5.3824   -7.4727 C   0  0  0  0  0  0  0  0  0  0  0  0
   56.9376   -4.4722   -7.5955 C   0  0  0  0  0  0  0  0  0  0  0  0
   56.0336   -3.8893   -6.2331 Cl  0  0  0  0  0  0  0  0  0  0  0  0
   56.6069   -4.0003   -8.8436 C   0  0  0  0  0  0  0  0  0  0  0  0
   57.2946   -4.4366   -9.9299 C   0  0  0  0  0  0  0  0  0  0  0  0
   58.5971   -3.1986  -16.4714 C   0  0  0  0  0  0  0  0  0  0  0  0
   58.0107   -2.6545  -17.6412 C   0  0  0  0  0  0  0  0  0  0  0  0
   56.7177   -2.1982  -17.6524 C   0  0  0  0  0  0  0  0  0  0  0  0
   55.9784   -2.2756  -16.4921 C   0  0  0  0  0  0  0  0  0  0  0  0
   56.5543   -2.8040  -15.3602 C   0  0  0  0  0  0  0  0  0  0  0  0
   57.8819   -3.2771  -15.3262 C   0  0  0  0  0  0  0  0  0  0  0  0
   60.8694   -2.8468  -17.1948 C   0  0  0  0  0  0  0  0  0  0  0  0
   59.9003   -3.6397  -16.5686 O   0  0  0  0  0  0  0  0  0  0  0  0
   54.6143   -1.7924  -16.4975 C   0  0  0  0  0  0  0  0  0  0  0  0
   53.5189   -1.3925  -16.5211 N   0  0  0  0  0  0  0  0  0  0  0  0
   56.3729   -4.7766  -12.9570 C   0  0  0  0  0  0  0  0  0  0  0  0
   55.6626   -3.4466  -12.6306 C   0  0  0  0  0  0  0  0  0  0  0  0
   55.7126   -5.3705  -14.1700 C   0  0  0  0  0  0  0  0  0  0  0  0
 31 32  1  0  0  0
 32 25  1  0  0  0
 25 26  2  0  0  0
 26 27  1  0  0  0
 27 28  2  0  0  0
 28 29  1  0  0  0
 29 30  2  0  0  0
 30  1  1  0  0  0
  1  2  2  0  0  0
  2  3  1  0  0  0
  3  4  1  0  0  0
  4  5  2  0  0  0
  4  6  1  0  0  0
  6  7  1  0  0  0
  7  8  1  0  0  0
  8  9  1  0  0  0
  9 35  1  0  0  0
 35 36  1  0  0  0
 35 37  1  0  0  0
  7 18  1  0  0  0
 18 19  2  0  0  0
 19 20  1  0  0  0
 20 21  2  0  0  0
 21 22  1  0  0  0
 21 23  1  0  0  0
 23 24  2  0  0  0
  6 10  1  0  0  0
 10 11  2  0  0  0
 11 12  1  0  0  0
 12 13  1  0  0  0
 12 14  2  0  0  0
 14 15  1  0  0  0
 15 16  2  0  0  0
 16 17  1  0  0  0
 28 33  1  0  0  0
 33 34  3  0  0  0
 30 25  1  0  0  0
  9  1  1  0  0  0
 24 18  1  0  0  0
 16 10  1  0  0  0
  8  3  2  0  0  0
M  END
> <minimizedAffinity>
3.98661

> <CNNscore>
0.4608685374

> <CNNaffinity>
6.5363540649

> <CNN_VS>
3.0123999119

> <CNNaffinity_variance>
0.3980053067

$$$$
[H]c1c([H])c(C2([H])c3c(nc(-c4c([H])c(C#N)c([H])c([H])c4OC([H])([H])[H])n3C([H])(C([H])([H])[H])C([H])([H])[H])C(=O)N2c2c([H])c(Cl)c([H])c([H])c2C([H])([H])[H])c([H])c([H])c1Cl


 37 41  0  0  0  0  0  0  0  0999 V2000
   54.3752   -5.1608   -6.0732 C   0  0  0  0  0  0  0  0  0  0  0  0
   54.0209   -4.1614   -6.9579 N   0  0  0  0  0  0  0  0  0  0  0  0
   54.6770   -4.3125   -8.0897 C   0  0  0  0  0  0  0  0  0  0  0  0
   54.8594   -3.6987   -9.4282 C   0  0  0  0  0  0  0  0  0  0  0  0
   54.2247   -2.6521   -9.8003 O   0  0  0  0  0  0  0  0  0  0  0  0
   55.8018   -4.4906  -10.0860 N   0  0  0  0  0  0  0  0  0  0  0  0
   56.1845   -5.6334   -9.2366 C   0  0  0  0  0  0  0  0  0  0  0  0
   55.4783   -5.4256   -7.9654 C   0  0  0  0  0  0  0  0  0  0  0  0
   55.2676   -5.9209   -6.7154 N   0  0  0  0  0  0  0  0  0  0  0  0
   56.3109   -4.2455  -11.3950 C   0  0  0  0  0  0  0  0  0  0  0  0
   55.7119   -4.8752  -12.4962 C   0  0  0  0  0  0  0  0  0  0  0  0
   56.1661   -4.6705  -13.7743 C   0  0  0  0  0  0  0  0  0  0  0  0
   55.3996   -5.4651  -15.1344 Cl  0  0  0  0  0  0  0  0  0  0  0  0
   57.2348   -3.8339  -14.0245 C   0  0  0  0  0  0  0  0  0  0  0  0
   57.8336   -3.2097  -12.9630 C   0  0  0  0  0  0  0  0  0  0  0  0
   57.3717   -3.4167  -11.6572 C   0  0  0  0  0  0  0  0  0  0  0  0
   58.1050   -2.6809  -10.6109 C   0  0  0  0  0  0  0  0  0  0  0  0
   57.6331   -5.7292   -9.1589 C   0  0  0  0  0  0  0  0  0  0  0  0
   58.4032   -6.3485  -10.1084 C   0  0  0  0  0  0  0  0  0  0  0  0
   59.7556   -6.4449   -9.9591 C   0  0  0  0  0  0  0  0  0  0  0  0
   60.3862   -5.9231   -8.8495 C   0  0  0  0  0  0  0  0  0  0  0  0
   62.1032   -6.0207   -8.6139 Cl  0  0  0  0  0  0  0  0  0  0  0  0
   59.6333   -5.2972   -7.8843 C   0  0  0  0  0  0  0  0  0  0  0  0
   58.2876   -5.2042   -8.0384 C   0  0  0  0  0  0  0  0  0  0  0  0
   54.3453   -5.2924   -3.5962 C   0  0  0  0  0  0  0  0  0  0  0  0
   53.6103   -5.3043   -2.3847 C   0  0  0  0  0  0  0  0  0  0  0  0
   52.2393   -5.2778   -2.3746 C   0  0  0  0  0  0  0  0  0  0  0  0
   51.5693   -5.2382   -3.5780 C   0  0  0  0  0  0  0  0  0  0  0  0
   52.2891   -5.2279   -4.7501 C   0  0  0  0  0  0  0  0  0  0  0  0
   53.6982   -5.2565   -4.7833 C   0  0  0  0  0  0  0  0  0  0  0  0
   56.4094   -4.1841   -3.0293 C   0  0  0  0  0  0  0  0  0  0  0  0
   55.7209   -5.3099   -3.4969 O   0  0  0  0  0  0  0  0  0  0  0  0
   50.1223   -5.2136   -3.5733 C   0  0  0  0  0  0  0  0  0  0  0  0
   48.9567   -5.1730   -3.5614 N   0  0  0  0  0  0  0  0  0  0  0  0
   55.8452   -7.1446   -6.1849 C   0  0  0  0  0  0  0  0  0  0  0  0
   57.0640   -6.7983   -5.3048 C   0  0  0  0  0  0  0  0  0  0  0  0
   54.9082   -7.9909   -5.3688 C   0  0  0  0  0  0  0  0  0  0  0  0
 31 32  1  0  0  0
 32 25  1  0  0  0
 25 26  2  0  0  0
 26 27  1  0  0  0
 27 28  2  0  0  0
 28 29  1  0  0  0
 29 30  2  0  0  0
 30  1  1  0  0  0
  1  2  2  0  0  0
  2  3  1  0  0  0
  3  4  1  0  0  0
  4  5  2  0  0  0
  4  6  1  0  0  0
  6  7  1  0  0  0
  7  8  1  0  0  0
  8  9  1  0  0  0
  9 35  1  0  0  0
 35 36  1  0  0  0
 35 37  1  0  0  0
  7 18  1  0  0  0
 18 19  2  0  0  0
 19 20  1  0  0  0
 20 21  2  0  0  0
 21 22  1  0  0  0
 21 23  1  0  0  0
 23 24  2  0  0  0
  6 10  1  0  0  0
 10 11  2  0  0  0
 11 12  1  0  0  0
 12 13  1  0  0  0
 12 14  2  0  0  0
 14 15  1  0  0  0
 15 16  2  0  0  0
 16 17  1  0  0  0
 28 33  1  0  0  0
 33 34  3  0  0  0
 30 25  1  0  0  0
  9  1  1  0  0  0
 24 18  1  0  0  0
 16 10  1  0  0  0
  8  3  2  0  0  0
M  END
> <minimizedAffinity>
1.56907

> <CNNscore>
0.4528983831

> <CNNaffinity>
7.0410451889

> <CNN_VS>
3.1888780594

> <CNNaffinity_variance>
0.4577073157

$$$$
[H]c1c([H])c(C2([H])c3c(nc(-c4c([H])c(C#N)c([H])c([H])c4OC([H])([H])[H])n3C([H])(C([H])([H])[H])C([H])([H])[H])C(=O)N2c2c([H])c(Cl)c([H])c([H])c2C([H])([H])[H])c([H])c([H])c1Cl


 37 41  0  0  0  0  0  0  0  0999 V2000
   53.1794   -4.8842   -6.6287 C   0  0  0  0  0  0  0  0  0  0  0  0
   52.9846   -3.9509   -7.6277 N   0  0  0  0  0  0  0  0  0  0  0  0
   53.8519   -4.1476   -8.5989 C   0  0  0  0  0  0  0  0  0  0  0  0
   54.2797   -3.6086   -9.9135 C   0  0  0  0  0  0  0  0  0  0  0  0
   53.7090   -2.6069  -10.4681 O   0  0  0  0  0  0  0  0  0  0  0  0
   55.3482   -4.4072  -10.3240 N   0  0  0  0  0  0  0  0  0  0  0  0
   55.5806   -5.4847   -9.3448 C   0  0  0  0  0  0  0  0  0  0  0  0
   54.6358   -5.2249   -8.2504 C   0  0  0  0  0  0  0  0  0  0  0  0
   54.1952   -5.6518   -7.0356 N   0  0  0  0  0  0  0  0  0  0  0  0
   56.0980   -4.2238  -11.5227 C   0  0  0  0  0  0  0  0  0  0  0  0
   57.3092   -3.5175  -11.4763 C   0  0  0  0  0  0  0  0  0  0  0  0
   58.0656   -3.3156  -12.6028 C   0  0  0  0  0  0  0  0  0  0  0  0
   59.5768   -2.4335  -12.5197 Cl  0  0  0  0  0  0  0  0  0  0  0  0
   57.6599   -3.8018  -13.8291 C   0  0  0  0  0  0  0  0  0  0  0  0
   56.4803   -4.4939  -13.8957 C   0  0  0  0  0  0  0  0  0  0  0  0
   55.7064   -4.7017  -12.7471 C   0  0  0  0  0  0  0  0  0  0  0  0
   54.4630   -5.4646  -12.9609 C   0  0  0  0  0  0  0  0  0  0  0  0
   56.9879   -5.5289   -8.9821 C   0  0  0  0  0  0  0  0  0  0  0  0
   57.5013   -4.9242   -7.8646 C   0  0  0  0  0  0  0  0  0  0  0  0
   58.8387   -4.9635   -7.5993 C   0  0  0  0  0  0  0  0  0  0  0  0
   59.7117   -5.6117   -8.4472 C   0  0  0  0  0  0  0  0  0  0  0  0
   61.4208   -5.6891   -8.1533 Cl  0  0  0  0  0  0  0  0  0  0  0  0
   59.2186   -6.2256   -9.5741 C   0  0  0  0  0  0  0  0  0  0  0  0
   57.8865   -6.1832   -9.8329 C   0  0  0  0  0  0  0  0  0  0  0  0
   52.5462   -5.5495   -4.3242 C   0  0  0  0  0  0  0  0  0  0  0  0
   51.6375   -5.4733   -3.2395 C   0  0  0  0  0  0  0  0  0  0  0  0
   50.4623   -4.7730   -3.3332 C   0  0  0  0  0  0  0  0  0  0  0  0
   50.1672   -4.1304   -4.5159 C   0  0  0  0  0  0  0  0  0  0  0  0
   51.0534   -4.2094   -5.5650 C   0  0  0  0  0  0  0  0  0  0  0  0
   52.2657   -4.9251   -5.4907 C   0  0  0  0  0  0  0  0  0  0  0  0
   54.4596   -6.0836   -2.9591 C   0  0  0  0  0  0  0  0  0  0  0  0
   53.7053   -6.2697   -4.1237 O   0  0  0  0  0  0  0  0  0  0  0  0
   48.9267   -3.3927   -4.6213 C   0  0  0  0  0  0  0  0  0  0  0  0
   47.9158   -2.8174   -4.7076 N   0  0  0  0  0  0  0  0  0  0  0  0
   54.6826   -6.8225   -6.3256 C   0  0  0  0  0  0  0  0  0  0  0  0
   54.4678   -8.0780   -7.1960 C   0  0  0  0  0  0  0  0  0  0  0  0
   56.1328   -6.7723   -5.9324 C   0  0  0  0  0  0  0  0  0  0  0  0
 31 32  1  0  0  0
 32 25  1  0  0  0
 25 26  2  0  0  0
 26 27  1  0  0  0
 27 28  2  0  0  0
 28 29  1  0  0  0
 29 30  2  0  0  0
 30  1  1  0  0  0
  1  2  2  0  0  0
  2  3  1  0  0  0
  3  4  1  0  0  0
  4  5  2  0  0  0
  4  6  1  0  0  0
  6  7  1  0  0  0
  7  8  1  0  0  0
  8  9  1  0  0  0
  9 35  1  0  0  0
 35 36  1  0  0  0
 35 37  1  0  0  0
  7 18  1  0  0  0
 18 19  2  0  0  0
 19 20  1  0  0  0
 20 21  2  0  0  0
 21 22  1  0  0  0
 21 23  1  0  0  0
 23 24  2  0  0  0
  6 10  1  0  0  0
 10 11  2  0  0  0
 11 12  1  0  0  0
 12 13  1  0  0  0
 12 14  2  0  0  0
 14 15  1  0  0  0
 15 16  2  0  0  0
 16 17  1  0  0  0
 28 33  1  0  0  0
 33 34  3  0  0  0
 30 25  1  0  0  0
  9  1  1  0  0  0
 24 18  1  0  0  0
 16 10  1  0  0  0
  8  3  2  0  0  0
M  END
> <minimizedAffinity>
1.85499

> <CNNscore>
0.4423897862

> <CNNaffinity>
7.1300210953

> <CNN_VS>
3.1542484760

> <CNNaffinity_variance>
0.4731572270

$$$$
[H]c1c([H])c(C2([H])c3c(nc(-c4c([H])c(C#N)c([H])c([H])c4OC([H])([H])[H])n3C([H])(C([H])([H])[H])C([H])([H])[H])C(=O)N2c2c([H])c(Cl)c([H])c([H])c2C([H])([H])[H])c([H])c([H])c1Cl


 37 41  0  0  0  0  0  0  0  0999 V2000
   54.2512   -5.1732   -6.2234 C   0  0  0  0  0  0  0  0  0  0  0  0
   53.9027   -4.1837   -7.1215 N   0  0  0  0  0  0  0  0  0  0  0  0
   54.5929   -4.3260   -8.2339 C   0  0  0  0  0  0  0  0  0  0  0  0
   54.8008   -3.7132   -9.5691 C   0  0  0  0  0  0  0  0  0  0  0  0
   54.1570   -2.6802   -9.9628 O   0  0  0  0  0  0  0  0  0  0  0  0
   55.7762   -4.4890  -10.1974 N   0  0  0  0  0  0  0  0  0  0  0  0
   56.1568   -5.6215   -9.3334 C   0  0  0  0  0  0  0  0  0  0  0  0
   55.4116   -5.4231   -8.0831 C   0  0  0  0  0  0  0  0  0  0  0  0
   55.1756   -5.9182   -6.8375 N   0  0  0  0  0  0  0  0  0  0  0  0
   56.3169   -4.2385  -11.4927 C   0  0  0  0  0  0  0  0  0  0  0  0
   55.7440   -4.8627  -12.6108 C   0  0  0  0  0  0  0  0  0  0  0  0
   56.2290   -4.6527  -13.8767 C   0  0  0  0  0  0  0  0  0  0  0  0
   55.4949   -5.4405  -15.2584 Cl  0  0  0  0  0  0  0  0  0  0  0  0
   57.3042   -3.8160  -14.0972 C   0  0  0  0  0  0  0  0  0  0  0  0
   57.8778   -3.1971  -13.0189 C   0  0  0  0  0  0  0  0  0  0  0  0
   57.3844   -3.4095  -11.7255 C   0  0  0  0  0  0  0  0  0  0  0  0
   58.0928   -2.6792  -10.6585 C   0  0  0  0  0  0  0  0  0  0  0  0
   57.6043   -5.6892   -9.2150 C   0  0  0  0  0  0  0  0  0  0  0  0
   58.4168   -6.2458  -10.1679 C   0  0  0  0  0  0  0  0  0  0  0  0
   59.7660   -6.3196   -9.9810 C   0  0  0  0  0  0  0  0  0  0  0  0
   60.3505   -5.8373   -8.8291 C   0  0  0  0  0  0  0  0  0  0  0  0
   62.0614   -5.9085   -8.5448 Cl  0  0  0  0  0  0  0  0  0  0  0  0
   59.5545   -5.2745   -7.8597 C   0  0  0  0  0  0  0  0  0  0  0  0
   58.2123   -5.2037   -8.0512 C   0  0  0  0  0  0  0  0  0  0  0  0
   52.2187   -5.5458   -4.8508 C   0  0  0  0  0  0  0  0  0  0  0  0
   51.6217   -5.7105   -3.5761 C   0  0  0  0  0  0  0  0  0  0  0  0
   52.3526   -5.6076   -2.4205 C   0  0  0  0  0  0  0  0  0  0  0  0
   53.7008   -5.3375   -2.5119 C   0  0  0  0  0  0  0  0  0  0  0  0
   54.2735   -5.1779   -3.7523 C   0  0  0  0  0  0  0  0  0  0  0  0
   53.5405   -5.2777   -4.9525 C   0  0  0  0  0  0  0  0  0  0  0  0
   50.4619   -4.6861   -6.2594 C   0  0  0  0  0  0  0  0  0  0  0  0
   51.3981   -5.6802   -5.9512 O   0  0  0  0  0  0  0  0  0  0  0  0
   54.4762   -5.2246   -1.2953 C   0  0  0  0  0  0  0  0  0  0  0  0
   55.1096   -5.1538   -0.3184 N   0  0  0  0  0  0  0  0  0  0  0  0
   55.7614   -7.1288   -6.2865 C   0  0  0  0  0  0  0  0  0  0  0  0
   56.8471   -6.7521   -5.2572 C   0  0  0  0  0  0  0  0  0  0  0  0
   54.7897   -8.0603   -5.6170 C   0  0  0  0  0  0  0  0  0  0  0  0
 31 32  1  0  0  0
 32 25  1  0  0  0
 25 26  2  0  0  0
 26 27  1  0  0  0
 27 28  2  0  0  0
 28 29  1  0  0  0
 29 30  2  0  0  0
 30  1  1  0  0  0
  1  2  2  0  0  0
  2  3  1  0  0  0
  3  4  1  0  0  0
  4  5  2  0  0  0
  4  6  1  0  0  0
  6  7  1  0  0  0
  7  8  1  0  0  0
  8  9  1  0  0  0
  9 35  1  0  0  0
 35 36  1  0  0  0
 35 37  1  0  0  0
  7 18  1  0  0  0
 18 19  2  0  0  0
 19 20  1  0  0  0
 20 21  2  0  0  0
 21 22  1  0  0  0
 21 23  1  0  0  0
 23 24  2  0  0  0
  6 10  1  0  0  0
 10 11  2  0  0  0
 11 12  1  0  0  0
 12 13  1  0  0  0
 12 14  2  0  0  0
 14 15  1  0  0  0
 15 16  2  0  0  0
 16 17  1  0  0  0
 28 33  1  0  0  0
 33 34  3  0  0  0
 30 25  1  0  0  0
  9  1  1  0  0  0
 24 18  1  0  0  0
 16 10  1  0  0  0
  8  3  2  0  0  0
M  END
> <minimizedAffinity>
1.05556

> <CNNscore>
0.4410698712

> <CNNaffinity>
7.1201715469

> <CNN_VS>
3.1404931545

> <CNNaffinity_variance>
0.3940647542

$$$$
[H]c1c([H])c(C2([H])c3c(nc(-c4c([H])c(C#N)c([H])c([H])c4OC([H])([H])[H])n3C([H])(C([H])([H])[H])C([H])([H])[H])C(=O)N2c2c([H])c(Cl)c([H])c([H])c2C([H])([H])[H])c([H])c([H])c1Cl


 37 41  0  0  0  0  0  0  0  0999 V2000
   56.0674   -4.2140  -10.2191 C   0  0  0  0  0  0  0  0  0  0  0  0
   54.7298   -4.0447  -10.5177 N   0  0  0  0  0  0  0  0  0  0  0  0
   54.0231   -4.0196   -9.4068 C   0  0  0  0  0  0  0  0  0  0  0  0
   52.6311   -3.9005   -8.9072 C   0  0  0  0  0  0  0  0  0  0  0  0
   51.6284   -3.7457   -9.6865 O   0  0  0  0  0  0  0  0  0  0  0  0
   52.7154   -3.9917   -7.5170 N   0  0  0  0  0  0  0  0  0  0  0  0
   54.1257   -4.1010   -7.1012 C   0  0  0  0  0  0  0  0  0  0  0  0
   54.8944   -4.1711   -8.3511 C   0  0  0  0  0  0  0  0  0  0  0  0
   56.1402   -4.2876   -8.8865 N   0  0  0  0  0  0  0  0  0  0  0  0
   51.6050   -3.9658   -6.6231 C   0  0  0  0  0  0  0  0  0  0  0  0
   51.4908   -4.9577   -5.6375 C   0  0  0  0  0  0  0  0  0  0  0  0
   50.4409   -4.9744   -4.7548 C   0  0  0  0  0  0  0  0  0  0  0  0
   50.3214   -6.2211   -3.5300 Cl  0  0  0  0  0  0  0  0  0  0  0  0
   49.4534   -4.0116   -4.8050 C   0  0  0  0  0  0  0  0  0  0  0  0
   49.5464   -3.0347   -5.7599 C   0  0  0  0  0  0  0  0  0  0  0  0
   50.6173   -3.0151   -6.6621 C   0  0  0  0  0  0  0  0  0  0  0  0
   50.5952   -1.9071   -7.6346 C   0  0  0  0  0  0  0  0  0  0  0  0
   54.2864   -5.2179   -6.1844 C   0  0  0  0  0  0  0  0  0  0  0  0
   54.4534   -5.0697   -4.8323 C   0  0  0  0  0  0  0  0  0  0  0  0
   54.6430   -6.1545   -4.0273 C   0  0  0  0  0  0  0  0  0  0  0  0
   54.6726   -7.4300   -4.5504 C   0  0  0  0  0  0  0  0  0  0  0  0
   54.9109   -8.8412   -3.5681 Cl  0  0  0  0  0  0  0  0  0  0  0  0
   54.5069   -7.6022   -5.9042 C   0  0  0  0  0  0  0  0  0  0  0  0
   54.3185   -6.5188   -6.7004 C   0  0  0  0  0  0  0  0  0  0  0  0
   58.3324   -4.6015  -11.1537 C   0  0  0  0  0  0  0  0  0  0  0  0
   59.2082   -4.6005  -12.2679 C   0  0  0  0  0  0  0  0  0  0  0  0
   58.7986   -4.1725  -13.5045 C   0  0  0  0  0  0  0  0  0  0  0  0
   57.5010   -3.7348  -13.6572 C   0  0  0  0  0  0  0  0  0  0  0  0
   56.6567   -3.7376  -12.5713 C   0  0  0  0  0  0  0  0  0  0  0  0
   57.0575   -4.1715  -11.2912 C   0  0  0  0  0  0  0  0  0  0  0  0
   60.0111   -5.8277   -9.9337 C   0  0  0  0  0  0  0  0  0  0  0  0
   58.8391   -5.0623   -9.9565 O   0  0  0  0  0  0  0  0  0  0  0  0
   57.0645   -3.2788  -14.9595 C   0  0  0  0  0  0  0  0  0  0  0  0
   56.7325   -2.9170  -16.0175 N   0  0  0  0  0  0  0  0  0  0  0  0
   57.3778   -4.3797   -8.1301 C   0  0  0  0  0  0  0  0  0  0  0  0
   57.2947   -3.4597   -6.8944 C   0  0  0  0  0  0  0  0  0  0  0  0
   57.7354   -5.7613   -7.6575 C   0  0  0  0  0  0  0  0  0  0  0  0
 31 32  1  0  0  0
 32 25  1  0  0  0
 25 26  2  0  0  0
 26 27  1  0  0  0
 27 28  2  0  0  0
 28 29  1  0  0  0
 29 30  2  0  0  0
 30  1  1  0  0  0
  1  2  2  0  0  0
  2  3  1  0  0  0
  3  4  1  0  0  0
  4  5  2  0  0  0
  4  6  1  0  0  0
  6  7  1  0  0  0
  7  8  1  0  0  0
  8  9  1  0  0  0
  9 35  1  0  0  0
 35 36  1  0  0  0
 35 37  1  0  0  0
  7 18  1  0  0  0
 18 19  2  0  0  0
 19 20  1  0  0  0
 20 21  2  0  0  0
 21 22  1  0  0  0
 21 23  1  0  0  0
 23 24  2  0  0  0
  6 10  1  0  0  0
 10 11  2  0  0  0
 11 12  1  0  0  0
 12 13  1  0  0  0
 12 14  2  0  0  0
 14 15  1  0  0  0
 15 16  2  0  0  0
 16 17  1  0  0  0
 28 33  1  0  0  0
 33 34  3  0  0  0
 30 25  1  0  0  0
  9  1  1  0  0  0
 24 18  1  0  0  0
 16 10  1  0  0  0
  8  3  2  0  0  0
M  END
> <minimizedAffinity>
-5.77974

> <CNNscore>
0.4225259125

> <CNNaffinity>
7.4497146606

> <CNN_VS>
3.1476974487

> <CNNaffinity_variance>
0.2461157292

$$$$
[H]c1c([H])c(C2([H])c3c(nc(-c4c([H])c(C#N)c([H])c([H])c4OC([H])([H])[H])n3C([H])(C([H])([H])[H])C([H])([H])[H])C(=O)N2c2c([H])c(Cl)c([H])c([H])c2C([H])([H])[H])c([H])c([H])c1Cl


 37 41  0  0  0  0  0  0  0  0999 V2000
   55.0283   -5.5118   -6.1857 C   0  0  0  0  0  0  0  0  0  0  0  0
   55.9644   -5.0755   -7.1024 N   0  0  0  0  0  0  0  0  0  0  0  0
   57.1023   -5.7120   -6.9172 C   0  0  0  0  0  0  0  0  0  0  0  0
   58.4910   -5.8014   -7.4320 C   0  0  0  0  0  0  0  0  0  0  0  0
   58.9111   -5.0945   -8.4121 O   0  0  0  0  0  0  0  0  0  0  0  0
   59.1298   -6.7588   -6.6427 N   0  0  0  0  0  0  0  0  0  0  0  0
   58.1773   -7.3363   -5.6767 C   0  0  0  0  0  0  0  0  0  0  0  0
   56.9286   -6.5863   -5.8675 C   0  0  0  0  0  0  0  0  0  0  0  0
   55.6443   -6.4366   -5.4429 N   0  0  0  0  0  0  0  0  0  0  0  0
   60.4986   -7.1400   -6.7600 C   0  0  0  0  0  0  0  0  0  0  0  0
   61.1854   -7.5995   -5.6263 C   0  0  0  0  0  0  0  0  0  0  0  0
   62.5025   -7.9777   -5.6897 C   0  0  0  0  0  0  0  0  0  0  0  0
   63.3383   -8.5519   -4.2612 Cl  0  0  0  0  0  0  0  0  0  0  0  0
   63.2036   -7.9188   -6.8770 C   0  0  0  0  0  0  0  0  0  0  0  0
   62.5513   -7.4729   -7.9952 C   0  0  0  0  0  0  0  0  0  0  0  0
   61.2067   -7.0865   -7.9334 C   0  0  0  0  0  0  0  0  0  0  0  0
   60.6281   -6.6301   -9.2104 C   0  0  0  0  0  0  0  0  0  0  0  0
   58.7478   -7.3052   -4.3398 C   0  0  0  0  0  0  0  0  0  0  0  0
   59.4393   -8.3513   -3.7870 C   0  0  0  0  0  0  0  0  0  0  0  0
   59.9143   -8.2797   -2.5104 C   0  0  0  0  0  0  0  0  0  0  0  0
   59.7125   -7.1541   -1.7400 C   0  0  0  0  0  0  0  0  0  0  0  0
   60.2968   -7.0151   -0.1114 Cl  0  0  0  0  0  0  0  0  0  0  0  0
   59.0217   -6.0923   -2.2744 C   0  0  0  0  0  0  0  0  0  0  0  0
   58.5512   -6.1694   -3.5456 C   0  0  0  0  0  0  0  0  0  0  0  0
   52.7281   -5.2244   -5.3022 C   0  0  0  0  0  0  0  0  0  0  0  0
   51.4416   -4.6413   -5.4178 C   0  0  0  0  0  0  0  0  0  0  0  0
   51.1005   -3.8580   -6.4903 C   0  0  0  0  0  0  0  0  0  0  0  0
   52.0394   -3.6381   -7.4746 C   0  0  0  0  0  0  0  0  0  0  0  0
   53.2858   -4.2079   -7.3564 C   0  0  0  0  0  0  0  0  0  0  0  0
   53.6567   -5.0176   -6.2635 C   0  0  0  0  0  0  0  0  0  0  0  0
   52.2656   -5.7483   -2.9953 C   0  0  0  0  0  0  0  0  0  0  0  0
   52.9742   -5.9861   -4.1790 O   0  0  0  0  0  0  0  0  0  0  0  0
   51.6835   -2.8149   -8.6104 C   0  0  0  0  0  0  0  0  0  0  0  0
   51.3827   -2.1674   -9.5327 N   0  0  0  0  0  0  0  0  0  0  0  0
   55.0016   -7.2265   -4.4058 C   0  0  0  0  0  0  0  0  0  0  0  0
   54.7980   -8.6699   -4.9108 C   0  0  0  0  0  0  0  0  0  0  0  0
   55.7448   -7.2913   -3.1006 C   0  0  0  0  0  0  0  0  0  0  0  0
 31 32  1  0  0  0
 32 25  1  0  0  0
 25 26  2  0  0  0
 26 27  1  0  0  0
 27 28  2  0  0  0
 28 29  1  0  0  0
 29 30  2  0  0  0
 30  1  1  0  0  0
  1  2  2  0  0  0
  2  3  1  0  0  0
  3  4  1  0  0  0
  4  5  2  0  0  0
  4  6  1  0  0  0
  6  7  1  0  0  0
  7  8  1  0  0  0
  8  9  1  0  0  0
  9 35  1  0  0  0
 35 36  1  0  0  0
 35 37  1  0  0  0
  7 18  1  0  0  0
 18 19  2  0  0  0
 19 20  1  0  0  0
 20 21  2  0  0  0
 21 22  1  0  0  0
 21 23  1  0  0  0
 23 24  2  0  0  0
  6 10  1  0  0  0
 10 11  2  0  0  0
 11 12  1  0  0  0
 12 13  1  0  0  0
 12 14  2  0  0  0
 14 15  1  0  0  0
 15 16  2  0  0  0
 16 17  1  0  0  0
 28 33  1  0  0  0
 33 34  3  0  0  0
 30 25  1  0  0  0
  9  1  1  0  0  0
 24 18  1  0  0  0
 16 10  1  0  0  0
  8  3  2  0  0  0
M  END
> <minimizedAffinity>
2.93936

> <CNNscore>
0.3821831048

> <CNNaffinity>
7.0546827316

> <CNN_VS>
2.6961805820

> <CNNaffinity_variance>
0.8785957098

$$$$
[H]c1c([H])c(C2([H])c3c(nc(-c4c([H])c(C#N)c([H])c([H])c4OC([H])([H])[H])n3C([H])(C([H])([H])[H])C([H])([H])[H])C(=O)N2c2c([H])c(Cl)c([H])c([H])c2C([H])([H])[H])c([H])c([H])c1Cl


 37 41  0  0  0  0  0  0  0  0999 V2000
   54.0092   -6.0695   -4.0245 C   0  0  0  0  0  0  0  0  0  0  0  0
   53.3154   -5.0524   -4.6502 N   0  0  0  0  0  0  0  0  0  0  0  0
   53.7010   -4.9544   -5.9055 C   0  0  0  0  0  0  0  0  0  0  0  0
   53.4718   -4.1677   -7.1425 C   0  0  0  0  0  0  0  0  0  0  0  0
   52.6227   -3.2129   -7.2065 O   0  0  0  0  0  0  0  0  0  0  0  0
   54.3370   -4.7004   -8.0994 N   0  0  0  0  0  0  0  0  0  0  0  0
   55.0705   -5.8486   -7.5357 C   0  0  0  0  0  0  0  0  0  0  0  0
   54.6615   -5.9162   -6.1265 C   0  0  0  0  0  0  0  0  0  0  0  0
   54.8254   -6.5818   -4.9507 N   0  0  0  0  0  0  0  0  0  0  0  0
   54.4821   -4.2203   -9.4340 C   0  0  0  0  0  0  0  0  0  0  0  0
   55.7433   -4.2602  -10.0471 C   0  0  0  0  0  0  0  0  0  0  0  0
   55.9323   -3.8100  -11.3291 C   0  0  0  0  0  0  0  0  0  0  0  0
   57.5160   -3.8733  -12.0753 Cl  0  0  0  0  0  0  0  0  0  0  0  0
   54.8834   -3.2982  -12.0657 C   0  0  0  0  0  0  0  0  0  0  0  0
   53.6442   -3.2504  -11.4852 C   0  0  0  0  0  0  0  0  0  0  0  0
   53.4484   -3.7096  -10.1767 C   0  0  0  0  0  0  0  0  0  0  0  0
   52.0654   -3.6028   -9.6772 C   0  0  0  0  0  0  0  0  0  0  0  0
   56.4948   -5.6969   -7.7850 C   0  0  0  0  0  0  0  0  0  0  0  0
   57.3124   -4.8892   -7.0386 C   0  0  0  0  0  0  0  0  0  0  0  0
   58.6340   -4.7536   -7.3478 C   0  0  0  0  0  0  0  0  0  0  0  0
   59.1847   -5.4243   -8.4193 C   0  0  0  0  0  0  0  0  0  0  0  0
   60.8597   -5.2845   -8.8528 Cl  0  0  0  0  0  0  0  0  0  0  0  0
   58.3831   -6.2403   -9.1818 C   0  0  0  0  0  0  0  0  0  0  0  0
   57.0684   -6.3713   -8.8693 C   0  0  0  0  0  0  0  0  0  0  0  0
   54.5403   -6.3221   -1.6145 C   0  0  0  0  0  0  0  0  0  0  0  0
   54.1125   -6.6180   -0.2962 C   0  0  0  0  0  0  0  0  0  0  0  0
   52.8279   -7.0161   -0.0290 C   0  0  0  0  0  0  0  0  0  0  0  0
   51.9383   -7.1277   -1.0755 C   0  0  0  0  0  0  0  0  0  0  0  0
   52.3606   -6.8399   -2.3525 C   0  0  0  0  0  0  0  0  0  0  0  0
   53.6766   -6.4308   -2.6496 C   0  0  0  0  0  0  0  0  0  0  0  0
   56.2889   -4.7101   -1.2226 C   0  0  0  0  0  0  0  0  0  0  0  0
   55.8496   -5.9192   -1.7748 O   0  0  0  0  0  0  0  0  0  0  0  0
   50.5821   -7.5508   -0.7995 C   0  0  0  0  0  0  0  0  0  0  0  0
   49.4909   -7.8834   -0.5564 N   0  0  0  0  0  0  0  0  0  0  0  0
   55.6827   -7.7379   -4.7487 C   0  0  0  0  0  0  0  0  0  0  0  0
   55.3905   -8.7911   -5.8374 C   0  0  0  0  0  0  0  0  0  0  0  0
   57.1580   -7.4490   -4.7657 C   0  0  0  0  0  0  0  0  0  0  0  0
 31 32  1  0  0  0
 32 25  1  0  0  0
 25 26  2  0  0  0
 26 27  1  0  0  0
 27 28  2  0  0  0
 28 29  1  0  0  0
 29 30  2  0  0  0
 30  1  1  0  0  0
  1  2  2  0  0  0
  2  3  1  0  0  0
  3  4  1  0  0  0
  4  5  2  0  0  0
  4  6  1  0  0  0
  6  7  1  0  0  0
  7  8  1  0  0  0
  8  9  1  0  0  0
  9 35  1  0  0  0
 35 36  1  0  0  0
 35 37  1  0  0  0
  7 18  1  0  0  0
 18 19  2  0  0  0
 19 20  1  0  0  0
 20 21  2  0  0  0
 21 22  1  0  0  0
 21 23  1  0  0  0
 23 24  2  0  0  0
  6 10  1  0  0  0
 10 11  2  0  0  0
 11 12  1  0  0  0
 12 13  1  0  0  0
 12 14  2  0  0  0
 14 15  1  0  0  0
 15 16  2  0  0  0
 16 17  1  0  0  0
 28 33  1  0  0  0
 33 34  3  0  0  0
 30 25  1  0  0  0
  9  1  1  0  0  0
 24 18  1  0  0  0
 16 10  1  0  0  0
  8  3  2  0  0  0
M  END
> <minimizedAffinity>
8.18499

> <CNNscore>
0.3649229109

> <CNNaffinity>
6.7597665787

> <CNN_VS>
2.4667937756

> <CNNaffinity_variance>
0.6372616887

$$$$
[H]c1c([H])c(C2([H])c3c(nc(-c4c([H])c(C#N)c([H])c([H])c4OC([H])([H])[H])n3C([H])(C([H])([H])[H])C([H])([H])[H])C(=O)N2c2c([H])c(Cl)c([H])c([H])c2C([H])([H])[H])c([H])c([H])c1Cl


 37 41  0  0  0  0  0  0  0  0999 V2000
   55.8433   -4.9201   -8.4926 C   0  0  0  0  0  0  0  0  0  0  0  0
   54.6931   -4.4795   -9.1173 N   0  0  0  0  0  0  0  0  0  0  0  0
   53.7549   -4.2556   -8.2208 C   0  0  0  0  0  0  0  0  0  0  0  0
   52.3432   -3.8185   -8.0877 C   0  0  0  0  0  0  0  0  0  0  0  0
   51.6259   -3.4846   -9.0930 O   0  0  0  0  0  0  0  0  0  0  0  0
   52.0558   -3.8666   -6.7227 N   0  0  0  0  0  0  0  0  0  0  0  0
   53.2584   -4.2594   -5.9655 C   0  0  0  0  0  0  0  0  0  0  0  0
   54.2800   -4.5464   -6.9813 C   0  0  0  0  0  0  0  0  0  0  0  0
   55.5632   -4.9510   -7.1860 N   0  0  0  0  0  0  0  0  0  0  0  0
   50.7911   -3.5643   -6.1382 C   0  0  0  0  0  0  0  0  0  0  0  0
   50.3409   -4.3165   -5.0430 C   0  0  0  0  0  0  0  0  0  0  0  0
   49.1316   -4.0630   -4.4470 C   0  0  0  0  0  0  0  0  0  0  0  0
   48.5920   -5.0135   -3.0780 Cl  0  0  0  0  0  0  0  0  0  0  0  0
   48.3094   -3.0541   -4.9061 C   0  0  0  0  0  0  0  0  0  0  0  0
   48.7306   -2.3083   -5.9744 C   0  0  0  0  0  0  0  0  0  0  0  0
   49.9648   -2.5647   -6.5845 C   0  0  0  0  0  0  0  0  0  0  0  0
   50.2949   -1.6854   -7.7209 C   0  0  0  0  0  0  0  0  0  0  0  0
   52.9365   -5.3447   -5.0532 C   0  0  0  0  0  0  0  0  0  0  0  0
   52.1489   -6.4128   -5.3950 C   0  0  0  0  0  0  0  0  0  0  0  0
   51.8459   -7.3797   -4.4817 C   0  0  0  0  0  0  0  0  0  0  0  0
   52.3224   -7.3101   -3.1897 C   0  0  0  0  0  0  0  0  0  0  0  0
   51.9648   -8.5145   -1.9920 Cl  0  0  0  0  0  0  0  0  0  0  0  0
   53.1147   -6.2474   -2.8249 C   0  0  0  0  0  0  0  0  0  0  0  0
   53.4130   -5.2881   -3.7382 C   0  0  0  0  0  0  0  0  0  0  0  0
   57.1662   -4.8195  -10.5887 C   0  0  0  0  0  0  0  0  0  0  0  0
   58.4035   -4.9882  -11.2588 C   0  0  0  0  0  0  0  0  0  0  0  0
   59.5124   -5.4697  -10.6117 C   0  0  0  0  0  0  0  0  0  0  0  0
   59.4107   -5.7943   -9.2764 C   0  0  0  0  0  0  0  0  0  0  0  0
   58.2065   -5.6289   -8.6325 C   0  0  0  0  0  0  0  0  0  0  0  0
   57.0540   -5.1374   -9.2789 C   0  0  0  0  0  0  0  0  0  0  0  0
   56.3387   -3.7838  -12.6018 C   0  0  0  0  0  0  0  0  0  0  0  0
   56.1149   -4.3176  -11.3271 O   0  0  0  0  0  0  0  0  0  0  0  0
   60.5771   -6.3061   -8.5895 C   0  0  0  0  0  0  0  0  0  0  0  0
   61.5126   -6.7389   -8.0436 N   0  0  0  0  0  0  0  0  0  0  0  0
   56.5217   -5.2753   -6.1426 C   0  0  0  0  0  0  0  0  0  0  0  0
   56.4609   -4.2011   -5.0369 C   0  0  0  0  0  0  0  0  0  0  0  0
   56.3306   -6.6190   -5.4960 C   0  0  0  0  0  0  0  0  0  0  0  0
 31 32  1  0  0  0
 32 25  1  0  0  0
 25 26  2  0  0  0
 26 27  1  0  0  0
 27 28  2  0  0  0
 28 29  1  0  0  0
 29 30  2  0  0  0
 30  1  1  0  0  0
  1  2  2  0  0  0
  2  3  1  0  0  0
  3  4  1  0  0  0
  4  5  2  0  0  0
  4  6  1  0  0  0
  6  7  1  0  0  0
  7  8  1  0  0  0
  8  9  1  0  0  0
  9 35  1  0  0  0
 35 36  1  0  0  0
 35 37  1  0  0  0
  7 18  1  0  0  0
 18 19  2  0  0  0
 19 20  1  0  0  0
 20 21  2  0  0  0
 21 22  1  0  0  0
 21 23  1  0  0  0
 23 24  2  0  0  0
  6 10  1  0  0  0
 10 11  2  0  0  0
 11 12  1  0  0  0
 12 13  1  0  0  0
 12 14  2  0  0  0
 14 15  1  0  0  0
 15 16  2  0  0  0
 16 17  1  0  0  0
 28 33  1  0  0  0
 33 34  3  0  0  0
 30 25  1  0  0  0
  9  1  1  0  0  0
 24 18  1  0  0  0
 16 10  1  0  0  0
  8  3  2  0  0  0
M  END
> <minimizedAffinity>
-5.61337

> <CNNscore>
0.3629954457

> <CNNaffinity>
7.6912369728

> <CNN_VS>
2.7918839455

> <CNNaffinity_variance>
0.4426121712

$$$$
[H]c1c([H])c(N(C([H])([H])[H])C([H])([H])c2nc3c(N([H])[H])nc(N([H])[H])nc3c([H])c2[H])c([H])c([H])c1Cl


 26 28  0  0  0  0  0  0  0  0999 V2000
   52.8821   -4.6296   -8.1237 C   0  0  0  0  0  0  0  0  0  0  0  0
   53.1479   -5.6893   -7.2831 C   0  0  0  0  0  0  0  0  0  0  0  0
   52.3938   -5.9084   -6.1306 C   0  0  0  0  0  0  0  0  0  0  0  0
   51.3533   -5.0591   -5.8038 C   0  0  0  0  0  0  0  0  0  0  0  0
   50.5926   -5.2193   -4.7113 N   0  0  0  0  0  0  0  0  0  0  0  0
   49.5751   -4.3814   -4.4042 C   0  0  0  0  0  0  0  0  0  0  0  0
   48.8043   -4.6174   -3.2160 N   0  0  0  0  0  0  0  0  0  0  0  0
   49.3152   -3.3489   -5.2230 N   0  0  0  0  0  0  0  0  0  0  0  0
   50.0699   -3.1634   -6.3359 C   0  0  0  0  0  0  0  0  0  0  0  0
   49.8331   -2.0899   -7.2324 N   0  0  0  0  0  0  0  0  0  0  0  0
   51.1154   -4.0104   -6.6666 C   0  0  0  0  0  0  0  0  0  0  0  0
   51.8612   -3.8238   -7.7729 N   0  0  0  0  0  0  0  0  0  0  0  0
   47.7744   -4.6614   -3.2912 H   0  0  0  0  0  0  0  0  0  0  0  0
   49.2389   -4.7453   -2.2881 H   0  0  0  0  0  0  0  0  0  0  0  0
   50.0842   -1.1029   -7.0430 H   0  0  0  0  0  0  0  0  0  0  0  0
   49.3770   -2.3132   -8.1373 H   0  0  0  0  0  0  0  0  0  0  0  0
   53.6830   -4.3966   -9.3620 C   0  0  0  0  0  0  0  0  0  0  0  0
   54.8060   -2.2371   -8.8119 C   0  0  0  0  0  0  0  0  0  0  0  0
   54.8673   -3.6384   -9.1582 N   0  0  0  0  0  0  0  0  0  0  0  0
   56.1379   -4.2515   -9.2784 C   0  0  0  0  0  0  0  0  0  0  0  0
   56.7593   -4.4322  -10.5022 C   0  0  0  0  0  0  0  0  0  0  0  0
   57.9953   -5.0374  -10.5831 C   0  0  0  0  0  0  0  0  0  0  0  0
   58.6691   -5.4905   -9.4506 C   0  0  0  0  0  0  0  0  0  0  0  0
   60.2421   -6.2613   -9.5561 Cl  0  0  0  0  0  0  0  0  0  0  0  0
   58.0201   -5.2937   -8.2520 C   0  0  0  0  0  0  0  0  0  0  0  0
   56.7894   -4.6942   -8.1393 C   0  0  0  0  0  0  0  0  0  0  0  0
 18 19  1  0  0  0
 19 17  1  0  0  0
 17  1  1  0  0  0
  1  2  2  0  0  0
  2  3  1  0  0  0
  3  4  2  0  0  0
  4  5  1  0  0  0
  5  6  2  0  0  0
  6  7  1  0  0  0
  6  8  1  0  0  0
  8  9  2  0  0  0
  9 10  1  0  0  0
  9 11  1  0  0  0
 11 12  2  0  0  0
 19 20  1  0  0  0
 20 21  2  0  0  0
 21 22  1  0  0  0
 22 23  2  0  0  0
 23 24  1  0  0  0
 23 25  1  0  0  0
 25 26  2  0  0  0
 12  1  1  0  0  0
 26 20  1  0  0  0
 11  4  1  0  0  0
  7 13  1  0  0  0
  7 14  1  0  0  0
 10 15  1  0  0  0
 10 16  1  0  0  0
M  END
> <minimizedAffinity>
-8.63256

> <CNNscore>
0.5536807179

> <CNNaffinity>
6.4972701073

> <CNN_VS>
3.5974130630

> <CNNaffinity_variance>
0.0831415802

$$$$
[H]c1c([H])c(N(C([H])([H])[H])C([H])([H])c2nc3c(N([H])[H])nc(N([H])[H])nc3c([H])c2[H])c([H])c([H])c1Cl


 26 28  0  0  0  0  0  0  0  0999 V2000
   52.8454   -5.6959   -6.1572 C   0  0  0  0  0  0  0  0  0  0  0  0
   52.2966   -6.1857   -4.9915 C   0  0  0  0  0  0  0  0  0  0  0  0
   51.1432   -5.6271   -4.4415 C   0  0  0  0  0  0  0  0  0  0  0  0
   50.5196   -4.5598   -5.0603 C   0  0  0  0  0  0  0  0  0  0  0  0
   49.4084   -3.9825   -4.5809 N   0  0  0  0  0  0  0  0  0  0  0  0
   48.8065   -2.9392   -5.1982 C   0  0  0  0  0  0  0  0  0  0  0  0
   47.6185   -2.3729   -4.6241 N   0  0  0  0  0  0  0  0  0  0  0  0
   49.3404   -2.4617   -6.3344 N   0  0  0  0  0  0  0  0  0  0  0  0
   50.4650   -3.0277   -6.8417 C   0  0  0  0  0  0  0  0  0  0  0  0
   51.0650   -2.5609   -8.0394 N   0  0  0  0  0  0  0  0  0  0  0  0
   51.0952   -4.0959   -6.2240 C   0  0  0  0  0  0  0  0  0  0  0  0
   52.2105   -4.6559   -6.7314 N   0  0  0  0  0  0  0  0  0  0  0  0
   46.7816   -2.2615   -5.2203 H   0  0  0  0  0  0  0  0  0  0  0  0
   47.5672   -2.0723   -3.6375 H   0  0  0  0  0  0  0  0  0  0  0  0
   51.6143   -1.6860   -8.1166 H   0  0  0  0  0  0  0  0  0  0  0  0
   50.9421   -3.1378   -8.8931 H   0  0  0  0  0  0  0  0  0  0  0  0
   54.0761   -6.2965   -6.7523 C   0  0  0  0  0  0  0  0  0  0  0  0
   55.8081   -4.9713   -5.5392 C   0  0  0  0  0  0  0  0  0  0  0  0
   55.2012   -5.4287   -6.7679 N   0  0  0  0  0  0  0  0  0  0  0  0
   55.7598   -5.0051   -7.9981 C   0  0  0  0  0  0  0  0  0  0  0  0
   55.0123   -4.3556   -8.9654 C   0  0  0  0  0  0  0  0  0  0  0  0
   55.5876   -3.9608  -10.1543 C   0  0  0  0  0  0  0  0  0  0  0  0
   56.9324   -4.1941  -10.4352 C   0  0  0  0  0  0  0  0  0  0  0  0
   57.6624   -3.6913  -11.9497 Cl  0  0  0  0  0  0  0  0  0  0  0  0
   57.6435   -4.8423   -9.4498 C   0  0  0  0  0  0  0  0  0  0  0  0
   57.0987   -5.2476   -8.2558 C   0  0  0  0  0  0  0  0  0  0  0  0
 18 19  1  0  0  0
 19 17  1  0  0  0
 17  1  1  0  0  0
  1  2  2  0  0  0
  2  3  1  0  0  0
  3  4  2  0  0  0
  4  5  1  0  0  0
  5  6  2  0  0  0
  6  7  1  0  0  0
  6  8  1  0  0  0
  8  9  2  0  0  0
  9 10  1  0  0  0
  9 11  1  0  0  0
 11 12  2  0  0  0
 19 20  1  0  0  0
 20 21  2  0  0  0
 21 22  1  0  0  0
 22 23  2  0  0  0
 23 24  1  0  0  0
 23 25  1  0  0  0
 25 26  2  0  0  0
 12  1  1  0  0  0
 26 20  1  0  0  0
 11  4  1  0  0  0
  7 13  1  0  0  0
  7 14  1  0  0  0
 10 15  1  0  0  0
 10 16  1  0  0  0
M  END
> <minimizedAffinity>
-9.00643

> <CNNscore>
0.4619993567

> <CNNaffinity>
6.4311242104

> <CNN_VS>
2.9711751938

> <CNNaffinity_variance>
0.2337056398

$$$$
[H]c1c([H])c(N(C([H])([H])[H])C([H])([H])c2nc3c(N([H])[H])nc(N([H])[H])nc3c([H])c2[H])c([H])c([H])c1Cl


 26 28  0  0  0  0  0  0  0  0999 V2000
   51.5659   -6.2810   -3.2841 C   0  0  0  0  0  0  0  0  0  0  0  0
   50.5261   -5.5593   -2.7382 C   0  0  0  0  0  0  0  0  0  0  0  0
   49.8393   -4.6000   -3.4818 C   0  0  0  0  0  0  0  0  0  0  0  0
   50.1901   -4.3504   -4.7953 C   0  0  0  0  0  0  0  0  0  0  0  0
   49.5665   -3.4427   -5.5602 N   0  0  0  0  0  0  0  0  0  0  0  0
   49.9188   -3.2098   -6.8460 C   0  0  0  0  0  0  0  0  0  0  0  0
   49.2037   -2.2211   -7.6028 N   0  0  0  0  0  0  0  0  0  0  0  0
   50.9316   -3.9129   -7.3789 N   0  0  0  0  0  0  0  0  0  0  0  0
   51.5802   -4.8381   -6.6266 C   0  0  0  0  0  0  0  0  0  0  0  0
   52.6537   -5.6072   -7.1447 N   0  0  0  0  0  0  0  0  0  0  0  0
   51.2339   -5.0903   -5.3089 C   0  0  0  0  0  0  0  0  0  0  0  0
   51.8792   -6.0104   -4.5660 N   0  0  0  0  0  0  0  0  0  0  0  0
   48.8169   -2.4833   -8.5246 H   0  0  0  0  0  0  0  0  0  0  0  0
   49.0604   -1.2570   -7.2617 H   0  0  0  0  0  0  0  0  0  0  0  0
   53.6099   -5.2432   -7.3065 H   0  0  0  0  0  0  0  0  0  0  0  0
   52.4632   -6.6006   -7.3761 H   0  0  0  0  0  0  0  0  0  0  0  0
   52.2985   -7.3137   -2.4928 C   0  0  0  0  0  0  0  0  0  0  0  0
   54.3398   -7.1606   -1.0657 C   0  0  0  0  0  0  0  0  0  0  0  0
   53.6902   -7.0641   -2.3526 N   0  0  0  0  0  0  0  0  0  0  0  0
   54.4734   -6.7274   -3.4832 C   0  0  0  0  0  0  0  0  0  0  0  0
   54.7660   -7.6427   -4.4796 C   0  0  0  0  0  0  0  0  0  0  0  0
   55.5356   -7.2819   -5.5649 C   0  0  0  0  0  0  0  0  0  0  0  0
   56.0492   -5.9945   -5.7084 C   0  0  0  0  0  0  0  0  0  0  0  0
   57.0292   -5.5376   -7.0905 Cl  0  0  0  0  0  0  0  0  0  0  0  0
   55.7374   -5.1121   -4.6979 C   0  0  0  0  0  0  0  0  0  0  0  0
   54.9734   -5.4417   -3.6050 C   0  0  0  0  0  0  0  0  0  0  0  0
 18 19  1  0  0  0
 19 17  1  0  0  0
 17  1  1  0  0  0
  1  2  2  0  0  0
  2  3  1  0  0  0
  3  4  2  0  0  0
  4  5  1  0  0  0
  5  6  2  0  0  0
  6  7  1  0  0  0
  6  8  1  0  0  0
  8  9  2  0  0  0
  9 10  1  0  0  0
  9 11  1  0  0  0
 11 12  2  0  0  0
 19 20  1  0  0  0
 20 21  2  0  0  0
 21 22  1  0  0  0
 22 23  2  0  0  0
 23 24  1  0  0  0
 23 25  1  0  0  0
 25 26  2  0  0  0
 12  1  1  0  0  0
 26 20  1  0  0  0
 11  4  1  0  0  0
  7 13  1  0  0  0
  7 14  1  0  0  0
 10 15  1  0  0  0
 10 16  1  0  0  0
M  END
> <minimizedAffinity>
-7.57092

> <CNNscore>
0.4015774727

> <CNNaffinity>
6.4479207993

> <CNN_VS>
2.5893397331

> <CNNaffinity_variance>
0.0371435769

$$$$
[H]c1c([H])c(N(C([H])([H])[H])C([H])([H])c2nc3c(N([H])[H])nc(N([H])[H])nc3c([H])c2[H])c([H])c([H])c1Cl


 26 28  0  0  0  0  0  0  0  0999 V2000
   54.7238   -5.1852   -7.0150 C   0  0  0  0  0  0  0  0  0  0  0  0
   54.4064   -6.5190   -7.1579 C   0  0  0  0  0  0  0  0  0  0  0  0
   53.2941   -7.0723   -6.5243 C   0  0  0  0  0  0  0  0  0  0  0  0
   52.4780   -6.2869   -5.7319 C   0  0  0  0  0  0  0  0  0  0  0  0
   51.3949   -6.7612   -5.0995 N   0  0  0  0  0  0  0  0  0  0  0  0
   50.6029   -5.9803   -4.3283 C   0  0  0  0  0  0  0  0  0  0  0  0
   49.4593   -6.5602   -3.6820 N   0  0  0  0  0  0  0  0  0  0  0  0
   50.9112   -4.6805   -4.1889 N   0  0  0  0  0  0  0  0  0  0  0  0
   52.0022   -4.1744   -4.8182 C   0  0  0  0  0  0  0  0  0  0  0  0
   52.3676   -2.8084   -4.7041 N   0  0  0  0  0  0  0  0  0  0  0  0
   52.8247   -4.9580   -5.6115 C   0  0  0  0  0  0  0  0  0  0  0  0
   53.9059   -4.4516   -6.2356 N   0  0  0  0  0  0  0  0  0  0  0  0
   48.5370   -6.1100   -3.8039 H   0  0  0  0  0  0  0  0  0  0  0  0
   49.5221   -7.4105   -3.0995 H   0  0  0  0  0  0  0  0  0  0  0  0
   52.8048   -2.3876   -3.8646 H   0  0  0  0  0  0  0  0  0  0  0  0
   52.1819   -2.1932   -5.5188 H   0  0  0  0  0  0  0  0  0  0  0  0
   55.9098   -4.5883   -7.6978 C   0  0  0  0  0  0  0  0  0  0  0  0
   54.2966   -3.4807   -9.2463 C   0  0  0  0  0  0  0  0  0  0  0  0
   55.6194   -3.9794   -8.9483 N   0  0  0  0  0  0  0  0  0  0  0  0
   56.6332   -3.8374   -9.9267 C   0  0  0  0  0  0  0  0  0  0  0  0
   57.8327   -4.5245   -9.8541 C   0  0  0  0  0  0  0  0  0  0  0  0
   58.8001   -4.3589  -10.8221 C   0  0  0  0  0  0  0  0  0  0  0  0
   58.6184   -3.5024  -11.9062 C   0  0  0  0  0  0  0  0  0  0  0  0
   59.8515   -3.2926  -13.1369 Cl  0  0  0  0  0  0  0  0  0  0  0  0
   57.4135   -2.8364  -11.9444 C   0  0  0  0  0  0  0  0  0  0  0  0
   56.4308   -2.9805  -10.9956 C   0  0  0  0  0  0  0  0  0  0  0  0
 18 19  1  0  0  0
 19 17  1  0  0  0
 17  1  1  0  0  0
  1  2  2  0  0  0
  2  3  1  0  0  0
  3  4  2  0  0  0
  4  5  1  0  0  0
  5  6  2  0  0  0
  6  7  1  0  0  0
  6  8  1  0  0  0
  8  9  2  0  0  0
  9 10  1  0  0  0
  9 11  1  0  0  0
 11 12  2  0  0  0
 19 20  1  0  0  0
 20 21  2  0  0  0
 21 22  1  0  0  0
 22 23  2  0  0  0
 23 24  1  0  0  0
 23 25  1  0  0  0
 25 26  2  0  0  0
 12  1  1  0  0  0
 26 20  1  0  0  0
 11  4  1  0  0  0
  7 13  1  0  0  0
  7 14  1  0  0  0
 10 15  1  0  0  0
 10 16  1  0  0  0
M  END
> <minimizedAffinity>
15.88821

> <CNNscore>
0.3669584692

> <CNNaffinity>
5.5746526718

> <CNN_VS>
2.0456659794

> <CNNaffinity_variance>
1.1436790228

$$$$
[H]c1c([H])c(N(C([H])([H])[H])C([H])([H])c2nc3c(N([H])[H])nc(N([H])[H])nc3c([H])c2[H])c([H])c([H])c1Cl


 26 28  0  0  0  0  0  0  0  0999 V2000
   54.9183   -4.1452   -8.2388 C   0  0  0  0  0  0  0  0  0  0  0  0
   55.5653   -4.5268   -7.0830 C   0  0  0  0  0  0  0  0  0  0  0  0
   56.8711   -5.0155   -7.1097 C   0  0  0  0  0  0  0  0  0  0  0  0
   57.5513   -5.1284   -8.3078 C   0  0  0  0  0  0  0  0  0  0  0  0
   58.8074   -5.5890   -8.3964 N   0  0  0  0  0  0  0  0  0  0  0  0
   59.4626   -5.6923   -9.5761 C   0  0  0  0  0  0  0  0  0  0  0  0
   60.8074   -6.1952   -9.5917 N   0  0  0  0  0  0  0  0  0  0  0  0
   58.8332   -5.3202  -10.7028 N   0  0  0  0  0  0  0  0  0  0  0  0
   57.5611   -4.8503  -10.6415 C   0  0  0  0  0  0  0  0  0  0  0  0
   56.8553   -4.4428  -11.8026 N   0  0  0  0  0  0  0  0  0  0  0  0
   56.8743   -4.7376   -9.4434 C   0  0  0  0  0  0  0  0  0  0  0  0
   55.6124   -4.2694   -9.3867 N   0  0  0  0  0  0  0  0  0  0  0  0
   61.5394   -5.6448  -10.0707 H   0  0  0  0  0  0  0  0  0  0  0  0
   61.0725   -7.0863   -9.1422 H   0  0  0  0  0  0  0  0  0  0  0  0
   56.4543   -5.0930  -12.5023 H   0  0  0  0  0  0  0  0  0  0  0  0
   56.7358   -3.4237  -11.9574 H   0  0  0  0  0  0  0  0  0  0  0  0
   53.5229   -3.6149   -8.2128 C   0  0  0  0  0  0  0  0  0  0  0  0
   52.7244   -5.9399   -7.7840 C   0  0  0  0  0  0  0  0  0  0  0  0
   52.5679   -4.5092   -7.6585 N   0  0  0  0  0  0  0  0  0  0  0  0
   51.4446   -4.0097   -6.9559 C   0  0  0  0  0  0  0  0  0  0  0  0
   50.7559   -2.8818   -7.3679 C   0  0  0  0  0  0  0  0  0  0  0  0
   49.6687   -2.4202   -6.6571 C   0  0  0  0  0  0  0  0  0  0  0  0
   49.2172   -3.0595   -5.5041 C   0  0  0  0  0  0  0  0  0  0  0  0
   47.8334   -2.4697   -4.6005 Cl  0  0  0  0  0  0  0  0  0  0  0  0
   49.9270   -4.1772   -5.1253 C   0  0  0  0  0  0  0  0  0  0  0  0
   51.0135   -4.6612   -5.8124 C   0  0  0  0  0  0  0  0  0  0  0  0
 18 19  1  0  0  0
 19 17  1  0  0  0
 17  1  1  0  0  0
  1  2  2  0  0  0
  2  3  1  0  0  0
  3  4  2  0  0  0
  4  5  1  0  0  0
  5  6  2  0  0  0
  6  7  1  0  0  0
  6  8  1  0  0  0
  8  9  2  0  0  0
  9 10  1  0  0  0
  9 11  1  0  0  0
 11 12  2  0  0  0
 19 20  1  0  0  0
 20 21  2  0  0  0
 21 22  1  0  0  0
 22 23  2  0  0  0
 23 24  1  0  0  0
 23 25  1  0  0  0
 25 26  2  0  0  0
 12  1  1  0  0  0
 26 20  1  0  0  0
 11  4  1  0  0  0
  7 13  1  0  0  0
  7 14  1  0  0  0
 10 15  1  0  0  0
 10 16  1  0  0  0
M  END
> <minimizedAffinity>
-9.72548

> <CNNscore>
0.3612112403

> <CNNaffinity>
5.8436231613

> <CNN_VS>
2.1107823849

> <CNNaffinity_variance>
0.2297884524

$$$$
[H]c1c([H])c(N(C([H])([H])[H])C([H])([H])c2nc3c(N([H])[H])nc(N([H])[H])nc3c([H])c2[H])c([H])c([H])c1Cl


 26 28  0  0  0  0  0  0  0  0999 V2000
   54.5921   -3.9319   -9.2112 C   0  0  0  0  0  0  0  0  0  0  0  0
   55.0003   -3.7940  -10.5205 C   0  0  0  0  0  0  0  0  0  0  0  0
   56.2652   -4.2108  -10.9342 C   0  0  0  0  0  0  0  0  0  0  0  0
   57.1450   -4.7771  -10.0309 C   0  0  0  0  0  0  0  0  0  0  0  0
   58.3722   -5.1982  -10.3693 N   0  0  0  0  0  0  0  0  0  0  0  0
   59.2231   -5.7532   -9.4749 C   0  0  0  0  0  0  0  0  0  0  0  0
   60.5223   -6.1803   -9.9122 N   0  0  0  0  0  0  0  0  0  0  0  0
   58.8259   -5.8884   -8.1990 N   0  0  0  0  0  0  0  0  0  0  0  0
   57.5884   -5.4705   -7.8294 C   0  0  0  0  0  0  0  0  0  0  0  0
   57.1224   -5.5940   -6.4953 N   0  0  0  0  0  0  0  0  0  0  0  0
   56.7039   -4.9000   -8.7305 C   0  0  0  0  0  0  0  0  0  0  0  0
   55.4759   -4.4878   -8.3600 N   0  0  0  0  0  0  0  0  0  0  0  0
   60.8284   -7.1437   -9.6966 H   0  0  0  0  0  0  0  0  0  0  0  0
   61.1637   -5.5622  -10.4345 H   0  0  0  0  0  0  0  0  0  0  0  0
   57.4295   -4.9924   -5.7099 H   0  0  0  0  0  0  0  0  0  0  0  0
   56.4276   -6.3390   -6.2977 H   0  0  0  0  0  0  0  0  0  0  0  0
   53.2359   -3.4932   -8.7667 C   0  0  0  0  0  0  0  0  0  0  0  0
   53.0173   -5.7809   -7.7943 C   0  0  0  0  0  0  0  0  0  0  0  0
   52.5811   -4.4076   -7.8984 N   0  0  0  0  0  0  0  0  0  0  0  0
   51.4896   -3.9814   -7.1033 C   0  0  0  0  0  0  0  0  0  0  0  0
   51.0931   -4.6622   -5.9651 C   0  0  0  0  0  0  0  0  0  0  0  0
   50.0226   -4.2216   -5.2166 C   0  0  0  0  0  0  0  0  0  0  0  0
   49.2978   -3.0840   -5.5663 C   0  0  0  0  0  0  0  0  0  0  0  0
   47.9350   -2.5254   -4.6124 Cl  0  0  0  0  0  0  0  0  0  0  0  0
   49.7213   -2.4335   -6.7040 C   0  0  0  0  0  0  0  0  0  0  0  0
   50.7836   -2.8478   -7.4699 C   0  0  0  0  0  0  0  0  0  0  0  0
 18 19  1  0  0  0
 19 17  1  0  0  0
 17  1  1  0  0  0
  1  2  2  0  0  0
  2  3  1  0  0  0
  3  4  2  0  0  0
  4  5  1  0  0  0
  5  6  2  0  0  0
  6  7  1  0  0  0
  6  8  1  0  0  0
  8  9  2  0  0  0
  9 10  1  0  0  0
  9 11  1  0  0  0
 11 12  2  0  0  0
 19 20  1  0  0  0
 20 21  2  0  0  0
 21 22  1  0  0  0
 22 23  2  0  0  0
 23 24  1  0  0  0
 23 25  1  0  0  0
 25 26  2  0  0  0
 12  1  1  0  0  0
 26 20  1  0  0  0
 11  4  1  0  0  0
  7 13  1  0  0  0
  7 14  1  0  0  0
 10 15  1  0  0  0
 10 16  1  0  0  0
M  END
> <minimizedAffinity>
-9.20821

> <CNNscore>
0.3233995438

> <CNNaffinity>
5.8029112816

> <CNN_VS>
1.8766589165

> <CNNaffinity_variance>
0.2108691186

$$$$
[H]c1c([H])c(N(C([H])([H])[H])C([H])([H])c2nc3c(N([H])[H])nc(N([H])[H])nc3c([H])c2[H])c([H])c([H])c1Cl


 26 28  0  0  0  0  0  0  0  0999 V2000
   54.8254   -5.5675   -6.2493 C   0  0  0  0  0  0  0  0  0  0  0  0
   53.7416   -4.9990   -6.8837 C   0  0  0  0  0  0  0  0  0  0  0  0
   53.8543   -4.4483   -8.1599 C   0  0  0  0  0  0  0  0  0  0  0  0
   55.0674   -4.4615   -8.8226 C   0  0  0  0  0  0  0  0  0  0  0  0
   55.2369   -3.9496  -10.0503 N   0  0  0  0  0  0  0  0  0  0  0  0
   56.4301   -3.9711  -10.6888 C   0  0  0  0  0  0  0  0  0  0  0  0
   56.5343   -3.4028  -12.0033 N   0  0  0  0  0  0  0  0  0  0  0  0
   57.4865   -4.5254  -10.0716 N   0  0  0  0  0  0  0  0  0  0  0  0
   57.3426   -5.0509   -8.8284 C   0  0  0  0  0  0  0  0  0  0  0  0
   58.4271   -5.6490   -8.1367 N   0  0  0  0  0  0  0  0  0  0  0  0
   56.1294   -5.0380   -8.1590 C   0  0  0  0  0  0  0  0  0  0  0  0
   55.9903   -5.5619   -6.9257 N   0  0  0  0  0  0  0  0  0  0  0  0
   56.9467   -3.9724  -12.7607 H   0  0  0  0  0  0  0  0  0  0  0  0
   56.2128   -2.4462  -12.2220 H   0  0  0  0  0  0  0  0  0  0  0  0
   59.2012   -5.1218   -7.6942 H   0  0  0  0  0  0  0  0  0  0  0  0
   58.4418   -6.6846   -8.0729 H   0  0  0  0  0  0  0  0  0  0  0  0
   54.7062   -6.1643   -4.8859 C   0  0  0  0  0  0  0  0  0  0  0  0
   55.9908   -4.4690   -3.5810 C   0  0  0  0  0  0  0  0  0  0  0  0
   55.7722   -5.8320   -4.0072 N   0  0  0  0  0  0  0  0  0  0  0  0
   56.6371   -6.8413   -3.5192 C   0  0  0  0  0  0  0  0  0  0  0  0
   57.9094   -7.0355   -4.0292 C   0  0  0  0  0  0  0  0  0  0  0  0
   58.7236   -8.0312   -3.5333 C   0  0  0  0  0  0  0  0  0  0  0  0
   58.3095   -8.8790   -2.5079 C   0  0  0  0  0  0  0  0  0  0  0  0
   59.3475  -10.1463   -1.8788 Cl  0  0  0  0  0  0  0  0  0  0  0  0
   57.0387   -8.6558   -2.0263 C   0  0  0  0  0  0  0  0  0  0  0  0
   56.2044   -7.6725   -2.4995 C   0  0  0  0  0  0  0  0  0  0  0  0
 18 19  1  0  0  0
 19 17  1  0  0  0
 17  1  1  0  0  0
  1  2  2  0  0  0
  2  3  1  0  0  0
  3  4  2  0  0  0
  4  5  1  0  0  0
  5  6  2  0  0  0
  6  7  1  0  0  0
  6  8  1  0  0  0
  8  9  2  0  0  0
  9 10  1  0  0  0
  9 11  1  0  0  0
 11 12  2  0  0  0
 19 20  1  0  0  0
 20 21  2  0  0  0
 21 22  1  0  0  0
 22 23  2  0  0  0
 23 24  1  0  0  0
 23 25  1  0  0  0
 25 26  2  0  0  0
 12  1  1  0  0  0
 26 20  1  0  0  0
 11  4  1  0  0  0
  7 13  1  0  0  0
  7 14  1  0  0  0
 10 15  1  0  0  0
 10 16  1  0  0  0
M  END
> <minimizedAffinity>
-6.80740

> <CNNscore>
0.3231521845

> <CNNaffinity>
5.6689443588

> <CNN_VS>
1.8319317102

> <CNNaffinity_variance>
0.2023166716

$$$$
[H]c1c([H])c(N(C([H])([H])[H])C([H])([H])c2nc3c(N([H])[H])nc(N([H])[H])nc3c([H])c2[H])c([H])c([H])c1Cl


 26 28  0  0  0  0  0  0  0  0999 V2000
   55.5925   -5.1716   -6.5083 C   0  0  0  0  0  0  0  0  0  0  0  0
   56.9202   -5.5069   -6.6660 C   0  0  0  0  0  0  0  0  0  0  0  0
   57.5717   -5.3364   -7.8872 C   0  0  0  0  0  0  0  0  0  0  0  0
   56.8931   -4.8220   -8.9761 C   0  0  0  0  0  0  0  0  0  0  0  0
   57.4657   -4.6336  -10.1738 N   0  0  0  0  0  0  0  0  0  0  0  0
   56.7900   -4.1268  -11.2313 C   0  0  0  0  0  0  0  0  0  0  0  0
   57.4712   -3.9539  -12.4834 N   0  0  0  0  0  0  0  0  0  0  0  0
   55.4964   -3.7994  -11.0783 N   0  0  0  0  0  0  0  0  0  0  0  0
   54.8920   -3.9798   -9.8763 C   0  0  0  0  0  0  0  0  0  0  0  0
   53.5294   -3.6472   -9.6644 N   0  0  0  0  0  0  0  0  0  0  0  0
   55.5672   -4.4973   -8.7826 C   0  0  0  0  0  0  0  0  0  0  0  0
   54.9642   -4.6736   -7.5909 N   0  0  0  0  0  0  0  0  0  0  0  0
   57.4299   -3.0324  -12.9496 H   0  0  0  0  0  0  0  0  0  0  0  0
   58.0016   -4.7150  -12.9369 H   0  0  0  0  0  0  0  0  0  0  0  0
   52.7295   -4.2039  -10.0156 H   0  0  0  0  0  0  0  0  0  0  0  0
   53.3252   -2.7871   -9.1209 H   0  0  0  0  0  0  0  0  0  0  0  0
   54.8941   -5.3463   -5.2003 C   0  0  0  0  0  0  0  0  0  0  0  0
   55.0824   -7.7421   -4.5280 C   0  0  0  0  0  0  0  0  0  0  0  0
   55.4526   -6.3546   -4.3695 N   0  0  0  0  0  0  0  0  0  0  0  0
   56.3998   -6.0158   -3.3729 C   0  0  0  0  0  0  0  0  0  0  0  0
   56.3066   -4.8523   -2.6288 C   0  0  0  0  0  0  0  0  0  0  0  0
   57.2494   -4.5514   -1.6691 C   0  0  0  0  0  0  0  0  0  0  0  0
   58.3277   -5.3940   -1.4062 C   0  0  0  0  0  0  0  0  0  0  0  0
   59.5271   -5.0085   -0.1845 Cl  0  0  0  0  0  0  0  0  0  0  0  0
   58.3871   -6.5412   -2.1659 C   0  0  0  0  0  0  0  0  0  0  0  0
   57.4635   -6.8683   -3.1285 C   0  0  0  0  0  0  0  0  0  0  0  0
 18 19  1  0  0  0
 19 17  1  0  0  0
 17  1  1  0  0  0
  1  2  2  0  0  0
  2  3  1  0  0  0
  3  4  2  0  0  0
  4  5  1  0  0  0
  5  6  2  0  0  0
  6  7  1  0  0  0
  6  8  1  0  0  0
  8  9  2  0  0  0
  9 10  1  0  0  0
  9 11  1  0  0  0
 11 12  2  0  0  0
 19 20  1  0  0  0
 20 21  2  0  0  0
 21 22  1  0  0  0
 22 23  2  0  0  0
 23 24  1  0  0  0
 23 25  1  0  0  0
 25 26  2  0  0  0
 12  1  1  0  0  0
 26 20  1  0  0  0
 11  4  1  0  0  0
  7 13  1  0  0  0
  7 14  1  0  0  0
 10 15  1  0  0  0
 10 16  1  0  0  0
M  END
> <minimizedAffinity>
-6.53288

> <CNNscore>
0.3027551472

> <CNNaffinity>
5.6095633507

> <CNN_VS>
1.6983242035

> <CNNaffinity_variance>
0.2212546766

$$$$
[H]c1c([H])c(N(C([H])([H])[H])C([H])([H])c2nc3c(N([H])[H])nc(N([H])[H])nc3c([H])c2[H])c([H])c([H])c1Cl


 26 28  0  0  0  0  0  0  0  0999 V2000
   55.7636   -4.6581   -7.2715 C   0  0  0  0  0  0  0  0  0  0  0  0
   54.8731   -3.9050   -8.0063 C   0  0  0  0  0  0  0  0  0  0  0  0
   55.0983   -3.6249   -9.3538 C   0  0  0  0  0  0  0  0  0  0  0  0
   56.2305   -4.1018   -9.9874 C   0  0  0  0  0  0  0  0  0  0  0  0
   56.5004   -3.8673  -11.2797 N   0  0  0  0  0  0  0  0  0  0  0  0
   57.6120   -4.3423  -11.8885 C   0  0  0  0  0  0  0  0  0  0  0  0
   57.8329   -4.0493  -13.2766 N   0  0  0  0  0  0  0  0  0  0  0  0
   58.4799   -5.0767  -11.1733 N   0  0  0  0  0  0  0  0  0  0  0  0
   58.2311   -5.3291   -9.8629 C   0  0  0  0  0  0  0  0  0  0  0  0
   59.1156   -6.1011   -9.0667 N   0  0  0  0  0  0  0  0  0  0  0  0
   57.0989   -4.8514   -9.2227 C   0  0  0  0  0  0  0  0  0  0  0  0
   56.8549   -5.1053   -7.9224 N   0  0  0  0  0  0  0  0  0  0  0  0
   58.0337   -4.8293  -13.9243 H   0  0  0  0  0  0  0  0  0  0  0  0
   57.7989   -3.0887  -13.6539 H   0  0  0  0  0  0  0  0  0  0  0  0
   60.0251   -5.7618   -8.7052 H   0  0  0  0  0  0  0  0  0  0  0  0
   58.8280   -7.0705   -8.8338 H   0  0  0  0  0  0  0  0  0  0  0  0
   55.5217   -4.9656   -5.8306 C   0  0  0  0  0  0  0  0  0  0  0  0
   54.9695   -7.3991   -5.8128 C   0  0  0  0  0  0  0  0  0  0  0  0
   54.5954   -6.0192   -5.6053 N   0  0  0  0  0  0  0  0  0  0  0  0
   53.2831   -5.7333   -5.1565 C   0  0  0  0  0  0  0  0  0  0  0  0
   52.3050   -5.2349   -5.9998 C   0  0  0  0  0  0  0  0  0  0  0  0
   51.0385   -4.9633   -5.5281 C   0  0  0  0  0  0  0  0  0  0  0  0
   50.6874   -5.1750   -4.1963 C   0  0  0  0  0  0  0  0  0  0  0  0
   49.0746   -4.8279   -3.5980 Cl  0  0  0  0  0  0  0  0  0  0  0  0
   51.6860   -5.6711   -3.3880 C   0  0  0  0  0  0  0  0  0  0  0  0
   52.9565   -5.9514   -3.8285 C   0  0  0  0  0  0  0  0  0  0  0  0
 18 19  1  0  0  0
 19 17  1  0  0  0
 17  1  1  0  0  0
  1  2  2  0  0  0
  2  3  1  0  0  0
  3  4  2  0  0  0
  4  5  1  0  0  0
  5  6  2  0  0  0
  6  7  1  0  0  0
  6  8  1  0  0  0
  8  9  2  0  0  0
  9 10  1  0  0  0
  9 11  1  0  0  0
 11 12  2  0  0  0
 19 20  1  0  0  0
 20 21  2  0  0  0
 21 22  1  0  0  0
 22 23  2  0  0  0
 23 24  1  0  0  0
 23 25  1  0  0  0
 25 26  2  0  0  0
 12  1  1  0  0  0
 26 20  1  0  0  0
 11  4  1  0  0  0
  7 13  1  0  0  0
  7 14  1  0  0  0
 10 15  1  0  0  0
 10 16  1  0  0  0
M  END
> <minimizedAffinity>
-8.66305

> <CNNscore>
0.2916297317

> <CNNaffinity>
5.7568330765

> <CNN_VS>
1.6788636446

> <CNNaffinity_variance>
0.1909792721

$$$$
[H]c1nc(N([H])c2c([H])c([H])c3c(c([H])nn3C([H])([H])c3c([H])c([H])c([H])c([H])c3[H])c2[H])c2c(O[C@@]([H])(C(=O)N(C([H])([H])[H])C([H])([H])[H])C([H])([H])[H])c([H])c([H])c([H])c2n1


 36 40  0  0  0  0  0  0  0  0999 V2000
   57.9489   -5.0950   -8.4334 C   0  0  0  0  0  0  0  0  0  0  0  0
   58.9917   -6.0120   -8.5210 C   0  0  0  0  0  0  0  0  0  0  0  0
   59.4243   -6.4440   -9.7453 C   0  0  0  0  0  0  0  0  0  0  0  0
   58.8329   -5.9754  -10.8865 C   0  0  0  0  0  0  0  0  0  0  0  0
   57.8011   -5.0700  -10.8382 C   0  0  0  0  0  0  0  0  0  0  0  0
   57.2531   -4.6216  -11.9962 N   0  0  0  0  0  0  0  0  0  0  0  0
   56.2549   -3.7275  -11.9274 C   0  0  0  0  0  0  0  0  0  0  0  0
   55.8129   -3.2922  -10.7589 N   0  0  0  0  0  0  0  0  0  0  0  0
   56.3200   -3.7033   -9.5443 C   0  0  0  0  0  0  0  0  0  0  0  0
   57.3463   -4.6196   -9.6063 C   0  0  0  0  0  0  0  0  0  0  0  0
   55.7149   -3.2393   -8.3727 N   0  0  0  0  0  0  0  0  0  0  0  0
   56.1172   -2.6474   -7.6715 H   0  0  0  0  0  0  0  0  0  0  0  0
   54.3641   -3.6479   -8.0575 C   0  0  0  0  0  0  0  0  0  0  0  0
   54.0629   -4.8520   -7.4991 C   0  0  0  0  0  0  0  0  0  0  0  0
   52.7427   -5.1996   -7.1732 C   0  0  0  0  0  0  0  0  0  0  0  0
   51.7037   -4.3210   -7.4140 C   0  0  0  0  0  0  0  0  0  0  0  0
   50.3757   -4.3818   -7.2090 N   0  0  0  0  0  0  0  0  0  0  0  0
   49.8705   -3.2416   -7.6322 N   0  0  0  0  0  0  0  0  0  0  0  0
   50.8182   -2.4343   -8.1080 C   0  0  0  0  0  0  0  0  0  0  0  0
   52.0235   -3.1082   -7.9800 C   0  0  0  0  0  0  0  0  0  0  0  0
   53.3161   -2.7636   -8.3002 C   0  0  0  0  0  0  0  0  0  0  0  0
   49.6287   -5.5085   -6.6284 C   0  0  0  0  0  0  0  0  0  0  0  0
   49.9819   -5.5694   -5.1977 C   0  0  0  0  0  0  0  0  0  0  0  0
   49.3523   -4.7493   -4.2955 C   0  0  0  0  0  0  0  0  0  0  0  0
   49.7160   -4.8309   -2.9432 C   0  0  0  0  0  0  0  0  0  0  0  0
   50.6855   -5.7147   -2.5205 C   0  0  0  0  0  0  0  0  0  0  0  0
   51.3129   -6.5341   -3.4294 C   0  0  0  0  0  0  0  0  0  0  0  0
   50.9539   -6.4521   -4.7574 C   0  0  0  0  0  0  0  0  0  0  0  0
   57.5122   -4.6545   -7.2242 O   0  0  0  0  0  0  0  0  0  0  0  0
   56.1192   -6.4930   -6.5414 C   0  0  0  0  0  0  0  0  0  0  0  0
   57.1737   -5.4516   -6.1344 C   0  0  0  0  0  0  0  0  0  0  0  0
   56.5747   -4.6034   -5.0394 C   0  0  0  0  0  0  0  0  0  0  0  0
   56.2437   -3.4400   -5.3412 O   0  0  0  0  0  0  0  0  0  0  0  0
   56.3999   -5.1126   -3.7307 N   0  0  0  0  0  0  0  0  0  0  0  0
   56.7967   -6.4611   -3.4057 C   0  0  0  0  0  0  0  0  0  0  0  0
   55.8195   -4.2676   -2.7230 C   0  0  0  0  0  0  0  0  0  0  0  0
 30 31  1  0  0  0
 31 29  1  0  0  0
 29  1  1  0  0  0
  1  2  2  0  0  0
  2  3  1  0  0  0
  3  4  2  0  0  0
  4  5  1  0  0  0
  5  6  2  0  0  0
  6  7  1  0  0  0
  7  8  2  0  0  0
  8  9  1  0  0  0
  9 11  1  0  0  0
 11 13  1  0  0  0
 13 14  2  0  0  0
 14 15  1  0  0  0
 15 16  2  0  0  0
 16 17  1  0  0  0
 17 22  1  0  0  0
 22 23  1  0  0  0
 23 24  2  0  0  0
 24 25  1  0  0  0
 25 26  2  0  0  0
 26 27  1  0  0  0
 27 28  2  0  0  0
 17 18  1  0  0  0
 18 19  2  0  0  0
 19 20  1  0  0  0
 20 21  2  0  0  0
  9 10  2  0  0  0
 31 32  1  0  0  0
 32 33  2  0  0  0
 32 34  1  0  0  0
 34 35  1  0  0  0
 34 36  1  0  0  0
 10  1  1  0  0  0
 10  5  1  0  0  0
 21 13  1  0  0  0
 20 16  1  0  0  0
 28 23  1  0  0  0
 11 12  1  0  0  0
M  END
> <minimizedAffinity>
-5.33920

> <CNNscore>
0.6374291182

> <CNNaffinity>
7.5324797630

> <CNN_VS>
4.8014221191

> <CNNaffinity_variance>
0.1180963740

$$$$
[H]c1nc(N([H])c2c([H])c([H])c3c(c([H])nn3C([H])([H])c3c([H])c([H])c([H])c([H])c3[H])c2[H])c2c(O[C@@]([H])(C(=O)N(C([H])([H])[H])C([H])([H])[H])C([H])([H])[H])c([H])c([H])c([H])c2n1


 36 40  0  0  0  0  0  0  0  0999 V2000
   53.1593   -5.3957   -6.7185 C   0  0  0  0  0  0  0  0  0  0  0  0
   52.3053   -6.0839   -5.8624 C   0  0  0  0  0  0  0  0  0  0  0  0
   51.0345   -5.6246   -5.6459 C   0  0  0  0  0  0  0  0  0  0  0  0
   50.6001   -4.4877   -6.2708 C   0  0  0  0  0  0  0  0  0  0  0  0
   51.4154   -3.7827   -7.1221 C   0  0  0  0  0  0  0  0  0  0  0  0
   50.9381   -2.6676   -7.7312 N   0  0  0  0  0  0  0  0  0  0  0  0
   51.7464   -2.0006   -8.5693 C   0  0  0  0  0  0  0  0  0  0  0  0
   52.9809   -2.4180   -8.7975 N   0  0  0  0  0  0  0  0  0  0  0  0
   53.5326   -3.5394   -8.2148 C   0  0  0  0  0  0  0  0  0  0  0  0
   52.7087   -4.2308   -7.3548 C   0  0  0  0  0  0  0  0  0  0  0  0
   54.8759   -3.8339   -8.4655 N   0  0  0  0  0  0  0  0  0  0  0  0
   55.5992   -4.0028   -7.7931 H   0  0  0  0  0  0  0  0  0  0  0  0
   55.3523   -3.8850   -9.8298 C   0  0  0  0  0  0  0  0  0  0  0  0
   54.5507   -3.6581  -10.9061 C   0  0  0  0  0  0  0  0  0  0  0  0
   55.0567   -3.6802  -12.2151 C   0  0  0  0  0  0  0  0  0  0  0  0
   56.3944   -3.9366  -12.4483 C   0  0  0  0  0  0  0  0  0  0  0  0
   57.1388   -4.0170  -13.5658 N   0  0  0  0  0  0  0  0  0  0  0  0
   58.3705   -4.2881  -13.1865 N   0  0  0  0  0  0  0  0  0  0  0  0
   58.4621   -4.3889  -11.8607 C   0  0  0  0  0  0  0  0  0  0  0  0
   57.1921   -4.1653  -11.3506 C   0  0  0  0  0  0  0  0  0  0  0  0
   56.7001   -4.1439  -10.0662 C   0  0  0  0  0  0  0  0  0  0  0  0
   56.6670   -3.8417  -14.9482 C   0  0  0  0  0  0  0  0  0  0  0  0
   57.8636   -3.6840  -15.7961 C   0  0  0  0  0  0  0  0  0  0  0  0
   58.0635   -4.5147  -16.8698 C   0  0  0  0  0  0  0  0  0  0  0  0
   59.2144   -4.3390  -17.6522 C   0  0  0  0  0  0  0  0  0  0  0  0
   60.1314   -3.3538  -17.3554 C   0  0  0  0  0  0  0  0  0  0  0  0
   59.9256   -2.5242  -16.2780 C   0  0  0  0  0  0  0  0  0  0  0  0
   58.7941   -2.6988  -15.5109 C   0  0  0  0  0  0  0  0  0  0  0  0
   54.4223   -5.8430   -6.9456 O   0  0  0  0  0  0  0  0  0  0  0  0
   56.8203   -5.9021   -6.7646 C   0  0  0  0  0  0  0  0  0  0  0  0
   55.4714   -5.8367   -6.0308 C   0  0  0  0  0  0  0  0  0  0  0  0
   55.3835   -7.0475   -5.1345 C   0  0  0  0  0  0  0  0  0  0  0  0
   55.2223   -8.1522   -5.6892 O   0  0  0  0  0  0  0  0  0  0  0  0
   55.4801   -6.9266   -3.7278 N   0  0  0  0  0  0  0  0  0  0  0  0
   55.6608   -5.6353   -3.1100 C   0  0  0  0  0  0  0  0  0  0  0  0
   55.3959   -8.1102   -2.9165 C   0  0  0  0  0  0  0  0  0  0  0  0
 30 31  1  0  0  0
 31 29  1  0  0  0
 29  1  1  0  0  0
  1  2  2  0  0  0
  2  3  1  0  0  0
  3  4  2  0  0  0
  4  5  1  0  0  0
  5  6  2  0  0  0
  6  7  1  0  0  0
  7  8  2  0  0  0
  8  9  1  0  0  0
  9 11  1  0  0  0
 11 13  1  0  0  0
 13 14  2  0  0  0
 14 15  1  0  0  0
 15 16  2  0  0  0
 16 17  1  0  0  0
 17 22  1  0  0  0
 22 23  1  0  0  0
 23 24  2  0  0  0
 24 25  1  0  0  0
 25 26  2  0  0  0
 26 27  1  0  0  0
 27 28  2  0  0  0
 17 18  1  0  0  0
 18 19  2  0  0  0
 19 20  1  0  0  0
 20 21  2  0  0  0
  9 10  2  0  0  0
 31 32  1  0  0  0
 32 33  2  0  0  0
 32 34  1  0  0  0
 34 35  1  0  0  0
 34 36  1  0  0  0
 10  1  1  0  0  0
 10  5  1  0  0  0
 21 13  1  0  0  0
 20 16  1  0  0  0
 28 23  1  0  0  0
 11 12  1  0  0  0
M  END
> <minimizedAffinity>
-7.52386

> <CNNscore>
0.5438781381

> <CNNaffinity>
7.1450080872

> <CNN_VS>
3.8860137463

> <CNNaffinity_variance>
0.1390928477

$$$$
[H]c1nc(N([H])c2c([H])c([H])c3c(c([H])nn3C([H])([H])c3c([H])c([H])c([H])c([H])c3[H])c2[H])c2c(O[C@@]([H])(C(=O)N(C([H])([H])[H])C([H])([H])[H])C([H])([H])[H])c([H])c([H])c([H])c2n1


 36 40  0  0  0  0  0  0  0  0999 V2000
   52.6703   -5.8528   -4.7873 C   0  0  0  0  0  0  0  0  0  0  0  0
   51.7236   -6.1744   -3.8198 C   0  0  0  0  0  0  0  0  0  0  0  0
   50.4567   -5.6639   -3.9032 C   0  0  0  0  0  0  0  0  0  0  0  0
   50.1174   -4.8361   -4.9383 C   0  0  0  0  0  0  0  0  0  0  0  0
   51.0258   -4.4971   -5.9111 C   0  0  0  0  0  0  0  0  0  0  0  0
   50.6415   -3.6836   -6.9275 N   0  0  0  0  0  0  0  0  0  0  0  0
   51.5404   -3.3749   -7.8747 C   0  0  0  0  0  0  0  0  0  0  0  0
   52.7738   -3.8507   -7.8207 N   0  0  0  0  0  0  0  0  0  0  0  0
   53.2341   -4.6799   -6.8198 C   0  0  0  0  0  0  0  0  0  0  0  0
   52.3168   -5.0032   -5.8447 C   0  0  0  0  0  0  0  0  0  0  0  0
   54.5820   -5.0501   -6.8218 N   0  0  0  0  0  0  0  0  0  0  0  0
   55.0940   -5.4938   -6.0836 H   0  0  0  0  0  0  0  0  0  0  0  0
   55.3996   -4.7602   -7.9787 C   0  0  0  0  0  0  0  0  0  0  0  0
   55.1528   -3.7204   -8.8216 C   0  0  0  0  0  0  0  0  0  0  0  0
   55.9900   -3.4478   -9.9146 C   0  0  0  0  0  0  0  0  0  0  0  0
   57.0967   -4.2358  -10.1673 C   0  0  0  0  0  0  0  0  0  0  0  0
   58.0519   -4.2113  -11.1140 N   0  0  0  0  0  0  0  0  0  0  0  0
   58.8678   -5.2136  -10.8605 N   0  0  0  0  0  0  0  0  0  0  0  0
   58.4831   -5.8956   -9.7820 C   0  0  0  0  0  0  0  0  0  0  0  0
   57.3326   -5.2839   -9.3074 C   0  0  0  0  0  0  0  0  0  0  0  0
   56.5148   -5.5540   -8.2348 C   0  0  0  0  0  0  0  0  0  0  0  0
   58.1618   -3.2523  -12.2242 C   0  0  0  0  0  0  0  0  0  0  0  0
   57.4180   -3.8228  -13.3630 C   0  0  0  0  0  0  0  0  0  0  0  0
   56.5111   -4.8322  -13.1594 C   0  0  0  0  0  0  0  0  0  0  0  0
   55.8246   -5.3541  -14.2657 C   0  0  0  0  0  0  0  0  0  0  0  0
   56.0505   -4.8683  -15.5356 C   0  0  0  0  0  0  0  0  0  0  0  0
   56.9606   -3.8565  -15.7334 C   0  0  0  0  0  0  0  0  0  0  0  0
   57.6338   -3.3454  -14.6450 C   0  0  0  0  0  0  0  0  0  0  0  0
   53.9309   -6.3560   -4.7187 O   0  0  0  0  0  0  0  0  0  0  0  0
   54.8627   -5.0776   -2.9066 C   0  0  0  0  0  0  0  0  0  0  0  0
   54.7131   -6.4550   -3.5716 C   0  0  0  0  0  0  0  0  0  0  0  0
   56.0971   -6.9387   -3.9294 C   0  0  0  0  0  0  0  0  0  0  0  0
   56.5082   -6.6798   -5.0775 O   0  0  0  0  0  0  0  0  0  0  0  0
   56.8869   -7.6539   -2.9982 N   0  0  0  0  0  0  0  0  0  0  0  0
   56.3854   -7.9457   -1.6772 C   0  0  0  0  0  0  0  0  0  0  0  0
   58.2015   -8.0890   -3.3842 C   0  0  0  0  0  0  0  0  0  0  0  0
 30 31  1  0  0  0
 31 29  1  0  0  0
 29  1  1  0  0  0
  1  2  2  0  0  0
  2  3  1  0  0  0
  3  4  2  0  0  0
  4  5  1  0  0  0
  5  6  2  0  0  0
  6  7  1  0  0  0
  7  8  2  0  0  0
  8  9  1  0  0  0
  9 11  1  0  0  0
 11 13  1  0  0  0
 13 14  2  0  0  0
 14 15  1  0  0  0
 15 16  2  0  0  0
 16 17  1  0  0  0
 17 22  1  0  0  0
 22 23  1  0  0  0
 23 24  2  0  0  0
 24 25  1  0  0  0
 25 26  2  0  0  0
 26 27  1  0  0  0
 27 28  2  0  0  0
 17 18  1  0  0  0
 18 19  2  0  0  0
 19 20  1  0  0  0
 20 21  2  0  0  0
  9 10  2  0  0  0
 31 32  1  0  0  0
 32 33  2  0  0  0
 32 34  1  0  0  0
 34 35  1  0  0  0
 34 36  1  0  0  0
 10  1  1  0  0  0
 10  5  1  0  0  0
 21 13  1  0  0  0
 20 16  1  0  0  0
 28 23  1  0  0  0
 11 12  1  0  0  0
M  END
> <minimizedAffinity>
-9.01363

> <CNNscore>
0.5186445713

> <CNNaffinity>
7.4017782211

> <CNN_VS>
3.8388919830

> <CNNaffinity_variance>
0.0466404967

$$$$
[H]c1nc(N([H])c2c([H])c([H])c3c(c([H])nn3C([H])([H])c3c([H])c([H])c([H])c([H])c3[H])c2[H])c2c(O[C@@]([H])(C(=O)N(C([H])([H])[H])C([H])([H])[H])C([H])([H])[H])c([H])c([H])c([H])c2n1


 36 40  0  0  0  0  0  0  0  0999 V2000
   58.3808   -5.1829  -10.0279 C   0  0  0  0  0  0  0  0  0  0  0  0
   58.8741   -4.9426  -11.3065 C   0  0  0  0  0  0  0  0  0  0  0  0
   58.1074   -4.2767  -12.2238 C   0  0  0  0  0  0  0  0  0  0  0  0
   56.8538   -3.8451  -11.8861 C   0  0  0  0  0  0  0  0  0  0  0  0
   56.3344   -4.0646  -10.6337 C   0  0  0  0  0  0  0  0  0  0  0  0
   55.0914   -3.6065  -10.3380 N   0  0  0  0  0  0  0  0  0  0  0  0
   54.6074   -3.8200   -9.1048 C   0  0  0  0  0  0  0  0  0  0  0  0
   55.3234   -4.4626   -8.1966 N   0  0  0  0  0  0  0  0  0  0  0  0
   56.5905   -4.9559   -8.4256 C   0  0  0  0  0  0  0  0  0  0  0  0
   57.0952   -4.7392   -9.6885 C   0  0  0  0  0  0  0  0  0  0  0  0
   57.2160   -5.6936   -7.4164 N   0  0  0  0  0  0  0  0  0  0  0  0
   58.1619   -6.0236   -7.3988 H   0  0  0  0  0  0  0  0  0  0  0  0
   56.4602   -6.0882   -6.2484 C   0  0  0  0  0  0  0  0  0  0  0  0
   57.0200   -6.7144   -5.1775 C   0  0  0  0  0  0  0  0  0  0  0  0
   56.2615   -7.0499   -4.0452 C   0  0  0  0  0  0  0  0  0  0  0  0
   54.9134   -6.7517   -3.9874 C   0  0  0  0  0  0  0  0  0  0  0  0
   53.9628   -6.9471   -3.0561 N   0  0  0  0  0  0  0  0  0  0  0  0
   52.8430   -6.4533   -3.5426 N   0  0  0  0  0  0  0  0  0  0  0  0
   53.0235   -5.9410   -4.7597 C   0  0  0  0  0  0  0  0  0  0  0  0
   54.3614   -6.1198   -5.0780 C   0  0  0  0  0  0  0  0  0  0  0  0
   55.1014   -5.7888   -6.1893 C   0  0  0  0  0  0  0  0  0  0  0  0
   54.1381   -7.5940   -1.7464 C   0  0  0  0  0  0  0  0  0  0  0  0
   52.8256   -8.1422   -1.3563 C   0  0  0  0  0  0  0  0  0  0  0  0
   52.4512   -9.3966   -1.7677 C   0  0  0  0  0  0  0  0  0  0  0  0
   51.1941   -9.8847   -1.3817 C   0  0  0  0  0  0  0  0  0  0  0  0
   50.3456   -9.1260   -0.6045 C   0  0  0  0  0  0  0  0  0  0  0  0
   50.7264   -7.8696   -0.1951 C   0  0  0  0  0  0  0  0  0  0  0  0
   51.9619   -7.3922   -0.5756 C   0  0  0  0  0  0  0  0  0  0  0  0
   59.1332   -5.8394   -9.1061 O   0  0  0  0  0  0  0  0  0  0  0  0
   60.1265   -7.8398   -9.9998 C   0  0  0  0  0  0  0  0  0  0  0  0
   60.3519   -6.4697   -9.3407 C   0  0  0  0  0  0  0  0  0  0  0  0
   61.0712   -6.7071   -8.0355 C   0  0  0  0  0  0  0  0  0  0  0  0
   60.3656   -6.9352   -7.0334 O   0  0  0  0  0  0  0  0  0  0  0  0
   62.4839   -6.6704   -7.9601 N   0  0  0  0  0  0  0  0  0  0  0  0
   63.2776   -6.3985   -9.1338 C   0  0  0  0  0  0  0  0  0  0  0  0
   63.1233   -6.9083   -6.6948 C   0  0  0  0  0  0  0  0  0  0  0  0
 30 31  1  0  0  0
 31 29  1  0  0  0
 29  1  1  0  0  0
  1  2  2  0  0  0
  2  3  1  0  0  0
  3  4  2  0  0  0
  4  5  1  0  0  0
  5  6  2  0  0  0
  6  7  1  0  0  0
  7  8  2  0  0  0
  8  9  1  0  0  0
  9 11  1  0  0  0
 11 13  1  0  0  0
 13 14  2  0  0  0
 14 15  1  0  0  0
 15 16  2  0  0  0
 16 17  1  0  0  0
 17 22  1  0  0  0
 22 23  1  0  0  0
 23 24  2  0  0  0
 24 25  1  0  0  0
 25 26  2  0  0  0
 26 27  1  0  0  0
 27 28  2  0  0  0
 17 18  1  0  0  0
 18 19  2  0  0  0
 19 20  1  0  0  0
 20 21  2  0  0  0
  9 10  2  0  0  0
 31 32  1  0  0  0
 32 33  2  0  0  0
 32 34  1  0  0  0
 34 35  1  0  0  0
 34 36  1  0  0  0
 10  1  1  0  0  0
 10  5  1  0  0  0
 21 13  1  0  0  0
 20 16  1  0  0  0
 28 23  1  0  0  0
 11 12  1  0  0  0
M  END
> <minimizedAffinity>
-7.24516

> <CNNscore>
0.3136471510

> <CNNaffinity>
6.5190491676

> <CNN_VS>
2.0446813107

> <CNNaffinity_variance>
0.1192307323

$$$$
[H]c1nc(N([H])c2c([H])c([H])c3c(c([H])nn3C([H])([H])c3c([H])c([H])c([H])c([H])c3[H])c2[H])c2c(O[C@@]([H])(C(=O)N(C([H])([H])[H])C([H])([H])[H])C([H])([H])[H])c([H])c([H])c([H])c2n1


 36 40  0  0  0  0  0  0  0  0999 V2000
   55.4333   -3.7660   -9.6296 C   0  0  0  0  0  0  0  0  0  0  0  0
   55.0841   -3.6403  -10.9705 C   0  0  0  0  0  0  0  0  0  0  0  0
   55.9163   -4.1219  -11.9442 C   0  0  0  0  0  0  0  0  0  0  0  0
   57.0940   -4.7283  -11.6020 C   0  0  0  0  0  0  0  0  0  0  0  0
   57.4712   -4.8696  -10.2889 C   0  0  0  0  0  0  0  0  0  0  0  0
   58.6419   -5.4903   -9.9948 N   0  0  0  0  0  0  0  0  0  0  0  0
   58.9858   -5.6298   -8.7053 C   0  0  0  0  0  0  0  0  0  0  0  0
   58.2036   -5.1729   -7.7410 N   0  0  0  0  0  0  0  0  0  0  0  0
   57.0031   -4.5325   -7.9645 C   0  0  0  0  0  0  0  0  0  0  0  0
   56.6418   -4.3872   -9.2854 C   0  0  0  0  0  0  0  0  0  0  0  0
   56.3038   -4.0165   -6.8696 N   0  0  0  0  0  0  0  0  0  0  0  0
   56.0692   -3.0587   -6.6919 H   0  0  0  0  0  0  0  0  0  0  0  0
   55.8666   -4.9077   -5.8181 C   0  0  0  0  0  0  0  0  0  0  0  0
   55.2605   -6.1020   -6.0602 C   0  0  0  0  0  0  0  0  0  0  0  0
   54.8824   -6.9579   -5.0140 C   0  0  0  0  0  0  0  0  0  0  0  0
   55.1165   -6.6071   -3.6981 C   0  0  0  0  0  0  0  0  0  0  0  0
   54.8706   -7.2127   -2.5225 N   0  0  0  0  0  0  0  0  0  0  0  0
   55.3144   -6.4094   -1.5779 N   0  0  0  0  0  0  0  0  0  0  0  0
   55.8425   -5.2981   -2.0904 C   0  0  0  0  0  0  0  0  0  0  0  0
   55.7289   -5.3963   -3.4690 C   0  0  0  0  0  0  0  0  0  0  0  0
   56.1014   -4.5550   -4.4915 C   0  0  0  0  0  0  0  0  0  0  0  0
   54.2243   -8.5199   -2.3277 C   0  0  0  0  0  0  0  0  0  0  0  0
   52.9124   -8.2643   -1.7039 C   0  0  0  0  0  0  0  0  0  0  0  0
   52.5205   -8.9811   -0.6014 C   0  0  0  0  0  0  0  0  0  0  0  0
   51.2645   -8.7147   -0.0364 C   0  0  0  0  0  0  0  0  0  0  0  0
   50.4343   -7.7535   -0.5717 C   0  0  0  0  0  0  0  0  0  0  0  0
   50.8326   -7.0382   -1.6766 C   0  0  0  0  0  0  0  0  0  0  0  0
   52.0670   -7.3017   -2.2300 C   0  0  0  0  0  0  0  0  0  0  0  0
   54.6142   -3.2959   -8.6523 O   0  0  0  0  0  0  0  0  0  0  0  0
   53.1208   -5.1429   -9.0329 C   0  0  0  0  0  0  0  0  0  0  0  0
   53.4794   -3.9319   -8.1571 C   0  0  0  0  0  0  0  0  0  0  0  0
   52.3030   -2.9873   -8.1855 C   0  0  0  0  0  0  0  0  0  0  0  0
   52.3245   -2.0817   -9.0419 O   0  0  0  0  0  0  0  0  0  0  0  0
   51.2272   -3.1290   -7.2770 N   0  0  0  0  0  0  0  0  0  0  0  0
   51.2293   -4.1825   -6.2912 C   0  0  0  0  0  0  0  0  0  0  0  0
   50.1263   -2.2074   -7.3471 C   0  0  0  0  0  0  0  0  0  0  0  0
 30 31  1  0  0  0
 31 29  1  0  0  0
 29  1  1  0  0  0
  1  2  2  0  0  0
  2  3  1  0  0  0
  3  4  2  0  0  0
  4  5  1  0  0  0
  5  6  2  0  0  0
  6  7  1  0  0  0
  7  8  2  0  0  0
  8  9  1  0  0  0
  9 11  1  0  0  0
 11 13  1  0  0  0
 13 14  2  0  0  0
 14 15  1  0  0  0
 15 16  2  0  0  0
 16 17  1  0  0  0
 17 22  1  0  0  0
 22 23  1  0  0  0
 23 24  2  0  0  0
 24 25  1  0  0  0
 25 26  2  0  0  0
 26 27  1  0  0  0
 27 28  2  0  0  0
 17 18  1  0  0  0
 18 19  2  0  0  0
 19 20  1  0  0  0
 20 21  2  0  0  0
  9 10  2  0  0  0
 31 32  1  0  0  0
 32 33  2  0  0  0
 32 34  1  0  0  0
 34 35  1  0  0  0
 34 36  1  0  0  0
 10  1  1  0  0  0
 10  5  1  0  0  0
 21 13  1  0  0  0
 20 16  1  0  0  0
 28 23  1  0  0  0
 11 12  1  0  0  0
M  END
> <minimizedAffinity>
-8.54189

> <CNNscore>
0.2630734146

> <CNNaffinity>
7.0430879593

> <CNN_VS>
1.8528492451

> <CNNaffinity_variance>
0.1804840863

$$$$
[H]c1nc(N([H])c2c([H])c([H])c3c(c([H])nn3C([H])([H])c3c([H])c([H])c([H])c([H])c3[H])c2[H])c2c(O[C@@]([H])(C(=O)N(C([H])([H])[H])C([H])([H])[H])C([H])([H])[H])c([H])c([H])c([H])c2n1


 36 40  0  0  0  0  0  0  0  0999 V2000
   50.8911   -4.2023   -6.6775 C   0  0  0  0  0  0  0  0  0  0  0  0
   49.7887   -3.3682   -6.5201 C   0  0  0  0  0  0  0  0  0  0  0  0
   49.7454   -2.1601   -7.1615 C   0  0  0  0  0  0  0  0  0  0  0  0
   50.7858   -1.7692   -7.9593 C   0  0  0  0  0  0  0  0  0  0  0  0
   51.8899   -2.5665   -8.1376 C   0  0  0  0  0  0  0  0  0  0  0  0
   52.8927   -2.1446   -8.9493 N   0  0  0  0  0  0  0  0  0  0  0  0
   53.9566   -2.9441   -9.1204 C   0  0  0  0  0  0  0  0  0  0  0  0
   54.0291   -4.1169   -8.5123 N   0  0  0  0  0  0  0  0  0  0  0  0
   53.0508   -4.6094   -7.6746 C   0  0  0  0  0  0  0  0  0  0  0  0
   51.9544   -3.7956   -7.4953 C   0  0  0  0  0  0  0  0  0  0  0  0
   53.2767   -5.8239   -7.0202 N   0  0  0  0  0  0  0  0  0  0  0  0
   52.7594   -6.6761   -7.1201 H   0  0  0  0  0  0  0  0  0  0  0  0
   54.3440   -5.9234   -6.0497 C   0  0  0  0  0  0  0  0  0  0  0  0
   55.5121   -6.5780   -6.2939 C   0  0  0  0  0  0  0  0  0  0  0  0
   56.5409   -6.6227   -5.3403 C   0  0  0  0  0  0  0  0  0  0  0  0
   56.3936   -5.9987   -4.1161 C   0  0  0  0  0  0  0  0  0  0  0  0
   57.1899   -5.8774   -3.0389 N   0  0  0  0  0  0  0  0  0  0  0  0
   56.5271   -5.1652   -2.1513 N   0  0  0  0  0  0  0  0  0  0  0  0
   55.3244   -4.8145   -2.6062 C   0  0  0  0  0  0  0  0  0  0  0  0
   55.2069   -5.3421   -3.8833 C   0  0  0  0  0  0  0  0  0  0  0  0
   54.1965   -5.2955   -4.8155 C   0  0  0  0  0  0  0  0  0  0  0  0
   58.5408   -6.4378   -2.8795 C   0  0  0  0  0  0  0  0  0  0  0  0
   58.4412   -7.5315   -1.8948 C   0  0  0  0  0  0  0  0  0  0  0  0
   57.2375   -8.1505   -1.6695 C   0  0  0  0  0  0  0  0  0  0  0  0
   57.1783   -9.1840   -0.7230 C   0  0  0  0  0  0  0  0  0  0  0  0
   58.3023   -9.5763   -0.0285 C   0  0  0  0  0  0  0  0  0  0  0  0
   59.5060   -8.9522   -0.2586 C   0  0  0  0  0  0  0  0  0  0  0  0
   59.5616   -7.9371   -1.1891 C   0  0  0  0  0  0  0  0  0  0  0  0
   50.9452   -5.4064   -6.0496 O   0  0  0  0  0  0  0  0  0  0  0  0
   50.3280   -4.4282   -3.9405 C   0  0  0  0  0  0  0  0  0  0  0  0
   50.4180   -5.7020   -4.7958 C   0  0  0  0  0  0  0  0  0  0  0  0
   51.3188   -6.6720   -4.0714 C   0  0  0  0  0  0  0  0  0  0  0  0
   52.1057   -7.3424   -4.7680 O   0  0  0  0  0  0  0  0  0  0  0  0
   51.2665   -6.8095   -2.6639 N   0  0  0  0  0  0  0  0  0  0  0  0
   50.3423   -6.0256   -1.8808 C   0  0  0  0  0  0  0  0  0  0  0  0
   52.1488   -7.7432   -2.0190 C   0  0  0  0  0  0  0  0  0  0  0  0
 30 31  1  0  0  0
 31 29  1  0  0  0
 29  1  1  0  0  0
  1  2  2  0  0  0
  2  3  1  0  0  0
  3  4  2  0  0  0
  4  5  1  0  0  0
  5  6  2  0  0  0
  6  7  1  0  0  0
  7  8  2  0  0  0
  8  9  1  0  0  0
  9 11  1  0  0  0
 11 13  1  0  0  0
 13 14  2  0  0  0
 14 15  1  0  0  0
 15 16  2  0  0  0
 16 17  1  0  0  0
 17 22  1  0  0  0
 22 23  1  0  0  0
 23 24  2  0  0  0
 24 25  1  0  0  0
 25 26  2  0  0  0
 26 27  1  0  0  0
 27 28  2  0  0  0
 17 18  1  0  0  0
 18 19  2  0  0  0
 19 20  1  0  0  0
 20 21  2  0  0  0
  9 10  2  0  0  0
 31 32  1  0  0  0
 32 33  2  0  0  0
 32 34  1  0  0  0
 34 35  1  0  0  0
 34 36  1  0  0  0
 10  1  1  0  0  0
 10  5  1  0  0  0
 21 13  1  0  0  0
 20 16  1  0  0  0
 28 23  1  0  0  0
 11 12  1  0  0  0
M  END
> <minimizedAffinity>
-7.43224

> <CNNscore>
0.2497495264

> <CNNaffinity>
7.0295667648

> <CNN_VS>
1.7556309700

> <CNNaffinity_variance>
0.0383680016

$$$$
[H]c1nc(N([H])c2c([H])c([H])c3c(c([H])nn3C([H])([H])c3c([H])c([H])c([H])c([H])c3[H])c2[H])c2c(O[C@@]([H])(C(=O)N(C([H])([H])[H])C([H])([H])[H])C([H])([H])[H])c([H])c([H])c([H])c2n1


 36 40  0  0  0  0  0  0  0  0999 V2000
   55.4692   -4.3839  -10.1156 C   0  0  0  0  0  0  0  0  0  0  0  0
   55.3824   -3.9533  -11.4357 C   0  0  0  0  0  0  0  0  0  0  0  0
   56.5026   -3.9181  -12.2210 C   0  0  0  0  0  0  0  0  0  0  0  0
   57.7109   -4.3066  -11.7102 C   0  0  0  0  0  0  0  0  0  0  0  0
   57.8341   -4.7372  -10.4118 C   0  0  0  0  0  0  0  0  0  0  0  0
   59.0502   -5.1263   -9.9512 N   0  0  0  0  0  0  0  0  0  0  0  0
   59.1468   -5.5558   -8.6837 C   0  0  0  0  0  0  0  0  0  0  0  0
   58.0825   -5.5993   -7.8989 N   0  0  0  0  0  0  0  0  0  0  0  0
   56.8182   -5.2198   -8.2974 C   0  0  0  0  0  0  0  0  0  0  0  0
   56.7103   -4.7795   -9.5978 C   0  0  0  0  0  0  0  0  0  0  0  0
   55.7866   -5.2276   -7.3542 N   0  0  0  0  0  0  0  0  0  0  0  0
   54.8123   -5.0572   -7.5142 H   0  0  0  0  0  0  0  0  0  0  0  0
   56.0944   -5.4712   -5.9625 C   0  0  0  0  0  0  0  0  0  0  0  0
   55.5303   -4.7686   -4.9424 C   0  0  0  0  0  0  0  0  0  0  0  0
   55.8261   -5.0576   -3.6012 C   0  0  0  0  0  0  0  0  0  0  0  0
   56.7070   -6.0719   -3.2775 C   0  0  0  0  0  0  0  0  0  0  0  0
   57.1654   -6.5606   -2.1112 N   0  0  0  0  0  0  0  0  0  0  0  0
   57.9936   -7.5413   -2.4062 N   0  0  0  0  0  0  0  0  0  0  0  0
   58.0960   -7.7142   -3.7238 C   0  0  0  0  0  0  0  0  0  0  0  0
   57.2703   -6.7726   -4.3193 C   0  0  0  0  0  0  0  0  0  0  0  0
   56.9825   -6.4927   -5.6350 C   0  0  0  0  0  0  0  0  0  0  0  0
   56.8141   -6.0871   -0.7633 C   0  0  0  0  0  0  0  0  0  0  0  0
   55.4257   -6.5125   -0.5044 C   0  0  0  0  0  0  0  0  0  0  0  0
   55.1326   -7.8408   -0.3245 C   0  0  0  0  0  0  0  0  0  0  0  0
   53.8009   -8.2102   -0.0844 C   0  0  0  0  0  0  0  0  0  0  0  0
   52.8004   -7.2639   -0.0285 C   0  0  0  0  0  0  0  0  0  0  0  0
   53.1003   -5.9340   -0.2095 C   0  0  0  0  0  0  0  0  0  0  0  0
   54.4094   -5.5736   -0.4453 C   0  0  0  0  0  0  0  0  0  0  0  0
   54.3639   -4.4276   -9.3260 O   0  0  0  0  0  0  0  0  0  0  0  0
   54.2909   -2.1255   -8.6320 C   0  0  0  0  0  0  0  0  0  0  0  0
   53.4986   -3.3685   -9.0672 C   0  0  0  0  0  0  0  0  0  0  0  0
   52.5635   -3.7284   -7.9388 C   0  0  0  0  0  0  0  0  0  0  0  0
   52.8188   -4.7691   -7.3019 O   0  0  0  0  0  0  0  0  0  0  0  0
   51.4482   -2.9161   -7.6239 N   0  0  0  0  0  0  0  0  0  0  0  0
   51.1714   -1.7192   -8.3805 C   0  0  0  0  0  0  0  0  0  0  0  0
   50.5895   -3.2981   -6.5363 C   0  0  0  0  0  0  0  0  0  0  0  0
 30 31  1  0  0  0
 31 29  1  0  0  0
 29  1  1  0  0  0
  1  2  2  0  0  0
  2  3  1  0  0  0
  3  4  2  0  0  0
  4  5  1  0  0  0
  5  6  2  0  0  0
  6  7  1  0  0  0
  7  8  2  0  0  0
  8  9  1  0  0  0
  9 11  1  0  0  0
 11 13  1  0  0  0
 13 14  2  0  0  0
 14 15  1  0  0  0
 15 16  2  0  0  0
 16 17  1  0  0  0
 17 22  1  0  0  0
 22 23  1  0  0  0
 23 24  2  0  0  0
 24 25  1  0  0  0
 25 26  2  0  0  0
 26 27  1  0  0  0
 27 28  2  0  0  0
 17 18  1  0  0  0
 18 19  2  0  0  0
 19 20  1  0  0  0
 20 21  2  0  0  0
  9 10  2  0  0  0
 31 32  1  0  0  0
 32 33  2  0  0  0
 32 34  1  0  0  0
 34 35  1  0  0  0
 34 36  1  0  0  0
 10  1  1  0  0  0
 10  5  1  0  0  0
 21 13  1  0  0  0
 20 16  1  0  0  0
 28 23  1  0  0  0
 11 12  1  0  0  0
M  END
> <minimizedAffinity>
-7.68331

> <CNNscore>
0.2103277147

> <CNNaffinity>
6.6981339455

> <CNN_VS>
1.4088032246

> <CNNaffinity_variance>
0.1634364873

$$$$
[H]c1nc(N([H])c2c([H])c([H])c3c(c([H])nn3C([H])([H])c3c([H])c([H])c([H])c([H])c3[H])c2[H])c2c(O[C@@]([H])(C(=O)N(C([H])([H])[H])C([H])([H])[H])C([H])([H])[H])c([H])c([H])c([H])c2n1


 36 40  0  0  0  0  0  0  0  0999 V2000
   54.9211   -4.0825   -9.1662 C   0  0  0  0  0  0  0  0  0  0  0  0
   54.6265   -3.7993  -10.4962 C   0  0  0  0  0  0  0  0  0  0  0  0
   55.5715   -3.9987  -11.4657 C   0  0  0  0  0  0  0  0  0  0  0  0
   56.8084   -4.4773  -11.1300 C   0  0  0  0  0  0  0  0  0  0  0  0
   57.1344   -4.7675   -9.8277 C   0  0  0  0  0  0  0  0  0  0  0  0
   58.3692   -5.2534   -9.5421 N   0  0  0  0  0  0  0  0  0  0  0  0
   58.6633   -5.5429   -8.2653 C   0  0  0  0  0  0  0  0  0  0  0  0
   57.7719   -5.3589   -7.3050 N   0  0  0  0  0  0  0  0  0  0  0  0
   56.5011   -4.8691   -7.5203 C   0  0  0  0  0  0  0  0  0  0  0  0
   56.1906   -4.5714   -8.8285 C   0  0  0  0  0  0  0  0  0  0  0  0
   55.6758   -4.6360   -6.4163 N   0  0  0  0  0  0  0  0  0  0  0  0
   54.9243   -3.9772   -6.3447 H   0  0  0  0  0  0  0  0  0  0  0  0
   55.8970   -5.3732   -5.1922 C   0  0  0  0  0  0  0  0  0  0  0  0
   55.9855   -6.7306   -5.1475 C   0  0  0  0  0  0  0  0  0  0  0  0
   56.2374   -7.4100   -3.9455 C   0  0  0  0  0  0  0  0  0  0  0  0
   56.4025   -6.7125   -2.7640 C   0  0  0  0  0  0  0  0  0  0  0  0
   56.6493   -7.0877   -1.4961 N   0  0  0  0  0  0  0  0  0  0  0  0
   56.7105   -5.9866   -0.7762 N   0  0  0  0  0  0  0  0  0  0  0  0
   56.5127   -4.9020   -1.5250 C   0  0  0  0  0  0  0  0  0  0  0  0
   56.3091   -5.3410   -2.8246 C   0  0  0  0  0  0  0  0  0  0  0  0
   56.0630   -4.6714   -4.0007 C   0  0  0  0  0  0  0  0  0  0  0  0
   56.8137   -8.4648   -1.0053 C   0  0  0  0  0  0  0  0  0  0  0  0
   58.2479   -8.7926   -1.1109 C   0  0  0  0  0  0  0  0  0  0  0  0
   58.7018   -9.5843   -2.1356 C   0  0  0  0  0  0  0  0  0  0  0  0
   60.0715   -9.8792   -2.2030 C   0  0  0  0  0  0  0  0  0  0  0  0
   60.9510   -9.3875   -1.2626 C   0  0  0  0  0  0  0  0  0  0  0  0
   60.4902   -8.5945   -0.2379 C   0  0  0  0  0  0  0  0  0  0  0  0
   59.1441   -8.3061   -0.1738 C   0  0  0  0  0  0  0  0  0  0  0  0
   53.9906   -3.8930   -8.1940 O   0  0  0  0  0  0  0  0  0  0  0  0
   52.2304   -2.3213   -8.6610 C   0  0  0  0  0  0  0  0  0  0  0  0
   52.6161   -3.7832   -8.3845 C   0  0  0  0  0  0  0  0  0  0  0  0
   51.8848   -4.2173   -7.1380 C   0  0  0  0  0  0  0  0  0  0  0  0
   51.1924   -3.3573   -6.5592 O   0  0  0  0  0  0  0  0  0  0  0  0
   51.9856   -5.5431   -6.6534 N   0  0  0  0  0  0  0  0  0  0  0  0
   52.7986   -6.5182   -7.3388 C   0  0  0  0  0  0  0  0  0  0  0  0
   51.2655   -5.9100   -5.4646 C   0  0  0  0  0  0  0  0  0  0  0  0
 30 31  1  0  0  0
 31 29  1  0  0  0
 29  1  1  0  0  0
  1  2  2  0  0  0
  2  3  1  0  0  0
  3  4  2  0  0  0
  4  5  1  0  0  0
  5  6  2  0  0  0
  6  7  1  0  0  0
  7  8  2  0  0  0
  8  9  1  0  0  0
  9 11  1  0  0  0
 11 13  1  0  0  0
 13 14  2  0  0  0
 14 15  1  0  0  0
 15 16  2  0  0  0
 16 17  1  0  0  0
 17 22  1  0  0  0
 22 23  1  0  0  0
 23 24  2  0  0  0
 24 25  1  0  0  0
 25 26  2  0  0  0
 26 27  1  0  0  0
 27 28  2  0  0  0
 17 18  1  0  0  0
 18 19  2  0  0  0
 19 20  1  0  0  0
 20 21  2  0  0  0
  9 10  2  0  0  0
 31 32  1  0  0  0
 32 33  2  0  0  0
 32 34  1  0  0  0
 34 35  1  0  0  0
 34 36  1  0  0  0
 10  1  1  0  0  0
 10  5  1  0  0  0
 21 13  1  0  0  0
 20 16  1  0  0  0
 28 23  1  0  0  0
 11 12  1  0  0  0
M  END
> <minimizedAffinity>
-8.09600

> <CNNscore>
0.2047468424

> <CNNaffinity>
6.4418768883

> <CNN_VS>
1.3189539909

> <CNNaffinity_variance>
0.3865564167

$$$$
[H]c1nc(N([H])c2c([H])c([H])c3c(c([H])nn3C([H])([H])c3c([H])c([H])c([H])c([H])c3[H])c2[H])c2c(O[C@@]([H])(C(=O)N(C([H])([H])[H])C([H])([H])[H])C([H])([H])[H])c([H])c([H])c([H])c2n1


 36 40  0  0  0  0  0  0  0  0999 V2000
   58.2258   -4.9790  -10.2558 C   0  0  0  0  0  0  0  0  0  0  0  0
   58.6456   -4.7350  -11.5597 C   0  0  0  0  0  0  0  0  0  0  0  0
   57.7872   -4.1676  -12.4620 C   0  0  0  0  0  0  0  0  0  0  0  0
   56.5141   -3.8385  -12.0844 C   0  0  0  0  0  0  0  0  0  0  0  0
   56.0654   -4.0650  -10.8062 C   0  0  0  0  0  0  0  0  0  0  0  0
   54.7987   -3.7100  -10.4717 N   0  0  0  0  0  0  0  0  0  0  0  0
   54.3841   -3.9279   -9.2143 C   0  0  0  0  0  0  0  0  0  0  0  0
   55.1894   -4.4768   -8.3196 N   0  0  0  0  0  0  0  0  0  0  0  0
   56.4858   -4.8628   -8.5875 C   0  0  0  0  0  0  0  0  0  0  0  0
   56.9197   -4.6407   -9.8755 C   0  0  0  0  0  0  0  0  0  0  0  0
   57.2136   -5.5113   -7.5856 N   0  0  0  0  0  0  0  0  0  0  0  0
   58.1906   -5.7334   -7.5879 H   0  0  0  0  0  0  0  0  0  0  0  0
   56.5345   -5.9708   -6.3945 C   0  0  0  0  0  0  0  0  0  0  0  0
   57.1674   -6.6286   -5.3850 C   0  0  0  0  0  0  0  0  0  0  0  0
   56.4824   -7.0276   -4.2268 C   0  0  0  0  0  0  0  0  0  0  0  0
   55.1343   -6.7618   -4.0796 C   0  0  0  0  0  0  0  0  0  0  0  0
   54.2431   -7.0167   -3.1048 N   0  0  0  0  0  0  0  0  0  0  0  0
   53.0877   -6.5277   -3.5052 N   0  0  0  0  0  0  0  0  0  0  0  0
   53.1874   -5.9613   -4.7075 C   0  0  0  0  0  0  0  0  0  0  0  0
   54.5079   -6.0972   -5.1089 C   0  0  0  0  0  0  0  0  0  0  0  0
   55.1758   -5.7040   -6.2453 C   0  0  0  0  0  0  0  0  0  0  0  0
   54.5065   -7.7136   -1.8362 C   0  0  0  0  0  0  0  0  0  0  0  0
   55.6594   -7.0429   -1.2063 C   0  0  0  0  0  0  0  0  0  0  0  0
   55.6052   -5.7027   -0.9171 C   0  0  0  0  0  0  0  0  0  0  0  0
   56.7214   -5.0964   -0.3220 C   0  0  0  0  0  0  0  0  0  0  0  0
   57.8542   -5.8253   -0.0300 C   0  0  0  0  0  0  0  0  0  0  0  0
   57.9025   -7.1683   -0.3220 C   0  0  0  0  0  0  0  0  0  0  0  0
   56.8046   -7.7616   -0.9067 C   0  0  0  0  0  0  0  0  0  0  0  0
   59.0692   -5.5381   -9.3487 O   0  0  0  0  0  0  0  0  0  0  0  0
   59.8488   -7.6483  -10.2007 C   0  0  0  0  0  0  0  0  0  0  0  0
   60.2193   -6.2667   -9.6384 C   0  0  0  0  0  0  0  0  0  0  0  0
   61.0213   -6.4894   -8.3797 C   0  0  0  0  0  0  0  0  0  0  0  0
   60.3839   -6.5988   -7.3140 O   0  0  0  0  0  0  0  0  0  0  0  0
   62.4338   -6.5690   -8.4152 N   0  0  0  0  0  0  0  0  0  0  0  0
   63.1483   -6.4334   -9.6613 C   0  0  0  0  0  0  0  0  0  0  0  0
   63.1532   -6.7878   -7.1901 C   0  0  0  0  0  0  0  0  0  0  0  0
 30 31  1  0  0  0
 31 29  1  0  0  0
 29  1  1  0  0  0
  1  2  2  0  0  0
  2  3  1  0  0  0
  3  4  2  0  0  0
  4  5  1  0  0  0
  5  6  2  0  0  0
  6  7  1  0  0  0
  7  8  2  0  0  0
  8  9  1  0  0  0
  9 11  1  0  0  0
 11 13  1  0  0  0
 13 14  2  0  0  0
 14 15  1  0  0  0
 15 16  2  0  0  0
 16 17  1  0  0  0
 17 22  1  0  0  0
 22 23  1  0  0  0
 23 24  2  0  0  0
 24 25  1  0  0  0
 25 26  2  0  0  0
 26 27  1  0  0  0
 27 28  2  0  0  0
 17 18  1  0  0  0
 18 19  2  0  0  0
 19 20  1  0  0  0
 20 21  2  0  0  0
  9 10  2  0  0  0
 31 32  1  0  0  0
 32 33  2  0  0  0
 32 34  1  0  0  0
 34 35  1  0  0  0
 34 36  1  0  0  0
 10  1  1  0  0  0
 10  5  1  0  0  0
 21 13  1  0  0  0
 20 16  1  0  0  0
 28 23  1  0  0  0
 11 12  1  0  0  0
M  END
> <minimizedAffinity>
-6.74748

> <CNNscore>
0.1932637841

> <CNNaffinity>
6.5685334206

> <CNN_VS>
1.2694596052

> <CNNaffinity_variance>
0.1823225319

$$$$
[H]OC(=O)[C@@]([H])(OC([H])([H])c1c([H])c([H])c(-c2c([H])c([H])c([H])c([H])c2[H])c([H])c1[H])[C@@]([H])(C(=O)O[H])N([H])[H]


 27 28  0  0  0  0  0  0  0  0999 V2000
   51.1180   -4.2546   -7.4386 O   0  0  0  0  0  0  0  0  0  0  0  0
   50.7545   -4.1817   -6.0838 C   0  0  0  0  0  0  0  0  0  0  0  0
   49.1405   -2.6407   -6.9193 N   0  0  0  0  0  0  0  0  0  0  0  0
   49.3003   -3.7767   -5.9649 C   0  0  0  0  0  0  0  0  0  0  0  0
   49.2464   -2.9906   -7.8923 H   0  0  0  0  0  0  0  0  0  0  0  0
   49.8329   -1.9132   -6.7104 H   0  0  0  0  0  0  0  0  0  0  0  0
   48.8949   -3.3128   -4.6419 C   0  0  0  0  0  0  0  0  0  0  0  0
   48.8487   -4.1123   -3.5192 O   0  0  0  0  0  0  0  0  0  0  0  0
   48.5549   -2.1037   -4.4838 O   0  0  0  0  0  0  0  0  0  0  0  0
   48.1316   -4.8229   -3.3904 H   0  0  0  0  0  0  0  0  0  0  0  0
   51.1369   -5.4275   -5.4516 C   0  0  0  0  0  0  0  0  0  0  0  0
   51.6657   -5.4173   -4.1449 O   0  0  0  0  0  0  0  0  0  0  0  0
   51.0464   -6.5655   -5.9585 O   0  0  0  0  0  0  0  0  0  0  0  0
   51.0484   -5.5794   -3.3424 H   0  0  0  0  0  0  0  0  0  0  0  0
   51.7815   -3.1291   -7.8742 C   0  0  0  0  0  0  0  0  0  0  0  0
   53.1549   -3.5665   -8.2867 C   0  0  0  0  0  0  0  0  0  0  0  0
   53.6662   -3.2799   -9.5218 C   0  0  0  0  0  0  0  0  0  0  0  0
   54.9391   -3.7180   -9.8266 C   0  0  0  0  0  0  0  0  0  0  0  0
   55.7159   -4.4369   -8.9270 C   0  0  0  0  0  0  0  0  0  0  0  0
   55.1800   -4.7120   -7.6933 C   0  0  0  0  0  0  0  0  0  0  0  0
   53.9197   -4.2847   -7.3758 C   0  0  0  0  0  0  0  0  0  0  0  0
   57.0545   -4.8687   -9.3186 C   0  0  0  0  0  0  0  0  0  0  0  0
   57.9352   -5.3172   -8.3636 C   0  0  0  0  0  0  0  0  0  0  0  0
   59.1997   -5.7284   -8.7111 C   0  0  0  0  0  0  0  0  0  0  0  0
   59.5928   -5.6911  -10.0367 C   0  0  0  0  0  0  0  0  0  0  0  0
   58.7301   -5.2483  -10.9967 C   0  0  0  0  0  0  0  0  0  0  0  0
   57.4706   -4.8399  -10.6429 C   0  0  0  0  0  0  0  0  0  0  0  0
  3  4  1  0  0  0
  4  2  1  0  0  0
  2  1  1  0  0  0
  1 15  1  0  0  0
 15 16  1  0  0  0
 16 17  2  0  0  0
 17 18  1  0  0  0
 18 19  2  0  0  0
 19 20  1  0  0  0
 20 21  2  0  0  0
 19 22  1  0  0  0
 22 23  2  0  0  0
 23 24  1  0  0  0
 24 25  2  0  0  0
 25 26  1  0  0  0
 26 27  2  0  0  0
  2 11  1  0  0  0
 11 12  1  0  0  0
 11 13  2  0  0  0
  4  7  1  0  0  0
  7  8  1  0  0  0
  7  9  2  0  0  0
 21 16  1  0  0  0
 27 22  1  0  0  0
  3  5  1  0  0  0
  3  6  1  0  0  0
 12 14  1  0  0  0
  8 10  1  0  0  0
M  END
> <minimizedAffinity>
-7.76402

> <CNNscore>
0.4392848611

> <CNNaffinity>
5.2099828720

> <CNN_VS>
2.2886664867

> <CNNaffinity_variance>
0.1118512973

$$$$
[H]OC(=O)[C@@]([H])(OC([H])([H])c1c([H])c([H])c(-c2c([H])c([H])c([H])c([H])c2[H])c([H])c1[H])[C@@]([H])(C(=O)O[H])N([H])[H]


 27 28  0  0  0  0  0  0  0  0999 V2000
   55.3486   -3.3980   -9.3763 O   0  0  0  0  0  0  0  0  0  0  0  0
   56.4016   -4.3252   -9.3098 C   0  0  0  0  0  0  0  0  0  0  0  0
   56.8182   -3.0671  -11.2901 N   0  0  0  0  0  0  0  0  0  0  0  0
   57.4970   -3.9261  -10.2762 C   0  0  0  0  0  0  0  0  0  0  0  0
   56.5146   -2.1797  -10.8421 H   0  0  0  0  0  0  0  0  0  0  0  0
   56.0198   -3.5708  -11.6917 H   0  0  0  0  0  0  0  0  0  0  0  0
   58.1332   -5.0351  -10.9800 C   0  0  0  0  0  0  0  0  0  0  0  0
   58.6732   -6.1416  -10.3587 O   0  0  0  0  0  0  0  0  0  0  0  0
   58.2126   -5.0065  -12.2432 O   0  0  0  0  0  0  0  0  0  0  0  0
   59.5428   -6.0955   -9.8320 H   0  0  0  0  0  0  0  0  0  0  0  0
   56.7813   -4.4701   -7.9195 C   0  0  0  0  0  0  0  0  0  0  0  0
   57.6105   -5.5404   -7.5270 O   0  0  0  0  0  0  0  0  0  0  0  0
   56.4403   -3.7166   -6.9835 O   0  0  0  0  0  0  0  0  0  0  0  0
   58.6232   -5.4004   -7.4486 H   0  0  0  0  0  0  0  0  0  0  0  0
   54.2006   -3.9326   -9.9174 C   0  0  0  0  0  0  0  0  0  0  0  0
   53.1417   -3.8491   -8.8594 C   0  0  0  0  0  0  0  0  0  0  0  0
   52.3036   -2.7739   -8.7563 C   0  0  0  0  0  0  0  0  0  0  0  0
   51.3542   -2.7713   -7.7544 C   0  0  0  0  0  0  0  0  0  0  0  0
   51.2205   -3.8177   -6.8509 C   0  0  0  0  0  0  0  0  0  0  0  0
   52.0738   -4.8860   -6.9753 C   0  0  0  0  0  0  0  0  0  0  0  0
   53.0203   -4.9037   -7.9631 C   0  0  0  0  0  0  0  0  0  0  0  0
   50.1932   -3.7464   -5.8158 C   0  0  0  0  0  0  0  0  0  0  0  0
   50.1864   -4.6658   -4.7943 C   0  0  0  0  0  0  0  0  0  0  0  0
   49.2285   -4.6161   -3.8102 C   0  0  0  0  0  0  0  0  0  0  0  0
   48.2589   -3.6304   -3.8461 C   0  0  0  0  0  0  0  0  0  0  0  0
   48.2519   -2.7103   -4.8536 C   0  0  0  0  0  0  0  0  0  0  0  0
   49.2103   -2.7658   -5.8317 C   0  0  0  0  0  0  0  0  0  0  0  0
  3  4  1  0  0  0
  4  2  1  0  0  0
  2  1  1  0  0  0
  1 15  1  0  0  0
 15 16  1  0  0  0
 16 17  2  0  0  0
 17 18  1  0  0  0
 18 19  2  0  0  0
 19 20  1  0  0  0
 20 21  2  0  0  0
 19 22  1  0  0  0
 22 23  2  0  0  0
 23 24  1  0  0  0
 24 25  2  0  0  0
 25 26  1  0  0  0
 26 27  2  0  0  0
  2 11  1  0  0  0
 11 12  1  0  0  0
 11 13  2  0  0  0
  4  7  1  0  0  0
  7  8  1  0  0  0
  7  9  2  0  0  0
 21 16  1  0  0  0
 27 22  1  0  0  0
  3  5  1  0  0  0
  3  6  1  0  0  0
 12 14  1  0  0  0
  8 10  1  0  0  0
M  END
> <minimizedAffinity>
-9.32654

> <CNNscore>
0.4304801822

> <CNNaffinity>
5.2367334366

> <CNN_VS>
2.2543098927

> <CNNaffinity_variance>
0.1389861107

$$$$
[H]OC(=O)[C@@]([H])(OC([H])([H])c1c([H])c([H])c(-c2c([H])c([H])c([H])c([H])c2[H])c([H])c1[H])[C@@]([H])(C(=O)O[H])N([H])[H]


 27 28  0  0  0  0  0  0  0  0999 V2000
   56.5762   -3.7692  -11.5680 O   0  0  0  0  0  0  0  0  0  0  0  0
   57.3070   -4.3037  -12.6419 C   0  0  0  0  0  0  0  0  0  0  0  0
   55.5999   -2.9201  -13.5636 N   0  0  0  0  0  0  0  0  0  0  0  0
   56.7900   -3.7348  -13.9466 C   0  0  0  0  0  0  0  0  0  0  0  0
   55.9099   -2.0957  -13.0116 H   0  0  0  0  0  0  0  0  0  0  0  0
   54.9428   -3.4979  -13.0282 H   0  0  0  0  0  0  0  0  0  0  0  0
   56.3589   -4.7280  -14.9251 C   0  0  0  0  0  0  0  0  0  0  0  0
   56.0818   -4.4469  -16.2465 O   0  0  0  0  0  0  0  0  0  0  0  0
   56.2180   -5.9340  -14.5668 O   0  0  0  0  0  0  0  0  0  0  0  0
   55.2456   -3.9393  -16.5276 H   0  0  0  0  0  0  0  0  0  0  0  0
   58.7154   -4.1135  -12.3617 C   0  0  0  0  0  0  0  0  0  0  0  0
   59.3781   -2.9675  -12.8458 O   0  0  0  0  0  0  0  0  0  0  0  0
   59.4442   -4.8885  -11.7074 O   0  0  0  0  0  0  0  0  0  0  0  0
   59.4832   -2.1448  -12.2428 H   0  0  0  0  0  0  0  0  0  0  0  0
   56.7505   -4.4768  -10.3995 C   0  0  0  0  0  0  0  0  0  0  0  0
   55.5036   -4.2903   -9.5883 C   0  0  0  0  0  0  0  0  0  0  0  0
   55.4028   -4.7392   -8.3009 C   0  0  0  0  0  0  0  0  0  0  0  0
   54.2207   -4.5294   -7.6198 C   0  0  0  0  0  0  0  0  0  0  0  0
   53.1343   -3.8814   -8.1935 C   0  0  0  0  0  0  0  0  0  0  0  0
   53.2603   -3.4400   -9.4874 C   0  0  0  0  0  0  0  0  0  0  0  0
   54.4255   -3.6402  -10.1760 C   0  0  0  0  0  0  0  0  0  0  0  0
   51.9146   -3.6952   -7.4129 C   0  0  0  0  0  0  0  0  0  0  0  0
   51.0834   -2.6351   -7.6851 C   0  0  0  0  0  0  0  0  0  0  0  0
   49.9305   -2.4420   -6.9624 C   0  0  0  0  0  0  0  0  0  0  0  0
   49.6010   -3.3233   -5.9486 C   0  0  0  0  0  0  0  0  0  0  0  0
   50.4159   -4.3807   -5.6659 C   0  0  0  0  0  0  0  0  0  0  0  0
   51.5640   -4.5671   -6.3908 C   0  0  0  0  0  0  0  0  0  0  0  0
  3  4  1  0  0  0
  4  2  1  0  0  0
  2  1  1  0  0  0
  1 15  1  0  0  0
 15 16  1  0  0  0
 16 17  2  0  0  0
 17 18  1  0  0  0
 18 19  2  0  0  0
 19 20  1  0  0  0
 20 21  2  0  0  0
 19 22  1  0  0  0
 22 23  2  0  0  0
 23 24  1  0  0  0
 24 25  2  0  0  0
 25 26  1  0  0  0
 26 27  2  0  0  0
  2 11  1  0  0  0
 11 12  1  0  0  0
 11 13  2  0  0  0
  4  7  1  0  0  0
  7  8  1  0  0  0
  7  9  2  0  0  0
 21 16  1  0  0  0
 27 22  1  0  0  0
  3  5  1  0  0  0
  3  6  1  0  0  0
 12 14  1  0  0  0
  8 10  1  0  0  0
M  END
> <minimizedAffinity>
-9.12052

> <CNNscore>
0.3873345852

> <CNNaffinity>
5.0217075348

> <CNN_VS>
1.9450809956

> <CNNaffinity_variance>
0.1475489140

$$$$
[H]OC(=O)[C@@]([H])(OC([H])([H])c1c([H])c([H])c(-c2c([H])c([H])c([H])c([H])c2[H])c([H])c1[H])[C@@]([H])(C(=O)O[H])N([H])[H]


 27 28  0  0  0  0  0  0  0  0999 V2000
   56.7295   -3.7009  -11.5144 O   0  0  0  0  0  0  0  0  0  0  0  0
   57.3986   -4.2637  -12.6137 C   0  0  0  0  0  0  0  0  0  0  0  0
   55.6243   -2.9322  -13.4836 N   0  0  0  0  0  0  0  0  0  0  0  0
   56.8351   -3.6982  -13.9005 C   0  0  0  0  0  0  0  0  0  0  0  0
   55.9153   -2.1038  -12.9273 H   0  0  0  0  0  0  0  0  0  0  0  0
   54.9995   -3.5400  -12.9428 H   0  0  0  0  0  0  0  0  0  0  0  0
   56.4206   -4.6945  -14.8831 C   0  0  0  0  0  0  0  0  0  0  0  0
   56.2576   -6.0359  -14.6076 O   0  0  0  0  0  0  0  0  0  0  0  0
   56.1916   -4.3348  -16.0751 O   0  0  0  0  0  0  0  0  0  0  0  0
   57.0492   -6.6552  -14.4475 H   0  0  0  0  0  0  0  0  0  0  0  0
   58.8221   -4.1021  -12.4002 C   0  0  0  0  0  0  0  0  0  0  0  0
   59.4925   -2.9920  -12.9529 O   0  0  0  0  0  0  0  0  0  0  0  0
   59.5585   -4.8731  -11.7495 O   0  0  0  0  0  0  0  0  0  0  0  0
   59.6444   -2.1519  -12.3850 H   0  0  0  0  0  0  0  0  0  0  0  0
   56.7807   -4.4988  -10.3932 C   0  0  0  0  0  0  0  0  0  0  0  0
   55.5024   -4.2759   -9.6423 C   0  0  0  0  0  0  0  0  0  0  0  0
   54.4308   -3.6429  -10.2080 C   0  0  0  0  0  0  0  0  0  0  0  0
   53.2887   -3.4753   -9.4511 C   0  0  0  0  0  0  0  0  0  0  0  0
   53.1898   -3.9249   -8.1406 C   0  0  0  0  0  0  0  0  0  0  0  0
   54.2795   -4.5575   -7.5952 C   0  0  0  0  0  0  0  0  0  0  0  0
   55.4188   -4.7314   -8.3324 C   0  0  0  0  0  0  0  0  0  0  0  0
   51.9499   -3.7122   -7.3997 C   0  0  0  0  0  0  0  0  0  0  0  0
   51.5922   -4.5845   -6.3998 C   0  0  0  0  0  0  0  0  0  0  0  0
   50.4295   -4.4022   -5.6903 C   0  0  0  0  0  0  0  0  0  0  0  0
   49.6079   -3.3291   -5.9843 C   0  0  0  0  0  0  0  0  0  0  0  0
   49.9489   -2.4541   -6.9742 C   0  0  0  0  0  0  0  0  0  0  0  0
   51.1100   -2.6421   -7.6776 C   0  0  0  0  0  0  0  0  0  0  0  0
  3  4  1  0  0  0
  4  2  1  0  0  0
  2  1  1  0  0  0
  1 15  1  0  0  0
 15 16  1  0  0  0
 16 17  2  0  0  0
 17 18  1  0  0  0
 18 19  2  0  0  0
 19 20  1  0  0  0
 20 21  2  0  0  0
 19 22  1  0  0  0
 22 23  2  0  0  0
 23 24  1  0  0  0
 24 25  2  0  0  0
 25 26  1  0  0  0
 26 27  2  0  0  0
  2 11  1  0  0  0
 11 12  1  0  0  0
 11 13  2  0  0  0
  4  7  1  0  0  0
  7  8  1  0  0  0
  7  9  2  0  0  0
 21 16  1  0  0  0
 27 22  1  0  0  0
  3  5  1  0  0  0
  3  6  1  0  0  0
 12 14  1  0  0  0
  8 10  1  0  0  0
M  END
> <minimizedAffinity>
-8.96852

> <CNNscore>
0.3751753867

> <CNNaffinity>
5.0038337708

> <CNN_VS>
1.8773152828

> <CNNaffinity_variance>
0.1626149118

$$$$
[H]OC(=O)[C@@]([H])(OC([H])([H])c1c([H])c([H])c(-c2c([H])c([H])c([H])c([H])c2[H])c([H])c1[H])[C@@]([H])(C(=O)O[H])N([H])[H]


 27 28  0  0  0  0  0  0  0  0999 V2000
   50.9239   -5.9832   -5.2757 O   0  0  0  0  0  0  0  0  0  0  0  0
   49.8478   -5.2234   -4.7881 C   0  0  0  0  0  0  0  0  0  0  0  0
   49.7656   -3.7048   -2.9537 N   0  0  0  0  0  0  0  0  0  0  0  0
   49.9132   -5.1542   -3.2768 C   0  0  0  0  0  0  0  0  0  0  0  0
   48.8047   -3.3933   -3.1987 H   0  0  0  0  0  0  0  0  0  0  0  0
   50.4715   -3.1629   -3.4639 H   0  0  0  0  0  0  0  0  0  0  0  0
   51.1661   -5.6200   -2.6912 C   0  0  0  0  0  0  0  0  0  0  0  0
   51.6923   -6.8801   -2.8843 O   0  0  0  0  0  0  0  0  0  0  0  0
   51.8343   -4.8406   -1.9505 O   0  0  0  0  0  0  0  0  0  0  0  0
   51.2874   -7.7075   -2.4516 H   0  0  0  0  0  0  0  0  0  0  0  0
   49.8356   -3.9607   -5.4976 C   0  0  0  0  0  0  0  0  0  0  0  0
   48.6095   -3.3189   -5.7657 O   0  0  0  0  0  0  0  0  0  0  0  0
   50.8380   -3.3463   -5.9190 O   0  0  0  0  0  0  0  0  0  0  0  0
   48.2641   -2.5911   -5.1314 H   0  0  0  0  0  0  0  0  0  0  0  0
   50.8217   -6.2495   -6.6230 C   0  0  0  0  0  0  0  0  0  0  0  0
   52.1564   -5.9374   -7.2302 C   0  0  0  0  0  0  0  0  0  0  0  0
   53.3260   -6.3722   -6.6717 C   0  0  0  0  0  0  0  0  0  0  0  0
   54.5150   -6.0429   -7.2907 C   0  0  0  0  0  0  0  0  0  0  0  0
   54.5653   -5.2886   -8.4559 C   0  0  0  0  0  0  0  0  0  0  0  0
   53.3772   -4.8638   -8.9973 C   0  0  0  0  0  0  0  0  0  0  0  0
   52.1903   -5.1819   -8.3957 C   0  0  0  0  0  0  0  0  0  0  0  0
   55.8599   -4.9778   -9.0553 C   0  0  0  0  0  0  0  0  0  0  0  0
   57.0175   -5.3359   -8.4068 C   0  0  0  0  0  0  0  0  0  0  0  0
   58.2461   -5.0529   -8.9538 C   0  0  0  0  0  0  0  0  0  0  0  0
   58.3210   -4.4002  -10.1709 C   0  0  0  0  0  0  0  0  0  0  0  0
   57.1808   -4.0380  -10.8272 C   0  0  0  0  0  0  0  0  0  0  0  0
   55.9590   -4.3234  -10.2758 C   0  0  0  0  0  0  0  0  0  0  0  0
  3  4  1  0  0  0
  4  2  1  0  0  0
  2  1  1  0  0  0
  1 15  1  0  0  0
 15 16  1  0  0  0
 16 17  2  0  0  0
 17 18  1  0  0  0
 18 19  2  0  0  0
 19 20  1  0  0  0
 20 21  2  0  0  0
 19 22  1  0  0  0
 22 23  2  0  0  0
 23 24  1  0  0  0
 24 25  2  0  0  0
 25 26  1  0  0  0
 26 27  2  0  0  0
  2 11  1  0  0  0
 11 12  1  0  0  0
 11 13  2  0  0  0
  4  7  1  0  0  0
  7  8  1  0  0  0
  7  9  2  0  0  0
 21 16  1  0  0  0
 27 22  1  0  0  0
  3  5  1  0  0  0
  3  6  1  0  0  0
 12 14  1  0  0  0
  8 10  1  0  0  0
M  END
> <minimizedAffinity>
-4.63570

> <CNNscore>
0.3746305108

> <CNNaffinity>
4.5562157631

> <CNN_VS>
1.7068974972

> <CNNaffinity_variance>
0.5788855553

$$$$
[H]OC(=O)[C@@]([H])(OC([H])([H])c1c([H])c([H])c(-c2c([H])c([H])c([H])c([H])c2[H])c([H])c1[H])[C@@]([H])(C(=O)O[H])N([H])[H]


 27 28  0  0  0  0  0  0  0  0999 V2000
   50.3845   -5.4902   -5.4827 O   0  0  0  0  0  0  0  0  0  0  0  0
   50.2623   -5.4842   -4.0834 C   0  0  0  0  0  0  0  0  0  0  0  0
   52.3820   -6.5704   -4.0147 N   0  0  0  0  0  0  0  0  0  0  0  0
   51.6355   -5.4084   -3.4497 C   0  0  0  0  0  0  0  0  0  0  0  0
   52.5424   -6.4163   -5.0300 H   0  0  0  0  0  0  0  0  0  0  0  0
   51.8534   -7.4341   -3.8506 H   0  0  0  0  0  0  0  0  0  0  0  0
   51.6516   -5.5277   -1.9953 C   0  0  0  0  0  0  0  0  0  0  0  0
   52.2678   -4.6297   -1.1493 O   0  0  0  0  0  0  0  0  0  0  0  0
   51.0737   -6.5107   -1.4454 O   0  0  0  0  0  0  0  0  0  0  0  0
   53.2805   -4.5730   -1.0654 H   0  0  0  0  0  0  0  0  0  0  0  0
   49.3205   -4.4446   -3.7222 C   0  0  0  0  0  0  0  0  0  0  0  0
   48.0087   -4.7894   -3.3383 O   0  0  0  0  0  0  0  0  0  0  0  0
   49.5512   -3.2171   -3.7119 O   0  0  0  0  0  0  0  0  0  0  0  0
   47.7766   -4.8897   -2.3446 H   0  0  0  0  0  0  0  0  0  0  0  0
   50.5196   -4.2258   -6.0117 C   0  0  0  0  0  0  0  0  0  0  0  0
   51.7453   -4.2445   -6.8747 C   0  0  0  0  0  0  0  0  0  0  0  0
   52.0116   -3.2522   -7.7767 C   0  0  0  0  0  0  0  0  0  0  0  0
   53.1612   -3.3415   -8.5353 C   0  0  0  0  0  0  0  0  0  0  0  0
   54.0535   -4.3993   -8.4157 C   0  0  0  0  0  0  0  0  0  0  0  0
   53.7638   -5.3832   -7.5030 C   0  0  0  0  0  0  0  0  0  0  0  0
   52.6283   -5.3092   -6.7434 C   0  0  0  0  0  0  0  0  0  0  0  0
   55.2499   -4.4281   -9.2520 C   0  0  0  0  0  0  0  0  0  0  0  0
   55.1729   -4.0447  -10.5696 C   0  0  0  0  0  0  0  0  0  0  0  0
   56.2872   -4.0642  -11.3738 C   0  0  0  0  0  0  0  0  0  0  0  0
   57.5013   -4.4743  -10.8534 C   0  0  0  0  0  0  0  0  0  0  0  0
   57.5943   -4.8581   -9.5473 C   0  0  0  0  0  0  0  0  0  0  0  0
   56.4790   -4.8360   -8.7511 C   0  0  0  0  0  0  0  0  0  0  0  0
  3  4  1  0  0  0
  4  2  1  0  0  0
  2  1  1  0  0  0
  1 15  1  0  0  0
 15 16  1  0  0  0
 16 17  2  0  0  0
 17 18  1  0  0  0
 18 19  2  0  0  0
 19 20  1  0  0  0
 20 21  2  0  0  0
 19 22  1  0  0  0
 22 23  2  0  0  0
 23 24  1  0  0  0
 24 25  2  0  0  0
 25 26  1  0  0  0
 26 27  2  0  0  0
  2 11  1  0  0  0
 11 12  1  0  0  0
 11 13  2  0  0  0
  4  7  1  0  0  0
  7  8  1  0  0  0
  7  9  2  0  0  0
 21 16  1  0  0  0
 27 22  1  0  0  0
  3  5  1  0  0  0
  3  6  1  0  0  0
 12 14  1  0  0  0
  8 10  1  0  0  0
M  END
> <minimizedAffinity>
-8.42230

> <CNNscore>
0.3614757061

> <CNNaffinity>
5.1871981621

> <CNN_VS>
1.8750461340

> <CNNaffinity_variance>
0.2164751589

$$$$
[H]OC(=O)[C@@]([H])(OC([H])([H])c1c([H])c([H])c(-c2c([H])c([H])c([H])c([H])c2[H])c([H])c1[H])[C@@]([H])(C(=O)O[H])N([H])[H]


 27 28  0  0  0  0  0  0  0  0999 V2000
   55.7729   -3.6118   -9.6785 O   0  0  0  0  0  0  0  0  0  0  0  0
   56.8335   -4.4683  -10.0170 C   0  0  0  0  0  0  0  0  0  0  0  0
   57.0374   -2.5606  -11.4301 N   0  0  0  0  0  0  0  0  0  0  0  0
   57.7917   -3.7540  -10.9469 C   0  0  0  0  0  0  0  0  0  0  0  0
   56.8871   -1.9041  -10.6383 H   0  0  0  0  0  0  0  0  0  0  0  0
   56.1447   -2.8576  -11.8389 H   0  0  0  0  0  0  0  0  0  0  0  0
   58.2092   -4.5247  -12.1137 C   0  0  0  0  0  0  0  0  0  0  0  0
   57.3402   -5.1536  -12.9805 O   0  0  0  0  0  0  0  0  0  0  0  0
   59.4429   -4.6445  -12.3712 O   0  0  0  0  0  0  0  0  0  0  0  0
   56.8307   -5.9951  -12.7196 H   0  0  0  0  0  0  0  0  0  0  0  0
   57.3905   -4.9958   -8.7883 C   0  0  0  0  0  0  0  0  0  0  0  0
   58.5322   -5.8213   -8.8337 O   0  0  0  0  0  0  0  0  0  0  0  0
   56.9517   -4.7915   -7.6369 O   0  0  0  0  0  0  0  0  0  0  0  0
   59.4631   -5.4143   -8.6958 H   0  0  0  0  0  0  0  0  0  0  0  0
   54.5803   -3.9849  -10.2575 C   0  0  0  0  0  0  0  0  0  0  0  0
   53.5312   -3.8914   -9.1907 C   0  0  0  0  0  0  0  0  0  0  0  0
   52.6445   -2.8522   -9.1356 C   0  0  0  0  0  0  0  0  0  0  0  0
   51.7079   -2.8374   -8.1218 C   0  0  0  0  0  0  0  0  0  0  0  0
   51.6344   -3.8364   -7.1595 C   0  0  0  0  0  0  0  0  0  0  0  0
   52.5359   -4.8691   -7.2365 C   0  0  0  0  0  0  0  0  0  0  0  0
   53.4704   -4.8983   -8.2353 C   0  0  0  0  0  0  0  0  0  0  0  0
   50.6172   -3.7547   -6.1154 C   0  0  0  0  0  0  0  0  0  0  0  0
   49.6663   -2.7636   -6.1628 C   0  0  0  0  0  0  0  0  0  0  0  0
   48.7000   -2.6692   -5.1902 C   0  0  0  0  0  0  0  0  0  0  0  0
   48.6824   -3.5810   -4.1503 C   0  0  0  0  0  0  0  0  0  0  0  0
   49.6196   -4.5708   -4.0889 C   0  0  0  0  0  0  0  0  0  0  0  0
   50.5803   -4.6589   -5.0624 C   0  0  0  0  0  0  0  0  0  0  0  0
  3  4  1  0  0  0
  4  2  1  0  0  0
  2  1  1  0  0  0
  1 15  1  0  0  0
 15 16  1  0  0  0
 16 17  2  0  0  0
 17 18  1  0  0  0
 18 19  2  0  0  0
 19 20  1  0  0  0
 20 21  2  0  0  0
 19 22  1  0  0  0
 22 23  2  0  0  0
 23 24  1  0  0  0
 24 25  2  0  0  0
 25 26  1  0  0  0
 26 27  2  0  0  0
  2 11  1  0  0  0
 11 12  1  0  0  0
 11 13  2  0  0  0
  4  7  1  0  0  0
  7  8  1  0  0  0
  7  9  2  0  0  0
 21 16  1  0  0  0
 27 22  1  0  0  0
  3  5  1  0  0  0
  3  6  1  0  0  0
 12 14  1  0  0  0
  8 10  1  0  0  0
M  END
> <minimizedAffinity>
-9.22392

> <CNNscore>
0.3562210202

> <CNNaffinity>
5.0658068657

> <CNN_VS>
1.8045468330

> <CNNaffinity_variance>
0.1536996663

$$$$
[H]OC(=O)[C@@]([H])(OC([H])([H])c1c([H])c([H])c(-c2c([H])c([H])c([H])c([H])c2[H])c([H])c1[H])[C@@]([H])(C(=O)O[H])N([H])[H]


 27 28  0  0  0  0  0  0  0  0999 V2000
   56.0732   -4.5423  -11.5891 O   0  0  0  0  0  0  0  0  0  0  0  0
   56.5605   -3.9104  -12.7451 C   0  0  0  0  0  0  0  0  0  0  0  0
   58.5216   -3.2533  -13.9285 N   0  0  0  0  0  0  0  0  0  0  0  0
   58.0186   -3.5488  -12.5550 C   0  0  0  0  0  0  0  0  0  0  0  0
   58.0704   -2.3860  -14.2814 H   0  0  0  0  0  0  0  0  0  0  0  0
   58.3279   -4.0489  -14.5465 H   0  0  0  0  0  0  0  0  0  0  0  0
   58.8486   -4.6082  -11.9905 C   0  0  0  0  0  0  0  0  0  0  0  0
   58.4345   -5.4753  -11.0013 O   0  0  0  0  0  0  0  0  0  0  0  0
   60.0315   -4.7640  -12.4139 O   0  0  0  0  0  0  0  0  0  0  0  0
   58.3165   -5.1772  -10.0354 H   0  0  0  0  0  0  0  0  0  0  0  0
   56.2409   -4.7503  -13.8811 C   0  0  0  0  0  0  0  0  0  0  0  0
   55.8443   -4.1614  -15.0989 O   0  0  0  0  0  0  0  0  0  0  0  0
   56.2793   -5.9985  -13.9044 O   0  0  0  0  0  0  0  0  0  0  0  0
   56.5379   -3.9931  -15.8351 H   0  0  0  0  0  0  0  0  0  0  0  0
   56.4251   -3.8832  -10.4323 C   0  0  0  0  0  0  0  0  0  0  0  0
   55.2077   -3.8603   -9.5576 C   0  0  0  0  0  0  0  0  0  0  0  0
   55.1746   -4.4916   -8.3454 C   0  0  0  0  0  0  0  0  0  0  0  0
   54.0158   -4.4249   -7.5984 C   0  0  0  0  0  0  0  0  0  0  0  0
   52.8868   -3.7421   -8.0326 C   0  0  0  0  0  0  0  0  0  0  0  0
   52.9451   -3.1164   -9.2533 C   0  0  0  0  0  0  0  0  0  0  0  0
   54.0864   -3.1732  -10.0057 C   0  0  0  0  0  0  0  0  0  0  0  0
   51.6954   -3.7143   -7.1892 C   0  0  0  0  0  0  0  0  0  0  0  0
   51.4970   -4.7005   -6.2527 C   0  0  0  0  0  0  0  0  0  0  0  0
   50.3825   -4.6926   -5.4488 C   0  0  0  0  0  0  0  0  0  0  0  0
   49.4480   -3.6817   -5.5819 C   0  0  0  0  0  0  0  0  0  0  0  0
   49.6304   -2.6954   -6.5070 C   0  0  0  0  0  0  0  0  0  0  0  0
   50.7442   -2.7095   -7.3053 C   0  0  0  0  0  0  0  0  0  0  0  0
  3  4  1  0  0  0
  4  2  1  0  0  0
  2  1  1  0  0  0
  1 15  1  0  0  0
 15 16  1  0  0  0
 16 17  2  0  0  0
 17 18  1  0  0  0
 18 19  2  0  0  0
 19 20  1  0  0  0
 20 21  2  0  0  0
 19 22  1  0  0  0
 22 23  2  0  0  0
 23 24  1  0  0  0
 24 25  2  0  0  0
 25 26  1  0  0  0
 26 27  2  0  0  0
  2 11  1  0  0  0
 11 12  1  0  0  0
 11 13  2  0  0  0
  4  7  1  0  0  0
  7  8  1  0  0  0
  7  9  2  0  0  0
 21 16  1  0  0  0
 27 22  1  0  0  0
  3  5  1  0  0  0
  3  6  1  0  0  0
 12 14  1  0  0  0
  8 10  1  0  0  0
M  END
> <minimizedAffinity>
-8.69215

> <CNNscore>
0.3332773149

> <CNNaffinity>
4.8728995323

> <CNN_VS>
1.6240268946

> <CNNaffinity_variance>
0.2296992838

$$$$
[H]OC(=O)[C@@]([H])(OC([H])([H])c1c([H])c([H])c(-c2c([H])c([H])c([H])c([H])c2[H])c([H])c1[H])[C@@]([H])(C(=O)O[H])N([H])[H]


 27 28  0  0  0  0  0  0  0  0999 V2000
   56.1980   -4.7503   -8.7347 O   0  0  0  0  0  0  0  0  0  0  0  0
   55.0341   -4.2915   -8.0961 C   0  0  0  0  0  0  0  0  0  0  0  0
   54.5836   -3.3123  -10.2212 N   0  0  0  0  0  0  0  0  0  0  0  0
   53.9371   -4.0830   -9.1189 C   0  0  0  0  0  0  0  0  0  0  0  0
   55.2867   -3.9133  -10.6955 H   0  0  0  0  0  0  0  0  0  0  0  0
   55.0178   -2.4639   -9.8419 H   0  0  0  0  0  0  0  0  0  0  0  0
   52.7901   -3.3148   -8.6458 C   0  0  0  0  0  0  0  0  0  0  0  0
   51.8946   -3.7611   -7.6967 O   0  0  0  0  0  0  0  0  0  0  0  0
   52.5750   -2.1614   -9.1214 O   0  0  0  0  0  0  0  0  0  0  0  0
   51.2106   -4.4874   -7.8978 H   0  0  0  0  0  0  0  0  0  0  0  0
   54.7406   -5.1938   -7.0016 C   0  0  0  0  0  0  0  0  0  0  0  0
   54.0245   -6.3831   -7.2462 O   0  0  0  0  0  0  0  0  0  0  0  0
   55.0665   -5.0287   -5.8072 O   0  0  0  0  0  0  0  0  0  0  0  0
   54.5301   -7.2613   -7.4021 H   0  0  0  0  0  0  0  0  0  0  0  0
   57.2509   -4.9240   -7.8642 C   0  0  0  0  0  0  0  0  0  0  0  0
   58.4216   -5.3782   -8.6832 C   0  0  0  0  0  0  0  0  0  0  0  0
   58.4384   -5.2693  -10.0459 C   0  0  0  0  0  0  0  0  0  0  0  0
   59.5535   -5.7107  -10.7292 C   0  0  0  0  0  0  0  0  0  0  0  0
   60.6547   -6.2594  -10.0844 C   0  0  0  0  0  0  0  0  0  0  0  0
   60.6136   -6.3579   -8.7156 C   0  0  0  0  0  0  0  0  0  0  0  0
   59.5156   -5.9248   -8.0238 C   0  0  0  0  0  0  0  0  0  0  0  0
   61.7998   -6.7060  -10.8724 C   0  0  0  0  0  0  0  0  0  0  0  0
   62.1997   -5.9811  -11.9694 C   0  0  0  0  0  0  0  0  0  0  0  0
   63.2751   -6.3839  -12.7243 C   0  0  0  0  0  0  0  0  0  0  0  0
   63.9644   -7.5320  -12.3782 C   0  0  0  0  0  0  0  0  0  0  0  0
   63.5798   -8.2628  -11.2919 C   0  0  0  0  0  0  0  0  0  0  0  0
   62.5065   -7.8550  -10.5436 C   0  0  0  0  0  0  0  0  0  0  0  0
  3  4  1  0  0  0
  4  2  1  0  0  0
  2  1  1  0  0  0
  1 15  1  0  0  0
 15 16  1  0  0  0
 16 17  2  0  0  0
 17 18  1  0  0  0
 18 19  2  0  0  0
 19 20  1  0  0  0
 20 21  2  0  0  0
 19 22  1  0  0  0
 22 23  2  0  0  0
 23 24  1  0  0  0
 24 25  2  0  0  0
 25 26  1  0  0  0
 26 27  2  0  0  0
  2 11  1  0  0  0
 11 12  1  0  0  0
 11 13  2  0  0  0
  4  7  1  0  0  0
  7  8  1  0  0  0
  7  9  2  0  0  0
 21 16  1  0  0  0
 27 22  1  0  0  0
  3  5  1  0  0  0
  3  6  1  0  0  0
 12 14  1  0  0  0
  8 10  1  0  0  0
M  END
> <minimizedAffinity>
-4.49399

> <CNNscore>
0.3237533271

> <CNNaffinity>
4.0396213531

> <CNN_VS>
1.3078408241

> <CNNaffinity_variance>
0.1345979422

$$$$
[H]c1nc(N2C([H])([H])C([H])([H])N(c3c([H])c([H])c([H])c([H])c3C([H])([H])[H])C([H])([H])C2([H])[H])c2c([H])nn(-c3c([H])c([H])c([H])c([H])c3[H])c2n1


 28 32  0  0  0  0  0  0  0  0999 V2000
   58.3335   -4.6852  -13.8705 C   0  0  0  0  0  0  0  0  0  0  0  0
   57.8389   -5.7910  -14.4425 N   0  0  0  0  0  0  0  0  0  0  0  0
   56.7034   -6.3714  -14.0315 C   0  0  0  0  0  0  0  0  0  0  0  0
   56.0165   -5.8518  -13.0160 N   0  0  0  0  0  0  0  0  0  0  0  0
   56.4473   -4.7501  -12.3958 C   0  0  0  0  0  0  0  0  0  0  0  0
   55.9696   -4.0134  -11.3591 N   0  0  0  0  0  0  0  0  0  0  0  0
   56.7821   -3.0012  -11.1277 N   0  0  0  0  0  0  0  0  0  0  0  0
   57.8041   -3.0576  -12.0073 C   0  0  0  0  0  0  0  0  0  0  0  0
   57.6265   -4.1504  -12.8253 C   0  0  0  0  0  0  0  0  0  0  0  0
   62.0823   -2.9999  -14.9135 N   0  0  0  0  0  0  0  0  0  0  0  0
   61.6859   -4.3384  -15.2778 C   0  0  0  0  0  0  0  0  0  0  0  0
   60.2006   -4.3139  -15.5436 C   0  0  0  0  0  0  0  0  0  0  0  0
   59.5247   -4.0695  -14.2956 N   0  0  0  0  0  0  0  0  0  0  0  0
   60.1386   -3.0954  -13.4023 C   0  0  0  0  0  0  0  0  0  0  0  0
   61.1239   -2.2175  -14.1576 C   0  0  0  0  0  0  0  0  0  0  0  0
   63.4000   -3.6489  -17.4157 C   0  0  0  0  0  0  0  0  0  0  0  0
   63.9602   -2.6890  -16.4096 C   0  0  0  0  0  0  0  0  0  0  0  0
   65.1681   -2.0618  -16.6566 C   0  0  0  0  0  0  0  0  0  0  0  0
   65.7485   -1.1671  -15.7869 C   0  0  0  0  0  0  0  0  0  0  0  0
   65.1181   -0.8606  -14.6023 C   0  0  0  0  0  0  0  0  0  0  0  0
   63.9202   -1.4798  -14.3526 C   0  0  0  0  0  0  0  0  0  0  0  0
   63.3209   -2.3900  -15.2278 C   0  0  0  0  0  0  0  0  0  0  0  0
   54.7728   -4.3146  -10.6524 C   0  0  0  0  0  0  0  0  0  0  0  0
   54.6303   -4.1232   -9.2930 C   0  0  0  0  0  0  0  0  0  0  0  0
   53.4412   -4.4350   -8.6614 C   0  0  0  0  0  0  0  0  0  0  0  0
   52.3622   -4.9411   -9.3403 C   0  0  0  0  0  0  0  0  0  0  0  0
   52.4897   -5.1374  -10.6969 C   0  0  0  0  0  0  0  0  0  0  0  0
   53.6709   -4.8286  -11.3297 C   0  0  0  0  0  0  0  0  0  0  0  0
 16 17  1  0  0  0
 17 18  2  0  0  0
 18 19  1  0  0  0
 19 20  2  0  0  0
 20 21  1  0  0  0
 21 22  2  0  0  0
 22 10  1  0  0  0
 10 11  1  0  0  0
 11 12  1  0  0  0
 12 13  1  0  0  0
 13 14  1  0  0  0
 14 15  1  0  0  0
 13  1  1  0  0  0
  1  2  2  0  0  0
  2  3  1  0  0  0
  3  4  2  0  0  0
  4  5  1  0  0  0
  5  6  1  0  0  0
  6  7  1  0  0  0
  7  8  2  0  0  0
  8  9  1  0  0  0
  6 23  1  0  0  0
 23 24  2  0  0  0
 24 25  1  0  0  0
 25 26  2  0  0  0
 26 27  1  0  0  0
 27 28  2  0  0  0
 22 17  1  0  0  0
 15 10  1  0  0  0
  9  1  1  0  0  0
 28 23  1  0  0  0
  9  5  2  0  0  0
M  END
> <minimizedAffinity>
13.80977

> <CNNscore>
0.4522878528

> <CNNaffinity>
5.0128831863

> <CNN_VS>
2.2672662735

> <CNNaffinity_variance>
0.5341827869

$$$$
[H]c1nc(N2C([H])([H])C([H])([H])N(c3c([H])c([H])c([H])c([H])c3C([H])([H])[H])C([H])([H])C2([H])[H])c2c([H])nn(-c3c([H])c([H])c([H])c([H])c3[H])c2n1


 28 32  0  0  0  0  0  0  0  0999 V2000
   59.2245   -5.4235  -10.3523 C   0  0  0  0  0  0  0  0  0  0  0  0
   58.6266   -5.4856   -9.1551 N   0  0  0  0  0  0  0  0  0  0  0  0
   59.2754   -5.8508   -8.0411 C   0  0  0  0  0  0  0  0  0  0  0  0
   60.5668   -6.1708   -8.0941 N   0  0  0  0  0  0  0  0  0  0  0  0
   61.2306   -6.1325   -9.2524 C   0  0  0  0  0  0  0  0  0  0  0  0
   62.5162   -6.3977   -9.6024 N   0  0  0  0  0  0  0  0  0  0  0  0
   62.6682   -6.2042  -10.8978 N   0  0  0  0  0  0  0  0  0  0  0  0
   61.4867   -5.8097  -11.4172 C   0  0  0  0  0  0  0  0  0  0  0  0
   60.5538   -5.7529  -10.4067 C   0  0  0  0  0  0  0  0  0  0  0  0
   57.4704   -4.1076  -13.9816 N   0  0  0  0  0  0  0  0  0  0  0  0
   58.4221   -5.1893  -13.9076 C   0  0  0  0  0  0  0  0  0  0  0  0
   58.1797   -5.9170  -12.6079 C   0  0  0  0  0  0  0  0  0  0  0  0
   58.5510   -5.0412  -11.5266 N   0  0  0  0  0  0  0  0  0  0  0  0
   58.1913   -3.6367  -11.6731 C   0  0  0  0  0  0  0  0  0  0  0  0
   57.1141   -3.4639  -12.7323 C   0  0  0  0  0  0  0  0  0  0  0  0
   54.9656   -2.6540  -13.8033 C   0  0  0  0  0  0  0  0  0  0  0  0
   55.6703   -2.9336  -15.0966 C   0  0  0  0  0  0  0  0  0  0  0  0
   55.1241   -2.4885  -16.2870 C   0  0  0  0  0  0  0  0  0  0  0  0
   55.7085   -2.7014  -17.5146 C   0  0  0  0  0  0  0  0  0  0  0  0
   56.8981   -3.3892  -17.5936 C   0  0  0  0  0  0  0  0  0  0  0  0
   57.4439   -3.8327  -16.4162 C   0  0  0  0  0  0  0  0  0  0  0  0
   56.8600   -3.6229  -15.1637 C   0  0  0  0  0  0  0  0  0  0  0  0
   63.5206   -6.8180   -8.6876 C   0  0  0  0  0  0  0  0  0  0  0  0
   64.2740   -5.9383   -7.9370 C   0  0  0  0  0  0  0  0  0  0  0  0
   65.2369   -6.4073   -7.0635 C   0  0  0  0  0  0  0  0  0  0  0  0
   65.4884   -7.7458   -6.9009 C   0  0  0  0  0  0  0  0  0  0  0  0
   64.7446   -8.6353   -7.6430 C   0  0  0  0  0  0  0  0  0  0  0  0
   63.7854   -8.1733   -8.5134 C   0  0  0  0  0  0  0  0  0  0  0  0
 16 17  1  0  0  0
 17 18  2  0  0  0
 18 19  1  0  0  0
 19 20  2  0  0  0
 20 21  1  0  0  0
 21 22  2  0  0  0
 22 10  1  0  0  0
 10 11  1  0  0  0
 11 12  1  0  0  0
 12 13  1  0  0  0
 13 14  1  0  0  0
 14 15  1  0  0  0
 13  1  1  0  0  0
  1  2  2  0  0  0
  2  3  1  0  0  0
  3  4  2  0  0  0
  4  5  1  0  0  0
  5  6  1  0  0  0
  6  7  1  0  0  0
  7  8  2  0  0  0
  8  9  1  0  0  0
  6 23  1  0  0  0
 23 24  2  0  0  0
 24 25  1  0  0  0
 25 26  2  0  0  0
 26 27  1  0  0  0
 27 28  2  0  0  0
 22 17  1  0  0  0
 15 10  1  0  0  0
  9  1  1  0  0  0
 28 23  1  0  0  0
  9  5  2  0  0  0
M  END
> <minimizedAffinity>
10.08619

> <CNNscore>
0.4387664199

> <CNNaffinity>
4.7903580666

> <CNN_VS>
2.1018483639

> <CNNaffinity_variance>
0.0767996758

$$$$
[H]c1nc(N2C([H])([H])C([H])([H])N(c3c([H])c([H])c([H])c([H])c3C([H])([H])[H])C([H])([H])C2([H])[H])c2c([H])nn(-c3c([H])c([H])c([H])c([H])c3[H])c2n1


 28 32  0  0  0  0  0  0  0  0999 V2000
   55.4822   -4.5226   -9.2315 C   0  0  0  0  0  0  0  0  0  0  0  0
   56.0166   -5.1222   -8.1593 N   0  0  0  0  0  0  0  0  0  0  0  0
   55.3530   -5.2626   -7.0039 C   0  0  0  0  0  0  0  0  0  0  0  0
   54.1107   -4.7979   -6.8856 N   0  0  0  0  0  0  0  0  0  0  0  0
   53.5115   -4.1883   -7.9118 C   0  0  0  0  0  0  0  0  0  0  0  0
   52.2852   -3.6282   -8.0798 N   0  0  0  0  0  0  0  0  0  0  0  0
   52.1838   -3.1509   -9.3047 N   0  0  0  0  0  0  0  0  0  0  0  0
   53.3400   -3.3899   -9.9586 C   0  0  0  0  0  0  0  0  0  0  0  0
   54.2036   -4.0443   -9.1097 C   0  0  0  0  0  0  0  0  0  0  0  0
   57.4348   -3.7572  -12.9169 N   0  0  0  0  0  0  0  0  0  0  0  0
   57.8960   -3.2377  -11.6525 C   0  0  0  0  0  0  0  0  0  0  0  0
   57.6008   -4.2789  -10.6008 C   0  0  0  0  0  0  0  0  0  0  0  0
   56.1717   -4.3708  -10.4481 N   0  0  0  0  0  0  0  0  0  0  0  0
   55.3803   -4.2995  -11.6697 C   0  0  0  0  0  0  0  0  0  0  0  0
   56.2437   -4.5835  -12.8886 C   0  0  0  0  0  0  0  0  0  0  0  0
   60.3227   -3.5376  -13.0918 C   0  0  0  0  0  0  0  0  0  0  0  0
   59.4101   -3.4193  -14.2754 C   0  0  0  0  0  0  0  0  0  0  0  0
   59.9411   -3.1933  -15.5326 C   0  0  0  0  0  0  0  0  0  0  0  0
   59.1734   -3.0749  -16.6686 C   0  0  0  0  0  0  0  0  0  0  0  0
   57.8040   -3.1825  -16.5807 C   0  0  0  0  0  0  0  0  0  0  0  0
   57.2726   -3.4066  -15.3364 C   0  0  0  0  0  0  0  0  0  0  0  0
   58.0416   -3.5284  -14.1757 C   0  0  0  0  0  0  0  0  0  0  0  0
   51.2859   -3.5802   -7.0691 C   0  0  0  0  0  0  0  0  0  0  0  0
   50.3010   -2.6142   -7.0265 C   0  0  0  0  0  0  0  0  0  0  0  0
   49.3561   -2.6197   -6.0180 C   0  0  0  0  0  0  0  0  0  0  0  0
   49.3487   -3.5674   -5.0265 C   0  0  0  0  0  0  0  0  0  0  0  0
   50.3251   -4.5374   -5.0560 C   0  0  0  0  0  0  0  0  0  0  0  0
   51.2675   -4.5360   -6.0576 C   0  0  0  0  0  0  0  0  0  0  0  0
 16 17  1  0  0  0
 17 18  2  0  0  0
 18 19  1  0  0  0
 19 20  2  0  0  0
 20 21  1  0  0  0
 21 22  2  0  0  0
 22 10  1  0  0  0
 10 11  1  0  0  0
 11 12  1  0  0  0
 12 13  1  0  0  0
 13 14  1  0  0  0
 14 15  1  0  0  0
 13  1  1  0  0  0
  1  2  2  0  0  0
  2  3  1  0  0  0
  3  4  2  0  0  0
  4  5  1  0  0  0
  5  6  1  0  0  0
  6  7  1  0  0  0
  7  8  2  0  0  0
  8  9  1  0  0  0
  6 23  1  0  0  0
 23 24  2  0  0  0
 24 25  1  0  0  0
 25 26  2  0  0  0
 26 27  1  0  0  0
 27 28  2  0  0  0
 22 17  1  0  0  0
 15 10  1  0  0  0
  9  1  1  0  0  0
 28 23  1  0  0  0
  9  5  2  0  0  0
M  END
> <minimizedAffinity>
-8.76529

> <CNNscore>
0.3076449633

> <CNNaffinity>
6.4243478775

> <CNN_VS>
1.9764182568

> <CNNaffinity_variance>
0.2451204509

$$$$
[H]c1nc(N2C([H])([H])C([H])([H])N(c3c([H])c([H])c([H])c([H])c3C([H])([H])[H])C([H])([H])C2([H])[H])c2c([H])nn(-c3c([H])c([H])c([H])c([H])c3[H])c2n1


 28 32  0  0  0  0  0  0  0  0999 V2000
   55.9522   -4.5934   -9.1544 C   0  0  0  0  0  0  0  0  0  0  0  0
   55.4951   -3.8024  -10.1342 N   0  0  0  0  0  0  0  0  0  0  0  0
   54.2741   -3.2515  -10.1083 C   0  0  0  0  0  0  0  0  0  0  0  0
   53.4589   -3.4808   -9.0807 N   0  0  0  0  0  0  0  0  0  0  0  0
   53.8447   -4.2593   -8.0664 C   0  0  0  0  0  0  0  0  0  0  0  0
   53.2448   -4.6613   -6.9156 N   0  0  0  0  0  0  0  0  0  0  0  0
   54.0662   -5.4411   -6.2406 N   0  0  0  0  0  0  0  0  0  0  0  0
   55.2160   -5.5629   -6.9366 C   0  0  0  0  0  0  0  0  0  0  0  0
   55.1130   -4.8295   -8.0968 C   0  0  0  0  0  0  0  0  0  0  0  0
   59.9312   -6.0516   -9.3025 N   0  0  0  0  0  0  0  0  0  0  0  0
   59.4199   -5.2518   -8.2161 C   0  0  0  0  0  0  0  0  0  0  0  0
   57.9708   -5.6258   -8.0220 C   0  0  0  0  0  0  0  0  0  0  0  0
   57.2324   -5.1759   -9.1737 N   0  0  0  0  0  0  0  0  0  0  0  0
   57.8791   -5.3447  -10.4687 C   0  0  0  0  0  0  0  0  0  0  0  0
   59.0092   -6.3580  -10.3787 C   0  0  0  0  0  0  0  0  0  0  0  0
   61.0892   -7.4945   -7.0674 C   0  0  0  0  0  0  0  0  0  0  0  0
   61.8143   -7.2425   -8.3551 C   0  0  0  0  0  0  0  0  0  0  0  0
   63.1060   -7.7094   -8.5193 C   0  0  0  0  0  0  0  0  0  0  0  0
   63.8383   -7.5224   -9.6693 C   0  0  0  0  0  0  0  0  0  0  0  0
   63.2834   -6.8395  -10.7277 C   0  0  0  0  0  0  0  0  0  0  0  0
   62.0030   -6.3744  -10.5701 C   0  0  0  0  0  0  0  0  0  0  0  0
   61.2494   -6.5579   -9.4073 C   0  0  0  0  0  0  0  0  0  0  0  0
   51.9305   -4.2813   -6.5273 C   0  0  0  0  0  0  0  0  0  0  0  0
   51.2199   -3.2761   -7.1514 C   0  0  0  0  0  0  0  0  0  0  0  0
   49.9447   -2.9517   -6.7285 C   0  0  0  0  0  0  0  0  0  0  0  0
   49.3317   -3.5999   -5.6867 C   0  0  0  0  0  0  0  0  0  0  0  0
   50.0284   -4.6049   -5.0546 C   0  0  0  0  0  0  0  0  0  0  0  0
   51.2974   -4.9312   -5.4719 C   0  0  0  0  0  0  0  0  0  0  0  0
 16 17  1  0  0  0
 17 18  2  0  0  0
 18 19  1  0  0  0
 19 20  2  0  0  0
 20 21  1  0  0  0
 21 22  2  0  0  0
 22 10  1  0  0  0
 10 11  1  0  0  0
 11 12  1  0  0  0
 12 13  1  0  0  0
 13 14  1  0  0  0
 14 15  1  0  0  0
 13  1  1  0  0  0
  1  2  2  0  0  0
  2  3  1  0  0  0
  3  4  2  0  0  0
  4  5  1  0  0  0
  5  6  1  0  0  0
  6  7  1  0  0  0
  7  8  2  0  0  0
  8  9  1  0  0  0
  6 23  1  0  0  0
 23 24  2  0  0  0
 24 25  1  0  0  0
 25 26  2  0  0  0
 26 27  1  0  0  0
 27 28  2  0  0  0
 22 17  1  0  0  0
 15 10  1  0  0  0
  9  1  1  0  0  0
 28 23  1  0  0  0
  9  5  2  0  0  0
M  END
> <minimizedAffinity>
-6.82604

> <CNNscore>
0.2788441777

> <CNNaffinity>
6.2368607521

> <CNN_VS>
1.7391122580

> <CNNaffinity_variance>
0.2722128928

$$$$
[H]c1nc(N2C([H])([H])C([H])([H])N(c3c([H])c([H])c([H])c([H])c3C([H])([H])[H])C([H])([H])C2([H])[H])c2c([H])nn(-c3c([H])c([H])c([H])c([H])c3[H])c2n1


 28 32  0  0  0  0  0  0  0  0999 V2000
   55.9923   -4.2163  -10.4788 C   0  0  0  0  0  0  0  0  0  0  0  0
   54.6956   -3.8826  -10.4351 N   0  0  0  0  0  0  0  0  0  0  0  0
   53.9528   -4.0121   -9.3275 C   0  0  0  0  0  0  0  0  0  0  0  0
   54.4969   -4.4888   -8.2096 N   0  0  0  0  0  0  0  0  0  0  0  0
   55.7843   -4.8429   -8.1764 C   0  0  0  0  0  0  0  0  0  0  0  0
   56.5908   -5.3461   -7.2058 N   0  0  0  0  0  0  0  0  0  0  0  0
   57.8033   -5.5264   -7.6914 N   0  0  0  0  0  0  0  0  0  0  0  0
   57.8115   -5.1451   -8.9859 C   0  0  0  0  0  0  0  0  0  0  0  0
   56.5523   -4.7070   -9.3281 C   0  0  0  0  0  0  0  0  0  0  0  0
   58.3621   -3.4875  -13.9188 N   0  0  0  0  0  0  0  0  0  0  0  0
   58.8846   -3.4536  -12.5745 C   0  0  0  0  0  0  0  0  0  0  0  0
   58.1500   -4.5032  -11.7770 C   0  0  0  0  0  0  0  0  0  0  0  0
   56.7794   -4.0837  -11.6371 N   0  0  0  0  0  0  0  0  0  0  0  0
   56.1638   -3.4690  -12.8063 C   0  0  0  0  0  0  0  0  0  0  0  0
   56.9527   -3.7948  -14.0646 C   0  0  0  0  0  0  0  0  0  0  0  0
   61.2202   -3.9870  -13.9389 C   0  0  0  0  0  0  0  0  0  0  0  0
   60.4608   -3.4750  -15.1259 C   0  0  0  0  0  0  0  0  0  0  0  0
   61.1284   -3.2167  -16.3096 C   0  0  0  0  0  0  0  0  0  0  0  0
   60.5052   -2.7483  -17.4436 C   0  0  0  0  0  0  0  0  0  0  0  0
   59.1487   -2.5155  -17.4297 C   0  0  0  0  0  0  0  0  0  0  0  0
   58.4822   -2.7700  -16.2585 C   0  0  0  0  0  0  0  0  0  0  0  0
   59.1038   -3.2456  -15.1005 C   0  0  0  0  0  0  0  0  0  0  0  0
   56.1622   -5.6247   -5.8788 C   0  0  0  0  0  0  0  0  0  0  0  0
   55.9760   -4.6453   -4.9243 C   0  0  0  0  0  0  0  0  0  0  0  0
   55.5576   -4.9782   -3.6498 C   0  0  0  0  0  0  0  0  0  0  0  0
   55.3107   -6.2743   -3.2753 C   0  0  0  0  0  0  0  0  0  0  0  0
   55.4922   -7.2621   -4.2169 C   0  0  0  0  0  0  0  0  0  0  0  0
   55.9084   -6.9356   -5.4863 C   0  0  0  0  0  0  0  0  0  0  0  0
 16 17  1  0  0  0
 17 18  2  0  0  0
 18 19  1  0  0  0
 19 20  2  0  0  0
 20 21  1  0  0  0
 21 22  2  0  0  0
 22 10  1  0  0  0
 10 11  1  0  0  0
 11 12  1  0  0  0
 12 13  1  0  0  0
 13 14  1  0  0  0
 14 15  1  0  0  0
 13  1  1  0  0  0
  1  2  2  0  0  0
  2  3  1  0  0  0
  3  4  2  0  0  0
  4  5  1  0  0  0
  5  6  1  0  0  0
  6  7  1  0  0  0
  7  8  2  0  0  0
  8  9  1  0  0  0
  6 23  1  0  0  0
 23 24  2  0  0  0
 24 25  1  0  0  0
 25 26  2  0  0  0
 26 27  1  0  0  0
 27 28  2  0  0  0
 22 17  1  0  0  0
 15 10  1  0  0  0
  9  1  1  0  0  0
 28 23  1  0  0  0
  9  5  2  0  0  0
M  END
> <minimizedAffinity>
-7.20530

> <CNNscore>
0.2752754688

> <CNNaffinity>
5.8281822205

> <CNN_VS>
1.6043555737

> <CNNaffinity_variance>
0.1246615052

$$$$
[H]c1nc(N2C([H])([H])C([H])([H])N(c3c([H])c([H])c([H])c([H])c3C([H])([H])[H])C([H])([H])C2([H])[H])c2c([H])nn(-c3c([H])c([H])c([H])c([H])c3[H])c2n1


 28 32  0  0  0  0  0  0  0  0999 V2000
   56.2264   -4.4975   -9.1899 C   0  0  0  0  0  0  0  0  0  0  0  0
   56.8540   -5.0972   -8.1695 N   0  0  0  0  0  0  0  0  0  0  0  0
   56.2343   -5.4113   -7.0239 C   0  0  0  0  0  0  0  0  0  0  0  0
   54.9431   -5.1288   -6.8631 N   0  0  0  0  0  0  0  0  0  0  0  0
   54.2506   -4.5314   -7.8364 C   0  0  0  0  0  0  0  0  0  0  0  0
   52.9576   -4.1314   -7.9539 N   0  0  0  0  0  0  0  0  0  0  0  0
   52.7729   -3.5828   -9.1386 N   0  0  0  0  0  0  0  0  0  0  0  0
   53.9398   -3.6141   -9.8159 C   0  0  0  0  0  0  0  0  0  0  0  0
   54.8973   -4.2068   -9.0243 C   0  0  0  0  0  0  0  0  0  0  0  0
   58.0368   -3.7716  -12.9551 N   0  0  0  0  0  0  0  0  0  0  0  0
   56.6377   -3.5395  -12.6902 C   0  0  0  0  0  0  0  0  0  0  0  0
   56.5200   -3.0676  -11.2617 C   0  0  0  0  0  0  0  0  0  0  0  0
   56.8693   -4.1642  -10.3959 N   0  0  0  0  0  0  0  0  0  0  0  0
   57.9902   -4.9949  -10.8168 C   0  0  0  0  0  0  0  0  0  0  0  0
   58.8359   -4.2734  -11.8542 C   0  0  0  0  0  0  0  0  0  0  0  0
   56.4711   -3.6230  -15.3933 C   0  0  0  0  0  0  0  0  0  0  0  0
   57.9634   -3.4838  -15.3579 C   0  0  0  0  0  0  0  0  0  0  0  0
   58.6619   -3.2723  -16.5329 C   0  0  0  0  0  0  0  0  0  0  0  0
   60.0299   -3.1318  -16.5857 C   0  0  0  0  0  0  0  0  0  0  0  0
   60.7678   -3.2004  -15.4259 C   0  0  0  0  0  0  0  0  0  0  0  0
   60.0800   -3.4100  -14.2581 C   0  0  0  0  0  0  0  0  0  0  0  0
   58.6914   -3.5543  -14.1917 C   0  0  0  0  0  0  0  0  0  0  0  0
   51.9776   -4.2940   -6.9363 C   0  0  0  0  0  0  0  0  0  0  0  0
   51.9961   -5.3345   -6.0297 C   0  0  0  0  0  0  0  0  0  0  0  0
   51.0149   -5.4395   -5.0621 C   0  0  0  0  0  0  0  0  0  0  0  0
   49.9919   -4.5322   -4.9551 C   0  0  0  0  0  0  0  0  0  0  0  0
   49.9604   -3.4888   -5.8526 C   0  0  0  0  0  0  0  0  0  0  0  0
   50.9345   -3.3802   -6.8171 C   0  0  0  0  0  0  0  0  0  0  0  0
 16 17  1  0  0  0
 17 18  2  0  0  0
 18 19  1  0  0  0
 19 20  2  0  0  0
 20 21  1  0  0  0
 21 22  2  0  0  0
 22 10  1  0  0  0
 10 11  1  0  0  0
 11 12  1  0  0  0
 12 13  1  0  0  0
 13 14  1  0  0  0
 14 15  1  0  0  0
 13  1  1  0  0  0
  1  2  2  0  0  0
  2  3  1  0  0  0
  3  4  2  0  0  0
  4  5  1  0  0  0
  5  6  1  0  0  0
  6  7  1  0  0  0
  7  8  2  0  0  0
  8  9  1  0  0  0
  6 23  1  0  0  0
 23 24  2  0  0  0
 24 25  1  0  0  0
 25 26  2  0  0  0
 26 27  1  0  0  0
 27 28  2  0  0  0
 22 17  1  0  0  0
 15 10  1  0  0  0
  9  1  1  0  0  0
 28 23  1  0  0  0
  9  5  2  0  0  0
M  END
> <minimizedAffinity>
-9.03617

> <CNNscore>
0.2700647116

> <CNNaffinity>
6.3972902298

> <CNN_VS>
1.7276823521

> <CNNaffinity_variance>
0.1259693503

$$$$
[H]c1nc(N2C([H])([H])C([H])([H])N(c3c([H])c([H])c([H])c([H])c3C([H])([H])[H])C([H])([H])C2([H])[H])c2c([H])nn(-c3c([H])c([H])c([H])c([H])c3[H])c2n1


 28 32  0  0  0  0  0  0  0  0999 V2000
   58.7386   -6.5386   -9.6085 C   0  0  0  0  0  0  0  0  0  0  0  0
   58.8390   -7.3350  -10.6810 N   0  0  0  0  0  0  0  0  0  0  0  0
   59.9360   -8.0578  -10.9444 C   0  0  0  0  0  0  0  0  0  0  0  0
   60.9849   -8.0034  -10.1260 N   0  0  0  0  0  0  0  0  0  0  0  0
   60.9588   -7.2315   -9.0364 C   0  0  0  0  0  0  0  0  0  0  0  0
   61.8544   -6.9818   -8.0458 N   0  0  0  0  0  0  0  0  0  0  0  0
   61.3335   -6.1276   -7.1871 N   0  0  0  0  0  0  0  0  0  0  0  0
   60.0901   -5.8039   -7.5999 C   0  0  0  0  0  0  0  0  0  0  0  0
   59.8183   -6.4826   -8.7662 C   0  0  0  0  0  0  0  0  0  0  0  0
   55.1011   -4.5207   -8.7852 N   0  0  0  0  0  0  0  0  0  0  0  0
   55.7827   -5.3508   -7.8221 C   0  0  0  0  0  0  0  0  0  0  0  0
   57.2651   -5.1862   -8.0518 C   0  0  0  0  0  0  0  0  0  0  0  0
   57.5909   -5.7764   -9.3245 N   0  0  0  0  0  0  0  0  0  0  0  0
   56.6397   -5.5573  -10.4066 C   0  0  0  0  0  0  0  0  0  0  0  0
   55.7219   -4.3874  -10.0887 C   0  0  0  0  0  0  0  0  0  0  0  0
   55.0562   -1.6229   -8.9249 C   0  0  0  0  0  0  0  0  0  0  0  0
   53.8459   -2.4563   -8.6280 C   0  0  0  0  0  0  0  0  0  0  0  0
   52.6269   -1.8423   -8.4038 C   0  0  0  0  0  0  0  0  0  0  0  0
   51.4699   -2.5344   -8.1278 C   0  0  0  0  0  0  0  0  0  0  0  0
   51.4959   -3.9091   -8.0653 C   0  0  0  0  0  0  0  0  0  0  0  0
   52.7022   -4.5228   -8.2868 C   0  0  0  0  0  0  0  0  0  0  0  0
   53.8837   -3.8310   -8.5678 C   0  0  0  0  0  0  0  0  0  0  0  0
   63.1480   -7.5682   -7.9747 C   0  0  0  0  0  0  0  0  0  0  0  0
   63.3680   -8.9266   -8.0811 C   0  0  0  0  0  0  0  0  0  0  0  0
   64.6497   -9.4379   -8.0041 C   0  0  0  0  0  0  0  0  0  0  0  0
   65.7479   -8.6369   -7.8216 C   0  0  0  0  0  0  0  0  0  0  0  0
   65.5440   -7.2797   -7.7138 C   0  0  0  0  0  0  0  0  0  0  0  0
   64.2704   -6.7663   -7.7898 C   0  0  0  0  0  0  0  0  0  0  0  0
 16 17  1  0  0  0
 17 18  2  0  0  0
 18 19  1  0  0  0
 19 20  2  0  0  0
 20 21  1  0  0  0
 21 22  2  0  0  0
 22 10  1  0  0  0
 10 11  1  0  0  0
 11 12  1  0  0  0
 12 13  1  0  0  0
 13 14  1  0  0  0
 14 15  1  0  0  0
 13  1  1  0  0  0
  1  2  2  0  0  0
  2  3  1  0  0  0
  3  4  2  0  0  0
  4  5  1  0  0  0
  5  6  1  0  0  0
  6  7  1  0  0  0
  7  8  2  0  0  0
  8  9  1  0  0  0
  6 23  1  0  0  0
 23 24  2  0  0  0
 24 25  1  0  0  0
 25 26  2  0  0  0
 26 27  1  0  0  0
 27 28  2  0  0  0
 22 17  1  0  0  0
 15 10  1  0  0  0
  9  1  1  0  0  0
 28 23  1  0  0  0
  9  5  2  0  0  0
M  END
> <minimizedAffinity>
5.42674

> <CNNscore>
0.2522709966

> <CNNaffinity>
5.3788142204

> <CNN_VS>
1.3569188118

> <CNNaffinity_variance>
0.5046125650

$$$$
[H]c1nc(N2C([H])([H])C([H])([H])N(c3c([H])c([H])c([H])c([H])c3C([H])([H])[H])C([H])([H])C2([H])[H])c2c([H])nn(-c3c([H])c([H])c([H])c([H])c3[H])c2n1


 28 32  0  0  0  0  0  0  0  0999 V2000
   58.3552   -2.5024  -16.0306 C   0  0  0  0  0  0  0  0  0  0  0  0
   58.0878   -1.3588  -16.6751 N   0  0  0  0  0  0  0  0  0  0  0  0
   59.0473   -0.5763  -17.1873 C   0  0  0  0  0  0  0  0  0  0  0  0
   60.3275   -0.9225  -17.0668 N   0  0  0  0  0  0  0  0  0  0  0  0
   60.6716   -2.0489  -16.4371 C   0  0  0  0  0  0  0  0  0  0  0  0
   61.8635   -2.6428  -16.1679 N   0  0  0  0  0  0  0  0  0  0  0  0
   61.6564   -3.7645  -15.5065 N   0  0  0  0  0  0  0  0  0  0  0  0
   60.3278   -3.9240  -15.3316 C   0  0  0  0  0  0  0  0  0  0  0  0
   59.6728   -2.8586  -15.9067 C   0  0  0  0  0  0  0  0  0  0  0  0
   55.4138   -4.8705  -14.1016 N   0  0  0  0  0  0  0  0  0  0  0  0
   55.2414   -3.4661  -14.3830 C   0  0  0  0  0  0  0  0  0  0  0  0
   55.9362   -3.1782  -15.6913 C   0  0  0  0  0  0  0  0  0  0  0  0
   57.3542   -3.3297  -15.4899 N   0  0  0  0  0  0  0  0  0  0  0  0
   57.7775   -4.4427  -14.6499 C   0  0  0  0  0  0  0  0  0  0  0  0
   56.6657   -5.4716  -14.5181 C   0  0  0  0  0  0  0  0  0  0  0  0
   55.8833   -7.7315  -13.9859 C   0  0  0  0  0  0  0  0  0  0  0  0
   54.6774   -7.0657  -13.3941 C   0  0  0  0  0  0  0  0  0  0  0  0
   53.7180   -7.8273  -12.7514 C   0  0  0  0  0  0  0  0  0  0  0  0
   52.5853   -7.2937  -12.1804 C   0  0  0  0  0  0  0  0  0  0  0  0
   52.3685   -5.9357  -12.2357 C   0  0  0  0  0  0  0  0  0  0  0  0
   53.3167   -5.1761  -12.8719 C   0  0  0  0  0  0  0  0  0  0  0  0
   54.4708   -5.7062  -13.4555 C   0  0  0  0  0  0  0  0  0  0  0  0
   63.1243   -2.1104  -16.5542 C   0  0  0  0  0  0  0  0  0  0  0  0
   64.1293   -2.8765  -17.1092 C   0  0  0  0  0  0  0  0  0  0  0  0
   65.3347   -2.3015  -17.4649 C   0  0  0  0  0  0  0  0  0  0  0  0
   65.5892   -0.9654  -17.2879 C   0  0  0  0  0  0  0  0  0  0  0  0
   64.5961   -0.1887  -16.7353 C   0  0  0  0  0  0  0  0  0  0  0  0
   63.3950   -0.7563  -16.3799 C   0  0  0  0  0  0  0  0  0  0  0  0
 16 17  1  0  0  0
 17 18  2  0  0  0
 18 19  1  0  0  0
 19 20  2  0  0  0
 20 21  1  0  0  0
 21 22  2  0  0  0
 22 10  1  0  0  0
 10 11  1  0  0  0
 11 12  1  0  0  0
 12 13  1  0  0  0
 13 14  1  0  0  0
 14 15  1  0  0  0
 13  1  1  0  0  0
  1  2  2  0  0  0
  2  3  1  0  0  0
  3  4  2  0  0  0
  4  5  1  0  0  0
  5  6  1  0  0  0
  6  7  1  0  0  0
  7  8  2  0  0  0
  8  9  1  0  0  0
  6 23  1  0  0  0
 23 24  2  0  0  0
 24 25  1  0  0  0
 25 26  2  0  0  0
 26 27  1  0  0  0
 27 28  2  0  0  0
 22 17  1  0  0  0
 15 10  1  0  0  0
  9  1  1  0  0  0
 28 23  1  0  0  0
  9  5  2  0  0  0
M  END
> <minimizedAffinity>
41.61020

> <CNNscore>
0.2474698871

> <CNNaffinity>
4.4386725426

> <CNN_VS>
1.0984377861

> <CNNaffinity_variance>
0.2701459229

$$$$
[H]c1nc(N2C([H])([H])C([H])([H])N(c3c([H])c([H])c([H])c([H])c3C([H])([H])[H])C([H])([H])C2([H])[H])c2c([H])nn(-c3c([H])c([H])c([H])c([H])c3[H])c2n1


 28 32  0  0  0  0  0  0  0  0999 V2000
   56.7942   -4.3521  -10.0978 C   0  0  0  0  0  0  0  0  0  0  0  0
   57.0151   -4.0486  -11.3837 N   0  0  0  0  0  0  0  0  0  0  0  0
   58.1618   -4.3457  -12.0099 C   0  0  0  0  0  0  0  0  0  0  0  0
   59.1398   -4.9675  -11.3543 N   0  0  0  0  0  0  0  0  0  0  0  0
   58.9927   -5.3022  -10.0697 C   0  0  0  0  0  0  0  0  0  0  0  0
   59.7955   -5.9251   -9.1680 N   0  0  0  0  0  0  0  0  0  0  0  0
   59.1699   -6.0155   -8.0109 N   0  0  0  0  0  0  0  0  0  0  0  0
   57.9488   -5.4542   -8.1349 C   0  0  0  0  0  0  0  0  0  0  0  0
   57.8010   -4.9921   -9.4230 C   0  0  0  0  0  0  0  0  0  0  0  0
   53.1122   -3.7497   -8.0826 N   0  0  0  0  0  0  0  0  0  0  0  0
   54.3126   -4.2019   -7.4223 C   0  0  0  0  0  0  0  0  0  0  0  0
   55.4813   -3.5239   -8.0944 C   0  0  0  0  0  0  0  0  0  0  0  0
   55.5936   -4.0438   -9.4327 N   0  0  0  0  0  0  0  0  0  0  0  0
   54.3458   -4.2656  -10.1521 C   0  0  0  0  0  0  0  0  0  0  0  0
   53.2067   -3.4925   -9.5063 C   0  0  0  0  0  0  0  0  0  0  0  0
   52.0358   -5.7791   -6.3100 C   0  0  0  0  0  0  0  0  0  0  0  0
   51.3310   -4.4929   -6.6209 C   0  0  0  0  0  0  0  0  0  0  0  0
   50.0998   -4.2283   -6.0485 C   0  0  0  0  0  0  0  0  0  0  0  0
   49.3899   -3.0723   -6.2800 C   0  0  0  0  0  0  0  0  0  0  0  0
   49.9061   -2.1115   -7.1196 C   0  0  0  0  0  0  0  0  0  0  0  0
   51.1265   -2.3691   -7.6897 C   0  0  0  0  0  0  0  0  0  0  0  0
   51.8568   -3.5390   -7.4625 C   0  0  0  0  0  0  0  0  0  0  0  0
   61.1055   -6.3959   -9.4590 C   0  0  0  0  0  0  0  0  0  0  0  0
   61.3867   -7.2429  -10.5118 C   0  0  0  0  0  0  0  0  0  0  0  0
   62.6814   -7.6669  -10.7446 C   0  0  0  0  0  0  0  0  0  0  0  0
   63.7332   -7.2751   -9.9562 C   0  0  0  0  0  0  0  0  0  0  0  0
   63.4678   -6.4303   -8.9023 C   0  0  0  0  0  0  0  0  0  0  0  0
   62.1812   -6.0058   -8.6667 C   0  0  0  0  0  0  0  0  0  0  0  0
 16 17  1  0  0  0
 17 18  2  0  0  0
 18 19  1  0  0  0
 19 20  2  0  0  0
 20 21  1  0  0  0
 21 22  2  0  0  0
 22 10  1  0  0  0
 10 11  1  0  0  0
 11 12  1  0  0  0
 12 13  1  0  0  0
 13 14  1  0  0  0
 14 15  1  0  0  0
 13  1  1  0  0  0
  1  2  2  0  0  0
  2  3  1  0  0  0
  3  4  2  0  0  0
  4  5  1  0  0  0
  5  6  1  0  0  0
  6  7  1  0  0  0
  7  8  2  0  0  0
  8  9  1  0  0  0
  6 23  1  0  0  0
 23 24  2  0  0  0
 24 25  1  0  0  0
 25 26  2  0  0  0
 26 27  1  0  0  0
 27 28  2  0  0  0
 22 17  1  0  0  0
 15 10  1  0  0  0
  9  1  1  0  0  0
 28 23  1  0  0  0
  9  5  2  0  0  0
M  END
> <minimizedAffinity>
-9.60967

> <CNNscore>
0.2370451689

> <CNNaffinity>
6.2281870842

> <CNN_VS>
1.4763616323

> <CNNaffinity_variance>
0.1421364099

$$$$
[H]Oc1c([H])c([H])c(C([H])([H])[C@@]([H])(C(=O)N([H])[C@]([H])(C(=O)N2C([H])([H])C([H])([H])C([H])([H])[C@@]2([H])C(=O)N([H])[C@]([H])(C(=O)N([H])[H])C([H])([H])c2c([H])n([H])c3c([H])c([H])c([H])c([H])c23)C([H])([H])[H])N([H])[H])c([H])c1[H]


 47 50  0  0  0  0  0  0  0  0999 V2000
   53.1096   -5.7822   -2.5386 C   0  0  0  0  0  0  0  0  0  0  0  0
   53.1012   -4.5360   -2.3437 O   0  0  0  0  0  0  0  0  0  0  0  0
   54.2293   -6.4794   -3.0312 N   0  0  0  0  0  0  0  0  0  0  0  0
   54.3245   -7.8931   -3.2633 C   0  0  0  0  0  0  0  0  0  0  0  0
   55.7948   -8.1876   -2.9511 C   0  0  0  0  0  0  0  0  0  0  0  0
   56.4368   -6.8616   -2.6303 C   0  0  0  0  0  0  0  0  0  0  0  0
   55.5011   -5.9047   -3.3892 C   0  0  0  0  0  0  0  0  0  0  0  0
   55.7736   -5.9450   -4.8359 C   0  0  0  0  0  0  0  0  0  0  0  0
   56.8418   -6.4384   -5.2497 O   0  0  0  0  0  0  0  0  0  0  0  0
   54.8397   -5.4288   -5.7472 N   0  0  0  0  0  0  0  0  0  0  0  0
   53.9508   -5.0237   -5.3995 H   0  0  0  0  0  0  0  0  0  0  0  0
   55.0352   -5.4174   -7.2057 C   0  0  0  0  0  0  0  0  0  0  0  0
   55.7814   -4.2600   -7.6454 C   0  0  0  0  0  0  0  0  0  0  0  0
   56.3907   -4.1016   -8.8988 N   0  0  0  0  0  0  0  0  0  0  0  0
   55.8969   -3.2982   -6.7978 O   0  0  0  0  0  0  0  0  0  0  0  0
   56.5081   -3.1583   -9.3449 H   0  0  0  0  0  0  0  0  0  0  0  0
   56.7539   -4.9147   -9.4382 H   0  0  0  0  0  0  0  0  0  0  0  0
   53.6668   -5.6349   -7.7752 C   0  0  0  0  0  0  0  0  0  0  0  0
   52.8501   -4.4458   -7.9810 C   0  0  0  0  0  0  0  0  0  0  0  0
   53.0660   -3.4702   -8.9440 C   0  0  0  0  0  0  0  0  0  0  0  0
   52.1544   -2.5080   -8.8011 N   0  0  0  0  0  0  0  0  0  0  0  0
   51.3236   -2.8099   -7.7625 C   0  0  0  0  0  0  0  0  0  0  0  0
   50.2368   -2.1545   -7.2407 C   0  0  0  0  0  0  0  0  0  0  0  0
   49.5400   -2.6864   -6.1875 C   0  0  0  0  0  0  0  0  0  0  0  0
   49.9340   -3.8871   -5.6497 C   0  0  0  0  0  0  0  0  0  0  0  0
   51.0233   -4.5268   -6.1837 C   0  0  0  0  0  0  0  0  0  0  0  0
   51.7671   -4.0256   -7.2559 C   0  0  0  0  0  0  0  0  0  0  0  0
   52.0889   -1.6512   -9.3981 H   0  0  0  0  0  0  0  0  0  0  0  0
   50.6859   -5.6643   -2.6564 C   0  0  0  0  0  0  0  0  0  0  0  0
   51.8626   -6.5267   -2.2218 C   0  0  0  0  0  0  0  0  0  0  0  0
   51.7645   -6.7783   -0.7902 N   0  0  0  0  0  0  0  0  0  0  0  0
   51.3522   -8.0435   -0.3331 C   0  0  0  0  0  0  0  0  0  0  0  0
   51.0799   -8.9266   -1.2181 O   0  0  0  0  0  0  0  0  0  0  0  0
   52.0072   -5.9926   -0.1529 H   0  0  0  0  0  0  0  0  0  0  0  0
   51.2276   -8.3721    1.0886 C   0  0  0  0  0  0  0  0  0  0  0  0
   52.1593   -7.5521    1.8458 N   0  0  0  0  0  0  0  0  0  0  0  0
   52.8390   -7.0654    1.2002 H   0  0  0  0  0  0  0  0  0  0  0  0
   52.6547   -8.1122    2.5861 H   0  0  0  0  0  0  0  0  0  0  0  0
   49.8192   -8.1076    1.6384 C   0  0  0  0  0  0  0  0  0  0  0  0
   48.9616   -9.3090    1.4383 C   0  0  0  0  0  0  0  0  0  0  0  0
   49.4350  -10.6003    1.4153 C   0  0  0  0  0  0  0  0  0  0  0  0
   48.6367  -11.7095    1.2303 C   0  0  0  0  0  0  0  0  0  0  0  0
   47.2711  -11.5581    1.0533 C   0  0  0  0  0  0  0  0  0  0  0  0
   46.4424  -12.6562    0.8646 O   0  0  0  0  0  0  0  0  0  0  0  0
   46.7894  -10.2684    1.0750 C   0  0  0  0  0  0  0  0  0  0  0  0
   47.5822   -9.1548    1.2593 C   0  0  0  0  0  0  0  0  0  0  0  0
   45.9788  -13.1804    1.5643 H   0  0  0  0  0  0  0  0  0  0  0  0
 29 30  1  0  0  0
 30 31  1  0  0  0
 31 32  1  0  0  0
 32 33  2  0  0  0
 32 35  1  0  0  0
 35 36  1  0  0  0
 35 39  1  0  0  0
 39 40  1  0  0  0
 40 41  2  0  0  0
 41 42  1  0  0  0
 42 43  2  0  0  0
 43 44  1  0  0  0
 43 45  1  0  0  0
 45 46  2  0  0  0
 30  1  1  0  0  0
  1  2  2  0  0  0
  1  3  1  0  0  0
  3  4  1  0  0  0
  4  5  1  0  0  0
  5  6  1  0  0  0
  6  7  1  0  0  0
  7  8  1  0  0  0
  8  9  2  0  0  0
  8 10  1  0  0  0
 10 12  1  0  0  0
 12 18  1  0  0  0
 18 19  1  0  0  0
 19 20  2  0  0  0
 20 21  1  0  0  0
 21 22  1  0  0  0
 22 23  2  0  0  0
 23 24  1  0  0  0
 24 25  2  0  0  0
 25 26  1  0  0  0
 26 27  2  0  0  0
 12 13  1  0  0  0
 13 14  1  0  0  0
 13 15  2  0  0  0
 46 40  1  0  0  0
  7  3  1  0  0  0
 27 19  1  0  0  0
 27 22  1  0  0  0
 31 34  1  0  0  0
 36 37  1  0  0  0
 36 38  1  0  0  0
 44 47  1  0  0  0
 10 11  1  0  0  0
 21 28  1  0  0  0
 14 16  1  0  0  0
 14 17  1  0  0  0
M  END
> <minimizedAffinity>
-10.37477

> <CNNscore>
0.3311301768

> <CNNaffinity>
7.0538239479

> <CNN_VS>
2.3357338905

> <CNNaffinity_variance>
0.1009294614

$$$$
[H]Oc1c([H])c([H])c(C([H])([H])[C@@]([H])(C(=O)N([H])[C@]([H])(C(=O)N2C([H])([H])C([H])([H])C([H])([H])[C@@]2([H])C(=O)N([H])[C@]([H])(C(=O)N([H])[H])C([H])([H])c2c([H])n([H])c3c([H])c([H])c([H])c([H])c23)C([H])([H])[H])N([H])[H])c([H])c1[H]


 47 50  0  0  0  0  0  0  0  0999 V2000
   55.9462   -6.2136   -5.4921 C   0  0  0  0  0  0  0  0  0  0  0  0
   55.7855   -7.4492   -5.6884 O   0  0  0  0  0  0  0  0  0  0  0  0
   55.8656   -5.6167   -4.2195 N   0  0  0  0  0  0  0  0  0  0  0  0
   56.0524   -4.2269   -3.9113 C   0  0  0  0  0  0  0  0  0  0  0  0
   56.6822   -4.2727   -2.5159 C   0  0  0  0  0  0  0  0  0  0  0  0
   56.7304   -5.7260   -2.1170 C   0  0  0  0  0  0  0  0  0  0  0  0
   55.5877   -6.2924   -2.9776 C   0  0  0  0  0  0  0  0  0  0  0  0
   54.2777   -5.9424   -2.4029 C   0  0  0  0  0  0  0  0  0  0  0  0
   54.2220   -5.2306   -1.3802 O   0  0  0  0  0  0  0  0  0  0  0  0
   53.0956   -6.4085   -2.9985 N   0  0  0  0  0  0  0  0  0  0  0  0
   53.1459   -6.9961   -3.8514 H   0  0  0  0  0  0  0  0  0  0  0  0
   51.7474   -6.1177   -2.4854 C   0  0  0  0  0  0  0  0  0  0  0  0
   51.4510   -6.8625   -1.2824 C   0  0  0  0  0  0  0  0  0  0  0  0
   52.2528   -6.9220   -0.1332 N   0  0  0  0  0  0  0  0  0  0  0  0
   50.3530   -7.5342   -1.2816 O   0  0  0  0  0  0  0  0  0  0  0  0
   51.8436   -7.0600    0.8240 H   0  0  0  0  0  0  0  0  0  0  0  0
   53.2890   -6.8333   -0.1828 H   0  0  0  0  0  0  0  0  0  0  0  0
   50.8438   -6.2940   -3.6672 C   0  0  0  0  0  0  0  0  0  0  0  0
   50.2258   -5.0870   -4.2006 C   0  0  0  0  0  0  0  0  0  0  0  0
   49.1409   -4.4197   -3.6496 C   0  0  0  0  0  0  0  0  0  0  0  0
   48.8176   -3.3918   -4.4346 N   0  0  0  0  0  0  0  0  0  0  0  0
   49.6601   -3.3463   -5.5060 C   0  0  0  0  0  0  0  0  0  0  0  0
   49.7446   -2.4796   -6.5666 C   0  0  0  0  0  0  0  0  0  0  0  0
   50.7151   -2.6367   -7.5212 C   0  0  0  0  0  0  0  0  0  0  0  0
   51.6112   -3.6720   -7.4145 C   0  0  0  0  0  0  0  0  0  0  0  0
   51.5103   -4.5287   -6.3483 C   0  0  0  0  0  0  0  0  0  0  0  0
   50.5387   -4.4116   -5.3501 C   0  0  0  0  0  0  0  0  0  0  0  0
   48.0343   -2.7222   -4.2527 H   0  0  0  0  0  0  0  0  0  0  0  0
   54.9366   -5.1983   -7.4547 C   0  0  0  0  0  0  0  0  0  0  0  0
   56.2363   -5.3701   -6.6812 C   0  0  0  0  0  0  0  0  0  0  0  0
   57.2196   -6.0155   -7.5410 N   0  0  0  0  0  0  0  0  0  0  0  0
   57.7315   -5.3231   -8.6537 C   0  0  0  0  0  0  0  0  0  0  0  0
   57.2980   -4.1365   -8.8563 O   0  0  0  0  0  0  0  0  0  0  0  0
   57.5057   -6.9838   -7.2904 H   0  0  0  0  0  0  0  0  0  0  0  0
   58.7198   -5.9047   -9.5646 C   0  0  0  0  0  0  0  0  0  0  0  0
   58.6797   -5.1842  -10.8267 N   0  0  0  0  0  0  0  0  0  0  0  0
   57.8321   -4.5557  -10.8717 H   0  0  0  0  0  0  0  0  0  0  0  0
   58.7254   -5.8398  -11.6485 H   0  0  0  0  0  0  0  0  0  0  0  0
   60.1527   -5.8163   -9.0216 C   0  0  0  0  0  0  0  0  0  0  0  0
   61.0120   -6.8351   -9.6868 C   0  0  0  0  0  0  0  0  0  0  0  0
   60.8513   -8.1936   -9.5423 C   0  0  0  0  0  0  0  0  0  0  0  0
   61.6493   -9.1330  -10.1610 C   0  0  0  0  0  0  0  0  0  0  0  0
   62.6858   -8.7264  -10.9853 C   0  0  0  0  0  0  0  0  0  0  0  0
   63.5058   -9.6492  -11.6210 O   0  0  0  0  0  0  0  0  0  0  0  0
   62.8531   -7.3680  -11.1350 C   0  0  0  0  0  0  0  0  0  0  0  0
   62.0589   -6.4232  -10.5191 C   0  0  0  0  0  0  0  0  0  0  0  0
   63.3685  -10.0528  -12.5141 H   0  0  0  0  0  0  0  0  0  0  0  0
 29 30  1  0  0  0
 30 31  1  0  0  0
 31 32  1  0  0  0
 32 33  2  0  0  0
 32 35  1  0  0  0
 35 36  1  0  0  0
 35 39  1  0  0  0
 39 40  1  0  0  0
 40 41  2  0  0  0
 41 42  1  0  0  0
 42 43  2  0  0  0
 43 44  1  0  0  0
 43 45  1  0  0  0
 45 46  2  0  0  0
 30  1  1  0  0  0
  1  2  2  0  0  0
  1  3  1  0  0  0
  3  4  1  0  0  0
  4  5  1  0  0  0
  5  6  1  0  0  0
  6  7  1  0  0  0
  7  8  1  0  0  0
  8  9  2  0  0  0
  8 10  1  0  0  0
 10 12  1  0  0  0
 12 18  1  0  0  0
 18 19  1  0  0  0
 19 20  2  0  0  0
 20 21  1  0  0  0
 21 22  1  0  0  0
 22 23  2  0  0  0
 23 24  1  0  0  0
 24 25  2  0  0  0
 25 26  1  0  0  0
 26 27  2  0  0  0
 12 13  1  0  0  0
 13 14  1  0  0  0
 13 15  2  0  0  0
 46 40  1  0  0  0
  7  3  1  0  0  0
 27 19  1  0  0  0
 27 22  1  0  0  0
 31 34  1  0  0  0
 36 37  1  0  0  0
 36 38  1  0  0  0
 44 47  1  0  0  0
 10 11  1  0  0  0
 21 28  1  0  0  0
 14 16  1  0  0  0
 14 17  1  0  0  0
M  END
> <minimizedAffinity>
-9.63654

> <CNNscore>
0.2341322005

> <CNNaffinity>
6.5406455994

> <CNN_VS>
1.5313757658

> <CNNaffinity_variance>
0.1565473974

$$$$
[H]Oc1c([H])c([H])c(C([H])([H])[C@@]([H])(C(=O)N([H])[C@]([H])(C(=O)N2C([H])([H])C([H])([H])C([H])([H])[C@@]2([H])C(=O)N([H])[C@]([H])(C(=O)N([H])[H])C([H])([H])c2c([H])n([H])c3c([H])c([H])c([H])c([H])c23)C([H])([H])[H])N([H])[H])c([H])c1[H]


 47 50  0  0  0  0  0  0  0  0999 V2000
   56.3752   -7.3921   -2.3127 C   0  0  0  0  0  0  0  0  0  0  0  0
   56.8209   -7.9337   -3.3611 O   0  0  0  0  0  0  0  0  0  0  0  0
   55.0036   -7.1806   -2.0756 N   0  0  0  0  0  0  0  0  0  0  0  0
   54.4172   -6.5895   -0.9059 C   0  0  0  0  0  0  0  0  0  0  0  0
   53.0857   -7.3363   -0.7822 C   0  0  0  0  0  0  0  0  0  0  0  0
   53.0030   -8.2607   -1.9705 C   0  0  0  0  0  0  0  0  0  0  0  0
   53.9223   -7.5272   -2.9625 C   0  0  0  0  0  0  0  0  0  0  0  0
   53.2410   -6.3555   -3.5383 C   0  0  0  0  0  0  0  0  0  0  0  0
   53.9072   -5.3544   -3.8695 O   0  0  0  0  0  0  0  0  0  0  0  0
   51.8485   -6.3603   -3.7120 N   0  0  0  0  0  0  0  0  0  0  0  0
   51.2986   -7.1962   -3.4398 H   0  0  0  0  0  0  0  0  0  0  0  0
   51.0862   -5.2307   -4.2674 C   0  0  0  0  0  0  0  0  0  0  0  0
   49.8817   -4.9644   -3.5137 C   0  0  0  0  0  0  0  0  0  0  0  0
   48.8775   -4.0500   -3.8638 N   0  0  0  0  0  0  0  0  0  0  0  0
   49.7332   -5.6268   -2.4201 O   0  0  0  0  0  0  0  0  0  0  0  0
   47.8738   -4.1949   -3.5916 H   0  0  0  0  0  0  0  0  0  0  0  0
   49.0874   -3.1872   -4.4076 H   0  0  0  0  0  0  0  0  0  0  0  0
   50.9531   -5.5418   -5.7267 C   0  0  0  0  0  0  0  0  0  0  0  0
   51.2836   -4.4680   -6.6547 C   0  0  0  0  0  0  0  0  0  0  0  0
   50.4459   -3.4227   -7.0171 C   0  0  0  0  0  0  0  0  0  0  0  0
   51.0631   -2.6643   -7.9234 N   0  0  0  0  0  0  0  0  0  0  0  0
   52.3021   -3.1717   -8.1832 C   0  0  0  0  0  0  0  0  0  0  0  0
   53.3084   -2.7468   -9.0137 C   0  0  0  0  0  0  0  0  0  0  0  0
   54.4937   -3.4310   -9.0814 C   0  0  0  0  0  0  0  0  0  0  0  0
   54.6751   -4.5529   -8.3103 C   0  0  0  0  0  0  0  0  0  0  0  0
   53.6576   -4.9630   -7.4872 C   0  0  0  0  0  0  0  0  0  0  0  0
   52.4309   -4.3008   -7.3834 C   0  0  0  0  0  0  0  0  0  0  0  0
   50.6552   -1.8087   -8.3665 H   0  0  0  0  0  0  0  0  0  0  0  0
   57.9647   -5.6432   -1.7496 C   0  0  0  0  0  0  0  0  0  0  0  0
   57.3702   -6.9680   -1.2929 C   0  0  0  0  0  0  0  0  0  0  0  0
   58.4373   -7.9529   -1.1760 N   0  0  0  0  0  0  0  0  0  0  0  0
   58.6336   -8.6241    0.0449 C   0  0  0  0  0  0  0  0  0  0  0  0
   57.8468   -8.3285    1.0097 O   0  0  0  0  0  0  0  0  0  0  0  0
   59.0231   -8.1198   -2.0195 H   0  0  0  0  0  0  0  0  0  0  0  0
   59.6848   -9.6247    0.2406 C   0  0  0  0  0  0  0  0  0  0  0  0
   60.3529   -9.3660    1.5057 N   0  0  0  0  0  0  0  0  0  0  0  0
   60.0737   -8.4226    1.8898 H   0  0  0  0  0  0  0  0  0  0  0  0
   61.3973   -9.4601    1.4183 H   0  0  0  0  0  0  0  0  0  0  0  0
   59.1392  -11.0587    0.2852 C   0  0  0  0  0  0  0  0  0  0  0  0
   59.6664  -11.8392   -0.8688 C   0  0  0  0  0  0  0  0  0  0  0  0
   59.9175  -11.3054   -2.1115 C   0  0  0  0  0  0  0  0  0  0  0  0
   60.4063  -12.0322   -3.1768 C   0  0  0  0  0  0  0  0  0  0  0  0
   60.6737  -13.3834   -3.0288 C   0  0  0  0  0  0  0  0  0  0  0  0
   61.1659  -14.1407   -4.0834 O   0  0  0  0  0  0  0  0  0  0  0  0
   60.4249  -13.9252   -1.7877 C   0  0  0  0  0  0  0  0  0  0  0  0
   59.9359  -13.2041   -0.7182 C   0  0  0  0  0  0  0  0  0  0  0  0
   62.1158  -14.2960   -4.3133 H   0  0  0  0  0  0  0  0  0  0  0  0
 29 30  1  0  0  0
 30 31  1  0  0  0
 31 32  1  0  0  0
 32 33  2  0  0  0
 32 35  1  0  0  0
 35 36  1  0  0  0
 35 39  1  0  0  0
 39 40  1  0  0  0
 40 41  2  0  0  0
 41 42  1  0  0  0
 42 43  2  0  0  0
 43 44  1  0  0  0
 43 45  1  0  0  0
 45 46  2  0  0  0
 30  1  1  0  0  0
  1  2  2  0  0  0
  1  3  1  0  0  0
  3  4  1  0  0  0
  4  5  1  0  0  0
  5  6  1  0  0  0
  6  7  1  0  0  0
  7  8  1  0  0  0
  8  9  2  0  0  0
  8 10  1  0  0  0
 10 12  1  0  0  0
 12 18  1  0  0  0
 18 19  1  0  0  0
 19 20  2  0  0  0
 20 21  1  0  0  0
 21 22  1  0  0  0
 22 23  2  0  0  0
 23 24  1  0  0  0
 24 25  2  0  0  0
 25 26  1  0  0  0
 26 27  2  0  0  0
 12 13  1  0  0  0
 13 14  1  0  0  0
 13 15  2  0  0  0
 46 40  1  0  0  0
  7  3  1  0  0  0
 27 19  1  0  0  0
 27 22  1  0  0  0
 31 34  1  0  0  0
 36 37  1  0  0  0
 36 38  1  0  0  0
 44 47  1  0  0  0
 10 11  1  0  0  0
 21 28  1  0  0  0
 14 16  1  0  0  0
 14 17  1  0  0  0
M  END
> <minimizedAffinity>
-8.29543

> <CNNscore>
0.2289465964

> <CNNaffinity>
6.6097211838

> <CNN_VS>
1.5132731199

> <CNNaffinity_variance>
0.1417294443

$$$$
[H]Oc1c([H])c([H])c(C([H])([H])[C@@]([H])(C(=O)N([H])[C@]([H])(C(=O)N2C([H])([H])C([H])([H])C([H])([H])[C@@]2([H])C(=O)N([H])[C@]([H])(C(=O)N([H])[H])C([H])([H])c2c([H])n([H])c3c([H])c([H])c([H])c([H])c23)C([H])([H])[H])N([H])[H])c([H])c1[H]


 47 50  0  0  0  0  0  0  0  0999 V2000
   55.2651   -7.9075   -2.5005 C   0  0  0  0  0  0  0  0  0  0  0  0
   55.5066   -8.6097   -3.5202 O   0  0  0  0  0  0  0  0  0  0  0  0
   53.9999   -7.3542   -2.2257 N   0  0  0  0  0  0  0  0  0  0  0  0
   53.6408   -6.5619   -1.0835 C   0  0  0  0  0  0  0  0  0  0  0  0
   52.1789   -6.9533   -0.8479 C   0  0  0  0  0  0  0  0  0  0  0  0
   51.8087   -7.9070   -1.9554 C   0  0  0  0  0  0  0  0  0  0  0  0
   52.8174   -7.4864   -3.0383 C   0  0  0  0  0  0  0  0  0  0  0  0
   52.4036   -6.2253   -3.6766 C   0  0  0  0  0  0  0  0  0  0  0  0
   53.2632   -5.3708   -3.9709 O   0  0  0  0  0  0  0  0  0  0  0  0
   51.0492   -5.9814   -3.9508 N   0  0  0  0  0  0  0  0  0  0  0  0
   50.3381   -6.6963   -3.7090 H   0  0  0  0  0  0  0  0  0  0  0  0
   50.5469   -4.7466   -4.5742 C   0  0  0  0  0  0  0  0  0  0  0  0
   49.3331   -4.2752   -3.9462 C   0  0  0  0  0  0  0  0  0  0  0  0
   48.6155   -3.1244   -4.3036 N   0  0  0  0  0  0  0  0  0  0  0  0
   48.8854   -4.9797   -2.9664 O   0  0  0  0  0  0  0  0  0  0  0  0
   47.5756   -3.0550   -4.1750 H   0  0  0  0  0  0  0  0  0  0  0  0
   49.0861   -2.2893   -4.7101 H   0  0  0  0  0  0  0  0  0  0  0  0
   50.5136   -5.0468   -6.0415 C   0  0  0  0  0  0  0  0  0  0  0  0
   51.0926   -4.0433   -6.9252 C   0  0  0  0  0  0  0  0  0  0  0  0
   50.4603   -2.8896   -7.3668 C   0  0  0  0  0  0  0  0  0  0  0  0
   51.2726   -2.2401   -8.2010 N   0  0  0  0  0  0  0  0  0  0  0  0
   52.4429   -2.9275   -8.3344 C   0  0  0  0  0  0  0  0  0  0  0  0
   53.5808   -2.6644   -9.0548 C   0  0  0  0  0  0  0  0  0  0  0  0
   54.6524   -3.5169   -9.0036 C   0  0  0  0  0  0  0  0  0  0  0  0
   54.5859   -4.6452   -8.2234 C   0  0  0  0  0  0  0  0  0  0  0  0
   53.4400   -4.8919   -7.5114 C   0  0  0  0  0  0  0  0  0  0  0  0
   52.3206   -4.0548   -7.5311 C   0  0  0  0  0  0  0  0  0  0  0  0
   51.0433   -1.3383   -8.6796 H   0  0  0  0  0  0  0  0  0  0  0  0
   56.8554   -6.2334   -1.7454 C   0  0  0  0  0  0  0  0  0  0  0  0
   56.3901   -7.6705   -1.5582 C   0  0  0  0  0  0  0  0  0  0  0  0
   57.4990   -8.5706   -1.8459 N   0  0  0  0  0  0  0  0  0  0  0  0
   58.1143   -9.2742   -0.7943 C   0  0  0  0  0  0  0  0  0  0  0  0
   57.6573   -9.0833    0.3855 O   0  0  0  0  0  0  0  0  0  0  0  0
   57.7962   -8.6545   -2.8394 H   0  0  0  0  0  0  0  0  0  0  0  0
   59.2342  -10.1945   -1.0033 C   0  0  0  0  0  0  0  0  0  0  0  0
   58.8802  -11.4982   -0.4660 N   0  0  0  0  0  0  0  0  0  0  0  0
   58.0023  -11.4360    0.1180 H   0  0  0  0  0  0  0  0  0  0  0  0
   59.6782  -11.9256    0.0704 H   0  0  0  0  0  0  0  0  0  0  0  0
   59.5824  -10.3795   -2.4867 C   0  0  0  0  0  0  0  0  0  0  0  0
   60.6129   -9.3844   -2.8949 C   0  0  0  0  0  0  0  0  0  0  0  0
   61.6505   -8.9736   -2.0907 C   0  0  0  0  0  0  0  0  0  0  0  0
   62.6027   -8.0523   -2.4736 C   0  0  0  0  0  0  0  0  0  0  0  0
   62.5471   -7.4824   -3.7351 C   0  0  0  0  0  0  0  0  0  0  0  0
   63.4914   -6.5520   -4.1481 O   0  0  0  0  0  0  0  0  0  0  0  0
   61.5112   -7.8886   -4.5461 C   0  0  0  0  0  0  0  0  0  0  0  0
   60.5556   -8.8093   -4.1694 C   0  0  0  0  0  0  0  0  0  0  0  0
   64.3472   -6.7360   -4.6097 H   0  0  0  0  0  0  0  0  0  0  0  0
 29 30  1  0  0  0
 30 31  1  0  0  0
 31 32  1  0  0  0
 32 33  2  0  0  0
 32 35  1  0  0  0
 35 36  1  0  0  0
 35 39  1  0  0  0
 39 40  1  0  0  0
 40 41  2  0  0  0
 41 42  1  0  0  0
 42 43  2  0  0  0
 43 44  1  0  0  0
 43 45  1  0  0  0
 45 46  2  0  0  0
 30  1  1  0  0  0
  1  2  2  0  0  0
  1  3  1  0  0  0
  3  4  1  0  0  0
  4  5  1  0  0  0
  5  6  1  0  0  0
  6  7  1  0  0  0
  7  8  1  0  0  0
  8  9  2  0  0  0
  8 10  1  0  0  0
 10 12  1  0  0  0
 12 18  1  0  0  0
 18 19  1  0  0  0
 19 20  2  0  0  0
 20 21  1  0  0  0
 21 22  1  0  0  0
 22 23  2  0  0  0
 23 24  1  0  0  0
 24 25  2  0  0  0
 25 26  1  0  0  0
 26 27  2  0  0  0
 12 13  1  0  0  0
 13 14  1  0  0  0
 13 15  2  0  0  0
 46 40  1  0  0  0
  7  3  1  0  0  0
 27 19  1  0  0  0
 27 22  1  0  0  0
 31 34  1  0  0  0
 36 37  1  0  0  0
 36 38  1  0  0  0
 44 47  1  0  0  0
 10 11  1  0  0  0
 21 28  1  0  0  0
 14 16  1  0  0  0
 14 17  1  0  0  0
M  END
> <minimizedAffinity>
-8.76661

> <CNNscore>
0.2016664594

> <CNNaffinity>
6.6995277405

> <CNN_VS>
1.3510700464

> <CNNaffinity_variance>
0.0168683417

$$$$
[H]Oc1c([H])c([H])c(C([H])([H])[C@@]([H])(C(=O)N([H])[C@]([H])(C(=O)N2C([H])([H])C([H])([H])C([H])([H])[C@@]2([H])C(=O)N([H])[C@]([H])(C(=O)N([H])[H])C([H])([H])c2c([H])n([H])c3c([H])c([H])c([H])c([H])c23)C([H])([H])[H])N([H])[H])c([H])c1[H]


 47 50  0  0  0  0  0  0  0  0999 V2000
   55.0846   -6.1358   -3.2908 C   0  0  0  0  0  0  0  0  0  0  0  0
   55.3938   -7.0671   -4.0836 O   0  0  0  0  0  0  0  0  0  0  0  0
   53.8474   -6.0695   -2.6221 N   0  0  0  0  0  0  0  0  0  0  0  0
   53.4276   -5.0567   -1.6951 C   0  0  0  0  0  0  0  0  0  0  0  0
   52.5394   -5.8378   -0.7220 C   0  0  0  0  0  0  0  0  0  0  0  0
   52.4759   -7.2513   -1.2429 C   0  0  0  0  0  0  0  0  0  0  0  0
   52.7660   -7.0149   -2.7353 C   0  0  0  0  0  0  0  0  0  0  0  0
   51.5812   -6.4678   -3.4178 C   0  0  0  0  0  0  0  0  0  0  0  0
   50.5368   -6.2573   -2.7691 O   0  0  0  0  0  0  0  0  0  0  0  0
   51.6222   -6.1865   -4.7919 N   0  0  0  0  0  0  0  0  0  0  0  0
   52.4938   -6.3584   -5.3268 H   0  0  0  0  0  0  0  0  0  0  0  0
   50.4837   -5.6506   -5.5549 C   0  0  0  0  0  0  0  0  0  0  0  0
   50.3141   -6.3232   -6.8233 C   0  0  0  0  0  0  0  0  0  0  0  0
   49.1464   -6.3316   -7.6002 N   0  0  0  0  0  0  0  0  0  0  0  0
   51.3315   -6.9766   -7.2646 O   0  0  0  0  0  0  0  0  0  0  0  0
   49.1753   -6.4102   -8.6469 H   0  0  0  0  0  0  0  0  0  0  0  0
   48.2011   -6.2619   -7.1694 H   0  0  0  0  0  0  0  0  0  0  0  0
   50.6952   -4.1675   -5.5635 C   0  0  0  0  0  0  0  0  0  0  0  0
   51.2194   -3.5911   -6.7949 C   0  0  0  0  0  0  0  0  0  0  0  0
   50.5519   -2.6974   -7.6205 C   0  0  0  0  0  0  0  0  0  0  0  0
   51.3161   -2.4290   -8.6794 N   0  0  0  0  0  0  0  0  0  0  0  0
   52.4883   -3.1203   -8.5899 C   0  0  0  0  0  0  0  0  0  0  0  0
   53.5883   -3.1651   -9.4091 C   0  0  0  0  0  0  0  0  0  0  0  0
   54.6726   -3.9358   -9.0808 C   0  0  0  0  0  0  0  0  0  0  0  0
   54.6573   -4.6703   -7.9204 C   0  0  0  0  0  0  0  0  0  0  0  0
   53.5487   -4.6138   -7.1149 C   0  0  0  0  0  0  0  0  0  0  0  0
   52.4184   -3.8446   -7.4060 C   0  0  0  0  0  0  0  0  0  0  0  0
   51.0529   -1.7840   -9.4601 H   0  0  0  0  0  0  0  0  0  0  0  0
   56.3090   -4.3503   -4.3929 C   0  0  0  0  0  0  0  0  0  0  0  0
   56.0970   -5.0703   -3.0687 C   0  0  0  0  0  0  0  0  0  0  0  0
   57.3621   -5.6468   -2.6331 N   0  0  0  0  0  0  0  0  0  0  0  0
   57.7594   -5.5172   -1.2896 C   0  0  0  0  0  0  0  0  0  0  0  0
   56.9712   -4.8869   -0.5031 O   0  0  0  0  0  0  0  0  0  0  0  0
   57.9313   -6.1390   -3.3515 H   0  0  0  0  0  0  0  0  0  0  0  0
   59.0161   -6.0672   -0.7769 C   0  0  0  0  0  0  0  0  0  0  0  0
   58.9980   -6.0109    0.6758 N   0  0  0  0  0  0  0  0  0  0  0  0
   58.1938   -5.4173    1.0169 H   0  0  0  0  0  0  0  0  0  0  0  0
   59.9197   -5.6812    1.0620 H   0  0  0  0  0  0  0  0  0  0  0  0
   59.2345   -7.5307   -1.1848 C   0  0  0  0  0  0  0  0  0  0  0  0
   60.5212   -7.6660   -1.9231 C   0  0  0  0  0  0  0  0  0  0  0  0
   60.6408   -7.5684   -3.2900 C   0  0  0  0  0  0  0  0  0  0  0  0
   61.8347   -7.6937   -3.9689 C   0  0  0  0  0  0  0  0  0  0  0  0
   63.0069   -7.9326   -3.2703 C   0  0  0  0  0  0  0  0  0  0  0  0
   64.2234   -8.0637   -3.9267 O   0  0  0  0  0  0  0  0  0  0  0  0
   62.8953   -8.0317   -1.9015 C   0  0  0  0  0  0  0  0  0  0  0  0
   61.7046   -7.9076   -1.2163 C   0  0  0  0  0  0  0  0  0  0  0  0
   64.8654   -7.3421   -4.1418 H   0  0  0  0  0  0  0  0  0  0  0  0
 29 30  1  0  0  0
 30 31  1  0  0  0
 31 32  1  0  0  0
 32 33  2  0  0  0
 32 35  1  0  0  0
 35 36  1  0  0  0
 35 39  1  0  0  0
 39 40  1  0  0  0
 40 41  2  0  0  0
 41 42  1  0  0  0
 42 43  2  0  0  0
 43 44  1  0  0  0
 43 45  1  0  0  0
 45 46  2  0  0  0
 30  1  1  0  0  0
  1  2  2  0  0  0
  1  3  1  0  0  0
  3  4  1  0  0  0
  4  5  1  0  0  0
  5  6  1  0  0  0
  6  7  1  0  0  0
  7  8  1  0  0  0
  8  9  2  0  0  0
  8 10  1  0  0  0
 10 12  1  0  0  0
 12 18  1  0  0  0
 18 19  1  0  0  0
 19 20  2  0  0  0
 20 21  1  0  0  0
 21 22  1  0  0  0
 22 23  2  0  0  0
 23 24  1  0  0  0
 24 25  2  0  0  0
 25 26  1  0  0  0
 26 27  2  0  0  0
 12 13  1  0  0  0
 13 14  1  0  0  0
 13 15  2  0  0  0
 46 40  1  0  0  0
  7  3  1  0  0  0
 27 19  1  0  0  0
 27 22  1  0  0  0
 31 34  1  0  0  0
 36 37  1  0  0  0
 36 38  1  0  0  0
 44 47  1  0  0  0
 10 11  1  0  0  0
 21 28  1  0  0  0
 14 16  1  0  0  0
 14 17  1  0  0  0
M  END
> <minimizedAffinity>
-7.88179

> <CNNscore>
0.1923270375

> <CNNaffinity>
6.9319076538

> <CNN_VS>
1.3331933022

> <CNNaffinity_variance>
0.0446299873

$$$$
[H]Oc1c([H])c([H])c(C([H])([H])[C@@]([H])(C(=O)N([H])[C@]([H])(C(=O)N2C([H])([H])C([H])([H])C([H])([H])[C@@]2([H])C(=O)N([H])[C@]([H])(C(=O)N([H])[H])C([H])([H])c2c([H])n([H])c3c([H])c([H])c([H])c([H])c23)C([H])([H])[H])N([H])[H])c([H])c1[H]


 47 50  0  0  0  0  0  0  0  0999 V2000
   57.1193   -7.0330   -3.1650 C   0  0  0  0  0  0  0  0  0  0  0  0
   57.5218   -7.1899   -4.3501 O   0  0  0  0  0  0  0  0  0  0  0  0
   55.7636   -7.1113   -2.7930 N   0  0  0  0  0  0  0  0  0  0  0  0
   55.2283   -6.9627   -1.4691 C   0  0  0  0  0  0  0  0  0  0  0  0
   54.0271   -7.9129   -1.4826 C   0  0  0  0  0  0  0  0  0  0  0  0
   53.9449   -8.4769   -2.8784 C   0  0  0  0  0  0  0  0  0  0  0  0
   54.6518   -7.3654   -3.6735 C   0  0  0  0  0  0  0  0  0  0  0  0
   53.7658   -6.2018   -3.8461 C   0  0  0  0  0  0  0  0  0  0  0  0
   54.2476   -5.0514   -3.8342 O   0  0  0  0  0  0  0  0  0  0  0  0
   52.3851   -6.3824   -4.0200 N   0  0  0  0  0  0  0  0  0  0  0  0
   51.9890   -7.3406   -4.0340 H   0  0  0  0  0  0  0  0  0  0  0  0
   51.4270   -5.2781   -4.1873 C   0  0  0  0  0  0  0  0  0  0  0  0
   50.4862   -5.2036   -3.0922 C   0  0  0  0  0  0  0  0  0  0  0  0
   50.5245   -5.9744   -1.9210 N   0  0  0  0  0  0  0  0  0  0  0  0
   49.5266   -4.3552   -3.2194 O   0  0  0  0  0  0  0  0  0  0  0  0
   50.1559   -5.6145   -1.0060 H   0  0  0  0  0  0  0  0  0  0  0  0
   50.9193   -6.9378   -1.9117 H   0  0  0  0  0  0  0  0  0  0  0  0
   50.8864   -5.4495   -5.5738 C   0  0  0  0  0  0  0  0  0  0  0  0
   51.1773   -4.3830   -6.5232 C   0  0  0  0  0  0  0  0  0  0  0  0
   50.3259   -3.3389   -6.8561 C   0  0  0  0  0  0  0  0  0  0  0  0
   50.9039   -2.5881   -7.7941 N   0  0  0  0  0  0  0  0  0  0  0  0
   52.1296   -3.0994   -8.1042 C   0  0  0  0  0  0  0  0  0  0  0  0
   53.0991   -2.6822   -8.9811 C   0  0  0  0  0  0  0  0  0  0  0  0
   54.2793   -3.3689   -9.0958 C   0  0  0  0  0  0  0  0  0  0  0  0
   54.4929   -4.4855   -8.3252 C   0  0  0  0  0  0  0  0  0  0  0  0
   53.5119   -4.8879   -7.4553 C   0  0  0  0  0  0  0  0  0  0  0  0
   52.2918   -4.2229   -7.3026 C   0  0  0  0  0  0  0  0  0  0  0  0
   50.4781   -1.7351   -8.2251 H   0  0  0  0  0  0  0  0  0  0  0  0
   58.3306   -5.2460   -2.0509 C   0  0  0  0  0  0  0  0  0  0  0  0
   58.1495   -6.7553   -2.1300 C   0  0  0  0  0  0  0  0  0  0  0  0
   59.4203   -7.3683   -2.4931 N   0  0  0  0  0  0  0  0  0  0  0  0
   60.1802   -8.0280   -1.5097 C   0  0  0  0  0  0  0  0  0  0  0  0
   59.7047   -8.0566   -0.3222 O   0  0  0  0  0  0  0  0  0  0  0  0
   59.7189   -7.2880   -3.4864 H   0  0  0  0  0  0  0  0  0  0  0  0
   61.4668   -8.6662   -1.7964 C   0  0  0  0  0  0  0  0  0  0  0  0
   61.2249   -9.9496   -2.4352 N   0  0  0  0  0  0  0  0  0  0  0  0
   60.2051  -10.2154   -2.3660 H   0  0  0  0  0  0  0  0  0  0  0  0
   61.8525  -10.6997   -2.0471 H   0  0  0  0  0  0  0  0  0  0  0  0
   62.3462   -7.8335   -2.7394 C   0  0  0  0  0  0  0  0  0  0  0  0
   62.5299   -8.5529   -4.0307 C   0  0  0  0  0  0  0  0  0  0  0  0
   63.5400   -9.4540   -4.2754 C   0  0  0  0  0  0  0  0  0  0  0  0
   63.7054  -10.1182   -5.4727 C   0  0  0  0  0  0  0  0  0  0  0  0
   62.8236   -9.8930   -6.5172 C   0  0  0  0  0  0  0  0  0  0  0  0
   62.9652  -10.5466   -7.7340 O   0  0  0  0  0  0  0  0  0  0  0  0
   61.8097   -8.9921   -6.2800 C   0  0  0  0  0  0  0  0  0  0  0  0
   61.6386   -8.3244   -5.0851 C   0  0  0  0  0  0  0  0  0  0  0  0
   62.5656  -11.4135   -7.9950 H   0  0  0  0  0  0  0  0  0  0  0  0
 29 30  1  0  0  0
 30 31  1  0  0  0
 31 32  1  0  0  0
 32 33  2  0  0  0
 32 35  1  0  0  0
 35 36  1  0  0  0
 35 39  1  0  0  0
 39 40  1  0  0  0
 40 41  2  0  0  0
 41 42  1  0  0  0
 42 43  2  0  0  0
 43 44  1  0  0  0
 43 45  1  0  0  0
 45 46  2  0  0  0
 30  1  1  0  0  0
  1  2  2  0  0  0
  1  3  1  0  0  0
  3  4  1  0  0  0
  4  5  1  0  0  0
  5  6  1  0  0  0
  6  7  1  0  0  0
  7  8  1  0  0  0
  8  9  2  0  0  0
  8 10  1  0  0  0
 10 12  1  0  0  0
 12 18  1  0  0  0
 18 19  1  0  0  0
 19 20  2  0  0  0
 20 21  1  0  0  0
 21 22  1  0  0  0
 22 23  2  0  0  0
 23 24  1  0  0  0
 24 25  2  0  0  0
 25 26  1  0  0  0
 26 27  2  0  0  0
 12 13  1  0  0  0
 13 14  1  0  0  0
 13 15  2  0  0  0
 46 40  1  0  0  0
  7  3  1  0  0  0
 27 19  1  0  0  0
 27 22  1  0  0  0
 31 34  1  0  0  0
 36 37  1  0  0  0
 36 38  1  0  0  0
 44 47  1  0  0  0
 10 11  1  0  0  0
 21 28  1  0  0  0
 14 16  1  0  0  0
 14 17  1  0  0  0
M  END
> <minimizedAffinity>
-7.52899

> <CNNscore>
0.1891954392

> <CNNaffinity>
6.5015816689

> <CNN_VS>
1.2300696373

> <CNNaffinity_variance>
0.1379061639

$$$$
[H]Oc1c([H])c([H])c(C([H])([H])[C@@]([H])(C(=O)N([H])[C@]([H])(C(=O)N2C([H])([H])C([H])([H])C([H])([H])[C@@]2([H])C(=O)N([H])[C@]([H])(C(=O)N([H])[H])C([H])([H])c2c([H])n([H])c3c([H])c([H])c([H])c([H])c23)C([H])([H])[H])N([H])[H])c([H])c1[H]


 47 50  0  0  0  0  0  0  0  0999 V2000
   55.8255   -5.1875   -5.3339 C   0  0  0  0  0  0  0  0  0  0  0  0
   56.2144   -4.0771   -4.8792 O   0  0  0  0  0  0  0  0  0  0  0  0
   55.8976   -6.3892   -4.6038 N   0  0  0  0  0  0  0  0  0  0  0  0
   55.4622   -7.6854   -5.0416 C   0  0  0  0  0  0  0  0  0  0  0  0
   54.9823   -8.3368   -3.7411 C   0  0  0  0  0  0  0  0  0  0  0  0
   55.2646   -7.3475   -2.6389 C   0  0  0  0  0  0  0  0  0  0  0  0
   56.4164   -6.5451   -3.2687 C   0  0  0  0  0  0  0  0  0  0  0  0
   57.6748   -7.3084   -3.2167 C   0  0  0  0  0  0  0  0  0  0  0  0
   58.4646   -7.2639   -4.1811 O   0  0  0  0  0  0  0  0  0  0  0  0
   57.9857   -8.0858   -2.0906 N   0  0  0  0  0  0  0  0  0  0  0  0
   57.3288   -8.1164   -1.2889 H   0  0  0  0  0  0  0  0  0  0  0  0
   59.2127   -8.8876   -1.9595 C   0  0  0  0  0  0  0  0  0  0  0  0
   58.9628  -10.1652   -1.3308 C   0  0  0  0  0  0  0  0  0  0  0  0
   58.5453  -10.3627   -0.0065 N   0  0  0  0  0  0  0  0  0  0  0  0
   59.1522  -11.2084   -2.0607 O   0  0  0  0  0  0  0  0  0  0  0  0
   57.9575  -11.1862    0.2744 H   0  0  0  0  0  0  0  0  0  0  0  0
   58.8035   -9.7002    0.7540 H   0  0  0  0  0  0  0  0  0  0  0  0
   60.2037   -7.9654   -1.3180 C   0  0  0  0  0  0  0  0  0  0  0  0
   61.5032   -7.8517   -1.9674 C   0  0  0  0  0  0  0  0  0  0  0  0
   61.7454   -7.9892   -3.3269 C   0  0  0  0  0  0  0  0  0  0  0  0
   63.0549   -7.8747   -3.5496 N   0  0  0  0  0  0  0  0  0  0  0  0
   63.7067   -7.6614   -2.3708 C   0  0  0  0  0  0  0  0  0  0  0  0
   65.0338   -7.4657   -2.0822 C   0  0  0  0  0  0  0  0  0  0  0  0
   65.4430   -7.2444   -0.7933 C   0  0  0  0  0  0  0  0  0  0  0  0
   64.5150   -7.2188    0.2188 C   0  0  0  0  0  0  0  0  0  0  0  0
   63.1933   -7.4177   -0.0887 C   0  0  0  0  0  0  0  0  0  0  0  0
   62.7262   -7.6481   -1.3860 C   0  0  0  0  0  0  0  0  0  0  0  0
   63.5106   -7.9392   -4.4892 H   0  0  0  0  0  0  0  0  0  0  0  0
   56.4347   -5.1899   -7.6857 C   0  0  0  0  0  0  0  0  0  0  0  0
   55.2657   -5.1979   -6.7110 C   0  0  0  0  0  0  0  0  0  0  0  0
   54.4466   -4.0152   -6.9411 N   0  0  0  0  0  0  0  0  0  0  0  0
   53.3579   -4.0855   -7.8296 C   0  0  0  0  0  0  0  0  0  0  0  0
   53.1387   -5.2092   -8.4009 O   0  0  0  0  0  0  0  0  0  0  0  0
   54.7095   -3.1492   -6.4281 H   0  0  0  0  0  0  0  0  0  0  0  0
   52.4902   -2.9405   -8.1140 C   0  0  0  0  0  0  0  0  0  0  0  0
   52.9095   -2.3300   -9.3651 N   0  0  0  0  0  0  0  0  0  0  0  0
   53.8439   -2.7137   -9.6736 H   0  0  0  0  0  0  0  0  0  0  0  0
   52.9196   -1.2799   -9.2992 H   0  0  0  0  0  0  0  0  0  0  0  0
   51.0140   -3.3350   -8.2585 C   0  0  0  0  0  0  0  0  0  0  0  0
   50.4445   -3.6704   -6.9236 C   0  0  0  0  0  0  0  0  0  0  0  0
   50.6384   -4.8712   -6.2811 C   0  0  0  0  0  0  0  0  0  0  0  0
   50.1095   -5.1767   -5.0446 C   0  0  0  0  0  0  0  0  0  0  0  0
   49.3305   -4.2467   -4.3757 C   0  0  0  0  0  0  0  0  0  0  0  0
   48.7844   -4.5262   -3.1300 O   0  0  0  0  0  0  0  0  0  0  0  0
   49.1317   -3.0421   -5.0124 C   0  0  0  0  0  0  0  0  0  0  0  0
   49.6575   -2.7302   -6.2488 C   0  0  0  0  0  0  0  0  0  0  0  0
   49.1961   -4.3546   -2.2466 H   0  0  0  0  0  0  0  0  0  0  0  0
 29 30  1  0  0  0
 30 31  1  0  0  0
 31 32  1  0  0  0
 32 33  2  0  0  0
 32 35  1  0  0  0
 35 36  1  0  0  0
 35 39  1  0  0  0
 39 40  1  0  0  0
 40 41  2  0  0  0
 41 42  1  0  0  0
 42 43  2  0  0  0
 43 44  1  0  0  0
 43 45  1  0  0  0
 45 46  2  0  0  0
 30  1  1  0  0  0
  1  2  2  0  0  0
  1  3  1  0  0  0
  3  4  1  0  0  0
  4  5  1  0  0  0
  5  6  1  0  0  0
  6  7  1  0  0  0
  7  8  1  0  0  0
  8  9  2  0  0  0
  8 10  1  0  0  0
 10 12  1  0  0  0
 12 18  1  0  0  0
 18 19  1  0  0  0
 19 20  2  0  0  0
 20 21  1  0  0  0
 21 22  1  0  0  0
 22 23  2  0  0  0
 23 24  1  0  0  0
 24 25  2  0  0  0
 25 26  1  0  0  0
 26 27  2  0  0  0
 12 13  1  0  0  0
 13 14  1  0  0  0
 13 15  2  0  0  0
 46 40  1  0  0  0
  7  3  1  0  0  0
 27 19  1  0  0  0
 27 22  1  0  0  0
 31 34  1  0  0  0
 36 37  1  0  0  0
 36 38  1  0  0  0
 44 47  1  0  0  0
 10 11  1  0  0  0
 21 28  1  0  0  0
 14 16  1  0  0  0
 14 17  1  0  0  0
M  END
> <minimizedAffinity>
-7.90708

> <CNNscore>
0.1708150655

> <CNNaffinity>
6.2524943352

> <CNN_VS>
1.0680202246

> <CNNaffinity_variance>
0.1277847737

$$$$
[H]Oc1c([H])c([H])c(C([H])([H])[C@@]([H])(C(=O)N([H])[C@]([H])(C(=O)N2C([H])([H])C([H])([H])C([H])([H])[C@@]2([H])C(=O)N([H])[C@]([H])(C(=O)N([H])[H])C([H])([H])c2c([H])n([H])c3c([H])c([H])c([H])c([H])c23)C([H])([H])[H])N([H])[H])c([H])c1[H]


 47 50  0  0  0  0  0  0  0  0999 V2000
   57.2850   -7.8264   -2.5516 C   0  0  0  0  0  0  0  0  0  0  0  0
   57.3590   -9.0829   -2.4685 O   0  0  0  0  0  0  0  0  0  0  0  0
   56.5941   -7.0299   -1.6186 N   0  0  0  0  0  0  0  0  0  0  0  0
   56.4781   -5.5989   -1.6329 C   0  0  0  0  0  0  0  0  0  0  0  0
   56.4368   -5.2491   -0.1423 C   0  0  0  0  0  0  0  0  0  0  0  0
   56.4610   -6.5589    0.6041 C   0  0  0  0  0  0  0  0  0  0  0  0
   55.8760   -7.5015   -0.4619 C   0  0  0  0  0  0  0  0  0  0  0  0
   54.4175   -7.3281   -0.5693 C   0  0  0  0  0  0  0  0  0  0  0  0
   53.7590   -6.9972    0.4370 O   0  0  0  0  0  0  0  0  0  0  0  0
   53.7678   -7.5365   -1.7955 N   0  0  0  0  0  0  0  0  0  0  0  0
   54.3193   -7.8069   -2.6309 H   0  0  0  0  0  0  0  0  0  0  0  0
   52.3157   -7.3973   -1.9897 C   0  0  0  0  0  0  0  0  0  0  0  0
   51.5937   -8.5715   -1.5539 C   0  0  0  0  0  0  0  0  0  0  0  0
   52.0260   -9.8992   -1.6861 N   0  0  0  0  0  0  0  0  0  0  0  0
   50.4482   -8.3669   -1.0036 O   0  0  0  0  0  0  0  0  0  0  0  0
   51.7475  -10.6455   -1.0020 H   0  0  0  0  0  0  0  0  0  0  0  0
   52.6406  -10.1997   -2.4710 H   0  0  0  0  0  0  0  0  0  0  0  0
   52.1620   -6.9607   -3.4144 C   0  0  0  0  0  0  0  0  0  0  0  0
   51.2051   -5.8916   -3.6687 C   0  0  0  0  0  0  0  0  0  0  0  0
   50.2115   -5.4681   -2.7973 C   0  0  0  0  0  0  0  0  0  0  0  0
   49.4958   -4.5097   -3.3859 N   0  0  0  0  0  0  0  0  0  0  0  0
   49.9826   -4.2727   -4.6377 C   0  0  0  0  0  0  0  0  0  0  0  0
   49.6046   -3.3843   -5.6127 C   0  0  0  0  0  0  0  0  0  0  0  0
   50.2824   -3.3225   -6.8020 C   0  0  0  0  0  0  0  0  0  0  0  0
   51.3502   -4.1585   -7.0192 C   0  0  0  0  0  0  0  0  0  0  0  0
   51.7126   -5.0405   -6.0335 C   0  0  0  0  0  0  0  0  0  0  0  0
   51.0533   -5.1427   -4.8051 C   0  0  0  0  0  0  0  0  0  0  0  0
   48.6831   -4.0154   -2.9499 H   0  0  0  0  0  0  0  0  0  0  0  0
   56.9413   -6.9737   -4.8003 C   0  0  0  0  0  0  0  0  0  0  0  0
   57.9730   -7.1811   -3.7005 C   0  0  0  0  0  0  0  0  0  0  0  0
   59.0406   -8.0346   -4.2049 N   0  0  0  0  0  0  0  0  0  0  0  0
   60.3815   -7.7007   -3.9403 C   0  0  0  0  0  0  0  0  0  0  0  0
   60.5980   -6.6422   -3.2547 O   0  0  0  0  0  0  0  0  0  0  0  0
   58.7587   -8.8724   -4.7535 H   0  0  0  0  0  0  0  0  0  0  0  0
   61.5086   -8.5067   -4.4142 C   0  0  0  0  0  0  0  0  0  0  0  0
   61.3886   -9.8504   -3.8722 N   0  0  0  0  0  0  0  0  0  0  0  0
   60.6498   -9.8849   -3.1183 H   0  0  0  0  0  0  0  0  0  0  0  0
   62.3149  -10.2141   -3.5301 H   0  0  0  0  0  0  0  0  0  0  0  0
   61.5546   -8.6225   -5.9441 C   0  0  0  0  0  0  0  0  0  0  0  0
   62.4394   -7.5649   -6.5075 C   0  0  0  0  0  0  0  0  0  0  0  0
   63.5418   -7.0557   -5.8613 C   0  0  0  0  0  0  0  0  0  0  0  0
   64.3584   -6.0768   -6.3875 C   0  0  0  0  0  0  0  0  0  0  0  0
   64.0873   -5.5477   -7.6388 C   0  0  0  0  0  0  0  0  0  0  0  0
   64.8913   -4.5611   -8.1941 O   0  0  0  0  0  0  0  0  0  0  0  0
   62.9853   -6.0523   -8.2921 C   0  0  0  0  0  0  0  0  0  0  0  0
   62.1644   -7.0310   -7.7715 C   0  0  0  0  0  0  0  0  0  0  0  0
   65.6879   -4.6933   -8.7661 H   0  0  0  0  0  0  0  0  0  0  0  0
 29 30  1  0  0  0
 30 31  1  0  0  0
 31 32  1  0  0  0
 32 33  2  0  0  0
 32 35  1  0  0  0
 35 36  1  0  0  0
 35 39  1  0  0  0
 39 40  1  0  0  0
 40 41  2  0  0  0
 41 42  1  0  0  0
 42 43  2  0  0  0
 43 44  1  0  0  0
 43 45  1  0  0  0
 45 46  2  0  0  0
 30  1  1  0  0  0
  1  2  2  0  0  0
  1  3  1  0  0  0
  3  4  1  0  0  0
  4  5  1  0  0  0
  5  6  1  0  0  0
  6  7  1  0  0  0
  7  8  1  0  0  0
  8  9  2  0  0  0
  8 10  1  0  0  0
 10 12  1  0  0  0
 12 18  1  0  0  0
 18 19  1  0  0  0
 19 20  2  0  0  0
 20 21  1  0  0  0
 21 22  1  0  0  0
 22 23  2  0  0  0
 23 24  1  0  0  0
 24 25  2  0  0  0
 25 26  1  0  0  0
 26 27  2  0  0  0
 12 13  1  0  0  0
 13 14  1  0  0  0
 13 15  2  0  0  0
 46 40  1  0  0  0
  7  3  1  0  0  0
 27 19  1  0  0  0
 27 22  1  0  0  0
 31 34  1  0  0  0
 36 37  1  0  0  0
 36 38  1  0  0  0
 44 47  1  0  0  0
 10 11  1  0  0  0
 21 28  1  0  0  0
 14 16  1  0  0  0
 14 17  1  0  0  0
M  END
> <minimizedAffinity>
-8.54901

> <CNNscore>
0.1630305797

> <CNNaffinity>
5.9104957581

> <CNN_VS>
0.9635915756

> <CNNaffinity_variance>
0.1972049475

$$$$
[H]Oc1c([H])c([H])c(C([H])([H])[C@@]([H])(C(=O)N([H])[C@]([H])(C(=O)N2C([H])([H])C([H])([H])C([H])([H])[C@@]2([H])C(=O)N([H])[C@]([H])(C(=O)N([H])[H])C([H])([H])c2c([H])n([H])c3c([H])c([H])c([H])c([H])c23)C([H])([H])[H])N([H])[H])c([H])c1[H]


 47 50  0  0  0  0  0  0  0  0999 V2000
   56.0466   -7.9932   -3.0168 C   0  0  0  0  0  0  0  0  0  0  0  0
   55.4627   -9.1090   -2.9443 O   0  0  0  0  0  0  0  0  0  0  0  0
   55.6218   -6.8517   -2.3105 N   0  0  0  0  0  0  0  0  0  0  0  0
   56.2391   -5.5556   -2.3256 C   0  0  0  0  0  0  0  0  0  0  0  0
   55.9813   -5.0428   -0.9056 C   0  0  0  0  0  0  0  0  0  0  0  0
   55.1532   -6.0968   -0.2152 C   0  0  0  0  0  0  0  0  0  0  0  0
   54.4863   -6.7699   -1.4273 C   0  0  0  0  0  0  0  0  0  0  0  0
   53.3952   -5.9333   -1.9551 C   0  0  0  0  0  0  0  0  0  0  0  0
   53.1578   -4.8259   -1.4325 O   0  0  0  0  0  0  0  0  0  0  0  0
   52.6221   -6.3781   -3.0384 N   0  0  0  0  0  0  0  0  0  0  0  0
   52.8257   -7.2972   -3.4731 H   0  0  0  0  0  0  0  0  0  0  0  0
   51.5075   -5.6137   -3.6206 C   0  0  0  0  0  0  0  0  0  0  0  0
   50.3717   -5.5436   -2.7290 C   0  0  0  0  0  0  0  0  0  0  0  0
   50.1819   -6.3197   -1.5762 N   0  0  0  0  0  0  0  0  0  0  0  0
   49.4550   -4.6940   -3.0364 O   0  0  0  0  0  0  0  0  0  0  0  0
   49.6423   -5.9637   -0.7487 H   0  0  0  0  0  0  0  0  0  0  0  0
   50.5675   -7.2834   -1.4948 H   0  0  0  0  0  0  0  0  0  0  0  0
   51.3044   -6.2114   -4.9792 C   0  0  0  0  0  0  0  0  0  0  0  0
   51.6991   -5.3915   -6.1174 C   0  0  0  0  0  0  0  0  0  0  0  0
   52.7448   -5.6626   -6.9885 C   0  0  0  0  0  0  0  0  0  0  0  0
   52.8437   -4.6695   -7.8724 N   0  0  0  0  0  0  0  0  0  0  0  0
   51.8870   -3.7307   -7.6208 C   0  0  0  0  0  0  0  0  0  0  0  0
   51.5736   -2.5529   -8.2514 C   0  0  0  0  0  0  0  0  0  0  0  0
   50.5299   -1.7815   -7.8116 C   0  0  0  0  0  0  0  0  0  0  0  0
   49.7912   -2.1921   -6.7290 C   0  0  0  0  0  0  0  0  0  0  0  0
   50.1202   -3.3714   -6.1110 C   0  0  0  0  0  0  0  0  0  0  0  0
   51.1750   -4.1922   -6.5203 C   0  0  0  0  0  0  0  0  0  0  0  0
   53.5504   -4.6210   -8.6425 H   0  0  0  0  0  0  0  0  0  0  0  0
   58.4678   -7.7942   -3.0034 C   0  0  0  0  0  0  0  0  0  0  0  0
   57.2412   -7.9089   -3.8974 C   0  0  0  0  0  0  0  0  0  0  0  0
   57.1656   -6.7329   -4.7541 N   0  0  0  0  0  0  0  0  0  0  0  0
   56.2334   -6.6986   -5.8074 C   0  0  0  0  0  0  0  0  0  0  0  0
   55.4837   -7.7241   -5.9606 O   0  0  0  0  0  0  0  0  0  0  0  0
   57.8209   -5.9520   -4.5464 H   0  0  0  0  0  0  0  0  0  0  0  0
   56.0988   -5.5543   -6.7113 C   0  0  0  0  0  0  0  0  0  0  0  0
   55.8121   -4.3644   -5.9267 N   0  0  0  0  0  0  0  0  0  0  0  0
   55.5711   -4.6220   -4.9312 H   0  0  0  0  0  0  0  0  0  0  0  0
   55.0606   -3.7783   -6.3727 H   0  0  0  0  0  0  0  0  0  0  0  0
   57.3742   -5.2836   -7.5213 C   0  0  0  0  0  0  0  0  0  0  0  0
   57.0176   -4.8386   -8.8973 C   0  0  0  0  0  0  0  0  0  0  0  0
   55.7831   -4.3479   -9.2543 C   0  0  0  0  0  0  0  0  0  0  0  0
   55.4580   -3.9364  -10.5298 C   0  0  0  0  0  0  0  0  0  0  0  0
   56.4021   -4.0049  -11.5413 C   0  0  0  0  0  0  0  0  0  0  0  0
   56.1035   -3.5982  -12.8350 O   0  0  0  0  0  0  0  0  0  0  0  0
   57.6404   -4.4951  -11.1919 C   0  0  0  0  0  0  0  0  0  0  0  0
   57.9721   -4.9085   -9.9184 C   0  0  0  0  0  0  0  0  0  0  0  0
   56.2164   -2.6919  -13.2159 H   0  0  0  0  0  0  0  0  0  0  0  0
 29 30  1  0  0  0
 30 31  1  0  0  0
 31 32  1  0  0  0
 32 33  2  0  0  0
 32 35  1  0  0  0
 35 36  1  0  0  0
 35 39  1  0  0  0
 39 40  1  0  0  0
 40 41  2  0  0  0
 41 42  1  0  0  0
 42 43  2  0  0  0
 43 44  1  0  0  0
 43 45  1  0  0  0
 45 46  2  0  0  0
 30  1  1  0  0  0
  1  2  2  0  0  0
  1  3  1  0  0  0
  3  4  1  0  0  0
  4  5  1  0  0  0
  5  6  1  0  0  0
  6  7  1  0  0  0
  7  8  1  0  0  0
  8  9  2  0  0  0
  8 10  1  0  0  0
 10 12  1  0  0  0
 12 18  1  0  0  0
 18 19  1  0  0  0
 19 20  2  0  0  0
 20 21  1  0  0  0
 21 22  1  0  0  0
 22 23  2  0  0  0
 23 24  1  0  0  0
 24 25  2  0  0  0
 25 26  1  0  0  0
 26 27  2  0  0  0
 12 13  1  0  0  0
 13 14  1  0  0  0
 13 15  2  0  0  0
 46 40  1  0  0  0
  7  3  1  0  0  0
 27 19  1  0  0  0
 27 22  1  0  0  0
 31 34  1  0  0  0
 36 37  1  0  0  0
 36 38  1  0  0  0
 44 47  1  0  0  0
 10 11  1  0  0  0
 21 28  1  0  0  0
 14 16  1  0  0  0
 14 17  1  0  0  0
M  END
> <minimizedAffinity>
-10.08609

> <CNNscore>
0.1603703052

> <CNNaffinity>
6.9305291176

> <CNN_VS>
1.1114510298

> <CNNaffinity_variance>
0.2116872966

$$$$
[H]OC([H])([H])C([H])([H])N([H])C(=O)c1c([H])c(OC([H])([H])[H])c([H])c(N([H])c2nc([H])c([H])c(Oc3c([H])c([H])c(N([H])C(=O)N([H])c4c([H])c(C([H])(C([H])([H])[H])C([H])([H])[H])nn4-c4c([H])c([H])c(C([H])([H])[H])c([H])c4[H])c4c([H])c([H])c([H])c([H])c34)n2)c1[H]


 56 61  0  0  0  0  0  0  0  0999 V2000
   55.5881   -4.3983   -9.3016 C   0  0  0  0  0  0  0  0  0  0  0  0
   56.0321   -4.9170   -8.0698 C   0  0  0  0  0  0  0  0  0  0  0  0
   57.3199   -5.3312   -7.8641 C   0  0  0  0  0  0  0  0  0  0  0  0
   58.2458   -5.2596   -8.8635 C   0  0  0  0  0  0  0  0  0  0  0  0
   57.8391   -4.7432  -10.1110 C   0  0  0  0  0  0  0  0  0  0  0  0
   58.7252   -4.6549  -11.1406 C   0  0  0  0  0  0  0  0  0  0  0  0
   58.3316   -4.1542  -12.3937 C   0  0  0  0  0  0  0  0  0  0  0  0
   57.0408   -3.7542  -12.5638 C   0  0  0  0  0  0  0  0  0  0  0  0
   56.1229   -3.8293  -11.5445 C   0  0  0  0  0  0  0  0  0  0  0  0
   56.5245   -4.3209  -10.3207 C   0  0  0  0  0  0  0  0  0  0  0  0
   59.5656   -5.7621   -8.6937 N   0  0  0  0  0  0  0  0  0  0  0  0
   60.1858   -6.8599   -9.2416 C   0  0  0  0  0  0  0  0  0  0  0  0
   59.5388   -7.6229  -10.0553 O   0  0  0  0  0  0  0  0  0  0  0  0
   61.5164   -7.2522   -9.0137 N   0  0  0  0  0  0  0  0  0  0  0  0
   60.1672   -5.1422   -8.0777 H   0  0  0  0  0  0  0  0  0  0  0  0
   61.8644   -8.1465   -9.5619 H   0  0  0  0  0  0  0  0  0  0  0  0
   62.4917   -6.7955   -8.1184 C   0  0  0  0  0  0  0  0  0  0  0  0
   63.2854   -5.6826   -8.1068 C   0  0  0  0  0  0  0  0  0  0  0  0
   64.1858   -5.7301   -7.0195 C   0  0  0  0  0  0  0  0  0  0  0  0
   63.9018   -6.8754   -6.4133 N   0  0  0  0  0  0  0  0  0  0  0  0
   62.9320   -7.5061   -7.0260 N   0  0  0  0  0  0  0  0  0  0  0  0
   62.4446   -8.7872   -6.5874 C   0  0  0  0  0  0  0  0  0  0  0  0
   61.5340   -8.8540   -5.5580 C   0  0  0  0  0  0  0  0  0  0  0  0
   61.0491  -10.0508   -5.1331 C   0  0  0  0  0  0  0  0  0  0  0  0
   61.4465  -11.2475   -5.7161 C   0  0  0  0  0  0  0  0  0  0  0  0
   60.9027  -12.5547   -5.2431 C   0  0  0  0  0  0  0  0  0  0  0  0
   62.3561  -11.1810   -6.7456 C   0  0  0  0  0  0  0  0  0  0  0  0
   62.8633   -9.9602   -7.1895 C   0  0  0  0  0  0  0  0  0  0  0  0
   65.1924   -4.7102   -6.6308 C   0  0  0  0  0  0  0  0  0  0  0  0
   64.7962   -3.3193   -7.0020 C   0  0  0  0  0  0  0  0  0  0  0  0
   65.3949   -4.7917   -5.0976 C   0  0  0  0  0  0  0  0  0  0  0  0
   54.3362   -4.0187   -9.4457 O   0  0  0  0  0  0  0  0  0  0  0  0
   51.5816   -4.3103   -7.2135 C   0  0  0  0  0  0  0  0  0  0  0  0
   51.0064   -3.1075   -7.3130 N   0  0  0  0  0  0  0  0  0  0  0  0
   51.4576   -2.1054   -8.1073 C   0  0  0  0  0  0  0  0  0  0  0  0
   52.6026   -2.3930   -8.8559 C   0  0  0  0  0  0  0  0  0  0  0  0
   53.2459   -3.6109   -8.8020 C   0  0  0  0  0  0  0  0  0  0  0  0
   52.6910   -4.5235   -7.9682 N   0  0  0  0  0  0  0  0  0  0  0  0
   51.1390   -5.3278   -6.3454 N   0  0  0  0  0  0  0  0  0  0  0  0
   50.1897   -5.7726   -6.5932 H   0  0  0  0  0  0  0  0  0  0  0  0
   52.0088   -6.3237   -2.8406 C   0  0  0  0  0  0  0  0  0  0  0  0
   51.2468   -5.8692   -3.9315 C   0  0  0  0  0  0  0  0  0  0  0  0
   51.7720   -5.8131   -5.2035 C   0  0  0  0  0  0  0  0  0  0  0  0
   53.0972   -6.2250   -5.3929 C   0  0  0  0  0  0  0  0  0  0  0  0
   53.8453   -6.6704   -4.3281 C   0  0  0  0  0  0  0  0  0  0  0  0
   53.3098   -6.7174   -3.0842 C   0  0  0  0  0  0  0  0  0  0  0  0
   55.2414   -7.0951   -4.6507 C   0  0  0  0  0  0  0  0  0  0  0  0
   55.2792   -7.7185   -5.7698 O   0  0  0  0  0  0  0  0  0  0  0  0
   56.2626   -6.8103   -3.8384 N   0  0  0  0  0  0  0  0  0  0  0  0
   57.1658   -7.3741   -4.7095 H   0  0  0  0  0  0  0  0  0  0  0  0
   57.3164   -6.5175   -3.0019 C   0  0  0  0  0  0  0  0  0  0  0  0
   58.6152   -7.2774   -3.2999 C   0  0  0  0  0  0  0  0  0  0  0  0
   58.7719   -7.3279   -4.6835 O   0  0  0  0  0  0  0  0  0  0  0  0
   59.6823   -7.0239   -4.9389 H   0  0  0  0  0  0  0  0  0  0  0  0
   51.1742   -7.5565   -0.9057 C   0  0  0  0  0  0  0  0  0  0  0  0
   51.4516   -6.3676   -1.5933 O   0  0  0  0  0  0  0  0  0  0  0  0
 55 56  1  0  0  0
 56 41  1  0  0  0
 41 42  2  0  0  0
 42 43  1  0  0  0
 43 39  1  0  0  0
 39 33  1  0  0  0
 33 34  2  0  0  0
 34 35  1  0  0  0
 35 36  2  0  0  0
 36 37  1  0  0  0
 37 32  1  0  0  0
 32  1  1  0  0  0
  1  2  2  0  0  0
  2  3  1  0  0  0
  3  4  2  0  0  0
  4 11  1  0  0  0
 11 12  1  0  0  0
 12 13  2  0  0  0
 12 14  1  0  0  0
 14 17  1  0  0  0
 17 18  2  0  0  0
 18 19  1  0  0  0
 19 20  2  0  0  0
 20 21  1  0  0  0
 21 22  1  0  0  0
 22 23  2  0  0  0
 23 24  1  0  0  0
 24 25  2  0  0  0
 25 26  1  0  0  0
 25 27  1  0  0  0
 27 28  2  0  0  0
 19 29  1  0  0  0
 29 30  1  0  0  0
 29 31  1  0  0  0
  4  5  1  0  0  0
  5  6  2  0  0  0
  6  7  1  0  0  0
  7  8  2  0  0  0
  8  9  1  0  0  0
  9 10  2  0  0  0
 37 38  2  0  0  0
 43 44  2  0  0  0
 44 45  1  0  0  0
 45 46  2  0  0  0
 45 47  1  0  0  0
 47 48  2  0  0  0
 47 49  1  0  0  0
 49 51  1  0  0  0
 51 52  1  0  0  0
 52 53  1  0  0  0
 46 41  1  0  0  0
 38 33  1  0  0  0
 10  1  1  0  0  0
 21 17  1  0  0  0
 28 22  1  0  0  0
 10  5  1  0  0  0
 39 40  1  0  0  0
 11 15  1  0  0  0
 14 16  1  0  0  0
 49 50  1  0  0  0
 53 54  1  0  0  0
M  END
> <minimizedAffinity>
-10.54061

> <CNNscore>
0.2838537097

> <CNNaffinity>
7.4481658936

> <CNN_VS>
2.1141896248

> <CNNaffinity_variance>
0.7318240404

$$$$
[H]OC([H])([H])C([H])([H])N([H])C(=O)c1c([H])c(OC([H])([H])[H])c([H])c(N([H])c2nc([H])c([H])c(Oc3c([H])c([H])c(N([H])C(=O)N([H])c4c([H])c(C([H])(C([H])([H])[H])C([H])([H])[H])nn4-c4c([H])c([H])c(C([H])([H])[H])c([H])c4[H])c4c([H])c([H])c([H])c([H])c34)n2)c1[H]


 56 61  0  0  0  0  0  0  0  0999 V2000
   55.7414   -4.6252   -9.3887 C   0  0  0  0  0  0  0  0  0  0  0  0
   56.1933   -5.1344   -8.1558 C   0  0  0  0  0  0  0  0  0  0  0  0
   57.4999   -5.4733   -7.9311 C   0  0  0  0  0  0  0  0  0  0  0  0
   58.4379   -5.3312   -8.9114 C   0  0  0  0  0  0  0  0  0  0  0  0
   58.0236   -4.8218  -10.1594 C   0  0  0  0  0  0  0  0  0  0  0  0
   58.9214   -4.6651  -11.1705 C   0  0  0  0  0  0  0  0  0  0  0  0
   58.5214   -4.1706  -12.4239 C   0  0  0  0  0  0  0  0  0  0  0  0
   57.2120   -3.8466  -12.6133 C   0  0  0  0  0  0  0  0  0  0  0  0
   56.2819   -3.9920  -11.6129 C   0  0  0  0  0  0  0  0  0  0  0  0
   56.6899   -4.4765  -10.3885 C   0  0  0  0  0  0  0  0  0  0  0  0
   59.7824   -5.7557   -8.7232 N   0  0  0  0  0  0  0  0  0  0  0  0
   60.4622   -6.8368   -9.2322 C   0  0  0  0  0  0  0  0  0  0  0  0
   59.8594   -7.6612  -10.0195 O   0  0  0  0  0  0  0  0  0  0  0  0
   61.8113   -7.1488   -8.9897 N   0  0  0  0  0  0  0  0  0  0  0  0
   60.3481   -5.0834   -8.1286 H   0  0  0  0  0  0  0  0  0  0  0  0
   62.2085   -8.0414   -9.5063 H   0  0  0  0  0  0  0  0  0  0  0  0
   62.7582   -6.6095   -8.1101 C   0  0  0  0  0  0  0  0  0  0  0  0
   63.6409   -5.5722   -8.2265 C   0  0  0  0  0  0  0  0  0  0  0  0
   64.4574   -5.4878   -7.0769 C   0  0  0  0  0  0  0  0  0  0  0  0
   64.0362   -6.4822   -6.3065 N   0  0  0  0  0  0  0  0  0  0  0  0
   63.0607   -7.1418   -6.8782 N   0  0  0  0  0  0  0  0  0  0  0  0
   62.4372   -8.2851   -6.2655 C   0  0  0  0  0  0  0  0  0  0  0  0
   62.8385   -9.5523   -6.6209 C   0  0  0  0  0  0  0  0  0  0  0  0
   62.2740  -10.6484   -6.0482 C   0  0  0  0  0  0  0  0  0  0  0  0
   61.2781  -10.5377   -5.0861 C   0  0  0  0  0  0  0  0  0  0  0  0
   60.6698  -11.7493   -4.4616 C   0  0  0  0  0  0  0  0  0  0  0  0
   60.8773   -9.2711   -4.7300 C   0  0  0  0  0  0  0  0  0  0  0  0
   61.4463   -8.1385   -5.3114 C   0  0  0  0  0  0  0  0  0  0  0  0
   65.5180   -4.4892   -6.7895 C   0  0  0  0  0  0  0  0  0  0  0  0
   66.4928   -4.3258   -7.9086 C   0  0  0  0  0  0  0  0  0  0  0  0
   64.8354   -3.1288   -6.5039 C   0  0  0  0  0  0  0  0  0  0  0  0
   54.4717   -4.3196   -9.5516 O   0  0  0  0  0  0  0  0  0  0  0  0
   51.4716   -4.2566   -7.6409 C   0  0  0  0  0  0  0  0  0  0  0  0
   51.1430   -2.9610   -7.6702 N   0  0  0  0  0  0  0  0  0  0  0  0
   51.8595   -2.0027   -8.3081 C   0  0  0  0  0  0  0  0  0  0  0  0
   53.0106   -2.4435   -8.9674 C   0  0  0  0  0  0  0  0  0  0  0  0
   53.4081   -3.7632   -8.9783 C   0  0  0  0  0  0  0  0  0  0  0  0
   52.6024   -4.6172   -8.3020 N   0  0  0  0  0  0  0  0  0  0  0  0
   50.7521   -5.2378   -6.9307 N   0  0  0  0  0  0  0  0  0  0  0  0
   50.3937   -6.0685   -7.5156 H   0  0  0  0  0  0  0  0  0  0  0  0
   49.1754   -4.6856   -3.5779 C   0  0  0  0  0  0  0  0  0  0  0  0
   49.3533   -4.6545   -4.9724 C   0  0  0  0  0  0  0  0  0  0  0  0
   50.4380   -5.2534   -5.5738 C   0  0  0  0  0  0  0  0  0  0  0  0
   51.3725   -5.9049   -4.7589 C   0  0  0  0  0  0  0  0  0  0  0  0
   51.2015   -5.9375   -3.3945 C   0  0  0  0  0  0  0  0  0  0  0  0
   50.1273   -5.3415   -2.8225 C   0  0  0  0  0  0  0  0  0  0  0  0
   52.2541   -6.6705   -2.6277 C   0  0  0  0  0  0  0  0  0  0  0  0
   53.4112   -6.1663   -2.8492 O   0  0  0  0  0  0  0  0  0  0  0  0
   51.9479   -7.6939   -1.8259 N   0  0  0  0  0  0  0  0  0  0  0  0
   53.2569   -7.8228   -1.4230 H   0  0  0  0  0  0  0  0  0  0  0  0
   51.6338   -8.7491   -0.9991 C   0  0  0  0  0  0  0  0  0  0  0  0
   50.8435   -8.3759    0.2615 C   0  0  0  0  0  0  0  0  0  0  0  0
   49.7226   -7.6506   -0.1370 O   0  0  0  0  0  0  0  0  0  0  0  0
   48.9022   -8.0289    0.2758 H   0  0  0  0  0  0  0  0  0  0  0  0
   46.7997   -4.1231   -3.5760 C   0  0  0  0  0  0  0  0  0  0  0  0
   48.0844   -4.0820   -3.0181 O   0  0  0  0  0  0  0  0  0  0  0  0
 55 56  1  0  0  0
 56 41  1  0  0  0
 41 42  2  0  0  0
 42 43  1  0  0  0
 43 39  1  0  0  0
 39 33  1  0  0  0
 33 34  2  0  0  0
 34 35  1  0  0  0
 35 36  2  0  0  0
 36 37  1  0  0  0
 37 32  1  0  0  0
 32  1  1  0  0  0
  1  2  2  0  0  0
  2  3  1  0  0  0
  3  4  2  0  0  0
  4 11  1  0  0  0
 11 12  1  0  0  0
 12 13  2  0  0  0
 12 14  1  0  0  0
 14 17  1  0  0  0
 17 18  2  0  0  0
 18 19  1  0  0  0
 19 20  2  0  0  0
 20 21  1  0  0  0
 21 22  1  0  0  0
 22 23  2  0  0  0
 23 24  1  0  0  0
 24 25  2  0  0  0
 25 26  1  0  0  0
 25 27  1  0  0  0
 27 28  2  0  0  0
 19 29  1  0  0  0
 29 30  1  0  0  0
 29 31  1  0  0  0
  4  5  1  0  0  0
  5  6  2  0  0  0
  6  7  1  0  0  0
  7  8  2  0  0  0
  8  9  1  0  0  0
  9 10  2  0  0  0
 37 38  2  0  0  0
 43 44  2  0  0  0
 44 45  1  0  0  0
 45 46  2  0  0  0
 45 47  1  0  0  0
 47 48  2  0  0  0
 47 49  1  0  0  0
 49 51  1  0  0  0
 51 52  1  0  0  0
 52 53  1  0  0  0
 46 41  1  0  0  0
 38 33  1  0  0  0
 10  1  1  0  0  0
 21 17  1  0  0  0
 28 22  1  0  0  0
 10  5  1  0  0  0
 39 40  1  0  0  0
 11 15  1  0  0  0
 14 16  1  0  0  0
 49 50  1  0  0  0
 53 54  1  0  0  0
M  END
> <minimizedAffinity>
-9.86489

> <CNNscore>
0.2718479633

> <CNNaffinity>
7.4735345840

> <CNN_VS>
2.0316650867

> <CNNaffinity_variance>
0.1991672814

$$$$
[H]OC([H])([H])C([H])([H])N([H])C(=O)c1c([H])c(OC([H])([H])[H])c([H])c(N([H])c2nc([H])c([H])c(Oc3c([H])c([H])c(N([H])C(=O)N([H])c4c([H])c(C([H])(C([H])([H])[H])C([H])([H])[H])nn4-c4c([H])c([H])c(C([H])([H])[H])c([H])c4[H])c4c([H])c([H])c([H])c([H])c34)n2)c1[H]


 56 61  0  0  0  0  0  0  0  0999 V2000
   55.6478   -4.4942   -9.2161 C   0  0  0  0  0  0  0  0  0  0  0  0
   56.1213   -4.9702   -7.9780 C   0  0  0  0  0  0  0  0  0  0  0  0
   57.4251   -5.3330   -7.7762 C   0  0  0  0  0  0  0  0  0  0  0  0
   58.3389   -5.2491   -8.7856 C   0  0  0  0  0  0  0  0  0  0  0  0
   57.9025   -4.7744  -10.0397 C   0  0  0  0  0  0  0  0  0  0  0  0
   58.7757   -4.6761  -11.0795 C   0  0  0  0  0  0  0  0  0  0  0  0
   58.3531   -4.2167  -12.3389 C   0  0  0  0  0  0  0  0  0  0  0  0
   57.0471   -3.8675  -12.5049 C   0  0  0  0  0  0  0  0  0  0  0  0
   56.1416   -3.9541  -11.4755 C   0  0  0  0  0  0  0  0  0  0  0  0
   56.5716   -4.4046  -10.2456 C   0  0  0  0  0  0  0  0  0  0  0  0
   59.6776   -5.6997   -8.6181 N   0  0  0  0  0  0  0  0  0  0  0  0
   60.3420   -6.7670   -9.1743 C   0  0  0  0  0  0  0  0  0  0  0  0
   59.7271   -7.5484   -9.9955 O   0  0  0  0  0  0  0  0  0  0  0  0
   61.6870   -7.1076   -8.9477 N   0  0  0  0  0  0  0  0  0  0  0  0
   60.2531   -5.0614   -7.9960 H   0  0  0  0  0  0  0  0  0  0  0  0
   62.0712   -7.9825   -9.5029 H   0  0  0  0  0  0  0  0  0  0  0  0
   62.6421   -6.6198   -8.0471 C   0  0  0  0  0  0  0  0  0  0  0  0
   63.5161   -5.5704   -8.1071 C   0  0  0  0  0  0  0  0  0  0  0  0
   64.3476   -5.5551   -6.9652 C   0  0  0  0  0  0  0  0  0  0  0  0
   63.9436   -6.6010   -6.2561 N   0  0  0  0  0  0  0  0  0  0  0  0
   62.9649   -7.2292   -6.8568 N   0  0  0  0  0  0  0  0  0  0  0  0
   62.3576   -8.4148   -6.3122 C   0  0  0  0  0  0  0  0  0  0  0  0
   62.8174   -9.6537   -6.6954 C   0  0  0  0  0  0  0  0  0  0  0  0
   62.2690  -10.7887   -6.1865 C   0  0  0  0  0  0  0  0  0  0  0  0
   61.2313  -10.7474   -5.2639 C   0  0  0  0  0  0  0  0  0  0  0  0
   60.6410  -12.0013   -4.7092 C   0  0  0  0  0  0  0  0  0  0  0  0
   60.7719   -9.5092   -4.8799 C   0  0  0  0  0  0  0  0  0  0  0  0
   61.3239   -8.3372   -5.3961 C   0  0  0  0  0  0  0  0  0  0  0  0
   65.4052   -4.5694   -6.6271 C   0  0  0  0  0  0  0  0  0  0  0  0
   65.6501   -3.5722   -7.7110 C   0  0  0  0  0  0  0  0  0  0  0  0
   64.9783   -3.8270   -5.3368 C   0  0  0  0  0  0  0  0  0  0  0  0
   54.3817   -4.1634   -9.3560 O   0  0  0  0  0  0  0  0  0  0  0  0
   51.7218   -4.2997   -6.9976 C   0  0  0  0  0  0  0  0  0  0  0  0
   51.0941   -3.1384   -7.2095 N   0  0  0  0  0  0  0  0  0  0  0  0
   51.4752   -2.2178   -8.1293 C   0  0  0  0  0  0  0  0  0  0  0  0
   52.6041   -2.5464   -8.8854 C   0  0  0  0  0  0  0  0  0  0  0  0
   53.2987   -3.7254   -8.7198 C   0  0  0  0  0  0  0  0  0  0  0  0
   52.8119   -4.5565   -7.7668 N   0  0  0  0  0  0  0  0  0  0  0  0
   51.3526   -5.2269   -6.0032 N   0  0  0  0  0  0  0  0  0  0  0  0
   50.3377   -5.5846   -6.0523 H   0  0  0  0  0  0  0  0  0  0  0  0
   54.1857   -6.3961   -3.8495 C   0  0  0  0  0  0  0  0  0  0  0  0
   53.5083   -5.8180   -4.9377 C   0  0  0  0  0  0  0  0  0  0  0  0
   52.1346   -5.7209   -4.9618 C   0  0  0  0  0  0  0  0  0  0  0  0
   51.4152   -6.2138   -3.8658 C   0  0  0  0  0  0  0  0  0  0  0  0
   52.0747   -6.7796   -2.7995 C   0  0  0  0  0  0  0  0  0  0  0  0
   53.4271   -6.8660   -2.7956 C   0  0  0  0  0  0  0  0  0  0  0  0
   51.2060   -7.2598   -1.6823 C   0  0  0  0  0  0  0  0  0  0  0  0
   50.1118   -6.5941   -1.6397 O   0  0  0  0  0  0  0  0  0  0  0  0
   51.5829   -8.2653   -0.8881 N   0  0  0  0  0  0  0  0  0  0  0  0
   50.3883   -8.2289   -0.2069 H   0  0  0  0  0  0  0  0  0  0  0  0
   51.9701   -9.3018   -0.0686 C   0  0  0  0  0  0  0  0  0  0  0  0
   50.8495   -9.9132    0.7820 C   0  0  0  0  0  0  0  0  0  0  0  0
   50.8878  -11.2951    0.6082 O   0  0  0  0  0  0  0  0  0  0  0  0
   50.8898  -11.7537    1.4893 H   0  0  0  0  0  0  0  0  0  0  0  0
   56.3613   -6.0743   -2.7895 C   0  0  0  0  0  0  0  0  0  0  0  0
   55.5503   -6.4720   -3.8607 O   0  0  0  0  0  0  0  0  0  0  0  0
 55 56  1  0  0  0
 56 41  1  0  0  0
 41 42  2  0  0  0
 42 43  1  0  0  0
 43 39  1  0  0  0
 39 33  1  0  0  0
 33 34  2  0  0  0
 34 35  1  0  0  0
 35 36  2  0  0  0
 36 37  1  0  0  0
 37 32  1  0  0  0
 32  1  1  0  0  0
  1  2  2  0  0  0
  2  3  1  0  0  0
  3  4  2  0  0  0
  4 11  1  0  0  0
 11 12  1  0  0  0
 12 13  2  0  0  0
 12 14  1  0  0  0
 14 17  1  0  0  0
 17 18  2  0  0  0
 18 19  1  0  0  0
 19 20  2  0  0  0
 20 21  1  0  0  0
 21 22  1  0  0  0
 22 23  2  0  0  0
 23 24  1  0  0  0
 24 25  2  0  0  0
 25 26  1  0  0  0
 25 27  1  0  0  0
 27 28  2  0  0  0
 19 29  1  0  0  0
 29 30  1  0  0  0
 29 31  1  0  0  0
  4  5  1  0  0  0
  5  6  2  0  0  0
  6  7  1  0  0  0
  7  8  2  0  0  0
  8  9  1  0  0  0
  9 10  2  0  0  0
 37 38  2  0  0  0
 43 44  2  0  0  0
 44 45  1  0  0  0
 45 46  2  0  0  0
 45 47  1  0  0  0
 47 48  2  0  0  0
 47 49  1  0  0  0
 49 51  1  0  0  0
 51 52  1  0  0  0
 52 53  1  0  0  0
 46 41  1  0  0  0
 38 33  1  0  0  0
 10  1  1  0  0  0
 21 17  1  0  0  0
 28 22  1  0  0  0
 10  5  1  0  0  0
 39 40  1  0  0  0
 11 15  1  0  0  0
 14 16  1  0  0  0
 49 50  1  0  0  0
 53 54  1  0  0  0
M  END
> <minimizedAffinity>
-10.83872

> <CNNscore>
0.2051941007

> <CNNaffinity>
7.4474296570

> <CNN_VS>
1.5281686783

> <CNNaffinity_variance>
0.3334939778

$$$$
[H]OC([H])([H])C([H])([H])N([H])C(=O)c1c([H])c(OC([H])([H])[H])c([H])c(N([H])c2nc([H])c([H])c(Oc3c([H])c([H])c(N([H])C(=O)N([H])c4c([H])c(C([H])(C([H])([H])[H])C([H])([H])[H])nn4-c4c([H])c([H])c(C([H])([H])[H])c([H])c4[H])c4c([H])c([H])c([H])c([H])c34)n2)c1[H]


 56 61  0  0  0  0  0  0  0  0999 V2000
   56.3153   -4.1653   -9.8116 C   0  0  0  0  0  0  0  0  0  0  0  0
   57.4101   -4.7835   -9.1770 C   0  0  0  0  0  0  0  0  0  0  0  0
   57.3248   -5.3334   -7.9269 C   0  0  0  0  0  0  0  0  0  0  0  0
   56.1535   -5.3042   -7.2282 C   0  0  0  0  0  0  0  0  0  0  0  0
   55.0340   -4.6956   -7.8322 C   0  0  0  0  0  0  0  0  0  0  0  0
   53.8439   -4.6380   -7.1738 C   0  0  0  0  0  0  0  0  0  0  0  0
   52.7225   -4.0236   -7.7575 C   0  0  0  0  0  0  0  0  0  0  0  0
   52.8445   -3.4834   -9.0019 C   0  0  0  0  0  0  0  0  0  0  0  0
   54.0310   -3.5262   -9.6928 C   0  0  0  0  0  0  0  0  0  0  0  0
   55.1215   -4.1339   -9.1079 C   0  0  0  0  0  0  0  0  0  0  0  0
   56.0680   -5.7959   -5.8962 N   0  0  0  0  0  0  0  0  0  0  0  0
   55.6207   -7.0021   -5.4114 C   0  0  0  0  0  0  0  0  0  0  0  0
   55.1833   -7.8995   -6.2277 O   0  0  0  0  0  0  0  0  0  0  0  0
   55.6013   -7.3895   -4.0601 N   0  0  0  0  0  0  0  0  0  0  0  0
   56.4686   -5.1223   -5.1811 H   0  0  0  0  0  0  0  0  0  0  0  0
   55.2370   -8.4111   -3.8483 H   0  0  0  0  0  0  0  0  0  0  0  0
   55.8497   -6.6846   -2.8757 C   0  0  0  0  0  0  0  0  0  0  0  0
   56.9449   -6.6046   -2.0616 C   0  0  0  0  0  0  0  0  0  0  0  0
   56.6559   -5.8223   -0.9214 C   0  0  0  0  0  0  0  0  0  0  0  0
   55.3912   -5.4588   -1.0899 N   0  0  0  0  0  0  0  0  0  0  0  0
   54.9056   -5.9420   -2.2053 N   0  0  0  0  0  0  0  0  0  0  0  0
   53.5452   -5.7173   -2.6176 C   0  0  0  0  0  0  0  0  0  0  0  0
   52.6144   -5.2962   -1.6959 C   0  0  0  0  0  0  0  0  0  0  0  0
   51.3258   -5.0653   -2.0622 C   0  0  0  0  0  0  0  0  0  0  0  0
   50.8971   -5.2406   -3.3719 C   0  0  0  0  0  0  0  0  0  0  0  0
   49.4803   -4.9790   -3.7621 C   0  0  0  0  0  0  0  0  0  0  0  0
   51.8274   -5.6608   -4.2937 C   0  0  0  0  0  0  0  0  0  0  0  0
   53.1518   -5.9036   -3.9307 C   0  0  0  0  0  0  0  0  0  0  0  0
   57.5743   -5.4645    0.1890 C   0  0  0  0  0  0  0  0  0  0  0  0
   58.7077   -4.5928   -0.2408 C   0  0  0  0  0  0  0  0  0  0  0  0
   56.7521   -4.7331    1.2786 C   0  0  0  0  0  0  0  0  0  0  0  0
   56.4545   -3.6482  -11.0138 O   0  0  0  0  0  0  0  0  0  0  0  0
   57.0074   -3.8658  -14.5213 C   0  0  0  0  0  0  0  0  0  0  0  0
   58.3379   -3.7659  -14.6061 N   0  0  0  0  0  0  0  0  0  0  0  0
   59.1652   -3.6217  -13.5415 C   0  0  0  0  0  0  0  0  0  0  0  0
   58.5430   -3.5807  -12.2904 C   0  0  0  0  0  0  0  0  0  0  0  0
   57.1774   -3.6781  -12.1300 C   0  0  0  0  0  0  0  0  0  0  0  0
   56.4674   -3.8187  -13.2755 N   0  0  0  0  0  0  0  0  0  0  0  0
   56.1501   -3.9609  -15.6351 N   0  0  0  0  0  0  0  0  0  0  0  0
   55.3869   -4.7187  -15.5734 H   0  0  0  0  0  0  0  0  0  0  0  0
   57.1765   -2.2332  -18.7964 C   0  0  0  0  0  0  0  0  0  0  0  0
   57.2426   -3.0785  -17.6747 C   0  0  0  0  0  0  0  0  0  0  0  0
   56.1817   -3.2065  -16.8056 C   0  0  0  0  0  0  0  0  0  0  0  0
   55.0189   -2.4701  -17.0650 C   0  0  0  0  0  0  0  0  0  0  0  0
   54.9508   -1.6425  -18.1616 C   0  0  0  0  0  0  0  0  0  0  0  0
   56.0061   -1.5304  -19.0042 C   0  0  0  0  0  0  0  0  0  0  0  0
   53.6576   -0.9161  -18.3447 C   0  0  0  0  0  0  0  0  0  0  0  0
   53.1841   -1.1209  -19.5178 O   0  0  0  0  0  0  0  0  0  0  0  0
   53.1229   -0.1850  -17.3632 N   0  0  0  0  0  0  0  0  0  0  0  0
   52.0128    0.0991  -18.1243 H   0  0  0  0  0  0  0  0  0  0  0  0
   52.5704    0.5690  -16.3522 C   0  0  0  0  0  0  0  0  0  0  0  0
   52.9793    2.0475  -16.3444 C   0  0  0  0  0  0  0  0  0  0  0  0
   53.3609    2.3775  -15.0456 O   0  0  0  0  0  0  0  0  0  0  0  0
   54.2463    2.8277  -15.0501 H   0  0  0  0  0  0  0  0  0  0  0  0
   59.5811   -2.2507  -19.2183 C   0  0  0  0  0  0  0  0  0  0  0  0
   58.2491   -2.1348  -19.6377 O   0  0  0  0  0  0  0  0  0  0  0  0
 55 56  1  0  0  0
 56 41  1  0  0  0
 41 42  2  0  0  0
 42 43  1  0  0  0
 43 39  1  0  0  0
 39 33  1  0  0  0
 33 34  2  0  0  0
 34 35  1  0  0  0
 35 36  2  0  0  0
 36 37  1  0  0  0
 37 32  1  0  0  0
 32  1  1  0  0  0
  1  2  2  0  0  0
  2  3  1  0  0  0
  3  4  2  0  0  0
  4 11  1  0  0  0
 11 12  1  0  0  0
 12 13  2  0  0  0
 12 14  1  0  0  0
 14 17  1  0  0  0
 17 18  2  0  0  0
 18 19  1  0  0  0
 19 20  2  0  0  0
 20 21  1  0  0  0
 21 22  1  0  0  0
 22 23  2  0  0  0
 23 24  1  0  0  0
 24 25  2  0  0  0
 25 26  1  0  0  0
 25 27  1  0  0  0
 27 28  2  0  0  0
 19 29  1  0  0  0
 29 30  1  0  0  0
 29 31  1  0  0  0
  4  5  1  0  0  0
  5  6  2  0  0  0
  6  7  1  0  0  0
  7  8  2  0  0  0
  8  9  1  0  0  0
  9 10  2  0  0  0
 37 38  2  0  0  0
 43 44  2  0  0  0
 44 45  1  0  0  0
 45 46  2  0  0  0
 45 47  1  0  0  0
 47 48  2  0  0  0
 47 49  1  0  0  0
 49 51  1  0  0  0
 51 52  1  0  0  0
 52 53  1  0  0  0
 46 41  1  0  0  0
 38 33  1  0  0  0
 10  1  1  0  0  0
 21 17  1  0  0  0
 28 22  1  0  0  0
 10  5  1  0  0  0
 39 40  1  0  0  0
 11 15  1  0  0  0
 14 16  1  0  0  0
 49 50  1  0  0  0
 53 54  1  0  0  0
M  END
> <minimizedAffinity>
-10.92483

> <CNNscore>
0.1604272425

> <CNNaffinity>
7.0009016991

> <CNN_VS>
1.1231353283

> <CNNaffinity_variance>
0.6662575006

$$$$
[H]OC([H])([H])C([H])([H])N([H])C(=O)c1c([H])c(OC([H])([H])[H])c([H])c(N([H])c2nc([H])c([H])c(Oc3c([H])c([H])c(N([H])C(=O)N([H])c4c([H])c(C([H])(C([H])([H])[H])C([H])([H])[H])nn4-c4c([H])c([H])c(C([H])([H])[H])c([H])c4[H])c4c([H])c([H])c([H])c([H])c34)n2)c1[H]


 56 61  0  0  0  0  0  0  0  0999 V2000
   55.7636   -4.3531   -9.4509 C   0  0  0  0  0  0  0  0  0  0  0  0
   56.3569   -4.8464   -8.2727 C   0  0  0  0  0  0  0  0  0  0  0  0
   57.6634   -5.2493   -8.2167 C   0  0  0  0  0  0  0  0  0  0  0  0
   58.4615   -5.1909   -9.3215 C   0  0  0  0  0  0  0  0  0  0  0  0
   57.9033   -4.7000  -10.5198 C   0  0  0  0  0  0  0  0  0  0  0  0
   58.6581   -4.6258  -11.6502 C   0  0  0  0  0  0  0  0  0  0  0  0
   58.1124   -4.1507  -12.8553 C   0  0  0  0  0  0  0  0  0  0  0  0
   56.8074   -3.7613  -12.8755 C   0  0  0  0  0  0  0  0  0  0  0  0
   56.0197   -3.8228  -11.7517 C   0  0  0  0  0  0  0  0  0  0  0  0
   56.5697   -4.2892  -10.5768 C   0  0  0  0  0  0  0  0  0  0  0  0
   59.7961   -5.6826   -9.3033 N   0  0  0  0  0  0  0  0  0  0  0  0
   60.3020   -6.9189   -9.6286 C   0  0  0  0  0  0  0  0  0  0  0  0
   59.5069   -7.8538  -10.0241 O   0  0  0  0  0  0  0  0  0  0  0  0
   61.6577   -7.2889   -9.5907 N   0  0  0  0  0  0  0  0  0  0  0  0
   60.5062   -4.9395   -9.0406 H   0  0  0  0  0  0  0  0  0  0  0  0
   61.8941   -8.3181   -9.9165 H   0  0  0  0  0  0  0  0  0  0  0  0
   62.7972   -6.6382   -9.1013 C   0  0  0  0  0  0  0  0  0  0  0  0
   63.0970   -6.0913   -7.8849 C   0  0  0  0  0  0  0  0  0  0  0  0
   64.3597   -5.4593   -7.9258 C   0  0  0  0  0  0  0  0  0  0  0  0
   64.7763   -5.6480   -9.1711 N   0  0  0  0  0  0  0  0  0  0  0  0
   63.8960   -6.3225   -9.8665 N   0  0  0  0  0  0  0  0  0  0  0  0
   64.0898   -6.6434  -11.2559 C   0  0  0  0  0  0  0  0  0  0  0  0
   63.1895   -6.1896  -12.1923 C   0  0  0  0  0  0  0  0  0  0  0  0
   63.3565   -6.4687  -13.5122 C   0  0  0  0  0  0  0  0  0  0  0  0
   64.4350   -7.2156  -13.9692 C   0  0  0  0  0  0  0  0  0  0  0  0
   64.6092   -7.5109  -15.4220 C   0  0  0  0  0  0  0  0  0  0  0  0
   65.3356   -7.6687  -13.0336 C   0  0  0  0  0  0  0  0  0  0  0  0
   65.1747   -7.3916  -11.6764 C   0  0  0  0  0  0  0  0  0  0  0  0
   65.0668   -4.7738   -6.8147 C   0  0  0  0  0  0  0  0  0  0  0  0
   64.7288   -5.3277   -5.4700 C   0  0  0  0  0  0  0  0  0  0  0  0
   66.5905   -4.9104   -7.0552 C   0  0  0  0  0  0  0  0  0  0  0  0
   54.5006   -3.9834   -9.4496 O   0  0  0  0  0  0  0  0  0  0  0  0
   52.1402   -4.8949   -6.9489 C   0  0  0  0  0  0  0  0  0  0  0  0
   51.2777   -3.8741   -6.9863 N   0  0  0  0  0  0  0  0  0  0  0  0
   51.3850   -2.8101   -7.8202 C   0  0  0  0  0  0  0  0  0  0  0  0
   52.4854   -2.8232   -8.6823 C   0  0  0  0  0  0  0  0  0  0  0  0
   53.4126   -3.8429   -8.6972 C   0  0  0  0  0  0  0  0  0  0  0  0
   53.1872   -4.8448   -7.8132 N   0  0  0  0  0  0  0  0  0  0  0  0
   52.0524   -5.9700   -6.0426 N   0  0  0  0  0  0  0  0  0  0  0  0
   51.5308   -6.8416   -6.4014 H   0  0  0  0  0  0  0  0  0  0  0  0
   52.4140   -6.2409   -2.3240 C   0  0  0  0  0  0  0  0  0  0  0  0
   51.8137   -6.2631   -3.5954 C   0  0  0  0  0  0  0  0  0  0  0  0
   52.5434   -6.0334   -4.7407 C   0  0  0  0  0  0  0  0  0  0  0  0
   53.9142   -5.7756   -4.6135 C   0  0  0  0  0  0  0  0  0  0  0  0
   54.5047   -5.7535   -3.3714 C   0  0  0  0  0  0  0  0  0  0  0  0
   53.7687   -5.9817   -2.2567 C   0  0  0  0  0  0  0  0  0  0  0  0
   55.9740   -5.4806   -3.3581 C   0  0  0  0  0  0  0  0  0  0  0  0
   56.2031   -4.2386   -3.1408 O   0  0  0  0  0  0  0  0  0  0  0  0
   56.8668   -6.4573   -3.5396 N   0  0  0  0  0  0  0  0  0  0  0  0
   57.9163   -5.5900   -3.3426 H   0  0  0  0  0  0  0  0  0  0  0  0
   57.7883   -7.4631   -3.7264 C   0  0  0  0  0  0  0  0  0  0  0  0
   57.8375   -8.5166   -2.6125 C   0  0  0  0  0  0  0  0  0  0  0  0
   56.5344   -8.9509   -2.3784 O   0  0  0  0  0  0  0  0  0  0  0  0
   56.4938   -9.9432   -2.3925 H   0  0  0  0  0  0  0  0  0  0  0  0
   50.9613   -7.6707   -0.9802 C   0  0  0  0  0  0  0  0  0  0  0  0
   51.6571   -6.4765   -1.2106 O   0  0  0  0  0  0  0  0  0  0  0  0
 55 56  1  0  0  0
 56 41  1  0  0  0
 41 42  2  0  0  0
 42 43  1  0  0  0
 43 39  1  0  0  0
 39 33  1  0  0  0
 33 34  2  0  0  0
 34 35  1  0  0  0
 35 36  2  0  0  0
 36 37  1  0  0  0
 37 32  1  0  0  0
 32  1  1  0  0  0
  1  2  2  0  0  0
  2  3  1  0  0  0
  3  4  2  0  0  0
  4 11  1  0  0  0
 11 12  1  0  0  0
 12 13  2  0  0  0
 12 14  1  0  0  0
 14 17  1  0  0  0
 17 18  2  0  0  0
 18 19  1  0  0  0
 19 20  2  0  0  0
 20 21  1  0  0  0
 21 22  1  0  0  0
 22 23  2  0  0  0
 23 24  1  0  0  0
 24 25  2  0  0  0
 25 26  1  0  0  0
 25 27  1  0  0  0
 27 28  2  0  0  0
 19 29  1  0  0  0
 29 30  1  0  0  0
 29 31  1  0  0  0
  4  5  1  0  0  0
  5  6  2  0  0  0
  6  7  1  0  0  0
  7  8  2  0  0  0
  8  9  1  0  0  0
  9 10  2  0  0  0
 37 38  2  0  0  0
 43 44  2  0  0  0
 44 45  1  0  0  0
 45 46  2  0  0  0
 45 47  1  0  0  0
 47 48  2  0  0  0
 47 49  1  0  0  0
 49 51  1  0  0  0
 51 52  1  0  0  0
 52 53  1  0  0  0
 46 41  1  0  0  0
 38 33  1  0  0  0
 10  1  1  0  0  0
 21 17  1  0  0  0
 28 22  1  0  0  0
 10  5  1  0  0  0
 39 40  1  0  0  0
 11 15  1  0  0  0
 14 16  1  0  0  0
 49 50  1  0  0  0
 53 54  1  0  0  0
M  END
> <minimizedAffinity>
-9.80758

> <CNNscore>
0.1544643342

> <CNNaffinity>
7.2019944191

> <CNN_VS>
1.1124513149

> <CNNaffinity_variance>
0.2838744223

$$$$
[H]OC([H])([H])C([H])([H])N([H])C(=O)c1c([H])c(OC([H])([H])[H])c([H])c(N([H])c2nc([H])c([H])c(Oc3c([H])c([H])c(N([H])C(=O)N([H])c4c([H])c(C([H])(C([H])([H])[H])C([H])([H])[H])nn4-c4c([H])c([H])c(C([H])([H])[H])c([H])c4[H])c4c([H])c([H])c([H])c([H])c34)n2)c1[H]


 56 61  0  0  0  0  0  0  0  0999 V2000
   55.7086   -4.3201   -9.4532 C   0  0  0  0  0  0  0  0  0  0  0  0
   56.3732   -4.8128   -8.3134 C   0  0  0  0  0  0  0  0  0  0  0  0
   57.6808   -5.2153   -8.3375 C   0  0  0  0  0  0  0  0  0  0  0  0
   58.4097   -5.1570   -9.4892 C   0  0  0  0  0  0  0  0  0  0  0  0
   57.7788   -4.6668  -10.6511 C   0  0  0  0  0  0  0  0  0  0  0  0
   58.4629   -4.5927  -11.8258 C   0  0  0  0  0  0  0  0  0  0  0  0
   57.8442   -4.1182  -12.9953 C   0  0  0  0  0  0  0  0  0  0  0  0
   56.5402   -3.7292  -12.9355 C   0  0  0  0  0  0  0  0  0  0  0  0
   55.8230   -3.7905  -11.7655 C   0  0  0  0  0  0  0  0  0  0  0  0
   56.4441   -4.2564  -10.6264 C   0  0  0  0  0  0  0  0  0  0  0  0
   59.7430   -5.6483   -9.5527 N   0  0  0  0  0  0  0  0  0  0  0  0
   60.4843   -6.3547   -8.6354 C   0  0  0  0  0  0  0  0  0  0  0  0
   59.9672   -6.6667   -7.4960 O   0  0  0  0  0  0  0  0  0  0  0  0
   61.8019   -6.8097   -8.8175 N   0  0  0  0  0  0  0  0  0  0  0  0
   60.2034   -5.4723  -10.4922 H   0  0  0  0  0  0  0  0  0  0  0  0
   62.2386   -7.3922   -7.9861 H   0  0  0  0  0  0  0  0  0  0  0  0
   62.7485   -6.5731   -9.8222 C   0  0  0  0  0  0  0  0  0  0  0  0
   62.6958   -6.6803  -11.1839 C   0  0  0  0  0  0  0  0  0  0  0  0
   63.9631   -6.4158  -11.7491 C   0  0  0  0  0  0  0  0  0  0  0  0
   64.7372   -6.1587  -10.7028 N   0  0  0  0  0  0  0  0  0  0  0  0
   64.0626   -6.2431   -9.5842 N   0  0  0  0  0  0  0  0  0  0  0  0
   64.6711   -6.0341   -8.2969 C   0  0  0  0  0  0  0  0  0  0  0  0
   64.5782   -4.8021   -7.6911 C   0  0  0  0  0  0  0  0  0  0  0  0
   65.1338   -4.5823   -6.4700 C   0  0  0  0  0  0  0  0  0  0  0  0
   65.8113   -5.5835   -5.7858 C   0  0  0  0  0  0  0  0  0  0  0  0
   66.4128   -5.3302   -4.4433 C   0  0  0  0  0  0  0  0  0  0  0  0
   65.9037   -6.8153   -6.3907 C   0  0  0  0  0  0  0  0  0  0  0  0
   65.3405   -7.0535   -7.6439 C   0  0  0  0  0  0  0  0  0  0  0  0
   64.3279   -6.3969  -13.1882 C   0  0  0  0  0  0  0  0  0  0  0  0
   63.5333   -5.4157  -13.9851 C   0  0  0  0  0  0  0  0  0  0  0  0
   65.8323   -6.0470  -13.3002 C   0  0  0  0  0  0  0  0  0  0  0  0
   54.4479   -3.9508   -9.3745 O   0  0  0  0  0  0  0  0  0  0  0  0
   52.3472   -4.8887   -6.6611 C   0  0  0  0  0  0  0  0  0  0  0  0
   51.3650   -3.9848   -6.7363 N   0  0  0  0  0  0  0  0  0  0  0  0
   51.2983   -3.0009   -7.6670 C   0  0  0  0  0  0  0  0  0  0  0  0
   52.3469   -2.9673   -8.5909 C   0  0  0  0  0  0  0  0  0  0  0  0
   53.3905   -3.8675   -8.5718 C   0  0  0  0  0  0  0  0  0  0  0  0
   53.3350   -4.7992   -7.5896 N   0  0  0  0  0  0  0  0  0  0  0  0
   52.4382   -5.8744   -5.6586 N   0  0  0  0  0  0  0  0  0  0  0  0
   51.7020   -6.6594   -5.7076 H   0  0  0  0  0  0  0  0  0  0  0  0
   55.5474   -6.0726   -3.5789 C   0  0  0  0  0  0  0  0  0  0  0  0
   54.7251   -5.9300   -4.7105 C   0  0  0  0  0  0  0  0  0  0  0  0
   53.3515   -5.9454   -4.6094 C   0  0  0  0  0  0  0  0  0  0  0  0
   52.7814   -6.1061   -3.3402 C   0  0  0  0  0  0  0  0  0  0  0  0
   53.5829   -6.2455   -2.2311 C   0  0  0  0  0  0  0  0  0  0  0  0
   54.9325   -6.2280   -2.3523 C   0  0  0  0  0  0  0  0  0  0  0  0
   52.8653   -6.3981   -0.9291 C   0  0  0  0  0  0  0  0  0  0  0  0
   53.3217   -5.5743   -0.0599 O   0  0  0  0  0  0  0  0  0  0  0  0
   51.8790   -7.2856   -0.7758 N   0  0  0  0  0  0  0  0  0  0  0  0
   51.6471   -6.8661    0.5137 H   0  0  0  0  0  0  0  0  0  0  0  0
   50.8621   -8.2001   -0.6163 C   0  0  0  0  0  0  0  0  0  0  0  0
   51.0878   -9.5518   -1.3054 C   0  0  0  0  0  0  0  0  0  0  0  0
   52.2183  -10.1362   -0.7382 O   0  0  0  0  0  0  0  0  0  0  0  0
   52.0223  -11.0699   -0.4620 H   0  0  0  0  0  0  0  0  0  0  0  0
   57.6774   -7.1783   -4.0269 C   0  0  0  0  0  0  0  0  0  0  0  0
   56.9068   -6.0493   -3.7190 O   0  0  0  0  0  0  0  0  0  0  0  0
 55 56  1  0  0  0
 56 41  1  0  0  0
 41 42  2  0  0  0
 42 43  1  0  0  0
 43 39  1  0  0  0
 39 33  1  0  0  0
 33 34  2  0  0  0
 34 35  1  0  0  0
 35 36  2  0  0  0
 36 37  1  0  0  0
 37 32  1  0  0  0
 32  1  1  0  0  0
  1  2  2  0  0  0
  2  3  1  0  0  0
  3  4  2  0  0  0
  4 11  1  0  0  0
 11 12  1  0  0  0
 12 13  2  0  0  0
 12 14  1  0  0  0
 14 17  1  0  0  0
 17 18  2  0  0  0
 18 19  1  0  0  0
 19 20  2  0  0  0
 20 21  1  0  0  0
 21 22  1  0  0  0
 22 23  2  0  0  0
 23 24  1  0  0  0
 24 25  2  0  0  0
 25 26  1  0  0  0
 25 27  1  0  0  0
 27 28  2  0  0  0
 19 29  1  0  0  0
 29 30  1  0  0  0
 29 31  1  0  0  0
  4  5  1  0  0  0
  5  6  2  0  0  0
  6  7  1  0  0  0
  7  8  2  0  0  0
  8  9  1  0  0  0
  9 10  2  0  0  0
 37 38  2  0  0  0
 43 44  2  0  0  0
 44 45  1  0  0  0
 45 46  2  0  0  0
 45 47  1  0  0  0
 47 48  2  0  0  0
 47 49  1  0  0  0
 49 51  1  0  0  0
 51 52  1  0  0  0
 52 53  1  0  0  0
 46 41  1  0  0  0
 38 33  1  0  0  0
 10  1  1  0  0  0
 21 17  1  0  0  0
 28 22  1  0  0  0
 10  5  1  0  0  0
 39 40  1  0  0  0
 11 15  1  0  0  0
 14 16  1  0  0  0
 49 50  1  0  0  0
 53 54  1  0  0  0
M  END
> <minimizedAffinity>
-9.62120

> <CNNscore>
0.1394714564

> <CNNaffinity>
7.2283277512

> <CNN_VS>
1.0081454515

> <CNNaffinity_variance>
0.2061072290

$$$$
[H]OC([H])([H])C([H])([H])N([H])C(=O)c1c([H])c(OC([H])([H])[H])c([H])c(N([H])c2nc([H])c([H])c(Oc3c([H])c([H])c(N([H])C(=O)N([H])c4c([H])c(C([H])(C([H])([H])[H])C([H])([H])[H])nn4-c4c([H])c([H])c(C([H])([H])[H])c([H])c4[H])c4c([H])c([H])c([H])c([H])c34)n2)c1[H]


 56 61  0  0  0  0  0  0  0  0999 V2000
   55.7393   -4.3934   -9.0833 C   0  0  0  0  0  0  0  0  0  0  0  0
   56.4158   -4.8798   -7.9477 C   0  0  0  0  0  0  0  0  0  0  0  0
   57.7227   -5.2835   -7.9834 C   0  0  0  0  0  0  0  0  0  0  0  0
   58.4392   -5.2327   -9.1432 C   0  0  0  0  0  0  0  0  0  0  0  0
   57.7964   -4.7489  -10.3012 C   0  0  0  0  0  0  0  0  0  0  0  0
   58.4678   -4.6825  -11.4835 C   0  0  0  0  0  0  0  0  0  0  0  0
   57.8370   -4.2144  -12.6491 C   0  0  0  0  0  0  0  0  0  0  0  0
   56.5341   -3.8240  -12.5778 C   0  0  0  0  0  0  0  0  0  0  0  0
   55.8293   -3.8778  -11.3998 C   0  0  0  0  0  0  0  0  0  0  0  0
   56.4623   -4.3373  -10.2647 C   0  0  0  0  0  0  0  0  0  0  0  0
   59.7715   -5.7255   -9.2180 N   0  0  0  0  0  0  0  0  0  0  0  0
   60.2556   -6.9470   -9.6224 C   0  0  0  0  0  0  0  0  0  0  0  0
   59.4376   -7.8639  -10.0137 O   0  0  0  0  0  0  0  0  0  0  0  0
   61.6103   -7.3191   -9.6735 N   0  0  0  0  0  0  0  0  0  0  0  0
   60.4968   -4.9945   -8.9627 H   0  0  0  0  0  0  0  0  0  0  0  0
   61.8259   -8.3336  -10.0550 H   0  0  0  0  0  0  0  0  0  0  0  0
   62.7764   -6.6904   -9.2192 C   0  0  0  0  0  0  0  0  0  0  0  0
   63.1263   -6.1566   -8.0104 C   0  0  0  0  0  0  0  0  0  0  0  0
   64.3972   -5.5451   -8.0904 C   0  0  0  0  0  0  0  0  0  0  0  0
   64.7681   -5.7323   -9.3503 N   0  0  0  0  0  0  0  0  0  0  0  0
   63.8536   -6.3876  -10.0194 N   0  0  0  0  0  0  0  0  0  0  0  0
   63.9949   -6.7023  -11.4165 C   0  0  0  0  0  0  0  0  0  0  0  0
   65.0303   -7.5073  -11.8326 C   0  0  0  0  0  0  0  0  0  0  0  0
   65.1788   -7.8293  -13.1450 C   0  0  0  0  0  0  0  0  0  0  0  0
   64.2981   -7.3657  -14.1141 C   0  0  0  0  0  0  0  0  0  0  0  0
   64.4697   -7.7307  -15.5513 C   0  0  0  0  0  0  0  0  0  0  0  0
   63.2625   -6.5617  -13.6985 C   0  0  0  0  0  0  0  0  0  0  0  0
   63.1001   -6.2218  -12.3558 C   0  0  0  0  0  0  0  0  0  0  0  0
   65.1528   -4.8787   -6.9998 C   0  0  0  0  0  0  0  0  0  0  0  0
   64.8220   -5.4090   -5.6438 C   0  0  0  0  0  0  0  0  0  0  0  0
   66.6649   -5.0754   -7.2703 C   0  0  0  0  0  0  0  0  0  0  0  0
   54.4798   -4.0226   -8.9934 O   0  0  0  0  0  0  0  0  0  0  0  0
   52.3974   -5.1173   -6.3249 C   0  0  0  0  0  0  0  0  0  0  0  0
   51.3590   -4.2797   -6.4126 N   0  0  0  0  0  0  0  0  0  0  0  0
   51.2441   -3.2955   -7.3383 C   0  0  0  0  0  0  0  0  0  0  0  0
   52.3045   -3.1859   -8.2425 C   0  0  0  0  0  0  0  0  0  0  0  0
   53.4049   -4.0153   -8.2098 C   0  0  0  0  0  0  0  0  0  0  0  0
   53.3936   -4.9558   -7.2345 N   0  0  0  0  0  0  0  0  0  0  0  0
   52.5353   -6.1022   -5.3271 N   0  0  0  0  0  0  0  0  0  0  0  0
   51.8420   -6.9247   -5.3840 H   0  0  0  0  0  0  0  0  0  0  0  0
   55.6403   -6.1698   -3.2326 C   0  0  0  0  0  0  0  0  0  0  0  0
   54.8185   -6.0676   -4.3690 C   0  0  0  0  0  0  0  0  0  0  0  0
   53.4459   -6.1305   -4.2734 C   0  0  0  0  0  0  0  0  0  0  0  0
   52.8762   -6.2984   -3.0050 C   0  0  0  0  0  0  0  0  0  0  0  0
   53.6771   -6.3985   -1.8912 C   0  0  0  0  0  0  0  0  0  0  0  0
   55.0257   -6.3346   -2.0070 C   0  0  0  0  0  0  0  0  0  0  0  0
   52.9594   -6.5632   -0.5907 C   0  0  0  0  0  0  0  0  0  0  0  0
   53.4232   -5.7553    0.2892 O   0  0  0  0  0  0  0  0  0  0  0  0
   51.9662   -7.4448   -0.4487 N   0  0  0  0  0  0  0  0  0  0  0  0
   51.7389   -7.0414    0.8467 H   0  0  0  0  0  0  0  0  0  0  0  0
   50.9422   -8.3533   -0.3008 C   0  0  0  0  0  0  0  0  0  0  0  0
   51.2189   -9.7466   -0.8795 C   0  0  0  0  0  0  0  0  0  0  0  0
   52.5227  -10.0993   -0.5374 O   0  0  0  0  0  0  0  0  0  0  0  0
   52.5391  -11.0038   -0.1274 H   0  0  0  0  0  0  0  0  0  0  0  0
   57.8789   -5.9095   -2.2940 C   0  0  0  0  0  0  0  0  0  0  0  0
   56.9986   -6.1000   -3.3674 O   0  0  0  0  0  0  0  0  0  0  0  0
 55 56  1  0  0  0
 56 41  1  0  0  0
 41 42  2  0  0  0
 42 43  1  0  0  0
 43 39  1  0  0  0
 39 33  1  0  0  0
 33 34  2  0  0  0
 34 35  1  0  0  0
 35 36  2  0  0  0
 36 37  1  0  0  0
 37 32  1  0  0  0
 32  1  1  0  0  0
  1  2  2  0  0  0
  2  3  1  0  0  0
  3  4  2  0  0  0
  4 11  1  0  0  0
 11 12  1  0  0  0
 12 13  2  0  0  0
 12 14  1  0  0  0
 14 17  1  0  0  0
 17 18  2  0  0  0
 18 19  1  0  0  0
 19 20  2  0  0  0
 20 21  1  0  0  0
 21 22  1  0  0  0
 22 23  2  0  0  0
 23 24  1  0  0  0
 24 25  2  0  0  0
 25 26  1  0  0  0
 25 27  1  0  0  0
 27 28  2  0  0  0
 19 29  1  0  0  0
 29 30  1  0  0  0
 29 31  1  0  0  0
  4  5  1  0  0  0
  5  6  2  0  0  0
  6  7  1  0  0  0
  7  8  2  0  0  0
  8  9  1  0  0  0
  9 10  2  0  0  0
 37 38  2  0  0  0
 43 44  2  0  0  0
 44 45  1  0  0  0
 45 46  2  0  0  0
 45 47  1  0  0  0
 47 48  2  0  0  0
 47 49  1  0  0  0
 49 51  1  0  0  0
 51 52  1  0  0  0
 52 53  1  0  0  0
 46 41  1  0  0  0
 38 33  1  0  0  0
 10  1  1  0  0  0
 21 17  1  0  0  0
 28 22  1  0  0  0
 10  5  1  0  0  0
 39 40  1  0  0  0
 11 15  1  0  0  0
 14 16  1  0  0  0
 49 50  1  0  0  0
 53 54  1  0  0  0
M  END
> <minimizedAffinity>
-9.53579

> <CNNscore>
0.1302615702

> <CNNaffinity>
7.0668210983

> <CNN_VS>
0.9205352068

> <CNNaffinity_variance>
0.2861425877

$$$$
[H]OC([H])([H])C([H])([H])N([H])C(=O)c1c([H])c(OC([H])([H])[H])c([H])c(N([H])c2nc([H])c([H])c(Oc3c([H])c([H])c(N([H])C(=O)N([H])c4c([H])c(C([H])(C([H])([H])[H])C([H])([H])[H])nn4-c4c([H])c([H])c(C([H])([H])[H])c([H])c4[H])c4c([H])c([H])c([H])c([H])c34)n2)c1[H]


 56 61  0  0  0  0  0  0  0  0999 V2000
   56.1855   -4.3257   -9.5382 C   0  0  0  0  0  0  0  0  0  0  0  0
   57.3133   -4.8949   -8.9155 C   0  0  0  0  0  0  0  0  0  0  0  0
   57.2738   -5.4172   -7.6513 C   0  0  0  0  0  0  0  0  0  0  0  0
   56.1185   -5.4070   -6.9259 C   0  0  0  0  0  0  0  0  0  0  0  0
   54.9671   -4.8474   -7.5172 C   0  0  0  0  0  0  0  0  0  0  0  0
   53.7912   -4.8104   -6.8323 C   0  0  0  0  0  0  0  0  0  0  0  0
   52.6382   -4.2446   -7.4033 C   0  0  0  0  0  0  0  0  0  0  0  0
   52.7147   -3.7308   -8.6624 C   0  0  0  0  0  0  0  0  0  0  0  0
   53.8858   -3.7539   -9.3800 C   0  0  0  0  0  0  0  0  0  0  0  0
   55.0077   -4.3140   -8.8073 C   0  0  0  0  0  0  0  0  0  0  0  0
   56.0790   -5.8692   -5.5813 N   0  0  0  0  0  0  0  0  0  0  0  0
   55.6397   -7.0604   -5.0538 C   0  0  0  0  0  0  0  0  0  0  0  0
   55.1641   -7.9708   -5.8334 O   0  0  0  0  0  0  0  0  0  0  0  0
   55.6678   -7.4184   -3.6947 N   0  0  0  0  0  0  0  0  0  0  0  0
   56.5120   -5.1842   -4.8966 H   0  0  0  0  0  0  0  0  0  0  0  0
   55.3030   -8.4317   -3.4471 H   0  0  0  0  0  0  0  0  0  0  0  0
   55.9668   -6.6906   -2.5361 C   0  0  0  0  0  0  0  0  0  0  0  0
   57.0535   -5.9478   -2.1672 C   0  0  0  0  0  0  0  0  0  0  0  0
   56.9084   -5.4869   -0.8398 C   0  0  0  0  0  0  0  0  0  0  0  0
   55.7351   -5.9717   -0.4548 N   0  0  0  0  0  0  0  0  0  0  0  0
   55.1746   -6.6672   -1.4117 N   0  0  0  0  0  0  0  0  0  0  0  0
   53.9047   -7.3241   -1.2478 C   0  0  0  0  0  0  0  0  0  0  0  0
   52.8362   -6.9463   -2.0282 C   0  0  0  0  0  0  0  0  0  0  0  0
   51.6294   -7.5592   -1.9015 C   0  0  0  0  0  0  0  0  0  0  0  0
   51.4249   -8.5859   -0.9883 C   0  0  0  0  0  0  0  0  0  0  0  0
   50.0959   -9.2538   -0.8625 C   0  0  0  0  0  0  0  0  0  0  0  0
   52.4929   -8.9644   -0.2087 C   0  0  0  0  0  0  0  0  0  0  0  0
   53.7354   -8.3424   -0.3269 C   0  0  0  0  0  0  0  0  0  0  0  0
   57.8438   -4.6272   -0.0714 C   0  0  0  0  0  0  0  0  0  0  0  0
   57.5372   -4.5807    1.3891 C   0  0  0  0  0  0  0  0  0  0  0  0
   59.2787   -5.1729   -0.2751 C   0  0  0  0  0  0  0  0  0  0  0  0
   56.2809   -3.8335  -10.7549 O   0  0  0  0  0  0  0  0  0  0  0  0
   56.8802   -4.0419  -14.2554 C   0  0  0  0  0  0  0  0  0  0  0  0
   58.2003   -3.8441  -14.3301 N   0  0  0  0  0  0  0  0  0  0  0  0
   59.0050   -3.6288  -13.2601 C   0  0  0  0  0  0  0  0  0  0  0  0
   58.3701   -3.6227  -12.0147 C   0  0  0  0  0  0  0  0  0  0  0  0
   57.0141   -3.8199  -11.8647 C   0  0  0  0  0  0  0  0  0  0  0  0
   56.3269   -4.0235  -13.0146 N   0  0  0  0  0  0  0  0  0  0  0  0
   56.0424   -4.2108  -15.3753 N   0  0  0  0  0  0  0  0  0  0  0  0
   55.1854   -4.8461  -15.2256 H   0  0  0  0  0  0  0  0  0  0  0  0
   57.2793   -3.3101  -18.7945 C   0  0  0  0  0  0  0  0  0  0  0  0
   57.1886   -3.9722  -17.5573 C   0  0  0  0  0  0  0  0  0  0  0  0
   56.1982   -3.6696  -16.6493 C   0  0  0  0  0  0  0  0  0  0  0  0
   55.2689   -2.6777  -16.9871 C   0  0  0  0  0  0  0  0  0  0  0  0
   55.3545   -2.0282  -18.1966 C   0  0  0  0  0  0  0  0  0  0  0  0
   56.3371   -2.3406  -19.0759 C   0  0  0  0  0  0  0  0  0  0  0  0
   54.3028   -0.9980  -18.4538 C   0  0  0  0  0  0  0  0  0  0  0  0
   54.3704   -0.5718  -19.6605 O   0  0  0  0  0  0  0  0  0  0  0  0
   53.4344   -0.6357  -17.5060 N   0  0  0  0  0  0  0  0  0  0  0  0
   52.7748    0.2033  -18.3740 H   0  0  0  0  0  0  0  0  0  0  0  0
   52.5384   -0.2612  -16.5299 C   0  0  0  0  0  0  0  0  0  0  0  0
   52.4186    1.2509  -16.3012 C   0  0  0  0  0  0  0  0  0  0  0  0
   53.0899    1.5580  -15.1196 O   0  0  0  0  0  0  0  0  0  0  0  0
   53.7218    2.3100  -15.2672 H   0  0  0  0  0  0  0  0  0  0  0  0
   59.5601   -3.0831  -19.6352 C   0  0  0  0  0  0  0  0  0  0  0  0
   58.2749   -3.6401  -19.6709 O   0  0  0  0  0  0  0  0  0  0  0  0
 55 56  1  0  0  0
 56 41  1  0  0  0
 41 42  2  0  0  0
 42 43  1  0  0  0
 43 39  1  0  0  0
 39 33  1  0  0  0
 33 34  2  0  0  0
 34 35  1  0  0  0
 35 36  2  0  0  0
 36 37  1  0  0  0
 37 32  1  0  0  0
 32  1  1  0  0  0
  1  2  2  0  0  0
  2  3  1  0  0  0
  3  4  2  0  0  0
  4 11  1  0  0  0
 11 12  1  0  0  0
 12 13  2  0  0  0
 12 14  1  0  0  0
 14 17  1  0  0  0
 17 18  2  0  0  0
 18 19  1  0  0  0
 19 20  2  0  0  0
 20 21  1  0  0  0
 21 22  1  0  0  0
 22 23  2  0  0  0
 23 24  1  0  0  0
 24 25  2  0  0  0
 25 26  1  0  0  0
 25 27  1  0  0  0
 27 28  2  0  0  0
 19 29  1  0  0  0
 29 30  1  0  0  0
 29 31  1  0  0  0
  4  5  1  0  0  0
  5  6  2  0  0  0
  6  7  1  0  0  0
  7  8  2  0  0  0
  8  9  1  0  0  0
  9 10  2  0  0  0
 37 38  2  0  0  0
 43 44  2  0  0  0
 44 45  1  0  0  0
 45 46  2  0  0  0
 45 47  1  0  0  0
 47 48  2  0  0  0
 47 49  1  0  0  0
 49 51  1  0  0  0
 51 52  1  0  0  0
 52 53  1  0  0  0
 46 41  1  0  0  0
 38 33  1  0  0  0
 10  1  1  0  0  0
 21 17  1  0  0  0
 28 22  1  0  0  0
 10  5  1  0  0  0
 39 40  1  0  0  0
 11 15  1  0  0  0
 14 16  1  0  0  0
 49 50  1  0  0  0
 53 54  1  0  0  0
M  END
> <minimizedAffinity>
-10.33581

> <CNNscore>
0.1154335439

> <CNNaffinity>
6.5758361816

> <CNN_VS>
0.7590720654

> <CNNaffinity_variance>
0.8583421707

$$$$
[H]OC([H])([H])C([H])([H])N([H])C(=O)c1c([H])c(OC([H])([H])[H])c([H])c(N([H])c2nc([H])c([H])c(Oc3c([H])c([H])c(N([H])C(=O)N([H])c4c([H])c(C([H])(C([H])([H])[H])C([H])([H])[H])nn4-c4c([H])c([H])c(C([H])([H])[H])c([H])c4[H])c4c([H])c([H])c([H])c([H])c34)n2)c1[H]


 56 61  0  0  0  0  0  0  0  0999 V2000
   56.3285   -4.1443   -9.7417 C   0  0  0  0  0  0  0  0  0  0  0  0
   57.4305   -4.7443   -9.1019 C   0  0  0  0  0  0  0  0  0  0  0  0
   57.3474   -5.2998   -7.8541 C   0  0  0  0  0  0  0  0  0  0  0  0
   56.1713   -5.2943   -7.1629 C   0  0  0  0  0  0  0  0  0  0  0  0
   55.0446   -4.7045   -7.7722 C   0  0  0  0  0  0  0  0  0  0  0  0
   53.8495   -4.6710   -7.1213 C   0  0  0  0  0  0  0  0  0  0  0  0
   52.7207   -4.0754   -7.7102 C   0  0  0  0  0  0  0  0  0  0  0  0
   52.8406   -3.5291   -8.9521 C   0  0  0  0  0  0  0  0  0  0  0  0
   54.0322   -3.5478   -9.6355 C   0  0  0  0  0  0  0  0  0  0  0  0
   55.1299   -4.1372   -9.0455 C   0  0  0  0  0  0  0  0  0  0  0  0
   56.0864   -5.7919   -5.8330 N   0  0  0  0  0  0  0  0  0  0  0  0
   55.6399   -7.0005   -5.3533 C   0  0  0  0  0  0  0  0  0  0  0  0
   55.2029   -7.8945   -6.1734 O   0  0  0  0  0  0  0  0  0  0  0  0
   55.6210   -7.3936   -4.0038 N   0  0  0  0  0  0  0  0  0  0  0  0
   56.4866   -5.1211   -5.1151 H   0  0  0  0  0  0  0  0  0  0  0  0
   55.2575   -8.4164   -3.7963 H   0  0  0  0  0  0  0  0  0  0  0  0
   55.8693   -6.6938   -2.8164 C   0  0  0  0  0  0  0  0  0  0  0  0
   56.9645   -6.6168   -2.0019 C   0  0  0  0  0  0  0  0  0  0  0  0
   56.6752   -5.8396   -0.8584 C   0  0  0  0  0  0  0  0  0  0  0  0
   55.4104   -5.4757   -1.0253 N   0  0  0  0  0  0  0  0  0  0  0  0
   54.9249   -5.9543   -2.1427 N   0  0  0  0  0  0  0  0  0  0  0  0
   53.5645   -5.7284   -2.5540 C   0  0  0  0  0  0  0  0  0  0  0  0
   52.6304   -5.3250   -1.6277 C   0  0  0  0  0  0  0  0  0  0  0  0
   51.3416   -5.0932   -1.9928 C   0  0  0  0  0  0  0  0  0  0  0  0
   50.9160   -5.2498   -3.3058 C   0  0  0  0  0  0  0  0  0  0  0  0
   49.4989   -4.9874   -3.6945 C   0  0  0  0  0  0  0  0  0  0  0  0
   51.8495   -5.6522   -4.2323 C   0  0  0  0  0  0  0  0  0  0  0  0
   53.1741   -5.8957   -3.8706 C   0  0  0  0  0  0  0  0  0  0  0  0
   57.5935   -5.4862    0.2535 C   0  0  0  0  0  0  0  0  0  0  0  0
   58.7536   -4.6533   -0.1819 C   0  0  0  0  0  0  0  0  0  0  0  0
   56.7822   -4.7131    1.3223 C   0  0  0  0  0  0  0  0  0  0  0  0
   56.4659   -3.6208  -10.9413 O   0  0  0  0  0  0  0  0  0  0  0  0
   56.9326   -3.8777  -14.4586 C   0  0  0  0  0  0  0  0  0  0  0  0
   58.2622   -3.8011  -14.5754 N   0  0  0  0  0  0  0  0  0  0  0  0
   59.1166   -3.6618  -13.5317 C   0  0  0  0  0  0  0  0  0  0  0  0
   58.5246   -3.5996  -12.2668 C   0  0  0  0  0  0  0  0  0  0  0  0
   57.1618   -3.6725  -12.0737 C   0  0  0  0  0  0  0  0  0  0  0  0
   56.4228   -3.8108  -13.2010 N   0  0  0  0  0  0  0  0  0  0  0  0
   56.0478   -3.9677  -15.5513 N   0  0  0  0  0  0  0  0  0  0  0  0
   55.0968   -4.4299  -15.3451 H   0  0  0  0  0  0  0  0  0  0  0  0
   55.7913   -2.3273  -18.9092 C   0  0  0  0  0  0  0  0  0  0  0  0
   55.5153   -2.6257  -17.5631 C   0  0  0  0  0  0  0  0  0  0  0  0
   56.2615   -3.5467  -16.8617 C   0  0  0  0  0  0  0  0  0  0  0  0
   57.3164   -4.1881  -17.5233 C   0  0  0  0  0  0  0  0  0  0  0  0
   57.5893   -3.8984  -18.8400 C   0  0  0  0  0  0  0  0  0  0  0  0
   56.8427   -2.9891  -19.5123 C   0  0  0  0  0  0  0  0  0  0  0  0
   58.7444   -4.6340  -19.4384 C   0  0  0  0  0  0  0  0  0  0  0  0
   59.2240   -3.9904  -20.4374 O   0  0  0  0  0  0  0  0  0  0  0  0
   59.1710   -5.7939  -18.9319 N   0  0  0  0  0  0  0  0  0  0  0  0
   60.2068   -5.8540  -19.8350 H   0  0  0  0  0  0  0  0  0  0  0  0
   59.6118   -6.9896  -18.4107 C   0  0  0  0  0  0  0  0  0  0  0  0
   58.5946   -8.1367  -18.4614 C   0  0  0  0  0  0  0  0  0  0  0  0
   58.1786   -8.3956  -17.1570 O   0  0  0  0  0  0  0  0  0  0  0  0
   57.1867   -8.4140  -17.1085 H   0  0  0  0  0  0  0  0  0  0  0  0
   55.0296   -0.0363  -19.2714 C   0  0  0  0  0  0  0  0  0  0  0  0
   55.0301   -1.4051  -19.5711 O   0  0  0  0  0  0  0  0  0  0  0  0
 55 56  1  0  0  0
 56 41  1  0  0  0
 41 42  2  0  0  0
 42 43  1  0  0  0
 43 39  1  0  0  0
 39 33  1  0  0  0
 33 34  2  0  0  0
 34 35  1  0  0  0
 35 36  2  0  0  0
 36 37  1  0  0  0
 37 32  1  0  0  0
 32  1  1  0  0  0
  1  2  2  0  0  0
  2  3  1  0  0  0
  3  4  2  0  0  0
  4 11  1  0  0  0
 11 12  1  0  0  0
 12 13  2  0  0  0
 12 14  1  0  0  0
 14 17  1  0  0  0
 17 18  2  0  0  0
 18 19  1  0  0  0
 19 20  2  0  0  0
 20 21  1  0  0  0
 21 22  1  0  0  0
 22 23  2  0  0  0
 23 24  1  0  0  0
 24 25  2  0  0  0
 25 26  1  0  0  0
 25 27  1  0  0  0
 27 28  2  0  0  0
 19 29  1  0  0  0
 29 30  1  0  0  0
 29 31  1  0  0  0
  4  5  1  0  0  0
  5  6  2  0  0  0
  6  7  1  0  0  0
  7  8  2  0  0  0
  8  9  1  0  0  0
  9 10  2  0  0  0
 37 38  2  0  0  0
 43 44  2  0  0  0
 44 45  1  0  0  0
 45 46  2  0  0  0
 45 47  1  0  0  0
 47 48  2  0  0  0
 47 49  1  0  0  0
 49 51  1  0  0  0
 51 52  1  0  0  0
 52 53  1  0  0  0
 46 41  1  0  0  0
 38 33  1  0  0  0
 10  1  1  0  0  0
 21 17  1  0  0  0
 28 22  1  0  0  0
 10  5  1  0  0  0
 39 40  1  0  0  0
 11 15  1  0  0  0
 14 16  1  0  0  0
 49 50  1  0  0  0
 53 54  1  0  0  0
M  END
> <minimizedAffinity>
-10.36979

> <CNNscore>
0.1125587821

> <CNNaffinity>
6.7332963943

> <CNN_VS>
0.7578916550

> <CNNaffinity_variance>
0.5197049379

$$$$
[H]c1c([H])c(S(=O)(=O)N([H])c2c([H])c(C(F)(F)F)c([H])c(C([H])(C([H])([H])[H])C([H])([H])[H])c2[H])c([H])c(OC([H])([H])[H])c1OC([H])([H])[H]


 28 29  0  0  0  0  0  0  0  0999 V2000
   54.4826   -2.9984   -8.9997 N   0  0  0  0  0  0  0  0  0  0  0  0
   54.7796   -2.0141   -8.9336 H   0  0  0  0  0  0  0  0  0  0  0  0
   53.7188   -3.6623   -7.9978 C   0  0  0  0  0  0  0  0  0  0  0  0
   52.3878   -3.3875   -7.7651 C   0  0  0  0  0  0  0  0  0  0  0  0
   51.6393   -4.0549   -6.7906 C   0  0  0  0  0  0  0  0  0  0  0  0
   52.2419   -5.0255   -6.0257 C   0  0  0  0  0  0  0  0  0  0  0  0
   53.5719   -5.2813   -6.2758 C   0  0  0  0  0  0  0  0  0  0  0  0
   54.3276   -4.6549   -7.2093 C   0  0  0  0  0  0  0  0  0  0  0  0
   54.2176   -6.3438   -5.4198 C   0  0  0  0  0  0  0  0  0  0  0  0
   53.2946   -6.8018   -4.4831 F   0  0  0  0  0  0  0  0  0  0  0  0
   54.5290   -7.4399   -6.1887 F   0  0  0  0  0  0  0  0  0  0  0  0
   55.3388   -5.8574   -4.8069 F   0  0  0  0  0  0  0  0  0  0  0  0
   50.2139   -3.6756   -6.6596 C   0  0  0  0  0  0  0  0  0  0  0  0
   50.0466   -2.2573   -7.1140 C   0  0  0  0  0  0  0  0  0  0  0  0
   49.6732   -3.9041   -5.2665 C   0  0  0  0  0  0  0  0  0  0  0  0
   54.8968   -3.8867  -10.4236 S   0  0  0  0  0  0  0  0  0  0  0  0
   54.6248   -3.0292  -11.6440 O   0  0  0  0  0  0  0  0  0  0  0  0
   53.9148   -5.0338  -10.4958 O   0  0  0  0  0  0  0  0  0  0  0  0
   59.1348   -5.3351  -10.3972 C   0  0  0  0  0  0  0  0  0  0  0  0
   58.3026   -5.5943   -9.3583 C   0  0  0  0  0  0  0  0  0  0  0  0
   56.9911   -5.1548   -9.3477 C   0  0  0  0  0  0  0  0  0  0  0  0
   56.5576   -4.4317  -10.4537 C   0  0  0  0  0  0  0  0  0  0  0  0
   57.3421   -4.1372  -11.5262 C   0  0  0  0  0  0  0  0  0  0  0  0
   58.6734   -4.5968  -11.5084 C   0  0  0  0  0  0  0  0  0  0  0  0
   60.9266   -6.4791   -9.2410 C   0  0  0  0  0  0  0  0  0  0  0  0
   60.4327   -5.7813  -10.3884 O   0  0  0  0  0  0  0  0  0  0  0  0
   59.4326   -4.3086  -12.5388 O   0  0  0  0  0  0  0  0  0  0  0  0
   60.2210   -3.8934  -13.4645 C   0  0  0  0  0  0  0  0  0  0  0  0
 25 26  1  0  0  0
 26 19  1  0  0  0
 19 20  2  0  0  0
 20 21  1  0  0  0
 21 22  2  0  0  0
 22 23  1  0  0  0
 23 24  2  0  0  0
 24 27  1  0  0  0
 27 28  1  0  0  0
 22 16  1  0  0  0
 16 17  2  0  0  0
 16 18  2  0  0  0
 16  1  1  0  0  0
  1  3  1  0  0  0
  3  4  2  0  0  0
  4  5  1  0  0  0
  5  6  2  0  0  0
  6  7  1  0  0  0
  7  8  2  0  0  0
  7  9  1  0  0  0
  9 10  1  0  0  0
  9 11  1  0  0  0
  9 12  1  0  0  0
  5 13  1  0  0  0
 13 14  1  0  0  0
 13 15  1  0  0  0
 24 19  1  0  0  0
  8  3  1  0  0  0
  1  2  1  0  0  0
M  END
> <minimizedAffinity>
-6.29287

> <CNNscore>
0.5179302692

> <CNNaffinity>
6.1431488991

> <CNN_VS>
3.1817228794

> <CNNaffinity_variance>
0.2245095074

$$$$
[H]c1c([H])c(S(=O)(=O)N([H])c2c([H])c(C(F)(F)F)c([H])c(C([H])(C([H])([H])[H])C([H])([H])[H])c2[H])c([H])c(OC([H])([H])[H])c1OC([H])([H])[H]


 28 29  0  0  0  0  0  0  0  0999 V2000
   52.8517   -6.8281   -6.7621 N   0  0  0  0  0  0  0  0  0  0  0  0
   51.9184   -6.9985   -6.3603 H   0  0  0  0  0  0  0  0  0  0  0  0
   53.2100   -5.6334   -7.4492 C   0  0  0  0  0  0  0  0  0  0  0  0
   52.2869   -4.6836   -7.8326 C   0  0  0  0  0  0  0  0  0  0  0  0
   52.6477   -3.5048   -8.4925 C   0  0  0  0  0  0  0  0  0  0  0  0
   53.9719   -3.2707   -8.7780 C   0  0  0  0  0  0  0  0  0  0  0  0
   54.8749   -4.2341   -8.3864 C   0  0  0  0  0  0  0  0  0  0  0  0
   54.5621   -5.3868   -7.7473 C   0  0  0  0  0  0  0  0  0  0  0  0
   56.3227   -3.9629   -8.7167 C   0  0  0  0  0  0  0  0  0  0  0  0
   56.8402   -3.0537   -7.7976 F   0  0  0  0  0  0  0  0  0  0  0  0
   57.0639   -5.1086   -8.5508 F   0  0  0  0  0  0  0  0  0  0  0  0
   56.4488   -3.4944   -9.9949 F   0  0  0  0  0  0  0  0  0  0  0  0
   51.5574   -2.5608   -8.8287 C   0  0  0  0  0  0  0  0  0  0  0  0
   52.1606   -1.2724   -9.2999 C   0  0  0  0  0  0  0  0  0  0  0  0
   50.5843   -2.3611   -7.6891 C   0  0  0  0  0  0  0  0  0  0  0  0
   54.0671   -8.0403   -6.5575 S   0  0  0  0  0  0  0  0  0  0  0  0
   55.1029   -7.8992   -7.6556 O   0  0  0  0  0  0  0  0  0  0  0  0
   53.3779   -9.3628   -6.8051 O   0  0  0  0  0  0  0  0  0  0  0  0
   56.0080   -7.9631   -2.5220 C   0  0  0  0  0  0  0  0  0  0  0  0
   54.8090   -8.5689   -2.7078 C   0  0  0  0  0  0  0  0  0  0  0  0
   54.1935   -8.6024   -3.9461 C   0  0  0  0  0  0  0  0  0  0  0  0
   54.8590   -7.9857   -4.9999 C   0  0  0  0  0  0  0  0  0  0  0  0
   56.0618   -7.3603   -4.8793 C   0  0  0  0  0  0  0  0  0  0  0  0
   56.6640   -7.3411   -3.6062 C   0  0  0  0  0  0  0  0  0  0  0  0
   55.8643   -8.3917   -0.1446 C   0  0  0  0  0  0  0  0  0  0  0  0
   56.6024   -7.9419   -1.2850 O   0  0  0  0  0  0  0  0  0  0  0  0
   57.8206   -6.7335   -3.4870 O   0  0  0  0  0  0  0  0  0  0  0  0
   58.8968   -6.0315   -3.4798 C   0  0  0  0  0  0  0  0  0  0  0  0
 25 26  1  0  0  0
 26 19  1  0  0  0
 19 20  2  0  0  0
 20 21  1  0  0  0
 21 22  2  0  0  0
 22 23  1  0  0  0
 23 24  2  0  0  0
 24 27  1  0  0  0
 27 28  1  0  0  0
 22 16  1  0  0  0
 16 17  2  0  0  0
 16 18  2  0  0  0
 16  1  1  0  0  0
  1  3  1  0  0  0
  3  4  2  0  0  0
  4  5  1  0  0  0
  5  6  2  0  0  0
  6  7  1  0  0  0
  7  8  2  0  0  0
  7  9  1  0  0  0
  9 10  1  0  0  0
  9 11  1  0  0  0
  9 12  1  0  0  0
  5 13  1  0  0  0
 13 14  1  0  0  0
 13 15  1  0  0  0
 24 19  1  0  0  0
  8  3  1  0  0  0
  1  2  1  0  0  0
M  END
> <minimizedAffinity>
9.33515

> <CNNscore>
0.3362876475

> <CNNaffinity>
5.7998533249

> <CNN_VS>
1.9504190683

> <CNNaffinity_variance>
0.7448202372

$$$$
[H]c1c([H])c(S(=O)(=O)N([H])c2c([H])c(C(F)(F)F)c([H])c(C([H])(C([H])([H])[H])C([H])([H])[H])c2[H])c([H])c(OC([H])([H])[H])c1OC([H])([H])[H]


 28 29  0  0  0  0  0  0  0  0999 V2000
   56.1506   -3.0799   -9.6403 N   0  0  0  0  0  0  0  0  0  0  0  0
   56.3955   -2.0792   -9.6240 H   0  0  0  0  0  0  0  0  0  0  0  0
   55.2391   -3.6853   -8.7291 C   0  0  0  0  0  0  0  0  0  0  0  0
   53.8981   -3.3668   -8.6877 C   0  0  0  0  0  0  0  0  0  0  0  0
   53.0053   -3.9772   -7.8013 C   0  0  0  0  0  0  0  0  0  0  0  0
   53.4692   -4.9339   -6.9299 C   0  0  0  0  0  0  0  0  0  0  0  0
   54.8121   -5.2340   -6.9891 C   0  0  0  0  0  0  0  0  0  0  0  0
   55.7054   -4.6633   -7.8326 C   0  0  0  0  0  0  0  0  0  0  0  0
   55.3038   -6.2803   -6.0185 C   0  0  0  0  0  0  0  0  0  0  0  0
   56.6931   -6.2206   -5.9446 F   0  0  0  0  0  0  0  0  0  0  0  0
   54.8598   -5.9890   -4.7506 F   0  0  0  0  0  0  0  0  0  0  0  0
   54.8854   -7.5261   -6.3957 F   0  0  0  0  0  0  0  0  0  0  0  0
   51.5877   -3.5557   -7.8770 C   0  0  0  0  0  0  0  0  0  0  0  0
   51.5327   -2.1097   -8.2668 C   0  0  0  0  0  0  0  0  0  0  0  0
   50.8238   -3.8410   -6.6040 C   0  0  0  0  0  0  0  0  0  0  0  0
   56.8515   -4.0764  -10.8668 S   0  0  0  0  0  0  0  0  0  0  0  0
   57.1953   -3.2202  -12.0699 O   0  0  0  0  0  0  0  0  0  0  0  0
   55.7511   -5.0078  -11.3217 O   0  0  0  0  0  0  0  0  0  0  0  0
   60.4532   -6.3078   -9.4152 C   0  0  0  0  0  0  0  0  0  0  0  0
   59.3856   -6.1035   -8.6043 C   0  0  0  0  0  0  0  0  0  0  0  0
   58.2648   -5.4162   -9.0341 C   0  0  0  0  0  0  0  0  0  0  0  0
   58.2773   -4.9403  -10.3407 C   0  0  0  0  0  0  0  0  0  0  0  0
   59.3163   -5.1103  -11.2032 C   0  0  0  0  0  0  0  0  0  0  0  0
   60.4446   -5.8131  -10.7373 C   0  0  0  0  0  0  0  0  0  0  0  0
   61.6993   -7.2561   -7.5702 C   0  0  0  0  0  0  0  0  0  0  0  0
   61.5555   -6.9935   -8.9694 O   0  0  0  0  0  0  0  0  0  0  0  0
   61.4494   -5.9727  -11.5656 O   0  0  0  0  0  0  0  0  0  0  0  0
   62.5196   -6.1770  -12.2467 C   0  0  0  0  0  0  0  0  0  0  0  0
 25 26  1  0  0  0
 26 19  1  0  0  0
 19 20  2  0  0  0
 20 21  1  0  0  0
 21 22  2  0  0  0
 22 23  1  0  0  0
 23 24  2  0  0  0
 24 27  1  0  0  0
 27 28  1  0  0  0
 22 16  1  0  0  0
 16 17  2  0  0  0
 16 18  2  0  0  0
 16  1  1  0  0  0
  1  3  1  0  0  0
  3  4  2  0  0  0
  4  5  1  0  0  0
  5  6  2  0  0  0
  6  7  1  0  0  0
  7  8  2  0  0  0
  7  9  1  0  0  0
  9 10  1  0  0  0
  9 11  1  0  0  0
  9 12  1  0  0  0
  5 13  1  0  0  0
 13 14  1  0  0  0
 13 15  1  0  0  0
 24 19  1  0  0  0
  8  3  1  0  0  0
  1  2  1  0  0  0
M  END
> <minimizedAffinity>
-6.37568

> <CNNscore>
0.2978333235

> <CNNaffinity>
5.8903388977

> <CNN_VS>
1.7543392181

> <CNNaffinity_variance>
0.2921620011

$$$$
[H]c1c([H])c(S(=O)(=O)N([H])c2c([H])c(C(F)(F)F)c([H])c(C([H])(C([H])([H])[H])C([H])([H])[H])c2[H])c([H])c(OC([H])([H])[H])c1OC([H])([H])[H]


 28 29  0  0  0  0  0  0  0  0999 V2000
   55.6474   -2.9625   -9.2397 N   0  0  0  0  0  0  0  0  0  0  0  0
   55.9586   -1.9840   -9.1550 H   0  0  0  0  0  0  0  0  0  0  0  0
   54.6055   -3.5313   -8.4531 C   0  0  0  0  0  0  0  0  0  0  0  0
   54.7886   -4.6423   -7.6572 C   0  0  0  0  0  0  0  0  0  0  0  0
   53.7652   -5.1859   -6.8745 C   0  0  0  0  0  0  0  0  0  0  0  0
   52.5215   -4.6003   -6.8901 C   0  0  0  0  0  0  0  0  0  0  0  0
   52.3628   -3.4929   -7.6935 C   0  0  0  0  0  0  0  0  0  0  0  0
   53.3296   -2.9402   -8.4648 C   0  0  0  0  0  0  0  0  0  0  0  0
   50.9880   -2.8696   -7.7039 C   0  0  0  0  0  0  0  0  0  0  0  0
   50.5537   -2.6949   -6.3924 F   0  0  0  0  0  0  0  0  0  0  0  0
   51.0510   -1.6043   -8.2372 F   0  0  0  0  0  0  0  0  0  0  0  0
   50.1107   -3.6426   -8.4126 F   0  0  0  0  0  0  0  0  0  0  0  0
   54.1040   -6.3687   -6.0504 C   0  0  0  0  0  0  0  0  0  0  0  0
   53.7069   -6.0995   -4.6307 C   0  0  0  0  0  0  0  0  0  0  0  0
   55.5546   -6.7747   -6.1782 C   0  0  0  0  0  0  0  0  0  0  0  0
   56.4013   -3.9631  -10.4309 S   0  0  0  0  0  0  0  0  0  0  0  0
   56.7911   -3.1122  -11.6237 O   0  0  0  0  0  0  0  0  0  0  0  0
   55.3236   -4.9009  -10.9253 O   0  0  0  0  0  0  0  0  0  0  0  0
   59.9529   -6.1630   -8.8170 C   0  0  0  0  0  0  0  0  0  0  0  0
   58.9020   -5.8533   -8.0178 C   0  0  0  0  0  0  0  0  0  0  0  0
   57.7969   -5.1738   -8.4975 C   0  0  0  0  0  0  0  0  0  0  0  0
   57.8073   -4.8190   -9.8421 C   0  0  0  0  0  0  0  0  0  0  0  0
   58.8300   -5.0984  -10.6956 C   0  0  0  0  0  0  0  0  0  0  0  0
   59.9426   -5.7903  -10.1785 C   0  0  0  0  0  0  0  0  0  0  0  0
   62.2884   -6.1536   -8.1832 C   0  0  0  0  0  0  0  0  0  0  0  0
   61.0398   -6.8388   -8.3213 O   0  0  0  0  0  0  0  0  0  0  0  0
   60.9318   -6.0551  -10.9985 O   0  0  0  0  0  0  0  0  0  0  0  0
   61.9994   -6.2596  -11.6838 C   0  0  0  0  0  0  0  0  0  0  0  0
 25 26  1  0  0  0
 26 19  1  0  0  0
 19 20  2  0  0  0
 20 21  1  0  0  0
 21 22  2  0  0  0
 22 23  1  0  0  0
 23 24  2  0  0  0
 24 27  1  0  0  0
 27 28  1  0  0  0
 22 16  1  0  0  0
 16 17  2  0  0  0
 16 18  2  0  0  0
 16  1  1  0  0  0
  1  3  1  0  0  0
  3  4  2  0  0  0
  4  5  1  0  0  0
  5  6  2  0  0  0
  6  7  1  0  0  0
  7  8  2  0  0  0
  7  9  1  0  0  0
  9 10  1  0  0  0
  9 11  1  0  0  0
  9 12  1  0  0  0
  5 13  1  0  0  0
 13 14  1  0  0  0
 13 15  1  0  0  0
 24 19  1  0  0  0
  8  3  1  0  0  0
  1  2  1  0  0  0
M  END
> <minimizedAffinity>
-6.31997

> <CNNscore>
0.2842991054

> <CNNaffinity>
5.9008836746

> <CNN_VS>
1.6776160002

> <CNNaffinity_variance>
0.2397547662

$$$$
[H]c1c([H])c(S(=O)(=O)N([H])c2c([H])c(C(F)(F)F)c([H])c(C([H])(C([H])([H])[H])C([H])([H])[H])c2[H])c([H])c(OC([H])([H])[H])c1OC([H])([H])[H]


 28 29  0  0  0  0  0  0  0  0999 V2000
   54.3995   -4.6773   -9.1829 N   0  0  0  0  0  0  0  0  0  0  0  0
   53.8464   -4.6611  -10.0520 H   0  0  0  0  0  0  0  0  0  0  0  0
   53.8462   -4.9476   -7.8989 C   0  0  0  0  0  0  0  0  0  0  0  0
   52.5933   -4.5167   -7.5170 C   0  0  0  0  0  0  0  0  0  0  0  0
   52.0494   -4.7998   -6.2602 C   0  0  0  0  0  0  0  0  0  0  0  0
   52.7822   -5.5351   -5.3590 C   0  0  0  0  0  0  0  0  0  0  0  0
   54.0308   -5.9531   -5.7628 C   0  0  0  0  0  0  0  0  0  0  0  0
   54.5897   -5.6971   -6.9699 C   0  0  0  0  0  0  0  0  0  0  0  0
   54.8233   -6.7514   -4.7561 C   0  0  0  0  0  0  0  0  0  0  0  0
   53.9451   -7.4076   -3.8974 F   0  0  0  0  0  0  0  0  0  0  0  0
   55.5210   -7.7494   -5.3940 F   0  0  0  0  0  0  0  0  0  0  0  0
   55.6777   -5.9422   -4.0601 F   0  0  0  0  0  0  0  0  0  0  0  0
   50.6847   -4.2934   -5.9878 C   0  0  0  0  0  0  0  0  0  0  0  0
   49.6952   -5.3733   -6.3052 C   0  0  0  0  0  0  0  0  0  0  0  0
   50.3840   -3.0020   -6.7139 C   0  0  0  0  0  0  0  0  0  0  0  0
   56.1029   -4.4023   -9.2891 S   0  0  0  0  0  0  0  0  0  0  0  0
   56.8370   -5.5591   -8.6397 O   0  0  0  0  0  0  0  0  0  0  0  0
   56.3818   -3.1955   -8.4225 O   0  0  0  0  0  0  0  0  0  0  0  0
   57.4720   -3.8415  -13.5163 C   0  0  0  0  0  0  0  0  0  0  0  0
   56.1593   -3.7456  -13.1898 C   0  0  0  0  0  0  0  0  0  0  0  0
   55.7171   -3.9164  -11.8903 C   0  0  0  0  0  0  0  0  0  0  0  0
   56.6802   -4.1920  -10.9258 C   0  0  0  0  0  0  0  0  0  0  0  0
   58.0111   -4.3024  -11.1882 C   0  0  0  0  0  0  0  0  0  0  0  0
   58.4317   -4.1247  -12.5206 C   0  0  0  0  0  0  0  0  0  0  0  0
   56.9325   -3.3228  -15.8176 C   0  0  0  0  0  0  0  0  0  0  0  0
   57.8902   -3.6675  -14.8120 O   0  0  0  0  0  0  0  0  0  0  0  0
   59.7136   -4.2367  -12.7762 O   0  0  0  0  0  0  0  0  0  0  0  0
   60.9464   -4.2300  -13.1386 C   0  0  0  0  0  0  0  0  0  0  0  0
 25 26  1  0  0  0
 26 19  1  0  0  0
 19 20  2  0  0  0
 20 21  1  0  0  0
 21 22  2  0  0  0
 22 23  1  0  0  0
 23 24  2  0  0  0
 24 27  1  0  0  0
 27 28  1  0  0  0
 22 16  1  0  0  0
 16 17  2  0  0  0
 16 18  2  0  0  0
 16  1  1  0  0  0
  1  3  1  0  0  0
  3  4  2  0  0  0
  4  5  1  0  0  0
  5  6  2  0  0  0
  6  7  1  0  0  0
  7  8  2  0  0  0
  7  9  1  0  0  0
  9 10  1  0  0  0
  9 11  1  0  0  0
  9 12  1  0  0  0
  5 13  1  0  0  0
 13 14  1  0  0  0
 13 15  1  0  0  0
 24 19  1  0  0  0
  8  3  1  0  0  0
  1  2  1  0  0  0
M  END
> <minimizedAffinity>
-7.22743

> <CNNscore>
0.2835539579

> <CNNaffinity>
5.9998879433

> <CNN_VS>
1.7012919188

> <CNNaffinity_variance>
0.1636509895

$$$$
[H]c1c([H])c(S(=O)(=O)N([H])c2c([H])c(C(F)(F)F)c([H])c(C([H])(C([H])([H])[H])C([H])([H])[H])c2[H])c([H])c(OC([H])([H])[H])c1OC([H])([H])[H]


 28 29  0  0  0  0  0  0  0  0999 V2000
   53.9996   -5.1855   -7.9304 N   0  0  0  0  0  0  0  0  0  0  0  0
   54.0873   -6.0068   -8.5464 H   0  0  0  0  0  0  0  0  0  0  0  0
   52.9946   -5.0514   -6.9305 C   0  0  0  0  0  0  0  0  0  0  0  0
   51.8691   -4.2727   -7.0988 C   0  0  0  0  0  0  0  0  0  0  0  0
   50.8780   -4.1586   -6.1190 C   0  0  0  0  0  0  0  0  0  0  0  0
   51.0185   -4.8436   -4.9354 C   0  0  0  0  0  0  0  0  0  0  0  0
   52.1511   -5.6136   -4.7902 C   0  0  0  0  0  0  0  0  0  0  0  0
   53.1312   -5.7468   -5.7159 C   0  0  0  0  0  0  0  0  0  0  0  0
   52.2914   -6.3509   -3.4805 C   0  0  0  0  0  0  0  0  0  0  0  0
   53.3775   -7.2190   -3.5569 F   0  0  0  0  0  0  0  0  0  0  0  0
   52.6036   -5.4663   -2.4757 F   0  0  0  0  0  0  0  0  0  0  0  0
   51.1422   -7.0278   -3.1798 F   0  0  0  0  0  0  0  0  0  0  0  0
   49.7111   -3.3045   -6.4382 C   0  0  0  0  0  0  0  0  0  0  0  0
   50.1757   -2.1339   -7.2505 C   0  0  0  0  0  0  0  0  0  0  0  0
   48.9392   -2.8848   -5.2080 C   0  0  0  0  0  0  0  0  0  0  0  0
   55.1604   -3.9142   -8.0875 S   0  0  0  0  0  0  0  0  0  0  0  0
   55.8797   -3.7286   -6.7658 O   0  0  0  0  0  0  0  0  0  0  0  0
   54.3615   -2.6495   -8.3059 O   0  0  0  0  0  0  0  0  0  0  0  0
   58.1010   -4.5429  -11.4066 C   0  0  0  0  0  0  0  0  0  0  0  0
   56.9827   -3.7997  -11.5969 C   0  0  0  0  0  0  0  0  0  0  0  0
   56.0626   -3.5949  -10.5846 C   0  0  0  0  0  0  0  0  0  0  0  0
   56.3331   -4.1860   -9.3553 C   0  0  0  0  0  0  0  0  0  0  0  0
   57.4348   -4.9434   -9.1003 C   0  0  0  0  0  0  0  0  0  0  0  0
   58.3534   -5.1356  -10.1505 C   0  0  0  0  0  0  0  0  0  0  0  0
   59.4971   -3.5995  -13.1436 C   0  0  0  0  0  0  0  0  0  0  0  0
   59.0021   -4.7331  -12.4243 O   0  0  0  0  0  0  0  0  0  0  0  0
   59.4129   -5.8704   -9.9081 O   0  0  0  0  0  0  0  0  0  0  0  0
   60.4722   -6.4967   -9.5385 C   0  0  0  0  0  0  0  0  0  0  0  0
 25 26  1  0  0  0
 26 19  1  0  0  0
 19 20  2  0  0  0
 20 21  1  0  0  0
 21 22  2  0  0  0
 22 23  1  0  0  0
 23 24  2  0  0  0
 24 27  1  0  0  0
 27 28  1  0  0  0
 22 16  1  0  0  0
 16 17  2  0  0  0
 16 18  2  0  0  0
 16  1  1  0  0  0
  1  3  1  0  0  0
  3  4  2  0  0  0
  4  5  1  0  0  0
  5  6  2  0  0  0
  6  7  1  0  0  0
  7  8  2  0  0  0
  7  9  1  0  0  0
  9 10  1  0  0  0
  9 11  1  0  0  0
  9 12  1  0  0  0
  5 13  1  0  0  0
 13 14  1  0  0  0
 13 15  1  0  0  0
 24 19  1  0  0  0
  8  3  1  0  0  0
  1  2  1  0  0  0
M  END
> <minimizedAffinity>
-9.57692

> <CNNscore>
0.2691475153

> <CNNaffinity>
6.0649790764

> <CNN_VS>
1.6323740482

> <CNNaffinity_variance>
0.2471991777

$$$$
[H]c1c([H])c(S(=O)(=O)N([H])c2c([H])c(C(F)(F)F)c([H])c(C([H])(C([H])([H])[H])C([H])([H])[H])c2[H])c([H])c(OC([H])([H])[H])c1OC([H])([H])[H]


 28 29  0  0  0  0  0  0  0  0999 V2000
   53.3202   -3.8859  -10.0470 N   0  0  0  0  0  0  0  0  0  0  0  0
   52.6190   -4.2541  -10.7059 H   0  0  0  0  0  0  0  0  0  0  0  0
   54.7122   -4.1739  -10.1319 C   0  0  0  0  0  0  0  0  0  0  0  0
   55.4065   -4.1730  -11.3232 C   0  0  0  0  0  0  0  0  0  0  0  0
   56.7770   -4.4407  -11.3973 C   0  0  0  0  0  0  0  0  0  0  0  0
   57.4725   -4.7186  -10.2444 C   0  0  0  0  0  0  0  0  0  0  0  0
   56.7573   -4.7149   -9.0674 C   0  0  0  0  0  0  0  0  0  0  0  0
   55.4311   -4.4615   -8.9580 C   0  0  0  0  0  0  0  0  0  0  0  0
   57.5368   -5.0310   -7.8140 C   0  0  0  0  0  0  0  0  0  0  0  0
   57.5345   -3.9164   -6.9791 F   0  0  0  0  0  0  0  0  0  0  0  0
   56.8993   -6.0191   -7.1022 F   0  0  0  0  0  0  0  0  0  0  0  0
   58.8136   -5.4122   -8.1203 F   0  0  0  0  0  0  0  0  0  0  0  0
   57.4019   -4.3865  -12.7387 C   0  0  0  0  0  0  0  0  0  0  0  0
   58.7507   -3.7444  -12.6189 C   0  0  0  0  0  0  0  0  0  0  0  0
   56.5260   -3.7046  -13.7650 C   0  0  0  0  0  0  0  0  0  0  0  0
   52.7879   -2.8250   -8.7902 S   0  0  0  0  0  0  0  0  0  0  0  0
   51.8302   -1.8033   -9.3713 O   0  0  0  0  0  0  0  0  0  0  0  0
   54.0110   -2.0483   -8.3589 O   0  0  0  0  0  0  0  0  0  0  0  0
   50.9035   -5.0166   -5.3690 C   0  0  0  0  0  0  0  0  0  0  0  0
   52.0254   -5.4890   -5.9668 C   0  0  0  0  0  0  0  0  0  0  0  0
   52.6214   -4.8269   -7.0249 C   0  0  0  0  0  0  0  0  0  0  0  0
   52.0193   -3.6489   -7.4536 C   0  0  0  0  0  0  0  0  0  0  0  0
   50.8935   -3.1231   -6.8980 C   0  0  0  0  0  0  0  0  0  0  0  0
   50.3082   -3.8198   -5.8229 C   0  0  0  0  0  0  0  0  0  0  0  0
   50.6890   -5.3374   -2.9800 C   0  0  0  0  0  0  0  0  0  0  0  0
   50.3282   -5.6885   -4.3194 O   0  0  0  0  0  0  0  0  0  0  0  0
   49.2196   -3.3174   -5.2902 O   0  0  0  0  0  0  0  0  0  0  0  0
   48.2382   -2.8162   -4.6293 C   0  0  0  0  0  0  0  0  0  0  0  0
 25 26  1  0  0  0
 26 19  1  0  0  0
 19 20  2  0  0  0
 20 21  1  0  0  0
 21 22  2  0  0  0
 22 23  1  0  0  0
 23 24  2  0  0  0
 24 27  1  0  0  0
 27 28  1  0  0  0
 22 16  1  0  0  0
 16 17  2  0  0  0
 16 18  2  0  0  0
 16  1  1  0  0  0
  1  3  1  0  0  0
  3  4  2  0  0  0
  4  5  1  0  0  0
  5  6  2  0  0  0
  6  7  1  0  0  0
  7  8  2  0  0  0
  7  9  1  0  0  0
  9 10  1  0  0  0
  9 11  1  0  0  0
  9 12  1  0  0  0
  5 13  1  0  0  0
 13 14  1  0  0  0
 13 15  1  0  0  0
 24 19  1  0  0  0
  8  3  1  0  0  0
  1  2  1  0  0  0
M  END
> <minimizedAffinity>
-8.33575

> <CNNscore>
0.2667363882

> <CNNaffinity>
6.3212924004

> <CNN_VS>
1.6861187220

> <CNNaffinity_variance>
0.2069286406

$$$$
[H]c1c([H])c(S(=O)(=O)N([H])c2c([H])c(C(F)(F)F)c([H])c(C([H])(C([H])([H])[H])C([H])([H])[H])c2[H])c([H])c(OC([H])([H])[H])c1OC([H])([H])[H]


 28 29  0  0  0  0  0  0  0  0999 V2000
   53.1132   -5.1170   -8.5086 N   0  0  0  0  0  0  0  0  0  0  0  0
   52.7029   -5.7329   -9.2255 H   0  0  0  0  0  0  0  0  0  0  0  0
   52.9241   -5.2982   -7.1089 C   0  0  0  0  0  0  0  0  0  0  0  0
   53.9165   -5.7637   -6.2725 C   0  0  0  0  0  0  0  0  0  0  0  0
   53.7289   -5.9237   -4.8961 C   0  0  0  0  0  0  0  0  0  0  0  0
   52.5112   -5.6092   -4.3410 C   0  0  0  0  0  0  0  0  0  0  0  0
   51.5355   -5.1474   -5.1965 C   0  0  0  0  0  0  0  0  0  0  0  0
   51.6809   -4.9811   -6.5330 C   0  0  0  0  0  0  0  0  0  0  0  0
   50.2030   -4.8160   -4.5694 C   0  0  0  0  0  0  0  0  0  0  0  0
   49.2230   -5.6447   -5.1099 F   0  0  0  0  0  0  0  0  0  0  0  0
   50.2297   -5.1126   -3.2275 F   0  0  0  0  0  0  0  0  0  0  0  0
   49.8917   -3.4985   -4.7604 F   0  0  0  0  0  0  0  0  0  0  0  0
   54.8855   -6.4132   -4.1115 C   0  0  0  0  0  0  0  0  0  0  0  0
   56.0063   -5.4259   -4.2338 C   0  0  0  0  0  0  0  0  0  0  0  0
   55.3039   -7.8137   -4.4977 C   0  0  0  0  0  0  0  0  0  0  0  0
   54.1227   -3.8130   -9.0273 S   0  0  0  0  0  0  0  0  0  0  0  0
   54.1851   -2.7644   -7.9341 O   0  0  0  0  0  0  0  0  0  0  0  0
   53.3976   -3.1635  -10.1839 O   0  0  0  0  0  0  0  0  0  0  0  0
   58.2885   -5.1285  -10.0146 C   0  0  0  0  0  0  0  0  0  0  0  0
   57.7412   -5.3960   -8.8030 C   0  0  0  0  0  0  0  0  0  0  0  0
   56.4569   -4.9973   -8.4792 C   0  0  0  0  0  0  0  0  0  0  0  0
   55.7447   -4.3066   -9.4536 C   0  0  0  0  0  0  0  0  0  0  0  0
   56.2364   -4.0057  -10.6866 C   0  0  0  0  0  0  0  0  0  0  0  0
   57.5474   -4.4234  -10.9875 C   0  0  0  0  0  0  0  0  0  0  0  0
   60.3140   -6.2711   -9.3456 C   0  0  0  0  0  0  0  0  0  0  0  0
   59.5646   -5.5339  -10.3163 O   0  0  0  0  0  0  0  0  0  0  0  0
   58.0249   -4.1289  -12.1734 O   0  0  0  0  0  0  0  0  0  0  0  0
   58.6265   -3.9222  -13.2898 C   0  0  0  0  0  0  0  0  0  0  0  0
 25 26  1  0  0  0
 26 19  1  0  0  0
 19 20  2  0  0  0
 20 21  1  0  0  0
 21 22  2  0  0  0
 22 23  1  0  0  0
 23 24  2  0  0  0
 24 27  1  0  0  0
 27 28  1  0  0  0
 22 16  1  0  0  0
 16 17  2  0  0  0
 16 18  2  0  0  0
 16  1  1  0  0  0
  1  3  1  0  0  0
  3  4  2  0  0  0
  4  5  1  0  0  0
  5  6  2  0  0  0
  6  7  1  0  0  0
  7  8  2  0  0  0
  7  9  1  0  0  0
  9 10  1  0  0  0
  9 11  1  0  0  0
  9 12  1  0  0  0
  5 13  1  0  0  0
 13 14  1  0  0  0
 13 15  1  0  0  0
 24 19  1  0  0  0
  8  3  1  0  0  0
  1  2  1  0  0  0
M  END
> <minimizedAffinity>
-7.82521

> <CNNscore>
0.2624582648

> <CNNaffinity>
6.1395854950

> <CNN_VS>
1.6113849878

> <CNNaffinity_variance>
0.1735987812

$$$$
[H]c1c([H])c(S(=O)(=O)N([H])c2c([H])c(C(F)(F)F)c([H])c(C([H])(C([H])([H])[H])C([H])([H])[H])c2[H])c([H])c(OC([H])([H])[H])c1OC([H])([H])[H]


 28 29  0  0  0  0  0  0  0  0999 V2000
   53.7265   -5.0352   -8.2488 N   0  0  0  0  0  0  0  0  0  0  0  0
   53.7488   -5.8253   -8.9097 H   0  0  0  0  0  0  0  0  0  0  0  0
   52.8065   -4.9360   -7.1664 C   0  0  0  0  0  0  0  0  0  0  0  0
   51.6563   -4.1780   -7.2274 C   0  0  0  0  0  0  0  0  0  0  0  0
   50.7488   -4.0983   -6.1665 C   0  0  0  0  0  0  0  0  0  0  0  0
   51.0012   -4.7974   -5.0100 C   0  0  0  0  0  0  0  0  0  0  0  0
   52.1565   -5.5462   -4.9724 C   0  0  0  0  0  0  0  0  0  0  0  0
   53.0578   -5.6460   -5.9788 C   0  0  0  0  0  0  0  0  0  0  0  0
   52.4202   -6.2993   -3.6911 C   0  0  0  0  0  0  0  0  0  0  0  0
   52.6038   -5.3889   -2.6535 F   0  0  0  0  0  0  0  0  0  0  0  0
   51.3104   -7.0307   -3.3404 F   0  0  0  0  0  0  0  0  0  0  0  0
   53.5076   -7.1173   -3.8246 F   0  0  0  0  0  0  0  0  0  0  0  0
   49.5432   -3.2636   -6.3732 C   0  0  0  0  0  0  0  0  0  0  0  0
   49.9047   -2.0979   -7.2430 C   0  0  0  0  0  0  0  0  0  0  0  0
   48.8968   -2.8377   -5.0747 C   0  0  0  0  0  0  0  0  0  0  0  0
   54.8964   -3.7762   -8.4352 S   0  0  0  0  0  0  0  0  0  0  0  0
   55.6623   -3.6100   -7.1373 O   0  0  0  0  0  0  0  0  0  0  0  0
   54.1058   -2.5005   -8.6163 O   0  0  0  0  0  0  0  0  0  0  0  0
   57.8574   -4.5233  -11.7114 C   0  0  0  0  0  0  0  0  0  0  0  0
   58.1637   -4.7962  -10.4188 C   0  0  0  0  0  0  0  0  0  0  0  0
   57.2631   -4.5716   -9.3932 C   0  0  0  0  0  0  0  0  0  0  0  0
   56.0222   -4.0512   -9.7441 C   0  0  0  0  0  0  0  0  0  0  0  0
   55.6539   -3.7547  -11.0204 C   0  0  0  0  0  0  0  0  0  0  0  0
   56.5921   -3.9929  -12.0437 C   0  0  0  0  0  0  0  0  0  0  0  0
   59.7433   -3.7555  -13.0190 C   0  0  0  0  0  0  0  0  0  0  0  0
   58.7652   -4.7545  -12.7145 O   0  0  0  0  0  0  0  0  0  0  0  0
   56.2408   -3.7020  -13.2738 O   0  0  0  0  0  0  0  0  0  0  0  0
   56.0497   -3.4560  -14.5204 C   0  0  0  0  0  0  0  0  0  0  0  0
 25 26  1  0  0  0
 26 19  1  0  0  0
 19 20  2  0  0  0
 20 21  1  0  0  0
 21 22  2  0  0  0
 22 23  1  0  0  0
 23 24  2  0  0  0
 24 27  1  0  0  0
 27 28  1  0  0  0
 22 16  1  0  0  0
 16 17  2  0  0  0
 16 18  2  0  0  0
 16  1  1  0  0  0
  1  3  1  0  0  0
  3  4  2  0  0  0
  4  5  1  0  0  0
  5  6  2  0  0  0
  6  7  1  0  0  0
  7  8  2  0  0  0
  7  9  1  0  0  0
  9 10  1  0  0  0
  9 11  1  0  0  0
  9 12  1  0  0  0
  5 13  1  0  0  0
 13 14  1  0  0  0
 13 15  1  0  0  0
 24 19  1  0  0  0
  8  3  1  0  0  0
  1  2  1  0  0  0
M  END
> <minimizedAffinity>
-9.41604

> <CNNscore>
0.2614702880

> <CNNaffinity>
6.1872148514

> <CNN_VS>
1.6177728176

> <CNNaffinity_variance>
0.2223936021

$$$$
[H]Oc1c([H])c([H])c(C([H])([H])[C@@]2([H])C(=O)N([H])[C@@]([H])(C([H])([H])C([H])(C([H])([H])[H])C([H])([H])[H])C(=O)N([H])[C@@]([H])(C([H])([H])c3c([H])c([H])c([H])c([H])c3[H])C(=O)N([H])[C@@]([H])([C@@]([H])(C([H])([H])[H])C([H])([H])C([H])([H])[H])C(=O)N([H])[C@@]([H])(C([H])(C([H])([H])[H])C([H])([H])[H])C(=O)N2[H])c([H])c1[H]


 52 54  0  0  0  0  0  0  0  0999 V2000
   61.9950   -7.5142   -8.7492 C   0  0  0  0  0  0  0  0  0  0  0  0
   61.1211   -8.4465   -8.1158 N   0  0  0  0  0  0  0  0  0  0  0  0
   60.9537   -8.7931   -6.7731 C   0  0  0  0  0  0  0  0  0  0  0  0
   60.6571  -10.0231   -6.5506 O   0  0  0  0  0  0  0  0  0  0  0  0
   61.0664   -7.9578   -5.5797 C   0  0  0  0  0  0  0  0  0  0  0  0
   60.2369   -8.4512   -4.4681 N   0  0  0  0  0  0  0  0  0  0  0  0
   59.4262   -7.6940   -3.6293 C   0  0  0  0  0  0  0  0  0  0  0  0
   59.6751   -7.6954   -2.3652 O   0  0  0  0  0  0  0  0  0  0  0  0
   58.2596   -6.8436   -4.0030 C   0  0  0  0  0  0  0  0  0  0  0  0
   57.5951   -7.2730   -5.2060 N   0  0  0  0  0  0  0  0  0  0  0  0
   57.0552   -6.5036   -6.2451 C   0  0  0  0  0  0  0  0  0  0  0  0
   55.7898   -6.5529   -6.4481 O   0  0  0  0  0  0  0  0  0  0  0  0
   57.7540   -5.6007   -7.1938 C   0  0  0  0  0  0  0  0  0  0  0  0
   57.5168   -6.0646   -8.5684 N   0  0  0  0  0  0  0  0  0  0  0  0
   58.4617   -6.2051   -9.6005 C   0  0  0  0  0  0  0  0  0  0  0  0
   58.4402   -7.3719  -10.1557 O   0  0  0  0  0  0  0  0  0  0  0  0
   59.4250   -5.2733  -10.1253 C   0  0  0  0  0  0  0  0  0  0  0  0
   60.8160   -5.4034   -9.8000 N   0  0  0  0  0  0  0  0  0  0  0  0
   61.5566   -6.1263   -8.8763 C   0  0  0  0  0  0  0  0  0  0  0  0
   61.9662   -5.3844   -7.8740 O   0  0  0  0  0  0  0  0  0  0  0  0
   60.4835   -8.9706   -8.7985 H   0  0  0  0  0  0  0  0  0  0  0  0
   60.2989   -9.4888   -4.3129 H   0  0  0  0  0  0  0  0  0  0  0  0
   57.5121   -8.3388   -5.2990 H   0  0  0  0  0  0  0  0  0  0  0  0
   56.4906   -6.3108   -8.7406 H   0  0  0  0  0  0  0  0  0  0  0  0
   61.3913   -4.7343  -10.4540 H   0  0  0  0  0  0  0  0  0  0  0  0
   59.2626   -5.1912  -11.6622 C   0  0  0  0  0  0  0  0  0  0  0  0
   60.3678   -4.4185  -12.2880 C   0  0  0  0  0  0  0  0  0  0  0  0
   57.9581   -4.4937  -11.9702 C   0  0  0  0  0  0  0  0  0  0  0  0
   62.6330   -8.1175   -9.9913 C   0  0  0  0  0  0  0  0  0  0  0  0
   64.1530   -7.9880   -9.9604 C   0  0  0  0  0  0  0  0  0  0  0  0
   63.5774  -10.3701  -10.0526 C   0  0  0  0  0  0  0  0  0  0  0  0
   62.3032   -9.5392  -10.2491 C   0  0  0  0  0  0  0  0  0  0  0  0
   62.4634   -7.8608   -5.0049 C   0  0  0  0  0  0  0  0  0  0  0  0
   63.2752   -9.0472   -5.2358 C   0  0  0  0  0  0  0  0  0  0  0  0
   64.1146   -9.1499   -6.3053 C   0  0  0  0  0  0  0  0  0  0  0  0
   64.8703  -10.2782   -6.5067 C   0  0  0  0  0  0  0  0  0  0  0  0
   64.7925  -11.3272   -5.6289 C   0  0  0  0  0  0  0  0  0  0  0  0
   63.9540  -11.2607   -4.5340 C   0  0  0  0  0  0  0  0  0  0  0  0
   63.2010  -10.1019   -4.3589 C   0  0  0  0  0  0  0  0  0  0  0  0
   57.3135   -6.6835   -2.8457 C   0  0  0  0  0  0  0  0  0  0  0  0
   56.8723   -5.3142   -2.4987 C   0  0  0  0  0  0  0  0  0  0  0  0
   56.5920   -5.0490   -1.0415 C   0  0  0  0  0  0  0  0  0  0  0  0
   55.5536   -4.9597   -3.2210 C   0  0  0  0  0  0  0  0  0  0  0  0
   57.2632   -4.1757   -7.1567 C   0  0  0  0  0  0  0  0  0  0  0  0
   56.0298   -3.9229   -7.9118 C   0  0  0  0  0  0  0  0  0  0  0  0
   54.7810   -4.0169   -7.2908 C   0  0  0  0  0  0  0  0  0  0  0  0
   53.6274   -3.7602   -7.9957 C   0  0  0  0  0  0  0  0  0  0  0  0
   53.6626   -3.4072   -9.3196 C   0  0  0  0  0  0  0  0  0  0  0  0
   52.4949   -3.1432  -10.0493 O   0  0  0  0  0  0  0  0  0  0  0  0
   54.8844   -3.3145   -9.9313 C   0  0  0  0  0  0  0  0  0  0  0  0
   56.0544   -3.5730   -9.2213 C   0  0  0  0  0  0  0  0  0  0  0  0
   52.1300   -2.1852  -10.0777 H   0  0  0  0  0  0  0  0  0  0  0  0
 31 32  1  0  0  0
 32 29  1  0  0  0
 29 30  1  0  0  0
 29  1  1  0  0  0
  1  2  1  0  0  0
  2  3  1  0  0  0
  3  4  2  0  0  0
  3  5  1  0  0  0
  5 33  1  0  0  0
 33 34  1  0  0  0
 34 35  2  0  0  0
 35 36  1  0  0  0
 36 37  2  0  0  0
 37 38  1  0  0  0
 38 39  2  0  0  0
  5  6  1  0  0  0
  6  7  1  0  0  0
  7  8  2  0  0  0
  7  9  1  0  0  0
  9 40  1  0  0  0
 40 41  1  0  0  0
 41 42  1  0  0  0
 41 43  1  0  0  0
  9 10  1  0  0  0
 10 11  1  0  0  0
 11 12  2  0  0  0
 11 13  1  0  0  0
 13 44  1  0  0  0
 44 45  1  0  0  0
 45 46  2  0  0  0
 46 47  1  0  0  0
 47 48  2  0  0  0
 48 49  1  0  0  0
 48 50  1  0  0  0
 50 51  2  0  0  0
 13 14  1  0  0  0
 14 15  1  0  0  0
 15 16  2  0  0  0
 15 17  1  0  0  0
 17 18  1  0  0  0
 18 19  1  0  0  0
 19 20  2  0  0  0
 17 26  1  0  0  0
 26 27  1  0  0  0
 26 28  1  0  0  0
 19  1  1  0  0  0
 39 34  1  0  0  0
 51 45  1  0  0  0
  2 21  1  0  0  0
  6 22  1  0  0  0
 10 23  1  0  0  0
 49 52  1  0  0  0
 14 24  1  0  0  0
 18 25  1  0  0  0
M  END
> <minimizedAffinity>
-0.27945

> <CNNscore>
0.4213873744

> <CNNaffinity>
6.6480722427

> <CNN_VS>
2.8014137745

> <CNNaffinity_variance>
0.3722961545

$$$$
[H]Oc1c([H])c([H])c(C([H])([H])[C@@]2([H])C(=O)N([H])[C@@]([H])(C([H])([H])C([H])(C([H])([H])[H])C([H])([H])[H])C(=O)N([H])[C@@]([H])(C([H])([H])c3c([H])c([H])c([H])c([H])c3[H])C(=O)N([H])[C@@]([H])([C@@]([H])(C([H])([H])[H])C([H])([H])C([H])([H])[H])C(=O)N([H])[C@@]([H])(C([H])(C([H])([H])[H])C([H])([H])[H])C(=O)N2[H])c([H])c1[H]


 52 54  0  0  0  0  0  0  0  0999 V2000
   55.4997   -6.1762   -4.0164 C   0  0  0  0  0  0  0  0  0  0  0  0
   55.1485   -6.8280   -5.2353 N   0  0  0  0  0  0  0  0  0  0  0  0
   54.5408   -6.3499   -6.3986 C   0  0  0  0  0  0  0  0  0  0  0  0
   53.7665   -7.1794   -7.0009 O   0  0  0  0  0  0  0  0  0  0  0  0
   54.6580   -5.0393   -7.0336 C   0  0  0  0  0  0  0  0  0  0  0  0
   54.4285   -5.0964   -8.4867 N   0  0  0  0  0  0  0  0  0  0  0  0
   55.1746   -4.4661   -9.4765 C   0  0  0  0  0  0  0  0  0  0  0  0
   54.5868   -3.6132  -10.2427 O   0  0  0  0  0  0  0  0  0  0  0  0
   56.6217   -4.6456   -9.7894 C   0  0  0  0  0  0  0  0  0  0  0  0
   57.1340   -5.9406   -9.4242 N   0  0  0  0  0  0  0  0  0  0  0  0
   58.3702   -6.2791   -8.8582 C   0  0  0  0  0  0  0  0  0  0  0  0
   59.1761   -7.0069   -9.5407 O   0  0  0  0  0  0  0  0  0  0  0  0
   58.9157   -5.9115   -7.5274 C   0  0  0  0  0  0  0  0  0  0  0  0
   59.2021   -7.1359   -6.7659 N   0  0  0  0  0  0  0  0  0  0  0  0
   58.8811   -7.4048   -5.4234 C   0  0  0  0  0  0  0  0  0  0  0  0
   58.2519   -8.5223   -5.2639 O   0  0  0  0  0  0  0  0  0  0  0  0
   59.1401   -6.6490   -4.2261 C   0  0  0  0  0  0  0  0  0  0  0  0
   58.0875   -5.9128   -3.5878 N   0  0  0  0  0  0  0  0  0  0  0  0
   56.8019   -5.5193   -3.9295 C   0  0  0  0  0  0  0  0  0  0  0  0
   56.7372   -4.2483   -4.2503 O   0  0  0  0  0  0  0  0  0  0  0  0
   55.3977   -7.8695   -5.2534 H   0  0  0  0  0  0  0  0  0  0  0  0
   53.5962   -5.6731   -8.7682 H   0  0  0  0  0  0  0  0  0  0  0  0
   56.4554   -6.7476   -9.6235 H   0  0  0  0  0  0  0  0  0  0  0  0
   59.7109   -7.8688   -7.3552 H   0  0  0  0  0  0  0  0  0  0  0  0
   58.4399   -5.5854   -2.6003 H   0  0  0  0  0  0  0  0  0  0  0  0
   59.8267   -7.5683   -3.1875 C   0  0  0  0  0  0  0  0  0  0  0  0
   61.2381   -7.8529   -3.5581 C   0  0  0  0  0  0  0  0  0  0  0  0
   59.0739   -8.8773   -3.1336 C   0  0  0  0  0  0  0  0  0  0  0  0
   55.1075   -7.0182   -2.8117 C   0  0  0  0  0  0  0  0  0  0  0  0
   56.2455   -7.9356   -2.3741 C   0  0  0  0  0  0  0  0  0  0  0  0
   53.9128   -5.0057   -2.1099 C   0  0  0  0  0  0  0  0  0  0  0  0
   54.6554   -6.2565   -1.6235 C   0  0  0  0  0  0  0  0  0  0  0  0
   53.6780   -4.0019   -6.5288 C   0  0  0  0  0  0  0  0  0  0  0  0
   52.2841   -4.4041   -6.6522 C   0  0  0  0  0  0  0  0  0  0  0  0
   51.3579   -3.6162   -7.2689 C   0  0  0  0  0  0  0  0  0  0  0  0
   50.0477   -4.0125   -7.3731 C   0  0  0  0  0  0  0  0  0  0  0  0
   49.6469   -5.2158   -6.8549 C   0  0  0  0  0  0  0  0  0  0  0  0
   50.5554   -6.0413   -6.2231 C   0  0  0  0  0  0  0  0  0  0  0  0
   51.8769   -5.6094   -6.1343 C   0  0  0  0  0  0  0  0  0  0  0  0
   56.9143   -4.2907  -11.2206 C   0  0  0  0  0  0  0  0  0  0  0  0
   58.3071   -3.9360  -11.5733 C   0  0  0  0  0  0  0  0  0  0  0  0
   58.5245   -3.3591  -12.9489 C   0  0  0  0  0  0  0  0  0  0  0  0
   59.2229   -5.1790  -11.5219 C   0  0  0  0  0  0  0  0  0  0  0  0
   60.2198   -5.1574   -7.5877 C   0  0  0  0  0  0  0  0  0  0  0  0
   61.4053   -5.9847   -7.8438 C   0  0  0  0  0  0  0  0  0  0  0  0
   61.7629   -7.0107   -6.9642 C   0  0  0  0  0  0  0  0  0  0  0  0
   62.8632   -7.7976   -7.2166 C   0  0  0  0  0  0  0  0  0  0  0  0
   63.6400   -7.6040   -8.3292 C   0  0  0  0  0  0  0  0  0  0  0  0
   64.7635   -8.3984   -8.5982 O   0  0  0  0  0  0  0  0  0  0  0  0
   63.2927   -6.5995   -9.1929 C   0  0  0  0  0  0  0  0  0  0  0  0
   62.1795   -5.8011   -8.9413 C   0  0  0  0  0  0  0  0  0  0  0  0
   64.6491   -9.2532   -9.1530 H   0  0  0  0  0  0  0  0  0  0  0  0
 31 32  1  0  0  0
 32 29  1  0  0  0
 29 30  1  0  0  0
 29  1  1  0  0  0
  1  2  1  0  0  0
  2  3  1  0  0  0
  3  4  2  0  0  0
  3  5  1  0  0  0
  5 33  1  0  0  0
 33 34  1  0  0  0
 34 35  2  0  0  0
 35 36  1  0  0  0
 36 37  2  0  0  0
 37 38  1  0  0  0
 38 39  2  0  0  0
  5  6  1  0  0  0
  6  7  1  0  0  0
  7  8  2  0  0  0
  7  9  1  0  0  0
  9 40  1  0  0  0
 40 41  1  0  0  0
 41 42  1  0  0  0
 41 43  1  0  0  0
  9 10  1  0  0  0
 10 11  1  0  0  0
 11 12  2  0  0  0
 11 13  1  0  0  0
 13 44  1  0  0  0
 44 45  1  0  0  0
 45 46  2  0  0  0
 46 47  1  0  0  0
 47 48  2  0  0  0
 48 49  1  0  0  0
 48 50  1  0  0  0
 50 51  2  0  0  0
 13 14  1  0  0  0
 14 15  1  0  0  0
 15 16  2  0  0  0
 15 17  1  0  0  0
 17 18  1  0  0  0
 18 19  1  0  0  0
 19 20  2  0  0  0
 17 26  1  0  0  0
 26 27  1  0  0  0
 26 28  1  0  0  0
 19  1  1  0  0  0
 39 34  1  0  0  0
 51 45  1  0  0  0
  2 21  1  0  0  0
  6 22  1  0  0  0
 10 23  1  0  0  0
 49 52  1  0  0  0
 14 24  1  0  0  0
 18 25  1  0  0  0
M  END
> <minimizedAffinity>
8.20647

> <CNNscore>
0.4192981124

> <CNNaffinity>
6.9393815994

> <CNN_VS>
2.9096696377

> <CNNaffinity_variance>
0.4876558185

$$$$
[H]Oc1c([H])c([H])c(C([H])([H])[C@@]2([H])C(=O)N([H])[C@@]([H])(C([H])([H])C([H])(C([H])([H])[H])C([H])([H])[H])C(=O)N([H])[C@@]([H])(C([H])([H])c3c([H])c([H])c([H])c([H])c3[H])C(=O)N([H])[C@@]([H])([C@@]([H])(C([H])([H])[H])C([H])([H])C([H])([H])[H])C(=O)N([H])[C@@]([H])(C([H])(C([H])([H])[H])C([H])([H])[H])C(=O)N2[H])c([H])c1[H]


 52 54  0  0  0  0  0  0  0  0999 V2000
   62.5668   -8.1285   -7.0964 C   0  0  0  0  0  0  0  0  0  0  0  0
   61.4020   -8.8471   -6.6954 N   0  0  0  0  0  0  0  0  0  0  0  0
   60.7137   -8.8902   -5.4807 C   0  0  0  0  0  0  0  0  0  0  0  0
   60.1881  -10.0234   -5.1810 O   0  0  0  0  0  0  0  0  0  0  0  0
   60.5027   -7.8304   -4.4973 C   0  0  0  0  0  0  0  0  0  0  0  0
   59.2672   -8.0227   -3.7203 N   0  0  0  0  0  0  0  0  0  0  0  0
   58.3224   -7.0543   -3.3985 C   0  0  0  0  0  0  0  0  0  0  0  0
   58.0945   -6.8044   -2.1553 O   0  0  0  0  0  0  0  0  0  0  0  0
   57.5009   -6.2284   -4.3296 C   0  0  0  0  0  0  0  0  0  0  0  0
   57.2635   -6.8586   -5.6023 N   0  0  0  0  0  0  0  0  0  0  0  0
   57.2490   -6.2931   -6.8841 C   0  0  0  0  0  0  0  0  0  0  0  0
   56.1491   -6.3021   -7.5436 O   0  0  0  0  0  0  0  0  0  0  0  0
   58.3624   -5.6586   -7.6334 C   0  0  0  0  0  0  0  0  0  0  0  0
   58.5759   -6.3864   -8.8926 N   0  0  0  0  0  0  0  0  0  0  0  0
   59.8005   -6.8030   -9.4445 C   0  0  0  0  0  0  0  0  0  0  0  0
   59.8185   -8.0570   -9.7567 O   0  0  0  0  0  0  0  0  0  0  0  0
   61.0085   -6.0677   -9.7127 C   0  0  0  0  0  0  0  0  0  0  0  0
   62.1549   -6.2160   -8.8633 N   0  0  0  0  0  0  0  0  0  0  0  0
   62.4026   -6.7735   -7.6175 C   0  0  0  0  0  0  0  0  0  0  0  0
   62.5213   -5.8645   -6.6782 O   0  0  0  0  0  0  0  0  0  0  0  0
   60.9880   -9.4613   -7.4690 H   0  0  0  0  0  0  0  0  0  0  0  0
   59.1233   -9.0057   -3.3777 H   0  0  0  0  0  0  0  0  0  0  0  0
   57.0717   -7.9123   -5.5355 H   0  0  0  0  0  0  0  0  0  0  0  0
   57.6579   -6.5964   -9.3989 H   0  0  0  0  0  0  0  0  0  0  0  0
   63.0152   -5.7390   -9.3521 H   0  0  0  0  0  0  0  0  0  0  0  0
   61.4260   -6.3023  -11.1844 C   0  0  0  0  0  0  0  0  0  0  0  0
   62.8959   -6.4844  -11.3130 C   0  0  0  0  0  0  0  0  0  0  0  0
   61.0217   -5.0937  -11.9962 C   0  0  0  0  0  0  0  0  0  0  0  0
   63.5199   -9.0210   -7.8769 C   0  0  0  0  0  0  0  0  0  0  0  0
   64.0092  -10.1935   -7.0320 C   0  0  0  0  0  0  0  0  0  0  0  0
   62.9270  -11.0956   -9.0234 C   0  0  0  0  0  0  0  0  0  0  0  0
   62.9838   -9.5677   -9.1458 C   0  0  0  0  0  0  0  0  0  0  0  0
   61.5962   -7.7048   -3.4581 C   0  0  0  0  0  0  0  0  0  0  0  0
   62.1359   -8.9836   -3.0184 C   0  0  0  0  0  0  0  0  0  0  0  0
   63.2693   -9.5130   -3.5607 C   0  0  0  0  0  0  0  0  0  0  0  0
   63.7610  -10.7215   -3.1338 C   0  0  0  0  0  0  0  0  0  0  0  0
   63.1154  -11.4204   -2.1479 C   0  0  0  0  0  0  0  0  0  0  0  0
   61.9648  -10.9171   -1.5744 C   0  0  0  0  0  0  0  0  0  0  0  0
   61.4925   -9.6884   -2.0304 C   0  0  0  0  0  0  0  0  0  0  0  0
   56.2327   -5.7662   -3.6679 C   0  0  0  0  0  0  0  0  0  0  0  0
   54.9911   -6.5196   -3.9522 C   0  0  0  0  0  0  0  0  0  0  0  0
   53.9304   -5.7924   -4.7385 C   0  0  0  0  0  0  0  0  0  0  0  0
   54.2878   -6.9387   -2.6423 C   0  0  0  0  0  0  0  0  0  0  0  0
   58.0956   -4.2292   -8.0317 C   0  0  0  0  0  0  0  0  0  0  0  0
   56.7516   -3.9724   -8.5637 C   0  0  0  0  0  0  0  0  0  0  0  0
   55.7492   -3.4436   -7.7452 C   0  0  0  0  0  0  0  0  0  0  0  0
   54.4959   -3.1853   -8.2511 C   0  0  0  0  0  0  0  0  0  0  0  0
   54.1894   -3.4359   -9.5633 C   0  0  0  0  0  0  0  0  0  0  0  0
   52.9166   -3.1775  -10.0913 O   0  0  0  0  0  0  0  0  0  0  0  0
   55.1689   -3.9542  -10.3680 C   0  0  0  0  0  0  0  0  0  0  0  0
   56.4390   -4.2166   -9.8600 C   0  0  0  0  0  0  0  0  0  0  0  0
   52.7227   -2.2565  -10.4985 H   0  0  0  0  0  0  0  0  0  0  0  0
 31 32  1  0  0  0
 32 29  1  0  0  0
 29 30  1  0  0  0
 29  1  1  0  0  0
  1  2  1  0  0  0
  2  3  1  0  0  0
  3  4  2  0  0  0
  3  5  1  0  0  0
  5 33  1  0  0  0
 33 34  1  0  0  0
 34 35  2  0  0  0
 35 36  1  0  0  0
 36 37  2  0  0  0
 37 38  1  0  0  0
 38 39  2  0  0  0
  5  6  1  0  0  0
  6  7  1  0  0  0
  7  8  2  0  0  0
  7  9  1  0  0  0
  9 40  1  0  0  0
 40 41  1  0  0  0
 41 42  1  0  0  0
 41 43  1  0  0  0
  9 10  1  0  0  0
 10 11  1  0  0  0
 11 12  2  0  0  0
 11 13  1  0  0  0
 13 44  1  0  0  0
 44 45  1  0  0  0
 45 46  2  0  0  0
 46 47  1  0  0  0
 47 48  2  0  0  0
 48 49  1  0  0  0
 48 50  1  0  0  0
 50 51  2  0  0  0
 13 14  1  0  0  0
 14 15  1  0  0  0
 15 16  2  0  0  0
 15 17  1  0  0  0
 17 18  1  0  0  0
 18 19  1  0  0  0
 19 20  2  0  0  0
 17 26  1  0  0  0
 26 27  1  0  0  0
 26 28  1  0  0  0
 19  1  1  0  0  0
 39 34  1  0  0  0
 51 45  1  0  0  0
  2 21  1  0  0  0
  6 22  1  0  0  0
 10 23  1  0  0  0
 49 52  1  0  0  0
 14 24  1  0  0  0
 18 25  1  0  0  0
M  END
> <minimizedAffinity>
-1.40713

> <CNNscore>
0.4066072702

> <CNNaffinity>
6.8436036110

> <CNN_VS>
2.7826590538

> <CNNaffinity_variance>
1.0198950768

$$$$
[H]Oc1c([H])c([H])c(C([H])([H])[C@@]2([H])C(=O)N([H])[C@@]([H])(C([H])([H])C([H])(C([H])([H])[H])C([H])([H])[H])C(=O)N([H])[C@@]([H])(C([H])([H])c3c([H])c([H])c([H])c([H])c3[H])C(=O)N([H])[C@@]([H])([C@@]([H])(C([H])([H])[H])C([H])([H])C([H])([H])[H])C(=O)N([H])[C@@]([H])(C([H])(C([H])([H])[H])C([H])([H])[H])C(=O)N2[H])c([H])c1[H]


 52 54  0  0  0  0  0  0  0  0999 V2000
   57.7488   -5.2426   -9.3497 C   0  0  0  0  0  0  0  0  0  0  0  0
   58.1503   -6.6026   -9.1978 N   0  0  0  0  0  0  0  0  0  0  0  0
   59.4019   -7.1774   -8.9646 C   0  0  0  0  0  0  0  0  0  0  0  0
   59.6005   -8.3182   -9.5207 O   0  0  0  0  0  0  0  0  0  0  0  0
   60.5226   -6.6692   -8.1768 C   0  0  0  0  0  0  0  0  0  0  0  0
   61.3667   -7.7488   -7.6392 N   0  0  0  0  0  0  0  0  0  0  0  0
   61.8809   -7.8454   -6.3506 C   0  0  0  0  0  0  0  0  0  0  0  0
   63.1598   -7.8804   -6.1981 O   0  0  0  0  0  0  0  0  0  0  0  0
   61.1283   -7.9166   -5.0652 C   0  0  0  0  0  0  0  0  0  0  0  0
   59.8108   -8.4817   -5.1992 N   0  0  0  0  0  0  0  0  0  0  0  0
   58.6140   -8.1012   -4.5777 C   0  0  0  0  0  0  0  0  0  0  0  0
   58.0492   -8.9311   -3.7795 O   0  0  0  0  0  0  0  0  0  0  0  0
   57.8618   -6.8282   -4.7087 C   0  0  0  0  0  0  0  0  0  0  0  0
   56.5091   -7.1138   -5.2085 N   0  0  0  0  0  0  0  0  0  0  0  0
   55.8131   -6.4419   -6.2292 C   0  0  0  0  0  0  0  0  0  0  0  0
   55.3479   -7.2358   -7.1367 O   0  0  0  0  0  0  0  0  0  0  0  0
   55.5416   -5.0408   -6.4159 C   0  0  0  0  0  0  0  0  0  0  0  0
   56.2709   -4.2811   -7.3898 N   0  0  0  0  0  0  0  0  0  0  0  0
   57.4142   -4.4783   -8.1503 C   0  0  0  0  0  0  0  0  0  0  0  0
   58.4461   -3.8163   -7.6817 O   0  0  0  0  0  0  0  0  0  0  0  0
   57.3426   -7.3012   -9.2791 H   0  0  0  0  0  0  0  0  0  0  0  0
   61.5956   -8.5026   -8.3347 H   0  0  0  0  0  0  0  0  0  0  0  0
   59.7619   -9.3125   -5.8766 H   0  0  0  0  0  0  0  0  0  0  0  0
   56.0563   -7.9387   -4.7008 H   0  0  0  0  0  0  0  0  0  0  0  0
   55.7772   -3.3079   -7.5143 H   0  0  0  0  0  0  0  0  0  0  0  0
   54.0233   -4.8471   -6.6456 C   0  0  0  0  0  0  0  0  0  0  0  0
   53.2248   -5.8546   -5.8989 C   0  0  0  0  0  0  0  0  0  0  0  0
   53.7368   -5.0084   -8.1204 C   0  0  0  0  0  0  0  0  0  0  0  0
   56.7897   -5.0816  -10.5194 C   0  0  0  0  0  0  0  0  0  0  0  0
   55.8990   -3.8544  -10.3497 C   0  0  0  0  0  0  0  0  0  0  0  0
   58.6895   -4.1416  -11.7348 C   0  0  0  0  0  0  0  0  0  0  0  0
   57.4247   -5.0008  -11.8561 C   0  0  0  0  0  0  0  0  0  0  0  0
   61.4778   -5.7758   -8.9388 C   0  0  0  0  0  0  0  0  0  0  0  0
   62.5249   -6.5031   -9.6422 C   0  0  0  0  0  0  0  0  0  0  0  0
   62.2802   -7.1789  -10.8008 C   0  0  0  0  0  0  0  0  0  0  0  0
   63.2808   -7.8606  -11.4478 C   0  0  0  0  0  0  0  0  0  0  0  0
   64.5514   -7.8725  -10.9355 C   0  0  0  0  0  0  0  0  0  0  0  0
   64.8384   -7.2000   -9.7644 C   0  0  0  0  0  0  0  0  0  0  0  0
   63.8005   -6.5184   -9.1329 C   0  0  0  0  0  0  0  0  0  0  0  0
   61.9421   -8.5942   -3.9981 C   0  0  0  0  0  0  0  0  0  0  0  0
   62.4830   -7.7556   -2.9052 C   0  0  0  0  0  0  0  0  0  0  0  0
   63.9513   -7.9135   -2.6027 C   0  0  0  0  0  0  0  0  0  0  0  0
   61.7733   -8.0658   -1.5687 C   0  0  0  0  0  0  0  0  0  0  0  0
   57.6660   -6.0961   -3.4053 C   0  0  0  0  0  0  0  0  0  0  0  0
   56.6015   -6.6293   -2.5464 C   0  0  0  0  0  0  0  0  0  0  0  0
   55.2589   -6.3489   -2.8167 C   0  0  0  0  0  0  0  0  0  0  0  0
   54.2618   -6.8660   -2.0217 C   0  0  0  0  0  0  0  0  0  0  0  0
   54.5481   -7.6664   -0.9465 C   0  0  0  0  0  0  0  0  0  0  0  0
   53.5419   -8.1996   -0.1286 O   0  0  0  0  0  0  0  0  0  0  0  0
   55.8623   -7.9429   -0.6786 C   0  0  0  0  0  0  0  0  0  0  0  0
   56.8746   -7.4219   -1.4811 C   0  0  0  0  0  0  0  0  0  0  0  0
   53.1392   -9.1130   -0.3637 H   0  0  0  0  0  0  0  0  0  0  0  0
 31 32  1  0  0  0
 32 29  1  0  0  0
 29 30  1  0  0  0
 29  1  1  0  0  0
  1  2  1  0  0  0
  2  3  1  0  0  0
  3  4  2  0  0  0
  3  5  1  0  0  0
  5 33  1  0  0  0
 33 34  1  0  0  0
 34 35  2  0  0  0
 35 36  1  0  0  0
 36 37  2  0  0  0
 37 38  1  0  0  0
 38 39  2  0  0  0
  5  6  1  0  0  0
  6  7  1  0  0  0
  7  8  2  0  0  0
  7  9  1  0  0  0
  9 40  1  0  0  0
 40 41  1  0  0  0
 41 42  1  0  0  0
 41 43  1  0  0  0
  9 10  1  0  0  0
 10 11  1  0  0  0
 11 12  2  0  0  0
 11 13  1  0  0  0
 13 44  1  0  0  0
 44 45  1  0  0  0
 45 46  2  0  0  0
 46 47  1  0  0  0
 47 48  2  0  0  0
 48 49  1  0  0  0
 48 50  1  0  0  0
 50 51  2  0  0  0
 13 14  1  0  0  0
 14 15  1  0  0  0
 15 16  2  0  0  0
 15 17  1  0  0  0
 17 18  1  0  0  0
 18 19  1  0  0  0
 19 20  2  0  0  0
 17 26  1  0  0  0
 26 27  1  0  0  0
 26 28  1  0  0  0
 19  1  1  0  0  0
 39 34  1  0  0  0
 51 45  1  0  0  0
  2 21  1  0  0  0
  6 22  1  0  0  0
 10 23  1  0  0  0
 49 52  1  0  0  0
 14 24  1  0  0  0
 18 25  1  0  0  0
M  END
> <minimizedAffinity>
0.22325

> <CNNscore>
0.4051529169

> <CNNaffinity>
6.6798071861

> <CNN_VS>
2.7063434124

> <CNNaffinity_variance>
0.4075993001

$$$$
[H]Oc1c([H])c([H])c(C([H])([H])[C@@]2([H])C(=O)N([H])[C@@]([H])(C([H])([H])C([H])(C([H])([H])[H])C([H])([H])[H])C(=O)N([H])[C@@]([H])(C([H])([H])c3c([H])c([H])c([H])c([H])c3[H])C(=O)N([H])[C@@]([H])([C@@]([H])(C([H])([H])[H])C([H])([H])C([H])([H])[H])C(=O)N([H])[C@@]([H])(C([H])(C([H])([H])[H])C([H])([H])[H])C(=O)N2[H])c([H])c1[H]


 52 54  0  0  0  0  0  0  0  0999 V2000
   57.7547   -5.0572   -9.2757 C   0  0  0  0  0  0  0  0  0  0  0  0
   58.2322   -6.3883   -9.0908 N   0  0  0  0  0  0  0  0  0  0  0  0
   59.4931   -6.8793   -8.7441 C   0  0  0  0  0  0  0  0  0  0  0  0
   59.8193   -7.9992   -9.2825 O   0  0  0  0  0  0  0  0  0  0  0  0
   60.4991   -6.3036   -7.8546 C   0  0  0  0  0  0  0  0  0  0  0  0
   61.3616   -7.3285   -7.2438 N   0  0  0  0  0  0  0  0  0  0  0  0
   61.7600   -7.4016   -5.9134 C   0  0  0  0  0  0  0  0  0  0  0  0
   63.0187   -7.3516   -5.6431 O   0  0  0  0  0  0  0  0  0  0  0  0
   60.8985   -7.5350   -4.7035 C   0  0  0  0  0  0  0  0  0  0  0  0
   59.6406   -8.1866   -4.9605 N   0  0  0  0  0  0  0  0  0  0  0  0
   58.3685   -7.8933   -4.4516 C   0  0  0  0  0  0  0  0  0  0  0  0
   57.7902   -8.7666   -3.7113 O   0  0  0  0  0  0  0  0  0  0  0  0
   57.5466   -6.6730   -4.6484 C   0  0  0  0  0  0  0  0  0  0  0  0
   56.2685   -7.0448   -5.2721 N   0  0  0  0  0  0  0  0  0  0  0  0
   55.6255   -6.4123   -6.3512 C   0  0  0  0  0  0  0  0  0  0  0  0
   55.3011   -7.2277   -7.3000 O   0  0  0  0  0  0  0  0  0  0  0  0
   55.2776   -5.0312   -6.5586 C   0  0  0  0  0  0  0  0  0  0  0  0
   56.0403   -4.2153   -7.4587 N   0  0  0  0  0  0  0  0  0  0  0  0
   57.2596   -4.3280   -8.1104 C   0  0  0  0  0  0  0  0  0  0  0  0
   58.1964   -3.6021   -7.5465 O   0  0  0  0  0  0  0  0  0  0  0  0
   57.4848   -7.1391   -9.2484 H   0  0  0  0  0  0  0  0  0  0  0  0
   61.7044   -8.0589   -7.9171 H   0  0  0  0  0  0  0  0  0  0  0  0
   59.7111   -9.0127   -5.6417 H   0  0  0  0  0  0  0  0  0  0  0  0
   55.8279   -7.9029   -4.8108 H   0  0  0  0  0  0  0  0  0  0  0  0
   55.4950   -3.2766   -7.6258 H   0  0  0  0  0  0  0  0  0  0  0  0
   53.7774   -4.9385   -6.9275 C   0  0  0  0  0  0  0  0  0  0  0  0
   53.3450   -3.5274   -7.1073 C   0  0  0  0  0  0  0  0  0  0  0  0
   52.9689   -5.5463   -5.8050 C   0  0  0  0  0  0  0  0  0  0  0  0
   56.8990   -4.9510  -10.5289 C   0  0  0  0  0  0  0  0  0  0  0  0
   55.5228   -4.3685  -10.2207 C   0  0  0  0  0  0  0  0  0  0  0  0
   58.9543   -4.5841  -11.7982 C   0  0  0  0  0  0  0  0  0  0  0  0
   57.4885   -4.1624  -11.6366 C   0  0  0  0  0  0  0  0  0  0  0  0
   61.4575   -5.3410   -8.5224 C   0  0  0  0  0  0  0  0  0  0  0  0
   62.6629   -5.9764   -9.0357 C   0  0  0  0  0  0  0  0  0  0  0  0
   62.6449   -6.7650  -10.1477 C   0  0  0  0  0  0  0  0  0  0  0  0
   63.7921   -7.3571  -10.6146 C   0  0  0  0  0  0  0  0  0  0  0  0
   64.9828   -7.1632   -9.9653 C   0  0  0  0  0  0  0  0  0  0  0  0
   65.0413   -6.3714   -8.8358 C   0  0  0  0  0  0  0  0  0  0  0  0
   63.8593   -5.7854   -8.3884 C   0  0  0  0  0  0  0  0  0  0  0  0
   61.6546   -8.1656   -3.5673 C   0  0  0  0  0  0  0  0  0  0  0  0
   61.3675   -9.5819   -3.2485 C   0  0  0  0  0  0  0  0  0  0  0  0
   60.7286   -9.8519   -1.9101 C   0  0  0  0  0  0  0  0  0  0  0  0
   62.6656  -10.4192   -3.2377 C   0  0  0  0  0  0  0  0  0  0  0  0
   57.1820   -5.9674   -3.3669 C   0  0  0  0  0  0  0  0  0  0  0  0
   56.1707   -6.6477   -2.5485 C   0  0  0  0  0  0  0  0  0  0  0  0
   54.8079   -6.4343   -2.7751 C   0  0  0  0  0  0  0  0  0  0  0  0
   53.8616   -7.0881   -2.0197 C   0  0  0  0  0  0  0  0  0  0  0  0
   54.2195   -7.9633   -1.0273 C   0  0  0  0  0  0  0  0  0  0  0  0
   53.2657   -8.6358   -0.2505 O   0  0  0  0  0  0  0  0  0  0  0  0
   55.5538   -8.1745   -0.8024 C   0  0  0  0  0  0  0  0  0  0  0  0
   56.5147   -7.5150   -1.5651 C   0  0  0  0  0  0  0  0  0  0  0  0
   52.9196   -9.5485   -0.5648 H   0  0  0  0  0  0  0  0  0  0  0  0
 31 32  1  0  0  0
 32 29  1  0  0  0
 29 30  1  0  0  0
 29  1  1  0  0  0
  1  2  1  0  0  0
  2  3  1  0  0  0
  3  4  2  0  0  0
  3  5  1  0  0  0
  5 33  1  0  0  0
 33 34  1  0  0  0
 34 35  2  0  0  0
 35 36  1  0  0  0
 36 37  2  0  0  0
 37 38  1  0  0  0
 38 39  2  0  0  0
  5  6  1  0  0  0
  6  7  1  0  0  0
  7  8  2  0  0  0
  7  9  1  0  0  0
  9 40  1  0  0  0
 40 41  1  0  0  0
 41 42  1  0  0  0
 41 43  1  0  0  0
  9 10  1  0  0  0
 10 11  1  0  0  0
 11 12  2  0  0  0
 11 13  1  0  0  0
 13 44  1  0  0  0
 44 45  1  0  0  0
 45 46  2  0  0  0
 46 47  1  0  0  0
 47 48  2  0  0  0
 48 49  1  0  0  0
 48 50  1  0  0  0
 50 51  2  0  0  0
 13 14  1  0  0  0
 14 15  1  0  0  0
 15 16  2  0  0  0
 15 17  1  0  0  0
 17 18  1  0  0  0
 18 19  1  0  0  0
 19 20  2  0  0  0
 17 26  1  0  0  0
 26 27  1  0  0  0
 26 28  1  0  0  0
 19  1  1  0  0  0
 39 34  1  0  0  0
 51 45  1  0  0  0
  2 21  1  0  0  0
  6 22  1  0  0  0
 10 23  1  0  0  0
 49 52  1  0  0  0
 14 24  1  0  0  0
 18 25  1  0  0  0
M  END
> <minimizedAffinity>
0.57580

> <CNNscore>
0.4043007195

> <CNNaffinity>
6.7126793861

> <CNN_VS>
2.7139410973

> <CNNaffinity_variance>
0.4745776653

$$$$
[H]Oc1c([H])c([H])c(C([H])([H])[C@@]2([H])C(=O)N([H])[C@@]([H])(C([H])([H])C([H])(C([H])([H])[H])C([H])([H])[H])C(=O)N([H])[C@@]([H])(C([H])([H])c3c([H])c([H])c([H])c([H])c3[H])C(=O)N([H])[C@@]([H])([C@@]([H])(C([H])([H])[H])C([H])([H])C([H])([H])[H])C(=O)N([H])[C@@]([H])(C([H])(C([H])([H])[H])C([H])([H])[H])C(=O)N2[H])c([H])c1[H]


 52 54  0  0  0  0  0  0  0  0999 V2000
   55.6968   -5.5727   -6.0703 C   0  0  0  0  0  0  0  0  0  0  0  0
   56.7908   -5.3209   -5.1907 N   0  0  0  0  0  0  0  0  0  0  0  0
   57.3510   -6.0889   -4.1671 C   0  0  0  0  0  0  0  0  0  0  0  0
   57.8061   -5.4283   -3.1638 O   0  0  0  0  0  0  0  0  0  0  0  0
   57.4962   -7.5395   -4.0707 C   0  0  0  0  0  0  0  0  0  0  0  0
   58.6399   -7.9351   -3.2324 N   0  0  0  0  0  0  0  0  0  0  0  0
   59.5786   -8.9227   -3.5106 C   0  0  0  0  0  0  0  0  0  0  0  0
   59.6878   -9.9162   -2.6976 O   0  0  0  0  0  0  0  0  0  0  0  0
   60.5168   -8.9974   -4.6674 C   0  0  0  0  0  0  0  0  0  0  0  0
   60.8608   -7.7108   -5.2145 N   0  0  0  0  0  0  0  0  0  0  0  0
   61.0234   -7.3298   -6.5530 C   0  0  0  0  0  0  0  0  0  0  0  0
   62.1835   -6.9458   -6.9425 O   0  0  0  0  0  0  0  0  0  0  0  0
   60.0130   -7.2969   -7.6400 C   0  0  0  0  0  0  0  0  0  0  0  0
   59.9040   -5.9259   -8.1591 N   0  0  0  0  0  0  0  0  0  0  0  0
   58.7284   -5.2055   -8.4362 C   0  0  0  0  0  0  0  0  0  0  0  0
   58.7008   -4.0407   -7.8769 O   0  0  0  0  0  0  0  0  0  0  0  0
   57.5786   -5.5530   -9.2292 C   0  0  0  0  0  0  0  0  0  0  0  0
   56.3479   -5.9350   -8.5990 N   0  0  0  0  0  0  0  0  0  0  0  0
   55.9573   -6.2901   -7.3162 C   0  0  0  0  0  0  0  0  0  0  0  0
   55.7742   -7.5835   -7.1897 O   0  0  0  0  0  0  0  0  0  0  0  0
   57.2605   -4.3715   -5.3492 H   0  0  0  0  0  0  0  0  0  0  0  0
   58.7160   -7.4025   -2.3297 H   0  0  0  0  0  0  0  0  0  0  0  0
   61.0101   -6.9498   -4.4728 H   0  0  0  0  0  0  0  0  0  0  0  0
   60.8611   -5.4777   -8.3214 H   0  0  0  0  0  0  0  0  0  0  0  0
   55.5577   -5.9568   -9.3615 H   0  0  0  0  0  0  0  0  0  0  0  0
   57.3045   -4.4183  -10.2453 C   0  0  0  0  0  0  0  0  0  0  0  0
   55.8654   -4.3489  -10.6120 C   0  0  0  0  0  0  0  0  0  0  0  0
   58.1039   -4.6925  -11.4979 C   0  0  0  0  0  0  0  0  0  0  0  0
   54.7987   -4.3510   -6.1917 C   0  0  0  0  0  0  0  0  0  0  0  0
   55.4114   -3.2928   -7.1044 C   0  0  0  0  0  0  0  0  0  0  0  0
   53.2229   -3.8853   -8.0001 C   0  0  0  0  0  0  0  0  0  0  0  0
   53.4211   -4.6191   -6.6679 C   0  0  0  0  0  0  0  0  0  0  0  0
   56.3080   -8.2554   -3.4648 C   0  0  0  0  0  0  0  0  0  0  0  0
   55.5036   -7.4163   -2.5880 C   0  0  0  0  0  0  0  0  0  0  0  0
   55.8273   -7.2236   -1.2776 C   0  0  0  0  0  0  0  0  0  0  0  0
   55.0544   -6.4303   -0.4665 C   0  0  0  0  0  0  0  0  0  0  0  0
   53.9367   -5.8146   -0.9650 C   0  0  0  0  0  0  0  0  0  0  0  0
   53.5761   -5.9855   -2.2868 C   0  0  0  0  0  0  0  0  0  0  0  0
   54.3818   -6.7968   -3.0826 C   0  0  0  0  0  0  0  0  0  0  0  0
   61.7262   -9.8247   -4.3313 C   0  0  0  0  0  0  0  0  0  0  0  0
   63.0061   -9.1169   -4.1056 C   0  0  0  0  0  0  0  0  0  0  0  0
   64.1180   -9.4150   -5.0788 C   0  0  0  0  0  0  0  0  0  0  0  0
   63.5942   -9.4683   -2.7211 C   0  0  0  0  0  0  0  0  0  0  0  0
   60.3655   -8.1537   -8.8294 C   0  0  0  0  0  0  0  0  0  0  0  0
   61.3377   -9.2206   -8.5609 C   0  0  0  0  0  0  0  0  0  0  0  0
   60.9595  -10.3716   -7.8635 C   0  0  0  0  0  0  0  0  0  0  0  0
   61.8675  -11.3789   -7.6302 C   0  0  0  0  0  0  0  0  0  0  0  0
   63.1628  -11.2891   -8.0692 C   0  0  0  0  0  0  0  0  0  0  0  0
   64.0978  -12.3080   -7.8382 O   0  0  0  0  0  0  0  0  0  0  0  0
   63.5368  -10.1628   -8.7525 C   0  0  0  0  0  0  0  0  0  0  0  0
   62.6208   -9.1410   -8.9912 C   0  0  0  0  0  0  0  0  0  0  0  0
   64.1965  -13.0606   -8.5278 H   0  0  0  0  0  0  0  0  0  0  0  0
 31 32  1  0  0  0
 32 29  1  0  0  0
 29 30  1  0  0  0
 29  1  1  0  0  0
  1  2  1  0  0  0
  2  3  1  0  0  0
  3  4  2  0  0  0
  3  5  1  0  0  0
  5 33  1  0  0  0
 33 34  1  0  0  0
 34 35  2  0  0  0
 35 36  1  0  0  0
 36 37  2  0  0  0
 37 38  1  0  0  0
 38 39  2  0  0  0
  5  6  1  0  0  0
  6  7  1  0  0  0
  7  8  2  0  0  0
  7  9  1  0  0  0
  9 40  1  0  0  0
 40 41  1  0  0  0
 41 42  1  0  0  0
 41 43  1  0  0  0
  9 10  1  0  0  0
 10 11  1  0  0  0
 11 12  2  0  0  0
 11 13  1  0  0  0
 13 44  1  0  0  0
 44 45  1  0  0  0
 45 46  2  0  0  0
 46 47  1  0  0  0
 47 48  2  0  0  0
 48 49  1  0  0  0
 48 50  1  0  0  0
 50 51  2  0  0  0
 13 14  1  0  0  0
 14 15  1  0  0  0
 15 16  2  0  0  0
 15 17  1  0  0  0
 17 18  1  0  0  0
 18 19  1  0  0  0
 19 20  2  0  0  0
 17 26  1  0  0  0
 26 27  1  0  0  0
 26 28  1  0  0  0
 19  1  1  0  0  0
 39 34  1  0  0  0
 51 45  1  0  0  0
  2 21  1  0  0  0
  6 22  1  0  0  0
 10 23  1  0  0  0
 49 52  1  0  0  0
 14 24  1  0  0  0
 18 25  1  0  0  0
M  END
> <minimizedAffinity>
1.73256

> <CNNscore>
0.3900590241

> <CNNaffinity>
6.5981550217

> <CNN_VS>
2.5736699104

> <CNNaffinity_variance>
0.8003600240

$$$$
[H]Oc1c([H])c([H])c(C([H])([H])[C@@]2([H])C(=O)N([H])[C@@]([H])(C([H])([H])C([H])(C([H])([H])[H])C([H])([H])[H])C(=O)N([H])[C@@]([H])(C([H])([H])c3c([H])c([H])c([H])c([H])c3[H])C(=O)N([H])[C@@]([H])([C@@]([H])(C([H])([H])[H])C([H])([H])C([H])([H])[H])C(=O)N([H])[C@@]([H])(C([H])(C([H])([H])[H])C([H])([H])[H])C(=O)N2[H])c([H])c1[H]


 52 54  0  0  0  0  0  0  0  0999 V2000
   57.8857   -5.1234   -9.1497 C   0  0  0  0  0  0  0  0  0  0  0  0
   58.3390   -6.4708   -9.0357 N   0  0  0  0  0  0  0  0  0  0  0  0
   59.6120   -7.0038   -8.8200 C   0  0  0  0  0  0  0  0  0  0  0  0
   59.8524   -8.1206   -9.4076 O   0  0  0  0  0  0  0  0  0  0  0  0
   60.7143   -6.4752   -8.0199 C   0  0  0  0  0  0  0  0  0  0  0  0
   61.6001   -7.5363   -7.5133 N   0  0  0  0  0  0  0  0  0  0  0  0
   62.1205   -7.6486   -6.2285 C   0  0  0  0  0  0  0  0  0  0  0  0
   63.4001   -7.6392   -6.0786 O   0  0  0  0  0  0  0  0  0  0  0  0
   61.3741   -7.7837   -4.9446 C   0  0  0  0  0  0  0  0  0  0  0  0
   60.0787   -8.3946   -5.0925 N   0  0  0  0  0  0  0  0  0  0  0  0
   58.8698   -8.0772   -4.4593 C   0  0  0  0  0  0  0  0  0  0  0  0
   58.3387   -8.9496   -3.6835 O   0  0  0  0  0  0  0  0  0  0  0  0
   58.0694   -6.8306   -4.5542 C   0  0  0  0  0  0  0  0  0  0  0  0
   56.7275   -7.1536   -5.0600 N   0  0  0  0  0  0  0  0  0  0  0  0
   56.0041   -6.4808   -6.0610 C   0  0  0  0  0  0  0  0  0  0  0  0
   55.5673   -7.2666   -6.9894 O   0  0  0  0  0  0  0  0  0  0  0  0
   55.6791   -5.0864   -6.2087 C   0  0  0  0  0  0  0  0  0  0  0  0
   56.3768   -4.2731   -7.1622 N   0  0  0  0  0  0  0  0  0  0  0  0
   57.5250   -4.4057   -7.9292 C   0  0  0  0  0  0  0  0  0  0  0  0
   58.5321   -3.7181   -7.4438 O   0  0  0  0  0  0  0  0  0  0  0  0
   57.5581   -7.1972   -9.1352 H   0  0  0  0  0  0  0  0  0  0  0  0
   61.8559   -8.2614   -8.2296 H   0  0  0  0  0  0  0  0  0  0  0  0
   60.0599   -9.2078   -5.7924 H   0  0  0  0  0  0  0  0  0  0  0  0
   56.3075   -8.0088   -4.5747 H   0  0  0  0  0  0  0  0  0  0  0  0
   55.8462   -3.3164   -7.2592 H   0  0  0  0  0  0  0  0  0  0  0  0
   54.1541   -4.9444   -6.4310 C   0  0  0  0  0  0  0  0  0  0  0  0
   53.3873   -5.8944   -5.5826 C   0  0  0  0  0  0  0  0  0  0  0  0
   53.8504   -5.2461   -7.8802 C   0  0  0  0  0  0  0  0  0  0  0  0
   56.9185   -4.9670  -10.3133 C   0  0  0  0  0  0  0  0  0  0  0  0
   55.9385   -3.8214  -10.0780 C   0  0  0  0  0  0  0  0  0  0  0  0
   56.5676   -3.9732  -12.5177 C   0  0  0  0  0  0  0  0  0  0  0  0
   57.5472   -4.7619  -11.6397 C   0  0  0  0  0  0  0  0  0  0  0  0
   61.6332   -5.5255   -8.7582 C   0  0  0  0  0  0  0  0  0  0  0  0
   62.6117   -6.1956   -9.6030 C   0  0  0  0  0  0  0  0  0  0  0  0
   63.8941   -6.4085   -9.1919 C   0  0  0  0  0  0  0  0  0  0  0  0
   64.8025   -7.0404  -10.0044 C   0  0  0  0  0  0  0  0  0  0  0  0
   64.4317   -7.4707  -11.2511 C   0  0  0  0  0  0  0  0  0  0  0  0
   63.1421   -7.2733  -11.7030 C   0  0  0  0  0  0  0  0  0  0  0  0
   62.2452   -6.6289  -10.8539 C   0  0  0  0  0  0  0  0  0  0  0  0
   62.2155   -8.4590   -3.8976 C   0  0  0  0  0  0  0  0  0  0  0  0
   62.0997   -7.9781   -2.5028 C   0  0  0  0  0  0  0  0  0  0  0  0
   63.3910   -7.7962   -1.7467 C   0  0  0  0  0  0  0  0  0  0  0  0
   61.2804   -8.9672   -1.6444 C   0  0  0  0  0  0  0  0  0  0  0  0
   57.8490   -6.1425   -3.2309 C   0  0  0  0  0  0  0  0  0  0  0  0
   56.4767   -6.2140   -2.7139 C   0  0  0  0  0  0  0  0  0  0  0  0
   55.9601   -7.4176   -2.2254 C   0  0  0  0  0  0  0  0  0  0  0  0
   54.6803   -7.4776   -1.7232 C   0  0  0  0  0  0  0  0  0  0  0  0
   53.8749   -6.3692   -1.6853 C   0  0  0  0  0  0  0  0  0  0  0  0
   52.5694   -6.4166   -1.1763 O   0  0  0  0  0  0  0  0  0  0  0  0
   54.3778   -5.1884   -2.1633 C   0  0  0  0  0  0  0  0  0  0  0  0
   55.6728   -5.1233   -2.6721 C   0  0  0  0  0  0  0  0  0  0  0  0
   52.4157   -6.2349   -0.1788 H   0  0  0  0  0  0  0  0  0  0  0  0
 31 32  1  0  0  0
 32 29  1  0  0  0
 29 30  1  0  0  0
 29  1  1  0  0  0
  1  2  1  0  0  0
  2  3  1  0  0  0
  3  4  2  0  0  0
  3  5  1  0  0  0
  5 33  1  0  0  0
 33 34  1  0  0  0
 34 35  2  0  0  0
 35 36  1  0  0  0
 36 37  2  0  0  0
 37 38  1  0  0  0
 38 39  2  0  0  0
  5  6  1  0  0  0
  6  7  1  0  0  0
  7  8  2  0  0  0
  7  9  1  0  0  0
  9 40  1  0  0  0
 40 41  1  0  0  0
 41 42  1  0  0  0
 41 43  1  0  0  0
  9 10  1  0  0  0
 10 11  1  0  0  0
 11 12  2  0  0  0
 11 13  1  0  0  0
 13 44  1  0  0  0
 44 45  1  0  0  0
 45 46  2  0  0  0
 46 47  1  0  0  0
 47 48  2  0  0  0
 48 49  1  0  0  0
 48 50  1  0  0  0
 50 51  2  0  0  0
 13 14  1  0  0  0
 14 15  1  0  0  0
 15 16  2  0  0  0
 15 17  1  0  0  0
 17 18  1  0  0  0
 18 19  1  0  0  0
 19 20  2  0  0  0
 17 26  1  0  0  0
 26 27  1  0  0  0
 26 28  1  0  0  0
 19  1  1  0  0  0
 39 34  1  0  0  0
 51 45  1  0  0  0
  2 21  1  0  0  0
  6 22  1  0  0  0
 10 23  1  0  0  0
 49 52  1  0  0  0
 14 24  1  0  0  0
 18 25  1  0  0  0
M  END
> <minimizedAffinity>
-1.43935

> <CNNscore>
0.3877790570

> <CNNaffinity>
6.6083879471

> <CNN_VS>
2.5625944138

> <CNNaffinity_variance>
0.2223778665

$$$$
[H]Oc1c([H])c([H])c(C([H])([H])[C@@]2([H])C(=O)N([H])[C@@]([H])(C([H])([H])C([H])(C([H])([H])[H])C([H])([H])[H])C(=O)N([H])[C@@]([H])(C([H])([H])c3c([H])c([H])c([H])c([H])c3[H])C(=O)N([H])[C@@]([H])([C@@]([H])(C([H])([H])[H])C([H])([H])C([H])([H])[H])C(=O)N([H])[C@@]([H])(C([H])(C([H])([H])[H])C([H])([H])[H])C(=O)N2[H])c([H])c1[H]


 52 54  0  0  0  0  0  0  0  0999 V2000
   59.8879   -6.0433  -11.4901 C   0  0  0  0  0  0  0  0  0  0  0  0
   59.4437   -4.7194  -11.2004 N   0  0  0  0  0  0  0  0  0  0  0  0
   58.2540   -4.0546  -11.5067 C   0  0  0  0  0  0  0  0  0  0  0  0
   58.3665   -2.7969  -11.7427 O   0  0  0  0  0  0  0  0  0  0  0  0
   56.8947   -4.5825  -11.5975 C   0  0  0  0  0  0  0  0  0  0  0  0
   55.8748   -3.5617  -11.3056 N   0  0  0  0  0  0  0  0  0  0  0  0
   54.7454   -3.7121  -10.5082 C   0  0  0  0  0  0  0  0  0  0  0  0
   53.5858   -3.5426  -11.0434 O   0  0  0  0  0  0  0  0  0  0  0  0
   54.6848   -4.0573   -9.0587 C   0  0  0  0  0  0  0  0  0  0  0  0
   55.8563   -3.6599   -8.3220 N   0  0  0  0  0  0  0  0  0  0  0  0
   56.5356   -4.3380   -7.3012 C   0  0  0  0  0  0  0  0  0  0  0  0
   56.5660   -3.8106   -6.1325 O   0  0  0  0  0  0  0  0  0  0  0  0
   57.2622   -5.6307   -7.3668 C   0  0  0  0  0  0  0  0  0  0  0  0
   58.6655   -5.4179   -6.9842 N   0  0  0  0  0  0  0  0  0  0  0  0
   59.8138   -5.9098   -7.6301 C   0  0  0  0  0  0  0  0  0  0  0  0
   60.6808   -4.9899   -7.8989 O   0  0  0  0  0  0  0  0  0  0  0  0
   60.1680   -7.2472   -8.0272 C   0  0  0  0  0  0  0  0  0  0  0  0
   60.0925   -7.6421   -9.4041 N   0  0  0  0  0  0  0  0  0  0  0  0
   59.5364   -7.1137  -10.5599 C   0  0  0  0  0  0  0  0  0  0  0  0
   58.4267   -7.7239  -10.9044 O   0  0  0  0  0  0  0  0  0  0  0  0
   60.1553   -4.1377  -10.6504 H   0  0  0  0  0  0  0  0  0  0  0  0
   56.0438   -2.6379  -11.7772 H   0  0  0  0  0  0  0  0  0  0  0  0
   56.2480   -2.7041   -8.6126 H   0  0  0  0  0  0  0  0  0  0  0  0
   58.7584   -4.8098   -6.1097 H   0  0  0  0  0  0  0  0  0  0  0  0
   60.5926   -8.6136   -9.5163 H   0  0  0  0  0  0  0  0  0  0  0  0
   61.5736   -7.5827   -7.4731 C   0  0  0  0  0  0  0  0  0  0  0  0
   61.5587   -7.7221   -5.9930 C   0  0  0  0  0  0  0  0  0  0  0  0
   62.5140   -6.4574   -7.8373 C   0  0  0  0  0  0  0  0  0  0  0  0
   61.3290   -6.0437  -11.9772 C   0  0  0  0  0  0  0  0  0  0  0  0
   61.6311   -4.8197  -12.8366 C   0  0  0  0  0  0  0  0  0  0  0  0
   63.5161   -6.9847  -11.4285 C   0  0  0  0  0  0  0  0  0  0  0  0
   62.3594   -6.1184  -10.9146 C   0  0  0  0  0  0  0  0  0  0  0  0
   56.5171   -5.1268  -12.9586 C   0  0  0  0  0  0  0  0  0  0  0  0
   56.9194   -4.2693  -14.0644 C   0  0  0  0  0  0  0  0  0  0  0  0
   56.0153   -3.7639  -14.9511 C   0  0  0  0  0  0  0  0  0  0  0  0
   56.4151   -2.9588  -15.9887 C   0  0  0  0  0  0  0  0  0  0  0  0
   57.7394   -2.6477  -16.1508 C   0  0  0  0  0  0  0  0  0  0  0  0
   58.6848   -3.1403  -15.2734 C   0  0  0  0  0  0  0  0  0  0  0  0
   58.2459   -3.9543  -14.2316 C   0  0  0  0  0  0  0  0  0  0  0  0
   53.4122   -3.5552   -8.4354 C   0  0  0  0  0  0  0  0  0  0  0  0
   52.5200   -4.5461   -7.7932 C   0  0  0  0  0  0  0  0  0  0  0  0
   51.2899   -4.0001   -7.1141 C   0  0  0  0  0  0  0  0  0  0  0  0
   53.2652   -5.3233   -6.6855 C   0  0  0  0  0  0  0  0  0  0  0  0
   56.7372   -6.6767   -6.4164 C   0  0  0  0  0  0  0  0  0  0  0  0
   57.0236   -6.4280   -4.9980 C   0  0  0  0  0  0  0  0  0  0  0  0
   58.1070   -7.0485   -4.3694 C   0  0  0  0  0  0  0  0  0  0  0  0
   58.3851   -6.7986   -3.0451 C   0  0  0  0  0  0  0  0  0  0  0  0
   57.6159   -5.9405   -2.3030 C   0  0  0  0  0  0  0  0  0  0  0  0
   57.8882   -5.6771   -0.9532 O   0  0  0  0  0  0  0  0  0  0  0  0
   56.5535   -5.3310   -2.9157 C   0  0  0  0  0  0  0  0  0  0  0  0
   56.2688   -5.5810   -4.2560 C   0  0  0  0  0  0  0  0  0  0  0  0
   58.5141   -4.9013   -0.7124 H   0  0  0  0  0  0  0  0  0  0  0  0
 31 32  1  0  0  0
 32 29  1  0  0  0
 29 30  1  0  0  0
 29  1  1  0  0  0
  1  2  1  0  0  0
  2  3  1  0  0  0
  3  4  2  0  0  0
  3  5  1  0  0  0
  5 33  1  0  0  0
 33 34  1  0  0  0
 34 35  2  0  0  0
 35 36  1  0  0  0
 36 37  2  0  0  0
 37 38  1  0  0  0
 38 39  2  0  0  0
  5  6  1  0  0  0
  6  7  1  0  0  0
  7  8  2  0  0  0
  7  9  1  0  0  0
  9 40  1  0  0  0
 40 41  1  0  0  0
 41 42  1  0  0  0
 41 43  1  0  0  0
  9 10  1  0  0  0
 10 11  1  0  0  0
 11 12  2  0  0  0
 11 13  1  0  0  0
 13 44  1  0  0  0
 44 45  1  0  0  0
 45 46  2  0  0  0
 46 47  1  0  0  0
 47 48  2  0  0  0
 48 49  1  0  0  0
 48 50  1  0  0  0
 50 51  2  0  0  0
 13 14  1  0  0  0
 14 15  1  0  0  0
 15 16  2  0  0  0
 15 17  1  0  0  0
 17 18  1  0  0  0
 18 19  1  0  0  0
 19 20  2  0  0  0
 17 26  1  0  0  0
 26 27  1  0  0  0
 26 28  1  0  0  0
 19  1  1  0  0  0
 39 34  1  0  0  0
 51 45  1  0  0  0
  2 21  1  0  0  0
  6 22  1  0  0  0
 10 23  1  0  0  0
 49 52  1  0  0  0
 14 24  1  0  0  0
 18 25  1  0  0  0
M  END
> <minimizedAffinity>
6.16957

> <CNNscore>
0.3876535594

> <CNNaffinity>
6.7073392868

> <CNN_VS>
2.6001238823

> <CNNaffinity_variance>
0.4107553065

$$$$
[H]Oc1c([H])c([H])c(C([H])([H])[C@@]2([H])C(=O)N([H])[C@@]([H])(C([H])([H])C([H])(C([H])([H])[H])C([H])([H])[H])C(=O)N([H])[C@@]([H])(C([H])([H])c3c([H])c([H])c([H])c([H])c3[H])C(=O)N([H])[C@@]([H])([C@@]([H])(C([H])([H])[H])C([H])([H])C([H])([H])[H])C(=O)N([H])[C@@]([H])(C([H])(C([H])([H])[H])C([H])([H])[H])C(=O)N2[H])c([H])c1[H]


 52 54  0  0  0  0  0  0  0  0999 V2000
   56.6991   -5.1710   -6.8364 C   0  0  0  0  0  0  0  0  0  0  0  0
   56.1733   -6.4802   -6.6282 N   0  0  0  0  0  0  0  0  0  0  0  0
   56.1763   -7.3108   -5.5051 C   0  0  0  0  0  0  0  0  0  0  0  0
   56.2719   -8.5690   -5.7462 O   0  0  0  0  0  0  0  0  0  0  0  0
   56.0855   -6.9566   -4.0906 C   0  0  0  0  0  0  0  0  0  0  0  0
   55.4914   -8.0317   -3.2791 N   0  0  0  0  0  0  0  0  0  0  0  0
   54.5286   -7.8945   -2.2851 C   0  0  0  0  0  0  0  0  0  0  0  0
   54.8214   -8.2680   -1.0873 O   0  0  0  0  0  0  0  0  0  0  0  0
   53.1455   -7.3522   -2.4157 C   0  0  0  0  0  0  0  0  0  0  0  0
   52.5883   -7.5056   -3.7344 N   0  0  0  0  0  0  0  0  0  0  0  0
   51.7978   -6.6155   -4.4733 C   0  0  0  0  0  0  0  0  0  0  0  0
   50.5977   -6.9615   -4.7649 O   0  0  0  0  0  0  0  0  0  0  0  0
   52.1518   -5.2729   -4.9984 C   0  0  0  0  0  0  0  0  0  0  0  0
   52.0046   -5.2702   -6.4611 N   0  0  0  0  0  0  0  0  0  0  0  0
   52.9022   -4.7520   -7.4117 C   0  0  0  0  0  0  0  0  0  0  0  0
   53.2071   -5.5987   -8.3392 O   0  0  0  0  0  0  0  0  0  0  0  0
   53.5181   -3.4550   -7.5126 C   0  0  0  0  0  0  0  0  0  0  0  0
   54.8970   -3.2744   -7.1610 N   0  0  0  0  0  0  0  0  0  0  0  0
   55.8598   -4.0232   -6.5003 C   0  0  0  0  0  0  0  0  0  0  0  0
   56.0716   -3.5969   -5.2772 O   0  0  0  0  0  0  0  0  0  0  0  0
   55.6929   -6.8932   -7.4918 H   0  0  0  0  0  0  0  0  0  0  0  0
   55.8682   -8.9894   -3.4920 H   0  0  0  0  0  0  0  0  0  0  0  0
   52.8246   -8.4437   -4.1988 H   0  0  0  0  0  0  0  0  0  0  0  0
   51.0929   -5.7312   -6.7765 H   0  0  0  0  0  0  0  0  0  0  0  0
   55.2162   -2.2798   -7.5004 H   0  0  0  0  0  0  0  0  0  0  0  0
   53.2716   -2.8882   -8.9315 C   0  0  0  0  0  0  0  0  0  0  0  0
   54.5353   -2.4227   -9.5612 C   0  0  0  0  0  0  0  0  0  0  0  0
   52.3310   -1.7108   -8.8210 C   0  0  0  0  0  0  0  0  0  0  0  0
   57.4337   -5.0802   -8.1654 C   0  0  0  0  0  0  0  0  0  0  0  0
   58.6438   -6.0089   -8.2019 C   0  0  0  0  0  0  0  0  0  0  0  0
   57.2477   -4.6347  -10.5606 C   0  0  0  0  0  0  0  0  0  0  0  0
   56.6115   -5.3578   -9.3668 C   0  0  0  0  0  0  0  0  0  0  0  0
   57.4130   -6.6605   -3.4261 C   0  0  0  0  0  0  0  0  0  0  0  0
   57.3029   -5.8044   -2.2536 C   0  0  0  0  0  0  0  0  0  0  0  0
   56.6567   -6.2089   -1.1232 C   0  0  0  0  0  0  0  0  0  0  0  0
   56.5618   -5.3858   -0.0287 C   0  0  0  0  0  0  0  0  0  0  0  0
   57.1196   -4.1347   -0.0550 C   0  0  0  0  0  0  0  0  0  0  0  0
   57.7820   -3.6892   -1.1815 C   0  0  0  0  0  0  0  0  0  0  0  0
   57.8602   -4.5491   -2.2747 C   0  0  0  0  0  0  0  0  0  0  0  0
   52.2464   -7.8976   -1.3413 C   0  0  0  0  0  0  0  0  0  0  0  0
   52.1524   -9.3677   -1.1998 C   0  0  0  0  0  0  0  0  0  0  0  0
   51.6065  -10.1220   -2.3852 C   0  0  0  0  0  0  0  0  0  0  0  0
   51.2196   -9.7508   -0.0296 C   0  0  0  0  0  0  0  0  0  0  0  0
   51.2587   -4.1656   -4.4993 C   0  0  0  0  0  0  0  0  0  0  0  0
   50.3567   -3.5926   -5.5061 C   0  0  0  0  0  0  0  0  0  0  0  0
   49.2326   -4.3001   -5.9421 C   0  0  0  0  0  0  0  0  0  0  0  0
   48.3778   -3.7528   -6.8713 C   0  0  0  0  0  0  0  0  0  0  0  0
   48.5974   -2.5062   -7.3972 C   0  0  0  0  0  0  0  0  0  0  0  0
   47.7346   -1.9371   -8.3444 O   0  0  0  0  0  0  0  0  0  0  0  0
   49.6979   -1.8105   -6.9725 C   0  0  0  0  0  0  0  0  0  0  0  0
   50.5653   -2.3607   -6.0318 C   0  0  0  0  0  0  0  0  0  0  0  0
   46.9432   -1.3704   -8.0218 H   0  0  0  0  0  0  0  0  0  0  0  0
 31 32  1  0  0  0
 32 29  1  0  0  0
 29 30  1  0  0  0
 29  1  1  0  0  0
  1  2  1  0  0  0
  2  3  1  0  0  0
  3  4  2  0  0  0
  3  5  1  0  0  0
  5 33  1  0  0  0
 33 34  1  0  0  0
 34 35  2  0  0  0
 35 36  1  0  0  0
 36 37  2  0  0  0
 37 38  1  0  0  0
 38 39  2  0  0  0
  5  6  1  0  0  0
  6  7  1  0  0  0
  7  8  2  0  0  0
  7  9  1  0  0  0
  9 40  1  0  0  0
 40 41  1  0  0  0
 41 42  1  0  0  0
 41 43  1  0  0  0
  9 10  1  0  0  0
 10 11  1  0  0  0
 11 12  2  0  0  0
 11 13  1  0  0  0
 13 44  1  0  0  0
 44 45  1  0  0  0
 45 46  2  0  0  0
 46 47  1  0  0  0
 47 48  2  0  0  0
 48 49  1  0  0  0
 48 50  1  0  0  0
 50 51  2  0  0  0
 13 14  1  0  0  0
 14 15  1  0  0  0
 15 16  2  0  0  0
 15 17  1  0  0  0
 17 18  1  0  0  0
 18 19  1  0  0  0
 19 20  2  0  0  0
 17 26  1  0  0  0
 26 27  1  0  0  0
 26 28  1  0  0  0
 19  1  1  0  0  0
 39 34  1  0  0  0
 51 45  1  0  0  0
  2 21  1  0  0  0
  6 22  1  0  0  0
 10 23  1  0  0  0
 49 52  1  0  0  0
 14 24  1  0  0  0
 18 25  1  0  0  0
M  END
> <minimizedAffinity>
4.97423

> <CNNscore>
0.3783237934

> <CNNaffinity>
7.2537331581

> <CNN_VS>
2.7442598343

> <CNNaffinity_variance>
0.4839824736

$$$$
[H]Oc1c([H])c([H])c2c(c1[H])C([H])([H])C([H])([H])[C@@]1([H])[C@]2([H])C([H])([H])C([H])([H])[C@]1(O[H])C([H])([H])C([H])([H])[H]


 19 21  0  0  0  0  0  0  0  0999 V2000
   61.7568   -7.1785   -9.5715 C   0  0  0  0  0  0  0  0  0  0  0  0
   60.9984   -6.8928  -10.6958 O   0  0  0  0  0  0  0  0  0  0  0  0
   63.0791   -6.4552   -9.7162 C   0  0  0  0  0  0  0  0  0  0  0  0
   63.8209   -7.4271  -10.6436 C   0  0  0  0  0  0  0  0  0  0  0  0
   63.5781   -8.7306   -9.9203 C   0  0  0  0  0  0  0  0  0  0  0  0
   62.1445   -8.6545   -9.5217 C   0  0  0  0  0  0  0  0  0  0  0  0
   61.2022   -9.3933  -10.4106 C   0  0  0  0  0  0  0  0  0  0  0  0
   61.6280  -10.8213  -10.6671 C   0  0  0  0  0  0  0  0  0  0  0  0
   63.0497  -10.8996  -11.0971 C   0  0  0  0  0  0  0  0  0  0  0  0
   63.4731  -11.9641  -11.8584 C   0  0  0  0  0  0  0  0  0  0  0  0
   64.8053  -12.0490  -12.2686 C   0  0  0  0  0  0  0  0  0  0  0  0
   65.1785  -13.1272  -13.0248 O   0  0  0  0  0  0  0  0  0  0  0  0
   65.6987  -11.0636  -11.9098 C   0  0  0  0  0  0  0  0  0  0  0  0
   65.2401  -10.0198  -11.1516 C   0  0  0  0  0  0  0  0  0  0  0  0
   63.9169   -9.9139  -10.7311 C   0  0  0  0  0  0  0  0  0  0  0  0
   61.2390   -5.9973  -11.0397 H   0  0  0  0  0  0  0  0  0  0  0  0
   66.1241  -13.2553  -13.3571 H   0  0  0  0  0  0  0  0  0  0  0  0
   59.8801   -5.8515   -8.7755 C   0  0  0  0  0  0  0  0  0  0  0  0
   61.0023   -6.7667   -8.3361 C   0  0  0  0  0  0  0  0  0  0  0  0
 18 19  1  0  0  0
 19  1  1  0  0  0
  1  2  1  0  0  0
  1  3  1  0  0  0
  3  4  1  0  0  0
  4  5  1  0  0  0
  5  6  1  0  0  0
  6  7  1  0  0  0
  7  8  1  0  0  0
  8  9  1  0  0  0
  9 10  2  0  0  0
 10 11  1  0  0  0
 11 12  1  0  0  0
 11 13  2  0  0  0
 13 14  1  0  0  0
 14 15  2  0  0  0
  6  1  1  0  0  0
 15  9  1  0  0  0
 15  5  1  0  0  0
  2 16  1  0  0  0
 12 17  1  0  0  0
M  END
> <minimizedAffinity>
-1.74611

> <CNNscore>
0.6705664396

> <CNNaffinity>
3.6656227112

> <CNN_VS>
2.4580435753

> <CNNaffinity_variance>
0.1830857247

$$$$
[H]Oc1c([H])c([H])c2c(c1[H])C([H])([H])C([H])([H])[C@@]1([H])[C@]2([H])C([H])([H])C([H])([H])[C@]1(O[H])C([H])([H])C([H])([H])[H]


 19 21  0  0  0  0  0  0  0  0999 V2000
   64.1092   -7.4478   -5.8432 C   0  0  0  0  0  0  0  0  0  0  0  0
   62.7942   -7.1210   -5.5524 O   0  0  0  0  0  0  0  0  0  0  0  0
   64.8804   -6.1531   -5.9901 C   0  0  0  0  0  0  0  0  0  0  0  0
   64.5028   -5.7730   -7.4281 C   0  0  0  0  0  0  0  0  0  0  0  0
   64.7835   -7.0773   -8.1359 C   0  0  0  0  0  0  0  0  0  0  0  0
   64.2285   -8.1085   -7.2147 C   0  0  0  0  0  0  0  0  0  0  0  0
   62.8770   -8.6208   -7.5818 C   0  0  0  0  0  0  0  0  0  0  0  0
   62.7843   -9.0635   -9.0246 C   0  0  0  0  0  0  0  0  0  0  0  0
   63.3072   -8.0236   -9.9507 C   0  0  0  0  0  0  0  0  0  0  0  0
   62.8556   -7.9791  -11.2492 C   0  0  0  0  0  0  0  0  0  0  0  0
   63.3388   -7.0074  -12.1284 C   0  0  0  0  0  0  0  0  0  0  0  0
   62.8591   -7.0037  -13.4104 O   0  0  0  0  0  0  0  0  0  0  0  0
   64.2707   -6.0905  -11.6941 C   0  0  0  0  0  0  0  0  0  0  0  0
   64.6961   -6.1666  -10.3948 C   0  0  0  0  0  0  0  0  0  0  0  0
   64.2288   -7.1261   -9.5005 C   0  0  0  0  0  0  0  0  0  0  0  0
   62.7664   -6.2641   -5.0593 H   0  0  0  0  0  0  0  0  0  0  0  0
   63.1624   -6.3315  -14.1010 H   0  0  0  0  0  0  0  0  0  0  0  0
   65.4700   -7.4547   -3.8272 C   0  0  0  0  0  0  0  0  0  0  0  0
   64.6611   -8.3321   -4.7576 C   0  0  0  0  0  0  0  0  0  0  0  0
 18 19  1  0  0  0
 19  1  1  0  0  0
  1  2  1  0  0  0
  1  3  1  0  0  0
  3  4  1  0  0  0
  4  5  1  0  0  0
  5  6  1  0  0  0
  6  7  1  0  0  0
  7  8  1  0  0  0
  8  9  1  0  0  0
  9 10  2  0  0  0
 10 11  1  0  0  0
 11 12  1  0  0  0
 11 13  2  0  0  0
 13 14  1  0  0  0
 14 15  2  0  0  0
  6  1  1  0  0  0
 15  9  1  0  0  0
 15  5  1  0  0  0
  2 16  1  0  0  0
 12 17  1  0  0  0
M  END
> <minimizedAffinity>
-2.04822

> <CNNscore>
0.6623623967

> <CNNaffinity>
3.6436080933

> <CNN_VS>
2.4133889675

> <CNNaffinity_variance>
0.0658644438

$$$$
[H]Oc1c([H])c([H])c2c(c1[H])C([H])([H])C([H])([H])[C@@]1([H])[C@]2([H])C([H])([H])C([H])([H])[C@]1(O[H])C([H])([H])C([H])([H])[H]


 19 21  0  0  0  0  0  0  0  0999 V2000
   63.2050   -6.7773   -7.4873 C   0  0  0  0  0  0  0  0  0  0  0  0
   62.2776   -7.3218   -6.6131 O   0  0  0  0  0  0  0  0  0  0  0  0
   62.4463   -6.2401   -8.6825 C   0  0  0  0  0  0  0  0  0  0  0  0
   62.2389   -7.5359   -9.4780 C   0  0  0  0  0  0  0  0  0  0  0  0
   63.6459   -8.0851   -9.4731 C   0  0  0  0  0  0  0  0  0  0  0  0
   64.1131   -7.8537   -8.0773 C   0  0  0  0  0  0  0  0  0  0  0  0
   64.0358   -9.0428   -7.1807 C   0  0  0  0  0  0  0  0  0  0  0  0
   64.6741  -10.2765   -7.7782 C   0  0  0  0  0  0  0  0  0  0  0  0
   64.1860  -10.5302   -9.1601 C   0  0  0  0  0  0  0  0  0  0  0  0
   64.2105  -11.8089   -9.6667 C   0  0  0  0  0  0  0  0  0  0  0  0
   63.7549  -12.0602  -10.9627 C   0  0  0  0  0  0  0  0  0  0  0  0
   63.7992  -13.3488  -11.4220 O   0  0  0  0  0  0  0  0  0  0  0  0
   63.2793  -11.0244  -11.7366 C   0  0  0  0  0  0  0  0  0  0  0  0
   63.2706   -9.7656  -11.1978 C   0  0  0  0  0  0  0  0  0  0  0  0
   63.7196   -9.4912   -9.9087 C   0  0  0  0  0  0  0  0  0  0  0  0
   61.4171   -6.8423   -6.7011 H   0  0  0  0  0  0  0  0  0  0  0  0
   63.4869  -13.6056  -12.3481 H   0  0  0  0  0  0  0  0  0  0  0  0
   65.2658   -5.4885   -7.5798 C   0  0  0  0  0  0  0  0  0  0  0  0
   64.0013   -5.7140   -6.7798 C   0  0  0  0  0  0  0  0  0  0  0  0
 18 19  1  0  0  0
 19  1  1  0  0  0
  1  2  1  0  0  0
  1  3  1  0  0  0
  3  4  1  0  0  0
  4  5  1  0  0  0
  5  6  1  0  0  0
  6  7  1  0  0  0
  7  8  1  0  0  0
  8  9  1  0  0  0
  9 10  2  0  0  0
 10 11  1  0  0  0
 11 12  1  0  0  0
 11 13  2  0  0  0
 13 14  1  0  0  0
 14 15  2  0  0  0
  6  1  1  0  0  0
 15  9  1  0  0  0
 15  5  1  0  0  0
  2 16  1  0  0  0
 12 17  1  0  0  0
M  END
> <minimizedAffinity>
-2.13472

> <CNNscore>
0.6534397602

> <CNNaffinity>
3.5559787750

> <CNN_VS>
2.3236179352

> <CNNaffinity_variance>
0.1444479674

$$$$
[H]Oc1c([H])c([H])c2c(c1[H])C([H])([H])C([H])([H])[C@@]1([H])[C@]2([H])C([H])([H])C([H])([H])[C@]1(O[H])C([H])([H])C([H])([H])[H]


 19 21  0  0  0  0  0  0  0  0999 V2000
   63.2042   -6.6192   -8.6168 C   0  0  0  0  0  0  0  0  0  0  0  0
   63.6921   -5.5377   -7.9005 O   0  0  0  0  0  0  0  0  0  0  0  0
   61.7470   -6.7942   -8.2447 C   0  0  0  0  0  0  0  0  0  0  0  0
   61.8938   -7.5517   -6.9182 C   0  0  0  0  0  0  0  0  0  0  0  0
   62.8576   -8.6384   -7.3319 C   0  0  0  0  0  0  0  0  0  0  0  0
   63.8604   -7.9240   -8.1710 C   0  0  0  0  0  0  0  0  0  0  0  0
   65.1294   -7.5690   -7.4729 C   0  0  0  0  0  0  0  0  0  0  0  0
   65.7523   -8.7400   -6.7469 C   0  0  0  0  0  0  0  0  0  0  0  0
   64.7628   -9.4369   -5.8823 C   0  0  0  0  0  0  0  0  0  0  0  0
   65.1964  -10.1453   -4.7858 C   0  0  0  0  0  0  0  0  0  0  0  0
   64.2772  -10.8038   -3.9661 C   0  0  0  0  0  0  0  0  0  0  0  0
   64.7572  -11.4955   -2.8869 O   0  0  0  0  0  0  0  0  0  0  0  0
   62.9318  -10.7439   -4.2563 C   0  0  0  0  0  0  0  0  0  0  0  0
   62.5386  -10.0291   -5.3560 C   0  0  0  0  0  0  0  0  0  0  0  0
   63.4364   -9.3648   -6.1874 C   0  0  0  0  0  0  0  0  0  0  0  0
   62.9606   -4.8935   -7.7328 H   0  0  0  0  0  0  0  0  0  0  0  0
   64.1523  -11.9955   -2.2505 H   0  0  0  0  0  0  0  0  0  0  0  0
   62.1072   -6.7390  -10.7844 C   0  0  0  0  0  0  0  0  0  0  0  0
   63.4024   -6.3797  -10.0893 C   0  0  0  0  0  0  0  0  0  0  0  0
 18 19  1  0  0  0
 19  1  1  0  0  0
  1  2  1  0  0  0
  1  3  1  0  0  0
  3  4  1  0  0  0
  4  5  1  0  0  0
  5  6  1  0  0  0
  6  7  1  0  0  0
  7  8  1  0  0  0
  8  9  1  0  0  0
  9 10  2  0  0  0
 10 11  1  0  0  0
 11 12  1  0  0  0
 11 13  2  0  0  0
 13 14  1  0  0  0
 14 15  2  0  0  0
  6  1  1  0  0  0
 15  9  1  0  0  0
 15  5  1  0  0  0
  2 16  1  0  0  0
 12 17  1  0  0  0
M  END
> <minimizedAffinity>
-2.00287

> <CNNscore>
0.6518035531

> <CNNaffinity>
3.6826293468

> <CNN_VS>
2.4003508091

> <CNNaffinity_variance>
0.2046733350

$$$$
[H]Oc1c([H])c([H])c2c(c1[H])C([H])([H])C([H])([H])[C@@]1([H])[C@]2([H])C([H])([H])C([H])([H])[C@]1(O[H])C([H])([H])C([H])([H])[H]


 19 21  0  0  0  0  0  0  0  0999 V2000
   61.7156   -7.3161   -8.2099 C   0  0  0  0  0  0  0  0  0  0  0  0
   61.9606   -6.5844   -7.0587 O   0  0  0  0  0  0  0  0  0  0  0  0
   60.4795   -8.1552   -7.9639 C   0  0  0  0  0  0  0  0  0  0  0  0
   61.0939   -9.3211   -7.1778 C   0  0  0  0  0  0  0  0  0  0  0  0
   62.2585   -9.6688   -8.0745 C   0  0  0  0  0  0  0  0  0  0  0  0
   62.8172   -8.3430   -8.4620 C   0  0  0  0  0  0  0  0  0  0  0  0
   64.0150   -7.9116   -7.6855 C   0  0  0  0  0  0  0  0  0  0  0  0
   65.0944   -8.9690   -7.6275 C   0  0  0  0  0  0  0  0  0  0  0  0
   64.5470  -10.2872   -7.2093 C   0  0  0  0  0  0  0  0  0  0  0  0
   65.3718  -11.2049   -6.6011 C   0  0  0  0  0  0  0  0  0  0  0  0
   64.8699  -12.4460   -6.2036 C   0  0  0  0  0  0  0  0  0  0  0  0
   65.7295  -13.3254   -5.6025 O   0  0  0  0  0  0  0  0  0  0  0  0
   63.5445  -12.7527   -6.4211 C   0  0  0  0  0  0  0  0  0  0  0  0
   62.7548  -11.8138   -7.0291 C   0  0  0  0  0  0  0  0  0  0  0  0
   63.2329  -10.5703   -7.4339 C   0  0  0  0  0  0  0  0  0  0  0  0
   61.1070   -6.4011   -6.5940 H   0  0  0  0  0  0  0  0  0  0  0  0
   65.4377  -14.2405   -5.2889 H   0  0  0  0  0  0  0  0  0  0  0  0
   60.1302   -5.8821   -9.3701 C   0  0  0  0  0  0  0  0  0  0  0  0
   61.5589   -6.3806   -9.3784 C   0  0  0  0  0  0  0  0  0  0  0  0
 18 19  1  0  0  0
 19  1  1  0  0  0
  1  2  1  0  0  0
  1  3  1  0  0  0
  3  4  1  0  0  0
  4  5  1  0  0  0
  5  6  1  0  0  0
  6  7  1  0  0  0
  7  8  1  0  0  0
  8  9  1  0  0  0
  9 10  2  0  0  0
 10 11  1  0  0  0
 11 12  1  0  0  0
 11 13  2  0  0  0
 13 14  1  0  0  0
 14 15  2  0  0  0
  6  1  1  0  0  0
 15  9  1  0  0  0
 15  5  1  0  0  0
  2 16  1  0  0  0
 12 17  1  0  0  0
M  END
> <minimizedAffinity>
0.17855

> <CNNscore>
0.5693714619

> <CNNaffinity>
3.7239913940

> <CNN_VS>
2.1203343868

> <CNNaffinity_variance>
0.6251347661

$$$$
[H]Oc1c([H])c([H])c2c(c1[H])C([H])([H])C([H])([H])[C@@]1([H])[C@]2([H])C([H])([H])C([H])([H])[C@]1(O[H])C([H])([H])C([H])([H])[H]


 19 21  0  0  0  0  0  0  0  0999 V2000
   55.0804   -6.7531   -4.2820 C   0  0  0  0  0  0  0  0  0  0  0  0
   54.9606   -5.8292   -3.2559 O   0  0  0  0  0  0  0  0  0  0  0  0
   56.3686   -6.4534   -5.0190 C   0  0  0  0  0  0  0  0  0  0  0  0
   55.9063   -5.2975   -5.9163 C   0  0  0  0  0  0  0  0  0  0  0  0
   54.6485   -5.8949   -6.5013 C   0  0  0  0  0  0  0  0  0  0  0  0
   53.9946   -6.5569   -5.3375 C   0  0  0  0  0  0  0  0  0  0  0  0
   52.8931   -5.7761   -4.7043 C   0  0  0  0  0  0  0  0  0  0  0  0
   51.8710   -5.2796   -5.7019 C   0  0  0  0  0  0  0  0  0  0  0  0
   52.5174   -4.5890   -6.8498 C   0  0  0  0  0  0  0  0  0  0  0  0
   51.8141   -3.6430   -7.5587 C   0  0  0  0  0  0  0  0  0  0  0  0
   52.4099   -2.9874   -8.6384 C   0  0  0  0  0  0  0  0  0  0  0  0
   51.6697   -2.0540   -9.3127 O   0  0  0  0  0  0  0  0  0  0  0  0
   53.7060   -3.2888   -8.9949 C   0  0  0  0  0  0  0  0  0  0  0  0
   54.3737   -4.2359   -8.2654 C   0  0  0  0  0  0  0  0  0  0  0  0
   53.8006   -4.9023   -7.1855 C   0  0  0  0  0  0  0  0  0  0  0  0
   55.8601   -5.5545   -2.9500 H   0  0  0  0  0  0  0  0  0  0  0  0
   52.0341   -1.5405  -10.1029 H   0  0  0  0  0  0  0  0  0  0  0  0
   56.2863   -8.3150   -2.8599 C   0  0  0  0  0  0  0  0  0  0  0  0
   55.0480   -8.1460   -3.7129 C   0  0  0  0  0  0  0  0  0  0  0  0
 18 19  1  0  0  0
 19  1  1  0  0  0
  1  2  1  0  0  0
  1  3  1  0  0  0
  3  4  1  0  0  0
  4  5  1  0  0  0
  5  6  1  0  0  0
  6  7  1  0  0  0
  7  8  1  0  0  0
  8  9  1  0  0  0
  9 10  2  0  0  0
 10 11  1  0  0  0
 11 12  1  0  0  0
 11 13  2  0  0  0
 13 14  1  0  0  0
 14 15  2  0  0  0
  6  1  1  0  0  0
 15  9  1  0  0  0
 15  5  1  0  0  0
  2 16  1  0  0  0
 12 17  1  0  0  0
M  END
> <minimizedAffinity>
-8.18568

> <CNNscore>
0.5613560677

> <CNNaffinity>
5.4675664902

> <CNN_VS>
3.0692515373

> <CNNaffinity_variance>
0.1927941740

$$$$
[H]Oc1c([H])c([H])c2c(c1[H])C([H])([H])C([H])([H])[C@@]1([H])[C@]2([H])C([H])([H])C([H])([H])[C@]1(O[H])C([H])([H])C([H])([H])[H]


 19 21  0  0  0  0  0  0  0  0999 V2000
   61.9622   -8.9409   -8.8408 C   0  0  0  0  0  0  0  0  0  0  0  0
   60.6657   -9.3178   -9.1532 O   0  0  0  0  0  0  0  0  0  0  0  0
   62.1876   -7.5583   -9.4155 C   0  0  0  0  0  0  0  0  0  0  0  0
   62.4877   -7.9167  -10.8771 C   0  0  0  0  0  0  0  0  0  0  0  0
   63.5270   -8.9954  -10.6838 C   0  0  0  0  0  0  0  0  0  0  0  0
   62.9854   -9.8144   -9.5631 C   0  0  0  0  0  0  0  0  0  0  0  0
   62.2898  -11.0672   -9.9758 C   0  0  0  0  0  0  0  0  0  0  0  0
   63.1059  -11.9099  -10.9299 C   0  0  0  0  0  0  0  0  0  0  0  0
   63.6217  -11.1032  -12.0682 C   0  0  0  0  0  0  0  0  0  0  0  0
   63.9108  -11.7195  -13.2635 C   0  0  0  0  0  0  0  0  0  0  0  0
   64.3955  -10.9732  -14.3398 C   0  0  0  0  0  0  0  0  0  0  0  0
   64.6686  -11.6314  -15.5085 O   0  0  0  0  0  0  0  0  0  0  0  0
   64.5848   -9.6153  -14.2044 C   0  0  0  0  0  0  0  0  0  0  0  0
   64.2858   -9.0377  -12.9995 C   0  0  0  0  0  0  0  0  0  0  0  0
   63.8016   -9.7612  -11.9128 C   0  0  0  0  0  0  0  0  0  0  0  0
   60.0918   -8.5145   -9.2128 H   0  0  0  0  0  0  0  0  0  0  0  0
   65.0215  -11.1575  -16.3281 H   0  0  0  0  0  0  0  0  0  0  0  0
   62.4531   -7.5779   -6.8869 C   0  0  0  0  0  0  0  0  0  0  0  0
   62.1556   -8.9878   -7.3489 C   0  0  0  0  0  0  0  0  0  0  0  0
 18 19  1  0  0  0
 19  1  1  0  0  0
  1  2  1  0  0  0
  1  3  1  0  0  0
  3  4  1  0  0  0
  4  5  1  0  0  0
  5  6  1  0  0  0
  6  7  1  0  0  0
  7  8  1  0  0  0
  8  9  1  0  0  0
  9 10  2  0  0  0
 10 11  1  0  0  0
 11 12  1  0  0  0
 11 13  2  0  0  0
 13 14  1  0  0  0
 14 15  2  0  0  0
  6  1  1  0  0  0
 15  9  1  0  0  0
 15  5  1  0  0  0
  2 16  1  0  0  0
 12 17  1  0  0  0
M  END
> <minimizedAffinity>
-2.77561

> <CNNscore>
0.5411831737

> <CNNaffinity>
3.5640406609

> <CNN_VS>
1.9287987947

> <CNNaffinity_variance>
0.0483058058

$$$$
[H]Oc1c([H])c([H])c2c(c1[H])C([H])([H])C([H])([H])[C@@]1([H])[C@]2([H])C([H])([H])C([H])([H])[C@]1(O[H])C([H])([H])C([H])([H])[H]


 19 21  0  0  0  0  0  0  0  0999 V2000
   59.5888   -6.0677   -8.7551 C   0  0  0  0  0  0  0  0  0  0  0  0
   59.2341   -6.7188   -7.5842 O   0  0  0  0  0  0  0  0  0  0  0  0
   58.9550   -6.8198   -9.9064 C   0  0  0  0  0  0  0  0  0  0  0  0
   59.9601   -7.9682  -10.0675 C   0  0  0  0  0  0  0  0  0  0  0  0
   61.2555   -7.1923  -10.0989 C   0  0  0  0  0  0  0  0  0  0  0  0
   61.0884   -6.1774   -9.0209 C   0  0  0  0  0  0  0  0  0  0  0  0
   61.7469   -6.5172   -7.7268 C   0  0  0  0  0  0  0  0  0  0  0  0
   63.1963   -6.9168   -7.8878 C   0  0  0  0  0  0  0  0  0  0  0  0
   63.3642   -7.9539   -8.9406 C   0  0  0  0  0  0  0  0  0  0  0  0
   64.4427   -8.8063   -8.8908 C   0  0  0  0  0  0  0  0  0  0  0  0
   64.6115   -9.7844   -9.8732 C   0  0  0  0  0  0  0  0  0  0  0  0
   65.7002  -10.6088   -9.7804 O   0  0  0  0  0  0  0  0  0  0  0  0
   63.6950   -9.8963  -10.8958 C   0  0  0  0  0  0  0  0  0  0  0  0
   62.6348   -9.0300  -10.9116 C   0  0  0  0  0  0  0  0  0  0  0  0
   62.4459   -8.0473   -9.9434 C   0  0  0  0  0  0  0  0  0  0  0  0
   58.3517   -7.1503   -7.6986 H   0  0  0  0  0  0  0  0  0  0  0  0
   65.8870  -11.3384  -10.4541 H   0  0  0  0  0  0  0  0  0  0  0  0
   57.6509   -4.6066   -8.9151 C   0  0  0  0  0  0  0  0  0  0  0  0
   59.1466   -4.6308   -8.6872 C   0  0  0  0  0  0  0  0  0  0  0  0
 18 19  1  0  0  0
 19  1  1  0  0  0
  1  2  1  0  0  0
  1  3  1  0  0  0
  3  4  1  0  0  0
  4  5  1  0  0  0
  5  6  1  0  0  0
  6  7  1  0  0  0
  7  8  1  0  0  0
  8  9  1  0  0  0
  9 10  2  0  0  0
 10 11  1  0  0  0
 11 12  1  0  0  0
 11 13  2  0  0  0
 13 14  1  0  0  0
 14 15  2  0  0  0
  6  1  1  0  0  0
 15  9  1  0  0  0
 15  5  1  0  0  0
  2 16  1  0  0  0
 12 17  1  0  0  0
M  END
> <minimizedAffinity>
1.43312

> <CNNscore>
0.5373253822

> <CNNaffinity>
3.7863662243

> <CNN_VS>
2.0345106125

> <CNNaffinity_variance>
0.4255152345

$$$$
[H]Oc1c([H])c([H])c2c(c1[H])C([H])([H])C([H])([H])[C@@]1([H])[C@]2([H])C([H])([H])C([H])([H])[C@]1(O[H])C([H])([H])C([H])([H])[H]


 19 21  0  0  0  0  0  0  0  0999 V2000
   62.1962   -9.0546   -5.5108 C   0  0  0  0  0  0  0  0  0  0  0  0
   60.8133   -8.9697   -5.5401 O   0  0  0  0  0  0  0  0  0  0  0  0
   62.7346   -7.6618   -5.2602 C   0  0  0  0  0  0  0  0  0  0  0  0
   62.6540   -7.0797   -6.6778 C   0  0  0  0  0  0  0  0  0  0  0  0
   63.3271   -8.1812   -7.4618 C   0  0  0  0  0  0  0  0  0  0  0  0
   62.7602   -9.4299   -6.8792 C   0  0  0  0  0  0  0  0  0  0  0  0
   61.6522  -10.0463   -7.6643 C   0  0  0  0  0  0  0  0  0  0  0  0
   61.9922  -10.2253   -9.1267 C   0  0  0  0  0  0  0  0  0  0  0  0
   62.5280   -8.9716   -9.7213 C   0  0  0  0  0  0  0  0  0  0  0  0
   62.4033   -8.7519  -11.0735 C   0  0  0  0  0  0  0  0  0  0  0  0
   62.9021   -7.5787  -11.6438 C   0  0  0  0  0  0  0  0  0  0  0  0
   62.7540   -7.4056  -12.9935 O   0  0  0  0  0  0  0  0  0  0  0  0
   63.5211   -6.6382  -10.8499 C   0  0  0  0  0  0  0  0  0  0  0  0
   63.6263   -6.8924   -9.5086 C   0  0  0  0  0  0  0  0  0  0  0  0
   63.1368   -8.0543   -8.9179 C   0  0  0  0  0  0  0  0  0  0  0  0
   60.5137   -8.2298   -4.9562 H   0  0  0  0  0  0  0  0  0  0  0  0
   63.0895   -6.5830  -13.4748 H   0  0  0  0  0  0  0  0  0  0  0  0
   62.5459   -9.3290   -3.1194 C   0  0  0  0  0  0  0  0  0  0  0  0
   62.6188  -10.0390   -4.4537 C   0  0  0  0  0  0  0  0  0  0  0  0
 18 19  1  0  0  0
 19  1  1  0  0  0
  1  2  1  0  0  0
  1  3  1  0  0  0
  3  4  1  0  0  0
  4  5  1  0  0  0
  5  6  1  0  0  0
  6  7  1  0  0  0
  7  8  1  0  0  0
  8  9  1  0  0  0
  9 10  2  0  0  0
 10 11  1  0  0  0
 11 12  1  0  0  0
 11 13  2  0  0  0
 13 14  1  0  0  0
 14 15  2  0  0  0
  6  1  1  0  0  0
 15  9  1  0  0  0
 15  5  1  0  0  0
  2 16  1  0  0  0
 12 17  1  0  0  0
M  END
> <minimizedAffinity>
-2.85937

> <CNNscore>
0.5169024467

> <CNNaffinity>
3.7170169353

> <CNN_VS>
1.9213351011

> <CNNaffinity_variance>
0.0246990062

$$$$
[H]O[C@]1([H])[C@@]([H])(C([H])([H])OP(=O)(O[H])OP(=O)(O[H])OP(=O)(O[H])OP(=O)(O[H])OP(=O)(O[H])O[H])O[C@@]([H])(n2c([H])c([H])c(=O)n([H])c2=O)[C@]1([H])O[H]


 46 47  0  0  0  0  0  0  0  0999 V2000
   59.1890   -5.9849   -9.5899 P   0  0  0  0  0  0  0  0  0  0  0  0
   59.3957   -7.6091  -10.0281 O   0  0  0  0  0  0  0  0  0  0  0  0
   59.3619   -5.1572  -10.8415 O   0  0  0  0  0  0  0  0  0  0  0  0
   58.8335   -8.1976   -9.4436 H   0  0  0  0  0  0  0  0  0  0  0  0
   57.6561   -5.7761   -8.9752 O   0  0  0  0  0  0  0  0  0  0  0  0
   56.9610   -4.7336   -9.5845 C   0  0  0  0  0  0  0  0  0  0  0  0
   56.7098   -3.1701   -6.4422 O   0  0  0  0  0  0  0  0  0  0  0  0
   56.5091   -4.3392   -7.1670 C   0  0  0  0  0  0  0  0  0  0  0  0
   55.2493   -5.0026   -6.6253 C   0  0  0  0  0  0  0  0  0  0  0  0
   55.0994   -4.7891   -5.2637 O   0  0  0  0  0  0  0  0  0  0  0  0
   54.1968   -4.2734   -7.4442 C   0  0  0  0  0  0  0  0  0  0  0  0
   54.7712   -4.3083   -8.7157 O   0  0  0  0  0  0  0  0  0  0  0  0
   56.0975   -4.0004   -8.5671 C   0  0  0  0  0  0  0  0  0  0  0  0
   56.4655   -2.3583   -6.9870 H   0  0  0  0  0  0  0  0  0  0  0  0
   55.3615   -5.6221   -4.7867 H   0  0  0  0  0  0  0  0  0  0  0  0
   52.9257   -4.9401   -7.4015 N   0  0  0  0  0  0  0  0  0  0  0  0
   52.7759   -6.2696   -7.3668 C   0  0  0  0  0  0  0  0  0  0  0  0
   51.5255   -6.8795   -7.3259 C   0  0  0  0  0  0  0  0  0  0  0  0
   50.4300   -6.0353   -7.3225 C   0  0  0  0  0  0  0  0  0  0  0  0
   49.2631   -6.5083   -7.2866 O   0  0  0  0  0  0  0  0  0  0  0  0
   50.5865   -4.6995   -7.3574 N   0  0  0  0  0  0  0  0  0  0  0  0
   51.8179   -4.1686   -7.3961 C   0  0  0  0  0  0  0  0  0  0  0  0
   51.9058   -2.8946   -7.4281 O   0  0  0  0  0  0  0  0  0  0  0  0
   49.7355   -4.0661   -7.3543 H   0  0  0  0  0  0  0  0  0  0  0  0
   60.4041   -5.5746   -8.5130 O   0  0  0  0  0  0  0  0  0  0  0  0
   61.6696   -6.6825   -8.6868 P   0  0  0  0  0  0  0  0  0  0  0  0
   61.1009   -8.1819   -8.1168 O   0  0  0  0  0  0  0  0  0  0  0  0
   62.0005   -6.8503  -10.1513 O   0  0  0  0  0  0  0  0  0  0  0  0
   60.5807   -8.6011   -8.8575 H   0  0  0  0  0  0  0  0  0  0  0  0
   62.9989   -6.1570   -7.8052 O   0  0  0  0  0  0  0  0  0  0  0  0
   63.8682   -7.4315   -7.1201 P   0  0  0  0  0  0  0  0  0  0  0  0
   65.2916   -6.8897   -6.3913 O   0  0  0  0  0  0  0  0  0  0  0  0
   64.2756   -8.3510   -8.2607 O   0  0  0  0  0  0  0  0  0  0  0  0
   65.2489   -5.9130   -6.3514 H   0  0  0  0  0  0  0  0  0  0  0  0
   62.9311   -8.3351   -6.0530 O   0  0  0  0  0  0  0  0  0  0  0  0
   63.1764   -7.7172   -4.4914 P   0  0  0  0  0  0  0  0  0  0  0  0
   64.7428   -8.1215   -4.0315 O   0  0  0  0  0  0  0  0  0  0  0  0
   63.0743   -6.1954   -4.4958 O   0  0  0  0  0  0  0  0  0  0  0  0
   64.9269   -9.0798   -4.0704 H   0  0  0  0  0  0  0  0  0  0  0  0
   62.0946   -8.4032   -3.3969 O   0  0  0  0  0  0  0  0  0  0  0  0
   60.5235   -7.8991   -3.6816 P   0  0  0  0  0  0  0  0  0  0  0  0
   60.2935   -7.5825   -5.3438 O   0  0  0  0  0  0  0  0  0  0  0  0
   59.4651   -9.1360   -3.1742 O   0  0  0  0  0  0  0  0  0  0  0  0
   60.1916   -6.6193   -2.9460 O   0  0  0  0  0  0  0  0  0  0  0  0
   60.4198   -8.4060   -5.8871 H   0  0  0  0  0  0  0  0  0  0  0  0
   59.9544   -9.8621   -2.7117 H   0  0  0  0  0  0  0  0  0  0  0  0
  7  8  1  0  0  0
  8  9  1  0  0  0
  9 10  1  0  0  0
  9 11  1  0  0  0
 11 12  1  0  0  0
 12 13  1  0  0  0
 13  6  1  0  0  0
  6  5  1  0  0  0
  5  1  1  0  0  0
  1  2  1  0  0  0
  1  3  2  0  0  0
  1 25  1  0  0  0
 25 26  1  0  0  0
 26 27  1  0  0  0
 26 28  2  0  0  0
 26 30  1  0  0  0
 30 31  1  0  0  0
 31 32  1  0  0  0
 31 33  2  0  0  0
 31 35  1  0  0  0
 35 36  1  0  0  0
 36 37  1  0  0  0
 36 38  2  0  0  0
 36 40  1  0  0  0
 40 41  1  0  0  0
 41 42  1  0  0  0
 41 43  1  0  0  0
 41 44  2  0  0  0
 11 16  1  0  0  0
 16 17  1  0  0  0
 17 18  2  0  0  0
 18 19  1  0  0  0
 19 20  2  0  0  0
 19 21  1  0  0  0
 21 22  1  0  0  0
 22 23  2  0  0  0
 13  8  1  0  0  0
 22 16  1  0  0  0
  7 14  1  0  0  0
 10 15  1  0  0  0
  2  4  1  0  0  0
 27 29  1  0  0  0
 32 34  1  0  0  0
 37 39  1  0  0  0
 42 45  1  0  0  0
 43 46  1  0  0  0
 21 24  1  0  0  0
M  END
> <minimizedAffinity>
-6.19043

> <CNNscore>
0.4624656439

> <CNNaffinity>
5.2021150589

> <CNN_VS>
2.4057993889

> <CNNaffinity_variance>
0.3805672228

$$$$
[H]O[C@]1([H])[C@@]([H])(C([H])([H])OP(=O)(O[H])OP(=O)(O[H])OP(=O)(O[H])OP(=O)(O[H])OP(=O)(O[H])O[H])O[C@@]([H])(n2c([H])c([H])c(=O)n([H])c2=O)[C@]1([H])O[H]


 46 47  0  0  0  0  0  0  0  0999 V2000
   55.8459   -6.1390   -4.5465 P   0  0  0  0  0  0  0  0  0  0  0  0
   54.4094   -5.5437   -3.8720 O   0  0  0  0  0  0  0  0  0  0  0  0
   55.5410   -7.5031   -5.1189 O   0  0  0  0  0  0  0  0  0  0  0  0
   54.3847   -4.5444   -3.9415 H   0  0  0  0  0  0  0  0  0  0  0  0
   56.3475   -5.1118   -5.7567 O   0  0  0  0  0  0  0  0  0  0  0  0
   56.6273   -5.7715   -6.9516 C   0  0  0  0  0  0  0  0  0  0  0  0
   56.3474   -3.7198   -9.7966 O   0  0  0  0  0  0  0  0  0  0  0  0
   56.1418   -3.8233   -8.4257 C   0  0  0  0  0  0  0  0  0  0  0  0
   54.8638   -3.0624   -8.0961 C   0  0  0  0  0  0  0  0  0  0  0  0
   54.6948   -1.9588   -8.9182 O   0  0  0  0  0  0  0  0  0  0  0  0
   53.8355   -4.1482   -8.3673 C   0  0  0  0  0  0  0  0  0  0  0  0
   54.4300   -5.2458   -7.7430 O   0  0  0  0  0  0  0  0  0  0  0  0
   55.7580   -5.2291   -8.0778 C   0  0  0  0  0  0  0  0  0  0  0  0
   56.1238   -4.5841  -10.2639 H   0  0  0  0  0  0  0  0  0  0  0  0
   54.9370   -1.1443   -8.4006 H   0  0  0  0  0  0  0  0  0  0  0  0
   52.5544   -3.8279   -7.8033 N   0  0  0  0  0  0  0  0  0  0  0  0
   52.0859   -4.3457   -6.6615 C   0  0  0  0  0  0  0  0  0  0  0  0
   50.8373   -4.0102   -6.1462 C   0  0  0  0  0  0  0  0  0  0  0  0
   50.0932   -3.1039   -6.8797 C   0  0  0  0  0  0  0  0  0  0  0  0
   48.9524   -2.7480   -6.4815 O   0  0  0  0  0  0  0  0  0  0  0  0
   50.5692   -2.5864   -8.0268 N   0  0  0  0  0  0  0  0  0  0  0  0
   51.7811   -2.9479   -8.4743 C   0  0  0  0  0  0  0  0  0  0  0  0
   52.1814   -2.4246   -9.5688 O   0  0  0  0  0  0  0  0  0  0  0  0
   49.9856   -1.8924   -8.5773 H   0  0  0  0  0  0  0  0  0  0  0  0
   56.9663   -6.3210   -3.3152 O   0  0  0  0  0  0  0  0  0  0  0  0
   56.7941   -5.0276   -2.2397 P   0  0  0  0  0  0  0  0  0  0  0  0
   56.3142   -3.6770   -3.1574 O   0  0  0  0  0  0  0  0  0  0  0  0
   55.6845   -5.3266   -1.2589 O   0  0  0  0  0  0  0  0  0  0  0  0
   55.3282   -3.7469   -3.2918 H   0  0  0  0  0  0  0  0  0  0  0  0
   58.2552   -4.7496   -1.4599 O   0  0  0  0  0  0  0  0  0  0  0  0
   59.0629   -6.1786   -1.0664 P   0  0  0  0  0  0  0  0  0  0  0  0
   57.9855   -7.3894   -0.5931 O   0  0  0  0  0  0  0  0  0  0  0  0
   59.9420   -5.8718    0.1359 O   0  0  0  0  0  0  0  0  0  0  0  0
   57.0825   -7.0818   -0.8107 H   0  0  0  0  0  0  0  0  0  0  0  0
   60.0714   -6.6984   -2.3099 O   0  0  0  0  0  0  0  0  0  0  0  0
   60.2086   -8.3864   -2.1993 P   0  0  0  0  0  0  0  0  0  0  0  0
   60.4830   -8.7634   -0.5834 O   0  0  0  0  0  0  0  0  0  0  0  0
   58.9038   -9.0578   -2.6152 O   0  0  0  0  0  0  0  0  0  0  0  0
   61.2635   -8.3150   -0.2043 H   0  0  0  0  0  0  0  0  0  0  0  0
   61.5074   -8.9451   -3.1157 O   0  0  0  0  0  0  0  0  0  0  0  0
   61.6572   -8.1020   -4.5545 P   0  0  0  0  0  0  0  0  0  0  0  0
   60.1158   -7.7451   -5.1969 O   0  0  0  0  0  0  0  0  0  0  0  0
   62.5045   -6.6558   -4.2407 O   0  0  0  0  0  0  0  0  0  0  0  0
   62.3935   -8.8980   -5.6097 O   0  0  0  0  0  0  0  0  0  0  0  0
   59.5998   -7.1542   -4.5853 H   0  0  0  0  0  0  0  0  0  0  0  0
   62.8435   -6.6311   -3.3107 H   0  0  0  0  0  0  0  0  0  0  0  0
  7  8  1  0  0  0
  8  9  1  0  0  0
  9 10  1  0  0  0
  9 11  1  0  0  0
 11 12  1  0  0  0
 12 13  1  0  0  0
 13  6  1  0  0  0
  6  5  1  0  0  0
  5  1  1  0  0  0
  1  2  1  0  0  0
  1  3  2  0  0  0
  1 25  1  0  0  0
 25 26  1  0  0  0
 26 27  1  0  0  0
 26 28  2  0  0  0
 26 30  1  0  0  0
 30 31  1  0  0  0
 31 32  1  0  0  0
 31 33  2  0  0  0
 31 35  1  0  0  0
 35 36  1  0  0  0
 36 37  1  0  0  0
 36 38  2  0  0  0
 36 40  1  0  0  0
 40 41  1  0  0  0
 41 42  1  0  0  0
 41 43  1  0  0  0
 41 44  2  0  0  0
 11 16  1  0  0  0
 16 17  1  0  0  0
 17 18  2  0  0  0
 18 19  1  0  0  0
 19 20  2  0  0  0
 19 21  1  0  0  0
 21 22  1  0  0  0
 22 23  2  0  0  0
 13  8  1  0  0  0
 22 16  1  0  0  0
  7 14  1  0  0  0
 10 15  1  0  0  0
  2  4  1  0  0  0
 27 29  1  0  0  0
 32 34  1  0  0  0
 37 39  1  0  0  0
 42 45  1  0  0  0
 43 46  1  0  0  0
 21 24  1  0  0  0
M  END
> <minimizedAffinity>
-8.08604

> <CNNscore>
0.3928015232

> <CNNaffinity>
5.1820578575

> <CNN_VS>
2.0355203152

> <CNNaffinity_variance>
0.1370313019

$$$$
[H]O[C@]1([H])[C@@]([H])(C([H])([H])OP(=O)(O[H])OP(=O)(O[H])OP(=O)(O[H])OP(=O)(O[H])OP(=O)(O[H])O[H])O[C@@]([H])(n2c([H])c([H])c(=O)n([H])c2=O)[C@]1([H])O[H]


 46 47  0  0  0  0  0  0  0  0999 V2000
   56.9897   -6.4820   -0.0163 P   0  0  0  0  0  0  0  0  0  0  0  0
   57.0637   -5.7058   -1.5213 O   0  0  0  0  0  0  0  0  0  0  0  0
   57.9439   -5.7620    0.9071 O   0  0  0  0  0  0  0  0  0  0  0  0
   56.1765   -5.7653   -1.9832 H   0  0  0  0  0  0  0  0  0  0  0  0
   55.4370   -6.3795    0.5752 O   0  0  0  0  0  0  0  0  0  0  0  0
   54.7569   -5.2480    0.1298 C   0  0  0  0  0  0  0  0  0  0  0  0
   52.0115   -7.3839    0.6615 O   0  0  0  0  0  0  0  0  0  0  0  0
   53.0748   -7.0599   -0.1732 C   0  0  0  0  0  0  0  0  0  0  0  0
   52.6154   -7.2859   -1.6080 C   0  0  0  0  0  0  0  0  0  0  0  0
   51.7290   -8.3477   -1.7039 O   0  0  0  0  0  0  0  0  0  0  0  0
   51.9474   -5.9486   -1.8825 C   0  0  0  0  0  0  0  0  0  0  0  0
   52.8883   -5.0629   -1.3551 O   0  0  0  0  0  0  0  0  0  0  0  0
   53.2980   -5.5785   -0.1542 C   0  0  0  0  0  0  0  0  0  0  0  0
   51.5781   -6.5550    1.0363 H   0  0  0  0  0  0  0  0  0  0  0  0
   52.2195   -9.1309   -2.0727 H   0  0  0  0  0  0  0  0  0  0  0  0
   51.7254   -5.7368   -3.2853 N   0  0  0  0  0  0  0  0  0  0  0  0
   52.6709   -5.8683   -4.2235 C   0  0  0  0  0  0  0  0  0  0  0  0
   52.4169   -5.6541   -5.5750 C   0  0  0  0  0  0  0  0  0  0  0  0
   51.1235   -5.2942   -5.9076 C   0  0  0  0  0  0  0  0  0  0  0  0
   50.8116   -5.0824   -7.1094 O   0  0  0  0  0  0  0  0  0  0  0  0
   50.1770   -5.1636   -4.9604 N   0  0  0  0  0  0  0  0  0  0  0  0
   50.4813   -5.3831   -3.6724 C   0  0  0  0  0  0  0  0  0  0  0  0
   49.5430   -5.2443   -2.8168 O   0  0  0  0  0  0  0  0  0  0  0  0
   49.1897   -4.8868   -5.2325 H   0  0  0  0  0  0  0  0  0  0  0  0
   57.5296   -8.0552   -0.2116 O   0  0  0  0  0  0  0  0  0  0  0  0
   57.8171   -8.3219   -1.8565 P   0  0  0  0  0  0  0  0  0  0  0  0
   58.2171   -9.9668   -2.0322 O   0  0  0  0  0  0  0  0  0  0  0  0
   56.5487   -8.0777   -2.6401 O   0  0  0  0  0  0  0  0  0  0  0  0
   57.3606  -10.4774   -2.0595 H   0  0  0  0  0  0  0  0  0  0  0  0
   59.0687   -7.3291   -2.3742 O   0  0  0  0  0  0  0  0  0  0  0  0
   60.5030   -7.5973   -1.5256 P   0  0  0  0  0  0  0  0  0  0  0  0
   60.4381   -9.0309   -0.6360 O   0  0  0  0  0  0  0  0  0  0  0  0
   60.6433   -6.4603   -0.5256 O   0  0  0  0  0  0  0  0  0  0  0  0
   59.6435   -9.5224   -0.9268 H   0  0  0  0  0  0  0  0  0  0  0  0
   61.8514   -7.5537   -2.5323 O   0  0  0  0  0  0  0  0  0  0  0  0
   62.1168   -9.1247   -3.1172 P   0  0  0  0  0  0  0  0  0  0  0  0
   62.8477  -10.0034   -1.8834 O   0  0  0  0  0  0  0  0  0  0  0  0
   60.7917   -9.8043   -3.4461 O   0  0  0  0  0  0  0  0  0  0  0  0
   63.6733   -9.6003   -1.5522 H   0  0  0  0  0  0  0  0  0  0  0  0
   63.1452   -9.1033   -4.4517 O   0  0  0  0  0  0  0  0  0  0  0  0
   62.9631   -7.7024   -5.3504 P   0  0  0  0  0  0  0  0  0  0  0  0
   63.4018   -6.3390   -4.4204 O   0  0  0  0  0  0  0  0  0  0  0  0
   63.9663   -7.8149   -6.7247 O   0  0  0  0  0  0  0  0  0  0  0  0
   61.5312   -7.4863   -5.7887 O   0  0  0  0  0  0  0  0  0  0  0  0
   64.3612   -6.3752   -4.1604 H   0  0  0  0  0  0  0  0  0  0  0  0
   64.3781   -8.7125   -6.7980 H   0  0  0  0  0  0  0  0  0  0  0  0
  7  8  1  0  0  0
  8  9  1  0  0  0
  9 10  1  0  0  0
  9 11  1  0  0  0
 11 12  1  0  0  0
 12 13  1  0  0  0
 13  6  1  0  0  0
  6  5  1  0  0  0
  5  1  1  0  0  0
  1  2  1  0  0  0
  1  3  2  0  0  0
  1 25  1  0  0  0
 25 26  1  0  0  0
 26 27  1  0  0  0
 26 28  2  0  0  0
 26 30  1  0  0  0
 30 31  1  0  0  0
 31 32  1  0  0  0
 31 33  2  0  0  0
 31 35  1  0  0  0
 35 36  1  0  0  0
 36 37  1  0  0  0
 36 38  2  0  0  0
 36 40  1  0  0  0
 40 41  1  0  0  0
 41 42  1  0  0  0
 41 43  1  0  0  0
 41 44  2  0  0  0
 11 16  1  0  0  0
 16 17  1  0  0  0
 17 18  2  0  0  0
 18 19  1  0  0  0
 19 20  2  0  0  0
 19 21  1  0  0  0
 21 22  1  0  0  0
 22 23  2  0  0  0
 13  8  1  0  0  0
 22 16  1  0  0  0
  7 14  1  0  0  0
 10 15  1  0  0  0
  2  4  1  0  0  0
 27 29  1  0  0  0
 32 34  1  0  0  0
 37 39  1  0  0  0
 42 45  1  0  0  0
 43 46  1  0  0  0
 21 24  1  0  0  0
M  END
> <minimizedAffinity>
-6.02884

> <CNNscore>
0.3913161755

> <CNNaffinity>
5.1992464066

> <CNN_VS>
2.0345492363

> <CNNaffinity_variance>
0.5956779122

$$$$
[H]O[C@]1([H])[C@@]([H])(C([H])([H])OP(=O)(O[H])OP(=O)(O[H])OP(=O)(O[H])OP(=O)(O[H])OP(=O)(O[H])O[H])O[C@@]([H])(n2c([H])c([H])c(=O)n([H])c2=O)[C@]1([H])O[H]


 46 47  0  0  0  0  0  0  0  0999 V2000
   55.1745   -6.4089   -2.4270 P   0  0  0  0  0  0  0  0  0  0  0  0
   54.6205   -4.8324   -2.1429 O   0  0  0  0  0  0  0  0  0  0  0  0
   54.8600   -7.2236   -1.1946 O   0  0  0  0  0  0  0  0  0  0  0  0
   54.3324   -4.4084   -3.0039 H   0  0  0  0  0  0  0  0  0  0  0  0
   54.3772   -7.0384   -3.7457 O   0  0  0  0  0  0  0  0  0  0  0  0
   55.2304   -7.6658   -4.6511 C   0  0  0  0  0  0  0  0  0  0  0  0
   56.8802   -5.9438   -7.2384 O   0  0  0  0  0  0  0  0  0  0  0  0
   56.0973   -5.8309   -6.0953 C   0  0  0  0  0  0  0  0  0  0  0  0
   55.1394   -4.6660   -6.3101 C   0  0  0  0  0  0  0  0  0  0  0  0
   55.7144   -3.6598   -7.0710 O   0  0  0  0  0  0  0  0  0  0  0  0
   54.0196   -5.3810   -7.0483 C   0  0  0  0  0  0  0  0  0  0  0  0
   53.8881   -6.5406   -6.2829 O   0  0  0  0  0  0  0  0  0  0  0  0
   55.1531   -6.9913   -6.0139 C   0  0  0  0  0  0  0  0  0  0  0  0
   56.5957   -6.7323   -7.7974 H   0  0  0  0  0  0  0  0  0  0  0  0
   55.9767   -2.9188   -6.4609 H   0  0  0  0  0  0  0  0  0  0  0  0
   52.8118   -4.6047   -7.0743 N   0  0  0  0  0  0  0  0  0  0  0  0
   51.8398   -4.6974   -6.1589 C   0  0  0  0  0  0  0  0  0  0  0  0
   50.6821   -3.9270   -6.2181 C   0  0  0  0  0  0  0  0  0  0  0  0
   50.5822   -3.0490   -7.2822 C   0  0  0  0  0  0  0  0  0  0  0  0
   49.5657   -2.3159   -7.4081 O   0  0  0  0  0  0  0  0  0  0  0  0
   51.5624   -2.9600   -8.1994 N   0  0  0  0  0  0  0  0  0  0  0  0
   52.6562   -3.7289   -8.0899 C   0  0  0  0  0  0  0  0  0  0  0  0
   53.5541   -3.6018   -8.9896 O   0  0  0  0  0  0  0  0  0  0  0  0
   51.4700   -2.2813   -9.0095 H   0  0  0  0  0  0  0  0  0  0  0  0
   56.8379   -6.3536   -2.6135 O   0  0  0  0  0  0  0  0  0  0  0  0
   57.4341   -5.0519   -1.7138 P   0  0  0  0  0  0  0  0  0  0  0  0
   57.0008   -3.6315   -2.5452 O   0  0  0  0  0  0  0  0  0  0  0  0
   56.7545   -5.0128   -0.3651 O   0  0  0  0  0  0  0  0  0  0  0  0
   56.0578   -3.4207   -2.2976 H   0  0  0  0  0  0  0  0  0  0  0  0
   59.1012   -5.1902   -1.5664 O   0  0  0  0  0  0  0  0  0  0  0  0
   59.5585   -6.3955   -0.4767 P   0  0  0  0  0  0  0  0  0  0  0  0
   58.3298   -7.5328   -0.2589 O   0  0  0  0  0  0  0  0  0  0  0  0
   59.7777   -5.7162    0.8661 O   0  0  0  0  0  0  0  0  0  0  0  0
   57.6527   -7.3704   -0.9463 H   0  0  0  0  0  0  0  0  0  0  0  0
   61.0095   -7.1275   -0.9151 O   0  0  0  0  0  0  0  0  0  0  0  0
   60.7712   -7.9084   -2.4031 P   0  0  0  0  0  0  0  0  0  0  0  0
   61.5664   -9.3883   -2.3269 O   0  0  0  0  0  0  0  0  0  0  0  0
   59.2893   -8.1911   -2.6278 O   0  0  0  0  0  0  0  0  0  0  0  0
   62.5158   -9.3116   -2.1108 H   0  0  0  0  0  0  0  0  0  0  0  0
   61.4238   -7.0052   -3.6669 O   0  0  0  0  0  0  0  0  0  0  0  0
   63.0861   -7.1827   -3.7600 P   0  0  0  0  0  0  0  0  0  0  0  0
   63.7790   -5.8604   -4.5890 O   0  0  0  0  0  0  0  0  0  0  0  0
   63.7047   -7.2616   -2.1729 O   0  0  0  0  0  0  0  0  0  0  0  0
   63.4865   -8.4289   -4.5189 O   0  0  0  0  0  0  0  0  0  0  0  0
   63.6212   -5.0080   -4.1012 H   0  0  0  0  0  0  0  0  0  0  0  0
   62.9762   -7.3005   -1.5034 H   0  0  0  0  0  0  0  0  0  0  0  0
  7  8  1  0  0  0
  8  9  1  0  0  0
  9 10  1  0  0  0
  9 11  1  0  0  0
 11 12  1  0  0  0
 12 13  1  0  0  0
 13  6  1  0  0  0
  6  5  1  0  0  0
  5  1  1  0  0  0
  1  2  1  0  0  0
  1  3  2  0  0  0
  1 25  1  0  0  0
 25 26  1  0  0  0
 26 27  1  0  0  0
 26 28  2  0  0  0
 26 30  1  0  0  0
 30 31  1  0  0  0
 31 32  1  0  0  0
 31 33  2  0  0  0
 31 35  1  0  0  0
 35 36  1  0  0  0
 36 37  1  0  0  0
 36 38  2  0  0  0
 36 40  1  0  0  0
 40 41  1  0  0  0
 41 42  1  0  0  0
 41 43  1  0  0  0
 41 44  2  0  0  0
 11 16  1  0  0  0
 16 17  1  0  0  0
 17 18  2  0  0  0
 18 19  1  0  0  0
 19 20  2  0  0  0
 19 21  1  0  0  0
 21 22  1  0  0  0
 22 23  2  0  0  0
 13  8  1  0  0  0
 22 16  1  0  0  0
  7 14  1  0  0  0
 10 15  1  0  0  0
  2  4  1  0  0  0
 27 29  1  0  0  0
 32 34  1  0  0  0
 37 39  1  0  0  0
 42 45  1  0  0  0
 43 46  1  0  0  0
 21 24  1  0  0  0
M  END
> <minimizedAffinity>
-7.57328

> <CNNscore>
0.3904229999

> <CNNaffinity>
5.1409230232

> <CNN_VS>
2.0071346760

> <CNNaffinity_variance>
0.4368347228

$$$$
[H]O[C@]1([H])[C@@]([H])(C([H])([H])OP(=O)(O[H])OP(=O)(O[H])OP(=O)(O[H])OP(=O)(O[H])OP(=O)(O[H])O[H])O[C@@]([H])(n2c([H])c([H])c(=O)n([H])c2=O)[C@]1([H])O[H]


 46 47  0  0  0  0  0  0  0  0999 V2000
   57.0548   -5.9280   -0.7341 P   0  0  0  0  0  0  0  0  0  0  0  0
   56.9654   -4.4033   -1.4690 O   0  0  0  0  0  0  0  0  0  0  0  0
   58.1926   -5.8815    0.2583 O   0  0  0  0  0  0  0  0  0  0  0  0
   56.0170   -4.1960   -1.7174 H   0  0  0  0  0  0  0  0  0  0  0  0
   55.6222   -6.2387    0.0548 O   0  0  0  0  0  0  0  0  0  0  0  0
   54.8010   -5.1178    0.1569 C   0  0  0  0  0  0  0  0  0  0  0  0
   52.1216   -7.3288    0.7171 O   0  0  0  0  0  0  0  0  0  0  0  0
   53.1696   -6.9786   -0.1263 C   0  0  0  0  0  0  0  0  0  0  0  0
   52.7074   -7.2246   -1.5569 C   0  0  0  0  0  0  0  0  0  0  0  0
   51.8512   -8.3117   -1.6419 O   0  0  0  0  0  0  0  0  0  0  0  0
   51.9995   -5.9082   -1.8331 C   0  0  0  0  0  0  0  0  0  0  0  0
   52.9181   -4.9934   -1.3161 O   0  0  0  0  0  0  0  0  0  0  0  0
   53.3504   -5.4913   -0.1157 C   0  0  0  0  0  0  0  0  0  0  0  0
   51.6671   -6.5109    1.0909 H   0  0  0  0  0  0  0  0  0  0  0  0
   52.3614   -9.0824   -2.0103 H   0  0  0  0  0  0  0  0  0  0  0  0
   51.7623   -5.7097   -3.2353 N   0  0  0  0  0  0  0  0  0  0  0  0
   52.7058   -5.8145   -4.1788 C   0  0  0  0  0  0  0  0  0  0  0  0
   52.4367   -5.6144   -5.5296 C   0  0  0  0  0  0  0  0  0  0  0  0
   51.1304   -5.2979   -5.8556 C   0  0  0  0  0  0  0  0  0  0  0  0
   50.8046   -5.1014   -7.0563 O   0  0  0  0  0  0  0  0  0  0  0  0
   50.1859   -5.1940   -4.9030 N   0  0  0  0  0  0  0  0  0  0  0  0
   50.5051   -5.3981   -3.6161 C   0  0  0  0  0  0  0  0  0  0  0  0
   49.5679   -5.2860   -2.7553 O   0  0  0  0  0  0  0  0  0  0  0  0
   49.1886   -4.9504   -5.1701 H   0  0  0  0  0  0  0  0  0  0  0  0
   57.4283   -7.0566   -1.9137 O   0  0  0  0  0  0  0  0  0  0  0  0
   59.0388   -6.8326   -2.3777 P   0  0  0  0  0  0  0  0  0  0  0  0
   59.1566   -7.2995   -4.0101 O   0  0  0  0  0  0  0  0  0  0  0  0
   59.3907   -5.3654   -2.2994 O   0  0  0  0  0  0  0  0  0  0  0  0
   58.8499   -6.5265   -4.5610 H   0  0  0  0  0  0  0  0  0  0  0  0
   60.0377   -7.7646   -1.4011 O   0  0  0  0  0  0  0  0  0  0  0  0
   59.4857   -9.3511   -1.2349 P   0  0  0  0  0  0  0  0  0  0  0  0
   58.2533   -9.6972   -2.3359 O   0  0  0  0  0  0  0  0  0  0  0  0
   58.8829   -9.4651    0.1566 O   0  0  0  0  0  0  0  0  0  0  0  0
   58.2196   -8.9623   -2.9810 H   0  0  0  0  0  0  0  0  0  0  0  0
   60.7386  -10.4708   -1.3357 O   0  0  0  0  0  0  0  0  0  0  0  0
   60.8671  -10.9656   -2.9541 P   0  0  0  0  0  0  0  0  0  0  0  0
   59.6908  -12.1389   -3.2156 O   0  0  0  0  0  0  0  0  0  0  0  0
   60.5752   -9.8010   -3.8946 O   0  0  0  0  0  0  0  0  0  0  0  0
   59.7519  -12.8973   -2.6033 H   0  0  0  0  0  0  0  0  0  0  0  0
   62.3819  -11.6376   -3.2585 O   0  0  0  0  0  0  0  0  0  0  0  0
   63.5839  -10.8803   -2.3724 P   0  0  0  0  0  0  0  0  0  0  0  0
   63.3358  -11.1289   -0.7013 O   0  0  0  0  0  0  0  0  0  0  0  0
   65.0866  -11.5366   -2.8402 O   0  0  0  0  0  0  0  0  0  0  0  0
   63.5983   -9.3832   -2.5910 O   0  0  0  0  0  0  0  0  0  0  0  0
   63.3916  -12.0947   -0.4697 H   0  0  0  0  0  0  0  0  0  0  0  0
   64.9879  -12.1501   -3.6111 H   0  0  0  0  0  0  0  0  0  0  0  0
  7  8  1  0  0  0
  8  9  1  0  0  0
  9 10  1  0  0  0
  9 11  1  0  0  0
 11 12  1  0  0  0
 12 13  1  0  0  0
 13  6  1  0  0  0
  6  5  1  0  0  0
  5  1  1  0  0  0
  1  2  1  0  0  0
  1  3  2  0  0  0
  1 25  1  0  0  0
 25 26  1  0  0  0
 26 27  1  0  0  0
 26 28  2  0  0  0
 26 30  1  0  0  0
 30 31  1  0  0  0
 31 32  1  0  0  0
 31 33  2  0  0  0
 31 35  1  0  0  0
 35 36  1  0  0  0
 36 37  1  0  0  0
 36 38  2  0  0  0
 36 40  1  0  0  0
 40 41  1  0  0  0
 41 42  1  0  0  0
 41 43  1  0  0  0
 41 44  2  0  0  0
 11 16  1  0  0  0
 16 17  1  0  0  0
 17 18  2  0  0  0
 18 19  1  0  0  0
 19 20  2  0  0  0
 19 21  1  0  0  0
 21 22  1  0  0  0
 22 23  2  0  0  0
 13  8  1  0  0  0
 22 16  1  0  0  0
  7 14  1  0  0  0
 10 15  1  0  0  0
  2  4  1  0  0  0
 27 29  1  0  0  0
 32 34  1  0  0  0
 37 39  1  0  0  0
 42 45  1  0  0  0
 43 46  1  0  0  0
 21 24  1  0  0  0
M  END
> <minimizedAffinity>
-5.92395

> <CNNscore>
0.3837968111

> <CNNaffinity>
5.1228842735

> <CNN_VS>
1.9661465883

> <CNNaffinity_variance>
0.4790274501

$$$$
[H]O[C@]1([H])[C@@]([H])(C([H])([H])OP(=O)(O[H])OP(=O)(O[H])OP(=O)(O[H])OP(=O)(O[H])OP(=O)(O[H])O[H])O[C@@]([H])(n2c([H])c([H])c(=O)n([H])c2=O)[C@]1([H])O[H]


 46 47  0  0  0  0  0  0  0  0999 V2000
   55.7425   -4.4378   -7.2529 P   0  0  0  0  0  0  0  0  0  0  0  0
   54.0503   -4.3954   -7.3381 O   0  0  0  0  0  0  0  0  0  0  0  0
   56.1619   -5.8833   -7.3796 O   0  0  0  0  0  0  0  0  0  0  0  0
   53.7480   -3.5361   -7.7557 H   0  0  0  0  0  0  0  0  0  0  0  0
   56.3750   -3.5482   -8.5097 O   0  0  0  0  0  0  0  0  0  0  0  0
   55.6576   -3.6919   -9.6954 C   0  0  0  0  0  0  0  0  0  0  0  0
   58.3653   -5.8634  -10.2738 O   0  0  0  0  0  0  0  0  0  0  0  0
   57.8410   -4.5935  -10.4855 C   0  0  0  0  0  0  0  0  0  0  0  0
   58.2574   -4.1539  -11.8833 C   0  0  0  0  0  0  0  0  0  0  0  0
   59.5076   -4.6449  -12.2267 O   0  0  0  0  0  0  0  0  0  0  0  0
   57.1431   -4.7878  -12.6997 C   0  0  0  0  0  0  0  0  0  0  0  0
   56.0242   -4.4551  -11.9346 O   0  0  0  0  0  0  0  0  0  0  0  0
   56.3516   -4.6793  -10.6237 C   0  0  0  0  0  0  0  0  0  0  0  0
   57.6471   -6.5677  -10.3330 H   0  0  0  0  0  0  0  0  0  0  0  0
   60.1674   -3.9050  -12.1414 H   0  0  0  0  0  0  0  0  0  0  0  0
   57.0758   -4.2468  -14.0282 N   0  0  0  0  0  0  0  0  0  0  0  0
   57.8923   -3.2936  -14.4931 C   0  0  0  0  0  0  0  0  0  0  0  0
   57.7959   -2.7940  -15.7886 C   0  0  0  0  0  0  0  0  0  0  0  0
   56.8028   -3.3365  -16.5839 C   0  0  0  0  0  0  0  0  0  0  0  0
   56.6494   -2.9387  -17.7691 O   0  0  0  0  0  0  0  0  0  0  0  0
   55.9849   -4.2945  -16.1114 N   0  0  0  0  0  0  0  0  0  0  0  0
   56.1258   -4.7369  -14.8527 C   0  0  0  0  0  0  0  0  0  0  0  0
   55.3212   -5.6473  -14.4583 O   0  0  0  0  0  0  0  0  0  0  0  0
   55.2282   -4.7000  -16.7346 H   0  0  0  0  0  0  0  0  0  0  0  0
   56.2046   -3.8842   -5.7413 O   0  0  0  0  0  0  0  0  0  0  0  0
   55.8657   -5.0885   -4.6038 P   0  0  0  0  0  0  0  0  0  0  0  0
   56.8610   -6.4183   -4.9746 O   0  0  0  0  0  0  0  0  0  0  0  0
   56.2487   -4.6065   -3.2242 O   0  0  0  0  0  0  0  0  0  0  0  0
   57.7564   -6.2376   -4.5738 H   0  0  0  0  0  0  0  0  0  0  0  0
   54.2395   -5.4985   -4.6902 O   0  0  0  0  0  0  0  0  0  0  0  0
   53.7864   -6.6094   -3.5027 P   0  0  0  0  0  0  0  0  0  0  0  0
   54.3673   -6.1622   -1.9817 O   0  0  0  0  0  0  0  0  0  0  0  0
   54.4482   -7.9312   -3.8596 O   0  0  0  0  0  0  0  0  0  0  0  0
   54.7052   -5.2467   -2.0528 H   0  0  0  0  0  0  0  0  0  0  0  0
   52.1232   -6.8674   -3.4792 O   0  0  0  0  0  0  0  0  0  0  0  0
   51.5175   -6.2341   -2.0257 P   0  0  0  0  0  0  0  0  0  0  0  0
   52.1087   -4.6668   -1.8755 O   0  0  0  0  0  0  0  0  0  0  0  0
   49.9952   -6.1514   -2.0711 O   0  0  0  0  0  0  0  0  0  0  0  0
   53.0831   -4.6111   -1.9119 H   0  0  0  0  0  0  0  0  0  0  0  0
   52.0453   -7.1425   -0.7083 O   0  0  0  0  0  0  0  0  0  0  0  0
   51.0138   -8.4213   -0.3858 P   0  0  0  0  0  0  0  0  0  0  0  0
   51.6603   -9.4089    0.8482 O   0  0  0  0  0  0  0  0  0  0  0  0
   49.5110   -7.7843    0.1078 O   0  0  0  0  0  0  0  0  0  0  0  0
   50.8116   -9.3112   -1.5926 O   0  0  0  0  0  0  0  0  0  0  0  0
   51.7484   -8.9058    1.7017 H   0  0  0  0  0  0  0  0  0  0  0  0
   49.4866   -6.7995    0.0083 H   0  0  0  0  0  0  0  0  0  0  0  0
  7  8  1  0  0  0
  8  9  1  0  0  0
  9 10  1  0  0  0
  9 11  1  0  0  0
 11 12  1  0  0  0
 12 13  1  0  0  0
 13  6  1  0  0  0
  6  5  1  0  0  0
  5  1  1  0  0  0
  1  2  1  0  0  0
  1  3  2  0  0  0
  1 25  1  0  0  0
 25 26  1  0  0  0
 26 27  1  0  0  0
 26 28  2  0  0  0
 26 30  1  0  0  0
 30 31  1  0  0  0
 31 32  1  0  0  0
 31 33  2  0  0  0
 31 35  1  0  0  0
 35 36  1  0  0  0
 36 37  1  0  0  0
 36 38  2  0  0  0
 36 40  1  0  0  0
 40 41  1  0  0  0
 41 42  1  0  0  0
 41 43  1  0  0  0
 41 44  2  0  0  0
 11 16  1  0  0  0
 16 17  1  0  0  0
 17 18  2  0  0  0
 18 19  1  0  0  0
 19 20  2  0  0  0
 19 21  1  0  0  0
 21 22  1  0  0  0
 22 23  2  0  0  0
 13  8  1  0  0  0
 22 16  1  0  0  0
  7 14  1  0  0  0
 10 15  1  0  0  0
  2  4  1  0  0  0
 27 29  1  0  0  0
 32 34  1  0  0  0
 37 39  1  0  0  0
 42 45  1  0  0  0
 43 46  1  0  0  0
 21 24  1  0  0  0
M  END
> <minimizedAffinity>
-6.82178

> <CNNscore>
0.2657323778

> <CNNaffinity>
4.5883955956

> <CNN_VS>
1.2192852497

> <CNNaffinity_variance>
0.2402575314

$$$$
[H]O[C@]1([H])[C@@]([H])(C([H])([H])OP(=O)(O[H])OP(=O)(O[H])OP(=O)(O[H])OP(=O)(O[H])OP(=O)(O[H])O[H])O[C@@]([H])(n2c([H])c([H])c(=O)n([H])c2=O)[C@]1([H])O[H]


 46 47  0  0  0  0  0  0  0  0999 V2000
   56.0538   -5.5365   -6.6568 P   0  0  0  0  0  0  0  0  0  0  0  0
   55.3119   -6.9839   -6.1798 O   0  0  0  0  0  0  0  0  0  0  0  0
   57.5343   -5.8101   -6.7780 O   0  0  0  0  0  0  0  0  0  0  0  0
   54.3833   -7.0340   -6.5529 H   0  0  0  0  0  0  0  0  0  0  0  0
   55.4380   -5.0671   -8.1305 O   0  0  0  0  0  0  0  0  0  0  0  0
   54.7952   -3.8318   -8.0850 C   0  0  0  0  0  0  0  0  0  0  0  0
   51.9796   -2.7360   -9.8886 O   0  0  0  0  0  0  0  0  0  0  0  0
   52.6804   -2.6633   -8.6903 C   0  0  0  0  0  0  0  0  0  0  0  0
   51.6568   -2.5505   -7.5677 C   0  0  0  0  0  0  0  0  0  0  0  0
   50.5361   -1.8360   -7.9624 O   0  0  0  0  0  0  0  0  0  0  0  0
   51.3538   -4.0225   -7.3412 C   0  0  0  0  0  0  0  0  0  0  0  0
   52.6384   -4.5680   -7.3525 O   0  0  0  0  0  0  0  0  0  0  0  0
   53.3127   -3.9889   -8.3945 C   0  0  0  0  0  0  0  0  0  0  0  0
   51.9860   -3.6738  -10.2570 H   0  0  0  0  0  0  0  0  0  0  0  0
   50.5951   -0.9227   -7.5720 H   0  0  0  0  0  0  0  0  0  0  0  0
   50.6772   -4.2461   -6.0945 N   0  0  0  0  0  0  0  0  0  0  0  0
   49.7713   -3.4112   -5.5714 C   0  0  0  0  0  0  0  0  0  0  0  0
   49.1361   -3.6627   -4.3588 C   0  0  0  0  0  0  0  0  0  0  0  0
   49.4900   -4.8323   -3.7108 C   0  0  0  0  0  0  0  0  0  0  0  0
   48.9608   -5.1333   -2.6082 O   0  0  0  0  0  0  0  0  0  0  0  0
   50.4013   -5.6679   -4.2413 N   0  0  0  0  0  0  0  0  0  0  0  0
   50.9808   -5.3722   -5.4145 C   0  0  0  0  0  0  0  0  0  0  0  0
   51.8386   -6.2021   -5.8699 O   0  0  0  0  0  0  0  0  0  0  0  0
   50.6615   -6.5610   -3.7313 H   0  0  0  0  0  0  0  0  0  0  0  0
   55.8231   -4.4054   -5.4435 O   0  0  0  0  0  0  0  0  0  0  0  0
   55.8892   -5.1996   -3.9521 P   0  0  0  0  0  0  0  0  0  0  0  0
   56.3563   -4.0444   -2.7928 O   0  0  0  0  0  0  0  0  0  0  0  0
   54.5102   -5.6881   -3.5751 O   0  0  0  0  0  0  0  0  0  0  0  0
   55.5362   -3.5402   -2.5316 H   0  0  0  0  0  0  0  0  0  0  0  0
   56.9940   -6.4614   -4.0382 O   0  0  0  0  0  0  0  0  0  0  0  0
   56.9327   -7.4709   -2.6868 P   0  0  0  0  0  0  0  0  0  0  0  0
   58.3163   -8.4312   -2.5671 O   0  0  0  0  0  0  0  0  0  0  0  0
   55.7557   -8.4118   -2.8919 O   0  0  0  0  0  0  0  0  0  0  0  0
   58.9699   -8.0875   -3.2090 H   0  0  0  0  0  0  0  0  0  0  0  0
   56.6507   -6.6114   -1.2672 O   0  0  0  0  0  0  0  0  0  0  0  0
   58.1510   -6.1020   -0.6590 P   0  0  0  0  0  0  0  0  0  0  0  0
   59.0412   -5.5035   -1.9542 O   0  0  0  0  0  0  0  0  0  0  0  0
   57.9653   -4.9639    0.3392 O   0  0  0  0  0  0  0  0  0  0  0  0
   59.1493   -6.1439   -2.6837 H   0  0  0  0  0  0  0  0  0  0  0  0
   58.9903   -7.3917    0.0275 O   0  0  0  0  0  0  0  0  0  0  0  0
   60.6403   -7.1089    0.0596 P   0  0  0  0  0  0  0  0  0  0  0  0
   61.2914   -7.2127   -1.5156 O   0  0  0  0  0  0  0  0  0  0  0  0
   60.9027   -5.5483    0.6947 O   0  0  0  0  0  0  0  0  0  0  0  0
   61.3784   -8.1260    0.9022 O   0  0  0  0  0  0  0  0  0  0  0  0
   60.9052   -6.5152   -2.1105 H   0  0  0  0  0  0  0  0  0  0  0  0
   60.0600   -5.1471    1.0254 H   0  0  0  0  0  0  0  0  0  0  0  0
  7  8  1  0  0  0
  8  9  1  0  0  0
  9 10  1  0  0  0
  9 11  1  0  0  0
 11 12  1  0  0  0
 12 13  1  0  0  0
 13  6  1  0  0  0
  6  5  1  0  0  0
  5  1  1  0  0  0
  1  2  1  0  0  0
  1  3  2  0  0  0
  1 25  1  0  0  0
 25 26  1  0  0  0
 26 27  1  0  0  0
 26 28  2  0  0  0
 26 30  1  0  0  0
 30 31  1  0  0  0
 31 32  1  0  0  0
 31 33  2  0  0  0
 31 35  1  0  0  0
 35 36  1  0  0  0
 36 37  1  0  0  0
 36 38  2  0  0  0
 36 40  1  0  0  0
 40 41  1  0  0  0
 41 42  1  0  0  0
 41 43  1  0  0  0
 41 44  2  0  0  0
 11 16  1  0  0  0
 16 17  1  0  0  0
 17 18  2  0  0  0
 18 19  1  0  0  0
 19 20  2  0  0  0
 19 21  1  0  0  0
 21 22  1  0  0  0
 22 23  2  0  0  0
 13  8  1  0  0  0
 22 16  1  0  0  0
  7 14  1  0  0  0
 10 15  1  0  0  0
  2  4  1  0  0  0
 27 29  1  0  0  0
 32 34  1  0  0  0
 37 39  1  0  0  0
 42 45  1  0  0  0
 43 46  1  0  0  0
 21 24  1  0  0  0
M  END
> <minimizedAffinity>
-7.71433

> <CNNscore>
0.2390467525

> <CNNaffinity>
5.1539340019

> <CNN_VS>
1.2320312262

> <CNNaffinity_variance>
0.0572638512

$$$$
[H]O[C@]1([H])[C@@]([H])(C([H])([H])OP(=O)(O[H])OP(=O)(O[H])OP(=O)(O[H])OP(=O)(O[H])OP(=O)(O[H])O[H])O[C@@]([H])(n2c([H])c([H])c(=O)n([H])c2=O)[C@]1([H])O[H]


 46 47  0  0  0  0  0  0  0  0999 V2000
   57.8696   -4.3271  -11.8772 P   0  0  0  0  0  0  0  0  0  0  0  0
   56.9324   -4.9991  -13.1193 O   0  0  0  0  0  0  0  0  0  0  0  0
   57.6131   -2.8386  -11.8770 O   0  0  0  0  0  0  0  0  0  0  0  0
   56.6555   -5.9309  -12.8760 H   0  0  0  0  0  0  0  0  0  0  0  0
   57.4016   -4.9867  -10.4222 O   0  0  0  0  0  0  0  0  0  0  0  0
   56.7397   -4.0784   -9.5988 C   0  0  0  0  0  0  0  0  0  0  0  0
   53.4184   -3.2540  -10.4179 O   0  0  0  0  0  0  0  0  0  0  0  0
   54.4208   -3.1800   -9.4576 C   0  0  0  0  0  0  0  0  0  0  0  0
   53.7569   -3.3081   -8.0925 C   0  0  0  0  0  0  0  0  0  0  0  0
   52.4959   -2.7321   -8.0768 O   0  0  0  0  0  0  0  0  0  0  0  0
   53.7025   -4.8220   -7.9691 C   0  0  0  0  0  0  0  0  0  0  0  0
   54.9834   -5.1745   -8.3969 O   0  0  0  0  0  0  0  0  0  0  0  0
   55.2590   -4.4209   -9.5068 C   0  0  0  0  0  0  0  0  0  0  0  0
   53.4261   -4.1477  -10.8832 H   0  0  0  0  0  0  0  0  0  0  0  0
   52.5596   -1.8550   -7.6114 H   0  0  0  0  0  0  0  0  0  0  0  0
   53.4430   -5.2422   -6.6208 N   0  0  0  0  0  0  0  0  0  0  0  0
   54.3929   -5.4312   -5.6970 C   0  0  0  0  0  0  0  0  0  0  0  0
   54.1016   -5.8394   -4.3987 C   0  0  0  0  0  0  0  0  0  0  0  0
   52.7657   -6.0433   -4.1039 C   0  0  0  0  0  0  0  0  0  0  0  0
   52.4185   -6.4135   -2.9512 O   0  0  0  0  0  0  0  0  0  0  0  0
   51.8150   -5.8517   -5.0364 N   0  0  0  0  0  0  0  0  0  0  0  0
   52.1566   -5.4575   -6.2724 C   0  0  0  0  0  0  0  0  0  0  0  0
   51.2120   -5.2915   -7.1163 O   0  0  0  0  0  0  0  0  0  0  0  0
   50.7949   -6.0126   -4.7938 H   0  0  0  0  0  0  0  0  0  0  0  0
   59.4838   -4.5851  -12.2414 O   0  0  0  0  0  0  0  0  0  0  0  0
   59.8916   -3.6265  -13.5733 P   0  0  0  0  0  0  0  0  0  0  0  0
   58.4511   -3.3197  -14.4261 O   0  0  0  0  0  0  0  0  0  0  0  0
   60.4283   -2.2970  -13.0971 O   0  0  0  0  0  0  0  0  0  0  0  0
   57.9943   -2.5593  -13.9698 H   0  0  0  0  0  0  0  0  0  0  0  0
   61.0067   -4.4411  -14.5289 O   0  0  0  0  0  0  0  0  0  0  0  0
   61.9769   -3.3939  -15.4298 P   0  0  0  0  0  0  0  0  0  0  0  0
   61.0904   -2.6094  -16.6338 O   0  0  0  0  0  0  0  0  0  0  0  0
   63.0178   -4.2515  -16.1324 O   0  0  0  0  0  0  0  0  0  0  0  0
   60.1428   -2.7807  -16.4609 H   0  0  0  0  0  0  0  0  0  0  0  0
   62.8010   -2.2977  -14.4537 O   0  0  0  0  0  0  0  0  0  0  0  0
   64.0131   -1.5711  -15.3936 P   0  0  0  0  0  0  0  0  0  0  0  0
   65.3948   -2.5194  -15.2521 O   0  0  0  0  0  0  0  0  0  0  0  0
   63.6121   -1.5553  -16.8650 O   0  0  0  0  0  0  0  0  0  0  0  0
   65.6870   -2.6498  -14.3294 H   0  0  0  0  0  0  0  0  0  0  0  0
   64.3590   -0.0201  -14.8334 O   0  0  0  0  0  0  0  0  0  0  0  0
   64.1477    0.1007  -13.1769 P   0  0  0  0  0  0  0  0  0  0  0  0
   64.6812    1.6242  -12.6197 O   0  0  0  0  0  0  0  0  0  0  0  0
   62.4888   -0.0945  -12.8341 O   0  0  0  0  0  0  0  0  0  0  0  0
   64.9438   -0.9408  -12.4215 O   0  0  0  0  0  0  0  0  0  0  0  0
   64.1448    2.3606  -13.0189 H   0  0  0  0  0  0  0  0  0  0  0  0
   61.9806   -0.3494  -13.6448 H   0  0  0  0  0  0  0  0  0  0  0  0
  7  8  1  0  0  0
  8  9  1  0  0  0
  9 10  1  0  0  0
  9 11  1  0  0  0
 11 12  1  0  0  0
 12 13  1  0  0  0
 13  6  1  0  0  0
  6  5  1  0  0  0
  5  1  1  0  0  0
  1  2  1  0  0  0
  1  3  2  0  0  0
  1 25  1  0  0  0
 25 26  1  0  0  0
 26 27  1  0  0  0
 26 28  2  0  0  0
 26 30  1  0  0  0
 30 31  1  0  0  0
 31 32  1  0  0  0
 31 33  2  0  0  0
 31 35  1  0  0  0
 35 36  1  0  0  0
 36 37  1  0  0  0
 36 38  2  0  0  0
 36 40  1  0  0  0
 40 41  1  0  0  0
 41 42  1  0  0  0
 41 43  1  0  0  0
 41 44  2  0  0  0
 11 16  1  0  0  0
 16 17  1  0  0  0
 17 18  2  0  0  0
 18 19  1  0  0  0
 19 20  2  0  0  0
 19 21  1  0  0  0
 21 22  1  0  0  0
 22 23  2  0  0  0
 13  8  1  0  0  0
 22 16  1  0  0  0
  7 14  1  0  0  0
 10 15  1  0  0  0
  2  4  1  0  0  0
 27 29  1  0  0  0
 32 34  1  0  0  0
 37 39  1  0  0  0
 42 45  1  0  0  0
 43 46  1  0  0  0
 21 24  1  0  0  0
M  END
> <minimizedAffinity>
-6.82072

> <CNNscore>
0.2382937670

> <CNNaffinity>
4.6819758415

> <CNN_VS>
1.1156857014

> <CNNaffinity_variance>
0.0836109370

$$$$
[H]O[C@]1([H])[C@@]([H])(C([H])([H])OP(=O)(O[H])OP(=O)(O[H])OP(=O)(O[H])OP(=O)(O[H])OP(=O)(O[H])O[H])O[C@@]([H])(n2c([H])c([H])c(=O)n([H])c2=O)[C@]1([H])O[H]


 46 47  0  0  0  0  0  0  0  0999 V2000
   55.6604   -6.1039   -4.4641 P   0  0  0  0  0  0  0  0  0  0  0  0
   54.1993   -5.8139   -3.6553 O   0  0  0  0  0  0  0  0  0  0  0  0
   55.5333   -7.4416   -5.1539 O   0  0  0  0  0  0  0  0  0  0  0  0
   54.0137   -4.8298   -3.6220 H   0  0  0  0  0  0  0  0  0  0  0  0
   55.9090   -4.9029   -5.5897 O   0  0  0  0  0  0  0  0  0  0  0  0
   56.3503   -5.3894   -6.8185 C   0  0  0  0  0  0  0  0  0  0  0  0
   55.4479   -4.3097  -10.0436 O   0  0  0  0  0  0  0  0  0  0  0  0
   55.4848   -3.9929   -8.6906 C   0  0  0  0  0  0  0  0  0  0  0  0
   54.2300   -3.1889   -8.3746 C   0  0  0  0  0  0  0  0  0  0  0  0
   53.8461   -2.3922   -9.4423 O   0  0  0  0  0  0  0  0  0  0  0  0
   53.2508   -4.3226   -8.1178 C   0  0  0  0  0  0  0  0  0  0  0  0
   54.0191   -5.1671   -7.3149 O   0  0  0  0  0  0  0  0  0  0  0  0
   55.2667   -5.2314   -7.8763 C   0  0  0  0  0  0  0  0  0  0  0  0
   55.2107   -5.2790  -10.1835 H   0  0  0  0  0  0  0  0  0  0  0  0
   54.1136   -1.4546   -9.2438 H   0  0  0  0  0  0  0  0  0  0  0  0
   52.0639   -3.8666   -7.4505 N   0  0  0  0  0  0  0  0  0  0  0  0
   51.3693   -2.7811   -7.8119 C   0  0  0  0  0  0  0  0  0  0  0  0
   50.2221   -2.3704   -7.1393 C   0  0  0  0  0  0  0  0  0  0  0  0
   49.8282   -3.1475   -6.0650 C   0  0  0  0  0  0  0  0  0  0  0  0
   48.8004   -2.8436   -5.4035 O   0  0  0  0  0  0  0  0  0  0  0  0
   50.5303   -4.2377   -5.7062 N   0  0  0  0  0  0  0  0  0  0  0  0
   51.6292   -4.5847   -6.3931 C   0  0  0  0  0  0  0  0  0  0  0  0
   52.2557   -5.6289   -6.0074 O   0  0  0  0  0  0  0  0  0  0  0  0
   50.2145   -4.8229   -4.8797 H   0  0  0  0  0  0  0  0  0  0  0  0
   56.8790   -6.2127   -3.3205 O   0  0  0  0  0  0  0  0  0  0  0  0
   56.7694   -4.8744   -2.2928 P   0  0  0  0  0  0  0  0  0  0  0  0
   56.2182   -3.5676   -3.2336 O   0  0  0  0  0  0  0  0  0  0  0  0
   55.7308   -5.1356   -1.2273 O   0  0  0  0  0  0  0  0  0  0  0  0
   55.2260   -3.6481   -3.2980 H   0  0  0  0  0  0  0  0  0  0  0  0
   58.2775   -4.5553   -1.6264 O   0  0  0  0  0  0  0  0  0  0  0  0
   58.7085   -5.6690   -0.4334 P   0  0  0  0  0  0  0  0  0  0  0  0
   57.7248   -7.0405   -0.4814 O   0  0  0  0  0  0  0  0  0  0  0  0
   58.4653   -4.9951    0.9079 O   0  0  0  0  0  0  0  0  0  0  0  0
   57.2070   -7.0028   -1.3107 H   0  0  0  0  0  0  0  0  0  0  0  0
   60.3406   -6.0746   -0.5063 O   0  0  0  0  0  0  0  0  0  0  0  0
   60.5149   -7.3371   -1.6271 P   0  0  0  0  0  0  0  0  0  0  0  0
   59.6106   -6.9312   -2.9858 O   0  0  0  0  0  0  0  0  0  0  0  0
   61.9705   -7.4685   -2.0632 O   0  0  0  0  0  0  0  0  0  0  0  0
   58.6704   -6.7527   -2.7908 H   0  0  0  0  0  0  0  0  0  0  0  0
   59.9283   -8.7854   -0.9968 O   0  0  0  0  0  0  0  0  0  0  0  0
   59.1899   -9.7186   -2.1746 P   0  0  0  0  0  0  0  0  0  0  0  0
   57.6578   -9.0752   -2.5680 O   0  0  0  0  0  0  0  0  0  0  0  0
   60.1893   -9.7243   -3.5562 O   0  0  0  0  0  0  0  0  0  0  0  0
   58.9581  -11.1413   -1.7149 O   0  0  0  0  0  0  0  0  0  0  0  0
   57.7400   -8.1618   -2.9533 H   0  0  0  0  0  0  0  0  0  0  0  0
   61.0554   -9.2792   -3.3767 H   0  0  0  0  0  0  0  0  0  0  0  0
  7  8  1  0  0  0
  8  9  1  0  0  0
  9 10  1  0  0  0
  9 11  1  0  0  0
 11 12  1  0  0  0
 12 13  1  0  0  0
 13  6  1  0  0  0
  6  5  1  0  0  0
  5  1  1  0  0  0
  1  2  1  0  0  0
  1  3  2  0  0  0
  1 25  1  0  0  0
 25 26  1  0  0  0
 26 27  1  0  0  0
 26 28  2  0  0  0
 26 30  1  0  0  0
 30 31  1  0  0  0
 31 32  1  0  0  0
 31 33  2  0  0  0
 31 35  1  0  0  0
 35 36  1  0  0  0
 36 37  1  0  0  0
 36 38  2  0  0  0
 36 40  1  0  0  0
 40 41  1  0  0  0
 41 42  1  0  0  0
 41 43  1  0  0  0
 41 44  2  0  0  0
 11 16  1  0  0  0
 16 17  1  0  0  0
 17 18  2  0  0  0
 18 19  1  0  0  0
 19 20  2  0  0  0
 19 21  1  0  0  0
 21 22  1  0  0  0
 22 23  2  0  0  0
 13  8  1  0  0  0
 22 16  1  0  0  0
  7 14  1  0  0  0
 10 15  1  0  0  0
  2  4  1  0  0  0
 27 29  1  0  0  0
 32 34  1  0  0  0
 37 39  1  0  0  0
 42 45  1  0  0  0
 43 46  1  0  0  0
 21 24  1  0  0  0
M  END
> <minimizedAffinity>
-8.35711

> <CNNscore>
0.2263612300

> <CNNaffinity>
4.9607853889

> <CNN_VS>
1.1229294538

> <CNNaffinity_variance>
0.0641702265

$$$$
[H]c1c([H])c([H])c2c(C3=C(c4c([H])n([H])c5c([H])c([H])c([H])c([H])c45)C(=O)N([H])C3=O)nc(N3C([H])([H])C([H])([H])N(C([H])([H])[H])C([H])([H])C3([H])[H])nc2c1[H]


 35 40  0  0  0  0  0  0  0  0999 V2000
   52.4050   -4.2920   -7.1265 C   0  0  0  0  0  0  0  0  0  0  0  0
   53.3850   -3.8269   -7.9167 C   0  0  0  0  0  0  0  0  0  0  0  0
   52.7837   -3.1298   -9.0518 C   0  0  0  0  0  0  0  0  0  0  0  0
   53.3882   -2.5671   -9.9978 O   0  0  0  0  0  0  0  0  0  0  0  0
   51.3575   -3.1966   -8.9053 N   0  0  0  0  0  0  0  0  0  0  0  0
   51.1207   -3.9201   -7.7073 C   0  0  0  0  0  0  0  0  0  0  0  0
   49.9519   -4.1551   -7.2909 O   0  0  0  0  0  0  0  0  0  0  0  0
   50.6795   -2.7724   -9.5869 H   0  0  0  0  0  0  0  0  0  0  0  0
   53.8705   -6.5021   -4.5595 C   0  0  0  0  0  0  0  0  0  0  0  0
   53.6857   -5.7862   -5.6757 N   0  0  0  0  0  0  0  0  0  0  0  0
   52.5485   -5.0429   -5.8841 C   0  0  0  0  0  0  0  0  0  0  0  0
   51.5488   -5.0092   -4.9469 C   0  0  0  0  0  0  0  0  0  0  0  0
   50.3753   -4.3105   -5.0984 C   0  0  0  0  0  0  0  0  0  0  0  0
   49.3607   -4.3029   -4.1439 C   0  0  0  0  0  0  0  0  0  0  0  0
   49.5719   -5.0480   -2.9909 C   0  0  0  0  0  0  0  0  0  0  0  0
   50.7511   -5.7473   -2.8481 C   0  0  0  0  0  0  0  0  0  0  0  0
   51.7586   -5.7646   -3.7800 C   0  0  0  0  0  0  0  0  0  0  0  0
   52.8850   -6.4559   -3.6522 N   0  0  0  0  0  0  0  0  0  0  0  0
   58.2860   -7.7125   -1.9312 C   0  0  0  0  0  0  0  0  0  0  0  0
   57.1546   -7.4684   -2.7935 N   0  0  0  0  0  0  0  0  0  0  0  0
   56.0806   -8.3609   -2.4160 C   0  0  0  0  0  0  0  0  0  0  0  0
   55.0026   -8.4615   -3.4860 C   0  0  0  0  0  0  0  0  0  0  0  0
   55.0437   -7.2746   -4.3511 N   0  0  0  0  0  0  0  0  0  0  0  0
   56.3224   -6.9585   -4.9530 C   0  0  0  0  0  0  0  0  0  0  0  0
   57.4350   -7.6868   -4.1968 C   0  0  0  0  0  0  0  0  0  0  0  0
   54.8121   -4.0457   -7.7229 C   0  0  0  0  0  0  0  0  0  0  0  0
   55.4598   -3.8925   -6.5257 C   0  0  0  0  0  0  0  0  0  0  0  0
   56.7907   -4.1546   -6.6935 N   0  0  0  0  0  0  0  0  0  0  0  0
   57.0136   -4.4723   -7.9755 C   0  0  0  0  0  0  0  0  0  0  0  0
   58.1692   -4.8022   -8.6349 C   0  0  0  0  0  0  0  0  0  0  0  0
   58.1284   -5.0804   -9.9900 C   0  0  0  0  0  0  0  0  0  0  0  0
   56.9235   -5.0194  -10.6495 C   0  0  0  0  0  0  0  0  0  0  0  0
   55.7685   -4.6840   -9.9607 C   0  0  0  0  0  0  0  0  0  0  0  0
   55.7911   -4.4084   -8.6273 C   0  0  0  0  0  0  0  0  0  0  0  0
   57.5369   -4.1231   -5.9713 H   0  0  0  0  0  0  0  0  0  0  0  0
 19 20  1  0  0  0
 20 21  1  0  0  0
 21 22  1  0  0  0
 22 23  1  0  0  0
 23 24  1  0  0  0
 24 25  1  0  0  0
 23  9  1  0  0  0
  9 10  2  0  0  0
 10 11  1  0  0  0
 11  1  1  0  0  0
  1  2  2  0  0  0
  2  3  1  0  0  0
  3  4  2  0  0  0
  3  5  1  0  0  0
  5  6  1  0  0  0
  6  7  2  0  0  0
  2 26  1  0  0  0
 26 27  2  0  0  0
 27 28  1  0  0  0
 28 29  1  0  0  0
 29 30  2  0  0  0
 30 31  1  0  0  0
 31 32  2  0  0  0
 32 33  1  0  0  0
 33 34  2  0  0  0
 11 12  2  0  0  0
 12 13  1  0  0  0
 13 14  2  0  0  0
 14 15  1  0  0  0
 15 16  2  0  0  0
 16 17  1  0  0  0
 17 18  2  0  0  0
 25 20  1  0  0  0
 18  9  1  0  0  0
  6  1  1  0  0  0
 34 26  1  0  0  0
 17 12  1  0  0  0
 34 29  1  0  0  0
  5  8  1  0  0  0
 28 35  1  0  0  0
M  END
> <minimizedAffinity>
-10.03836

> <CNNscore>
0.6264715791

> <CNNaffinity>
7.4295606613

> <CNN_VS>
4.6544084549

> <CNNaffinity_variance>
0.2979964316

$$$$
[H]c1c([H])c([H])c2c(C3=C(c4c([H])n([H])c5c([H])c([H])c([H])c([H])c45)C(=O)N([H])C3=O)nc(N3C([H])([H])C([H])([H])N(C([H])([H])[H])C([H])([H])C3([H])[H])nc2c1[H]


 35 40  0  0  0  0  0  0  0  0999 V2000
   53.2537   -3.6441   -7.8684 C   0  0  0  0  0  0  0  0  0  0  0  0
   52.0636   -3.9962   -7.3576 C   0  0  0  0  0  0  0  0  0  0  0  0
   51.0342   -3.1220   -7.9164 C   0  0  0  0  0  0  0  0  0  0  0  0
   49.8034   -3.1521   -7.6690 O   0  0  0  0  0  0  0  0  0  0  0  0
   51.6753   -2.2025   -8.8127 N   0  0  0  0  0  0  0  0  0  0  0  0
   53.0569   -2.5263   -8.7833 C   0  0  0  0  0  0  0  0  0  0  0  0
   53.9045   -1.8930   -9.4726 O   0  0  0  0  0  0  0  0  0  0  0  0
   51.1638   -1.4602   -9.3527 H   0  0  0  0  0  0  0  0  0  0  0  0
   56.0367   -5.1731   -5.9873 C   0  0  0  0  0  0  0  0  0  0  0  0
   54.8589   -4.6210   -6.3043 N   0  0  0  0  0  0  0  0  0  0  0  0
   54.5519   -4.2491   -7.5913 C   0  0  0  0  0  0  0  0  0  0  0  0
   55.4520   -4.4293   -8.6091 C   0  0  0  0  0  0  0  0  0  0  0  0
   55.2242   -4.0585   -9.9125 C   0  0  0  0  0  0  0  0  0  0  0  0
   56.1582   -4.2311  -10.9315 C   0  0  0  0  0  0  0  0  0  0  0  0
   57.3726   -4.8092  -10.5847 C   0  0  0  0  0  0  0  0  0  0  0  0
   57.5933   -5.1764   -9.2747 C   0  0  0  0  0  0  0  0  0  0  0  0
   56.6832   -5.0117   -8.2606 C   0  0  0  0  0  0  0  0  0  0  0  0
   56.9042   -5.3451   -6.9945 N   0  0  0  0  0  0  0  0  0  0  0  0
   54.9537   -7.5526   -1.4009 C   0  0  0  0  0  0  0  0  0  0  0  0
   55.3699   -6.7996   -2.5598 N   0  0  0  0  0  0  0  0  0  0  0  0
   56.2343   -7.6306   -3.3689 C   0  0  0  0  0  0  0  0  0  0  0  0
   57.0285   -6.8267   -4.3888 C   0  0  0  0  0  0  0  0  0  0  0  0
   56.3530   -5.5494   -4.6551 N   0  0  0  0  0  0  0  0  0  0  0  0
   56.0414   -4.7312   -3.5015 C   0  0  0  0  0  0  0  0  0  0  0  0
   56.0981   -5.5909   -2.2373 C   0  0  0  0  0  0  0  0  0  0  0  0
   51.8388   -5.0260   -6.3522 C   0  0  0  0  0  0  0  0  0  0  0  0
   52.3311   -6.3018   -6.4322 C   0  0  0  0  0  0  0  0  0  0  0  0
   51.9211   -7.0152   -5.3408 N   0  0  0  0  0  0  0  0  0  0  0  0
   51.1733   -6.2247   -4.5599 C   0  0  0  0  0  0  0  0  0  0  0  0
   50.5326   -6.4745   -3.3740 C   0  0  0  0  0  0  0  0  0  0  0  0
   49.8014   -5.4690   -2.7661 C   0  0  0  0  0  0  0  0  0  0  0  0
   49.7324   -4.2345   -3.3676 C   0  0  0  0  0  0  0  0  0  0  0  0
   50.3894   -4.0062   -4.5665 C   0  0  0  0  0  0  0  0  0  0  0  0
   51.1138   -4.9843   -5.1773 C   0  0  0  0  0  0  0  0  0  0  0  0
   52.1333   -8.0076   -5.1184 H   0  0  0  0  0  0  0  0  0  0  0  0
 19 20  1  0  0  0
 20 21  1  0  0  0
 21 22  1  0  0  0
 22 23  1  0  0  0
 23 24  1  0  0  0
 24 25  1  0  0  0
 23  9  1  0  0  0
  9 10  2  0  0  0
 10 11  1  0  0  0
 11  1  1  0  0  0
  1  2  2  0  0  0
  2  3  1  0  0  0
  3  4  2  0  0  0
  3  5  1  0  0  0
  5  6  1  0  0  0
  6  7  2  0  0  0
  2 26  1  0  0  0
 26 27  2  0  0  0
 27 28  1  0  0  0
 28 29  1  0  0  0
 29 30  2  0  0  0
 30 31  1  0  0  0
 31 32  2  0  0  0
 32 33  1  0  0  0
 33 34  2  0  0  0
 11 12  2  0  0  0
 12 13  1  0  0  0
 13 14  2  0  0  0
 14 15  1  0  0  0
 15 16  2  0  0  0
 16 17  1  0  0  0
 17 18  2  0  0  0
 25 20  1  0  0  0
 18  9  1  0  0  0
  6  1  1  0  0  0
 34 26  1  0  0  0
 17 12  1  0  0  0
 34 29  1  0  0  0
  5  8  1  0  0  0
 28 35  1  0  0  0
M  END
> <minimizedAffinity>
-9.86331

> <CNNscore>
0.6099069715

> <CNNaffinity>
7.3443222046

> <CNN_VS>
4.4793534279

> <CNNaffinity_variance>
0.1043830365

$$$$
[H]c1c([H])c([H])c2c(C3=C(c4c([H])n([H])c5c([H])c([H])c([H])c([H])c45)C(=O)N([H])C3=O)nc(N3C([H])([H])C([H])([H])N(C([H])([H])[H])C([H])([H])C3([H])[H])nc2c1[H]


 35 40  0  0  0  0  0  0  0  0999 V2000
   53.2654   -4.1175   -7.3366 C   0  0  0  0  0  0  0  0  0  0  0  0
   52.1790   -4.5289   -6.6646 C   0  0  0  0  0  0  0  0  0  0  0  0
   50.9905   -3.9619   -7.2987 C   0  0  0  0  0  0  0  0  0  0  0  0
   49.7965   -4.1253   -6.9455 O   0  0  0  0  0  0  0  0  0  0  0  0
   51.4216   -3.1692   -8.4148 N   0  0  0  0  0  0  0  0  0  0  0  0
   52.8375   -3.2650   -8.4391 C   0  0  0  0  0  0  0  0  0  0  0  0
   53.5304   -2.6726   -9.3130 O   0  0  0  0  0  0  0  0  0  0  0  0
   50.7660   -2.6466   -9.0483 H   0  0  0  0  0  0  0  0  0  0  0  0
   56.3323   -4.8770   -5.4291 C   0  0  0  0  0  0  0  0  0  0  0  0
   55.0655   -4.5859   -5.7499 N   0  0  0  0  0  0  0  0  0  0  0  0
   54.6590   -4.4442   -7.0552 C   0  0  0  0  0  0  0  0  0  0  0  0
   55.5468   -4.5947   -8.0885 C   0  0  0  0  0  0  0  0  0  0  0  0
   55.2180   -4.4423   -9.4139 C   0  0  0  0  0  0  0  0  0  0  0  0
   56.1377   -4.5795  -10.4511 C   0  0  0  0  0  0  0  0  0  0  0  0
   57.4461   -4.8856  -10.0995 C   0  0  0  0  0  0  0  0  0  0  0  0
   57.7675   -5.0349   -8.7675 C   0  0  0  0  0  0  0  0  0  0  0  0
   56.8725   -4.9018   -7.7355 C   0  0  0  0  0  0  0  0  0  0  0  0
   57.1869   -5.0238   -6.4512 N   0  0  0  0  0  0  0  0  0  0  0  0
   55.7558   -6.6786   -0.5005 C   0  0  0  0  0  0  0  0  0  0  0  0
   56.0234   -6.0573   -1.7754 N   0  0  0  0  0  0  0  0  0  0  0  0
   56.9514   -6.8872   -2.5119 C   0  0  0  0  0  0  0  0  0  0  0  0
   57.5930   -6.1504   -3.6792 C   0  0  0  0  0  0  0  0  0  0  0  0
   56.7500   -5.0155   -4.0790 N   0  0  0  0  0  0  0  0  0  0  0  0
   56.3860   -4.0819   -3.0334 C   0  0  0  0  0  0  0  0  0  0  0  0
   56.6050   -4.7361   -1.6679 C   0  0  0  0  0  0  0  0  0  0  0  0
   52.1819   -5.3413   -5.4556 C   0  0  0  0  0  0  0  0  0  0  0  0
   51.3168   -5.1672   -4.4078 C   0  0  0  0  0  0  0  0  0  0  0  0
   51.6009   -6.0780   -3.4292 N   0  0  0  0  0  0  0  0  0  0  0  0
   52.6328   -6.8347   -3.8250 C   0  0  0  0  0  0  0  0  0  0  0  0
   53.2872   -7.8649   -3.2008 C   0  0  0  0  0  0  0  0  0  0  0  0
   54.3511   -8.4835   -3.8340 C   0  0  0  0  0  0  0  0  0  0  0  0
   54.7312   -8.0491   -5.0820 C   0  0  0  0  0  0  0  0  0  0  0  0
   54.0535   -7.0057   -5.6928 C   0  0  0  0  0  0  0  0  0  0  0  0
   53.0042   -6.3870   -5.0839 C   0  0  0  0  0  0  0  0  0  0  0  0
   51.1195   -6.1953   -2.5160 H   0  0  0  0  0  0  0  0  0  0  0  0
 19 20  1  0  0  0
 20 21  1  0  0  0
 21 22  1  0  0  0
 22 23  1  0  0  0
 23 24  1  0  0  0
 24 25  1  0  0  0
 23  9  1  0  0  0
  9 10  2  0  0  0
 10 11  1  0  0  0
 11  1  1  0  0  0
  1  2  2  0  0  0
  2  3  1  0  0  0
  3  4  2  0  0  0
  3  5  1  0  0  0
  5  6  1  0  0  0
  6  7  2  0  0  0
  2 26  1  0  0  0
 26 27  2  0  0  0
 27 28  1  0  0  0
 28 29  1  0  0  0
 29 30  2  0  0  0
 30 31  1  0  0  0
 31 32  2  0  0  0
 32 33  1  0  0  0
 33 34  2  0  0  0
 11 12  2  0  0  0
 12 13  1  0  0  0
 13 14  2  0  0  0
 14 15  1  0  0  0
 15 16  2  0  0  0
 16 17  1  0  0  0
 17 18  2  0  0  0
 25 20  1  0  0  0
 18  9  1  0  0  0
  6  1  1  0  0  0
 34 26  1  0  0  0
 17 12  1  0  0  0
 34 29  1  0  0  0
  5  8  1  0  0  0
 28 35  1  0  0  0
M  END
> <minimizedAffinity>
-7.39189

> <CNNscore>
0.5501787066

> <CNNaffinity>
7.2212839127

> <CNN_VS>
3.9729967117

> <CNNaffinity_variance>
0.1330894530

$$$$
[H]c1c([H])c([H])c2c(C3=C(c4c([H])n([H])c5c([H])c([H])c([H])c([H])c45)C(=O)N([H])C3=O)nc(N3C([H])([H])C([H])([H])N(C([H])([H])[H])C([H])([H])C3([H])[H])nc2c1[H]


 35 40  0  0  0  0  0  0  0  0999 V2000
   50.8869   -6.5715   -6.6415 C   0  0  0  0  0  0  0  0  0  0  0  0
   52.0411   -6.7461   -7.3038 C   0  0  0  0  0  0  0  0  0  0  0  0
   51.7917   -7.5915   -8.4697 C   0  0  0  0  0  0  0  0  0  0  0  0
   52.6337   -7.9698   -9.3211 O   0  0  0  0  0  0  0  0  0  0  0  0
   50.3962   -7.9268   -8.4811 N   0  0  0  0  0  0  0  0  0  0  0  0
   49.8322   -7.2927   -7.3434 C   0  0  0  0  0  0  0  0  0  0  0  0
   48.6046   -7.3934   -7.0647 O   0  0  0  0  0  0  0  0  0  0  0  0
   49.9457   -8.5279   -9.2159 H   0  0  0  0  0  0  0  0  0  0  0  0
   50.9118   -5.6468   -3.0687 C   0  0  0  0  0  0  0  0  0  0  0  0
   51.0895   -6.3076   -4.2194 N   0  0  0  0  0  0  0  0  0  0  0  0
   50.6710   -5.7965   -5.4247 C   0  0  0  0  0  0  0  0  0  0  0  0
   50.0464   -4.5783   -5.4932 C   0  0  0  0  0  0  0  0  0  0  0  0
   49.5788   -4.0177   -6.6574 C   0  0  0  0  0  0  0  0  0  0  0  0
   48.9283   -2.7869   -6.7065 C   0  0  0  0  0  0  0  0  0  0  0  0
   48.7567   -2.1141   -5.5035 C   0  0  0  0  0  0  0  0  0  0  0  0
   49.2271   -2.6847   -4.3404 C   0  0  0  0  0  0  0  0  0  0  0  0
   49.8687   -3.8963   -4.2768 C   0  0  0  0  0  0  0  0  0  0  0  0
   50.3022   -4.4561   -3.1535 N   0  0  0  0  0  0  0  0  0  0  0  0
   53.9990   -8.7332   -0.1000 C   0  0  0  0  0  0  0  0  0  0  0  0
   53.0357   -7.8938   -0.7713 N   0  0  0  0  0  0  0  0  0  0  0  0
   53.5089   -6.5271   -0.7418 C   0  0  0  0  0  0  0  0  0  0  0  0
   52.4120   -5.5230   -1.0668 C   0  0  0  0  0  0  0  0  0  0  0  0
   51.3391   -6.1815   -1.8244 N   0  0  0  0  0  0  0  0  0  0  0  0
   50.7700   -7.3748   -1.2333 C   0  0  0  0  0  0  0  0  0  0  0  0
   51.7214   -7.9171   -0.1650 C   0  0  0  0  0  0  0  0  0  0  0  0
   53.3448   -6.2446   -6.8907 C   0  0  0  0  0  0  0  0  0  0  0  0
   54.1075   -6.8043   -5.9001 C   0  0  0  0  0  0  0  0  0  0  0  0
   55.2582   -6.0819   -5.7509 N   0  0  0  0  0  0  0  0  0  0  0  0
   55.2514   -5.0670   -6.6250 C   0  0  0  0  0  0  0  0  0  0  0  0
   56.1634   -4.0701   -6.8562 C   0  0  0  0  0  0  0  0  0  0  0  0
   55.9059   -3.1187   -7.8278 C   0  0  0  0  0  0  0  0  0  0  0  0
   54.7345   -3.1939   -8.5439 C   0  0  0  0  0  0  0  0  0  0  0  0
   53.8282   -4.2118   -8.2921 C   0  0  0  0  0  0  0  0  0  0  0  0
   54.0667   -5.1562   -7.3404 C   0  0  0  0  0  0  0  0  0  0  0  0
   56.0331   -6.2588   -5.0819 H   0  0  0  0  0  0  0  0  0  0  0  0
 19 20  1  0  0  0
 20 21  1  0  0  0
 21 22  1  0  0  0
 22 23  1  0  0  0
 23 24  1  0  0  0
 24 25  1  0  0  0
 23  9  1  0  0  0
  9 10  2  0  0  0
 10 11  1  0  0  0
 11  1  1  0  0  0
  1  2  2  0  0  0
  2  3  1  0  0  0
  3  4  2  0  0  0
  3  5  1  0  0  0
  5  6  1  0  0  0
  6  7  2  0  0  0
  2 26  1  0  0  0
 26 27  2  0  0  0
 27 28  1  0  0  0
 28 29  1  0  0  0
 29 30  2  0  0  0
 30 31  1  0  0  0
 31 32  2  0  0  0
 32 33  1  0  0  0
 33 34  2  0  0  0
 11 12  2  0  0  0
 12 13  1  0  0  0
 13 14  2  0  0  0
 14 15  1  0  0  0
 15 16  2  0  0  0
 16 17  1  0  0  0
 17 18  2  0  0  0
 25 20  1  0  0  0
 18  9  1  0  0  0
  6  1  1  0  0  0
 34 26  1  0  0  0
 17 12  1  0  0  0
 34 29  1  0  0  0
  5  8  1  0  0  0
 28 35  1  0  0  0
M  END
> <minimizedAffinity>
-4.23794

> <CNNscore>
0.4699326456

> <CNNaffinity>
6.9018716812

> <CNN_VS>
3.2434148788

> <CNNaffinity_variance>
0.3798770010

$$$$
[H]c1c([H])c([H])c2c(C3=C(c4c([H])n([H])c5c([H])c([H])c([H])c([H])c45)C(=O)N([H])C3=O)nc(N3C([H])([H])C([H])([H])N(C([H])([H])[H])C([H])([H])C3([H])[H])nc2c1[H]


 35 40  0  0  0  0  0  0  0  0999 V2000
   52.8089   -3.4721   -7.8540 C   0  0  0  0  0  0  0  0  0  0  0  0
   51.7054   -3.9163   -7.2325 C   0  0  0  0  0  0  0  0  0  0  0  0
   50.6333   -2.9414   -7.4225 C   0  0  0  0  0  0  0  0  0  0  0  0
   49.4591   -3.0161   -6.9833 O   0  0  0  0  0  0  0  0  0  0  0  0
   51.1546   -1.8601   -8.2092 N   0  0  0  0  0  0  0  0  0  0  0  0
   52.5088   -2.1893   -8.4781 C   0  0  0  0  0  0  0  0  0  0  0  0
   53.2564   -1.4315   -9.1576 O   0  0  0  0  0  0  0  0  0  0  0  0
   50.5910   -1.0203   -8.4946 H   0  0  0  0  0  0  0  0  0  0  0  0
   55.9369   -4.8233   -9.2721 C   0  0  0  0  0  0  0  0  0  0  0  0
   54.7455   -4.2266   -9.1414 N   0  0  0  0  0  0  0  0  0  0  0  0
   54.1104   -4.1269   -7.9266 C   0  0  0  0  0  0  0  0  0  0  0  0
   54.6788   -4.6433   -6.7914 C   0  0  0  0  0  0  0  0  0  0  0  0
   54.0911   -4.6036   -5.5499 C   0  0  0  0  0  0  0  0  0  0  0  0
   54.6742   -5.1511   -4.4095 C   0  0  0  0  0  0  0  0  0  0  0  0
   55.9119   -5.7623   -4.5636 C   0  0  0  0  0  0  0  0  0  0  0  0
   56.4932   -5.7993   -5.8127 C   0  0  0  0  0  0  0  0  0  0  0  0
   55.9303   -5.2651   -6.9448 C   0  0  0  0  0  0  0  0  0  0  0  0
   56.4802   -5.3203   -8.1521 N   0  0  0  0  0  0  0  0  0  0  0  0
   59.2915   -3.1306  -12.9803 C   0  0  0  0  0  0  0  0  0  0  0  0
   58.2919   -3.6883  -12.1012 N   0  0  0  0  0  0  0  0  0  0  0  0
   58.9013   -4.7321  -11.3064 C   0  0  0  0  0  0  0  0  0  0  0  0
   57.8719   -5.6341  -10.6402 C   0  0  0  0  0  0  0  0  0  0  0  0
   56.5866   -4.9308  -10.5302 N   0  0  0  0  0  0  0  0  0  0  0  0
   56.0496   -4.3721  -11.7537 C   0  0  0  0  0  0  0  0  0  0  0  0
   57.1632   -4.2683  -12.7976 C   0  0  0  0  0  0  0  0  0  0  0  0
   51.6080   -5.1298   -6.4327 C   0  0  0  0  0  0  0  0  0  0  0  0
   51.8262   -6.3922   -6.9176 C   0  0  0  0  0  0  0  0  0  0  0  0
   51.6346   -7.3021   -5.9158 N   0  0  0  0  0  0  0  0  0  0  0  0
   51.2959   -6.6510   -4.7953 C   0  0  0  0  0  0  0  0  0  0  0  0
   50.9952   -7.1127   -3.5401 C   0  0  0  0  0  0  0  0  0  0  0  0
   50.6590   -6.2141   -2.5427 C   0  0  0  0  0  0  0  0  0  0  0  0
   50.6333   -4.8705   -2.8335 C   0  0  0  0  0  0  0  0  0  0  0  0
   50.9417   -4.4281   -4.1103 C   0  0  0  0  0  0  0  0  0  0  0  0
   51.2754   -5.2989   -5.1027 C   0  0  0  0  0  0  0  0  0  0  0  0
   51.7267   -8.3353   -5.9744 H   0  0  0  0  0  0  0  0  0  0  0  0
 19 20  1  0  0  0
 20 21  1  0  0  0
 21 22  1  0  0  0
 22 23  1  0  0  0
 23 24  1  0  0  0
 24 25  1  0  0  0
 23  9  1  0  0  0
  9 10  2  0  0  0
 10 11  1  0  0  0
 11  1  1  0  0  0
  1  2  2  0  0  0
  2  3  1  0  0  0
  3  4  2  0  0  0
  3  5  1  0  0  0
  5  6  1  0  0  0
  6  7  2  0  0  0
  2 26  1  0  0  0
 26 27  2  0  0  0
 27 28  1  0  0  0
 28 29  1  0  0  0
 29 30  2  0  0  0
 30 31  1  0  0  0
 31 32  2  0  0  0
 32 33  1  0  0  0
 33 34  2  0  0  0
 11 12  2  0  0  0
 12 13  1  0  0  0
 13 14  2  0  0  0
 14 15  1  0  0  0
 15 16  2  0  0  0
 16 17  1  0  0  0
 17 18  2  0  0  0
 25 20  1  0  0  0
 18  9  1  0  0  0
  6  1  1  0  0  0
 34 26  1  0  0  0
 17 12  1  0  0  0
 34 29  1  0  0  0
  5  8  1  0  0  0
 28 35  1  0  0  0
M  END
> <minimizedAffinity>
-5.43088

> <CNNscore>
0.4651015103

> <CNNaffinity>
7.0567665100

> <CNN_VS>
3.2821128368

> <CNNaffinity_variance>
0.1818526387

$$$$
[H]c1c([H])c([H])c2c(C3=C(c4c([H])n([H])c5c([H])c([H])c([H])c([H])c45)C(=O)N([H])C3=O)nc(N3C([H])([H])C([H])([H])N(C([H])([H])[H])C([H])([H])C3([H])[H])nc2c1[H]


 35 40  0  0  0  0  0  0  0  0999 V2000
   52.1166   -6.7523   -7.2090 C   0  0  0  0  0  0  0  0  0  0  0  0
   50.8842   -6.5828   -6.7054 C   0  0  0  0  0  0  0  0  0  0  0  0
   49.9389   -7.3635   -7.5010 C   0  0  0  0  0  0  0  0  0  0  0  0
   48.6979   -7.4484   -7.3289 O   0  0  0  0  0  0  0  0  0  0  0  0
   50.6780   -8.0306   -8.5348 N   0  0  0  0  0  0  0  0  0  0  0  0
   52.0336   -7.6506   -8.3542 C   0  0  0  0  0  0  0  0  0  0  0  0
   52.9506   -8.0731   -9.1126 O   0  0  0  0  0  0  0  0  0  0  0  0
   50.2400   -8.6617   -9.2519 H   0  0  0  0  0  0  0  0  0  0  0  0
   55.1003   -6.1876   -5.1114 C   0  0  0  0  0  0  0  0  0  0  0  0
   53.9622   -6.6895   -5.6068 N   0  0  0  0  0  0  0  0  0  0  0  0
   53.3611   -6.1643   -6.7256 C   0  0  0  0  0  0  0  0  0  0  0  0
   53.9095   -5.0930   -7.3814 C   0  0  0  0  0  0  0  0  0  0  0  0
   53.3514   -4.5003   -8.4884 C   0  0  0  0  0  0  0  0  0  0  0  0
   53.9122   -3.3991   -9.1313 C   0  0  0  0  0  0  0  0  0  0  0  0
   55.0948   -2.8947   -8.6056 C   0  0  0  0  0  0  0  0  0  0  0  0
   55.6466   -3.4942   -7.4939 C   0  0  0  0  0  0  0  0  0  0  0  0
   55.1051   -4.5785   -6.8500 C   0  0  0  0  0  0  0  0  0  0  0  0
   55.6249   -5.1422   -5.7660 N   0  0  0  0  0  0  0  0  0  0  0  0
   57.1018   -5.7875   -0.2428 C   0  0  0  0  0  0  0  0  0  0  0  0
   56.6560   -6.0499   -1.5902 N   0  0  0  0  0  0  0  0  0  0  0  0
   55.3063   -6.5682   -1.5411 C   0  0  0  0  0  0  0  0  0  0  0  0
   54.8892   -7.2332   -2.8452 C   0  0  0  0  0  0  0  0  0  0  0  0
   55.7146   -6.7284   -3.9509 N   0  0  0  0  0  0  0  0  0  0  0  0
   57.1497   -6.8164   -3.7776 C   0  0  0  0  0  0  0  0  0  0  0  0
   57.4722   -7.0152   -2.2954 C   0  0  0  0  0  0  0  0  0  0  0  0
   50.5294   -5.7050   -5.5985 C   0  0  0  0  0  0  0  0  0  0  0  0
   50.7358   -6.0071   -4.2784 C   0  0  0  0  0  0  0  0  0  0  0  0
   50.2735   -4.9822   -3.5011 N   0  0  0  0  0  0  0  0  0  0  0  0
   49.7721   -4.0263   -4.2942 C   0  0  0  0  0  0  0  0  0  0  0  0
   49.1896   -2.8217   -3.9967 C   0  0  0  0  0  0  0  0  0  0  0  0
   48.7356   -2.0094   -5.0212 C   0  0  0  0  0  0  0  0  0  0  0  0
   48.8791   -2.4302   -6.3223 C   0  0  0  0  0  0  0  0  0  0  0  0
   49.4720   -3.6524   -6.5977 C   0  0  0  0  0  0  0  0  0  0  0  0
   49.9248   -4.4630   -5.6016 C   0  0  0  0  0  0  0  0  0  0  0  0
   50.2903   -4.9183   -2.4643 H   0  0  0  0  0  0  0  0  0  0  0  0
 19 20  1  0  0  0
 20 21  1  0  0  0
 21 22  1  0  0  0
 22 23  1  0  0  0
 23 24  1  0  0  0
 24 25  1  0  0  0
 23  9  1  0  0  0
  9 10  2  0  0  0
 10 11  1  0  0  0
 11  1  1  0  0  0
  1  2  2  0  0  0
  2  3  1  0  0  0
  3  4  2  0  0  0
  3  5  1  0  0  0
  5  6  1  0  0  0
  6  7  2  0  0  0
  2 26  1  0  0  0
 26 27  2  0  0  0
 27 28  1  0  0  0
 28 29  1  0  0  0
 29 30  2  0  0  0
 30 31  1  0  0  0
 31 32  2  0  0  0
 32 33  1  0  0  0
 33 34  2  0  0  0
 11 12  2  0  0  0
 12 13  1  0  0  0
 13 14  2  0  0  0
 14 15  1  0  0  0
 15 16  2  0  0  0
 16 17  1  0  0  0
 17 18  2  0  0  0
 25 20  1  0  0  0
 18  9  1  0  0  0
  6  1  1  0  0  0
 34 26  1  0  0  0
 17 12  1  0  0  0
 34 29  1  0  0  0
  5  8  1  0  0  0
 28 35  1  0  0  0
M  END
> <minimizedAffinity>
-4.15319

> <CNNscore>
0.4557497203

> <CNNaffinity>
6.8914146423

> <CNN_VS>
3.1407601833

> <CNNaffinity_variance>
0.3846972883

$$$$
[H]c1c([H])c([H])c2c(C3=C(c4c([H])n([H])c5c([H])c([H])c([H])c([H])c45)C(=O)N([H])C3=O)nc(N3C([H])([H])C([H])([H])N(C([H])([H])[H])C([H])([H])C3([H])[H])nc2c1[H]


 35 40  0  0  0  0  0  0  0  0999 V2000
   51.6338   -3.9161   -6.7301 C   0  0  0  0  0  0  0  0  0  0  0  0
   52.7407   -4.3629   -7.3437 C   0  0  0  0  0  0  0  0  0  0  0  0
   52.9518   -3.5823   -8.5611 C   0  0  0  0  0  0  0  0  0  0  0  0
   53.8850   -3.7163   -9.3908 O   0  0  0  0  0  0  0  0  0  0  0  0
   51.8935   -2.6175   -8.6557 N   0  0  0  0  0  0  0  0  0  0  0  0
   51.0723   -2.8246   -7.5166 C   0  0  0  0  0  0  0  0  0  0  0  0
   50.0418   -2.1268   -7.3025 O   0  0  0  0  0  0  0  0  0  0  0  0
   51.8035   -1.9238   -9.4399 H   0  0  0  0  0  0  0  0  0  0  0  0
   51.2677   -5.7994   -3.5773 C   0  0  0  0  0  0  0  0  0  0  0  0
   51.7525   -5.3109   -4.7257 N   0  0  0  0  0  0  0  0  0  0  0  0
   51.0528   -4.4026   -5.4837 C   0  0  0  0  0  0  0  0  0  0  0  0
   49.8171   -3.9605   -5.0884 C   0  0  0  0  0  0  0  0  0  0  0  0
   49.0505   -3.0751   -5.8070 C   0  0  0  0  0  0  0  0  0  0  0  0
   47.7875   -2.6511   -5.4002 C   0  0  0  0  0  0  0  0  0  0  0  0
   47.3028   -3.1653   -4.2045 C   0  0  0  0  0  0  0  0  0  0  0  0
   48.0776   -4.0543   -3.4911 C   0  0  0  0  0  0  0  0  0  0  0  0
   49.3227   -4.4814   -3.8798 C   0  0  0  0  0  0  0  0  0  0  0  0
   50.0597   -5.3547   -3.2037 N   0  0  0  0  0  0  0  0  0  0  0  0
   54.9469   -7.1222   -0.0300 C   0  0  0  0  0  0  0  0  0  0  0  0
   53.9539   -6.9341   -1.0604 N   0  0  0  0  0  0  0  0  0  0  0  0
   52.6445   -6.9102   -0.4460 C   0  0  0  0  0  0  0  0  0  0  0  0
   51.5227   -7.1065   -1.4561 C   0  0  0  0  0  0  0  0  0  0  0  0
   51.9905   -6.7432   -2.8006 N   0  0  0  0  0  0  0  0  0  0  0  0
   53.2009   -7.3922   -3.2602 C   0  0  0  0  0  0  0  0  0  0  0  0
   53.9504   -7.9787   -2.0624 C   0  0  0  0  0  0  0  0  0  0  0  0
   53.5566   -5.4906   -6.9144 C   0  0  0  0  0  0  0  0  0  0  0  0
   53.3899   -6.7758   -7.3581 C   0  0  0  0  0  0  0  0  0  0  0  0
   54.3022   -7.5888   -6.7457 N   0  0  0  0  0  0  0  0  0  0  0  0
   55.0525   -6.8531   -5.9152 C   0  0  0  0  0  0  0  0  0  0  0  0
   56.0813   -7.2038   -5.0799 C   0  0  0  0  0  0  0  0  0  0  0  0
   56.6927   -6.2352   -4.3031 C   0  0  0  0  0  0  0  0  0  0  0  0
   56.2528   -4.9351   -4.3859 C   0  0  0  0  0  0  0  0  0  0  0  0
   55.2110   -4.6052   -5.2384 C   0  0  0  0  0  0  0  0  0  0  0  0
   54.5993   -5.5458   -6.0101 C   0  0  0  0  0  0  0  0  0  0  0  0
   54.4245   -8.6122   -6.8763 H   0  0  0  0  0  0  0  0  0  0  0  0
 19 20  1  0  0  0
 20 21  1  0  0  0
 21 22  1  0  0  0
 22 23  1  0  0  0
 23 24  1  0  0  0
 24 25  1  0  0  0
 23  9  1  0  0  0
  9 10  2  0  0  0
 10 11  1  0  0  0
 11  1  1  0  0  0
  1  2  2  0  0  0
  2  3  1  0  0  0
  3  4  2  0  0  0
  3  5  1  0  0  0
  5  6  1  0  0  0
  6  7  2  0  0  0
  2 26  1  0  0  0
 26 27  2  0  0  0
 27 28  1  0  0  0
 28 29  1  0  0  0
 29 30  2  0  0  0
 30 31  1  0  0  0
 31 32  2  0  0  0
 32 33  1  0  0  0
 33 34  2  0  0  0
 11 12  2  0  0  0
 12 13  1  0  0  0
 13 14  2  0  0  0
 14 15  1  0  0  0
 15 16  2  0  0  0
 16 17  1  0  0  0
 17 18  2  0  0  0
 25 20  1  0  0  0
 18  9  1  0  0  0
  6  1  1  0  0  0
 34 26  1  0  0  0
 17 12  1  0  0  0
 34 29  1  0  0  0
  5  8  1  0  0  0
 28 35  1  0  0  0
M  END
> <minimizedAffinity>
-9.10947

> <CNNscore>
0.4423758984

> <CNNaffinity>
7.2903814316

> <CNN_VS>
3.2250890732

> <CNNaffinity_variance>
0.3650195003

$$$$
[H]c1c([H])c([H])c2c(C3=C(c4c([H])n([H])c5c([H])c([H])c([H])c([H])c45)C(=O)N([H])C3=O)nc(N3C([H])([H])C([H])([H])N(C([H])([H])[H])C([H])([H])C3([H])[H])nc2c1[H]


 35 40  0  0  0  0  0  0  0  0999 V2000
   51.9717   -6.6925   -7.2738 C   0  0  0  0  0  0  0  0  0  0  0  0
   50.8260   -6.4700   -6.6112 C   0  0  0  0  0  0  0  0  0  0  0  0
   49.7391   -7.1567   -7.3064 C   0  0  0  0  0  0  0  0  0  0  0  0
   48.5265   -7.1731   -6.9803 O   0  0  0  0  0  0  0  0  0  0  0  0
   50.2972   -7.8224   -8.4489 N   0  0  0  0  0  0  0  0  0  0  0  0
   51.6868   -7.5338   -8.4297 C   0  0  0  0  0  0  0  0  0  0  0  0
   52.4718   -7.9784   -9.3134 O   0  0  0  0  0  0  0  0  0  0  0  0
   49.7323   -8.3942   -9.1258 H   0  0  0  0  0  0  0  0  0  0  0  0
   55.2788   -6.4825   -5.6490 C   0  0  0  0  0  0  0  0  0  0  0  0
   54.0543   -6.8876   -6.0081 N   0  0  0  0  0  0  0  0  0  0  0  0
   53.3029   -6.2028   -6.9330 C   0  0  0  0  0  0  0  0  0  0  0  0
   53.7841   -5.0649   -7.5266 C   0  0  0  0  0  0  0  0  0  0  0  0
   53.0800   -4.3158   -8.4383 C   0  0  0  0  0  0  0  0  0  0  0  0
   53.5767   -3.1504   -9.0175 C   0  0  0  0  0  0  0  0  0  0  0  0
   54.8501   -2.7479   -8.6359 C   0  0  0  0  0  0  0  0  0  0  0  0
   55.5485   -3.5042   -7.7194 C   0  0  0  0  0  0  0  0  0  0  0  0
   55.0717   -4.6535   -7.1402 C   0  0  0  0  0  0  0  0  0  0  0  0
   55.7356   -5.3700   -6.2408 N   0  0  0  0  0  0  0  0  0  0  0  0
   57.3550   -7.0984   -0.8345 C   0  0  0  0  0  0  0  0  0  0  0  0
   56.9195   -7.0442   -2.2094 N   0  0  0  0  0  0  0  0  0  0  0  0
   55.7231   -7.8451   -2.3505 C   0  0  0  0  0  0  0  0  0  0  0  0
   55.4073   -8.1709   -3.8035 C   0  0  0  0  0  0  0  0  0  0  0  0
   56.0493   -7.1887   -4.6876 N   0  0  0  0  0  0  0  0  0  0  0  0
   57.4741   -6.9970   -4.5129 C   0  0  0  0  0  0  0  0  0  0  0  0
   57.8984   -7.5469   -3.1498 C   0  0  0  0  0  0  0  0  0  0  0  0
   50.6712   -5.6207   -5.4379 C   0  0  0  0  0  0  0  0  0  0  0  0
   49.9607   -4.4497   -5.4223 C   0  0  0  0  0  0  0  0  0  0  0  0
   50.0319   -3.8928   -4.1761 N   0  0  0  0  0  0  0  0  0  0  0  0
   50.7754   -4.6811   -3.3888 C   0  0  0  0  0  0  0  0  0  0  0  0
   51.1437   -4.5533   -2.0746 C   0  0  0  0  0  0  0  0  0  0  0  0
   51.9425   -5.5208   -1.4905 C   0  0  0  0  0  0  0  0  0  0  0  0
   52.3521   -6.5951   -2.2447 C   0  0  0  0  0  0  0  0  0  0  0  0
   51.9661   -6.7023   -3.5716 C   0  0  0  0  0  0  0  0  0  0  0  0
   51.1797   -5.7597   -4.1612 C   0  0  0  0  0  0  0  0  0  0  0  0
   49.5956   -3.0066   -3.8542 H   0  0  0  0  0  0  0  0  0  0  0  0
 19 20  1  0  0  0
 20 21  1  0  0  0
 21 22  1  0  0  0
 22 23  1  0  0  0
 23 24  1  0  0  0
 24 25  1  0  0  0
 23  9  1  0  0  0
  9 10  2  0  0  0
 10 11  1  0  0  0
 11  1  1  0  0  0
  1  2  2  0  0  0
  2  3  1  0  0  0
  3  4  2  0  0  0
  3  5  1  0  0  0
  5  6  1  0  0  0
  6  7  2  0  0  0
  2 26  1  0  0  0
 26 27  2  0  0  0
 27 28  1  0  0  0
 28 29  1  0  0  0
 29 30  2  0  0  0
 30 31  1  0  0  0
 31 32  2  0  0  0
 32 33  1  0  0  0
 33 34  2  0  0  0
 11 12  2  0  0  0
 12 13  1  0  0  0
 13 14  2  0  0  0
 14 15  1  0  0  0
 15 16  2  0  0  0
 16 17  1  0  0  0
 17 18  2  0  0  0
 25 20  1  0  0  0
 18  9  1  0  0  0
  6  1  1  0  0  0
 34 26  1  0  0  0
 17 12  1  0  0  0
 34 29  1  0  0  0
  5  8  1  0  0  0
 28 35  1  0  0  0
M  END
> <minimizedAffinity>
-4.25739

> <CNNscore>
0.3770020604

> <CNNaffinity>
6.6466917992

> <CNN_VS>
2.5058164597

> <CNNaffinity_variance>
0.2507217824

$$$$
[H]c1c([H])c([H])c2c(C3=C(c4c([H])n([H])c5c([H])c([H])c([H])c([H])c45)C(=O)N([H])C3=O)nc(N3C([H])([H])C([H])([H])N(C([H])([H])[H])C([H])([H])C3([H])[H])nc2c1[H]


 35 40  0  0  0  0  0  0  0  0999 V2000
   60.1177   -3.4359  -14.7172 C   0  0  0  0  0  0  0  0  0  0  0  0
   59.1393   -3.7281  -13.8463 C   0  0  0  0  0  0  0  0  0  0  0  0
   57.8673   -3.2593  -14.3924 C   0  0  0  0  0  0  0  0  0  0  0  0
   56.7352   -3.3561  -13.8575 O   0  0  0  0  0  0  0  0  0  0  0  0
   58.1304   -2.6556  -15.6676 N   0  0  0  0  0  0  0  0  0  0  0  0
   59.5310   -2.7646  -15.8706 C   0  0  0  0  0  0  0  0  0  0  0  0
   60.0895   -2.3225  -16.9134 O   0  0  0  0  0  0  0  0  0  0  0  0
   57.3870   -2.2344  -16.2794 H   0  0  0  0  0  0  0  0  0  0  0  0
   63.3113   -5.2803  -14.8604 C   0  0  0  0  0  0  0  0  0  0  0  0
   62.0172   -4.9546  -14.9683 N   0  0  0  0  0  0  0  0  0  0  0  0
   61.5412   -3.7245  -14.5817 C   0  0  0  0  0  0  0  0  0  0  0  0
   62.3836   -2.7758  -14.0629 C   0  0  0  0  0  0  0  0  0  0  0  0
   61.9748   -1.5366  -13.6322 C   0  0  0  0  0  0  0  0  0  0  0  0
   62.8416   -0.5912  -13.0889 C   0  0  0  0  0  0  0  0  0  0  0  0
   64.1810   -0.9452  -12.9887 C   0  0  0  0  0  0  0  0  0  0  0  0
   64.5818   -2.1909  -13.4214 C   0  0  0  0  0  0  0  0  0  0  0  0
   63.7393   -3.1324  -13.9577 C   0  0  0  0  0  0  0  0  0  0  0  0
   64.1218   -4.3405  -14.3540 N   0  0  0  0  0  0  0  0  0  0  0  0
   62.7374  -10.0527  -17.0432 C   0  0  0  0  0  0  0  0  0  0  0  0
   63.0389   -8.8191  -16.3573 N   0  0  0  0  0  0  0  0  0  0  0  0
   63.6610   -7.9070  -17.2920 C   0  0  0  0  0  0  0  0  0  0  0  0
   64.3616   -6.7479  -16.5972 C   0  0  0  0  0  0  0  0  0  0  0  0
   63.7980   -6.5549  -15.2542 N   0  0  0  0  0  0  0  0  0  0  0  0
   63.7729   -7.7179  -14.3914 C   0  0  0  0  0  0  0  0  0  0  0  0
   63.9402   -8.9822  -15.2363 C   0  0  0  0  0  0  0  0  0  0  0  0
   59.3190   -4.3399  -12.5366 C   0  0  0  0  0  0  0  0  0  0  0  0
   60.4653   -4.9707  -12.1312 C   0  0  0  0  0  0  0  0  0  0  0  0
   60.2955   -5.4480  -10.8617 N   0  0  0  0  0  0  0  0  0  0  0  0
   59.0619   -5.1383  -10.4416 C   0  0  0  0  0  0  0  0  0  0  0  0
   58.4194   -5.4015   -9.2597 C   0  0  0  0  0  0  0  0  0  0  0  0
   57.1157   -4.9732   -9.0793 C   0  0  0  0  0  0  0  0  0  0  0  0
   56.4894   -4.2898  -10.0948 C   0  0  0  0  0  0  0  0  0  0  0  0
   57.1604   -4.0354  -11.2806 C   0  0  0  0  0  0  0  0  0  0  0  0
   58.4434   -4.4490  -11.4738 C   0  0  0  0  0  0  0  0  0  0  0  0
   60.9848   -5.9693  -10.2852 H   0  0  0  0  0  0  0  0  0  0  0  0
 19 20  1  0  0  0
 20 21  1  0  0  0
 21 22  1  0  0  0
 22 23  1  0  0  0
 23 24  1  0  0  0
 24 25  1  0  0  0
 23  9  1  0  0  0
  9 10  2  0  0  0
 10 11  1  0  0  0
 11  1  1  0  0  0
  1  2  2  0  0  0
  2  3  1  0  0  0
  3  4  2  0  0  0
  3  5  1  0  0  0
  5  6  1  0  0  0
  6  7  2  0  0  0
  2 26  1  0  0  0
 26 27  2  0  0  0
 27 28  1  0  0  0
 28 29  1  0  0  0
 29 30  2  0  0  0
 30 31  1  0  0  0
 31 32  2  0  0  0
 32 33  1  0  0  0
 33 34  2  0  0  0
 11 12  2  0  0  0
 12 13  1  0  0  0
 13 14  2  0  0  0
 14 15  1  0  0  0
 15 16  2  0  0  0
 16 17  1  0  0  0
 17 18  2  0  0  0
 25 20  1  0  0  0
 18  9  1  0  0  0
  6  1  1  0  0  0
 34 26  1  0  0  0
 17 12  1  0  0  0
 34 29  1  0  0  0
  5  8  1  0  0  0
 28 35  1  0  0  0
M  END
> <minimizedAffinity>
-3.66626

> <CNNscore>
0.3587789834

> <CNNaffinity>
4.9997625351

> <CNN_VS>
1.7938097715

> <CNNaffinity_variance>
0.0437081791

$$$$
[H]c1c([H])c([H])c(-c2c(-c3c([H])c([H])c([H])c([H])c3OC([H])([H])[H])nc(C3([H])C([H])([H])C([H])([H])N(C(=O)c4c([H])c(OC([H])([H])[H])c(OC([H])([H])[H])c(OC([H])([H])[H])c4[H])C([H])([H])C3([H])[H])n2[H])c([H])c1[H]


 40 44  0  0  0  0  0  0  0  0999 V2000
   60.3059   -4.0443  -12.8505 C   0  0  0  0  0  0  0  0  0  0  0  0
   60.5325   -2.8927  -13.4541 O   0  0  0  0  0  0  0  0  0  0  0  0
   58.9786   -4.1997  -12.4649 N   0  0  0  0  0  0  0  0  0  0  0  0
   58.0572   -3.0559  -12.7446 C   0  0  0  0  0  0  0  0  0  0  0  0
   57.1580   -2.9572  -11.5374 C   0  0  0  0  0  0  0  0  0  0  0  0
   56.1743   -4.1369  -11.5927 C   0  0  0  0  0  0  0  0  0  0  0  0
   56.8657   -5.3713  -12.0513 C   0  0  0  0  0  0  0  0  0  0  0  0
   58.3907   -5.3378  -11.8663 C   0  0  0  0  0  0  0  0  0  0  0  0
   62.8187   -6.5859  -11.6292 C   0  0  0  0  0  0  0  0  0  0  0  0
   61.7113   -5.7419  -11.6542 C   0  0  0  0  0  0  0  0  0  0  0  0
   61.4422   -4.9179  -12.7024 C   0  0  0  0  0  0  0  0  0  0  0  0
   62.3512   -4.9598  -13.7727 C   0  0  0  0  0  0  0  0  0  0  0  0
   63.4364   -5.7881  -13.7478 C   0  0  0  0  0  0  0  0  0  0  0  0
   63.7011   -6.6250  -12.6739 C   0  0  0  0  0  0  0  0  0  0  0  0
   62.0874   -7.4464   -9.4991 C   0  0  0  0  0  0  0  0  0  0  0  0
   63.0656   -7.4268  -10.5300 O   0  0  0  0  0  0  0  0  0  0  0  0
   64.3174   -5.8092  -14.8169 O   0  0  0  0  0  0  0  0  0  0  0  0
   64.9167   -4.6332  -15.2655 C   0  0  0  0  0  0  0  0  0  0  0  0
   64.7941   -7.4740  -12.6211 O   0  0  0  0  0  0  0  0  0  0  0  0
   64.5798   -8.8124  -13.0934 C   0  0  0  0  0  0  0  0  0  0  0  0
   55.5633   -4.3484  -10.2642 C   0  0  0  0  0  0  0  0  0  0  0  0
   54.2745   -4.1563   -9.9330 N   0  0  0  0  0  0  0  0  0  0  0  0
   54.0447   -4.4305   -8.6600 C   0  0  0  0  0  0  0  0  0  0  0  0
   55.2806   -4.8287   -8.1321 C   0  0  0  0  0  0  0  0  0  0  0  0
   56.1680   -4.7638   -9.1368 N   0  0  0  0  0  0  0  0  0  0  0  0
   57.1855   -4.9961   -9.0812 H   0  0  0  0  0  0  0  0  0  0  0  0
   55.5203   -5.2314   -6.7612 C   0  0  0  0  0  0  0  0  0  0  0  0
   55.7495   -4.2694   -5.7997 C   0  0  0  0  0  0  0  0  0  0  0  0
   55.9864   -4.6586   -4.4836 C   0  0  0  0  0  0  0  0  0  0  0  0
   55.9977   -5.9869   -4.1150 C   0  0  0  0  0  0  0  0  0  0  0  0
   55.7674   -6.9348   -5.0846 C   0  0  0  0  0  0  0  0  0  0  0  0
   55.5312   -6.5580   -6.3924 C   0  0  0  0  0  0  0  0  0  0  0  0
   52.8335   -4.3727   -7.8590 C   0  0  0  0  0  0  0  0  0  0  0  0
   52.4504   -5.4422   -7.0450 C   0  0  0  0  0  0  0  0  0  0  0  0
   51.2957   -5.3629   -6.3037 C   0  0  0  0  0  0  0  0  0  0  0  0
   50.5426   -4.2114   -6.3901 C   0  0  0  0  0  0  0  0  0  0  0  0
   50.9288   -3.1429   -7.2054 C   0  0  0  0  0  0  0  0  0  0  0  0
   52.0867   -3.2157   -7.9531 C   0  0  0  0  0  0  0  0  0  0  0  0
   52.4963   -2.1651   -8.7759 O   0  0  0  0  0  0  0  0  0  0  0  0
   53.6695   -1.4312   -8.6245 C   0  0  0  0  0  0  0  0  0  0  0  0
 15 16  1  0  0  0
 16  9  1  0  0  0
  9 10  2  0  0  0
 10 11  1  0  0  0
 11 12  2  0  0  0
 12 13  1  0  0  0
 13 17  1  0  0  0
 17 18  1  0  0  0
 13 14  2  0  0  0
 14 19  1  0  0  0
 19 20  1  0  0  0
 11  1  1  0  0  0
  1  2  2  0  0  0
  1  3  1  0  0  0
  3  4  1  0  0  0
  4  5  1  0  0  0
  5  6  1  0  0  0
  6  7  1  0  0  0
  7  8  1  0  0  0
  6 21  1  0  0  0
 21 22  2  0  0  0
 22 23  1  0  0  0
 23 24  2  0  0  0
 24 25  1  0  0  0
 24 27  1  0  0  0
 27 28  2  0  0  0
 28 29  1  0  0  0
 29 30  2  0  0  0
 30 31  1  0  0  0
 31 32  2  0  0  0
 23 33  1  0  0  0
 33 34  2  0  0  0
 34 35  1  0  0  0
 35 36  2  0  0  0
 36 37  1  0  0  0
 37 38  2  0  0  0
 38 39  1  0  0  0
 39 40  1  0  0  0
 14  9  1  0  0  0
  8  3  1  0  0  0
 25 21  1  0  0  0
 32 27  1  0  0  0
 38 33  1  0  0  0
 25 26  1  0  0  0
M  END
> <minimizedAffinity>
-4.11557

> <CNNscore>
0.3779398203

> <CNNaffinity>
6.8163576126

> <CNN_VS>
2.5761730671

> <CNNaffinity_variance>
0.5212810636

$$$$
[H]c1c([H])c([H])c(-c2c(-c3c([H])c([H])c([H])c([H])c3OC([H])([H])[H])nc(C3([H])C([H])([H])C([H])([H])N(C(=O)c4c([H])c(OC([H])([H])[H])c(OC([H])([H])[H])c(OC([H])([H])[H])c4[H])C([H])([H])C3([H])[H])n2[H])c([H])c1[H]


 40 44  0  0  0  0  0  0  0  0999 V2000
   60.1237   -4.0197  -12.7239 C   0  0  0  0  0  0  0  0  0  0  0  0
   60.3292   -2.8360  -13.2704 O   0  0  0  0  0  0  0  0  0  0  0  0
   58.8228   -4.1812  -12.2591 N   0  0  0  0  0  0  0  0  0  0  0  0
   57.9047   -3.0101  -12.4053 C   0  0  0  0  0  0  0  0  0  0  0  0
   57.0904   -2.9746  -11.1359 C   0  0  0  0  0  0  0  0  0  0  0  0
   56.0849   -4.1355  -11.1959 C   0  0  0  0  0  0  0  0  0  0  0  0
   56.7224   -5.3481  -11.7748 C   0  0  0  0  0  0  0  0  0  0  0  0
   58.2567   -5.3463  -11.6924 C   0  0  0  0  0  0  0  0  0  0  0  0
   63.2496   -5.9655  -13.5653 C   0  0  0  0  0  0  0  0  0  0  0  0
   62.1624   -5.1058  -13.6998 C   0  0  0  0  0  0  0  0  0  0  0  0
   61.2521   -4.9157  -12.7071 C   0  0  0  0  0  0  0  0  0  0  0  0
   61.4654   -5.6416  -11.5235 C   0  0  0  0  0  0  0  0  0  0  0  0
   62.5321   -6.4838  -11.3922 C   0  0  0  0  0  0  0  0  0  0  0  0
   63.4549   -6.6699  -12.4107 C   0  0  0  0  0  0  0  0  0  0  0  0
   63.9911   -7.2656  -15.4554 C   0  0  0  0  0  0  0  0  0  0  0  0
   64.1731   -6.1367  -14.6114 O   0  0  0  0  0  0  0  0  0  0  0  0
   62.7186   -7.1882  -10.2137 O   0  0  0  0  0  0  0  0  0  0  0  0
   62.5090   -6.5743   -8.9797 C   0  0  0  0  0  0  0  0  0  0  0  0
   64.5449   -7.5180  -12.3056 O   0  0  0  0  0  0  0  0  0  0  0  0
   65.7113   -6.9745  -11.6699 C   0  0  0  0  0  0  0  0  0  0  0  0
   55.5609   -4.4208   -9.8442 C   0  0  0  0  0  0  0  0  0  0  0  0
   54.2699   -4.4301   -9.4686 N   0  0  0  0  0  0  0  0  0  0  0  0
   54.1301   -4.7178   -8.1855 C   0  0  0  0  0  0  0  0  0  0  0  0
   55.4308   -4.9073   -7.6988 C   0  0  0  0  0  0  0  0  0  0  0  0
   56.2619   -4.7181   -8.7355 N   0  0  0  0  0  0  0  0  0  0  0  0
   57.3047   -4.7855   -8.7143 H   0  0  0  0  0  0  0  0  0  0  0  0
   55.7781   -5.2460   -6.3336 C   0  0  0  0  0  0  0  0  0  0  0  0
   55.7378   -4.2706   -5.3593 C   0  0  0  0  0  0  0  0  0  0  0  0
   56.0783   -4.5964   -4.0488 C   0  0  0  0  0  0  0  0  0  0  0  0
   56.4563   -5.8750   -3.6982 C   0  0  0  0  0  0  0  0  0  0  0  0
   56.4916   -6.8371   -4.6805 C   0  0  0  0  0  0  0  0  0  0  0  0
   56.1552   -6.5231   -5.9829 C   0  0  0  0  0  0  0  0  0  0  0  0
   52.9531   -4.8402   -7.3419 C   0  0  0  0  0  0  0  0  0  0  0  0
   52.7598   -5.9569   -6.5242 C   0  0  0  0  0  0  0  0  0  0  0  0
   51.6333   -6.0496   -5.7420 C   0  0  0  0  0  0  0  0  0  0  0  0
   50.7177   -5.0203   -5.7920 C   0  0  0  0  0  0  0  0  0  0  0  0
   50.9142   -3.9041   -6.6113 C   0  0  0  0  0  0  0  0  0  0  0  0
   52.0426   -3.8044   -7.3998 C   0  0  0  0  0  0  0  0  0  0  0  0
   52.2646   -2.7025   -8.2275 O   0  0  0  0  0  0  0  0  0  0  0  0
   51.3551   -1.6761   -8.4665 C   0  0  0  0  0  0  0  0  0  0  0  0
 15 16  1  0  0  0
 16  9  1  0  0  0
  9 10  2  0  0  0
 10 11  1  0  0  0
 11 12  2  0  0  0
 12 13  1  0  0  0
 13 17  1  0  0  0
 17 18  1  0  0  0
 13 14  2  0  0  0
 14 19  1  0  0  0
 19 20  1  0  0  0
 11  1  1  0  0  0
  1  2  2  0  0  0
  1  3  1  0  0  0
  3  4  1  0  0  0
  4  5  1  0  0  0
  5  6  1  0  0  0
  6  7  1  0  0  0
  7  8  1  0  0  0
  6 21  1  0  0  0
 21 22  2  0  0  0
 22 23  1  0  0  0
 23 24  2  0  0  0
 24 25  1  0  0  0
 24 27  1  0  0  0
 27 28  2  0  0  0
 28 29  1  0  0  0
 29 30  2  0  0  0
 30 31  1  0  0  0
 31 32  2  0  0  0
 23 33  1  0  0  0
 33 34  2  0  0  0
 34 35  1  0  0  0
 35 36  2  0  0  0
 36 37  1  0  0  0
 37 38  2  0  0  0
 38 39  1  0  0  0
 39 40  1  0  0  0
 14  9  1  0  0  0
  8  3  1  0  0  0
 25 21  1  0  0  0
 32 27  1  0  0  0
 38 33  1  0  0  0
 25 26  1  0  0  0
M  END
> <minimizedAffinity>
-3.97027

> <CNNscore>
0.2587593496

> <CNNaffinity>
6.6615395546

> <CNN_VS>
1.7237356901

> <CNNaffinity_variance>
0.1995686293

$$$$
[H]c1c([H])c([H])c(-c2c(-c3c([H])c([H])c([H])c([H])c3OC([H])([H])[H])nc(C3([H])C([H])([H])C([H])([H])N(C(=O)c4c([H])c(OC([H])([H])[H])c(OC([H])([H])[H])c(OC([H])([H])[H])c4[H])C([H])([H])C3([H])[H])n2[H])c([H])c1[H]


 40 44  0  0  0  0  0  0  0  0999 V2000
   63.2735   -9.8288   -9.3030 C   0  0  0  0  0  0  0  0  0  0  0  0
   63.4406  -10.5320   -8.1986 O   0  0  0  0  0  0  0  0  0  0  0  0
   62.6244   -8.6192   -9.0797 N   0  0  0  0  0  0  0  0  0  0  0  0
   62.1913   -8.3356   -7.6770 C   0  0  0  0  0  0  0  0  0  0  0  0
   60.8374   -7.6812   -7.7970 C   0  0  0  0  0  0  0  0  0  0  0  0
   61.0560   -6.2536   -8.3229 C   0  0  0  0  0  0  0  0  0  0  0  0
   62.1136   -6.2393   -9.3685 C   0  0  0  0  0  0  0  0  0  0  0  0
   62.3573   -7.6054  -10.0284 C   0  0  0  0  0  0  0  0  0  0  0  0
   64.9991  -10.4809  -12.5987 C   0  0  0  0  0  0  0  0  0  0  0  0
   64.5136   -9.8048  -11.4824 C   0  0  0  0  0  0  0  0  0  0  0  0
   63.7816  -10.4200  -10.5149 C   0  0  0  0  0  0  0  0  0  0  0  0
   63.5347  -11.7902  -10.7018 C   0  0  0  0  0  0  0  0  0  0  0  0
   64.0118  -12.4526  -11.7964 C   0  0  0  0  0  0  0  0  0  0  0  0
   64.7579  -11.8157  -12.7769 C   0  0  0  0  0  0  0  0  0  0  0  0
   65.2266   -8.5950  -14.0834 C   0  0  0  0  0  0  0  0  0  0  0  0
   65.7548   -9.8142  -13.5791 O   0  0  0  0  0  0  0  0  0  0  0  0
   63.7532  -13.8043  -11.9561 O   0  0  0  0  0  0  0  0  0  0  0  0
   62.4487  -14.2905  -11.8832 C   0  0  0  0  0  0  0  0  0  0  0  0
   65.2531  -12.4618  -13.8974 O   0  0  0  0  0  0  0  0  0  0  0  0
   64.2818  -12.8832  -14.8665 C   0  0  0  0  0  0  0  0  0  0  0  0
   59.7899   -5.7130   -8.8592 C   0  0  0  0  0  0  0  0  0  0  0  0
   58.6913   -5.3911   -8.1541 N   0  0  0  0  0  0  0  0  0  0  0  0
   57.7215   -4.9363   -8.9294 C   0  0  0  0  0  0  0  0  0  0  0  0
   58.2357   -4.9688  -10.2329 C   0  0  0  0  0  0  0  0  0  0  0  0
   59.4874   -5.4445  -10.1419 N   0  0  0  0  0  0  0  0  0  0  0  0
   60.1526   -5.5947  -10.9340 H   0  0  0  0  0  0  0  0  0  0  0  0
   57.5278   -4.5569  -11.4280 C   0  0  0  0  0  0  0  0  0  0  0  0
   58.2165   -3.9278  -12.4440 C   0  0  0  0  0  0  0  0  0  0  0  0
   57.5331   -3.5266  -13.5893 C   0  0  0  0  0  0  0  0  0  0  0  0
   56.1794   -3.7431  -13.7347 C   0  0  0  0  0  0  0  0  0  0  0  0
   55.5060   -4.3717  -12.7132 C   0  0  0  0  0  0  0  0  0  0  0  0
   56.1757   -4.7734  -11.5738 C   0  0  0  0  0  0  0  0  0  0  0  0
   56.3763   -4.4751   -8.6300 C   0  0  0  0  0  0  0  0  0  0  0  0
   55.8098   -3.3968   -9.3152 C   0  0  0  0  0  0  0  0  0  0  0  0
   54.5379   -2.9773   -9.0060 C   0  0  0  0  0  0  0  0  0  0  0  0
   53.8534   -3.6462   -8.0138 C   0  0  0  0  0  0  0  0  0  0  0  0
   54.4230   -4.7249   -7.3301 C   0  0  0  0  0  0  0  0  0  0  0  0
   55.6999   -5.1514   -7.6348 C   0  0  0  0  0  0  0  0  0  0  0  0
   56.2938   -6.2246   -6.9685 O   0  0  0  0  0  0  0  0  0  0  0  0
   56.5522   -6.2832   -5.6019 C   0  0  0  0  0  0  0  0  0  0  0  0
 15 16  1  0  0  0
 16  9  1  0  0  0
  9 10  2  0  0  0
 10 11  1  0  0  0
 11 12  2  0  0  0
 12 13  1  0  0  0
 13 17  1  0  0  0
 17 18  1  0  0  0
 13 14  2  0  0  0
 14 19  1  0  0  0
 19 20  1  0  0  0
 11  1  1  0  0  0
  1  2  2  0  0  0
  1  3  1  0  0  0
  3  4  1  0  0  0
  4  5  1  0  0  0
  5  6  1  0  0  0
  6  7  1  0  0  0
  7  8  1  0  0  0
  6 21  1  0  0  0
 21 22  2  0  0  0
 22 23  1  0  0  0
 23 24  2  0  0  0
 24 25  1  0  0  0
 24 27  1  0  0  0
 27 28  2  0  0  0
 28 29  1  0  0  0
 29 30  2  0  0  0
 30 31  1  0  0  0
 31 32  2  0  0  0
 23 33  1  0  0  0
 33 34  2  0  0  0
 34 35  1  0  0  0
 35 36  2  0  0  0
 36 37  1  0  0  0
 37 38  2  0  0  0
 38 39  1  0  0  0
 39 40  1  0  0  0
 14  9  1  0  0  0
  8  3  1  0  0  0
 25 21  1  0  0  0
 32 27  1  0  0  0
 38 33  1  0  0  0
 25 26  1  0  0  0
M  END
> <minimizedAffinity>
-5.39606

> <CNNscore>
0.2107081860

> <CNNaffinity>
5.9843382835

> <CNN_VS>
1.2609490156

> <CNNaffinity_variance>
0.1433497667

$$$$
[H]c1c([H])c([H])c(-c2c(-c3c([H])c([H])c([H])c([H])c3OC([H])([H])[H])nc(C3([H])C([H])([H])C([H])([H])N(C(=O)c4c([H])c(OC([H])([H])[H])c(OC([H])([H])[H])c(OC([H])([H])[H])c4[H])C([H])([H])C3([H])[H])n2[H])c([H])c1[H]


 40 44  0  0  0  0  0  0  0  0999 V2000
   58.7720   -4.9991  -10.4857 C   0  0  0  0  0  0  0  0  0  0  0  0
   59.8085   -5.8106  -10.3891 O   0  0  0  0  0  0  0  0  0  0  0  0
   58.1182   -4.8118   -9.2725 N   0  0  0  0  0  0  0  0  0  0  0  0
   58.6473   -5.5704   -8.0977 C   0  0  0  0  0  0  0  0  0  0  0  0
   57.4310   -6.0230   -7.3284 C   0  0  0  0  0  0  0  0  0  0  0  0
   56.8378   -4.7897   -6.6289 C   0  0  0  0  0  0  0  0  0  0  0  0
   56.8966   -3.6037   -7.5244 C   0  0  0  0  0  0  0  0  0  0  0  0
   57.0249   -3.9530   -9.0152 C   0  0  0  0  0  0  0  0  0  0  0  0
   59.0413   -3.3755  -13.8852 C   0  0  0  0  0  0  0  0  0  0  0  0
   59.3865   -3.8183  -12.6109 C   0  0  0  0  0  0  0  0  0  0  0  0
   58.5072   -4.4608  -11.7958 C   0  0  0  0  0  0  0  0  0  0  0  0
   57.2147   -4.6561  -12.3102 C   0  0  0  0  0  0  0  0  0  0  0  0
   56.8772   -4.2223  -13.5601 C   0  0  0  0  0  0  0  0  0  0  0  0
   57.7819   -3.5686  -14.3834 C   0  0  0  0  0  0  0  0  0  0  0  0
   61.3507   -2.9088  -14.3964 C   0  0  0  0  0  0  0  0  0  0  0  0
   59.9762   -2.7165  -14.7025 O   0  0  0  0  0  0  0  0  0  0  0  0
   55.5948   -4.4278  -14.0428 O   0  0  0  0  0  0  0  0  0  0  0  0
   55.2061   -5.6815  -14.5123 C   0  0  0  0  0  0  0  0  0  0  0  0
   57.4669   -3.1169  -15.6543 O   0  0  0  0  0  0  0  0  0  0  0  0
   57.6779   -4.0467  -16.7273 C   0  0  0  0  0  0  0  0  0  0  0  0
   55.4443   -5.0618   -6.2201 C   0  0  0  0  0  0  0  0  0  0  0  0
   55.0287   -5.4792   -5.0115 N   0  0  0  0  0  0  0  0  0  0  0  0
   53.7164   -5.6354   -4.9665 C   0  0  0  0  0  0  0  0  0  0  0  0
   53.2529   -5.2927   -6.2441 C   0  0  0  0  0  0  0  0  0  0  0  0
   54.3312   -4.9528   -6.9672 N   0  0  0  0  0  0  0  0  0  0  0  0
   54.3359   -4.6446   -7.9659 H   0  0  0  0  0  0  0  0  0  0  0  0
   51.8681   -5.3086   -6.6699 C   0  0  0  0  0  0  0  0  0  0  0  0
   51.1758   -4.1206   -6.7779 C   0  0  0  0  0  0  0  0  0  0  0  0
   49.8428   -4.1383   -7.1809 C   0  0  0  0  0  0  0  0  0  0  0  0
   49.1941   -5.3183   -7.4763 C   0  0  0  0  0  0  0  0  0  0  0  0
   49.8973   -6.4950   -7.3641 C   0  0  0  0  0  0  0  0  0  0  0  0
   51.2199   -6.4870   -6.9655 C   0  0  0  0  0  0  0  0  0  0  0  0
   52.8268   -6.0623   -3.8995 C   0  0  0  0  0  0  0  0  0  0  0  0
   51.6495   -5.3653   -3.6143 C   0  0  0  0  0  0  0  0  0  0  0  0
   50.8305   -5.7875   -2.5944 C   0  0  0  0  0  0  0  0  0  0  0  0
   51.2049   -6.9029   -1.8760 C   0  0  0  0  0  0  0  0  0  0  0  0
   52.3836   -7.5982   -2.1641 C   0  0  0  0  0  0  0  0  0  0  0  0
   53.2112   -7.1797   -3.1863 C   0  0  0  0  0  0  0  0  0  0  0  0
   54.3938   -7.8538   -3.4957 O   0  0  0  0  0  0  0  0  0  0  0  0
   55.3996   -8.1771   -2.5892 C   0  0  0  0  0  0  0  0  0  0  0  0
 15 16  1  0  0  0
 16  9  1  0  0  0
  9 10  2  0  0  0
 10 11  1  0  0  0
 11 12  2  0  0  0
 12 13  1  0  0  0
 13 17  1  0  0  0
 17 18  1  0  0  0
 13 14  2  0  0  0
 14 19  1  0  0  0
 19 20  1  0  0  0
 11  1  1  0  0  0
  1  2  2  0  0  0
  1  3  1  0  0  0
  3  4  1  0  0  0
  4  5  1  0  0  0
  5  6  1  0  0  0
  6  7  1  0  0  0
  7  8  1  0  0  0
  6 21  1  0  0  0
 21 22  2  0  0  0
 22 23  1  0  0  0
 23 24  2  0  0  0
 24 25  1  0  0  0
 24 27  1  0  0  0
 27 28  2  0  0  0
 28 29  1  0  0  0
 29 30  2  0  0  0
 30 31  1  0  0  0
 31 32  2  0  0  0
 23 33  1  0  0  0
 33 34  2  0  0  0
 34 35  1  0  0  0
 35 36  2  0  0  0
 36 37  1  0  0  0
 37 38  2  0  0  0
 38 39  1  0  0  0
 39 40  1  0  0  0
 14  9  1  0  0  0
  8  3  1  0  0  0
 25 21  1  0  0  0
 32 27  1  0  0  0
 38 33  1  0  0  0
 25 26  1  0  0  0
M  END
> <minimizedAffinity>
-5.06730

> <CNNscore>
0.1835634112

> <CNNaffinity>
6.6634688377

> <CNN_VS>
1.2231690884

> <CNNaffinity_variance>
0.1717672944

$$$$
[H]c1c([H])c([H])c(-c2c(-c3c([H])c([H])c([H])c([H])c3OC([H])([H])[H])nc(C3([H])C([H])([H])C([H])([H])N(C(=O)c4c([H])c(OC([H])([H])[H])c(OC([H])([H])[H])c(OC([H])([H])[H])c4[H])C([H])([H])C3([H])[H])n2[H])c([H])c1[H]


 40 44  0  0  0  0  0  0  0  0999 V2000
   58.7499   -5.0228  -10.5056 C   0  0  0  0  0  0  0  0  0  0  0  0
   59.8066   -5.8052  -10.3904 O   0  0  0  0  0  0  0  0  0  0  0  0
   58.0942   -4.8196   -9.2959 N   0  0  0  0  0  0  0  0  0  0  0  0
   58.6447   -5.5331   -8.1028 C   0  0  0  0  0  0  0  0  0  0  0  0
   57.4419   -5.9954   -7.3184 C   0  0  0  0  0  0  0  0  0  0  0  0
   56.8194   -4.7591   -6.6502 C   0  0  0  0  0  0  0  0  0  0  0  0
   56.8464   -3.5963   -7.5771 C   0  0  0  0  0  0  0  0  0  0  0  0
   56.9802   -3.9819   -9.0584 C   0  0  0  0  0  0  0  0  0  0  0  0
   57.0914   -3.9838  -13.7359 C   0  0  0  0  0  0  0  0  0  0  0  0
   57.2686   -4.5338  -12.4690 C   0  0  0  0  0  0  0  0  0  0  0  0
   58.4688   -4.5264  -11.8288 C   0  0  0  0  0  0  0  0  0  0  0  0
   59.5360   -3.9295  -12.5201 C   0  0  0  0  0  0  0  0  0  0  0  0
   59.3613   -3.3897  -13.7621 C   0  0  0  0  0  0  0  0  0  0  0  0
   58.1328   -3.4021  -14.4058 C   0  0  0  0  0  0  0  0  0  0  0  0
   55.3946   -5.2558  -14.8828 C   0  0  0  0  0  0  0  0  0  0  0  0
   55.8358   -4.0067  -14.3679 O   0  0  0  0  0  0  0  0  0  0  0  0
   60.4315   -2.8073  -14.4219 O   0  0  0  0  0  0  0  0  0  0  0  0
   61.5774   -3.5482  -14.7069 C   0  0  0  0  0  0  0  0  0  0  0  0
   57.9271   -2.8635  -15.6651 O   0  0  0  0  0  0  0  0  0  0  0  0
   58.2064   -3.7274  -16.7768 C   0  0  0  0  0  0  0  0  0  0  0  0
   55.4341   -5.0550   -6.2304 C   0  0  0  0  0  0  0  0  0  0  0  0
   55.0322   -5.4544   -5.0111 N   0  0  0  0  0  0  0  0  0  0  0  0
   53.7241   -5.6408   -4.9578 C   0  0  0  0  0  0  0  0  0  0  0  0
   53.2487   -5.3388   -6.2413 C   0  0  0  0  0  0  0  0  0  0  0  0
   54.3164   -4.9899   -6.9758 N   0  0  0  0  0  0  0  0  0  0  0  0
   54.3107   -4.7046   -7.9813 H   0  0  0  0  0  0  0  0  0  0  0  0
   51.8635   -5.3976   -6.6617 C   0  0  0  0  0  0  0  0  0  0  0  0
   51.1216   -4.2366   -6.7243 C   0  0  0  0  0  0  0  0  0  0  0  0
   49.7882   -4.2959   -7.1221 C   0  0  0  0  0  0  0  0  0  0  0  0
   49.1877   -5.4908   -7.4570 C   0  0  0  0  0  0  0  0  0  0  0  0
   49.9402   -6.6402   -7.3899 C   0  0  0  0  0  0  0  0  0  0  0  0
   51.2635   -6.5909   -6.9967 C   0  0  0  0  0  0  0  0  0  0  0  0
   52.8482   -6.0642   -3.8782 C   0  0  0  0  0  0  0  0  0  0  0  0
   51.7022   -5.3366   -3.5463 C   0  0  0  0  0  0  0  0  0  0  0  0
   50.8957   -5.7565   -2.5154 C   0  0  0  0  0  0  0  0  0  0  0  0
   51.2513   -6.9004   -1.8331 C   0  0  0  0  0  0  0  0  0  0  0  0
   52.3987   -7.6263   -2.1679 C   0  0  0  0  0  0  0  0  0  0  0  0
   53.2135   -7.2104   -3.2015 C   0  0  0  0  0  0  0  0  0  0  0  0
   54.3651   -7.9147   -3.5571 O   0  0  0  0  0  0  0  0  0  0  0  0
   55.4682   -8.1264   -2.7348 C   0  0  0  0  0  0  0  0  0  0  0  0
 15 16  1  0  0  0
 16  9  1  0  0  0
  9 10  2  0  0  0
 10 11  1  0  0  0
 11 12  2  0  0  0
 12 13  1  0  0  0
 13 17  1  0  0  0
 17 18  1  0  0  0
 13 14  2  0  0  0
 14 19  1  0  0  0
 19 20  1  0  0  0
 11  1  1  0  0  0
  1  2  2  0  0  0
  1  3  1  0  0  0
  3  4  1  0  0  0
  4  5  1  0  0  0
  5  6  1  0  0  0
  6  7  1  0  0  0
  7  8  1  0  0  0
  6 21  1  0  0  0
 21 22  2  0  0  0
 22 23  1  0  0  0
 23 24  2  0  0  0
 24 25  1  0  0  0
 24 27  1  0  0  0
 27 28  2  0  0  0
 28 29  1  0  0  0
 29 30  2  0  0  0
 30 31  1  0  0  0
 31 32  2  0  0  0
 23 33  1  0  0  0
 33 34  2  0  0  0
 34 35  1  0  0  0
 35 36  2  0  0  0
 36 37  1  0  0  0
 37 38  2  0  0  0
 38 39  1  0  0  0
 39 40  1  0  0  0
 14  9  1  0  0  0
  8  3  1  0  0  0
 25 21  1  0  0  0
 32 27  1  0  0  0
 38 33  1  0  0  0
 25 26  1  0  0  0
M  END
> <minimizedAffinity>
-5.75533

> <CNNscore>
0.1504602730

> <CNNaffinity>
6.6258382797

> <CNN_VS>
0.9969254136

> <CNNaffinity_variance>
0.1481262743

$$$$
[H]c1c([H])c([H])c(-c2c(-c3c([H])c([H])c([H])c([H])c3OC([H])([H])[H])nc(C3([H])C([H])([H])C([H])([H])N(C(=O)c4c([H])c(OC([H])([H])[H])c(OC([H])([H])[H])c(OC([H])([H])[H])c4[H])C([H])([H])C3([H])[H])n2[H])c([H])c1[H]


 40 44  0  0  0  0  0  0  0  0999 V2000
   54.6000   -4.9672   -8.5686 C   0  0  0  0  0  0  0  0  0  0  0  0
   54.0162   -4.6706   -9.7146 O   0  0  0  0  0  0  0  0  0  0  0  0
   55.9883   -4.9318   -8.6450 N   0  0  0  0  0  0  0  0  0  0  0  0
   56.5820   -4.6186   -9.9811 C   0  0  0  0  0  0  0  0  0  0  0  0
   57.7818   -5.5237  -10.1119 C   0  0  0  0  0  0  0  0  0  0  0  0
   58.8765   -4.9824   -9.1786 C   0  0  0  0  0  0  0  0  0  0  0  0
   58.2851   -4.5187   -7.8951 C   0  0  0  0  0  0  0  0  0  0  0  0
   56.9071   -5.1251   -7.5878 C   0  0  0  0  0  0  0  0  0  0  0  0
   53.1109   -6.1644   -5.3107 C   0  0  0  0  0  0  0  0  0  0  0  0
   54.0239   -5.9714   -6.3442 C   0  0  0  0  0  0  0  0  0  0  0  0
   53.7208   -5.2653   -7.4667 C   0  0  0  0  0  0  0  0  0  0  0  0
   52.4217   -4.7350   -7.5330 C   0  0  0  0  0  0  0  0  0  0  0  0
   51.5272   -4.9241   -6.5188 C   0  0  0  0  0  0  0  0  0  0  0  0
   51.8470   -5.6454   -5.3781 C   0  0  0  0  0  0  0  0  0  0  0  0
   54.7701   -7.4436   -4.1176 C   0  0  0  0  0  0  0  0  0  0  0  0
   53.4585   -6.8981   -4.1629 O   0  0  0  0  0  0  0  0  0  0  0  0
   50.2520   -4.3901   -6.6102 O   0  0  0  0  0  0  0  0  0  0  0  0
   50.0529   -3.0124   -6.5364 C   0  0  0  0  0  0  0  0  0  0  0  0
   50.9599   -5.8540   -4.3350 O   0  0  0  0  0  0  0  0  0  0  0  0
   50.9820   -4.8803   -3.2806 C   0  0  0  0  0  0  0  0  0  0  0  0
   59.8934   -6.0259   -8.9336 C   0  0  0  0  0  0  0  0  0  0  0  0
   60.9803   -5.9199   -8.1494 N   0  0  0  0  0  0  0  0  0  0  0  0
   61.6966   -7.0314   -8.1439 C   0  0  0  0  0  0  0  0  0  0  0  0
   61.0186   -7.9199   -8.9898 C   0  0  0  0  0  0  0  0  0  0  0  0
   59.9358   -7.2697   -9.4437 N   0  0  0  0  0  0  0  0  0  0  0  0
   59.2140   -7.6487  -10.0978 H   0  0  0  0  0  0  0  0  0  0  0  0
   61.4313   -9.2753   -9.2924 C   0  0  0  0  0  0  0  0  0  0  0  0
   61.2886  -10.2594   -8.3366 C   0  0  0  0  0  0  0  0  0  0  0  0
   61.6921  -11.5604   -8.6269 C   0  0  0  0  0  0  0  0  0  0  0  0
   62.2329  -11.8919   -9.8509 C   0  0  0  0  0  0  0  0  0  0  0  0
   62.3689  -10.9000  -10.7940 C   0  0  0  0  0  0  0  0  0  0  0  0
   61.9711   -9.6069  -10.5150 C   0  0  0  0  0  0  0  0  0  0  0  0
   62.9299   -7.3868   -7.4622 C   0  0  0  0  0  0  0  0  0  0  0  0
   64.1525   -7.4083   -8.1389 C   0  0  0  0  0  0  0  0  0  0  0  0
   65.3023   -7.7555   -7.4705 C   0  0  0  0  0  0  0  0  0  0  0  0
   65.2081   -8.0756   -6.1329 C   0  0  0  0  0  0  0  0  0  0  0  0
   63.9832   -8.0529   -5.4587 C   0  0  0  0  0  0  0  0  0  0  0  0
   62.8245   -7.7059   -6.1235 C   0  0  0  0  0  0  0  0  0  0  0  0
   61.5880   -7.6753   -5.4762 O   0  0  0  0  0  0  0  0  0  0  0  0
   61.0269   -8.7271   -4.7573 C   0  0  0  0  0  0  0  0  0  0  0  0
 15 16  1  0  0  0
 16  9  1  0  0  0
  9 10  2  0  0  0
 10 11  1  0  0  0
 11 12  2  0  0  0
 12 13  1  0  0  0
 13 17  1  0  0  0
 17 18  1  0  0  0
 13 14  2  0  0  0
 14 19  1  0  0  0
 19 20  1  0  0  0
 11  1  1  0  0  0
  1  2  2  0  0  0
  1  3  1  0  0  0
  3  4  1  0  0  0
  4  5  1  0  0  0
  5  6  1  0  0  0
  6  7  1  0  0  0
  7  8  1  0  0  0
  6 21  1  0  0  0
 21 22  2  0  0  0
 22 23  1  0  0  0
 23 24  2  0  0  0
 24 25  1  0  0  0
 24 27  1  0  0  0
 27 28  2  0  0  0
 28 29  1  0  0  0
 29 30  2  0  0  0
 30 31  1  0  0  0
 31 32  2  0  0  0
 23 33  1  0  0  0
 33 34  2  0  0  0
 34 35  1  0  0  0
 35 36  2  0  0  0
 36 37  1  0  0  0
 37 38  2  0  0  0
 38 39  1  0  0  0
 39 40  1  0  0  0
 14  9  1  0  0  0
  8  3  1  0  0  0
 25 21  1  0  0  0
 32 27  1  0  0  0
 38 33  1  0  0  0
 25 26  1  0  0  0
M  END
> <minimizedAffinity>
-6.60978

> <CNNscore>
0.1357962340

> <CNNaffinity>
6.2768449783

> <CNN_VS>
0.8523719311

> <CNNaffinity_variance>
0.1411332935

$$$$
[H]c1c([H])c([H])c(-c2c(-c3c([H])c([H])c([H])c([H])c3OC([H])([H])[H])nc(C3([H])C([H])([H])C([H])([H])N(C(=O)c4c([H])c(OC([H])([H])[H])c(OC([H])([H])[H])c(OC([H])([H])[H])c4[H])C([H])([H])C3([H])[H])n2[H])c([H])c1[H]


 40 44  0  0  0  0  0  0  0  0999 V2000
   54.7035   -4.8518   -8.6627 C   0  0  0  0  0  0  0  0  0  0  0  0
   54.1266   -4.5952   -9.8218 O   0  0  0  0  0  0  0  0  0  0  0  0
   56.0920   -4.8634   -8.7417 N   0  0  0  0  0  0  0  0  0  0  0  0
   56.6921   -4.6362  -10.0922 C   0  0  0  0  0  0  0  0  0  0  0  0
   57.8631   -5.5835  -10.1782 C   0  0  0  0  0  0  0  0  0  0  0  0
   58.9760   -5.0303   -9.2740 C   0  0  0  0  0  0  0  0  0  0  0  0
   58.4021   -4.4846   -8.0150 C   0  0  0  0  0  0  0  0  0  0  0  0
   57.0067   -5.0318   -7.6768 C   0  0  0  0  0  0  0  0  0  0  0  0
   51.7824   -4.8386   -6.2685 C   0  0  0  0  0  0  0  0  0  0  0  0
   52.5820   -4.5282   -7.3655 C   0  0  0  0  0  0  0  0  0  0  0  0
   53.8178   -5.0669   -7.5466 C   0  0  0  0  0  0  0  0  0  0  0  0
   54.2543   -5.9629   -6.5567 C   0  0  0  0  0  0  0  0  0  0  0  0
   53.4693   -6.2673   -5.4816 C   0  0  0  0  0  0  0  0  0  0  0  0
   52.2102   -5.7126   -5.3070 C   0  0  0  0  0  0  0  0  0  0  0  0
   50.3078   -2.9754   -6.6768 C   0  0  0  0  0  0  0  0  0  0  0  0
   50.5084   -4.2648   -6.1136 O   0  0  0  0  0  0  0  0  0  0  0  0
   53.9247   -7.1542   -4.5195 O   0  0  0  0  0  0  0  0  0  0  0  0
   55.2147   -7.6778   -4.5912 C   0  0  0  0  0  0  0  0  0  0  0  0
   51.3934   -6.0021   -4.2265 O   0  0  0  0  0  0  0  0  0  0  0  0
   51.6707   -5.2867   -3.0134 C   0  0  0  0  0  0  0  0  0  0  0  0
   59.9607   -6.0912   -8.9775 C   0  0  0  0  0  0  0  0  0  0  0  0
   61.0201   -5.9968   -8.1551 N   0  0  0  0  0  0  0  0  0  0  0  0
   61.7118   -7.1228   -8.1082 C   0  0  0  0  0  0  0  0  0  0  0  0
   61.0464   -8.0088   -8.9666 C   0  0  0  0  0  0  0  0  0  0  0  0
   59.9952   -7.3427   -9.4689 N   0  0  0  0  0  0  0  0  0  0  0  0
   59.2900   -7.7159  -10.1442 H   0  0  0  0  0  0  0  0  0  0  0  0
   61.4409   -9.3767   -9.2355 C   0  0  0  0  0  0  0  0  0  0  0  0
   61.9586   -9.7052  -10.4710 C   0  0  0  0  0  0  0  0  0  0  0  0
   62.3311  -11.0219  -10.7300 C   0  0  0  0  0  0  0  0  0  0  0  0
   62.1954  -12.0105   -9.7787 C   0  0  0  0  0  0  0  0  0  0  0  0
   61.6777  -11.6679   -8.5514 C   0  0  0  0  0  0  0  0  0  0  0  0
   61.3059  -10.3644   -8.2855 C   0  0  0  0  0  0  0  0  0  0  0  0
   62.9114   -7.4941   -7.3766 C   0  0  0  0  0  0  0  0  0  0  0  0
   64.1517   -7.5827   -8.0144 C   0  0  0  0  0  0  0  0  0  0  0  0
   65.2685   -7.9434   -7.2989 C   0  0  0  0  0  0  0  0  0  0  0  0
   65.1241   -8.2098   -5.9541 C   0  0  0  0  0  0  0  0  0  0  0  0
   63.8815   -8.1201   -5.3189 C   0  0  0  0  0  0  0  0  0  0  0  0
   62.7556   -7.7590   -6.0310 C   0  0  0  0  0  0  0  0  0  0  0  0
   61.5026   -7.6621   -5.4233 O   0  0  0  0  0  0  0  0  0  0  0  0
   60.8285   -8.7041   -4.7926 C   0  0  0  0  0  0  0  0  0  0  0  0
 15 16  1  0  0  0
 16  9  1  0  0  0
  9 10  2  0  0  0
 10 11  1  0  0  0
 11 12  2  0  0  0
 12 13  1  0  0  0
 13 17  1  0  0  0
 17 18  1  0  0  0
 13 14  2  0  0  0
 14 19  1  0  0  0
 19 20  1  0  0  0
 11  1  1  0  0  0
  1  2  2  0  0  0
  1  3  1  0  0  0
  3  4  1  0  0  0
  4  5  1  0  0  0
  5  6  1  0  0  0
  6  7  1  0  0  0
  7  8  1  0  0  0
  6 21  1  0  0  0
 21 22  2  0  0  0
 22 23  1  0  0  0
 23 24  2  0  0  0
 24 25  1  0  0  0
 24 27  1  0  0  0
 27 28  2  0  0  0
 28 29  1  0  0  0
 29 30  2  0  0  0
 30 31  1  0  0  0
 31 32  2  0  0  0
 23 33  1  0  0  0
 33 34  2  0  0  0
 34 35  1  0  0  0
 35 36  2  0  0  0
 36 37  1  0  0  0
 37 38  2  0  0  0
 38 39  1  0  0  0
 39 40  1  0  0  0
 14  9  1  0  0  0
  8  3  1  0  0  0
 25 21  1  0  0  0
 32 27  1  0  0  0
 38 33  1  0  0  0
 25 26  1  0  0  0
M  END
> <minimizedAffinity>
-6.72290

> <CNNscore>
0.1314158738

> <CNNaffinity>
6.2555789948

> <CNN_VS>
0.8220824003

> <CNNaffinity_variance>
0.1347888857

$$$$
[H]c1c([H])c([H])c(-c2c(-c3c([H])c([H])c([H])c([H])c3OC([H])([H])[H])nc(C3([H])C([H])([H])C([H])([H])N(C(=O)c4c([H])c(OC([H])([H])[H])c(OC([H])([H])[H])c(OC([H])([H])[H])c4[H])C([H])([H])C3([H])[H])n2[H])c([H])c1[H]


 40 44  0  0  0  0  0  0  0  0999 V2000
   58.3048   -5.3417   -9.8580 C   0  0  0  0  0  0  0  0  0  0  0  0
   58.3022   -4.9101  -11.1052 O   0  0  0  0  0  0  0  0  0  0  0  0
   59.5103   -5.9322   -9.4937 N   0  0  0  0  0  0  0  0  0  0  0  0
   60.5629   -6.0234  -10.5516 C   0  0  0  0  0  0  0  0  0  0  0  0
   61.2081   -7.3740  -10.3638 C   0  0  0  0  0  0  0  0  0  0  0  0
   62.0789   -7.3016   -9.0994 C   0  0  0  0  0  0  0  0  0  0  0  0
   61.3905   -6.5223   -8.0361 C   0  0  0  0  0  0  0  0  0  0  0  0
   59.8678   -6.4275   -8.2185 C   0  0  0  0  0  0  0  0  0  0  0  0
   55.6646   -5.1637   -7.1630 C   0  0  0  0  0  0  0  0  0  0  0  0
   56.8627   -5.4561   -7.8096 C   0  0  0  0  0  0  0  0  0  0  0  0
   57.0916   -5.1293   -9.1101 C   0  0  0  0  0  0  0  0  0  0  0  0
   56.0435   -4.4748   -9.7782 C   0  0  0  0  0  0  0  0  0  0  0  0
   54.8692   -4.1878   -9.1432 C   0  0  0  0  0  0  0  0  0  0  0  0
   54.6465   -4.5250   -7.8164 C   0  0  0  0  0  0  0  0  0  0  0  0
   56.4792   -6.2841   -5.1898 C   0  0  0  0  0  0  0  0  0  0  0  0
   55.4624   -5.5140   -5.8166 O   0  0  0  0  0  0  0  0  0  0  0  0
   53.8515   -3.5415   -9.8260 O   0  0  0  0  0  0  0  0  0  0  0  0
   53.2306   -2.4200   -9.2784 C   0  0  0  0  0  0  0  0  0  0  0  0
   53.4657   -4.2475   -7.1477 O   0  0  0  0  0  0  0  0  0  0  0  0
   52.4790   -5.2899   -7.1457 C   0  0  0  0  0  0  0  0  0  0  0  0
   62.3922   -8.6645   -8.6226 C   0  0  0  0  0  0  0  0  0  0  0  0
   63.1679   -9.5729   -9.2395 N   0  0  0  0  0  0  0  0  0  0  0  0
   63.2465  -10.7021   -8.5560 C   0  0  0  0  0  0  0  0  0  0  0  0
   62.4607  -10.5048   -7.4122 C   0  0  0  0  0  0  0  0  0  0  0  0
   61.9649   -9.2604   -7.4950 N   0  0  0  0  0  0  0  0  0  0  0  0
   61.3369   -8.7959   -6.8006 H   0  0  0  0  0  0  0  0  0  0  0  0
   62.2479  -11.4765   -6.3588 C   0  0  0  0  0  0  0  0  0  0  0  0
   61.3532  -12.5077   -6.5551 C   0  0  0  0  0  0  0  0  0  0  0  0
   61.1449  -13.4370   -5.5389 C   0  0  0  0  0  0  0  0  0  0  0  0
   61.8132  -13.3527   -4.3360 C   0  0  0  0  0  0  0  0  0  0  0  0
   62.7022  -12.3190   -4.1550 C   0  0  0  0  0  0  0  0  0  0  0  0
   62.9155  -11.3929   -5.1574 C   0  0  0  0  0  0  0  0  0  0  0  0
   63.9504  -11.9465   -8.8169 C   0  0  0  0  0  0  0  0  0  0  0  0
   65.1031  -12.2908   -8.1056 C   0  0  0  0  0  0  0  0  0  0  0  0
   65.7527  -13.4710   -8.3786 C   0  0  0  0  0  0  0  0  0  0  0  0
   65.2358  -14.2881   -9.3613 C   0  0  0  0  0  0  0  0  0  0  0  0
   64.0821  -13.9407  -10.0711 C   0  0  0  0  0  0  0  0  0  0  0  0
   63.4249  -12.7570   -9.8028 C   0  0  0  0  0  0  0  0  0  0  0  0
   62.2719  -12.3844  -10.4959 O   0  0  0  0  0  0  0  0  0  0  0  0
   62.0273  -12.6256  -11.8449 C   0  0  0  0  0  0  0  0  0  0  0  0
 15 16  1  0  0  0
 16  9  1  0  0  0
  9 10  2  0  0  0
 10 11  1  0  0  0
 11 12  2  0  0  0
 12 13  1  0  0  0
 13 17  1  0  0  0
 17 18  1  0  0  0
 13 14  2  0  0  0
 14 19  1  0  0  0
 19 20  1  0  0  0
 11  1  1  0  0  0
  1  2  2  0  0  0
  1  3  1  0  0  0
  3  4  1  0  0  0
  4  5  1  0  0  0
  5  6  1  0  0  0
  6  7  1  0  0  0
  7  8  1  0  0  0
  6 21  1  0  0  0
 21 22  2  0  0  0
 22 23  1  0  0  0
 23 24  2  0  0  0
 24 25  1  0  0  0
 24 27  1  0  0  0
 27 28  2  0  0  0
 28 29  1  0  0  0
 29 30  2  0  0  0
 30 31  1  0  0  0
 31 32  2  0  0  0
 23 33  1  0  0  0
 33 34  2  0  0  0
 34 35  1  0  0  0
 35 36  2  0  0  0
 36 37  1  0  0  0
 37 38  2  0  0  0
 38 39  1  0  0  0
 39 40  1  0  0  0
 14  9  1  0  0  0
  8  3  1  0  0  0
 25 21  1  0  0  0
 32 27  1  0  0  0
 38 33  1  0  0  0
 25 26  1  0  0  0
M  END
> <minimizedAffinity>
-5.08990

> <CNNscore>
0.1285115480

> <CNNaffinity>
5.9789996147

> <CNN_VS>
0.7683705091

> <CNNaffinity_variance>
0.1307518780

$$$$
[H]c1c([H])c([H])c(-c2c(-c3c([H])c([H])c([H])c([H])c3OC([H])([H])[H])nc(C3([H])C([H])([H])C([H])([H])N(C(=O)c4c([H])c(OC([H])([H])[H])c(OC([H])([H])[H])c(OC([H])([H])[H])c4[H])C([H])([H])C3([H])[H])n2[H])c([H])c1[H]


 40 44  0  0  0  0  0  0  0  0999 V2000
   58.6822   -4.9530  -10.5515 C   0  0  0  0  0  0  0  0  0  0  0  0
   59.7578   -5.7072  -10.4229 O   0  0  0  0  0  0  0  0  0  0  0  0
   58.0117   -4.7595   -9.3485 N   0  0  0  0  0  0  0  0  0  0  0  0
   58.5706   -5.4513   -8.1465 C   0  0  0  0  0  0  0  0  0  0  0  0
   57.3737   -5.9397   -7.3689 C   0  0  0  0  0  0  0  0  0  0  0  0
   56.7141   -4.7159   -6.7135 C   0  0  0  0  0  0  0  0  0  0  0  0
   56.7187   -3.5584   -7.6474 C   0  0  0  0  0  0  0  0  0  0  0  0
   56.8745   -3.9495   -9.1252 C   0  0  0  0  0  0  0  0  0  0  0  0
   57.0171   -3.9394  -13.7865 C   0  0  0  0  0  0  0  0  0  0  0  0
   57.1951   -4.4734  -12.5128 C   0  0  0  0  0  0  0  0  0  0  0  0
   58.3992   -4.4721  -11.8800 C   0  0  0  0  0  0  0  0  0  0  0  0
   59.4697   -3.8990  -12.5864 C   0  0  0  0  0  0  0  0  0  0  0  0
   59.2942   -3.3749  -13.8350 C   0  0  0  0  0  0  0  0  0  0  0  0
   58.0617   -3.3808  -14.4709 C   0  0  0  0  0  0  0  0  0  0  0  0
   55.3396   -5.1835  -14.9909 C   0  0  0  0  0  0  0  0  0  0  0  0
   55.7575   -3.9553  -14.4105 O   0  0  0  0  0  0  0  0  0  0  0  0
   60.3675   -2.8158  -14.5095 O   0  0  0  0  0  0  0  0  0  0  0  0
   61.6712   -3.2222  -14.2290 C   0  0  0  0  0  0  0  0  0  0  0  0
   57.8550   -2.8577  -15.7366 O   0  0  0  0  0  0  0  0  0  0  0  0
   58.1886   -3.7149  -16.8384 C   0  0  0  0  0  0  0  0  0  0  0  0
   55.3334   -5.0450   -6.3030 C   0  0  0  0  0  0  0  0  0  0  0  0
   54.2462   -5.0759   -7.0932 N   0  0  0  0  0  0  0  0  0  0  0  0
   53.1552   -5.4023   -6.4210 C   0  0  0  0  0  0  0  0  0  0  0  0
   53.5730   -5.5954   -5.0971 C   0  0  0  0  0  0  0  0  0  0  0  0
   54.8956   -5.3690   -5.0732 N   0  0  0  0  0  0  0  0  0  0  0  0
   55.5197   -5.4284   -4.2368 H   0  0  0  0  0  0  0  0  0  0  0  0
   52.7169   -5.9712   -3.9902 C   0  0  0  0  0  0  0  0  0  0  0  0
   53.0581   -7.0506   -3.2023 C   0  0  0  0  0  0  0  0  0  0  0  0
   52.2306   -7.4145   -2.1428 C   0  0  0  0  0  0  0  0  0  0  0  0
   51.0737   -6.7203   -1.8596 C   0  0  0  0  0  0  0  0  0  0  0  0
   50.7466   -5.6461   -2.6539 C   0  0  0  0  0  0  0  0  0  0  0  0
   51.5616   -5.2777   -3.7067 C   0  0  0  0  0  0  0  0  0  0  0  0
   51.7712   -5.5591   -6.8358 C   0  0  0  0  0  0  0  0  0  0  0  0
   51.1537   -6.8127   -6.8427 C   0  0  0  0  0  0  0  0  0  0  0  0
   49.8454   -6.9325   -7.2470 C   0  0  0  0  0  0  0  0  0  0  0  0
   49.1764   -5.7925   -7.6383 C   0  0  0  0  0  0  0  0  0  0  0  0
   49.7972   -4.5394   -7.6302 C   0  0  0  0  0  0  0  0  0  0  0  0
   51.1107   -4.4116   -7.2260 C   0  0  0  0  0  0  0  0  0  0  0  0
   51.7560   -3.1739   -7.2083 O   0  0  0  0  0  0  0  0  0  0  0  0
   51.8944   -2.3200   -8.2990 C   0  0  0  0  0  0  0  0  0  0  0  0
 15 16  1  0  0  0
 16  9  1  0  0  0
  9 10  2  0  0  0
 10 11  1  0  0  0
 11 12  2  0  0  0
 12 13  1  0  0  0
 13 17  1  0  0  0
 17 18  1  0  0  0
 13 14  2  0  0  0
 14 19  1  0  0  0
 19 20  1  0  0  0
 11  1  1  0  0  0
  1  2  2  0  0  0
  1  3  1  0  0  0
  3  4  1  0  0  0
  4  5  1  0  0  0
  5  6  1  0  0  0
  6  7  1  0  0  0
  7  8  1  0  0  0
  6 21  1  0  0  0
 21 22  2  0  0  0
 22 23  1  0  0  0
 23 24  2  0  0  0
 24 25  1  0  0  0
 24 27  1  0  0  0
 27 28  2  0  0  0
 28 29  1  0  0  0
 29 30  2  0  0  0
 30 31  1  0  0  0
 31 32  2  0  0  0
 23 33  1  0  0  0
 33 34  2  0  0  0
 34 35  1  0  0  0
 35 36  2  0  0  0
 36 37  1  0  0  0
 37 38  2  0  0  0
 38 39  1  0  0  0
 39 40  1  0  0  0
 14  9  1  0  0  0
  8  3  1  0  0  0
 25 21  1  0  0  0
 32 27  1  0  0  0
 38 33  1  0  0  0
 25 26  1  0  0  0
M  END
> <minimizedAffinity>
-5.45449

> <CNNscore>
0.1251094788

> <CNNaffinity>
6.6064882278

> <CNN_VS>
0.8265342712

> <CNNaffinity_variance>
0.1059477702

$$$$
[H]O[C@]1([H])C([H])([H])C([H])([H])C([H])([H])C([H])([H])[C@@]1([H])N1C([H])([H])C([H])([H])C([H])(c2c([H])c([H])c([H])c([H])c2[H])C([H])([H])C1([H])[H]


 20 22  0  0  0  0  0  0  0  0999 V2000
   63.9787  -10.5862  -12.8028 N   0  0  0  0  0  0  0  0  0  0  0  0
   64.9032   -9.5333  -12.4785 C   0  0  0  0  0  0  0  0  0  0  0  0
   64.2588   -8.6339  -11.4743 C   0  0  0  0  0  0  0  0  0  0  0  0
   62.9149   -9.0532  -11.0066 C   0  0  0  0  0  0  0  0  0  0  0  0
   62.7541  -10.5355  -10.7845 C   0  0  0  0  0  0  0  0  0  0  0  0
   63.7306  -11.3528  -11.6377 C   0  0  0  0  0  0  0  0  0  0  0  0
   63.2378  -12.6949  -15.6101 O   0  0  0  0  0  0  0  0  0  0  0  0
   63.2578  -11.4115  -15.0130 C   0  0  0  0  0  0  0  0  0  0  0  0
   63.3633  -10.4274  -16.1263 C   0  0  0  0  0  0  0  0  0  0  0  0
   64.7232  -10.6717  -16.7883 C   0  0  0  0  0  0  0  0  0  0  0  0
   65.7410  -10.2374  -15.7743 C   0  0  0  0  0  0  0  0  0  0  0  0
   65.6848  -10.9549  -14.4884 C   0  0  0  0  0  0  0  0  0  0  0  0
   64.3393  -11.3368  -13.9863 C   0  0  0  0  0  0  0  0  0  0  0  0
   64.1128  -13.1505  -15.4189 H   0  0  0  0  0  0  0  0  0  0  0  0
   62.6709   -8.4074   -9.6894 C   0  0  0  0  0  0  0  0  0  0  0  0
   63.0691   -9.0564   -8.5217 C   0  0  0  0  0  0  0  0  0  0  0  0
   62.8649   -8.5037   -7.2815 C   0  0  0  0  0  0  0  0  0  0  0  0
   62.2567   -7.2840   -7.1522 C   0  0  0  0  0  0  0  0  0  0  0  0
   61.8515   -6.6189   -8.2981 C   0  0  0  0  0  0  0  0  0  0  0  0
   62.0593   -7.1802   -9.5521 C   0  0  0  0  0  0  0  0  0  0  0  0
  7  8  1  0  0  0
  8  9  1  0  0  0
  9 10  1  0  0  0
 10 11  1  0  0  0
 11 12  1  0  0  0
 12 13  1  0  0  0
 13  1  1  0  0  0
  1  2  1  0  0  0
  2  3  1  0  0  0
  3  4  1  0  0  0
  4  5  1  0  0  0
  5  6  1  0  0  0
  4 15  1  0  0  0
 15 16  2  0  0  0
 16 17  1  0  0  0
 17 18  2  0  0  0
 18 19  1  0  0  0
 19 20  2  0  0  0
 13  8  1  0  0  0
  6  1  1  0  0  0
 20 15  1  0  0  0
  7 14  1  0  0  0
M  END
> <minimizedAffinity>
-1.88134

> <CNNscore>
0.5928393602

> <CNNaffinity>
3.5027782917

> <CNN_VS>
2.0765848160

> <CNNaffinity_variance>
0.0593948588

$$$$
[H]O[C@]1([H])C([H])([H])C([H])([H])C([H])([H])C([H])([H])[C@@]1([H])N1C([H])([H])C([H])([H])C([H])(c2c([H])c([H])c([H])c([H])c2[H])C([H])([H])C1([H])[H]


 20 22  0  0  0  0  0  0  0  0999 V2000
   63.2609   -9.0481  -10.4773 N   0  0  0  0  0  0  0  0  0  0  0  0
   62.2881   -8.1766   -9.8749 C   0  0  0  0  0  0  0  0  0  0  0  0
   61.5388   -8.9515   -8.8402 C   0  0  0  0  0  0  0  0  0  0  0  0
   61.9971  -10.3460   -8.6262 C   0  0  0  0  0  0  0  0  0  0  0  0
   63.4925  -10.5345   -8.6572 C   0  0  0  0  0  0  0  0  0  0  0  0
   64.1902   -9.4510   -9.4871 C   0  0  0  0  0  0  0  0  0  0  0  0
   63.0428   -7.5374  -13.7248 O   0  0  0  0  0  0  0  0  0  0  0  0
   63.0474   -7.4156  -12.3144 C   0  0  0  0  0  0  0  0  0  0  0  0
   63.5413   -6.0438  -12.0088 C   0  0  0  0  0  0  0  0  0  0  0  0
   64.9909   -5.9895  -12.5015 C   0  0  0  0  0  0  0  0  0  0  0  0
   65.7547   -6.9015  -11.5863 C   0  0  0  0  0  0  0  0  0  0  0  0
   65.2926   -8.3007  -11.5733 C   0  0  0  0  0  0  0  0  0  0  0  0
   63.8302   -8.5302  -11.7027 C   0  0  0  0  0  0  0  0  0  0  0  0
   63.7846   -8.1591  -13.9948 H   0  0  0  0  0  0  0  0  0  0  0  0
   61.5540  -10.7665   -7.2704 C   0  0  0  0  0  0  0  0  0  0  0  0
   60.9570  -12.0145   -7.0987 C   0  0  0  0  0  0  0  0  0  0  0  0
   60.5290  -12.4484   -5.8684 C   0  0  0  0  0  0  0  0  0  0  0  0
   60.6771  -11.6595   -4.7594 C   0  0  0  0  0  0  0  0  0  0  0  0
   61.2676  -10.4144   -4.9040 C   0  0  0  0  0  0  0  0  0  0  0  0
   61.7000   -9.9775   -6.1500 C   0  0  0  0  0  0  0  0  0  0  0  0
  7  8  1  0  0  0
  8  9  1  0  0  0
  9 10  1  0  0  0
 10 11  1  0  0  0
 11 12  1  0  0  0
 12 13  1  0  0  0
 13  1  1  0  0  0
  1  2  1  0  0  0
  2  3  1  0  0  0
  3  4  1  0  0  0
  4  5  1  0  0  0
  5  6  1  0  0  0
  4 15  1  0  0  0
 15 16  2  0  0  0
 16 17  1  0  0  0
 17 18  2  0  0  0
 18 19  1  0  0  0
 19 20  2  0  0  0
 13  8  1  0  0  0
  6  1  1  0  0  0
 20 15  1  0  0  0
  7 14  1  0  0  0
M  END
> <minimizedAffinity>
-2.71334

> <CNNscore>
0.5000933409

> <CNNaffinity>
3.4333877563

> <CNN_VS>
1.7170143127

> <CNNaffinity_variance>
0.0580792241

$$$$
[H]O[C@]1([H])C([H])([H])C([H])([H])C([H])([H])C([H])([H])[C@@]1([H])N1C([H])([H])C([H])([H])C([H])(c2c([H])c([H])c([H])c([H])c2[H])C([H])([H])C1([H])[H]


 20 22  0  0  0  0  0  0  0  0999 V2000
   51.5266   -0.7674  -16.0268 N   0  0  0  0  0  0  0  0  0  0  0  0
   51.9564   -0.7622  -17.3993 C   0  0  0  0  0  0  0  0  0  0  0  0
   53.4475   -0.8539  -17.4258 C   0  0  0  0  0  0  0  0  0  0  0  0
   54.1049   -1.0011  -16.1042 C   0  0  0  0  0  0  0  0  0  0  0  0
   53.3911   -1.9120  -15.1382 C   0  0  0  0  0  0  0  0  0  0  0  0
   51.8905   -2.0032  -15.4376 C   0  0  0  0  0  0  0  0  0  0  0  0
   48.9649    1.6103  -15.2143 O   0  0  0  0  0  0  0  0  0  0  0  0
   49.8926    1.0771  -16.1413 C   0  0  0  0  0  0  0  0  0  0  0  0
   49.3487    1.3636  -17.4982 C   0  0  0  0  0  0  0  0  0  0  0  0
   48.0428    0.5707  -17.6137 C   0  0  0  0  0  0  0  0  0  0  0  0
   48.4569   -0.8716  -17.6463 C   0  0  0  0  0  0  0  0  0  0  0  0
   49.2074   -1.3311  -16.4644 C   0  0  0  0  0  0  0  0  0  0  0  0
   50.1492   -0.3634  -15.8441 C   0  0  0  0  0  0  0  0  0  0  0  0
   48.4880    0.8486  -14.7647 H   0  0  0  0  0  0  0  0  0  0  0  0
   55.4458   -1.6035  -16.3288 C   0  0  0  0  0  0  0  0  0  0  0  0
   56.2399   -1.1415  -17.3772 C   0  0  0  0  0  0  0  0  0  0  0  0
   57.4840   -1.6657  -17.6276 C   0  0  0  0  0  0  0  0  0  0  0  0
   57.9887   -2.6700  -16.8461 C   0  0  0  0  0  0  0  0  0  0  0  0
   57.2185   -3.1467  -15.7976 C   0  0  0  0  0  0  0  0  0  0  0  0
   55.9598   -2.6146  -15.5461 C   0  0  0  0  0  0  0  0  0  0  0  0
  7  8  1  0  0  0
  8  9  1  0  0  0
  9 10  1  0  0  0
 10 11  1  0  0  0
 11 12  1  0  0  0
 12 13  1  0  0  0
 13  1  1  0  0  0
  1  2  1  0  0  0
  2  3  1  0  0  0
  3  4  1  0  0  0
  4  5  1  0  0  0
  5  6  1  0  0  0
  4 15  1  0  0  0
 15 16  2  0  0  0
 16 17  1  0  0  0
 17 18  2  0  0  0
 18 19  1  0  0  0
 19 20  2  0  0  0
 13  8  1  0  0  0
  6  1  1  0  0  0
 20 15  1  0  0  0
  7 14  1  0  0  0
M  END
> <minimizedAffinity>
17.42301

> <CNNscore>
0.4616961181

> <CNNaffinity>
4.1503915787

> <CNN_VS>
1.9162197113

> <CNNaffinity_variance>
0.2162060440

$$$$
[H]O[C@]1([H])C([H])([H])C([H])([H])C([H])([H])C([H])([H])[C@@]1([H])N1C([H])([H])C([H])([H])C([H])(c2c([H])c([H])c([H])c([H])c2[H])C([H])([H])C1([H])[H]


 20 22  0  0  0  0  0  0  0  0999 V2000
   63.1408   -7.7563  -10.1411 N   0  0  0  0  0  0  0  0  0  0  0  0
   61.7774   -7.6770   -9.6902 C   0  0  0  0  0  0  0  0  0  0  0  0
   61.3667   -9.0252   -9.1940 C   0  0  0  0  0  0  0  0  0  0  0  0
   62.4263  -10.0633   -9.2055 C   0  0  0  0  0  0  0  0  0  0  0  0
   63.7926   -9.5802   -8.7905 C   0  0  0  0  0  0  0  0  0  0  0  0
   63.9699   -8.0780   -9.0385 C   0  0  0  0  0  0  0  0  0  0  0  0
   65.5023   -5.2526  -11.1566 O   0  0  0  0  0  0  0  0  0  0  0  0
   65.0264   -6.5845  -11.2168 C   0  0  0  0  0  0  0  0  0  0  0  0
   65.4374   -7.1222  -12.5439 C   0  0  0  0  0  0  0  0  0  0  0  0
   64.6878   -6.2952  -13.5933 C   0  0  0  0  0  0  0  0  0  0  0  0
   63.2439   -6.6747  -13.4391 C   0  0  0  0  0  0  0  0  0  0  0  0
   62.6701   -6.4141  -12.1071 C   0  0  0  0  0  0  0  0  0  0  0  0
   63.5605   -6.6220  -10.9357 C   0  0  0  0  0  0  0  0  0  0  0  0
   64.7172   -4.6290  -11.2237 H   0  0  0  0  0  0  0  0  0  0  0  0
   62.0427  -11.1144   -8.2260 C   0  0  0  0  0  0  0  0  0  0  0  0
   62.8454  -12.2450   -8.0816 C   0  0  0  0  0  0  0  0  0  0  0  0
   62.5340  -13.2443   -7.1930 C   0  0  0  0  0  0  0  0  0  0  0  0
   61.4125  -13.1602   -6.4124 C   0  0  0  0  0  0  0  0  0  0  0  0
   60.5982  -12.0461   -6.5375 C   0  0  0  0  0  0  0  0  0  0  0  0
   60.9154  -11.0361   -7.4373 C   0  0  0  0  0  0  0  0  0  0  0  0
  7  8  1  0  0  0
  8  9  1  0  0  0
  9 10  1  0  0  0
 10 11  1  0  0  0
 11 12  1  0  0  0
 12 13  1  0  0  0
 13  1  1  0  0  0
  1  2  1  0  0  0
  2  3  1  0  0  0
  3  4  1  0  0  0
  4  5  1  0  0  0
  5  6  1  0  0  0
  4 15  1  0  0  0
 15 16  2  0  0  0
 16 17  1  0  0  0
 17 18  2  0  0  0
 18 19  1  0  0  0
 19 20  2  0  0  0
 13  8  1  0  0  0
  6  1  1  0  0  0
 20 15  1  0  0  0
  7 14  1  0  0  0
M  END
> <minimizedAffinity>
-2.93850

> <CNNscore>
0.4110774398

> <CNNaffinity>
3.3345572948

> <CNN_VS>
1.3707612753

> <CNNaffinity_variance>
0.1010085791

$$$$
[H]O[C@]1([H])C([H])([H])C([H])([H])C([H])([H])C([H])([H])[C@@]1([H])N1C([H])([H])C([H])([H])C([H])(c2c([H])c([H])c([H])c([H])c2[H])C([H])([H])C1([H])[H]


 20 22  0  0  0  0  0  0  0  0999 V2000
   52.6349   -4.0469   -6.6668 N   0  0  0  0  0  0  0  0  0  0  0  0
   52.3030   -5.2671   -5.9815 C   0  0  0  0  0  0  0  0  0  0  0  0
   51.1593   -4.9932   -5.0599 C   0  0  0  0  0  0  0  0  0  0  0  0
   50.6050   -3.6184   -5.1163 C   0  0  0  0  0  0  0  0  0  0  0  0
   50.5111   -3.0282   -6.5003 C   0  0  0  0  0  0  0  0  0  0  0  0
   51.5299   -3.6524   -7.4605 C   0  0  0  0  0  0  0  0  0  0  0  0
   55.4358   -5.7445   -8.1329 O   0  0  0  0  0  0  0  0  0  0  0  0
   54.1029   -5.2759   -8.2225 C   0  0  0  0  0  0  0  0  0  0  0  0
   53.8285   -5.0517   -9.6694 C   0  0  0  0  0  0  0  0  0  0  0  0
   54.7660   -3.9248  -10.1149 C   0  0  0  0  0  0  0  0  0  0  0  0
   54.2643   -2.6936   -9.4184 C   0  0  0  0  0  0  0  0  0  0  0  0
   54.2539   -2.7709   -7.9468 C   0  0  0  0  0  0  0  0  0  0  0  0
   53.9143   -4.0850   -7.3419 C   0  0  0  0  0  0  0  0  0  0  0  0
   56.0044   -5.0178   -7.7350 H   0  0  0  0  0  0  0  0  0  0  0  0
   49.2146   -3.6677   -4.5912 C   0  0  0  0  0  0  0  0  0  0  0  0
   48.3060   -2.6761   -4.9579 C   0  0  0  0  0  0  0  0  0  0  0  0
   47.0119   -2.6754   -4.4990 C   0  0  0  0  0  0  0  0  0  0  0  0
   46.5690   -3.6600   -3.6572 C   0  0  0  0  0  0  0  0  0  0  0  0
   47.4533   -4.6570   -3.2778 C   0  0  0  0  0  0  0  0  0  0  0  0
   48.7623   -4.6557   -3.7436 C   0  0  0  0  0  0  0  0  0  0  0  0
  7  8  1  0  0  0
  8  9  1  0  0  0
  9 10  1  0  0  0
 10 11  1  0  0  0
 11 12  1  0  0  0
 12 13  1  0  0  0
 13  1  1  0  0  0
  1  2  1  0  0  0
  2  3  1  0  0  0
  3  4  1  0  0  0
  4  5  1  0  0  0
  5  6  1  0  0  0
  4 15  1  0  0  0
 15 16  2  0  0  0
 16 17  1  0  0  0
 17 18  2  0  0  0
 18 19  1  0  0  0
 19 20  2  0  0  0
 13  8  1  0  0  0
  6  1  1  0  0  0
 20 15  1  0  0  0
  7 14  1  0  0  0
M  END
> <minimizedAffinity>
-3.00740

> <CNNscore>
0.3864826858

> <CNNaffinity>
5.6654605865

> <CNN_VS>
2.1896023750

> <CNNaffinity_variance>
0.4990900159

$$$$
[H]O[C@]1([H])C([H])([H])C([H])([H])C([H])([H])C([H])([H])[C@@]1([H])N1C([H])([H])C([H])([H])C([H])(c2c([H])c([H])c([H])c([H])c2[H])C([H])([H])C1([H])[H]


 20 22  0  0  0  0  0  0  0  0999 V2000
   52.6036   -6.3469   -5.6413 N   0  0  0  0  0  0  0  0  0  0  0  0
   51.3740   -6.8720   -6.1715 C   0  0  0  0  0  0  0  0  0  0  0  0
   50.4739   -5.7247   -6.4971 C   0  0  0  0  0  0  0  0  0  0  0  0
   51.0521   -4.3753   -6.2846 C   0  0  0  0  0  0  0  0  0  0  0  0
   52.4975   -4.2332   -6.6887 C   0  0  0  0  0  0  0  0  0  0  0  0
   53.2405   -5.5732   -6.6425 C   0  0  0  0  0  0  0  0  0  0  0  0
   54.4782   -9.4057   -5.5654 O   0  0  0  0  0  0  0  0  0  0  0  0
   54.3824   -8.0352   -5.9072 C   0  0  0  0  0  0  0  0  0  0  0  0
   55.7730   -7.5009   -5.9112 C   0  0  0  0  0  0  0  0  0  0  0  0
   56.2766   -7.6030   -4.4679 C   0  0  0  0  0  0  0  0  0  0  0  0
   55.4673   -6.6032   -3.6944 C   0  0  0  0  0  0  0  0  0  0  0  0
   54.0108   -6.8247   -3.7232 C   0  0  0  0  0  0  0  0  0  0  0  0
   53.4308   -7.3400   -4.9906 C   0  0  0  0  0  0  0  0  0  0  0  0
   54.1193   -9.5292   -4.6350 H   0  0  0  0  0  0  0  0  0  0  0  0
   50.2895   -3.4167   -7.1279 C   0  0  0  0  0  0  0  0  0  0  0  0
   50.9077   -2.2483   -7.5706 C   0  0  0  0  0  0  0  0  0  0  0  0
   50.2467   -1.3308   -8.3494 C   0  0  0  0  0  0  0  0  0  0  0  0
   48.9449   -1.5376   -8.7192 C   0  0  0  0  0  0  0  0  0  0  0  0
   48.3082   -2.6916   -8.2916 C   0  0  0  0  0  0  0  0  0  0  0  0
   48.9792   -3.6187   -7.5037 C   0  0  0  0  0  0  0  0  0  0  0  0
  7  8  1  0  0  0
  8  9  1  0  0  0
  9 10  1  0  0  0
 10 11  1  0  0  0
 11 12  1  0  0  0
 12 13  1  0  0  0
 13  1  1  0  0  0
  1  2  1  0  0  0
  2  3  1  0  0  0
  3  4  1  0  0  0
  4  5  1  0  0  0
  5  6  1  0  0  0
  4 15  1  0  0  0
 15 16  2  0  0  0
 16 17  1  0  0  0
 17 18  2  0  0  0
 18 19  1  0  0  0
 19 20  2  0  0  0
 13  8  1  0  0  0
  6  1  1  0  0  0
 20 15  1  0  0  0
  7 14  1  0  0  0
M  END
> <minimizedAffinity>
6.77003

> <CNNscore>
0.3789174557

> <CNNaffinity>
5.2855229378

> <CNN_VS>
2.0027768612

> <CNNaffinity_variance>
0.6481009722

$$$$
[H]O[C@]1([H])C([H])([H])C([H])([H])C([H])([H])C([H])([H])[C@@]1([H])N1C([H])([H])C([H])([H])C([H])(c2c([H])c([H])c([H])c([H])c2[H])C([H])([H])C1([H])[H]


 20 22  0  0  0  0  0  0  0  0999 V2000
   54.8263   -4.6382   -9.7667 N   0  0  0  0  0  0  0  0  0  0  0  0
   54.2388   -3.3598  -10.0653 C   0  0  0  0  0  0  0  0  0  0  0  0
   52.9311   -3.2639   -9.3490 C   0  0  0  0  0  0  0  0  0  0  0  0
   52.5914   -4.4148   -8.4769 C   0  0  0  0  0  0  0  0  0  0  0  0
   53.7484   -4.9810   -7.6939 C   0  0  0  0  0  0  0  0  0  0  0  0
   55.0928   -4.7062   -8.3771 C   0  0  0  0  0  0  0  0  0  0  0  0
   56.4553   -4.8265  -12.9584 O   0  0  0  0  0  0  0  0  0  0  0  0
   56.0942   -4.0834  -11.8088 C   0  0  0  0  0  0  0  0  0  0  0  0
   57.1255   -3.0202  -11.6497 C   0  0  0  0  0  0  0  0  0  0  0  0
   58.4457   -3.7421  -11.3613 C   0  0  0  0  0  0  0  0  0  0  0  0
   58.2785   -4.3429   -9.9961 C   0  0  0  0  0  0  0  0  0  0  0  0
   57.1603   -5.2940   -9.8668 C   0  0  0  0  0  0  0  0  0  0  0  0
   55.9258   -4.9940  -10.6376 C   0  0  0  0  0  0  0  0  0  0  0  0
   56.7880   -5.7281  -12.6651 H   0  0  0  0  0  0  0  0  0  0  0  0
   51.6003   -3.9461   -7.4722 C   0  0  0  0  0  0  0  0  0  0  0  0
   50.9094   -2.7554   -7.6921 C   0  0  0  0  0  0  0  0  0  0  0  0
   49.9862   -2.2786   -6.7946 C   0  0  0  0  0  0  0  0  0  0  0  0
   49.7126   -2.9659   -5.6427 C   0  0  0  0  0  0  0  0  0  0  0  0
   50.3864   -4.1522   -5.4010 C   0  0  0  0  0  0  0  0  0  0  0  0
   51.3203   -4.6328   -6.3107 C   0  0  0  0  0  0  0  0  0  0  0  0
  7  8  1  0  0  0
  8  9  1  0  0  0
  9 10  1  0  0  0
 10 11  1  0  0  0
 11 12  1  0  0  0
 12 13  1  0  0  0
 13  1  1  0  0  0
  1  2  1  0  0  0
  2  3  1  0  0  0
  3  4  1  0  0  0
  4  5  1  0  0  0
  5  6  1  0  0  0
  4 15  1  0  0  0
 15 16  2  0  0  0
 16 17  1  0  0  0
 17 18  2  0  0  0
 18 19  1  0  0  0
 19 20  2  0  0  0
 13  8  1  0  0  0
  6  1  1  0  0  0
 20 15  1  0  0  0
  7 14  1  0  0  0
M  END
> <minimizedAffinity>
-5.79721

> <CNNscore>
0.2913390398

> <CNNaffinity>
5.3300161362

> <CNN_VS>
1.5528417826

> <CNNaffinity_variance>
0.1266320497

$$$$
[H]O[C@]1([H])C([H])([H])C([H])([H])C([H])([H])C([H])([H])[C@@]1([H])N1C([H])([H])C([H])([H])C([H])(c2c([H])c([H])c([H])c([H])c2[H])C([H])([H])C1([H])[H]


 20 22  0  0  0  0  0  0  0  0999 V2000
   62.8315   -7.6771  -10.2492 N   0  0  0  0  0  0  0  0  0  0  0  0
   62.4426   -6.4248   -9.6583 C   0  0  0  0  0  0  0  0  0  0  0  0
   61.9899   -6.6855   -8.2584 C   0  0  0  0  0  0  0  0  0  0  0  0
   62.1125   -8.0894   -7.7955 C   0  0  0  0  0  0  0  0  0  0  0  0
   63.3667   -8.7974   -8.2407 C   0  0  0  0  0  0  0  0  0  0  0  0
   63.9360   -8.1986   -9.5318 C   0  0  0  0  0  0  0  0  0  0  0  0
   62.5875   -6.0506  -13.4385 O   0  0  0  0  0  0  0  0  0  0  0  0
   63.2741   -6.2580  -12.2179 C   0  0  0  0  0  0  0  0  0  0  0  0
   64.7107   -5.9683  -12.4849 C   0  0  0  0  0  0  0  0  0  0  0  0
   65.1828   -7.0254  -13.4885 C   0  0  0  0  0  0  0  0  0  0  0  0
   65.1711   -8.3221  -12.7327 C   0  0  0  0  0  0  0  0  0  0  0  0
   63.8592   -8.7136  -12.1876 C   0  0  0  0  0  0  0  0  0  0  0  0
   62.9828   -7.6228  -11.6874 C   0  0  0  0  0  0  0  0  0  0  0  0
   62.3040   -6.9435  -13.8018 H   0  0  0  0  0  0  0  0  0  0  0  0
   62.1494   -8.0756   -6.3089 C   0  0  0  0  0  0  0  0  0  0  0  0
   63.0041   -7.1924   -5.6509 C   0  0  0  0  0  0  0  0  0  0  0  0
   63.0769   -7.1419   -4.2808 C   0  0  0  0  0  0  0  0  0  0  0  0
   62.3033   -7.9672   -3.5096 C   0  0  0  0  0  0  0  0  0  0  0  0
   61.4456   -8.8543   -4.1400 C   0  0  0  0  0  0  0  0  0  0  0  0
   61.3737   -8.9034   -5.5267 C   0  0  0  0  0  0  0  0  0  0  0  0
  7  8  1  0  0  0
  8  9  1  0  0  0
  9 10  1  0  0  0
 10 11  1  0  0  0
 11 12  1  0  0  0
 12 13  1  0  0  0
 13  1  1  0  0  0
  1  2  1  0  0  0
  2  3  1  0  0  0
  3  4  1  0  0  0
  4  5  1  0  0  0
  5  6  1  0  0  0
  4 15  1  0  0  0
 15 16  2  0  0  0
 16 17  1  0  0  0
 17 18  2  0  0  0
 18 19  1  0  0  0
 19 20  2  0  0  0
 13  8  1  0  0  0
  6  1  1  0  0  0
 20 15  1  0  0  0
  7 14  1  0  0  0
M  END
> <minimizedAffinity>
-2.61190

> <CNNscore>
0.2871168256

> <CNNaffinity>
3.4510931969

> <CNN_VS>
0.9908668995

> <CNNaffinity_variance>
0.0974315852

$$$$
[H]O[C@]1([H])C([H])([H])C([H])([H])C([H])([H])C([H])([H])[C@@]1([H])N1C([H])([H])C([H])([H])C([H])(c2c([H])c([H])c([H])c([H])c2[H])C([H])([H])C1([H])[H]


 20 22  0  0  0  0  0  0  0  0999 V2000
   53.1636   -5.5951   -4.0497 N   0  0  0  0  0  0  0  0  0  0  0  0
   52.5354   -5.6908   -2.7594 C   0  0  0  0  0  0  0  0  0  0  0  0
   51.2899   -4.8657   -2.7800 C   0  0  0  0  0  0  0  0  0  0  0  0
   50.9609   -4.2331   -4.0807 C   0  0  0  0  0  0  0  0  0  0  0  0
   51.2166   -5.0969   -5.2894 C   0  0  0  0  0  0  0  0  0  0  0  0
   52.2974   -6.1507   -5.0231 C   0  0  0  0  0  0  0  0  0  0  0  0
   56.6383   -5.4197   -3.1710 O   0  0  0  0  0  0  0  0  0  0  0  0
   55.3054   -5.7607   -2.8371 C   0  0  0  0  0  0  0  0  0  0  0  0
   55.3873   -6.8600   -1.8350 C   0  0  0  0  0  0  0  0  0  0  0  0
   56.0231   -8.0526   -2.5566 C   0  0  0  0  0  0  0  0  0  0  0  0
   54.9992   -8.5013   -3.5580 C   0  0  0  0  0  0  0  0  0  0  0  0
   54.6063   -7.4817   -4.5468 C   0  0  0  0  0  0  0  0  0  0  0  0
   54.5284   -6.0756   -4.0725 C   0  0  0  0  0  0  0  0  0  0  0  0
   56.8260   -5.7396   -4.1049 H   0  0  0  0  0  0  0  0  0  0  0  0
   49.5040   -3.9348   -4.0848 C   0  0  0  0  0  0  0  0  0  0  0  0
   48.6446   -4.6957   -3.2937 C   0  0  0  0  0  0  0  0  0  0  0  0
   47.2920   -4.4618   -3.2636 C   0  0  0  0  0  0  0  0  0  0  0  0
   46.7392   -3.4625   -4.0186 C   0  0  0  0  0  0  0  0  0  0  0  0
   47.5726   -2.6921   -4.8135 C   0  0  0  0  0  0  0  0  0  0  0  0
   48.9411   -2.9306   -4.8422 C   0  0  0  0  0  0  0  0  0  0  0  0
  7  8  1  0  0  0
  8  9  1  0  0  0
  9 10  1  0  0  0
 10 11  1  0  0  0
 11 12  1  0  0  0
 12 13  1  0  0  0
 13  1  1  0  0  0
  1  2  1  0  0  0
  2  3  1  0  0  0
  3  4  1  0  0  0
  4  5  1  0  0  0
  5  6  1  0  0  0
  4 15  1  0  0  0
 15 16  2  0  0  0
 16 17  1  0  0  0
 17 18  2  0  0  0
 18 19  1  0  0  0
 19 20  2  0  0  0
 13  8  1  0  0  0
  6  1  1  0  0  0
 20 15  1  0  0  0
  7 14  1  0  0  0
M  END
> <minimizedAffinity>
-4.51433

> <CNNscore>
0.2818635106

> <CNNaffinity>
5.1668105125

> <CNN_VS>
1.4563353062

> <CNNaffinity_variance>
0.0963002294

$$$$
[H]O[C@@]1([H])C([H])=C(C(=O)N([H])[C@]2([H])[C@]([H])(O[H])[C@@]([H])(O[H])[C@]2([H])O[H])O[C@]([H])(O[C@@]([H])(n2c([H])c([H])c(=O)n([H])c2=O)[C@@]2([H])O[C@@]([H])(C(=O)N([H])[H])[C@]([H])(O[H])[C@]2([H])OC([H])([H])[H])[C@@]1([H])O[H]


 49 52  0  0  0  0  0  0  0  0999 V2000
   54.9958   -6.4590   -6.7777 O   0  0  0  0  0  0  0  0  0  0  0  0
   55.9598   -6.1782   -7.7070 C   0  0  0  0  0  0  0  0  0  0  0  0
   55.4953   -5.3839   -8.7926 O   0  0  0  0  0  0  0  0  0  0  0  0
   56.4164   -4.7240   -9.6227 C   0  0  0  0  0  0  0  0  0  0  0  0
   57.6649   -4.5504   -9.2558 C   0  0  0  0  0  0  0  0  0  0  0  0
   58.1875   -5.0287   -7.9624 C   0  0  0  0  0  0  0  0  0  0  0  0
   58.9363   -6.2047   -8.1108 O   0  0  0  0  0  0  0  0  0  0  0  0
   57.0375   -5.3123   -7.0396 C   0  0  0  0  0  0  0  0  0  0  0  0
   57.5524   -5.9122   -5.9008 O   0  0  0  0  0  0  0  0  0  0  0  0
   59.8065   -6.0196   -8.5426 H   0  0  0  0  0  0  0  0  0  0  0  0
   58.1324   -5.2354   -5.4711 H   0  0  0  0  0  0  0  0  0  0  0  0
   55.9529   -4.2320  -10.9114 C   0  0  0  0  0  0  0  0  0  0  0  0
   54.7597   -3.7678  -11.0211 O   0  0  0  0  0  0  0  0  0  0  0  0
   56.7237   -4.2231  -12.0763 N   0  0  0  0  0  0  0  0  0  0  0  0
   57.7031   -4.5711  -12.1130 H   0  0  0  0  0  0  0  0  0  0  0  0
   56.1922   -3.7166  -13.3303 C   0  0  0  0  0  0  0  0  0  0  0  0
   55.8051   -4.8338  -14.2992 C   0  0  0  0  0  0  0  0  0  0  0  0
   56.5887   -5.9715  -14.0204 O   0  0  0  0  0  0  0  0  0  0  0  0
   56.4028   -3.9908  -15.4063 C   0  0  0  0  0  0  0  0  0  0  0  0
   55.3799   -3.2219  -15.9779 O   0  0  0  0  0  0  0  0  0  0  0  0
   57.2155   -3.2734  -14.3381 C   0  0  0  0  0  0  0  0  0  0  0  0
   58.4588   -3.9036  -14.2122 O   0  0  0  0  0  0  0  0  0  0  0  0
   57.0051   -6.2668  -14.8809 H   0  0  0  0  0  0  0  0  0  0  0  0
   54.8973   -2.6939  -15.3213 H   0  0  0  0  0  0  0  0  0  0  0  0
   59.1894   -3.2678  -14.3794 H   0  0  0  0  0  0  0  0  0  0  0  0
   54.4376   -5.3936   -6.1247 C   0  0  0  0  0  0  0  0  0  0  0  0
   53.0612   -5.1271   -6.4786 N   0  0  0  0  0  0  0  0  0  0  0  0
   52.0721   -5.9320   -6.0547 C   0  0  0  0  0  0  0  0  0  0  0  0
   50.7486   -5.6647   -6.4073 C   0  0  0  0  0  0  0  0  0  0  0  0
   50.5045   -4.5565   -7.1969 C   0  0  0  0  0  0  0  0  0  0  0  0
   49.2967   -4.3189   -7.5144 O   0  0  0  0  0  0  0  0  0  0  0  0
   51.5125   -3.7581   -7.6137 N   0  0  0  0  0  0  0  0  0  0  0  0
   52.7756   -4.0648   -7.2417 C   0  0  0  0  0  0  0  0  0  0  0  0
   53.7122   -3.3301   -7.6235 O   0  0  0  0  0  0  0  0  0  0  0  0
   51.3096   -2.9261   -8.2085 H   0  0  0  0  0  0  0  0  0  0  0  0
   55.0955   -6.8286   -4.1543 C   0  0  0  0  0  0  0  0  0  0  0  0
   53.8891   -7.3625   -3.4256 C   0  0  0  0  0  0  0  0  0  0  0  0
   54.1749   -8.2348   -2.4103 O   0  0  0  0  0  0  0  0  0  0  0  0
   53.2213   -6.0885   -2.9535 C   0  0  0  0  0  0  0  0  0  0  0  0
   53.4169   -5.2038   -3.9869 O   0  0  0  0  0  0  0  0  0  0  0  0
   54.6081   -5.5086   -4.6266 C   0  0  0  0  0  0  0  0  0  0  0  0
   53.7049   -9.0953   -2.4887 H   0  0  0  0  0  0  0  0  0  0  0  0
   51.7977   -6.2895   -2.6638 C   0  0  0  0  0  0  0  0  0  0  0  0
   51.2950   -7.5353   -2.1994 N   0  0  0  0  0  0  0  0  0  0  0  0
   50.9806   -5.3542   -2.8211 O   0  0  0  0  0  0  0  0  0  0  0  0
   51.6459   -8.4599   -2.5266 H   0  0  0  0  0  0  0  0  0  0  0  0
   50.5236   -7.5198   -1.4831 H   0  0  0  0  0  0  0  0  0  0  0  0
   57.0428   -7.9049   -3.5064 C   0  0  0  0  0  0  0  0  0  0  0  0
   56.2325   -6.7942   -3.3866 O   0  0  0  0  0  0  0  0  0  0  0  0
 48 49  1  0  0  0
 49 36  1  0  0  0
 36 37  1  0  0  0
 37 38  1  0  0  0
 37 39  1  0  0  0
 39 40  1  0  0  0
 40 41  1  0  0  0
 41 26  1  0  0  0
 26  1  1  0  0  0
  1  2  1  0  0  0
  2  3  1  0  0  0
  3  4  1  0  0  0
  4  5  2  0  0  0
  5  6  1  0  0  0
  6  7  1  0  0  0
  6  8  1  0  0  0
  8  9  1  0  0  0
  4 12  1  0  0  0
 12 13  2  0  0  0
 12 14  1  0  0  0
 14 16  1  0  0  0
 16 17  1  0  0  0
 17 18  1  0  0  0
 17 19  1  0  0  0
 19 20  1  0  0  0
 19 21  1  0  0  0
 21 22  1  0  0  0
 26 27  1  0  0  0
 27 28  1  0  0  0
 28 29  2  0  0  0
 29 30  1  0  0  0
 30 31  2  0  0  0
 30 32  1  0  0  0
 32 33  1  0  0  0
 33 34  2  0  0  0
 39 43  1  0  0  0
 43 44  1  0  0  0
 43 45  2  0  0  0
 41 36  1  0  0  0
  8  2  1  0  0  0
 21 16  1  0  0  0
 33 27  1  0  0  0
 38 42  1  0  0  0
  7 10  1  0  0  0
  9 11  1  0  0  0
 14 15  1  0  0  0
 18 23  1  0  0  0
 20 24  1  0  0  0
 22 25  1  0  0  0
 32 35  1  0  0  0
 44 46  1  0  0  0
 44 47  1  0  0  0
M  END
> <minimizedAffinity>
-5.92352

> <CNNscore>
0.4237210751

> <CNNaffinity>
5.6538987160

> <CNN_VS>
2.3956761360

> <CNNaffinity_variance>
0.1365926117

$$$$
[H]O[C@@]1([H])C([H])=C(C(=O)N([H])[C@]2([H])[C@]([H])(O[H])[C@@]([H])(O[H])[C@]2([H])O[H])O[C@]([H])(O[C@@]([H])(n2c([H])c([H])c(=O)n([H])c2=O)[C@@]2([H])O[C@@]([H])(C(=O)N([H])[H])[C@]([H])(O[H])[C@]2([H])OC([H])([H])[H])[C@@]1([H])O[H]


 49 52  0  0  0  0  0  0  0  0999 V2000
   56.4519   -6.0417   -7.7667 O   0  0  0  0  0  0  0  0  0  0  0  0
   57.1938   -5.9838   -8.9149 C   0  0  0  0  0  0  0  0  0  0  0  0
   56.6748   -5.0842   -9.8878 O   0  0  0  0  0  0  0  0  0  0  0  0
   57.4899   -4.6496  -10.9459 C   0  0  0  0  0  0  0  0  0  0  0  0
   58.7951   -4.7846  -10.9032 C   0  0  0  0  0  0  0  0  0  0  0  0
   59.4943   -5.3947   -9.7570 C   0  0  0  0  0  0  0  0  0  0  0  0
   59.8851   -6.7127  -10.0322 O   0  0  0  0  0  0  0  0  0  0  0  0
   58.5754   -5.4108   -8.5697 C   0  0  0  0  0  0  0  0  0  0  0  0
   59.2006   -6.1346   -7.5661 O   0  0  0  0  0  0  0  0  0  0  0  0
   60.6395   -6.7335  -10.6713 H   0  0  0  0  0  0  0  0  0  0  0  0
   60.0111   -5.6226   -7.3212 H   0  0  0  0  0  0  0  0  0  0  0  0
   56.8505   -4.0404  -12.1026 C   0  0  0  0  0  0  0  0  0  0  0  0
   55.7120   -3.4606  -11.9657 O   0  0  0  0  0  0  0  0  0  0  0  0
   57.3907   -4.0346  -13.3907 N   0  0  0  0  0  0  0  0  0  0  0  0
   58.3053   -4.4701  -13.6261 H   0  0  0  0  0  0  0  0  0  0  0  0
   56.6927   -3.4067  -14.4999 C   0  0  0  0  0  0  0  0  0  0  0  0
   55.9007   -4.4089  -15.3397 C   0  0  0  0  0  0  0  0  0  0  0  0
   56.5058   -5.6768  -15.2279 O   0  0  0  0  0  0  0  0  0  0  0  0
   56.3781   -3.6587  -16.5656 C   0  0  0  0  0  0  0  0  0  0  0  0
   55.4109   -2.7022  -16.9031 O   0  0  0  0  0  0  0  0  0  0  0  0
   57.5268   -3.1293  -15.7191 C   0  0  0  0  0  0  0  0  0  0  0  0
   58.6302   -3.9774  -15.8676 O   0  0  0  0  0  0  0  0  0  0  0  0
   56.6572   -6.0194  -16.1556 H   0  0  0  0  0  0  0  0  0  0  0  0
   55.1928   -2.1133  -16.1625 H   0  0  0  0  0  0  0  0  0  0  0  0
   59.4081   -3.4802  -16.2049 H   0  0  0  0  0  0  0  0  0  0  0  0
   56.1497   -4.8501   -7.1653 C   0  0  0  0  0  0  0  0  0  0  0  0
   55.0316   -4.1474   -7.7542 N   0  0  0  0  0  0  0  0  0  0  0  0
   55.1124   -2.8358   -8.0356 C   0  0  0  0  0  0  0  0  0  0  0  0
   54.0239   -2.1696   -8.6002 C   0  0  0  0  0  0  0  0  0  0  0  0
   52.8804   -2.9044   -8.8525 C   0  0  0  0  0  0  0  0  0  0  0  0
   51.8927   -2.2914   -9.3668 O   0  0  0  0  0  0  0  0  0  0  0  0
   52.8176   -4.2233   -8.5628 N   0  0  0  0  0  0  0  0  0  0  0  0
   53.9025   -4.8172   -8.0168 C   0  0  0  0  0  0  0  0  0  0  0  0
   53.8509   -6.0367   -7.7470 O   0  0  0  0  0  0  0  0  0  0  0  0
   51.9468   -4.7617   -8.7603 H   0  0  0  0  0  0  0  0  0  0  0  0
   56.3135   -6.3554   -5.1451 C   0  0  0  0  0  0  0  0  0  0  0  0
   54.9624   -6.8747   -4.7252 C   0  0  0  0  0  0  0  0  0  0  0  0
   54.9923   -7.7816   -3.7005 O   0  0  0  0  0  0  0  0  0  0  0  0
   54.2323   -5.5956   -4.3748 C   0  0  0  0  0  0  0  0  0  0  0  0
   54.6757   -4.6892   -5.3080 O   0  0  0  0  0  0  0  0  0  0  0  0
   55.9739   -5.0100   -5.6719 C   0  0  0  0  0  0  0  0  0  0  0  0
   54.5341   -8.6262   -3.9110 H   0  0  0  0  0  0  0  0  0  0  0  0
   52.7762   -5.7642   -4.4206 C   0  0  0  0  0  0  0  0  0  0  0  0
   52.0813   -6.5510   -3.4621 N   0  0  0  0  0  0  0  0  0  0  0  0
   52.1018   -5.2105   -5.3183 O   0  0  0  0  0  0  0  0  0  0  0  0
   52.4521   -7.4388   -3.0629 H   0  0  0  0  0  0  0  0  0  0  0  0
   51.1377   -6.2145   -3.1385 H   0  0  0  0  0  0  0  0  0  0  0  0
   58.2256   -7.3374   -4.2791 C   0  0  0  0  0  0  0  0  0  0  0  0
   57.2477   -6.3736   -4.1398 O   0  0  0  0  0  0  0  0  0  0  0  0
 48 49  1  0  0  0
 49 36  1  0  0  0
 36 37  1  0  0  0
 37 38  1  0  0  0
 37 39  1  0  0  0
 39 40  1  0  0  0
 40 41  1  0  0  0
 41 26  1  0  0  0
 26  1  1  0  0  0
  1  2  1  0  0  0
  2  3  1  0  0  0
  3  4  1  0  0  0
  4  5  2  0  0  0
  5  6  1  0  0  0
  6  7  1  0  0  0
  6  8  1  0  0  0
  8  9  1  0  0  0
  4 12  1  0  0  0
 12 13  2  0  0  0
 12 14  1  0  0  0
 14 16  1  0  0  0
 16 17  1  0  0  0
 17 18  1  0  0  0
 17 19  1  0  0  0
 19 20  1  0  0  0
 19 21  1  0  0  0
 21 22  1  0  0  0
 26 27  1  0  0  0
 27 28  1  0  0  0
 28 29  2  0  0  0
 29 30  1  0  0  0
 30 31  2  0  0  0
 30 32  1  0  0  0
 32 33  1  0  0  0
 33 34  2  0  0  0
 39 43  1  0  0  0
 43 44  1  0  0  0
 43 45  2  0  0  0
 41 36  1  0  0  0
  8  2  1  0  0  0
 21 16  1  0  0  0
 33 27  1  0  0  0
 38 42  1  0  0  0
  7 10  1  0  0  0
  9 11  1  0  0  0
 14 15  1  0  0  0
 18 23  1  0  0  0
 20 24  1  0  0  0
 22 25  1  0  0  0
 32 35  1  0  0  0
 44 46  1  0  0  0
 44 47  1  0  0  0
M  END
> <minimizedAffinity>
-6.84455

> <CNNscore>
0.3936295807

> <CNNaffinity>
5.4909024239

> <CNN_VS>
2.1613817215

> <CNNaffinity_variance>
0.0438537523

$$$$
[H]O[C@@]1([H])C([H])=C(C(=O)N([H])[C@]2([H])[C@]([H])(O[H])[C@@]([H])(O[H])[C@]2([H])O[H])O[C@]([H])(O[C@@]([H])(n2c([H])c([H])c(=O)n([H])c2=O)[C@@]2([H])O[C@@]([H])(C(=O)N([H])[H])[C@]([H])(O[H])[C@]2([H])OC([H])([H])[H])[C@@]1([H])O[H]


 49 52  0  0  0  0  0  0  0  0999 V2000
   55.1162   -5.7767   -7.7279 O   0  0  0  0  0  0  0  0  0  0  0  0
   56.1372   -5.1273   -8.3663 C   0  0  0  0  0  0  0  0  0  0  0  0
   57.3779   -5.8229   -8.3178 O   0  0  0  0  0  0  0  0  0  0  0  0
   58.4099   -5.4781   -9.2061 C   0  0  0  0  0  0  0  0  0  0  0  0
   58.1753   -4.7635  -10.2821 C   0  0  0  0  0  0  0  0  0  0  0  0
   56.8290   -4.2752  -10.6344 C   0  0  0  0  0  0  0  0  0  0  0  0
   56.6756   -2.9160  -10.3267 O   0  0  0  0  0  0  0  0  0  0  0  0
   55.8035   -5.0545   -9.8629 C   0  0  0  0  0  0  0  0  0  0  0  0
   54.5701   -4.4639  -10.0906 O   0  0  0  0  0  0  0  0  0  0  0  0
   57.1883   -2.3496  -10.9547 H   0  0  0  0  0  0  0  0  0  0  0  0
   54.3832   -4.5796  -11.0553 H   0  0  0  0  0  0  0  0  0  0  0  0
   59.7586   -5.9343   -8.9053 C   0  0  0  0  0  0  0  0  0  0  0  0
   60.5628   -5.1601   -8.2688 O   0  0  0  0  0  0  0  0  0  0  0  0
   60.2668   -7.1851   -9.2637 N   0  0  0  0  0  0  0  0  0  0  0  0
   59.7121   -7.8980   -9.7794 H   0  0  0  0  0  0  0  0  0  0  0  0
   61.6272   -7.5718   -8.9301 C   0  0  0  0  0  0  0  0  0  0  0  0
   61.8152   -9.0884   -8.8921 C   0  0  0  0  0  0  0  0  0  0  0  0
   60.5806   -9.6937   -8.5828 O   0  0  0  0  0  0  0  0  0  0  0  0
   62.6716   -8.8851   -7.6596 C   0  0  0  0  0  0  0  0  0  0  0  0
   64.0105   -8.7891   -8.0626 O   0  0  0  0  0  0  0  0  0  0  0  0
   61.9690   -7.5490   -7.4666 C   0  0  0  0  0  0  0  0  0  0  0  0
   60.8725   -7.7300   -6.6159 O   0  0  0  0  0  0  0  0  0  0  0  0
   60.7359  -10.3161   -7.8152 H   0  0  0  0  0  0  0  0  0  0  0  0
   64.1504   -8.1034   -8.7357 H   0  0  0  0  0  0  0  0  0  0  0  0
   60.9477   -7.1528   -5.8239 H   0  0  0  0  0  0  0  0  0  0  0  0
   54.5425   -5.1325   -6.6654 C   0  0  0  0  0  0  0  0  0  0  0  0
   53.1904   -4.6766   -6.8990 N   0  0  0  0  0  0  0  0  0  0  0  0
   52.1378   -5.3836   -6.4537 C   0  0  0  0  0  0  0  0  0  0  0  0
   50.8382   -4.9335   -6.6899 C   0  0  0  0  0  0  0  0  0  0  0  0
   50.6842   -3.7508   -7.3889 C   0  0  0  0  0  0  0  0  0  0  0  0
   49.4977   -3.3465   -7.6006 O   0  0  0  0  0  0  0  0  0  0  0  0
   51.7551   -3.0530   -7.8289 N   0  0  0  0  0  0  0  0  0  0  0  0
   52.9912   -3.5363   -7.5714 C   0  0  0  0  0  0  0  0  0  0  0  0
   53.9856   -2.8954   -7.9753 O   0  0  0  0  0  0  0  0  0  0  0  0
   51.6198   -2.1626   -8.3544 H   0  0  0  0  0  0  0  0  0  0  0  0
   54.6835   -5.1663   -4.1448 C   0  0  0  0  0  0  0  0  0  0  0  0
   56.0892   -5.4277   -3.6682 C   0  0  0  0  0  0  0  0  0  0  0  0
   56.2555   -5.3535   -2.3116 O   0  0  0  0  0  0  0  0  0  0  0  0
   56.3580   -6.8067   -4.2322 C   0  0  0  0  0  0  0  0  0  0  0  0
   55.7359   -6.7955   -5.4577 O   0  0  0  0  0  0  0  0  0  0  0  0
   54.6345   -5.9562   -5.4005 C   0  0  0  0  0  0  0  0  0  0  0  0
   56.9674   -4.7327   -2.0372 H   0  0  0  0  0  0  0  0  0  0  0  0
   57.7938   -7.0829   -4.3469 C   0  0  0  0  0  0  0  0  0  0  0  0
   58.5493   -7.5929   -3.2563 N   0  0  0  0  0  0  0  0  0  0  0  0
   58.3956   -6.8727   -5.4243 O   0  0  0  0  0  0  0  0  0  0  0  0
   58.3982   -7.3114   -2.2648 H   0  0  0  0  0  0  0  0  0  0  0  0
   59.3046   -8.2959   -3.4654 H   0  0  0  0  0  0  0  0  0  0  0  0
   53.1006   -6.6941   -3.4164 C   0  0  0  0  0  0  0  0  0  0  0  0
   53.7205   -5.4772   -3.2177 O   0  0  0  0  0  0  0  0  0  0  0  0
 48 49  1  0  0  0
 49 36  1  0  0  0
 36 37  1  0  0  0
 37 38  1  0  0  0
 37 39  1  0  0  0
 39 40  1  0  0  0
 40 41  1  0  0  0
 41 26  1  0  0  0
 26  1  1  0  0  0
  1  2  1  0  0  0
  2  3  1  0  0  0
  3  4  1  0  0  0
  4  5  2  0  0  0
  5  6  1  0  0  0
  6  7  1  0  0  0
  6  8  1  0  0  0
  8  9  1  0  0  0
  4 12  1  0  0  0
 12 13  2  0  0  0
 12 14  1  0  0  0
 14 16  1  0  0  0
 16 17  1  0  0  0
 17 18  1  0  0  0
 17 19  1  0  0  0
 19 20  1  0  0  0
 19 21  1  0  0  0
 21 22  1  0  0  0
 26 27  1  0  0  0
 27 28  1  0  0  0
 28 29  2  0  0  0
 29 30  1  0  0  0
 30 31  2  0  0  0
 30 32  1  0  0  0
 32 33  1  0  0  0
 33 34  2  0  0  0
 39 43  1  0  0  0
 43 44  1  0  0  0
 43 45  2  0  0  0
 41 36  1  0  0  0
  8  2  1  0  0  0
 21 16  1  0  0  0
 33 27  1  0  0  0
 38 42  1  0  0  0
  7 10  1  0  0  0
  9 11  1  0  0  0
 14 15  1  0  0  0
 18 23  1  0  0  0
 20 24  1  0  0  0
 22 25  1  0  0  0
 32 35  1  0  0  0
 44 46  1  0  0  0
 44 47  1  0  0  0
M  END
> <minimizedAffinity>
-6.27803

> <CNNscore>
0.2576175332

> <CNNaffinity>
5.2540497780

> <CNN_VS>
1.3535352945

> <CNNaffinity_variance>
0.4696665704

$$$$
[H]O[C@@]1([H])C([H])=C(C(=O)N([H])[C@]2([H])[C@]([H])(O[H])[C@@]([H])(O[H])[C@]2([H])O[H])O[C@]([H])(O[C@@]([H])(n2c([H])c([H])c(=O)n([H])c2=O)[C@@]2([H])O[C@@]([H])(C(=O)N([H])[H])[C@]([H])(O[H])[C@]2([H])OC([H])([H])[H])[C@@]1([H])O[H]


 49 52  0  0  0  0  0  0  0  0999 V2000
   54.3092   -5.5659   -7.9620 O   0  0  0  0  0  0  0  0  0  0  0  0
   55.4116   -4.9098   -8.4376 C   0  0  0  0  0  0  0  0  0  0  0  0
   56.6088   -5.6760   -8.3683 O   0  0  0  0  0  0  0  0  0  0  0  0
   57.7293   -5.2955   -9.1250 C   0  0  0  0  0  0  0  0  0  0  0  0
   57.6232   -4.4554  -10.1283 C   0  0  0  0  0  0  0  0  0  0  0  0
   56.3374   -3.8557  -10.5306 C   0  0  0  0  0  0  0  0  0  0  0  0
   56.2226   -2.5318  -10.0839 O   0  0  0  0  0  0  0  0  0  0  0  0
   55.2128   -4.6550   -9.9384 C   0  0  0  0  0  0  0  0  0  0  0  0
   54.0333   -3.9738  -10.1966 O   0  0  0  0  0  0  0  0  0  0  0  0
   56.8142   -1.9302  -10.5997 H   0  0  0  0  0  0  0  0  0  0  0  0
   53.9256   -3.9726  -11.1801 H   0  0  0  0  0  0  0  0  0  0  0  0
   59.0236   -5.8579   -8.7699 C   0  0  0  0  0  0  0  0  0  0  0  0
   59.2783   -6.1373   -7.5418 O   0  0  0  0  0  0  0  0  0  0  0  0
   60.0446   -6.1272   -9.6843 N   0  0  0  0  0  0  0  0  0  0  0  0
   59.9571   -5.9453  -10.7046 H   0  0  0  0  0  0  0  0  0  0  0  0
   61.3144   -6.6888   -9.2554 C   0  0  0  0  0  0  0  0  0  0  0  0
   62.4048   -6.5580  -10.3188 C   0  0  0  0  0  0  0  0  0  0  0  0
   61.7987   -6.5089  -11.5902 O   0  0  0  0  0  0  0  0  0  0  0  0
   62.8393   -7.9616   -9.9514 C   0  0  0  0  0  0  0  0  0  0  0  0
   63.8524   -7.8725   -8.9871 O   0  0  0  0  0  0  0  0  0  0  0  0
   61.4428   -8.1806   -9.3874 C   0  0  0  0  0  0  0  0  0  0  0  0
   60.6335   -8.7429  -10.3812 O   0  0  0  0  0  0  0  0  0  0  0  0
   62.2440   -7.1992  -12.1613 H   0  0  0  0  0  0  0  0  0  0  0  0
   63.5888   -7.3458   -8.2151 H   0  0  0  0  0  0  0  0  0  0  0  0
   60.2649   -9.6041  -10.0835 H   0  0  0  0  0  0  0  0  0  0  0  0
   53.7300   -5.0609   -6.8295 C   0  0  0  0  0  0  0  0  0  0  0  0
   52.3923   -4.5457   -7.0183 N   0  0  0  0  0  0  0  0  0  0  0  0
   51.3186   -5.2602   -6.6407 C   0  0  0  0  0  0  0  0  0  0  0  0
   50.0332   -4.7520   -6.8327 C   0  0  0  0  0  0  0  0  0  0  0  0
   49.9152   -3.5049   -7.4174 C   0  0  0  0  0  0  0  0  0  0  0  0
   48.7415   -3.0480   -7.5894 O   0  0  0  0  0  0  0  0  0  0  0  0
   51.0070   -2.8005   -7.7907 N   0  0  0  0  0  0  0  0  0  0  0  0
   52.2279   -3.3418   -7.5805 C   0  0  0  0  0  0  0  0  0  0  0  0
   53.2415   -2.6953   -7.9231 O   0  0  0  0  0  0  0  0  0  0  0  0
   50.8988   -1.8611   -8.2301 H   0  0  0  0  0  0  0  0  0  0  0  0
   53.3591   -5.5117   -4.3732 C   0  0  0  0  0  0  0  0  0  0  0  0
   54.6557   -5.5161   -3.6048 C   0  0  0  0  0  0  0  0  0  0  0  0
   54.5162   -5.6492   -2.2498 O   0  0  0  0  0  0  0  0  0  0  0  0
   55.3957   -6.6691   -4.2491 C   0  0  0  0  0  0  0  0  0  0  0  0
   55.0565   -6.5851   -5.5783 O   0  0  0  0  0  0  0  0  0  0  0  0
   53.7817   -6.0527   -5.6892 C   0  0  0  0  0  0  0  0  0  0  0  0
   54.9628   -4.9378   -1.7378 H   0  0  0  0  0  0  0  0  0  0  0  0
   56.8448   -6.5745   -4.0444 C   0  0  0  0  0  0  0  0  0  0  0  0
   57.7715   -7.0971   -4.9871 N   0  0  0  0  0  0  0  0  0  0  0  0
   57.3055   -6.0228   -3.0194 O   0  0  0  0  0  0  0  0  0  0  0  0
   57.6222   -7.9812   -5.5173 H   0  0  0  0  0  0  0  0  0  0  0  0
   58.6591   -6.5573   -5.1575 H   0  0  0  0  0  0  0  0  0  0  0  0
   51.3353   -5.4104   -3.2489 C   0  0  0  0  0  0  0  0  0  0  0  0
   52.3481   -6.2014   -3.7521 O   0  0  0  0  0  0  0  0  0  0  0  0
 48 49  1  0  0  0
 49 36  1  0  0  0
 36 37  1  0  0  0
 37 38  1  0  0  0
 37 39  1  0  0  0
 39 40  1  0  0  0
 40 41  1  0  0  0
 41 26  1  0  0  0
 26  1  1  0  0  0
  1  2  1  0  0  0
  2  3  1  0  0  0
  3  4  1  0  0  0
  4  5  2  0  0  0
  5  6  1  0  0  0
  6  7  1  0  0  0
  6  8  1  0  0  0
  8  9  1  0  0  0
  4 12  1  0  0  0
 12 13  2  0  0  0
 12 14  1  0  0  0
 14 16  1  0  0  0
 16 17  1  0  0  0
 17 18  1  0  0  0
 17 19  1  0  0  0
 19 20  1  0  0  0
 19 21  1  0  0  0
 21 22  1  0  0  0
 26 27  1  0  0  0
 27 28  1  0  0  0
 28 29  2  0  0  0
 29 30  1  0  0  0
 30 31  2  0  0  0
 30 32  1  0  0  0
 32 33  1  0  0  0
 33 34  2  0  0  0
 39 43  1  0  0  0
 43 44  1  0  0  0
 43 45  2  0  0  0
 41 36  1  0  0  0
  8  2  1  0  0  0
 21 16  1  0  0  0
 33 27  1  0  0  0
 38 42  1  0  0  0
  7 10  1  0  0  0
  9 11  1  0  0  0
 14 15  1  0  0  0
 18 23  1  0  0  0
 20 24  1  0  0  0
 22 25  1  0  0  0
 32 35  1  0  0  0
 44 46  1  0  0  0
 44 47  1  0  0  0
M  END
> <minimizedAffinity>
-7.14858

> <CNNscore>
0.2502512932

> <CNNaffinity>
5.6039867401

> <CNN_VS>
1.4024049044

> <CNNaffinity_variance>
0.1403295696

$$$$
[H]O[C@@]1([H])C([H])=C(C(=O)N([H])[C@]2([H])[C@]([H])(O[H])[C@@]([H])(O[H])[C@]2([H])O[H])O[C@]([H])(O[C@@]([H])(n2c([H])c([H])c(=O)n([H])c2=O)[C@@]2([H])O[C@@]([H])(C(=O)N([H])[H])[C@]([H])(O[H])[C@]2([H])OC([H])([H])[H])[C@@]1([H])O[H]


 49 52  0  0  0  0  0  0  0  0999 V2000
   55.2281   -5.3852   -5.1560 O   0  0  0  0  0  0  0  0  0  0  0  0
   55.7858   -6.5242   -4.6426 C   0  0  0  0  0  0  0  0  0  0  0  0
   57.2025   -6.4640   -4.5206 O   0  0  0  0  0  0  0  0  0  0  0  0
   57.8750   -7.3844   -3.7000 C   0  0  0  0  0  0  0  0  0  0  0  0
   57.2343   -8.0921   -2.7987 C   0  0  0  0  0  0  0  0  0  0  0  0
   55.7800   -7.9759   -2.5831 C   0  0  0  0  0  0  0  0  0  0  0  0
   55.0844   -9.0444   -3.1663 O   0  0  0  0  0  0  0  0  0  0  0  0
   55.2898   -6.6980   -3.2003 C   0  0  0  0  0  0  0  0  0  0  0  0
   53.9055   -6.7006   -3.1251 O   0  0  0  0  0  0  0  0  0  0  0  0
   55.2254   -9.8803   -2.6570 H   0  0  0  0  0  0  0  0  0  0  0  0
   53.6819   -6.6828   -2.1614 H   0  0  0  0  0  0  0  0  0  0  0  0
   59.3118   -7.5387   -3.8717 C   0  0  0  0  0  0  0  0  0  0  0  0
   60.1153   -6.8666   -3.1275 O   0  0  0  0  0  0  0  0  0  0  0  0
   59.9079   -8.3848   -4.8098 N   0  0  0  0  0  0  0  0  0  0  0  0
   59.3633   -8.9795   -5.4666 H   0  0  0  0  0  0  0  0  0  0  0  0
   61.3529   -8.4861   -4.9252 C   0  0  0  0  0  0  0  0  0  0  0  0
   61.9186   -7.5963   -6.0321 C   0  0  0  0  0  0  0  0  0  0  0  0
   60.9250   -7.3999   -7.0121 O   0  0  0  0  0  0  0  0  0  0  0  0
   62.8465   -8.7397   -6.3863 C   0  0  0  0  0  0  0  0  0  0  0  0
   64.0559   -8.5557   -5.7023 O   0  0  0  0  0  0  0  0  0  0  0  0
   61.8617   -9.6722   -5.6957 C   0  0  0  0  0  0  0  0  0  0  0  0
   60.9633  -10.1703   -6.6463 O   0  0  0  0  0  0  0  0  0  0  0  0
   61.3281   -7.6315   -7.8980 H   0  0  0  0  0  0  0  0  0  0  0  0
   63.9323   -8.4538   -4.7446 H   0  0  0  0  0  0  0  0  0  0  0  0
   60.9916  -11.1524   -6.6705 H   0  0  0  0  0  0  0  0  0  0  0  0
   54.7870   -5.4421   -6.4503 C   0  0  0  0  0  0  0  0  0  0  0  0
   53.3483   -5.4586   -6.5937 N   0  0  0  0  0  0  0  0  0  0  0  0
   52.5933   -4.4703   -6.0846 C   0  0  0  0  0  0  0  0  0  0  0  0
   51.2054   -4.5014   -6.2271 C   0  0  0  0  0  0  0  0  0  0  0  0
   50.6520   -5.5734   -6.9022 C   0  0  0  0  0  0  0  0  0  0  0  0
   49.3872   -5.5954   -7.0283 O   0  0  0  0  0  0  0  0  0  0  0  0
   51.4275   -6.5584   -7.4076 N   0  0  0  0  0  0  0  0  0  0  0  0
   52.7666   -6.4766   -7.2400 C   0  0  0  0  0  0  0  0  0  0  0  0
   53.4894   -7.3842   -7.7055 O   0  0  0  0  0  0  0  0  0  0  0  0
   50.9926   -7.3593   -7.9142 H   0  0  0  0  0  0  0  0  0  0  0  0
   54.6960   -4.0677   -8.5662 C   0  0  0  0  0  0  0  0  0  0  0  0
   55.6761   -4.5654   -9.5973 C   0  0  0  0  0  0  0  0  0  0  0  0
   55.6034   -3.9305  -10.8077 O   0  0  0  0  0  0  0  0  0  0  0  0
   57.0001   -4.3638   -8.8913 C   0  0  0  0  0  0  0  0  0  0  0  0
   56.7318   -4.6735   -7.5794 O   0  0  0  0  0  0  0  0  0  0  0  0
   55.4119   -4.3575   -7.2987 C   0  0  0  0  0  0  0  0  0  0  0  0
   55.4824   -4.5451  -11.5661 H   0  0  0  0  0  0  0  0  0  0  0  0
   58.0562   -5.2131   -9.4519 C   0  0  0  0  0  0  0  0  0  0  0  0
   58.9814   -5.9050   -8.6238 N   0  0  0  0  0  0  0  0  0  0  0  0
   58.1684   -5.3502  -10.6912 O   0  0  0  0  0  0  0  0  0  0  0  0
   59.3772   -5.5127   -7.7437 H   0  0  0  0  0  0  0  0  0  0  0  0
   59.2821   -6.8697   -8.9192 H   0  0  0  0  0  0  0  0  0  0  0  0
   52.9727   -2.5635   -8.9378 C   0  0  0  0  0  0  0  0  0  0  0  0
   54.3253   -2.7584   -8.7449 O   0  0  0  0  0  0  0  0  0  0  0  0
 48 49  1  0  0  0
 49 36  1  0  0  0
 36 37  1  0  0  0
 37 38  1  0  0  0
 37 39  1  0  0  0
 39 40  1  0  0  0
 40 41  1  0  0  0
 41 26  1  0  0  0
 26  1  1  0  0  0
  1  2  1  0  0  0
  2  3  1  0  0  0
  3  4  1  0  0  0
  4  5  2  0  0  0
  5  6  1  0  0  0
  6  7  1  0  0  0
  6  8  1  0  0  0
  8  9  1  0  0  0
  4 12  1  0  0  0
 12 13  2  0  0  0
 12 14  1  0  0  0
 14 16  1  0  0  0
 16 17  1  0  0  0
 17 18  1  0  0  0
 17 19  1  0  0  0
 19 20  1  0  0  0
 19 21  1  0  0  0
 21 22  1  0  0  0
 26 27  1  0  0  0
 27 28  1  0  0  0
 28 29  2  0  0  0
 29 30  1  0  0  0
 30 31  2  0  0  0
 30 32  1  0  0  0
 32 33  1  0  0  0
 33 34  2  0  0  0
 39 43  1  0  0  0
 43 44  1  0  0  0
 43 45  2  0  0  0
 41 36  1  0  0  0
  8  2  1  0  0  0
 21 16  1  0  0  0
 33 27  1  0  0  0
 38 42  1  0  0  0
  7 10  1  0  0  0
  9 11  1  0  0  0
 14 15  1  0  0  0
 18 23  1  0  0  0
 20 24  1  0  0  0
 22 25  1  0  0  0
 32 35  1  0  0  0
 44 46  1  0  0  0
 44 47  1  0  0  0
M  END
> <minimizedAffinity>
-8.23446

> <CNNscore>
0.2430836856

> <CNNaffinity>
5.0938301086

> <CNN_VS>
1.2382270098

> <CNNaffinity_variance>
0.1952397674

$$$$
[H]O[C@@]1([H])C([H])=C(C(=O)N([H])[C@]2([H])[C@]([H])(O[H])[C@@]([H])(O[H])[C@]2([H])O[H])O[C@]([H])(O[C@@]([H])(n2c([H])c([H])c(=O)n([H])c2=O)[C@@]2([H])O[C@@]([H])(C(=O)N([H])[H])[C@]([H])(O[H])[C@]2([H])OC([H])([H])[H])[C@@]1([H])O[H]


 49 52  0  0  0  0  0  0  0  0999 V2000
   56.9769   -5.6481   -5.5879 O   0  0  0  0  0  0  0  0  0  0  0  0
   57.1671   -6.7961   -4.8683 C   0  0  0  0  0  0  0  0  0  0  0  0
   58.5349   -7.0863   -4.6031 O   0  0  0  0  0  0  0  0  0  0  0  0
   58.8739   -8.0070   -3.5980 C   0  0  0  0  0  0  0  0  0  0  0  0
   58.0049   -8.3720   -2.6841 C   0  0  0  0  0  0  0  0  0  0  0  0
   56.6260   -7.8505   -2.6447 C   0  0  0  0  0  0  0  0  0  0  0  0
   55.7072   -8.7809   -3.1502 O   0  0  0  0  0  0  0  0  0  0  0  0
   56.5455   -6.6041   -3.4778 C   0  0  0  0  0  0  0  0  0  0  0  0
   55.2109   -6.2361   -3.5532 O   0  0  0  0  0  0  0  0  0  0  0  0
   55.5802   -9.5329   -2.5206 H   0  0  0  0  0  0  0  0  0  0  0  0
   54.9356   -6.0082   -2.6306 H   0  0  0  0  0  0  0  0  0  0  0  0
   60.2226   -8.5534   -3.5909 C   0  0  0  0  0  0  0  0  0  0  0  0
   60.5436   -9.4611   -4.4419 O   0  0  0  0  0  0  0  0  0  0  0  0
   61.2290   -8.1592   -2.7060 N   0  0  0  0  0  0  0  0  0  0  0  0
   61.0908   -7.4333   -1.9741 H   0  0  0  0  0  0  0  0  0  0  0  0
   62.5549   -8.7517   -2.7572 C   0  0  0  0  0  0  0  0  0  0  0  0
   63.3961   -8.4188   -1.5250 C   0  0  0  0  0  0  0  0  0  0  0  0
   62.9513   -7.1949   -0.9859 O   0  0  0  0  0  0  0  0  0  0  0  0
   64.5727   -8.2324   -2.4601 C   0  0  0  0  0  0  0  0  0  0  0  0
   65.2727   -9.4442   -2.5368 O   0  0  0  0  0  0  0  0  0  0  0  0
   63.5680   -8.0071   -3.5808 C   0  0  0  0  0  0  0  0  0  0  0  0
   63.3183   -6.6351   -3.6993 O   0  0  0  0  0  0  0  0  0  0  0  0
   63.7528   -6.6058   -0.8787 H   0  0  0  0  0  0  0  0  0  0  0  0
   64.7041  -10.1892   -2.7909 H   0  0  0  0  0  0  0  0  0  0  0  0
   63.5324   -6.3195   -4.6052 H   0  0  0  0  0  0  0  0  0  0  0  0
   56.5080   -5.7901   -6.8657 C   0  0  0  0  0  0  0  0  0  0  0  0
   55.0878   -5.5616   -7.0126 N   0  0  0  0  0  0  0  0  0  0  0  0
   54.2251   -6.5909   -7.0603 C   0  0  0  0  0  0  0  0  0  0  0  0
   52.8574   -6.3555   -7.2064 C   0  0  0  0  0  0  0  0  0  0  0  0
   52.4370   -5.0418   -7.2981 C   0  0  0  0  0  0  0  0  0  0  0  0
   51.1898   -4.8345   -7.4310 O   0  0  0  0  0  0  0  0  0  0  0  0
   53.3196   -4.0191   -7.2479 N   0  0  0  0  0  0  0  0  0  0  0  0
   54.6331   -4.3058   -7.1053 C   0  0  0  0  0  0  0  0  0  0  0  0
   55.4543   -3.3645   -7.0578 O   0  0  0  0  0  0  0  0  0  0  0  0
   52.9843   -3.0343   -7.3184 H   0  0  0  0  0  0  0  0  0  0  0  0
   56.8676   -5.0727   -9.2596 C   0  0  0  0  0  0  0  0  0  0  0  0
   58.0360   -5.7887   -9.8870 C   0  0  0  0  0  0  0  0  0  0  0  0
   58.2204   -5.5244  -11.2172 O   0  0  0  0  0  0  0  0  0  0  0  0
   59.1867   -5.3283   -9.0175 C   0  0  0  0  0  0  0  0  0  0  0  0
   58.6503   -5.2701   -7.7535 O   0  0  0  0  0  0  0  0  0  0  0  0
   57.3034   -4.9569   -7.8455 C   0  0  0  0  0  0  0  0  0  0  0  0
   58.2543   -6.3329  -11.7765 H   0  0  0  0  0  0  0  0  0  0  0  0
   60.3294   -6.2449   -9.0882 C   0  0  0  0  0  0  0  0  0  0  0  0
   60.7853   -6.9650   -7.9506 N   0  0  0  0  0  0  0  0  0  0  0  0
   60.9383   -6.4168  -10.1685 O   0  0  0  0  0  0  0  0  0  0  0  0
   60.8016   -6.5736   -6.9854 H   0  0  0  0  0  0  0  0  0  0  0  0
   61.1254   -7.9509   -8.0947 H   0  0  0  0  0  0  0  0  0  0  0  0
   55.4167   -3.9296  -10.6590 C   0  0  0  0  0  0  0  0  0  0  0  0
   56.5521   -3.8876   -9.8756 O   0  0  0  0  0  0  0  0  0  0  0  0
 48 49  1  0  0  0
 49 36  1  0  0  0
 36 37  1  0  0  0
 37 38  1  0  0  0
 37 39  1  0  0  0
 39 40  1  0  0  0
 40 41  1  0  0  0
 41 26  1  0  0  0
 26  1  1  0  0  0
  1  2  1  0  0  0
  2  3  1  0  0  0
  3  4  1  0  0  0
  4  5  2  0  0  0
  5  6  1  0  0  0
  6  7  1  0  0  0
  6  8  1  0  0  0
  8  9  1  0  0  0
  4 12  1  0  0  0
 12 13  2  0  0  0
 12 14  1  0  0  0
 14 16  1  0  0  0
 16 17  1  0  0  0
 17 18  1  0  0  0
 17 19  1  0  0  0
 19 20  1  0  0  0
 19 21  1  0  0  0
 21 22  1  0  0  0
 26 27  1  0  0  0
 27 28  1  0  0  0
 28 29  2  0  0  0
 29 30  1  0  0  0
 30 31  2  0  0  0
 30 32  1  0  0  0
 32 33  1  0  0  0
 33 34  2  0  0  0
 39 43  1  0  0  0
 43 44  1  0  0  0
 43 45  2  0  0  0
 41 36  1  0  0  0
  8  2  1  0  0  0
 21 16  1  0  0  0
 33 27  1  0  0  0
 38 42  1  0  0  0
  7 10  1  0  0  0
  9 11  1  0  0  0
 14 15  1  0  0  0
 18 23  1  0  0  0
 20 24  1  0  0  0
 22 25  1  0  0  0
 32 35  1  0  0  0
 44 46  1  0  0  0
 44 47  1  0  0  0
M  END
> <minimizedAffinity>
-7.03941

> <CNNscore>
0.2376159132

> <CNNaffinity>
4.8540439606

> <CNN_VS>
1.1533980370

> <CNNaffinity_variance>
0.2431335449

$$$$
[H]O[C@@]1([H])C([H])=C(C(=O)N([H])[C@]2([H])[C@]([H])(O[H])[C@@]([H])(O[H])[C@]2([H])O[H])O[C@]([H])(O[C@@]([H])(n2c([H])c([H])c(=O)n([H])c2=O)[C@@]2([H])O[C@@]([H])(C(=O)N([H])[H])[C@]([H])(O[H])[C@]2([H])OC([H])([H])[H])[C@@]1([H])O[H]


 49 52  0  0  0  0  0  0  0  0999 V2000
   61.7280   -8.5277   -8.8774 O   0  0  0  0  0  0  0  0  0  0  0  0
   61.6233   -9.8866   -8.9978 C   0  0  0  0  0  0  0  0  0  0  0  0
   62.6339  -10.4693   -9.8129 O   0  0  0  0  0  0  0  0  0  0  0  0
   62.8764  -11.8513   -9.7481 C   0  0  0  0  0  0  0  0  0  0  0  0
   62.4338  -12.5766   -8.7472 C   0  0  0  0  0  0  0  0  0  0  0  0
   61.6591  -12.0031   -7.6311 C   0  0  0  0  0  0  0  0  0  0  0  0
   60.2899  -12.2760   -7.7587 O   0  0  0  0  0  0  0  0  0  0  0  0
   61.8460  -10.5134   -7.6144 C   0  0  0  0  0  0  0  0  0  0  0  0
   60.9804   -9.9934   -6.6644 O   0  0  0  0  0  0  0  0  0  0  0  0
   60.0988  -13.2286   -7.5741 H   0  0  0  0  0  0  0  0  0  0  0  0
   61.2813  -10.3513   -5.7924 H   0  0  0  0  0  0  0  0  0  0  0  0
   63.6361  -12.4686  -10.8248 C   0  0  0  0  0  0  0  0  0  0  0  0
   64.7815  -12.9937  -10.5727 O   0  0  0  0  0  0  0  0  0  0  0  0
   63.2083  -12.5389  -12.1527 N   0  0  0  0  0  0  0  0  0  0  0  0
   62.3001  -12.1513  -12.4790 H   0  0  0  0  0  0  0  0  0  0  0  0
   64.0232  -13.1707  -13.1766 C   0  0  0  0  0  0  0  0  0  0  0  0
   64.7563  -12.1563  -14.0542 C   0  0  0  0  0  0  0  0  0  0  0  0
   64.0241  -10.9522  -14.0689 O   0  0  0  0  0  0  0  0  0  0  0  0
   64.4215  -13.0382  -15.2390 C   0  0  0  0  0  0  0  0  0  0  0  0
   65.4949  -13.9127  -15.4565 O   0  0  0  0  0  0  0  0  0  0  0  0
   63.2869  -13.6196  -14.4077 C   0  0  0  0  0  0  0  0  0  0  0  0
   62.1148  -12.9019  -14.6720 O   0  0  0  0  0  0  0  0  0  0  0  0
   63.8895  -10.6950  -15.0263 H   0  0  0  0  0  0  0  0  0  0  0  0
   65.7301  -14.4209  -14.6633 H   0  0  0  0  0  0  0  0  0  0  0  0
   61.4089  -13.4992  -15.0052 H   0  0  0  0  0  0  0  0  0  0  0  0
   62.9871   -7.9961   -8.9483 C   0  0  0  0  0  0  0  0  0  0  0  0
   63.3077   -7.3796  -10.2163 N   0  0  0  0  0  0  0  0  0  0  0  0
   62.3918   -6.6559  -10.8822 C   0  0  0  0  0  0  0  0  0  0  0  0
   62.7141   -6.0699  -12.1070 C   0  0  0  0  0  0  0  0  0  0  0  0
   63.9927   -6.2631  -12.5959 C   0  0  0  0  0  0  0  0  0  0  0  0
   64.2795   -5.7266  -13.7121 O   0  0  0  0  0  0  0  0  0  0  0  0
   64.9008   -6.9942  -11.9117 N   0  0  0  0  0  0  0  0  0  0  0  0
   64.5338   -7.5387  -10.7299 C   0  0  0  0  0  0  0  0  0  0  0  0
   65.3691   -8.2155  -10.0922 O   0  0  0  0  0  0  0  0  0  0  0  0
   65.8608   -7.1291  -12.2958 H   0  0  0  0  0  0  0  0  0  0  0  0
   64.5521   -7.2793   -7.1013 C   0  0  0  0  0  0  0  0  0  0  0  0
   64.0993   -7.7890   -5.7572 C   0  0  0  0  0  0  0  0  0  0  0  0
   64.9606   -7.5256   -4.7266 O   0  0  0  0  0  0  0  0  0  0  0  0
   62.7541   -7.1114   -5.6043 C   0  0  0  0  0  0  0  0  0  0  0  0
   62.2265   -7.1219   -6.8733 O   0  0  0  0  0  0  0  0  0  0  0  0
   63.2592   -7.0562   -7.7953 C   0  0  0  0  0  0  0  0  0  0  0  0
   65.2236   -8.3273   -4.2209 H   0  0  0  0  0  0  0  0  0  0  0  0
   61.8928   -7.8107   -4.6450 C   0  0  0  0  0  0  0  0  0  0  0  0
   62.3770   -8.8787   -3.8416 N   0  0  0  0  0  0  0  0  0  0  0  0
   60.6937   -7.4778   -4.5098 O   0  0  0  0  0  0  0  0  0  0  0  0
   63.0585   -9.5922   -4.1756 H   0  0  0  0  0  0  0  0  0  0  0  0
   62.0250   -8.9503   -2.8520 H   0  0  0  0  0  0  0  0  0  0  0  0
   64.9044   -5.0635   -7.6814 C   0  0  0  0  0  0  0  0  0  0  0  0
   65.3750   -6.1835   -7.0265 O   0  0  0  0  0  0  0  0  0  0  0  0
 48 49  1  0  0  0
 49 36  1  0  0  0
 36 37  1  0  0  0
 37 38  1  0  0  0
 37 39  1  0  0  0
 39 40  1  0  0  0
 40 41  1  0  0  0
 41 26  1  0  0  0
 26  1  1  0  0  0
  1  2  1  0  0  0
  2  3  1  0  0  0
  3  4  1  0  0  0
  4  5  2  0  0  0
  5  6  1  0  0  0
  6  7  1  0  0  0
  6  8  1  0  0  0
  8  9  1  0  0  0
  4 12  1  0  0  0
 12 13  2  0  0  0
 12 14  1  0  0  0
 14 16  1  0  0  0
 16 17  1  0  0  0
 17 18  1  0  0  0
 17 19  1  0  0  0
 19 20  1  0  0  0
 19 21  1  0  0  0
 21 22  1  0  0  0
 26 27  1  0  0  0
 27 28  1  0  0  0
 28 29  2  0  0  0
 29 30  1  0  0  0
 30 31  2  0  0  0
 30 32  1  0  0  0
 32 33  1  0  0  0
 33 34  2  0  0  0
 39 43  1  0  0  0
 43 44  1  0  0  0
 43 45  2  0  0  0
 41 36  1  0  0  0
  8  2  1  0  0  0
 21 16  1  0  0  0
 33 27  1  0  0  0
 38 42  1  0  0  0
  7 10  1  0  0  0
  9 11  1  0  0  0
 14 15  1  0  0  0
 18 23  1  0  0  0
 20 24  1  0  0  0
 22 25  1  0  0  0
 32 35  1  0  0  0
 44 46  1  0  0  0
 44 47  1  0  0  0
M  END
> <minimizedAffinity>
-3.58395

> <CNNscore>
0.2347935736

> <CNNaffinity>
3.7234294415

> <CNN_VS>
0.8742372990

> <CNNaffinity_variance>
0.2396236360

$$$$
[H]O[C@@]1([H])C([H])=C(C(=O)N([H])[C@]2([H])[C@]([H])(O[H])[C@@]([H])(O[H])[C@]2([H])O[H])O[C@]([H])(O[C@@]([H])(n2c([H])c([H])c(=O)n([H])c2=O)[C@@]2([H])O[C@@]([H])(C(=O)N([H])[H])[C@]([H])(O[H])[C@]2([H])OC([H])([H])[H])[C@@]1([H])O[H]


 49 52  0  0  0  0  0  0  0  0999 V2000
   55.4592   -5.2136   -8.9119 O   0  0  0  0  0  0  0  0  0  0  0  0
   56.5880   -4.7183   -9.5055 C   0  0  0  0  0  0  0  0  0  0  0  0
   57.6873   -5.6221   -9.4902 O   0  0  0  0  0  0  0  0  0  0  0  0
   58.7777   -5.4141  -10.3507 C   0  0  0  0  0  0  0  0  0  0  0  0
   58.6887   -4.6101  -11.3848 C   0  0  0  0  0  0  0  0  0  0  0  0
   57.4542   -3.8745  -11.7160 C   0  0  0  0  0  0  0  0  0  0  0  0
   57.5355   -2.5289  -11.3308 O   0  0  0  0  0  0  0  0  0  0  0  0
   56.2961   -4.5042  -10.9973 C   0  0  0  0  0  0  0  0  0  0  0  0
   55.1886   -3.6947  -11.1976 O   0  0  0  0  0  0  0  0  0  0  0  0
   58.1491   -2.0267  -11.9217 H   0  0  0  0  0  0  0  0  0  0  0  0
   54.9998   -3.7215  -12.1685 H   0  0  0  0  0  0  0  0  0  0  0  0
   60.0211   -6.1157  -10.0690 C   0  0  0  0  0  0  0  0  0  0  0  0
   60.9784   -6.0783  -10.9253 O   0  0  0  0  0  0  0  0  0  0  0  0
   60.2666   -6.8504   -8.9066 N   0  0  0  0  0  0  0  0  0  0  0  0
   59.5703   -6.9531   -8.1408 H   0  0  0  0  0  0  0  0  0  0  0  0
   61.5346   -7.5275   -8.6944 C   0  0  0  0  0  0  0  0  0  0  0  0
   61.6573   -8.1206   -7.2908 C   0  0  0  0  0  0  0  0  0  0  0  0
   60.8484   -7.3764   -6.4086 O   0  0  0  0  0  0  0  0  0  0  0  0
   63.0936   -7.6405   -7.2850 C   0  0  0  0  0  0  0  0  0  0  0  0
   63.9112   -8.6867   -7.7337 O   0  0  0  0  0  0  0  0  0  0  0  0
   62.6985   -6.6374   -8.3592 C   0  0  0  0  0  0  0  0  0  0  0  0
   62.3431   -5.4304   -7.7463 O   0  0  0  0  0  0  0  0  0  0  0  0
   61.4193   -7.1096   -5.6316 H   0  0  0  0  0  0  0  0  0  0  0  0
   63.6339   -9.0343   -8.5969 H   0  0  0  0  0  0  0  0  0  0  0  0
   62.9045   -4.6943   -8.0764 H   0  0  0  0  0  0  0  0  0  0  0  0
   55.1016   -4.6656   -7.7099 C   0  0  0  0  0  0  0  0  0  0  0  0
   53.7548   -4.1412   -7.6665 N   0  0  0  0  0  0  0  0  0  0  0  0
   52.7602   -4.8417   -7.0955 C   0  0  0  0  0  0  0  0  0  0  0  0
   51.4643   -4.3248   -7.0644 C   0  0  0  0  0  0  0  0  0  0  0  0
   51.2529   -3.0839   -7.6360 C   0  0  0  0  0  0  0  0  0  0  0  0
   50.0702   -2.6190   -7.6042 O   0  0  0  0  0  0  0  0  0  0  0  0
   52.2660   -2.3937   -8.2057 N   0  0  0  0  0  0  0  0  0  0  0  0
   53.5013   -2.9429   -8.2071 C   0  0  0  0  0  0  0  0  0  0  0  0
   54.4426   -2.3095   -8.7321 O   0  0  0  0  0  0  0  0  0  0  0  0
   52.0879   -1.4588   -8.6318 H   0  0  0  0  0  0  0  0  0  0  0  0
   54.1358   -6.1169   -5.8836 C   0  0  0  0  0  0  0  0  0  0  0  0
   54.2464   -5.4599   -4.5317 C   0  0  0  0  0  0  0  0  0  0  0  0
   53.6459   -6.1472   -3.5118 O   0  0  0  0  0  0  0  0  0  0  0  0
   55.7462   -5.3322   -4.3693 C   0  0  0  0  0  0  0  0  0  0  0  0
   56.1966   -5.0328   -5.6328 O   0  0  0  0  0  0  0  0  0  0  0  0
   55.3571   -5.6208   -6.5657 C   0  0  0  0  0  0  0  0  0  0  0  0
   52.9986   -5.6083   -3.0037 H   0  0  0  0  0  0  0  0  0  0  0  0
   56.1069   -4.2953   -3.3969 C   0  0  0  0  0  0  0  0  0  0  0  0
   55.9979   -4.5097   -1.9960 N   0  0  0  0  0  0  0  0  0  0  0  0
   56.5257   -3.1810   -3.7845 O   0  0  0  0  0  0  0  0  0  0  0  0
   55.2285   -5.0531   -1.5512 H   0  0  0  0  0  0  0  0  0  0  0  0
   56.7392   -4.0946   -1.3743 H   0  0  0  0  0  0  0  0  0  0  0  0
   55.1562   -8.1505   -5.4435 C   0  0  0  0  0  0  0  0  0  0  0  0
   54.0102   -7.4823   -5.8241 O   0  0  0  0  0  0  0  0  0  0  0  0
 48 49  1  0  0  0
 49 36  1  0  0  0
 36 37  1  0  0  0
 37 38  1  0  0  0
 37 39  1  0  0  0
 39 40  1  0  0  0
 40 41  1  0  0  0
 41 26  1  0  0  0
 26  1  1  0  0  0
  1  2  1  0  0  0
  2  3  1  0  0  0
  3  4  1  0  0  0
  4  5  2  0  0  0
  5  6  1  0  0  0
  6  7  1  0  0  0
  6  8  1  0  0  0
  8  9  1  0  0  0
  4 12  1  0  0  0
 12 13  2  0  0  0
 12 14  1  0  0  0
 14 16  1  0  0  0
 16 17  1  0  0  0
 17 18  1  0  0  0
 17 19  1  0  0  0
 19 20  1  0  0  0
 19 21  1  0  0  0
 21 22  1  0  0  0
 26 27  1  0  0  0
 27 28  1  0  0  0
 28 29  2  0  0  0
 29 30  1  0  0  0
 30 31  2  0  0  0
 30 32  1  0  0  0
 32 33  1  0  0  0
 33 34  2  0  0  0
 39 43  1  0  0  0
 43 44  1  0  0  0
 43 45  2  0  0  0
 41 36  1  0  0  0
  8  2  1  0  0  0
 21 16  1  0  0  0
 33 27  1  0  0  0
 38 42  1  0  0  0
  7 10  1  0  0  0
  9 11  1  0  0  0
 14 15  1  0  0  0
 18 23  1  0  0  0
 20 24  1  0  0  0
 22 25  1  0  0  0
 32 35  1  0  0  0
 44 46  1  0  0  0
 44 47  1  0  0  0
M  END
> <minimizedAffinity>
-6.94745

> <CNNscore>
0.2218306065

> <CNNaffinity>
5.4522986412

> <CNN_VS>
1.2094867229

> <CNNaffinity_variance>
0.1051536426

$$$$
[H]O[C@@]1([H])C([H])=C(C(=O)N([H])[C@]2([H])[C@]([H])(O[H])[C@@]([H])(O[H])[C@]2([H])O[H])O[C@]([H])(O[C@@]([H])(n2c([H])c([H])c(=O)n([H])c2=O)[C@@]2([H])O[C@@]([H])(C(=O)N([H])[H])[C@]([H])(O[H])[C@]2([H])OC([H])([H])[H])[C@@]1([H])O[H]


 49 52  0  0  0  0  0  0  0  0999 V2000
   55.3748   -5.8306   -7.0644 O   0  0  0  0  0  0  0  0  0  0  0  0
   56.1710   -5.1007   -7.9040 C   0  0  0  0  0  0  0  0  0  0  0  0
   57.3676   -5.7702   -8.2853 O   0  0  0  0  0  0  0  0  0  0  0  0
   58.0997   -5.3192   -9.3959 C   0  0  0  0  0  0  0  0  0  0  0  0
   57.5678   -4.5099  -10.2823 C   0  0  0  0  0  0  0  0  0  0  0  0
   56.1806   -4.0198  -10.1800 C   0  0  0  0  0  0  0  0  0  0  0  0
   56.1324   -2.7001   -9.7092 O   0  0  0  0  0  0  0  0  0  0  0  0
   55.4178   -4.8919   -9.2252 C   0  0  0  0  0  0  0  0  0  0  0  0
   54.1755   -4.3094   -9.0270 O   0  0  0  0  0  0  0  0  0  0  0  0
   56.4446   -2.0648  -10.3998 H   0  0  0  0  0  0  0  0  0  0  0  0
   53.7158   -4.3361   -9.9028 H   0  0  0  0  0  0  0  0  0  0  0  0
   59.4745   -5.7724   -9.5447 C   0  0  0  0  0  0  0  0  0  0  0  0
   60.0904   -5.5757  -10.6551 O   0  0  0  0  0  0  0  0  0  0  0  0
   60.2025   -6.4249   -8.5470 N   0  0  0  0  0  0  0  0  0  0  0  0
   59.8133   -6.6392   -7.6067 H   0  0  0  0  0  0  0  0  0  0  0  0
   61.5740   -6.8510   -8.7686 C   0  0  0  0  0  0  0  0  0  0  0  0
   61.6632   -8.2083   -9.4661 C   0  0  0  0  0  0  0  0  0  0  0  0
   60.5016   -8.9500   -9.1712 O   0  0  0  0  0  0  0  0  0  0  0  0
   62.8031   -8.5423   -8.5266 C   0  0  0  0  0  0  0  0  0  0  0  0
   64.0087   -8.2060   -9.1572 O   0  0  0  0  0  0  0  0  0  0  0  0
   62.2593   -7.4765   -7.5860 C   0  0  0  0  0  0  0  0  0  0  0  0
   61.3906   -8.0790   -6.6689 O   0  0  0  0  0  0  0  0  0  0  0  0
   60.7952   -9.8440   -8.8312 H   0  0  0  0  0  0  0  0  0  0  0  0
   64.0280   -7.2835   -9.4598 H   0  0  0  0  0  0  0  0  0  0  0  0
   61.6932   -7.9204   -5.7473 H   0  0  0  0  0  0  0  0  0  0  0  0
   54.5618   -5.1277   -6.2170 C   0  0  0  0  0  0  0  0  0  0  0  0
   53.1476   -5.2854   -6.4738 N   0  0  0  0  0  0  0  0  0  0  0  0
   52.2807   -4.2994   -6.1872 C   0  0  0  0  0  0  0  0  0  0  0  0
   50.9180   -4.4671   -6.4368 C   0  0  0  0  0  0  0  0  0  0  0  0
   50.5070   -5.6694   -6.9813 C   0  0  0  0  0  0  0  0  0  0  0  0
   49.2643   -5.8155   -7.2061 O   0  0  0  0  0  0  0  0  0  0  0  0
   51.3937   -6.6499   -7.2631 N   0  0  0  0  0  0  0  0  0  0  0  0
   52.7021   -6.4326   -7.0007 C   0  0  0  0  0  0  0  0  0  0  0  0
   53.5273   -7.3353   -7.2595 O   0  0  0  0  0  0  0  0  0  0  0  0
   51.0656   -7.5503   -7.6740 H   0  0  0  0  0  0  0  0  0  0  0  0
   55.7038   -6.6312   -4.5407 C   0  0  0  0  0  0  0  0  0  0  0  0
   54.7201   -7.5303   -3.8367 C   0  0  0  0  0  0  0  0  0  0  0  0
   55.2865   -8.4453   -2.9909 O   0  0  0  0  0  0  0  0  0  0  0  0
   53.8322   -6.5279   -3.1305 C   0  0  0  0  0  0  0  0  0  0  0  0
   53.7285   -5.4855   -4.0202 O   0  0  0  0  0  0  0  0  0  0  0  0
   54.8926   -5.4093   -4.7685 C   0  0  0  0  0  0  0  0  0  0  0  0
   55.0149   -9.3721   -3.1773 H   0  0  0  0  0  0  0  0  0  0  0  0
   52.5226   -7.0957   -2.7938 C   0  0  0  0  0  0  0  0  0  0  0  0
   52.3820   -8.1517   -1.8527 N   0  0  0  0  0  0  0  0  0  0  0  0
   51.4830   -6.6565   -3.3355 O   0  0  0  0  0  0  0  0  0  0  0  0
   53.0590   -8.9378   -1.7586 H   0  0  0  0  0  0  0  0  0  0  0  0
   51.5446   -8.1359   -1.2149 H   0  0  0  0  0  0  0  0  0  0  0  0
   57.9316   -7.2110   -4.2749 C   0  0  0  0  0  0  0  0  0  0  0  0
   56.8711   -6.4397   -3.8449 O   0  0  0  0  0  0  0  0  0  0  0  0
 48 49  1  0  0  0
 49 36  1  0  0  0
 36 37  1  0  0  0
 37 38  1  0  0  0
 37 39  1  0  0  0
 39 40  1  0  0  0
 40 41  1  0  0  0
 41 26  1  0  0  0
 26  1  1  0  0  0
  1  2  1  0  0  0
  2  3  1  0  0  0
  3  4  1  0  0  0
  4  5  2  0  0  0
  5  6  1  0  0  0
  6  7  1  0  0  0
  6  8  1  0  0  0
  8  9  1  0  0  0
  4 12  1  0  0  0
 12 13  2  0  0  0
 12 14  1  0  0  0
 14 16  1  0  0  0
 16 17  1  0  0  0
 17 18  1  0  0  0
 17 19  1  0  0  0
 19 20  1  0  0  0
 19 21  1  0  0  0
 21 22  1  0  0  0
 26 27  1  0  0  0
 27 28  1  0  0  0
 28 29  2  0  0  0
 29 30  1  0  0  0
 30 31  2  0  0  0
 30 32  1  0  0  0
 32 33  1  0  0  0
 33 34  2  0  0  0
 39 43  1  0  0  0
 43 44  1  0  0  0
 43 45  2  0  0  0
 41 36  1  0  0  0
  8  2  1  0  0  0
 21 16  1  0  0  0
 33 27  1  0  0  0
 38 42  1  0  0  0
  7 10  1  0  0  0
  9 11  1  0  0  0
 14 15  1  0  0  0
 18 23  1  0  0  0
 20 24  1  0  0  0
 22 25  1  0  0  0
 32 35  1  0  0  0
 44 46  1  0  0  0
 44 47  1  0  0  0
M  END
> <minimizedAffinity>
-7.50836

> <CNNscore>
0.1890033036

> <CNNaffinity>
5.1246061325

> <CNN_VS>
0.9685674906

> <CNNaffinity_variance>
0.1093305573

$$$$
[H]c1nc2c([H])c(OC([H])([H])C([H])([H])C([H])([H])N3C([H])([H])C([H])([H])C([H])([H])C([H])([H])C3([H])[H])c(OC([H])([H])[H])c([H])c2c(Oc2c([H])c([H])c(N([H])C(=O)C3(C(=O)N([H])c4c([H])c([H])c(F)c([H])c4[H])C([H])([H])C3([H])[H])c([H])c2F)c1[H]


 48 53  0  0  0  0  0  0  0  0999 V2000
   51.3276   -5.3766   -5.0776 C   0  0  0  0  0  0  0  0  0  0  0  0
   52.3366   -6.1651   -4.5749 C   0  0  0  0  0  0  0  0  0  0  0  0
   52.4070   -6.5597   -3.2373 C   0  0  0  0  0  0  0  0  0  0  0  0
   51.4423   -6.1683   -2.3317 C   0  0  0  0  0  0  0  0  0  0  0  0
   50.4304   -5.3823   -2.8170 C   0  0  0  0  0  0  0  0  0  0  0  0
   50.3511   -4.9884   -4.1275 C   0  0  0  0  0  0  0  0  0  0  0  0
   49.3296   -4.2071   -4.5412 F   0  0  0  0  0  0  0  0  0  0  0  0
   51.5036   -6.6303   -0.9857 N   0  0  0  0  0  0  0  0  0  0  0  0
   52.5538   -7.3141   -0.3876 C   0  0  0  0  0  0  0  0  0  0  0  0
   53.5772   -7.6341   -1.0419 O   0  0  0  0  0  0  0  0  0  0  0  0
   50.6110   -6.4562   -0.4127 H   0  0  0  0  0  0  0  0  0  0  0  0
   52.5212   -7.7117    1.0302 C   0  0  0  0  0  0  0  0  0  0  0  0
   53.8308   -7.7873    1.7546 C   0  0  0  0  0  0  0  0  0  0  0  0
   52.9291   -6.6781    2.0529 C   0  0  0  0  0  0  0  0  0  0  0  0
   51.5150   -8.7185    1.4392 C   0  0  0  0  0  0  0  0  0  0  0  0
   51.8641   -9.5260    2.3496 O   0  0  0  0  0  0  0  0  0  0  0  0
   50.2400   -8.7727    0.8609 N   0  0  0  0  0  0  0  0  0  0  0  0
   50.0354   -7.9699    0.1671 H   0  0  0  0  0  0  0  0  0  0  0  0
   49.2092   -9.6881    1.1263 C   0  0  0  0  0  0  0  0  0  0  0  0
   49.2749  -11.0282    0.9395 C   0  0  0  0  0  0  0  0  0  0  0  0
   48.2154  -11.8806    1.2260 C   0  0  0  0  0  0  0  0  0  0  0  0
   47.0601  -11.3244    1.7179 C   0  0  0  0  0  0  0  0  0  0  0  0
   45.9536  -12.0779    2.0314 F   0  0  0  0  0  0  0  0  0  0  0  0
   46.9654   -9.9725    1.9169 C   0  0  0  0  0  0  0  0  0  0  0  0
   48.0263   -9.1682    1.6245 C   0  0  0  0  0  0  0  0  0  0  0  0
   51.1993   -4.9608   -6.3377 O   0  0  0  0  0  0  0  0  0  0  0  0
   54.9613   -5.0021   -7.7370 C   0  0  0  0  0  0  0  0  0  0  0  0
   53.6414   -4.9818   -7.2619 C   0  0  0  0  0  0  0  0  0  0  0  0
   52.8216   -3.9394   -7.6461 C   0  0  0  0  0  0  0  0  0  0  0  0
   51.4975   -3.9446   -7.1283 C   0  0  0  0  0  0  0  0  0  0  0  0
   50.7175   -2.8884   -7.5164 C   0  0  0  0  0  0  0  0  0  0  0  0
   51.2245   -1.9090   -8.3516 C   0  0  0  0  0  0  0  0  0  0  0  0
   52.4768   -1.9388   -8.8175 N   0  0  0  0  0  0  0  0  0  0  0  0
   53.2778   -2.9440   -8.4714 C   0  0  0  0  0  0  0  0  0  0  0  0
   54.5980   -2.9821   -8.9336 C   0  0  0  0  0  0  0  0  0  0  0  0
   55.4492   -4.0008   -8.5769 C   0  0  0  0  0  0  0  0  0  0  0  0
   56.1243   -6.2120   -6.0103 C   0  0  0  0  0  0  0  0  0  0  0  0
   55.8134   -6.0272   -7.3765 O   0  0  0  0  0  0  0  0  0  0  0  0
   56.7328   -4.1122   -8.9782 O   0  0  0  0  0  0  0  0  0  0  0  0
   57.3256   -4.7063  -10.0658 C   0  0  0  0  0  0  0  0  0  0  0  0
   56.7663   -4.3567  -11.4196 C   0  0  0  0  0  0  0  0  0  0  0  0
   57.9424   -4.1564  -12.3565 C   0  0  0  0  0  0  0  0  0  0  0  0
   57.5879   -3.9877  -13.7008 N   0  0  0  0  0  0  0  0  0  0  0  0
   58.4724   -3.3127  -14.5569 C   0  0  0  0  0  0  0  0  0  0  0  0
   58.0569   -3.2398  -15.9785 C   0  0  0  0  0  0  0  0  0  0  0  0
   56.9764   -4.1878  -16.3810 C   0  0  0  0  0  0  0  0  0  0  0  0
   55.9434   -4.4480  -15.3300 C   0  0  0  0  0  0  0  0  0  0  0  0
   56.2303   -3.7178  -14.0331 C   0  0  0  0  0  0  0  0  0  0  0  0
 37 38  1  0  0  0
 38 27  1  0  0  0
 27 28  2  0  0  0
 28 29  1  0  0  0
 29 30  2  0  0  0
 30 26  1  0  0  0
 26  1  1  0  0  0
  1  2  2  0  0  0
  2  3  1  0  0  0
  3  4  2  0  0  0
  4  8  1  0  0  0
  8  9  1  0  0  0
  9 10  2  0  0  0
  9 12  1  0  0  0
 12 13  1  0  0  0
 13 14  1  0  0  0
 12 15  1  0  0  0
 15 16  2  0  0  0
 15 17  1  0  0  0
 17 19  1  0  0  0
 19 20  2  0  0  0
 20 21  1  0  0  0
 21 22  2  0  0  0
 22 23  1  0  0  0
 22 24  1  0  0  0
 24 25  2  0  0  0
  4  5  1  0  0  0
  5  6  2  0  0  0
  6  7  1  0  0  0
 30 31  1  0  0  0
 31 32  2  0  0  0
 32 33  1  0  0  0
 33 34  2  0  0  0
 34 35  1  0  0  0
 35 36  2  0  0  0
 36 39  1  0  0  0
 39 40  1  0  0  0
 40 41  1  0  0  0
 41 42  1  0  0  0
 42 43  1  0  0  0
 43 44  1  0  0  0
 44 45  1  0  0  0
 45 46  1  0  0  0
 46 47  1  0  0  0
 47 48  1  0  0  0
 36 27  1  0  0  0
 48 43  1  0  0  0
 34 29  1  0  0  0
  6  1  1  0  0  0
 14 12  1  0  0  0
 25 19  1  0  0  0
  8 11  1  0  0  0
 17 18  1  0  0  0
M  END
> <minimizedAffinity>
-10.68781

> <CNNscore>
0.3588017225

> <CNNaffinity>
7.5172605515

> <CNN_VS>
2.6972060204

> <CNNaffinity_variance>
0.0862744451

$$$$
[H]c1nc2c([H])c(OC([H])([H])C([H])([H])C([H])([H])N3C([H])([H])C([H])([H])C([H])([H])C([H])([H])C3([H])[H])c(OC([H])([H])[H])c([H])c2c(Oc2c([H])c([H])c(N([H])C(=O)C3(C(=O)N([H])c4c([H])c([H])c(F)c([H])c4[H])C([H])([H])C3([H])[H])c([H])c2F)c1[H]


 48 53  0  0  0  0  0  0  0  0999 V2000
   55.8102   -4.5931   -9.3223 C   0  0  0  0  0  0  0  0  0  0  0  0
   56.4413   -4.8047   -8.1184 C   0  0  0  0  0  0  0  0  0  0  0  0
   57.7910   -5.1456   -8.0100 C   0  0  0  0  0  0  0  0  0  0  0  0
   58.5777   -5.2897   -9.1344 C   0  0  0  0  0  0  0  0  0  0  0  0
   57.9636   -5.0822  -10.3415 C   0  0  0  0  0  0  0  0  0  0  0  0
   56.6396   -4.7477  -10.4603 C   0  0  0  0  0  0  0  0  0  0  0  0
   56.0927   -4.5630  -11.6817 F   0  0  0  0  0  0  0  0  0  0  0  0
   59.9652   -5.5813   -8.9970 N   0  0  0  0  0  0  0  0  0  0  0  0
   60.6202   -6.7295   -9.4218 C   0  0  0  0  0  0  0  0  0  0  0  0
   59.9912   -7.6765   -9.9560 O   0  0  0  0  0  0  0  0  0  0  0  0
   60.5276   -4.8357   -8.4648 H   0  0  0  0  0  0  0  0  0  0  0  0
   62.0732   -6.9065   -9.2584 C   0  0  0  0  0  0  0  0  0  0  0  0
   62.6906   -6.3989   -7.9909 C   0  0  0  0  0  0  0  0  0  0  0  0
   62.5429   -7.8407   -8.1688 C   0  0  0  0  0  0  0  0  0  0  0  0
   62.9212   -6.7836  -10.4664 C   0  0  0  0  0  0  0  0  0  0  0  0
   64.0150   -6.1618  -10.3258 O   0  0  0  0  0  0  0  0  0  0  0  0
   62.5437   -7.3329  -11.6988 N   0  0  0  0  0  0  0  0  0  0  0  0
   61.6367   -7.9193  -11.6614 H   0  0  0  0  0  0  0  0  0  0  0  0
   63.2285   -7.2625  -12.9222 C   0  0  0  0  0  0  0  0  0  0  0  0
   63.1223   -6.2634  -13.8308 C   0  0  0  0  0  0  0  0  0  0  0  0
   63.8329   -6.2539  -15.0251 C   0  0  0  0  0  0  0  0  0  0  0  0
   64.6733   -7.3100  -15.2794 C   0  0  0  0  0  0  0  0  0  0  0  0
   65.4195   -7.3986  -16.4309 F   0  0  0  0  0  0  0  0  0  0  0  0
   64.8005   -8.3339  -14.3787 C   0  0  0  0  0  0  0  0  0  0  0  0
   64.0872   -8.3081  -13.2175 C   0  0  0  0  0  0  0  0  0  0  0  0
   54.5292   -4.2692   -9.4998 O   0  0  0  0  0  0  0  0  0  0  0  0
   53.5797   -6.2805   -6.1583 C   0  0  0  0  0  0  0  0  0  0  0  0
   53.9075   -5.5639   -7.3191 C   0  0  0  0  0  0  0  0  0  0  0  0
   53.1310   -4.4738   -7.6586 C   0  0  0  0  0  0  0  0  0  0  0  0
   53.4838   -3.7857   -8.8517 C   0  0  0  0  0  0  0  0  0  0  0  0
   52.6835   -2.7205   -9.1665 C   0  0  0  0  0  0  0  0  0  0  0  0
   51.6181   -2.3766   -8.3539 C   0  0  0  0  0  0  0  0  0  0  0  0
   51.3175   -3.0497   -7.2390 N   0  0  0  0  0  0  0  0  0  0  0  0
   52.0638   -4.0938   -6.8861 C   0  0  0  0  0  0  0  0  0  0  0  0
   51.7528   -4.8225   -5.7327 C   0  0  0  0  0  0  0  0  0  0  0  0
   52.4985   -5.9143   -5.3566 C   0  0  0  0  0  0  0  0  0  0  0  0
   55.6825   -7.1883   -5.4156 C   0  0  0  0  0  0  0  0  0  0  0  0
   54.3312   -7.3768   -5.7836 O   0  0  0  0  0  0  0  0  0  0  0  0
   52.2668   -6.6688   -4.2619 O   0  0  0  0  0  0  0  0  0  0  0  0
   52.8795   -6.7517   -3.0351 C   0  0  0  0  0  0  0  0  0  0  0  0
   53.5194   -5.4941   -2.5092 C   0  0  0  0  0  0  0  0  0  0  0  0
   53.1004   -5.3464   -1.0586 C   0  0  0  0  0  0  0  0  0  0  0  0
   54.0459   -5.8081   -0.1344 N   0  0  0  0  0  0  0  0  0  0  0  0
   53.5991   -6.4540    1.0292 C   0  0  0  0  0  0  0  0  0  0  0  0
   54.6630   -6.9766    1.9201 C   0  0  0  0  0  0  0  0  0  0  0  0
   56.0191   -7.0847    1.3057 C   0  0  0  0  0  0  0  0  0  0  0  0
   56.3528   -6.0067    0.3230 C   0  0  0  0  0  0  0  0  0  0  0  0
   55.2122   -5.0307    0.1142 C   0  0  0  0  0  0  0  0  0  0  0  0
 37 38  1  0  0  0
 38 27  1  0  0  0
 27 28  2  0  0  0
 28 29  1  0  0  0
 29 30  2  0  0  0
 30 26  1  0  0  0
 26  1  1  0  0  0
  1  2  2  0  0  0
  2  3  1  0  0  0
  3  4  2  0  0  0
  4  8  1  0  0  0
  8  9  1  0  0  0
  9 10  2  0  0  0
  9 12  1  0  0  0
 12 13  1  0  0  0
 13 14  1  0  0  0
 12 15  1  0  0  0
 15 16  2  0  0  0
 15 17  1  0  0  0
 17 19  1  0  0  0
 19 20  2  0  0  0
 20 21  1  0  0  0
 21 22  2  0  0  0
 22 23  1  0  0  0
 22 24  1  0  0  0
 24 25  2  0  0  0
  4  5  1  0  0  0
  5  6  2  0  0  0
  6  7  1  0  0  0
 30 31  1  0  0  0
 31 32  2  0  0  0
 32 33  1  0  0  0
 33 34  2  0  0  0
 34 35  1  0  0  0
 35 36  2  0  0  0
 36 39  1  0  0  0
 39 40  1  0  0  0
 40 41  1  0  0  0
 41 42  1  0  0  0
 42 43  1  0  0  0
 43 44  1  0  0  0
 44 45  1  0  0  0
 45 46  1  0  0  0
 46 47  1  0  0  0
 47 48  1  0  0  0
 36 27  1  0  0  0
 48 43  1  0  0  0
 34 29  1  0  0  0
  6  1  1  0  0  0
 14 12  1  0  0  0
 25 19  1  0  0  0
  8 11  1  0  0  0
 17 18  1  0  0  0
M  END
> <minimizedAffinity>
-8.77663

> <CNNscore>
0.2976303995

> <CNNaffinity>
7.2113952637

> <CNN_VS>
2.1463303566

> <CNNaffinity_variance>
0.1429125518

$$$$
[H]c1nc2c([H])c(OC([H])([H])C([H])([H])C([H])([H])N3C([H])([H])C([H])([H])C([H])([H])C([H])([H])C3([H])[H])c(OC([H])([H])[H])c([H])c2c(Oc2c([H])c([H])c(N([H])C(=O)C3(C(=O)N([H])c4c([H])c([H])c(F)c([H])c4[H])C([H])([H])C3([H])[H])c([H])c2F)c1[H]


 48 53  0  0  0  0  0  0  0  0999 V2000
   51.8152   -3.7034   -7.8251 C   0  0  0  0  0  0  0  0  0  0  0  0
   52.5156   -4.8868   -7.7863 C   0  0  0  0  0  0  0  0  0  0  0  0
   53.7942   -5.0389   -8.3264 C   0  0  0  0  0  0  0  0  0  0  0  0
   54.4340   -3.9817   -8.9404 C   0  0  0  0  0  0  0  0  0  0  0  0
   53.7494   -2.7958   -8.9873 C   0  0  0  0  0  0  0  0  0  0  0  0
   52.4939   -2.6349   -8.4611 C   0  0  0  0  0  0  0  0  0  0  0  0
   51.8701   -1.4396   -8.5460 F   0  0  0  0  0  0  0  0  0  0  0  0
   55.7607   -4.1446   -9.4328 N   0  0  0  0  0  0  0  0  0  0  0  0
   56.1339   -4.4379  -10.7378 C   0  0  0  0  0  0  0  0  0  0  0  0
   55.2730   -4.6356  -11.6309 O   0  0  0  0  0  0  0  0  0  0  0  0
   56.5274   -4.0717   -8.6830 H   0  0  0  0  0  0  0  0  0  0  0  0
   57.5461   -4.5469  -11.1413 C   0  0  0  0  0  0  0  0  0  0  0  0
   58.5828   -4.3768  -10.0728 C   0  0  0  0  0  0  0  0  0  0  0  0
   58.3363   -5.7153  -10.6018 C   0  0  0  0  0  0  0  0  0  0  0  0
   57.9228   -4.0240  -12.4747 C   0  0  0  0  0  0  0  0  0  0  0  0
   59.0940   -3.5563  -12.5860 O   0  0  0  0  0  0  0  0  0  0  0  0
   57.0386   -4.0520  -13.5612 N   0  0  0  0  0  0  0  0  0  0  0  0
   56.1079   -4.5629  -13.3599 H   0  0  0  0  0  0  0  0  0  0  0  0
   57.2503   -3.5635  -14.8601 C   0  0  0  0  0  0  0  0  0  0  0  0
   58.4232   -3.0895  -15.3448 C   0  0  0  0  0  0  0  0  0  0  0  0
   58.5656   -2.6217  -16.6456 C   0  0  0  0  0  0  0  0  0  0  0  0
   57.4606   -2.6476  -17.4607 C   0  0  0  0  0  0  0  0  0  0  0  0
   57.4935   -2.2066  -18.7627 F   0  0  0  0  0  0  0  0  0  0  0  0
   56.2620   -3.1215  -16.9975 C   0  0  0  0  0  0  0  0  0  0  0  0
   56.1610   -3.5724  -15.7152 C   0  0  0  0  0  0  0  0  0  0  0  0
   50.5945   -3.4880   -7.3343 O   0  0  0  0  0  0  0  0  0  0  0  0
   51.9254   -6.0125   -4.5114 C   0  0  0  0  0  0  0  0  0  0  0  0
   51.4573   -5.1192   -5.4869 C   0  0  0  0  0  0  0  0  0  0  0  0
   50.3914   -4.3007   -5.1698 C   0  0  0  0  0  0  0  0  0  0  0  0
   49.9346   -3.4234   -6.1910 C   0  0  0  0  0  0  0  0  0  0  0  0
   48.8667   -2.6384   -5.8480 C   0  0  0  0  0  0  0  0  0  0  0  0
   48.3039   -2.7279   -4.5875 C   0  0  0  0  0  0  0  0  0  0  0  0
   48.7619   -3.5671   -3.6534 N   0  0  0  0  0  0  0  0  0  0  0  0
   49.7988   -4.3530   -3.9345 C   0  0  0  0  0  0  0  0  0  0  0  0
   50.2799   -5.2516   -2.9758 C   0  0  0  0  0  0  0  0  0  0  0  0
   51.3387   -6.0850   -3.2479 C   0  0  0  0  0  0  0  0  0  0  0  0
   54.2988   -6.3168   -4.7795 C   0  0  0  0  0  0  0  0  0  0  0  0
   52.9893   -6.8481   -4.7884 O   0  0  0  0  0  0  0  0  0  0  0  0
   51.8628   -6.9773   -2.3817 O   0  0  0  0  0  0  0  0  0  0  0  0
   51.3573   -7.6168   -1.2759 C   0  0  0  0  0  0  0  0  0  0  0  0
   52.1241   -7.4578    0.0104 C   0  0  0  0  0  0  0  0  0  0  0  0
   53.5602   -7.8604   -0.2670 C   0  0  0  0  0  0  0  0  0  0  0  0
   54.5022   -6.8582   -0.0038 N   0  0  0  0  0  0  0  0  0  0  0  0
   54.0694   -5.6542    0.5742 C   0  0  0  0  0  0  0  0  0  0  0  0
   55.1372   -4.6743    0.8877 C   0  0  0  0  0  0  0  0  0  0  0  0
   56.5262   -5.2210    0.9022 C   0  0  0  0  0  0  0  0  0  0  0  0
   56.7914   -6.2929   -0.1077 C   0  0  0  0  0  0  0  0  0  0  0  0
   55.5647   -6.6430   -0.9263 C   0  0  0  0  0  0  0  0  0  0  0  0
 37 38  1  0  0  0
 38 27  1  0  0  0
 27 28  2  0  0  0
 28 29  1  0  0  0
 29 30  2  0  0  0
 30 26  1  0  0  0
 26  1  1  0  0  0
  1  2  2  0  0  0
  2  3  1  0  0  0
  3  4  2  0  0  0
  4  8  1  0  0  0
  8  9  1  0  0  0
  9 10  2  0  0  0
  9 12  1  0  0  0
 12 13  1  0  0  0
 13 14  1  0  0  0
 12 15  1  0  0  0
 15 16  2  0  0  0
 15 17  1  0  0  0
 17 19  1  0  0  0
 19 20  2  0  0  0
 20 21  1  0  0  0
 21 22  2  0  0  0
 22 23  1  0  0  0
 22 24  1  0  0  0
 24 25  2  0  0  0
  4  5  1  0  0  0
  5  6  2  0  0  0
  6  7  1  0  0  0
 30 31  1  0  0  0
 31 32  2  0  0  0
 32 33  1  0  0  0
 33 34  2  0  0  0
 34 35  1  0  0  0
 35 36  2  0  0  0
 36 39  1  0  0  0
 39 40  1  0  0  0
 40 41  1  0  0  0
 41 42  1  0  0  0
 42 43  1  0  0  0
 43 44  1  0  0  0
 44 45  1  0  0  0
 45 46  1  0  0  0
 46 47  1  0  0  0
 47 48  1  0  0  0
 36 27  1  0  0  0
 48 43  1  0  0  0
 34 29  1  0  0  0
  6  1  1  0  0  0
 14 12  1  0  0  0
 25 19  1  0  0  0
  8 11  1  0  0  0
 17 18  1  0  0  0
M  END
> <minimizedAffinity>
-9.38553

> <CNNscore>
0.2797529101

> <CNNaffinity>
7.5787363052

> <CNN_VS>
2.1201734543

> <CNNaffinity_variance>
0.2841899097

$$$$
[H]c1nc2c([H])c(OC([H])([H])C([H])([H])C([H])([H])N3C([H])([H])C([H])([H])C([H])([H])C([H])([H])C3([H])[H])c(OC([H])([H])[H])c([H])c2c(Oc2c([H])c([H])c(N([H])C(=O)C3(C(=O)N([H])c4c([H])c([H])c(F)c([H])c4[H])C([H])([H])C3([H])[H])c([H])c2F)c1[H]


 48 53  0  0  0  0  0  0  0  0999 V2000
   55.7335   -5.7607   -5.5490 C   0  0  0  0  0  0  0  0  0  0  0  0
   55.9484   -4.9753   -4.4402 C   0  0  0  0  0  0  0  0  0  0  0  0
   55.6781   -5.3982   -3.1372 C   0  0  0  0  0  0  0  0  0  0  0  0
   55.1699   -6.6575   -2.8924 C   0  0  0  0  0  0  0  0  0  0  0  0
   54.9501   -7.4520   -3.9867 C   0  0  0  0  0  0  0  0  0  0  0  0
   55.2111   -7.0476   -5.2701 C   0  0  0  0  0  0  0  0  0  0  0  0
   54.9657   -7.8782   -6.3070 F   0  0  0  0  0  0  0  0  0  0  0  0
   54.9562   -7.0879   -1.5514 N   0  0  0  0  0  0  0  0  0  0  0  0
   53.8429   -6.8309   -0.7624 C   0  0  0  0  0  0  0  0  0  0  0  0
   52.8980   -6.1186   -1.1840 O   0  0  0  0  0  0  0  0  0  0  0  0
   55.7796   -7.6266   -1.1188 H   0  0  0  0  0  0  0  0  0  0  0  0
   53.7147   -7.3617    0.6055 C   0  0  0  0  0  0  0  0  0  0  0  0
   54.9735   -7.7801    1.3026 C   0  0  0  0  0  0  0  0  0  0  0  0
   54.3148   -6.5480    1.7273 C   0  0  0  0  0  0  0  0  0  0  0  0
   52.5196   -8.1790    0.9170 C   0  0  0  0  0  0  0  0  0  0  0  0
   52.7307   -9.2951    1.4760 O   0  0  0  0  0  0  0  0  0  0  0  0
   51.2220   -7.7415    0.6209 N   0  0  0  0  0  0  0  0  0  0  0  0
   51.1734   -6.7336    0.2341 H   0  0  0  0  0  0  0  0  0  0  0  0
   50.0122   -8.4228    0.8280 C   0  0  0  0  0  0  0  0  0  0  0  0
   49.1827   -8.2567    1.8860 C   0  0  0  0  0  0  0  0  0  0  0  0
   47.9949   -8.9637    2.0291 C   0  0  0  0  0  0  0  0  0  0  0  0
   47.6633   -9.8652    1.0476 C   0  0  0  0  0  0  0  0  0  0  0  0
   46.5126  -10.6165    1.0939 F   0  0  0  0  0  0  0  0  0  0  0  0
   48.4829  -10.0537   -0.0334 C   0  0  0  0  0  0  0  0  0  0  0  0
   49.6402   -9.3415   -0.1393 C   0  0  0  0  0  0  0  0  0  0  0  0
   55.9650   -5.4220   -6.8175 O   0  0  0  0  0  0  0  0  0  0  0  0
   58.2854   -5.2018  -10.0855 C   0  0  0  0  0  0  0  0  0  0  0  0
   57.4617   -5.2814   -8.9525 C   0  0  0  0  0  0  0  0  0  0  0  0
   56.1836   -4.7652   -9.0328 C   0  0  0  0  0  0  0  0  0  0  0  0
   55.3869   -4.8479   -7.8581 C   0  0  0  0  0  0  0  0  0  0  0  0
   54.1318   -4.3123   -7.9682 C   0  0  0  0  0  0  0  0  0  0  0  0
   53.7128   -3.7402   -9.1560 C   0  0  0  0  0  0  0  0  0  0  0  0
   54.4925   -3.6806  -10.2399 N   0  0  0  0  0  0  0  0  0  0  0  0
   55.7224   -4.1871  -10.1874 C   0  0  0  0  0  0  0  0  0  0  0  0
   56.5600   -4.1166  -11.3060 C   0  0  0  0  0  0  0  0  0  0  0  0
   57.8396   -4.6177  -11.2712 C   0  0  0  0  0  0  0  0  0  0  0  0
   60.1125   -6.1065   -8.8045 C   0  0  0  0  0  0  0  0  0  0  0  0
   59.5703   -5.7064  -10.0467 O   0  0  0  0  0  0  0  0  0  0  0  0
   58.7090   -4.5905  -12.3030 O   0  0  0  0  0  0  0  0  0  0  0  0
   59.2786   -3.5669  -13.0207 C   0  0  0  0  0  0  0  0  0  0  0  0
   60.5613   -3.8776  -13.7457 C   0  0  0  0  0  0  0  0  0  0  0  0
   60.5700   -3.0559  -15.0210 C   0  0  0  0  0  0  0  0  0  0  0  0
   59.5971   -3.4306  -15.9561 N   0  0  0  0  0  0  0  0  0  0  0  0
   60.0016   -4.0761  -17.1353 C   0  0  0  0  0  0  0  0  0  0  0  0
   58.9065   -4.5044  -18.0387 C   0  0  0  0  0  0  0  0  0  0  0  0
   57.5453   -4.5370  -17.4269 C   0  0  0  0  0  0  0  0  0  0  0  0
   57.2828   -3.4636  -16.4178 C   0  0  0  0  0  0  0  0  0  0  0  0
   58.4857   -2.5713  -16.1853 C   0  0  0  0  0  0  0  0  0  0  0  0
 37 38  1  0  0  0
 38 27  1  0  0  0
 27 28  2  0  0  0
 28 29  1  0  0  0
 29 30  2  0  0  0
 30 26  1  0  0  0
 26  1  1  0  0  0
  1  2  2  0  0  0
  2  3  1  0  0  0
  3  4  2  0  0  0
  4  8  1  0  0  0
  8  9  1  0  0  0
  9 10  2  0  0  0
  9 12  1  0  0  0
 12 13  1  0  0  0
 13 14  1  0  0  0
 12 15  1  0  0  0
 15 16  2  0  0  0
 15 17  1  0  0  0
 17 19  1  0  0  0
 19 20  2  0  0  0
 20 21  1  0  0  0
 21 22  2  0  0  0
 22 23  1  0  0  0
 22 24  1  0  0  0
 24 25  2  0  0  0
  4  5  1  0  0  0
  5  6  2  0  0  0
  6  7  1  0  0  0
 30 31  1  0  0  0
 31 32  2  0  0  0
 32 33  1  0  0  0
 33 34  2  0  0  0
 34 35  1  0  0  0
 35 36  2  0  0  0
 36 39  1  0  0  0
 39 40  1  0  0  0
 40 41  1  0  0  0
 41 42  1  0  0  0
 42 43  1  0  0  0
 43 44  1  0  0  0
 44 45  1  0  0  0
 45 46  1  0  0  0
 46 47  1  0  0  0
 47 48  1  0  0  0
 36 27  1  0  0  0
 48 43  1  0  0  0
 34 29  1  0  0  0
  6  1  1  0  0  0
 14 12  1  0  0  0
 25 19  1  0  0  0
  8 11  1  0  0  0
 17 18  1  0  0  0
M  END
> <minimizedAffinity>
-9.63068

> <CNNscore>
0.2343641073

> <CNNaffinity>
6.6224927902

> <CNN_VS>
1.5520745516

> <CNNaffinity_variance>
0.3171390891

$$$$
[H]c1nc2c([H])c(OC([H])([H])C([H])([H])C([H])([H])N3C([H])([H])C([H])([H])C([H])([H])C([H])([H])C3([H])[H])c(OC([H])([H])[H])c([H])c2c(Oc2c([H])c([H])c(N([H])C(=O)C3(C(=O)N([H])c4c([H])c([H])c(F)c([H])c4[H])C([H])([H])C3([H])[H])c([H])c2F)c1[H]


 48 53  0  0  0  0  0  0  0  0999 V2000
   55.5050   -6.0304   -5.4696 C   0  0  0  0  0  0  0  0  0  0  0  0
   55.0931   -7.3120   -5.1863 C   0  0  0  0  0  0  0  0  0  0  0  0
   54.9293   -7.7949   -3.8865 C   0  0  0  0  0  0  0  0  0  0  0  0
   55.1784   -6.9887   -2.7947 C   0  0  0  0  0  0  0  0  0  0  0  0
   55.5897   -5.7090   -3.0602 C   0  0  0  0  0  0  0  0  0  0  0  0
   55.7545   -5.2242   -4.3317 C   0  0  0  0  0  0  0  0  0  0  0  0
   56.1692   -3.9531   -4.5254 F   0  0  0  0  0  0  0  0  0  0  0  0
   54.9492   -7.4848   -1.4793 N   0  0  0  0  0  0  0  0  0  0  0  0
   53.8671   -7.1969   -0.6581 C   0  0  0  0  0  0  0  0  0  0  0  0
   52.9724   -6.3929   -1.0202 O   0  0  0  0  0  0  0  0  0  0  0  0
   55.7356   -8.1079   -1.0937 H   0  0  0  0  0  0  0  0  0  0  0  0
   53.7161   -7.8008    0.6767 C   0  0  0  0  0  0  0  0  0  0  0  0
   54.9399   -8.3922    1.3075 C   0  0  0  0  0  0  0  0  0  0  0  0
   54.4245   -7.1294    1.8290 C   0  0  0  0  0  0  0  0  0  0  0  0
   52.4494   -8.5090    0.9719 C   0  0  0  0  0  0  0  0  0  0  0  0
   52.5504   -9.6117    1.5854 O   0  0  0  0  0  0  0  0  0  0  0  0
   51.2024   -7.9868    0.6038 N   0  0  0  0  0  0  0  0  0  0  0  0
   51.2481   -6.9965    0.1735 H   0  0  0  0  0  0  0  0  0  0  0  0
   49.9358   -8.5632    0.7885 C   0  0  0  0  0  0  0  0  0  0  0  0
   49.3658   -9.4928   -0.0153 C   0  0  0  0  0  0  0  0  0  0  0  0
   48.1055  -10.0259    0.2269 C   0  0  0  0  0  0  0  0  0  0  0  0
   47.4223   -9.5799    1.3317 C   0  0  0  0  0  0  0  0  0  0  0  0
   46.1693  -10.0408    1.6603 F   0  0  0  0  0  0  0  0  0  0  0  0
   47.9741   -8.6407    2.1620 C   0  0  0  0  0  0  0  0  0  0  0  0
   49.2132   -8.1411    1.8919 C   0  0  0  0  0  0  0  0  0  0  0  0
   55.6850   -5.5050   -6.6815 O   0  0  0  0  0  0  0  0  0  0  0  0
   57.7536   -5.1056  -10.0982 C   0  0  0  0  0  0  0  0  0  0  0  0
   57.0172   -5.2471   -8.9124 C   0  0  0  0  0  0  0  0  0  0  0  0
   55.7447   -4.7135   -8.8625 C   0  0  0  0  0  0  0  0  0  0  0  0
   55.0384   -4.8610   -7.6375 C   0  0  0  0  0  0  0  0  0  0  0  0
   53.7868   -4.3064   -7.6178 C   0  0  0  0  0  0  0  0  0  0  0  0
   53.2876   -3.6569   -8.7326 C   0  0  0  0  0  0  0  0  0  0  0  0
   53.9836   -3.5380   -9.8674 N   0  0  0  0  0  0  0  0  0  0  0  0
   55.2060   -4.0597   -9.9406 C   0  0  0  0  0  0  0  0  0  0  0  0
   55.9573   -3.9283  -11.1138 C   0  0  0  0  0  0  0  0  0  0  0  0
   57.2280   -4.4440  -11.2081 C   0  0  0  0  0  0  0  0  0  0  0  0
   59.7413   -5.9080   -9.0013 C   0  0  0  0  0  0  0  0  0  0  0  0
   59.0299   -5.6251  -10.1892 O   0  0  0  0  0  0  0  0  0  0  0  0
   58.0168   -4.3616  -12.3000 O   0  0  0  0  0  0  0  0  0  0  0  0
   57.8269   -3.8355  -13.5548 C   0  0  0  0  0  0  0  0  0  0  0  0
   56.7650   -4.4784  -14.4072 C   0  0  0  0  0  0  0  0  0  0  0  0
   56.1245   -3.3806  -15.2355 C   0  0  0  0  0  0  0  0  0  0  0  0
   56.4812   -3.3962  -16.5898 N   0  0  0  0  0  0  0  0  0  0  0  0
   55.6212   -2.7999  -17.5255 C   0  0  0  0  0  0  0  0  0  0  0  0
   56.1049   -2.7945  -18.9272 C   0  0  0  0  0  0  0  0  0  0  0  0
   57.5609   -3.0712  -19.1049 C   0  0  0  0  0  0  0  0  0  0  0  0
   58.1374   -4.0557  -18.1365 C   0  0  0  0  0  0  0  0  0  0  0  0
   57.1200   -4.5492  -17.1272 C   0  0  0  0  0  0  0  0  0  0  0  0
 37 38  1  0  0  0
 38 27  1  0  0  0
 27 28  2  0  0  0
 28 29  1  0  0  0
 29 30  2  0  0  0
 30 26  1  0  0  0
 26  1  1  0  0  0
  1  2  2  0  0  0
  2  3  1  0  0  0
  3  4  2  0  0  0
  4  8  1  0  0  0
  8  9  1  0  0  0
  9 10  2  0  0  0
  9 12  1  0  0  0
 12 13  1  0  0  0
 13 14  1  0  0  0
 12 15  1  0  0  0
 15 16  2  0  0  0
 15 17  1  0  0  0
 17 19  1  0  0  0
 19 20  2  0  0  0
 20 21  1  0  0  0
 21 22  2  0  0  0
 22 23  1  0  0  0
 22 24  1  0  0  0
 24 25  2  0  0  0
  4  5  1  0  0  0
  5  6  2  0  0  0
  6  7  1  0  0  0
 30 31  1  0  0  0
 31 32  2  0  0  0
 32 33  1  0  0  0
 33 34  2  0  0  0
 34 35  1  0  0  0
 35 36  2  0  0  0
 36 39  1  0  0  0
 39 40  1  0  0  0
 40 41  1  0  0  0
 41 42  1  0  0  0
 42 43  1  0  0  0
 43 44  1  0  0  0
 44 45  1  0  0  0
 45 46  1  0  0  0
 46 47  1  0  0  0
 47 48  1  0  0  0
 36 27  1  0  0  0
 48 43  1  0  0  0
 34 29  1  0  0  0
  6  1  1  0  0  0
 14 12  1  0  0  0
 25 19  1  0  0  0
  8 11  1  0  0  0
 17 18  1  0  0  0
M  END
> <minimizedAffinity>
-9.30746

> <CNNscore>
0.2279601395

> <CNNaffinity>
6.7720360756

> <CNN_VS>
1.5437543392

> <CNNaffinity_variance>
0.1848654747

$$$$
[H]c1nc2c([H])c(OC([H])([H])C([H])([H])C([H])([H])N3C([H])([H])C([H])([H])C([H])([H])C([H])([H])C3([H])[H])c(OC([H])([H])[H])c([H])c2c(Oc2c([H])c([H])c(N([H])C(=O)C3(C(=O)N([H])c4c([H])c([H])c(F)c([H])c4[H])C([H])([H])C3([H])[H])c([H])c2F)c1[H]


 48 53  0  0  0  0  0  0  0  0999 V2000
   55.7803   -4.4390   -9.2491 C   0  0  0  0  0  0  0  0  0  0  0  0
   56.3286   -4.6374   -8.0032 C   0  0  0  0  0  0  0  0  0  0  0  0
   57.6340   -5.0911   -7.8036 C   0  0  0  0  0  0  0  0  0  0  0  0
   58.4588   -5.3689   -8.8743 C   0  0  0  0  0  0  0  0  0  0  0  0
   57.9271   -5.1764  -10.1223 C   0  0  0  0  0  0  0  0  0  0  0  0
   56.6472   -4.7320  -10.3305 C   0  0  0  0  0  0  0  0  0  0  0  0
   56.1811   -4.5689  -11.5879 F   0  0  0  0  0  0  0  0  0  0  0  0
   59.8048   -5.7753   -8.6463 N   0  0  0  0  0  0  0  0  0  0  0  0
   60.4587   -6.8530   -9.2288 C   0  0  0  0  0  0  0  0  0  0  0  0
   59.8617   -7.6251  -10.0195 O   0  0  0  0  0  0  0  0  0  0  0  0
   60.3276   -5.1949   -7.9079 H   0  0  0  0  0  0  0  0  0  0  0  0
   61.8713   -7.1572   -8.9438 C   0  0  0  0  0  0  0  0  0  0  0  0
   62.8930   -6.6653   -9.9235 C   0  0  0  0  0  0  0  0  0  0  0  0
   62.7843   -5.9958   -8.6303 C   0  0  0  0  0  0  0  0  0  0  0  0
   62.1803   -8.4601   -8.3111 C   0  0  0  0  0  0  0  0  0  0  0  0
   63.2423   -9.0338   -8.6927 O   0  0  0  0  0  0  0  0  0  0  0  0
   61.3511   -9.0274   -7.3345 N   0  0  0  0  0  0  0  0  0  0  0  0
   60.5305   -8.3937   -7.0297 H   0  0  0  0  0  0  0  0  0  0  0  0
   61.5038  -10.2610   -6.6820 C   0  0  0  0  0  0  0  0  0  0  0  0
   62.2424  -10.4795   -5.5677 C   0  0  0  0  0  0  0  0  0  0  0  0
   62.3494  -11.7291   -4.9690 C   0  0  0  0  0  0  0  0  0  0  0  0
   61.6718  -12.7758   -5.5446 C   0  0  0  0  0  0  0  0  0  0  0  0
   61.7124  -14.0515   -5.0332 F   0  0  0  0  0  0  0  0  0  0  0  0
   60.9173  -12.5840   -6.6715 C   0  0  0  0  0  0  0  0  0  0  0  0
   60.8361  -11.3434   -7.2302 C   0  0  0  0  0  0  0  0  0  0  0  0
   54.5451   -4.0123   -9.5130 O   0  0  0  0  0  0  0  0  0  0  0  0
   53.3547   -6.1564   -6.3352 C   0  0  0  0  0  0  0  0  0  0  0  0
   53.7663   -5.3937   -7.4385 C   0  0  0  0  0  0  0  0  0  0  0  0
   53.0222   -4.2826   -7.7825 C   0  0  0  0  0  0  0  0  0  0  0  0
   53.4608   -3.5472   -8.9175 C   0  0  0  0  0  0  0  0  0  0  0  0
   52.6910   -2.4619   -9.2397 C   0  0  0  0  0  0  0  0  0  0  0  0
   51.5745   -2.1431   -8.4876 C   0  0  0  0  0  0  0  0  0  0  0  0
   51.1935   -2.8606   -7.4264 N   0  0  0  0  0  0  0  0  0  0  0  0
   51.9069   -3.9261   -7.0691 C   0  0  0  0  0  0  0  0  0  0  0  0
   51.5125   -4.7008   -5.9726 C   0  0  0  0  0  0  0  0  0  0  0  0
   52.2233   -5.8148   -5.5942 C   0  0  0  0  0  0  0  0  0  0  0  0
   55.3692   -7.1097   -5.4238 C   0  0  0  0  0  0  0  0  0  0  0  0
   54.0714   -7.2749   -5.9581 O   0  0  0  0  0  0  0  0  0  0  0  0
   51.9119   -6.6134   -4.5519 O   0  0  0  0  0  0  0  0  0  0  0  0
   51.6893   -6.3687   -3.2185 C   0  0  0  0  0  0  0  0  0  0  0  0
   52.6052   -5.3795   -2.5474 C   0  0  0  0  0  0  0  0  0  0  0  0
   53.2741   -6.0964   -1.3898 C   0  0  0  0  0  0  0  0  0  0  0  0
   54.6644   -6.2147   -1.5095 N   0  0  0  0  0  0  0  0  0  0  0  0
   55.2217   -7.4846   -1.7277 C   0  0  0  0  0  0  0  0  0  0  0  0
   56.6923   -7.5148   -1.9155 C   0  0  0  0  0  0  0  0  0  0  0  0
   57.3279   -6.1986   -2.2189 C   0  0  0  0  0  0  0  0  0  0  0  0
   56.7025   -5.0246   -1.5336 C   0  0  0  0  0  0  0  0  0  0  0  0
   55.5039   -5.4092   -0.6893 C   0  0  0  0  0  0  0  0  0  0  0  0
 37 38  1  0  0  0
 38 27  1  0  0  0
 27 28  2  0  0  0
 28 29  1  0  0  0
 29 30  2  0  0  0
 30 26  1  0  0  0
 26  1  1  0  0  0
  1  2  2  0  0  0
  2  3  1  0  0  0
  3  4  2  0  0  0
  4  8  1  0  0  0
  8  9  1  0  0  0
  9 10  2  0  0  0
  9 12  1  0  0  0
 12 13  1  0  0  0
 13 14  1  0  0  0
 12 15  1  0  0  0
 15 16  2  0  0  0
 15 17  1  0  0  0
 17 19  1  0  0  0
 19 20  2  0  0  0
 20 21  1  0  0  0
 21 22  2  0  0  0
 22 23  1  0  0  0
 22 24  1  0  0  0
 24 25  2  0  0  0
  4  5  1  0  0  0
  5  6  2  0  0  0
  6  7  1  0  0  0
 30 31  1  0  0  0
 31 32  2  0  0  0
 32 33  1  0  0  0
 33 34  2  0  0  0
 34 35  1  0  0  0
 35 36  2  0  0  0
 36 39  1  0  0  0
 39 40  1  0  0  0
 40 41  1  0  0  0
 41 42  1  0  0  0
 42 43  1  0  0  0
 43 44  1  0  0  0
 44 45  1  0  0  0
 45 46  1  0  0  0
 46 47  1  0  0  0
 47 48  1  0  0  0
 36 27  1  0  0  0
 48 43  1  0  0  0
 34 29  1  0  0  0
  6  1  1  0  0  0
 14 12  1  0  0  0
 25 19  1  0  0  0
  8 11  1  0  0  0
 17 18  1  0  0  0
M  END
> <minimizedAffinity>
-9.42680

> <CNNscore>
0.2117669284

> <CNNaffinity>
7.3768143654

> <CNN_VS>
1.5621652603

> <CNNaffinity_variance>
0.3436954319

$$$$
[H]c1nc2c([H])c(OC([H])([H])C([H])([H])C([H])([H])N3C([H])([H])C([H])([H])C([H])([H])C([H])([H])C3([H])[H])c(OC([H])([H])[H])c([H])c2c(Oc2c([H])c([H])c(N([H])C(=O)C3(C(=O)N([H])c4c([H])c([H])c(F)c([H])c4[H])C([H])([H])C3([H])[H])c([H])c2F)c1[H]


 48 53  0  0  0  0  0  0  0  0999 V2000
   52.8023   -5.6958   -5.1463 C   0  0  0  0  0  0  0  0  0  0  0  0
   51.6074   -6.1256   -4.6171 C   0  0  0  0  0  0  0  0  0  0  0  0
   51.4392   -6.4534   -3.2703 C   0  0  0  0  0  0  0  0  0  0  0  0
   52.4906   -6.3587   -2.3817 C   0  0  0  0  0  0  0  0  0  0  0  0
   53.6877   -5.9320   -2.8934 C   0  0  0  0  0  0  0  0  0  0  0  0
   53.8649   -5.6080   -4.2135 C   0  0  0  0  0  0  0  0  0  0  0  0
   55.0740   -5.1993   -4.6561 F   0  0  0  0  0  0  0  0  0  0  0  0
   52.2810   -6.6430   -1.0017 N   0  0  0  0  0  0  0  0  0  0  0  0
   53.2089   -7.1625   -0.1088 C   0  0  0  0  0  0  0  0  0  0  0  0
   54.3646   -7.4804   -0.4843 O   0  0  0  0  0  0  0  0  0  0  0  0
   51.2776   -6.4692   -0.6574 H   0  0  0  0  0  0  0  0  0  0  0  0
   52.8889   -7.3814    1.3121 C   0  0  0  0  0  0  0  0  0  0  0  0
   54.0271   -7.3548    2.2864 C   0  0  0  0  0  0  0  0  0  0  0  0
   53.1018   -6.2253    2.2601 C   0  0  0  0  0  0  0  0  0  0  0  0
   51.8056   -8.3388    1.6336 C   0  0  0  0  0  0  0  0  0  0  0  0
   52.1088   -9.2927    2.4087 O   0  0  0  0  0  0  0  0  0  0  0  0
   50.5103   -8.1960    1.1190 N   0  0  0  0  0  0  0  0  0  0  0  0
   50.3587   -7.2897    0.5502 H   0  0  0  0  0  0  0  0  0  0  0  0
   49.4061   -9.0411    1.3118 C   0  0  0  0  0  0  0  0  0  0  0  0
   48.1606   -8.6450    1.6684 C   0  0  0  0  0  0  0  0  0  0  0  0
   47.1082   -9.5362    1.8405 C   0  0  0  0  0  0  0  0  0  0  0  0
   47.3588  -10.8711    1.6372 C   0  0  0  0  0  0  0  0  0  0  0  0
   46.3887  -11.8346    1.7830 F   0  0  0  0  0  0  0  0  0  0  0  0
   48.6084  -11.3001    1.2760 C   0  0  0  0  0  0  0  0  0  0  0  0
   49.6158  -10.3959    1.1163 C   0  0  0  0  0  0  0  0  0  0  0  0
   53.0348   -5.3698   -6.4179 O   0  0  0  0  0  0  0  0  0  0  0  0
   56.0128   -4.8134   -9.0512 C   0  0  0  0  0  0  0  0  0  0  0  0
   54.9613   -5.0048   -8.1422 C   0  0  0  0  0  0  0  0  0  0  0  0
   53.8459   -4.1981   -8.2498 C   0  0  0  0  0  0  0  0  0  0  0  0
   52.8107   -4.4103   -7.2986 C   0  0  0  0  0  0  0  0  0  0  0  0
   51.7273   -3.5827   -7.4243 C   0  0  0  0  0  0  0  0  0  0  0  0
   51.6875   -2.6222   -8.4191 C   0  0  0  0  0  0  0  0  0  0  0  0
   52.6825   -2.4526   -9.2952 N   0  0  0  0  0  0  0  0  0  0  0  0
   53.7594   -3.2311   -9.2180 C   0  0  0  0  0  0  0  0  0  0  0  0
   54.8195   -3.0555  -10.1143 C   0  0  0  0  0  0  0  0  0  0  0  0
   55.9489   -3.8359  -10.0443 C   0  0  0  0  0  0  0  0  0  0  0  0
   58.2438   -5.1496   -8.2103 C   0  0  0  0  0  0  0  0  0  0  0  0
   57.1458   -5.5994   -8.9778 O   0  0  0  0  0  0  0  0  0  0  0  0
   57.0127   -3.7321  -10.8682 O   0  0  0  0  0  0  0  0  0  0  0  0
   57.3612   -4.3723  -12.0327 C   0  0  0  0  0  0  0  0  0  0  0  0
   56.7301   -3.8644  -13.3021 C   0  0  0  0  0  0  0  0  0  0  0  0
   57.8553   -3.5136  -14.2572 C   0  0  0  0  0  0  0  0  0  0  0  0
   57.4370   -3.2302  -15.5633 N   0  0  0  0  0  0  0  0  0  0  0  0
   56.0781   -3.3708  -15.8869 C   0  0  0  0  0  0  0  0  0  0  0  0
   55.7054   -2.9822  -17.2685 C   0  0  0  0  0  0  0  0  0  0  0  0
   56.7148   -2.1596  -17.9984 C   0  0  0  0  0  0  0  0  0  0  0  0
   58.1406   -2.4958  -17.6931 C   0  0  0  0  0  0  0  0  0  0  0  0
   58.2747   -3.5926  -16.6556 C   0  0  0  0  0  0  0  0  0  0  0  0
 37 38  1  0  0  0
 38 27  1  0  0  0
 27 28  2  0  0  0
 28 29  1  0  0  0
 29 30  2  0  0  0
 30 26  1  0  0  0
 26  1  1  0  0  0
  1  2  2  0  0  0
  2  3  1  0  0  0
  3  4  2  0  0  0
  4  8  1  0  0  0
  8  9  1  0  0  0
  9 10  2  0  0  0
  9 12  1  0  0  0
 12 13  1  0  0  0
 13 14  1  0  0  0
 12 15  1  0  0  0
 15 16  2  0  0  0
 15 17  1  0  0  0
 17 19  1  0  0  0
 19 20  2  0  0  0
 20 21  1  0  0  0
 21 22  2  0  0  0
 22 23  1  0  0  0
 22 24  1  0  0  0
 24 25  2  0  0  0
  4  5  1  0  0  0
  5  6  2  0  0  0
  6  7  1  0  0  0
 30 31  1  0  0  0
 31 32  2  0  0  0
 32 33  1  0  0  0
 33 34  2  0  0  0
 34 35  1  0  0  0
 35 36  2  0  0  0
 36 39  1  0  0  0
 39 40  1  0  0  0
 40 41  1  0  0  0
 41 42  1  0  0  0
 42 43  1  0  0  0
 43 44  1  0  0  0
 44 45  1  0  0  0
 45 46  1  0  0  0
 46 47  1  0  0  0
 47 48  1  0  0  0
 36 27  1  0  0  0
 48 43  1  0  0  0
 34 29  1  0  0  0
  6  1  1  0  0  0
 14 12  1  0  0  0
 25 19  1  0  0  0
  8 11  1  0  0  0
 17 18  1  0  0  0
M  END
> <minimizedAffinity>
-9.72536

> <CNNscore>
0.2073827237

> <CNNaffinity>
7.0905761719

> <CNN_VS>
1.4704630375

> <CNNaffinity_variance>
0.0856458843

$$$$
[H]c1nc2c([H])c(OC([H])([H])C([H])([H])C([H])([H])N3C([H])([H])C([H])([H])C([H])([H])C([H])([H])C3([H])[H])c(OC([H])([H])[H])c([H])c2c(Oc2c([H])c([H])c(N([H])C(=O)C3(C(=O)N([H])c4c([H])c([H])c(F)c([H])c4[H])C([H])([H])C3([H])[H])c([H])c2F)c1[H]


 48 53  0  0  0  0  0  0  0  0999 V2000
   55.8013   -5.6436   -5.6003 C   0  0  0  0  0  0  0  0  0  0  0  0
   56.0052   -4.8244   -4.5141 C   0  0  0  0  0  0  0  0  0  0  0  0
   55.7181   -5.2055   -3.2018 C   0  0  0  0  0  0  0  0  0  0  0  0
   55.2032   -6.4551   -2.9238 C   0  0  0  0  0  0  0  0  0  0  0  0
   54.9942   -7.2830   -3.9953 C   0  0  0  0  0  0  0  0  0  0  0  0
   55.2718   -6.9198   -5.2875 C   0  0  0  0  0  0  0  0  0  0  0  0
   55.0364   -7.7818   -6.3008 F   0  0  0  0  0  0  0  0  0  0  0  0
   54.9721   -6.8427   -1.5727 N   0  0  0  0  0  0  0  0  0  0  0  0
   53.8086   -6.6514   -0.8395 C   0  0  0  0  0  0  0  0  0  0  0  0
   52.8234   -6.0460   -1.3303 O   0  0  0  0  0  0  0  0  0  0  0  0
   55.8208   -7.2858   -1.0839 H   0  0  0  0  0  0  0  0  0  0  0  0
   53.6703   -7.1301    0.5465 C   0  0  0  0  0  0  0  0  0  0  0  0
   54.9302   -7.4279    1.3011 C   0  0  0  0  0  0  0  0  0  0  0  0
   54.1737   -6.2281    1.6482 C   0  0  0  0  0  0  0  0  0  0  0  0
   52.5245   -8.0153    0.8575 C   0  0  0  0  0  0  0  0  0  0  0  0
   52.7986   -9.1121    1.4273 O   0  0  0  0  0  0  0  0  0  0  0  0
   51.2049   -7.6592    0.5495 N   0  0  0  0  0  0  0  0  0  0  0  0
   51.0984   -6.6592    0.1538 H   0  0  0  0  0  0  0  0  0  0  0  0
   50.0370   -8.4105    0.7547 C   0  0  0  0  0  0  0  0  0  0  0  0
   49.2387   -8.3476    1.8474 C   0  0  0  0  0  0  0  0  0  0  0  0
   48.0916   -9.1197    1.9865 C   0  0  0  0  0  0  0  0  0  0  0  0
   47.7684   -9.9777    0.9641 C   0  0  0  0  0  0  0  0  0  0  0  0
   46.6571  -10.7864    1.0028 F   0  0  0  0  0  0  0  0  0  0  0  0
   48.5571  -10.0621   -0.1525 C   0  0  0  0  0  0  0  0  0  0  0  0
   49.6748   -9.2884   -0.2532 C   0  0  0  0  0  0  0  0  0  0  0  0
   56.0490   -5.3455   -6.8758 O   0  0  0  0  0  0  0  0  0  0  0  0
   58.4393   -5.1484  -10.0946 C   0  0  0  0  0  0  0  0  0  0  0  0
   57.5915   -5.2206   -8.9790 C   0  0  0  0  0  0  0  0  0  0  0  0
   56.3011   -4.7452   -9.1036 C   0  0  0  0  0  0  0  0  0  0  0  0
   55.4794   -4.8185   -7.9457 C   0  0  0  0  0  0  0  0  0  0  0  0
   54.2122   -4.3239   -8.1000 C   0  0  0  0  0  0  0  0  0  0  0  0
   53.8051   -3.7983   -9.3131 C   0  0  0  0  0  0  0  0  0  0  0  0
   54.6084   -3.7461  -10.3801 N   0  0  0  0  0  0  0  0  0  0  0  0
   55.8509   -4.2140  -10.2847 C   0  0  0  0  0  0  0  0  0  0  0  0
   56.7126   -4.1501  -11.3854 C   0  0  0  0  0  0  0  0  0  0  0  0
   58.0050   -4.6116  -11.3067 C   0  0  0  0  0  0  0  0  0  0  0  0
   59.9892   -6.8247   -9.3293 C   0  0  0  0  0  0  0  0  0  0  0  0
   59.7370   -5.6132  -10.0117 O   0  0  0  0  0  0  0  0  0  0  0  0
   58.8975   -4.5876  -12.3186 O   0  0  0  0  0  0  0  0  0  0  0  0
   59.4210   -3.5721  -13.0815 C   0  0  0  0  0  0  0  0  0  0  0  0
   60.7756   -3.8117  -13.6941 C   0  0  0  0  0  0  0  0  0  0  0  0
   61.2456   -2.4942  -14.2810 C   0  0  0  0  0  0  0  0  0  0  0  0
   62.6250   -2.2750  -14.1775 N   0  0  0  0  0  0  0  0  0  0  0  0
   63.0825   -1.1375  -13.4938 C   0  0  0  0  0  0  0  0  0  0  0  0
   64.5549   -1.0164  -13.3661 C   0  0  0  0  0  0  0  0  0  0  0  0
   65.3275   -2.2648  -13.6358 C   0  0  0  0  0  0  0  0  0  0  0  0
   64.7563   -3.1397  -14.7071 C   0  0  0  0  0  0  0  0  0  0  0  0
   63.4643   -2.5941  -15.2821 C   0  0  0  0  0  0  0  0  0  0  0  0
 37 38  1  0  0  0
 38 27  1  0  0  0
 27 28  2  0  0  0
 28 29  1  0  0  0
 29 30  2  0  0  0
 30 26  1  0  0  0
 26  1  1  0  0  0
  1  2  2  0  0  0
  2  3  1  0  0  0
  3  4  2  0  0  0
  4  8  1  0  0  0
  8  9  1  0  0  0
  9 10  2  0  0  0
  9 12  1  0  0  0
 12 13  1  0  0  0
 13 14  1  0  0  0
 12 15  1  0  0  0
 15 16  2  0  0  0
 15 17  1  0  0  0
 17 19  1  0  0  0
 19 20  2  0  0  0
 20 21  1  0  0  0
 21 22  2  0  0  0
 22 23  1  0  0  0
 22 24  1  0  0  0
 24 25  2  0  0  0
  4  5  1  0  0  0
  5  6  2  0  0  0
  6  7  1  0  0  0
 30 31  1  0  0  0
 31 32  2  0  0  0
 32 33  1  0  0  0
 33 34  2  0  0  0
 34 35  1  0  0  0
 35 36  2  0  0  0
 36 39  1  0  0  0
 39 40  1  0  0  0
 40 41  1  0  0  0
 41 42  1  0  0  0
 42 43  1  0  0  0
 43 44  1  0  0  0
 44 45  1  0  0  0
 45 46  1  0  0  0
 46 47  1  0  0  0
 47 48  1  0  0  0
 36 27  1  0  0  0
 48 43  1  0  0  0
 34 29  1  0  0  0
  6  1  1  0  0  0
 14 12  1  0  0  0
 25 19  1  0  0  0
  8 11  1  0  0  0
 17 18  1  0  0  0
M  END
> <minimizedAffinity>
-9.09920

> <CNNscore>
0.2035021037

> <CNNaffinity>
6.4497880936

> <CNN_VS>
1.3125454187

> <CNNaffinity_variance>
0.2370610684

$$$$
[H]c1nc2c([H])c(OC([H])([H])C([H])([H])C([H])([H])N3C([H])([H])C([H])([H])C([H])([H])C([H])([H])C3([H])[H])c(OC([H])([H])[H])c([H])c2c(Oc2c([H])c([H])c(N([H])C(=O)C3(C(=O)N([H])c4c([H])c([H])c(F)c([H])c4[H])C([H])([H])C3([H])[H])c([H])c2F)c1[H]


 48 53  0  0  0  0  0  0  0  0999 V2000
   56.6005   -4.4047   -8.5932 C   0  0  0  0  0  0  0  0  0  0  0  0
   56.9512   -4.2549   -9.9149 C   0  0  0  0  0  0  0  0  0  0  0  0
   58.0817   -4.8486  -10.4801 C   0  0  0  0  0  0  0  0  0  0  0  0
   58.9230   -5.6353   -9.7205 C   0  0  0  0  0  0  0  0  0  0  0  0
   58.5873   -5.7942   -8.4017 C   0  0  0  0  0  0  0  0  0  0  0  0
   57.4807   -5.2161   -7.8359 C   0  0  0  0  0  0  0  0  0  0  0  0
   57.2091   -5.4074   -6.5264 F   0  0  0  0  0  0  0  0  0  0  0  0
   60.0381   -6.2773  -10.3317 N   0  0  0  0  0  0  0  0  0  0  0  0
   61.2754   -6.5260   -9.7527 C   0  0  0  0  0  0  0  0  0  0  0  0
   61.5357   -6.1416   -8.5854 O   0  0  0  0  0  0  0  0  0  0  0  0
   59.8899   -6.5443  -11.3624 H   0  0  0  0  0  0  0  0  0  0  0  0
   62.3472   -7.2347  -10.4726 C   0  0  0  0  0  0  0  0  0  0  0  0
   63.1211   -8.2682   -9.7120 C   0  0  0  0  0  0  0  0  0  0  0  0
   62.1614   -8.7130  -10.7187 C   0  0  0  0  0  0  0  0  0  0  0  0
   63.1293   -6.4684  -11.4698 C   0  0  0  0  0  0  0  0  0  0  0  0
   64.2583   -6.0391  -11.0909 O   0  0  0  0  0  0  0  0  0  0  0  0
   62.6550   -6.2367  -12.7677 N   0  0  0  0  0  0  0  0  0  0  0  0
   61.7242   -6.7370  -12.9934 H   0  0  0  0  0  0  0  0  0  0  0  0
   63.2710   -5.5040  -13.7946 C   0  0  0  0  0  0  0  0  0  0  0  0
   64.4166   -4.7905  -13.6786 C   0  0  0  0  0  0  0  0  0  0  0  0
   64.9758   -4.0875  -14.7390 C   0  0  0  0  0  0  0  0  0  0  0  0
   64.3264   -4.1280  -15.9484 C   0  0  0  0  0  0  0  0  0  0  0  0
   64.7938   -3.4665  -17.0595 F   0  0  0  0  0  0  0  0  0  0  0  0
   63.1663   -4.8414  -16.0947 C   0  0  0  0  0  0  0  0  0  0  0  0
   62.6482   -5.5188  -15.0314 C   0  0  0  0  0  0  0  0  0  0  0  0
   55.5413   -3.8667   -7.9881 O   0  0  0  0  0  0  0  0  0  0  0  0
   53.1677   -5.7083   -5.3260 C   0  0  0  0  0  0  0  0  0  0  0  0
   53.9875   -5.0521   -6.2564 C   0  0  0  0  0  0  0  0  0  0  0  0
   53.3869   -4.2770   -7.2285 C   0  0  0  0  0  0  0  0  0  0  0  0
   54.2505   -3.6440   -8.1638 C   0  0  0  0  0  0  0  0  0  0  0  0
   53.6210   -2.8969   -9.1229 C   0  0  0  0  0  0  0  0  0  0  0  0
   52.2415   -2.7956   -9.1427 C   0  0  0  0  0  0  0  0  0  0  0  0
   51.4626   -3.4072   -8.2451 N   0  0  0  0  0  0  0  0  0  0  0  0
   52.0235   -4.1461   -7.2905 C   0  0  0  0  0  0  0  0  0  0  0  0
   51.2233   -4.8097   -6.3538 C   0  0  0  0  0  0  0  0  0  0  0  0
   51.7783   -5.5916   -5.3688 C   0  0  0  0  0  0  0  0  0  0  0  0
   55.1335   -6.6426   -4.2962 C   0  0  0  0  0  0  0  0  0  0  0  0
   53.7288   -6.4930   -4.3379 O   0  0  0  0  0  0  0  0  0  0  0  0
   51.0799   -6.2627   -4.4291 O   0  0  0  0  0  0  0  0  0  0  0  0
   50.3554   -5.8584   -3.3341 C   0  0  0  0  0  0  0  0  0  0  0  0
   50.9386   -6.1699   -1.9811 C   0  0  0  0  0  0  0  0  0  0  0  0
   51.5893   -7.5371   -2.0735 C   0  0  0  0  0  0  0  0  0  0  0  0
   52.6228   -7.7484   -1.1522 N   0  0  0  0  0  0  0  0  0  0  0  0
   52.4342   -8.6839   -0.1227 C   0  0  0  0  0  0  0  0  0  0  0  0
   53.6009   -8.9017    0.7662 C   0  0  0  0  0  0  0  0  0  0  0  0
   54.9072   -8.4013    0.2452 C   0  0  0  0  0  0  0  0  0  0  0  0
   54.8239   -7.1401   -0.5560 C   0  0  0  0  0  0  0  0  0  0  0  0
   53.4020   -6.6401   -0.7154 C   0  0  0  0  0  0  0  0  0  0  0  0
 37 38  1  0  0  0
 38 27  1  0  0  0
 27 28  2  0  0  0
 28 29  1  0  0  0
 29 30  2  0  0  0
 30 26  1  0  0  0
 26  1  1  0  0  0
  1  2  2  0  0  0
  2  3  1  0  0  0
  3  4  2  0  0  0
  4  8  1  0  0  0
  8  9  1  0  0  0
  9 10  2  0  0  0
  9 12  1  0  0  0
 12 13  1  0  0  0
 13 14  1  0  0  0
 12 15  1  0  0  0
 15 16  2  0  0  0
 15 17  1  0  0  0
 17 19  1  0  0  0
 19 20  2  0  0  0
 20 21  1  0  0  0
 21 22  2  0  0  0
 22 23  1  0  0  0
 22 24  1  0  0  0
 24 25  2  0  0  0
  4  5  1  0  0  0
  5  6  2  0  0  0
  6  7  1  0  0  0
 30 31  1  0  0  0
 31 32  2  0  0  0
 32 33  1  0  0  0
 33 34  2  0  0  0
 34 35  1  0  0  0
 35 36  2  0  0  0
 36 39  1  0  0  0
 39 40  1  0  0  0
 40 41  1  0  0  0
 41 42  1  0  0  0
 42 43  1  0  0  0
 43 44  1  0  0  0
 44 45  1  0  0  0
 45 46  1  0  0  0
 46 47  1  0  0  0
 47 48  1  0  0  0
 36 27  1  0  0  0
 48 43  1  0  0  0
 34 29  1  0  0  0
  6  1  1  0  0  0
 14 12  1  0  0  0
 25 19  1  0  0  0
  8 11  1  0  0  0
 17 18  1  0  0  0
M  END
> <minimizedAffinity>
-7.72782

> <CNNscore>
0.1972847134

> <CNNaffinity>
7.1001691818

> <CNN_VS>
1.4007548094

> <CNNaffinity_variance>
0.1331038028

$$$$
[H]c1c([H])c([H])c(N2C([H])([H])C([H])([H])N(c3nc4c(c([H])nn4-c4c([H])c([H])c(F)c([H])c4[H])c(=O)n3[H])C([H])([H])C2([H])[H])c(OC([H])([H])[H])c1[H]


 32 36  0  0  0  0  0  0  0  0999 V2000
   53.2697   -5.4059   -6.0541 C   0  0  0  0  0  0  0  0  0  0  0  0
   54.0460   -5.1118   -7.1360 N   0  0  0  0  0  0  0  0  0  0  0  0
   53.5434   -4.2449   -8.0385 C   0  0  0  0  0  0  0  0  0  0  0  0
   54.0484   -3.7500   -9.2094 N   0  0  0  0  0  0  0  0  0  0  0  0
   53.1723   -2.9207   -9.7492 N   0  0  0  0  0  0  0  0  0  0  0  0
   52.0921   -2.8385   -8.9830 C   0  0  0  0  0  0  0  0  0  0  0  0
   52.3008   -3.6645   -7.8988 C   0  0  0  0  0  0  0  0  0  0  0  0
   51.5337   -3.9839   -6.7857 C   0  0  0  0  0  0  0  0  0  0  0  0
   50.4051   -3.4422   -6.6823 O   0  0  0  0  0  0  0  0  0  0  0  0
   52.0560   -4.8480   -5.9044 N   0  0  0  0  0  0  0  0  0  0  0  0
   51.4600   -5.0808   -5.0650 H   0  0  0  0  0  0  0  0  0  0  0  0
   55.3026   -4.0529   -9.8023 C   0  0  0  0  0  0  0  0  0  0  0  0
   55.5461   -3.9790  -11.1561 C   0  0  0  0  0  0  0  0  0  0  0  0
   56.8042   -4.2903  -11.6783 C   0  0  0  0  0  0  0  0  0  0  0  0
   57.8190   -4.6768  -10.8332 C   0  0  0  0  0  0  0  0  0  0  0  0
   59.0502   -4.9846  -11.3136 F   0  0  0  0  0  0  0  0  0  0  0  0
   57.5925   -4.7561   -9.4724 C   0  0  0  0  0  0  0  0  0  0  0  0
   56.3249   -4.4415   -8.9587 C   0  0  0  0  0  0  0  0  0  0  0  0
   55.0067   -7.3846   -2.8827 N   0  0  0  0  0  0  0  0  0  0  0  0
   55.0363   -8.1001   -4.1279 C   0  0  0  0  0  0  0  0  0  0  0  0
   54.7730   -7.2242   -5.3389 C   0  0  0  0  0  0  0  0  0  0  0  0
   53.6956   -6.2936   -5.0461 N   0  0  0  0  0  0  0  0  0  0  0  0
   53.0515   -6.2670   -3.7596 C   0  0  0  0  0  0  0  0  0  0  0  0
   53.9240   -6.4755   -2.5906 C   0  0  0  0  0  0  0  0  0  0  0  0
   57.1861   -6.7556   -1.8814 C   0  0  0  0  0  0  0  0  0  0  0  0
   58.1913   -6.9613   -0.9555 C   0  0  0  0  0  0  0  0  0  0  0  0
   58.0883   -7.9897   -0.0285 C   0  0  0  0  0  0  0  0  0  0  0  0
   56.9910   -8.7928   -0.0378 C   0  0  0  0  0  0  0  0  0  0  0  0
   55.9949   -8.5764   -0.9677 C   0  0  0  0  0  0  0  0  0  0  0  0
   56.0661   -7.5653   -1.9020 C   0  0  0  0  0  0  0  0  0  0  0  0
   56.9086   -4.4139   -2.6319 C   0  0  0  0  0  0  0  0  0  0  0  0
   57.3141   -5.7343   -2.7790 O   0  0  0  0  0  0  0  0  0  0  0  0
 31 32  1  0  0  0
 32 25  1  0  0  0
 25 26  2  0  0  0
 26 27  1  0  0  0
 27 28  2  0  0  0
 28 29  1  0  0  0
 29 30  2  0  0  0
 30 19  1  0  0  0
 19 20  1  0  0  0
 20 21  1  0  0  0
 21 22  1  0  0  0
 22 23  1  0  0  0
 23 24  1  0  0  0
 22  1  1  0  0  0
  1  2  2  0  0  0
  2  3  1  0  0  0
  3  4  1  0  0  0
  4  5  1  0  0  0
  5  6  2  0  0  0
  6  7  1  0  0  0
  7  8  1  0  0  0
  8  9  2  0  0  0
  8 10  1  0  0  0
  4 12  1  0  0  0
 12 13  2  0  0  0
 13 14  1  0  0  0
 14 15  2  0  0  0
 15 16  1  0  0  0
 15 17  1  0  0  0
 17 18  2  0  0  0
 30 25  1  0  0  0
 24 19  1  0  0  0
 10  1  1  0  0  0
 18 12  1  0  0  0
  7  3  2  0  0  0
 10 11  1  0  0  0
M  END
> <minimizedAffinity>
-9.33669

> <CNNscore>
0.3479413092

> <CNNaffinity>
6.7747449875

> <CNN_VS>
2.3572137356

> <CNNaffinity_variance>
0.1938997954

$$$$
[H]c1c([H])c([H])c(N2C([H])([H])C([H])([H])N(c3nc4c(c([H])nn4-c4c([H])c([H])c(F)c([H])c4[H])c(=O)n3[H])C([H])([H])C2([H])[H])c(OC([H])([H])[H])c1[H]


 32 36  0  0  0  0  0  0  0  0999 V2000
   55.4438   -5.3061   -6.2565 C   0  0  0  0  0  0  0  0  0  0  0  0
   54.2144   -4.7462   -6.4430 N   0  0  0  0  0  0  0  0  0  0  0  0
   53.9520   -4.2248   -7.6587 C   0  0  0  0  0  0  0  0  0  0  0  0
   52.8452   -3.6010   -8.1656 N   0  0  0  0  0  0  0  0  0  0  0  0
   53.0702   -3.2618   -9.4231 N   0  0  0  0  0  0  0  0  0  0  0  0
   54.2916   -3.6352   -9.7831 C   0  0  0  0  0  0  0  0  0  0  0  0
   54.8683   -4.2437   -8.6884 C   0  0  0  0  0  0  0  0  0  0  0  0
   56.1121   -4.8214   -8.4677 C   0  0  0  0  0  0  0  0  0  0  0  0
   56.9292   -4.8252   -9.4218 O   0  0  0  0  0  0  0  0  0  0  0  0
   56.3476   -5.3317   -7.2510 N   0  0  0  0  0  0  0  0  0  0  0  0
   57.2976   -5.7660   -7.0996 H   0  0  0  0  0  0  0  0  0  0  0  0
   51.6268   -3.3259   -7.4903 C   0  0  0  0  0  0  0  0  0  0  0  0
   50.8453   -2.2201   -7.7432 C   0  0  0  0  0  0  0  0  0  0  0  0
   49.6548   -2.0061   -7.0436 C   0  0  0  0  0  0  0  0  0  0  0  0
   49.2516   -2.9093   -6.0870 C   0  0  0  0  0  0  0  0  0  0  0  0
   48.1001   -2.7258   -5.3930 F   0  0  0  0  0  0  0  0  0  0  0  0
   50.0233   -4.0242   -5.8207 C   0  0  0  0  0  0  0  0  0  0  0  0
   51.2173   -4.2293   -6.5290 C   0  0  0  0  0  0  0  0  0  0  0  0
   57.3134   -6.7742   -2.8891 N   0  0  0  0  0  0  0  0  0  0  0  0
   56.4651   -7.7156   -3.5656 C   0  0  0  0  0  0  0  0  0  0  0  0
   56.1158   -7.3086   -4.9852 C   0  0  0  0  0  0  0  0  0  0  0  0
   55.8243   -5.8854   -5.0297 N   0  0  0  0  0  0  0  0  0  0  0  0
   55.9053   -5.0623   -3.8521 C   0  0  0  0  0  0  0  0  0  0  0  0
   57.0078   -5.3637   -2.9220 C   0  0  0  0  0  0  0  0  0  0  0  0
   58.4398   -7.5503   -0.8210 C   0  0  0  0  0  0  0  0  0  0  0  0
   59.5759   -7.9571   -0.1475 C   0  0  0  0  0  0  0  0  0  0  0  0
   60.7896   -8.0490   -0.8155 C   0  0  0  0  0  0  0  0  0  0  0  0
   60.8522   -7.7364   -2.1374 C   0  0  0  0  0  0  0  0  0  0  0  0
   59.7103   -7.3315   -2.7977 C   0  0  0  0  0  0  0  0  0  0  0  0
   58.4902   -7.2289   -2.1644 C   0  0  0  0  0  0  0  0  0  0  0  0
   56.2710   -8.4419   -0.0304 C   0  0  0  0  0  0  0  0  0  0  0  0
   57.2597   -7.4723   -0.1381 O   0  0  0  0  0  0  0  0  0  0  0  0
 31 32  1  0  0  0
 32 25  1  0  0  0
 25 26  2  0  0  0
 26 27  1  0  0  0
 27 28  2  0  0  0
 28 29  1  0  0  0
 29 30  2  0  0  0
 30 19  1  0  0  0
 19 20  1  0  0  0
 20 21  1  0  0  0
 21 22  1  0  0  0
 22 23  1  0  0  0
 23 24  1  0  0  0
 22  1  1  0  0  0
  1  2  2  0  0  0
  2  3  1  0  0  0
  3  4  1  0  0  0
  4  5  1  0  0  0
  5  6  2  0  0  0
  6  7  1  0  0  0
  7  8  1  0  0  0
  8  9  2  0  0  0
  8 10  1  0  0  0
  4 12  1  0  0  0
 12 13  2  0  0  0
 13 14  1  0  0  0
 14 15  2  0  0  0
 15 16  1  0  0  0
 15 17  1  0  0  0
 17 18  2  0  0  0
 30 25  1  0  0  0
 24 19  1  0  0  0
 10  1  1  0  0  0
 18 12  1  0  0  0
  7  3  2  0  0  0
 10 11  1  0  0  0
M  END
> <minimizedAffinity>
-9.43471

> <CNNscore>
0.3207682669

> <CNNaffinity>
6.6981139183

> <CNN_VS>
2.1485424042

> <CNNaffinity_variance>
0.2225059718

$$$$
[H]c1c([H])c([H])c(N2C([H])([H])C([H])([H])N(c3nc4c(c([H])nn4-c4c([H])c([H])c(F)c([H])c4[H])c(=O)n3[H])C([H])([H])C2([H])[H])c(OC([H])([H])[H])c1[H]


 32 36  0  0  0  0  0  0  0  0999 V2000
   55.4545   -4.6512   -6.9252 C   0  0  0  0  0  0  0  0  0  0  0  0
   54.1506   -4.2551   -6.8744 N   0  0  0  0  0  0  0  0  0  0  0  0
   53.5877   -3.8366   -8.0262 C   0  0  0  0  0  0  0  0  0  0  0  0
   52.3313   -3.3799   -8.3158 N   0  0  0  0  0  0  0  0  0  0  0  0
   52.2573   -3.0855   -9.6022 N   0  0  0  0  0  0  0  0  0  0  0  0
   53.4211   -3.3276  -10.1917 C   0  0  0  0  0  0  0  0  0  0  0  0
   54.2768   -3.8010   -9.2196 C   0  0  0  0  0  0  0  0  0  0  0  0
   55.6038   -4.2112   -9.2393 C   0  0  0  0  0  0  0  0  0  0  0  0
   56.2094   -4.1685  -10.3390 O   0  0  0  0  0  0  0  0  0  0  0  0
   56.1393   -4.6219   -8.0814 N   0  0  0  0  0  0  0  0  0  0  0  0
   57.1486   -4.9292   -8.1135 H   0  0  0  0  0  0  0  0  0  0  0  0
   51.2454   -3.2175   -7.4154 C   0  0  0  0  0  0  0  0  0  0  0  0
   50.3505   -2.1721   -7.4774 C   0  0  0  0  0  0  0  0  0  0  0  0
   49.3011   -2.0689   -6.5606 C   0  0  0  0  0  0  0  0  0  0  0  0
   49.1538   -3.0221   -5.5793 C   0  0  0  0  0  0  0  0  0  0  0  0
   48.1437   -2.9461   -4.6764 F   0  0  0  0  0  0  0  0  0  0  0  0
   50.0422   -4.0777   -5.5025 C   0  0  0  0  0  0  0  0  0  0  0  0
   51.0928   -4.1715   -6.4283 C   0  0  0  0  0  0  0  0  0  0  0  0
   56.8239   -6.5039   -3.5072 N   0  0  0  0  0  0  0  0  0  0  0  0
   56.8024   -5.0688   -3.4469 C   0  0  0  0  0  0  0  0  0  0  0  0
   55.9398   -4.4280   -4.5185 C   0  0  0  0  0  0  0  0  0  0  0  0
   56.1419   -5.1121   -5.7849 N   0  0  0  0  0  0  0  0  0  0  0  0
   57.0322   -6.2369   -5.9001 C   0  0  0  0  0  0  0  0  0  0  0  0
   57.0436   -7.1768   -4.7654 C   0  0  0  0  0  0  0  0  0  0  0  0
   57.6819   -7.8729   -1.6263 C   0  0  0  0  0  0  0  0  0  0  0  0
   57.4656   -8.6419   -0.4986 C   0  0  0  0  0  0  0  0  0  0  0  0
   56.1752   -8.8462   -0.0285 C   0  0  0  0  0  0  0  0  0  0  0  0
   55.1259   -8.2838   -0.6855 C   0  0  0  0  0  0  0  0  0  0  0  0
   55.3559   -7.5184   -1.8102 C   0  0  0  0  0  0  0  0  0  0  0  0
   56.6238   -7.2964   -2.3037 C   0  0  0  0  0  0  0  0  0  0  0  0
   60.1428   -8.0134   -1.4078 C   0  0  0  0  0  0  0  0  0  0  0  0
   58.9624   -7.6872   -2.0632 O   0  0  0  0  0  0  0  0  0  0  0  0
 31 32  1  0  0  0
 32 25  1  0  0  0
 25 26  2  0  0  0
 26 27  1  0  0  0
 27 28  2  0  0  0
 28 29  1  0  0  0
 29 30  2  0  0  0
 30 19  1  0  0  0
 19 20  1  0  0  0
 20 21  1  0  0  0
 21 22  1  0  0  0
 22 23  1  0  0  0
 23 24  1  0  0  0
 22  1  1  0  0  0
  1  2  2  0  0  0
  2  3  1  0  0  0
  3  4  1  0  0  0
  4  5  1  0  0  0
  5  6  2  0  0  0
  6  7  1  0  0  0
  7  8  1  0  0  0
  8  9  2  0  0  0
  8 10  1  0  0  0
  4 12  1  0  0  0
 12 13  2  0  0  0
 13 14  1  0  0  0
 14 15  2  0  0  0
 15 16  1  0  0  0
 15 17  1  0  0  0
 17 18  2  0  0  0
 30 25  1  0  0  0
 24 19  1  0  0  0
 10  1  1  0  0  0
 18 12  1  0  0  0
  7  3  2  0  0  0
 10 11  1  0  0  0
M  END
> <minimizedAffinity>
-7.93603

> <CNNscore>
0.3177670836

> <CNNaffinity>
6.8647170067

> <CNN_VS>
2.1813809872

> <CNNaffinity_variance>
0.4544316828

$$$$
[H]c1c([H])c([H])c(N2C([H])([H])C([H])([H])N(c3nc4c(c([H])nn4-c4c([H])c([H])c(F)c([H])c4[H])c(=O)n3[H])C([H])([H])C2([H])[H])c(OC([H])([H])[H])c1[H]


 32 36  0  0  0  0  0  0  0  0999 V2000
   56.8104   -4.5392   -9.4034 C   0  0  0  0  0  0  0  0  0  0  0  0
   56.9999   -4.3017  -10.7328 N   0  0  0  0  0  0  0  0  0  0  0  0
   58.2185   -4.5764  -11.2409 C   0  0  0  0  0  0  0  0  0  0  0  0
   58.7309   -4.4532  -12.5032 N   0  0  0  0  0  0  0  0  0  0  0  0
   59.9904   -4.8539  -12.5064 N   0  0  0  0  0  0  0  0  0  0  0  0
   60.3467   -5.2434  -11.2890 C   0  0  0  0  0  0  0  0  0  0  0  0
   59.2477   -5.0774  -10.4728 C   0  0  0  0  0  0  0  0  0  0  0  0
   59.0237   -5.3089   -9.1217 C   0  0  0  0  0  0  0  0  0  0  0  0
   59.9779   -5.7650   -8.4438 O   0  0  0  0  0  0  0  0  0  0  0  0
   57.8045   -5.0273   -8.6418 N   0  0  0  0  0  0  0  0  0  0  0  0
   57.6512   -5.2080   -7.6132 H   0  0  0  0  0  0  0  0  0  0  0  0
   58.0644   -3.9684  -13.6595 C   0  0  0  0  0  0  0  0  0  0  0  0
   58.7033   -3.3272  -14.6979 C   0  0  0  0  0  0  0  0  0  0  0  0
   57.9898   -2.8733  -15.8102 C   0  0  0  0  0  0  0  0  0  0  0  0
   56.6290   -3.0666  -15.8755 C   0  0  0  0  0  0  0  0  0  0  0  0
   55.9118   -2.6360  -16.9440 F   0  0  0  0  0  0  0  0  0  0  0  0
   55.9719   -3.7081  -14.8430 C   0  0  0  0  0  0  0  0  0  0  0  0
   56.6983   -4.1597  -13.7303 C   0  0  0  0  0  0  0  0  0  0  0  0
   53.0835   -4.6284   -7.6449 N   0  0  0  0  0  0  0  0  0  0  0  0
   53.2372   -3.6449   -8.6805 C   0  0  0  0  0  0  0  0  0  0  0  0
   54.4393   -3.8863   -9.5748 C   0  0  0  0  0  0  0  0  0  0  0  0
   55.5770   -4.2945   -8.7676 N   0  0  0  0  0  0  0  0  0  0  0  0
   55.4737   -4.4427   -7.3399 C   0  0  0  0  0  0  0  0  0  0  0  0
   54.2138   -5.0158   -6.8346 C   0  0  0  0  0  0  0  0  0  0  0  0
   50.7343   -4.5386   -6.8565 C   0  0  0  0  0  0  0  0  0  0  0  0
   49.5213   -5.1533   -6.6106 C   0  0  0  0  0  0  0  0  0  0  0  0
   49.3456   -6.4979   -6.9086 C   0  0  0  0  0  0  0  0  0  0  0  0
   50.3756   -7.2055   -7.4448 C   0  0  0  0  0  0  0  0  0  0  0  0
   51.5815   -6.5795   -7.6851 C   0  0  0  0  0  0  0  0  0  0  0  0
   51.7895   -5.2468   -7.4003 C   0  0  0  0  0  0  0  0  0  0  0  0
   50.2194   -2.1337   -7.1305 C   0  0  0  0  0  0  0  0  0  0  0  0
   50.8764   -3.2141   -6.5556 O   0  0  0  0  0  0  0  0  0  0  0  0
 31 32  1  0  0  0
 32 25  1  0  0  0
 25 26  2  0  0  0
 26 27  1  0  0  0
 27 28  2  0  0  0
 28 29  1  0  0  0
 29 30  2  0  0  0
 30 19  1  0  0  0
 19 20  1  0  0  0
 20 21  1  0  0  0
 21 22  1  0  0  0
 22 23  1  0  0  0
 23 24  1  0  0  0
 22  1  1  0  0  0
  1  2  2  0  0  0
  2  3  1  0  0  0
  3  4  1  0  0  0
  4  5  1  0  0  0
  5  6  2  0  0  0
  6  7  1  0  0  0
  7  8  1  0  0  0
  8  9  2  0  0  0
  8 10  1  0  0  0
  4 12  1  0  0  0
 12 13  2  0  0  0
 13 14  1  0  0  0
 14 15  2  0  0  0
 15 16  1  0  0  0
 15 17  1  0  0  0
 17 18  2  0  0  0
 30 25  1  0  0  0
 24 19  1  0  0  0
 10  1  1  0  0  0
 18 12  1  0  0  0
  7  3  2  0  0  0
 10 11  1  0  0  0
M  END
> <minimizedAffinity>
-6.13954

> <CNNscore>
0.3156158328

> <CNNaffinity>
6.4728507996

> <CNN_VS>
2.0429341793

> <CNNaffinity_variance>
0.1197476983

$$$$
[H]c1c([H])c([H])c(N2C([H])([H])C([H])([H])N(c3nc4c(c([H])nn4-c4c([H])c([H])c(F)c([H])c4[H])c(=O)n3[H])C([H])([H])C2([H])[H])c(OC([H])([H])[H])c1[H]


 32 36  0  0  0  0  0  0  0  0999 V2000
   54.8234   -5.2282   -8.0283 C   0  0  0  0  0  0  0  0  0  0  0  0
   56.1055   -5.3565   -8.4747 N   0  0  0  0  0  0  0  0  0  0  0  0
   56.4315   -4.7055   -9.6099 C   0  0  0  0  0  0  0  0  0  0  0  0
   57.6013   -4.6278  -10.3146 N   0  0  0  0  0  0  0  0  0  0  0  0
   57.4241   -3.8594  -11.3753 N   0  0  0  0  0  0  0  0  0  0  0  0
   56.1742   -3.4153  -11.4113 C   0  0  0  0  0  0  0  0  0  0  0  0
   55.5277   -3.9351  -10.3099 C   0  0  0  0  0  0  0  0  0  0  0  0
   54.2291   -3.8237   -9.8297 C   0  0  0  0  0  0  0  0  0  0  0  0
   53.4250   -3.1165  -10.4863 O   0  0  0  0  0  0  0  0  0  0  0  0
   53.9310   -4.4807   -8.7002 N   0  0  0  0  0  0  0  0  0  0  0  0
   52.9400   -4.3863   -8.3495 H   0  0  0  0  0  0  0  0  0  0  0  0
   58.8351   -5.2598  -10.0075 C   0  0  0  0  0  0  0  0  0  0  0  0
   59.1780   -5.6955   -8.7465 C   0  0  0  0  0  0  0  0  0  0  0  0
   60.4095   -6.3114   -8.5089 C   0  0  0  0  0  0  0  0  0  0  0  0
   61.2971   -6.4884   -9.5453 C   0  0  0  0  0  0  0  0  0  0  0  0
   62.4997   -7.0835   -9.3424 F   0  0  0  0  0  0  0  0  0  0  0  0
   60.9695   -6.0577  -10.8167 C   0  0  0  0  0  0  0  0  0  0  0  0
   59.7300   -5.4400  -11.0442 C   0  0  0  0  0  0  0  0  0  0  0  0
   53.6595   -6.3471   -4.2357 N   0  0  0  0  0  0  0  0  0  0  0  0
   54.6185   -7.2201   -4.8534 C   0  0  0  0  0  0  0  0  0  0  0  0
   55.3279   -6.5998   -6.0429 C   0  0  0  0  0  0  0  0  0  0  0  0
   54.3738   -5.8590   -6.8513 N   0  0  0  0  0  0  0  0  0  0  0  0
   52.9859   -5.7656   -6.4827 C   0  0  0  0  0  0  0  0  0  0  0  0
   52.7027   -5.6284   -5.0432 C   0  0  0  0  0  0  0  0  0  0  0  0
   52.9339   -7.0282   -1.9646 C   0  0  0  0  0  0  0  0  0  0  0  0
   52.9109   -6.8310   -0.5970 C   0  0  0  0  0  0  0  0  0  0  0  0
   53.6018   -5.7674   -0.0322 C   0  0  0  0  0  0  0  0  0  0  0  0
   54.3018   -4.9214   -0.8344 C   0  0  0  0  0  0  0  0  0  0  0  0
   54.3162   -5.1298   -2.1983 C   0  0  0  0  0  0  0  0  0  0  0  0
   53.6407   -6.1750   -2.7911 C   0  0  0  0  0  0  0  0  0  0  0  0
   51.2080   -8.8008   -1.9104 C   0  0  0  0  0  0  0  0  0  0  0  0
   52.2469   -8.0847   -2.4910 O   0  0  0  0  0  0  0  0  0  0  0  0
 31 32  1  0  0  0
 32 25  1  0  0  0
 25 26  2  0  0  0
 26 27  1  0  0  0
 27 28  2  0  0  0
 28 29  1  0  0  0
 29 30  2  0  0  0
 30 19  1  0  0  0
 19 20  1  0  0  0
 20 21  1  0  0  0
 21 22  1  0  0  0
 22 23  1  0  0  0
 23 24  1  0  0  0
 22  1  1  0  0  0
  1  2  2  0  0  0
  2  3  1  0  0  0
  3  4  1  0  0  0
  4  5  1  0  0  0
  5  6  2  0  0  0
  6  7  1  0  0  0
  7  8  1  0  0  0
  8  9  2  0  0  0
  8 10  1  0  0  0
  4 12  1  0  0  0
 12 13  2  0  0  0
 13 14  1  0  0  0
 14 15  2  0  0  0
 15 16  1  0  0  0
 15 17  1  0  0  0
 17 18  2  0  0  0
 30 25  1  0  0  0
 24 19  1  0  0  0
 10  1  1  0  0  0
 18 12  1  0  0  0
  7  3  2  0  0  0
 10 11  1  0  0  0
M  END
> <minimizedAffinity>
-6.35822

> <CNNscore>
0.2691110671

> <CNNaffinity>
6.3772444725

> <CNN_VS>
1.7161871195

> <CNNaffinity_variance>
0.4158627391

$$$$
[H]c1c([H])c([H])c(N2C([H])([H])C([H])([H])N(c3nc4c(c([H])nn4-c4c([H])c([H])c(F)c([H])c4[H])c(=O)n3[H])C([H])([H])C2([H])[H])c(OC([H])([H])[H])c1[H]


 32 36  0  0  0  0  0  0  0  0999 V2000
   55.5464   -5.3677   -6.1243 C   0  0  0  0  0  0  0  0  0  0  0  0
   54.2856   -4.8673   -6.2652 N   0  0  0  0  0  0  0  0  0  0  0  0
   53.9482   -4.3767   -7.4752 C   0  0  0  0  0  0  0  0  0  0  0  0
   52.7934   -3.8118   -7.9422 N   0  0  0  0  0  0  0  0  0  0  0  0
   52.9491   -3.4816   -9.2125 N   0  0  0  0  0  0  0  0  0  0  0  0
   54.1702   -3.8041   -9.6197 C   0  0  0  0  0  0  0  0  0  0  0  0
   54.8202   -4.3691   -8.5429 C   0  0  0  0  0  0  0  0  0  0  0  0
   56.0976   -4.8860   -8.3682 C   0  0  0  0  0  0  0  0  0  0  0  0
   56.8729   -4.8667   -9.3563 O   0  0  0  0  0  0  0  0  0  0  0  0
   56.4076   -5.3668   -7.1562 N   0  0  0  0  0  0  0  0  0  0  0  0
   57.3823   -5.7548   -7.0400 H   0  0  0  0  0  0  0  0  0  0  0  0
   51.5931   -3.5827   -7.2190 C   0  0  0  0  0  0  0  0  0  0  0  0
   51.1428   -4.4005   -6.2061 C   0  0  0  0  0  0  0  0  0  0  0  0
   49.9517   -4.1199   -5.5315 C   0  0  0  0  0  0  0  0  0  0  0  0
   49.2133   -3.0120   -5.8790 C   0  0  0  0  0  0  0  0  0  0  0  0
   48.0532   -2.7162   -5.2403 F   0  0  0  0  0  0  0  0  0  0  0  0
   49.6503   -2.1806   -6.8926 C   0  0  0  0  0  0  0  0  0  0  0  0
   50.8479   -2.4720   -7.5637 C   0  0  0  0  0  0  0  0  0  0  0  0
   57.6152   -6.6619   -2.8024 N   0  0  0  0  0  0  0  0  0  0  0  0
   56.8403   -7.6758   -3.4619 C   0  0  0  0  0  0  0  0  0  0  0  0
   56.4242   -7.3016   -4.8726 C   0  0  0  0  0  0  0  0  0  0  0  0
   56.0048   -5.9105   -4.9075 N   0  0  0  0  0  0  0  0  0  0  0  0
   56.0375   -5.0837   -3.7301 C   0  0  0  0  0  0  0  0  0  0  0  0
   57.1831   -5.2847   -2.8254 C   0  0  0  0  0  0  0  0  0  0  0  0
   59.9811   -7.4039   -2.7844 C   0  0  0  0  0  0  0  0  0  0  0  0
   61.1298   -7.7520   -2.0995 C   0  0  0  0  0  0  0  0  0  0  0  0
   61.1569   -7.7089   -0.7121 C   0  0  0  0  0  0  0  0  0  0  0  0
   60.0451   -7.3210   -0.0319 C   0  0  0  0  0  0  0  0  0  0  0  0
   58.9048   -6.9763   -0.7282 C   0  0  0  0  0  0  0  0  0  0  0  0
   58.8440   -7.0089   -2.1050 C   0  0  0  0  0  0  0  0  0  0  0  0
   60.8365   -8.1785   -4.9735 C   0  0  0  0  0  0  0  0  0  0  0  0
   59.9855   -7.4535   -4.1492 O   0  0  0  0  0  0  0  0  0  0  0  0
 31 32  1  0  0  0
 32 25  1  0  0  0
 25 26  2  0  0  0
 26 27  1  0  0  0
 27 28  2  0  0  0
 28 29  1  0  0  0
 29 30  2  0  0  0
 30 19  1  0  0  0
 19 20  1  0  0  0
 20 21  1  0  0  0
 21 22  1  0  0  0
 22 23  1  0  0  0
 23 24  1  0  0  0
 22  1  1  0  0  0
  1  2  2  0  0  0
  2  3  1  0  0  0
  3  4  1  0  0  0
  4  5  1  0  0  0
  5  6  2  0  0  0
  6  7  1  0  0  0
  7  8  1  0  0  0
  8  9  2  0  0  0
  8 10  1  0  0  0
  4 12  1  0  0  0
 12 13  2  0  0  0
 13 14  1  0  0  0
 14 15  2  0  0  0
 15 16  1  0  0  0
 15 17  1  0  0  0
 17 18  2  0  0  0
 30 25  1  0  0  0
 24 19  1  0  0  0
 10  1  1  0  0  0
 18 12  1  0  0  0
  7  3  2  0  0  0
 10 11  1  0  0  0
M  END
> <minimizedAffinity>
-9.66870

> <CNNscore>
0.2686262727

> <CNNaffinity>
6.5198950768

> <CNN_VS>
1.7514151335

> <CNNaffinity_variance>
0.1708177924

$$$$
[H]c1c([H])c([H])c(N2C([H])([H])C([H])([H])N(c3nc4c(c([H])nn4-c4c([H])c([H])c(F)c([H])c4[H])c(=O)n3[H])C([H])([H])C2([H])[H])c(OC([H])([H])[H])c1[H]


 32 36  0  0  0  0  0  0  0  0999 V2000
   54.7411   -5.3279   -7.0579 C   0  0  0  0  0  0  0  0  0  0  0  0
   53.4977   -4.8816   -6.7194 N   0  0  0  0  0  0  0  0  0  0  0  0
   52.8903   -4.0374   -7.5780 C   0  0  0  0  0  0  0  0  0  0  0  0
   51.6723   -3.4161   -7.5403 N   0  0  0  0  0  0  0  0  0  0  0  0
   51.5243   -2.6749   -8.6246 N   0  0  0  0  0  0  0  0  0  0  0  0
   52.6011   -2.7741   -9.3936 C   0  0  0  0  0  0  0  0  0  0  0  0
   53.4773   -3.6265   -8.7557 C   0  0  0  0  0  0  0  0  0  0  0  0
   54.7446   -4.0986   -9.0728 C   0  0  0  0  0  0  0  0  0  0  0  0
   55.2575   -3.7086  -10.1511 O   0  0  0  0  0  0  0  0  0  0  0  0
   55.3261   -4.9358   -8.2027 N   0  0  0  0  0  0  0  0  0  0  0  0
   56.2891   -5.2844   -8.4582 H   0  0  0  0  0  0  0  0  0  0  0  0
   50.6898   -3.5085   -6.5194 C   0  0  0  0  0  0  0  0  0  0  0  0
   49.6918   -2.5777   -6.3322 C   0  0  0  0  0  0  0  0  0  0  0  0
   48.7533   -2.7261   -5.3076 C   0  0  0  0  0  0  0  0  0  0  0  0
   48.8214   -3.8158   -4.4702 C   0  0  0  0  0  0  0  0  0  0  0  0
   47.9229   -3.9845   -3.4673 F   0  0  0  0  0  0  0  0  0  0  0  0
   49.8159   -4.7594   -4.6437 C   0  0  0  0  0  0  0  0  0  0  0  0
   50.7535   -4.6003   -5.6757 C   0  0  0  0  0  0  0  0  0  0  0  0
   56.4871   -7.5369   -4.0477 N   0  0  0  0  0  0  0  0  0  0  0  0
   57.4099   -6.9696   -4.9911 C   0  0  0  0  0  0  0  0  0  0  0  0
   56.8131   -5.8551   -5.8306 C   0  0  0  0  0  0  0  0  0  0  0  0
   55.4660   -6.2166   -6.2395 N   0  0  0  0  0  0  0  0  0  0  0  0
   54.8646   -7.4606   -5.8372 C   0  0  0  0  0  0  0  0  0  0  0  0
   55.1566   -7.9108   -4.4648 C   0  0  0  0  0  0  0  0  0  0  0  0
   56.7291   -6.7511   -1.7084 C   0  0  0  0  0  0  0  0  0  0  0  0
   57.1318   -6.9588   -0.4028 C   0  0  0  0  0  0  0  0  0  0  0  0
   57.6961   -8.1711   -0.0296 C   0  0  0  0  0  0  0  0  0  0  0  0
   57.8493   -9.1530   -0.9579 C   0  0  0  0  0  0  0  0  0  0  0  0
   57.4430   -8.9323   -2.2579 C   0  0  0  0  0  0  0  0  0  0  0  0
   56.8800   -7.7405   -2.6617 C   0  0  0  0  0  0  0  0  0  0  0  0
   54.8268   -5.2192   -2.1066 C   0  0  0  0  0  0  0  0  0  0  0  0
   56.1747   -5.5493   -2.0451 O   0  0  0  0  0  0  0  0  0  0  0  0
 31 32  1  0  0  0
 32 25  1  0  0  0
 25 26  2  0  0  0
 26 27  1  0  0  0
 27 28  2  0  0  0
 28 29  1  0  0  0
 29 30  2  0  0  0
 30 19  1  0  0  0
 19 20  1  0  0  0
 20 21  1  0  0  0
 21 22  1  0  0  0
 22 23  1  0  0  0
 23 24  1  0  0  0
 22  1  1  0  0  0
  1  2  2  0  0  0
  2  3  1  0  0  0
  3  4  1  0  0  0
  4  5  1  0  0  0
  5  6  2  0  0  0
  6  7  1  0  0  0
  7  8  1  0  0  0
  8  9  2  0  0  0
  8 10  1  0  0  0
  4 12  1  0  0  0
 12 13  2  0  0  0
 13 14  1  0  0  0
 14 15  2  0  0  0
 15 16  1  0  0  0
 15 17  1  0  0  0
 17 18  2  0  0  0
 30 25  1  0  0  0
 24 19  1  0  0  0
 10  1  1  0  0  0
 18 12  1  0  0  0
  7  3  2  0  0  0
 10 11  1  0  0  0
M  END
> <minimizedAffinity>
-9.49270

> <CNNscore>
0.2605051100

> <CNNaffinity>
6.8145346642

> <CNN_VS>
1.7752211094

> <CNNaffinity_variance>
0.3771980405

$$$$
[H]c1c([H])c([H])c(N2C([H])([H])C([H])([H])N(c3nc4c(c([H])nn4-c4c([H])c([H])c(F)c([H])c4[H])c(=O)n3[H])C([H])([H])C2([H])[H])c(OC([H])([H])[H])c1[H]


 32 36  0  0  0  0  0  0  0  0999 V2000
   54.7527   -5.5779   -7.1285 C   0  0  0  0  0  0  0  0  0  0  0  0
   55.2441   -5.1273   -8.3181 N   0  0  0  0  0  0  0  0  0  0  0  0
   54.4628   -4.2905   -9.0310 C   0  0  0  0  0  0  0  0  0  0  0  0
   54.6481   -3.6730  -10.2373 N   0  0  0  0  0  0  0  0  0  0  0  0
   53.5848   -2.9421  -10.5238 N   0  0  0  0  0  0  0  0  0  0  0  0
   52.6871   -3.0449   -9.5521 C   0  0  0  0  0  0  0  0  0  0  0  0
   53.2163   -3.8899   -8.5996 C   0  0  0  0  0  0  0  0  0  0  0  0
   52.7435   -4.3660   -7.3833 C   0  0  0  0  0  0  0  0  0  0  0  0
   51.6046   -3.9865   -7.0134 O   0  0  0  0  0  0  0  0  0  0  0  0
   53.5391   -5.1962   -6.6950 N   0  0  0  0  0  0  0  0  0  0  0  0
   53.1645   -5.5495   -5.7736 H   0  0  0  0  0  0  0  0  0  0  0  0
   55.7775   -3.7742  -11.0920 C   0  0  0  0  0  0  0  0  0  0  0  0
   57.0280   -4.1621  -10.6638 C   0  0  0  0  0  0  0  0  0  0  0  0
   58.1004   -4.2424  -11.5560 C   0  0  0  0  0  0  0  0  0  0  0  0
   57.9112   -3.9310  -12.8829 C   0  0  0  0  0  0  0  0  0  0  0  0
   58.9351   -4.0006  -13.7706 F   0  0  0  0  0  0  0  0  0  0  0  0
   56.6633   -3.5403  -13.3297 C   0  0  0  0  0  0  0  0  0  0  0  0
   55.5932   -3.4628  -12.4250 C   0  0  0  0  0  0  0  0  0  0  0  0
   56.4008   -7.8491   -4.1092 N   0  0  0  0  0  0  0  0  0  0  0  0
   57.3478   -7.0885   -4.8761 C   0  0  0  0  0  0  0  0  0  0  0  0
   56.7160   -5.9754   -5.6914 C   0  0  0  0  0  0  0  0  0  0  0  0
   55.4842   -6.4509   -6.2989 N   0  0  0  0  0  0  0  0  0  0  0  0
   55.0043   -7.7899   -6.0808 C   0  0  0  0  0  0  0  0  0  0  0  0
   55.1879   -8.3341   -4.7238 C   0  0  0  0  0  0  0  0  0  0  0  0
   55.9282   -7.5309   -1.6960 C   0  0  0  0  0  0  0  0  0  0  0  0
   56.1993   -7.8037   -0.3686 C   0  0  0  0  0  0  0  0  0  0  0  0
   57.2061   -8.6977   -0.0300 C   0  0  0  0  0  0  0  0  0  0  0  0
   57.9233   -9.3033   -1.0139 C   0  0  0  0  0  0  0  0  0  0  0  0
   57.6424   -9.0217   -2.3351 C   0  0  0  0  0  0  0  0  0  0  0  0
   56.6505   -8.1390   -2.7055 C   0  0  0  0  0  0  0  0  0  0  0  0
   54.3948   -5.6563   -1.1879 C   0  0  0  0  0  0  0  0  0  0  0  0
   54.9300   -6.6492   -1.9984 O   0  0  0  0  0  0  0  0  0  0  0  0
 31 32  1  0  0  0
 32 25  1  0  0  0
 25 26  2  0  0  0
 26 27  1  0  0  0
 27 28  2  0  0  0
 28 29  1  0  0  0
 29 30  2  0  0  0
 30 19  1  0  0  0
 19 20  1  0  0  0
 20 21  1  0  0  0
 21 22  1  0  0  0
 22 23  1  0  0  0
 23 24  1  0  0  0
 22  1  1  0  0  0
  1  2  2  0  0  0
  2  3  1  0  0  0
  3  4  1  0  0  0
  4  5  1  0  0  0
  5  6  2  0  0  0
  6  7  1  0  0  0
  7  8  1  0  0  0
  8  9  2  0  0  0
  8 10  1  0  0  0
  4 12  1  0  0  0
 12 13  2  0  0  0
 13 14  1  0  0  0
 14 15  2  0  0  0
 15 16  1  0  0  0
 15 17  1  0  0  0
 17 18  2  0  0  0
 30 25  1  0  0  0
 24 19  1  0  0  0
 10  1  1  0  0  0
 18 12  1  0  0  0
  7  3  2  0  0  0
 10 11  1  0  0  0
M  END
> <minimizedAffinity>
-6.16315

> <CNNscore>
0.2501681149

> <CNNaffinity>
6.1927046776

> <CNN_VS>
1.5492172241

> <CNNaffinity_variance>
0.2679171264

$$$$
[H]c1c([H])c([H])c(N2C([H])([H])C([H])([H])N(c3nc4c(c([H])nn4-c4c([H])c([H])c(F)c([H])c4[H])c(=O)n3[H])C([H])([H])C2([H])[H])c(OC([H])([H])[H])c1[H]


 32 36  0  0  0  0  0  0  0  0999 V2000
   54.2139   -5.2829   -6.1477 C   0  0  0  0  0  0  0  0  0  0  0  0
   54.8714   -5.0203   -7.3132 N   0  0  0  0  0  0  0  0  0  0  0  0
   54.1768   -4.3959   -8.2861 C   0  0  0  0  0  0  0  0  0  0  0  0
   54.5271   -3.9981   -9.5471 N   0  0  0  0  0  0  0  0  0  0  0  0
   53.4897   -3.4220  -10.1292 N   0  0  0  0  0  0  0  0  0  0  0  0
   52.4502   -3.4172   -9.3045 C   0  0  0  0  0  0  0  0  0  0  0  0
   52.8573   -4.0262   -8.1363 C   0  0  0  0  0  0  0  0  0  0  0  0
   52.2150   -4.3072   -6.9371 C   0  0  0  0  0  0  0  0  0  0  0  0
   51.0127   -3.9606   -6.8263 O   0  0  0  0  0  0  0  0  0  0  0  0
   52.9273   -4.9285   -5.9871 N   0  0  0  0  0  0  0  0  0  0  0  0
   52.4243   -5.1356   -5.0826 H   0  0  0  0  0  0  0  0  0  0  0  0
   55.7859   -4.1621  -10.1832 C   0  0  0  0  0  0  0  0  0  0  0  0
   56.8759   -4.7509   -9.5810 C   0  0  0  0  0  0  0  0  0  0  0  0
   58.0890   -4.8832  -10.2618 C   0  0  0  0  0  0  0  0  0  0  0  0
   58.2029   -4.4207  -11.5527 C   0  0  0  0  0  0  0  0  0  0  0  0
   59.3691   -4.5365  -12.2368 F   0  0  0  0  0  0  0  0  0  0  0  0
   57.1195   -3.8276  -12.1723 C   0  0  0  0  0  0  0  0  0  0  0  0
   55.9059   -3.6996  -11.4792 C   0  0  0  0  0  0  0  0  0  0  0  0
   56.3912   -6.4276   -2.8403 N   0  0  0  0  0  0  0  0  0  0  0  0
   56.5685   -7.2619   -3.9962 C   0  0  0  0  0  0  0  0  0  0  0  0
   56.0992   -6.6186   -5.2881 C   0  0  0  0  0  0  0  0  0  0  0  0
   54.8419   -5.9253   -5.0622 N   0  0  0  0  0  0  0  0  0  0  0  0
   54.2233   -5.8903   -3.7634 C   0  0  0  0  0  0  0  0  0  0  0  0
   55.1336   -5.7565   -2.6124 C   0  0  0  0  0  0  0  0  0  0  0  0
   58.1035   -7.3222   -1.2859 C   0  0  0  0  0  0  0  0  0  0  0  0
   59.1147   -7.1263   -0.3645 C   0  0  0  0  0  0  0  0  0  0  0  0
   59.5151   -5.8400   -0.0288 C   0  0  0  0  0  0  0  0  0  0  0  0
   58.9055   -4.7743   -0.6134 C   0  0  0  0  0  0  0  0  0  0  0  0
   57.8971   -4.9841   -1.5315 C   0  0  0  0  0  0  0  0  0  0  0  0
   57.4751   -6.2475   -1.8866 C   0  0  0  0  0  0  0  0  0  0  0  0
   58.1936   -9.7824   -1.0352 C   0  0  0  0  0  0  0  0  0  0  0  0
   57.7331   -8.5990   -1.5982 O   0  0  0  0  0  0  0  0  0  0  0  0
 31 32  1  0  0  0
 32 25  1  0  0  0
 25 26  2  0  0  0
 26 27  1  0  0  0
 27 28  2  0  0  0
 28 29  1  0  0  0
 29 30  2  0  0  0
 30 19  1  0  0  0
 19 20  1  0  0  0
 20 21  1  0  0  0
 21 22  1  0  0  0
 22 23  1  0  0  0
 23 24  1  0  0  0
 22  1  1  0  0  0
  1  2  2  0  0  0
  2  3  1  0  0  0
  3  4  1  0  0  0
  4  5  1  0  0  0
  5  6  2  0  0  0
  6  7  1  0  0  0
  7  8  1  0  0  0
  8  9  2  0  0  0
  8 10  1  0  0  0
  4 12  1  0  0  0
 12 13  2  0  0  0
 13 14  1  0  0  0
 14 15  2  0  0  0
 15 16  1  0  0  0
 15 17  1  0  0  0
 17 18  2  0  0  0
 30 25  1  0  0  0
 24 19  1  0  0  0
 10  1  1  0  0  0
 18 12  1  0  0  0
  7  3  2  0  0  0
 10 11  1  0  0  0
M  END
> <minimizedAffinity>
-8.75272

> <CNNscore>
0.2381509542

> <CNNaffinity>
6.4959859848

> <CNN_VS>
1.5470252037

> <CNNaffinity_variance>
0.2307429612

$$$$
[H]c1c([H])c([H])c2c(c1[H])c1c3c(c4c5c([H])c([H])c([H])c([H])c5n5c4c1n2[C@]1([H])O[C@]5(C([H])([H])[H])[C@]([H])(OC([H])([H])[H])[C@]([H])(N([H])C([H])([H])[H])C1([H])[H])C([H])([H])N([H])C3=O


 37 44  0  0  0  0  0  0  0  0999 V2000
   55.8943   -7.9932   -3.4135 C   0  0  0  0  0  0  0  0  0  0  0  0
   56.6377   -7.2618   -4.5806 C   0  0  0  0  0  0  0  0  0  0  0  0
   55.6424   -6.4296   -5.0428 C   0  0  0  0  0  0  0  0  0  0  0  0
   55.2911   -5.6519   -3.9490 O   0  0  0  0  0  0  0  0  0  0  0  0
   54.0795   -6.2170   -3.4384 C   0  0  0  0  0  0  0  0  0  0  0  0
   54.0350   -5.5632   -2.0357 C   0  0  0  0  0  0  0  0  0  0  0  0
   54.3854   -7.6327   -3.3760 C   0  0  0  0  0  0  0  0  0  0  0  0
   53.0368   -5.6619   -4.2708 N   0  0  0  0  0  0  0  0  0  0  0  0
   51.7525   -5.4234   -3.8992 C   0  0  0  0  0  0  0  0  0  0  0  0
   51.0503   -5.7381   -2.7792 C   0  0  0  0  0  0  0  0  0  0  0  0
   49.6961   -5.3847   -2.6270 C   0  0  0  0  0  0  0  0  0  0  0  0
   49.0527   -4.7008   -3.6355 C   0  0  0  0  0  0  0  0  0  0  0  0
   49.7412   -4.3645   -4.7941 C   0  0  0  0  0  0  0  0  0  0  0  0
   51.0654   -4.7380   -4.8844 C   0  0  0  0  0  0  0  0  0  0  0  0
   51.9430   -4.5483   -5.9007 C   0  0  0  0  0  0  0  0  0  0  0  0
   51.9198   -3.9237   -7.1483 C   0  0  0  0  0  0  0  0  0  0  0  0
   50.7625   -3.2362   -7.7770 C   0  0  0  0  0  0  0  0  0  0  0  0
   51.2697   -2.7756   -9.0467 N   0  0  0  0  0  0  0  0  0  0  0  0
   52.6568   -3.1510   -9.1975 C   0  0  0  0  0  0  0  0  0  0  0  0
   53.2811   -2.8447  -10.2283 O   0  0  0  0  0  0  0  0  0  0  0  0
   53.0132   -3.8625   -7.9904 C   0  0  0  0  0  0  0  0  0  0  0  0
   54.2068   -4.4482   -7.6011 C   0  0  0  0  0  0  0  0  0  0  0  0
   55.4360   -4.6344   -8.1661 C   0  0  0  0  0  0  0  0  0  0  0  0
   56.0097   -4.2640   -9.3373 C   0  0  0  0  0  0  0  0  0  0  0  0
   57.3327   -4.6472   -9.5873 C   0  0  0  0  0  0  0  0  0  0  0  0
   58.0440   -5.3843   -8.6691 C   0  0  0  0  0  0  0  0  0  0  0  0
   57.4663   -5.7654   -7.4731 C   0  0  0  0  0  0  0  0  0  0  0  0
   56.1525   -5.3748   -7.2452 C   0  0  0  0  0  0  0  0  0  0  0  0
   55.4265   -5.6344   -6.1757 N   0  0  0  0  0  0  0  0  0  0  0  0
   54.2107   -5.0578   -6.3717 C   0  0  0  0  0  0  0  0  0  0  0  0
   53.0984   -5.1083   -5.5162 C   0  0  0  0  0  0  0  0  0  0  0  0
   50.6932   -2.2523   -9.7305 H   0  0  0  0  0  0  0  0  0  0  0  0
   57.5493   -8.7175   -1.9100 C   0  0  0  0  0  0  0  0  0  0  0  0
   56.5152   -7.7581   -2.1592 N   0  0  0  0  0  0  0  0  0  0  0  0
   55.8652   -7.6321   -1.3874 H   0  0  0  0  0  0  0  0  0  0  0  0
   54.0525   -8.0726   -2.0575 O   0  0  0  0  0  0  0  0  0  0  0  0
   52.8612   -8.7543   -2.0184 C   0  0  0  0  0  0  0  0  0  0  0  0
 33 34  1  0  0  0
 34  1  1  0  0  0
  1  2  1  0  0  0
  2  3  1  0  0  0
  3  4  1  0  0  0
  4  5  1  0  0  0
  5  6  1  0  0  0
  5  7  1  0  0  0
  7 36  1  0  0  0
 36 37  1  0  0  0
  5  8  1  0  0  0
  8  9  1  0  0  0
  9 10  2  0  0  0
 10 11  1  0  0  0
 11 12  2  0  0  0
 12 13  1  0  0  0
 13 14  2  0  0  0
 14 15  1  0  0  0
 15 16  2  0  0  0
 16 17  1  0  0  0
 17 18  1  0  0  0
 18 19  1  0  0  0
 19 20  2  0  0  0
 19 21  1  0  0  0
 21 22  2  0  0  0
 22 23  1  0  0  0
 23 24  2  0  0  0
 24 25  1  0  0  0
 25 26  2  0  0  0
 26 27  1  0  0  0
 27 28  2  0  0  0
 28 29  1  0  0  0
 29 30  1  0  0  0
 30 31  2  0  0  0
  7  1  1  0  0  0
 31  8  1  0  0  0
 29  3  1  0  0  0
 14  9  1  0  0  0
 31 15  1  0  0  0
 21 16  1  0  0  0
 30 22  1  0  0  0
 28 23  1  0  0  0
 34 35  1  0  0  0
 18 32  1  0  0  0
M  END
> <minimizedAffinity>
-11.56815

> <CNNscore>
0.6598696113

> <CNNaffinity>
7.2531080246

> <CNN_VS>
4.7861056328

> <CNNaffinity_variance>
0.0974261388

$$$$
[H]c1c([H])c([H])c2c(c1[H])c1c3c(c4c5c([H])c([H])c([H])c([H])c5n5c4c1n2[C@]1([H])O[C@]5(C([H])([H])[H])[C@]([H])(OC([H])([H])[H])[C@]([H])(N([H])C([H])([H])[H])C1([H])[H])C([H])([H])N([H])C3=O


 37 44  0  0  0  0  0  0  0  0999 V2000
   54.9494   -6.7371   -2.0613 C   0  0  0  0  0  0  0  0  0  0  0  0
   53.3975   -6.5593   -2.1615 C   0  0  0  0  0  0  0  0  0  0  0  0
   53.2713   -6.0915   -3.4507 C   0  0  0  0  0  0  0  0  0  0  0  0
   53.8338   -7.0797   -4.2455 O   0  0  0  0  0  0  0  0  0  0  0  0
   55.1407   -6.6096   -4.5903 C   0  0  0  0  0  0  0  0  0  0  0  0
   55.7900   -7.9253   -5.0848 C   0  0  0  0  0  0  0  0  0  0  0  0
   55.6754   -6.1782   -3.3137 C   0  0  0  0  0  0  0  0  0  0  0  0
   54.9268   -5.7188   -5.7079 N   0  0  0  0  0  0  0  0  0  0  0  0
   55.8031   -5.4662   -6.7143 C   0  0  0  0  0  0  0  0  0  0  0  0
   57.1026   -5.8146   -6.9053 C   0  0  0  0  0  0  0  0  0  0  0  0
   57.8189   -5.4147   -8.0495 C   0  0  0  0  0  0  0  0  0  0  0  0
   57.1962   -4.6475   -9.0097 C   0  0  0  0  0  0  0  0  0  0  0  0
   55.8688   -4.2731   -8.8450 C   0  0  0  0  0  0  0  0  0  0  0  0
   55.2205   -4.6954   -7.7037 C   0  0  0  0  0  0  0  0  0  0  0  0
   53.9477   -4.4558   -7.3014 C   0  0  0  0  0  0  0  0  0  0  0  0
   52.8358   -3.7908   -7.8196 C   0  0  0  0  0  0  0  0  0  0  0  0
   52.7610   -3.0540   -9.1077 C   0  0  0  0  0  0  0  0  0  0  0  0
   51.4055   -2.5624   -9.1575 N   0  0  0  0  0  0  0  0  0  0  0  0
   50.6816   -2.9697   -7.9753 C   0  0  0  0  0  0  0  0  0  0  0  0
   49.4903   -2.6457   -7.8264 O   0  0  0  0  0  0  0  0  0  0  0  0
   51.6151   -3.7308   -7.1757 C   0  0  0  0  0  0  0  0  0  0  0  0
   51.4615   -4.3521   -5.9470 C   0  0  0  0  0  0  0  0  0  0  0  0
   50.4638   -4.4562   -5.0204 C   0  0  0  0  0  0  0  0  0  0  0  0
   49.1781   -4.0308   -4.9564 C   0  0  0  0  0  0  0  0  0  0  0  0
   48.4288   -4.3290   -3.8121 C   0  0  0  0  0  0  0  0  0  0  0  0
   48.9774   -5.0388   -2.7692 C   0  0  0  0  0  0  0  0  0  0  0  0
   50.2869   -5.4759   -2.8272 C   0  0  0  0  0  0  0  0  0  0  0  0
   51.0127   -5.1692   -3.9716 C   0  0  0  0  0  0  0  0  0  0  0  0
   52.2663   -5.4925   -4.2212 N   0  0  0  0  0  0  0  0  0  0  0  0
   52.5654   -5.0005   -5.4531 C   0  0  0  0  0  0  0  0  0  0  0  0
   53.8009   -5.0658   -6.1171 C   0  0  0  0  0  0  0  0  0  0  0  0
   51.0361   -1.9992   -9.9450 H   0  0  0  0  0  0  0  0  0  0  0  0
   55.5768   -8.2943   -0.4164 C   0  0  0  0  0  0  0  0  0  0  0  0
   55.3136   -8.0853   -1.8089 N   0  0  0  0  0  0  0  0  0  0  0  0
   56.0319   -8.4483   -2.4305 H   0  0  0  0  0  0  0  0  0  0  0  0
   56.9527   -6.8019   -3.1654 O   0  0  0  0  0  0  0  0  0  0  0  0
   57.8645   -5.9858   -2.5423 C   0  0  0  0  0  0  0  0  0  0  0  0
 33 34  1  0  0  0
 34  1  1  0  0  0
  1  2  1  0  0  0
  2  3  1  0  0  0
  3  4  1  0  0  0
  4  5  1  0  0  0
  5  6  1  0  0  0
  5  7  1  0  0  0
  7 36  1  0  0  0
 36 37  1  0  0  0
  5  8  1  0  0  0
  8  9  1  0  0  0
  9 10  2  0  0  0
 10 11  1  0  0  0
 11 12  2  0  0  0
 12 13  1  0  0  0
 13 14  2  0  0  0
 14 15  1  0  0  0
 15 16  2  0  0  0
 16 17  1  0  0  0
 17 18  1  0  0  0
 18 19  1  0  0  0
 19 20  2  0  0  0
 19 21  1  0  0  0
 21 22  2  0  0  0
 22 23  1  0  0  0
 23 24  2  0  0  0
 24 25  1  0  0  0
 25 26  2  0  0  0
 26 27  1  0  0  0
 27 28  2  0  0  0
 28 29  1  0  0  0
 29 30  1  0  0  0
 30 31  2  0  0  0
  7  1  1  0  0  0
 31  8  1  0  0  0
 29  3  1  0  0  0
 14  9  1  0  0  0
 31 15  1  0  0  0
 21 16  1  0  0  0
 30 22  1  0  0  0
 28 23  1  0  0  0
 34 35  1  0  0  0
 18 32  1  0  0  0
M  END
> <minimizedAffinity>
-9.88562

> <CNNscore>
0.3878715038

> <CNNaffinity>
6.8828444481

> <CNN_VS>
2.6696591377

> <CNNaffinity_variance>
0.0936618894

$$$$
[H]c1c([H])c([H])c2c(c1[H])c1c3c(c4c5c([H])c([H])c([H])c([H])c5n5c4c1n2[C@]1([H])O[C@]5(C([H])([H])[H])[C@]([H])(OC([H])([H])[H])[C@]([H])(N([H])C([H])([H])[H])C1([H])[H])C([H])([H])N([H])C3=O


 37 44  0  0  0  0  0  0  0  0999 V2000
   52.9041   -6.1028   -5.7984 C   0  0  0  0  0  0  0  0  0  0  0  0
   54.0252   -6.4022   -4.7480 C   0  0  0  0  0  0  0  0  0  0  0  0
   55.1556   -6.1803   -5.5027 C   0  0  0  0  0  0  0  0  0  0  0  0
   55.0452   -4.8660   -5.9328 O   0  0  0  0  0  0  0  0  0  0  0  0
   54.5946   -4.9333   -7.2894 C   0  0  0  0  0  0  0  0  0  0  0  0
   54.1162   -3.4757   -7.4981 C   0  0  0  0  0  0  0  0  0  0  0  0
   53.4903   -5.8697   -7.2161 C   0  0  0  0  0  0  0  0  0  0  0  0
   55.7924   -5.1711   -8.0621 N   0  0  0  0  0  0  0  0  0  0  0  0
   56.0145   -4.7778   -9.3429 C   0  0  0  0  0  0  0  0  0  0  0  0
   55.2066   -4.2195  -10.2820 C   0  0  0  0  0  0  0  0  0  0  0  0
   55.6736   -3.9046  -11.5723 C   0  0  0  0  0  0  0  0  0  0  0  0
   56.9849   -4.1660  -11.9050 C   0  0  0  0  0  0  0  0  0  0  0  0
   57.8373   -4.7372  -10.9687 C   0  0  0  0  0  0  0  0  0  0  0  0
   57.3217   -5.0227   -9.7222 C   0  0  0  0  0  0  0  0  0  0  0  0
   57.9305   -5.5892   -8.6510 C   0  0  0  0  0  0  0  0  0  0  0  0
   59.2139   -6.0439   -8.3457 C   0  0  0  0  0  0  0  0  0  0  0  0
   60.3941   -6.0471   -9.2481 C   0  0  0  0  0  0  0  0  0  0  0  0
   61.4514   -6.6162   -8.4482 N   0  0  0  0  0  0  0  0  0  0  0  0
   60.9602   -6.9445   -7.1297 C   0  0  0  0  0  0  0  0  0  0  0  0
   61.7207   -7.4474   -6.2842 O   0  0  0  0  0  0  0  0  0  0  0  0
   59.5641   -6.5693   -7.1169 C   0  0  0  0  0  0  0  0  0  0  0  0
   58.6078   -6.6648   -6.1191 C   0  0  0  0  0  0  0  0  0  0  0  0
   58.5657   -7.1612   -4.8476 C   0  0  0  0  0  0  0  0  0  0  0  0
   59.4778   -7.7211   -4.0153 C   0  0  0  0  0  0  0  0  0  0  0  0
   59.0634   -8.1275   -2.7414 C   0  0  0  0  0  0  0  0  0  0  0  0
   57.7595   -7.9659   -2.3338 C   0  0  0  0  0  0  0  0  0  0  0  0
   56.8242   -7.3959   -3.1763 C   0  0  0  0  0  0  0  0  0  0  0  0
   57.2565   -6.9998   -4.4359 C   0  0  0  0  0  0  0  0  0  0  0  0
   56.5268   -6.4396   -5.3804 N   0  0  0  0  0  0  0  0  0  0  0  0
   57.3518   -6.2132   -6.4375 C   0  0  0  0  0  0  0  0  0  0  0  0
   57.0045   -5.6713   -7.6855 C   0  0  0  0  0  0  0  0  0  0  0  0
   62.4157   -6.7560   -8.8010 H   0  0  0  0  0  0  0  0  0  0  0  0
   51.0591   -5.4674   -4.4881 C   0  0  0  0  0  0  0  0  0  0  0  0
   52.0745   -5.0239   -5.3960 N   0  0  0  0  0  0  0  0  0  0  0  0
   51.7304   -4.4518   -6.1630 H   0  0  0  0  0  0  0  0  0  0  0  0
   52.3730   -5.2459   -7.8527 O   0  0  0  0  0  0  0  0  0  0  0  0
   51.3461   -6.1266   -8.0884 C   0  0  0  0  0  0  0  0  0  0  0  0
 33 34  1  0  0  0
 34  1  1  0  0  0
  1  2  1  0  0  0
  2  3  1  0  0  0
  3  4  1  0  0  0
  4  5  1  0  0  0
  5  6  1  0  0  0
  5  7  1  0  0  0
  7 36  1  0  0  0
 36 37  1  0  0  0
  5  8  1  0  0  0
  8  9  1  0  0  0
  9 10  2  0  0  0
 10 11  1  0  0  0
 11 12  2  0  0  0
 12 13  1  0  0  0
 13 14  2  0  0  0
 14 15  1  0  0  0
 15 16  2  0  0  0
 16 17  1  0  0  0
 17 18  1  0  0  0
 18 19  1  0  0  0
 19 20  2  0  0  0
 19 21  1  0  0  0
 21 22  2  0  0  0
 22 23  1  0  0  0
 23 24  2  0  0  0
 24 25  1  0  0  0
 25 26  2  0  0  0
 26 27  1  0  0  0
 27 28  2  0  0  0
 28 29  1  0  0  0
 29 30  1  0  0  0
 30 31  2  0  0  0
  7  1  1  0  0  0
 31  8  1  0  0  0
 29  3  1  0  0  0
 14  9  1  0  0  0
 31 15  1  0  0  0
 21 16  1  0  0  0
 30 22  1  0  0  0
 28 23  1  0  0  0
 34 35  1  0  0  0
 18 32  1  0  0  0
M  END
> <minimizedAffinity>
-0.59397

> <CNNscore>
0.3854863346

> <CNNaffinity>
6.6729621887

> <CNN_VS>
2.5723357201

> <CNNaffinity_variance>
0.3642835617

$$$$
[H]c1c([H])c([H])c2c(c1[H])c1c3c(c4c5c([H])c([H])c([H])c([H])c5n5c4c1n2[C@]1([H])O[C@]5(C([H])([H])[H])[C@]([H])(OC([H])([H])[H])[C@]([H])(N([H])C([H])([H])[H])C1([H])[H])C([H])([H])N([H])C3=O


 37 44  0  0  0  0  0  0  0  0999 V2000
   56.1249   -5.7505   -7.6848 C   0  0  0  0  0  0  0  0  0  0  0  0
   57.5813   -6.0523   -7.1970 C   0  0  0  0  0  0  0  0  0  0  0  0
   58.3069   -5.7151   -8.3179 C   0  0  0  0  0  0  0  0  0  0  0  0
   57.9972   -4.3840   -8.5563 O   0  0  0  0  0  0  0  0  0  0  0  0
   57.0418   -4.3879   -9.6216 C   0  0  0  0  0  0  0  0  0  0  0  0
   56.4802   -2.9502   -9.4993 C   0  0  0  0  0  0  0  0  0  0  0  0
   56.0858   -5.3902   -9.1937 C   0  0  0  0  0  0  0  0  0  0  0  0
   57.8344   -4.5034  -10.8244 N   0  0  0  0  0  0  0  0  0  0  0  0
   57.5126   -4.0139  -12.0498 C   0  0  0  0  0  0  0  0  0  0  0  0
   56.3807   -3.4431  -12.5389 C   0  0  0  0  0  0  0  0  0  0  0  0
   56.2814   -3.0168  -13.8770 C   0  0  0  0  0  0  0  0  0  0  0  0
   57.3554   -3.1782  -14.7250 C   0  0  0  0  0  0  0  0  0  0  0  0
   58.5272   -3.7591  -14.2573 C   0  0  0  0  0  0  0  0  0  0  0  0
   58.5636   -4.1561  -12.9374 C   0  0  0  0  0  0  0  0  0  0  0  0
   59.5665   -4.7555  -12.2489 C   0  0  0  0  0  0  0  0  0  0  0  0
   60.8764   -5.1533  -12.5194 C   0  0  0  0  0  0  0  0  0  0  0  0
   61.5945   -5.0276  -13.8140 C   0  0  0  0  0  0  0  0  0  0  0  0
   62.8991   -5.5853  -13.5523 N   0  0  0  0  0  0  0  0  0  0  0  0
   62.9879   -6.0282  -12.1798 C   0  0  0  0  0  0  0  0  0  0  0  0
   64.0373   -6.5404  -11.7526 O   0  0  0  0  0  0  0  0  0  0  0  0
   61.7048   -5.7373  -11.5806 C   0  0  0  0  0  0  0  0  0  0  0  0
   61.2327   -5.9545  -10.2964 C   0  0  0  0  0  0  0  0  0  0  0  0
   61.7184   -6.5355   -9.1600 C   0  0  0  0  0  0  0  0  0  0  0  0
   62.9029   -7.0947   -8.8100 C   0  0  0  0  0  0  0  0  0  0  0  0
   63.0461   -7.6080   -7.5155 C   0  0  0  0  0  0  0  0  0  0  0  0
   62.0118   -7.5504   -6.6104 C   0  0  0  0  0  0  0  0  0  0  0  0
   60.8018   -6.9819   -6.9595 C   0  0  0  0  0  0  0  0  0  0  0  0
   60.6808   -6.4787   -8.2490 C   0  0  0  0  0  0  0  0  0  0  0  0
   59.6183   -5.9011   -8.7741 N   0  0  0  0  0  0  0  0  0  0  0  0
   59.9427   -5.5573  -10.0491 C   0  0  0  0  0  0  0  0  0  0  0  0
   59.1089   -4.9554  -11.0052 C   0  0  0  0  0  0  0  0  0  0  0  0
   63.6439   -5.6446  -14.2703 H   0  0  0  0  0  0  0  0  0  0  0  0
   56.3789   -4.2778   -5.8708 C   0  0  0  0  0  0  0  0  0  0  0  0
   55.4978   -4.7511   -6.8962 N   0  0  0  0  0  0  0  0  0  0  0  0
   54.5676   -4.9990   -6.5684 H   0  0  0  0  0  0  0  0  0  0  0  0
   54.7904   -4.7923   -9.2778 O   0  0  0  0  0  0  0  0  0  0  0  0
   54.2608   -4.8667  -10.5425 C   0  0  0  0  0  0  0  0  0  0  0  0
 33 34  1  0  0  0
 34  1  1  0  0  0
  1  2  1  0  0  0
  2  3  1  0  0  0
  3  4  1  0  0  0
  4  5  1  0  0  0
  5  6  1  0  0  0
  5  7  1  0  0  0
  7 36  1  0  0  0
 36 37  1  0  0  0
  5  8  1  0  0  0
  8  9  1  0  0  0
  9 10  2  0  0  0
 10 11  1  0  0  0
 11 12  2  0  0  0
 12 13  1  0  0  0
 13 14  2  0  0  0
 14 15  1  0  0  0
 15 16  2  0  0  0
 16 17  1  0  0  0
 17 18  1  0  0  0
 18 19  1  0  0  0
 19 20  2  0  0  0
 19 21  1  0  0  0
 21 22  2  0  0  0
 22 23  1  0  0  0
 23 24  2  0  0  0
 24 25  1  0  0  0
 25 26  2  0  0  0
 26 27  1  0  0  0
 27 28  2  0  0  0
 28 29  1  0  0  0
 29 30  1  0  0  0
 30 31  2  0  0  0
  7  1  1  0  0  0
 31  8  1  0  0  0
 29  3  1  0  0  0
 14  9  1  0  0  0
 31 15  1  0  0  0
 21 16  1  0  0  0
 30 22  1  0  0  0
 28 23  1  0  0  0
 34 35  1  0  0  0
 18 32  1  0  0  0
M  END
> <minimizedAffinity>
5.77099

> <CNNscore>
0.3664123416

> <CNNaffinity>
5.6736602783

> <CNN_VS>
2.0788991451

> <CNNaffinity_variance>
0.1679639518

$$$$
[H]c1c([H])c([H])c2c(c1[H])c1c3c(c4c5c([H])c([H])c([H])c([H])c5n5c4c1n2[C@]1([H])O[C@]5(C([H])([H])[H])[C@]([H])(OC([H])([H])[H])[C@]([H])(N([H])C([H])([H])[H])C1([H])[H])C([H])([H])N([H])C3=O


 37 44  0  0  0  0  0  0  0  0999 V2000
   57.3060   -5.1638  -10.3238 C   0  0  0  0  0  0  0  0  0  0  0  0
   55.9532   -4.4010  -10.1284 C   0  0  0  0  0  0  0  0  0  0  0  0
   55.6872   -4.6764   -8.8055 C   0  0  0  0  0  0  0  0  0  0  0  0
   56.7822   -4.1830   -8.1111 O   0  0  0  0  0  0  0  0  0  0  0  0
   57.5978   -5.3184   -7.8059 C   0  0  0  0  0  0  0  0  0  0  0  0
   58.9280   -4.6168   -7.4376 C   0  0  0  0  0  0  0  0  0  0  0  0
   57.6749   -6.0111   -9.0771 C   0  0  0  0  0  0  0  0  0  0  0  0
   57.0012   -5.8904   -6.6205 N   0  0  0  0  0  0  0  0  0  0  0  0
   57.6491   -6.5823   -5.6478 C   0  0  0  0  0  0  0  0  0  0  0  0
   58.9202   -7.0526   -5.5511 C   0  0  0  0  0  0  0  0  0  0  0  0
   59.3645   -7.7676   -4.4226 C   0  0  0  0  0  0  0  0  0  0  0  0
   58.4950   -8.0046   -3.3803 C   0  0  0  0  0  0  0  0  0  0  0  0
   57.1883   -7.5385   -3.4476 C   0  0  0  0  0  0  0  0  0  0  0  0
   56.8124   -6.8449   -4.5784 C   0  0  0  0  0  0  0  0  0  0  0  0
   55.6083   -6.3070   -4.8945 C   0  0  0  0  0  0  0  0  0  0  0  0
   54.3646   -6.1863   -4.2732 C   0  0  0  0  0  0  0  0  0  0  0  0
   53.9843   -6.7101   -2.9359 C   0  0  0  0  0  0  0  0  0  0  0  0
   52.6047   -6.3178   -2.7799 N   0  0  0  0  0  0  0  0  0  0  0  0
   52.1554   -5.5932   -3.9464 C   0  0  0  0  0  0  0  0  0  0  0  0
   50.9896   -5.1653   -4.0087 O   0  0  0  0  0  0  0  0  0  0  0  0
   53.2867   -5.5386   -4.8450 C   0  0  0  0  0  0  0  0  0  0  0  0
   53.4200   -4.9740   -6.1031 C   0  0  0  0  0  0  0  0  0  0  0  0
   52.5943   -4.3298   -6.9795 C   0  0  0  0  0  0  0  0  0  0  0  0
   51.3002   -3.9271   -6.9453 C   0  0  0  0  0  0  0  0  0  0  0  0
   50.7703   -3.2755   -8.0652 C   0  0  0  0  0  0  0  0  0  0  0  0
   51.5395   -3.0439   -9.1820 C   0  0  0  0  0  0  0  0  0  0  0  0
   52.8593   -3.4511   -9.2243 C   0  0  0  0  0  0  0  0  0  0  0  0
   53.3651   -4.0960   -8.1024 C   0  0  0  0  0  0  0  0  0  0  0  0
   54.5896   -4.5584   -7.9432 N   0  0  0  0  0  0  0  0  0  0  0  0
   54.6495   -5.1028   -6.6985 C   0  0  0  0  0  0  0  0  0  0  0  0
   55.7442   -5.7543   -6.1079 C   0  0  0  0  0  0  0  0  0  0  0  0
   52.0444   -6.5409   -1.9373 H   0  0  0  0  0  0  0  0  0  0  0  0
   58.0160   -3.5185  -11.8446 C   0  0  0  0  0  0  0  0  0  0  0  0
   58.3616   -4.2874  -10.6865 N   0  0  0  0  0  0  0  0  0  0  0  0
   59.2757   -4.7305  -10.7347 H   0  0  0  0  0  0  0  0  0  0  0  0
   59.0595   -6.2529   -9.3360 O   0  0  0  0  0  0  0  0  0  0  0  0
   59.3779   -7.5873   -9.2761 C   0  0  0  0  0  0  0  0  0  0  0  0
 33 34  1  0  0  0
 34  1  1  0  0  0
  1  2  1  0  0  0
  2  3  1  0  0  0
  3  4  1  0  0  0
  4  5  1  0  0  0
  5  6  1  0  0  0
  5  7  1  0  0  0
  7 36  1  0  0  0
 36 37  1  0  0  0
  5  8  1  0  0  0
  8  9  1  0  0  0
  9 10  2  0  0  0
 10 11  1  0  0  0
 11 12  2  0  0  0
 12 13  1  0  0  0
 13 14  2  0  0  0
 14 15  1  0  0  0
 15 16  2  0  0  0
 16 17  1  0  0  0
 17 18  1  0  0  0
 18 19  1  0  0  0
 19 20  2  0  0  0
 19 21  1  0  0  0
 21 22  2  0  0  0
 22 23  1  0  0  0
 23 24  2  0  0  0
 24 25  1  0  0  0
 25 26  2  0  0  0
 26 27  1  0  0  0
 27 28  2  0  0  0
 28 29  1  0  0  0
 29 30  1  0  0  0
 30 31  2  0  0  0
  7  1  1  0  0  0
 31  8  1  0  0  0
 29  3  1  0  0  0
 14  9  1  0  0  0
 31 15  1  0  0  0
 21 16  1  0  0  0
 30 22  1  0  0  0
 28 23  1  0  0  0
 34 35  1  0  0  0
 18 32  1  0  0  0
M  END
> <minimizedAffinity>
0.70002

> <CNNscore>
0.3389397562

> <CNNaffinity>
6.6877832413

> <CNN_VS>
2.2667555809

> <CNNaffinity_variance>
0.3436557353

$$$$
[H]c1c([H])c([H])c2c(c1[H])c1c3c(c4c5c([H])c([H])c([H])c([H])c5n5c4c1n2[C@]1([H])O[C@]5(C([H])([H])[H])[C@]([H])(OC([H])([H])[H])[C@]([H])(N([H])C([H])([H])[H])C1([H])[H])C([H])([H])N([H])C3=O


 37 44  0  0  0  0  0  0  0  0999 V2000
   51.0619   -4.1458   -7.9973 C   0  0  0  0  0  0  0  0  0  0  0  0
   50.8743   -4.4632   -6.4761 C   0  0  0  0  0  0  0  0  0  0  0  0
   52.1591   -4.8106   -6.1218 C   0  0  0  0  0  0  0  0  0  0  0  0
   52.9278   -3.6982   -6.4320 O   0  0  0  0  0  0  0  0  0  0  0  0
   53.5762   -4.0021   -7.6710 C   0  0  0  0  0  0  0  0  0  0  0  0
   54.0314   -2.5868   -8.1032 C   0  0  0  0  0  0  0  0  0  0  0  0
   52.4895   -4.5041   -8.4888 C   0  0  0  0  0  0  0  0  0  0  0  0
   54.7261   -4.7940   -7.2984 N   0  0  0  0  0  0  0  0  0  0  0  0
   55.9080   -4.8586   -7.9643 C   0  0  0  0  0  0  0  0  0  0  0  0
   56.3093   -4.3680   -9.1663 C   0  0  0  0  0  0  0  0  0  0  0  0
   57.6110   -4.5805   -9.6588 C   0  0  0  0  0  0  0  0  0  0  0  0
   58.5128   -5.3055   -8.9107 C   0  0  0  0  0  0  0  0  0  0  0  0
   58.1346   -5.8219   -7.6780 C   0  0  0  0  0  0  0  0  0  0  0  0
   56.8465   -5.5804   -7.2495 C   0  0  0  0  0  0  0  0  0  0  0  0
   56.2320   -5.9817   -6.1091 C   0  0  0  0  0  0  0  0  0  0  0  0
   56.5951   -6.6971   -4.9674 C   0  0  0  0  0  0  0  0  0  0  0  0
   57.9204   -7.3059   -4.6837 C   0  0  0  0  0  0  0  0  0  0  0  0
   57.7593   -7.9199   -3.3881 N   0  0  0  0  0  0  0  0  0  0  0  0
   56.4182   -7.7046   -2.8955 C   0  0  0  0  0  0  0  0  0  0  0  0
   56.0763   -8.1564   -1.7886 O   0  0  0  0  0  0  0  0  0  0  0  0
   55.7347   -6.9394   -3.9141 C   0  0  0  0  0  0  0  0  0  0  0  0
   54.4357   -6.4613   -3.9715 C   0  0  0  0  0  0  0  0  0  0  0  0
   53.3250   -6.5475   -3.1818 C   0  0  0  0  0  0  0  0  0  0  0  0
   53.0590   -7.1005   -1.9728 C   0  0  0  0  0  0  0  0  0  0  0  0
   51.7626   -6.9920   -1.4559 C   0  0  0  0  0  0  0  0  0  0  0  0
   50.7725   -6.3393   -2.1531 C   0  0  0  0  0  0  0  0  0  0  0  0
   51.0359   -5.7730   -3.3857 C   0  0  0  0  0  0  0  0  0  0  0  0
   52.3288   -5.8923   -3.8803 C   0  0  0  0  0  0  0  0  0  0  0  0
   52.7810   -5.4251   -5.0273 N   0  0  0  0  0  0  0  0  0  0  0  0
   54.0967   -5.7607   -5.1016 C   0  0  0  0  0  0  0  0  0  0  0  0
   54.9789   -5.5096   -6.1647 C   0  0  0  0  0  0  0  0  0  0  0  0
   58.5189   -8.4354   -2.9074 H   0  0  0  0  0  0  0  0  0  0  0  0
   49.9836   -2.2003   -7.2381 C   0  0  0  0  0  0  0  0  0  0  0  0
   50.7301   -2.8003   -8.3033 N   0  0  0  0  0  0  0  0  0  0  0  0
   50.3237   -2.6689   -9.2261 H   0  0  0  0  0  0  0  0  0  0  0  0
   52.5239   -3.7767   -9.7186 O   0  0  0  0  0  0  0  0  0  0  0  0
   53.5101   -4.2232  -10.5634 C   0  0  0  0  0  0  0  0  0  0  0  0
 33 34  1  0  0  0
 34  1  1  0  0  0
  1  2  1  0  0  0
  2  3  1  0  0  0
  3  4  1  0  0  0
  4  5  1  0  0  0
  5  6  1  0  0  0
  5  7  1  0  0  0
  7 36  1  0  0  0
 36 37  1  0  0  0
  5  8  1  0  0  0
  8  9  1  0  0  0
  9 10  2  0  0  0
 10 11  1  0  0  0
 11 12  2  0  0  0
 12 13  1  0  0  0
 13 14  2  0  0  0
 14 15  1  0  0  0
 15 16  2  0  0  0
 16 17  1  0  0  0
 17 18  1  0  0  0
 18 19  1  0  0  0
 19 20  2  0  0  0
 19 21  1  0  0  0
 21 22  2  0  0  0
 22 23  1  0  0  0
 23 24  2  0  0  0
 24 25  1  0  0  0
 25 26  2  0  0  0
 26 27  1  0  0  0
 27 28  2  0  0  0
 28 29  1  0  0  0
 29 30  1  0  0  0
 30 31  2  0  0  0
  7  1  1  0  0  0
 31  8  1  0  0  0
 29  3  1  0  0  0
 14  9  1  0  0  0
 31 15  1  0  0  0
 21 16  1  0  0  0
 30 22  1  0  0  0
 28 23  1  0  0  0
 34 35  1  0  0  0
 18 32  1  0  0  0
M  END
> <minimizedAffinity>
-6.56495

> <CNNscore>
0.3157974184

> <CNNaffinity>
6.9819359779

> <CNN_VS>
2.2048773766

> <CNNaffinity_variance>
0.1302628219

$$$$
[H]c1c([H])c([H])c2c(c1[H])c1c3c(c4c5c([H])c([H])c([H])c([H])c5n5c4c1n2[C@]1([H])O[C@]5(C([H])([H])[H])[C@]([H])(OC([H])([H])[H])[C@]([H])(N([H])C([H])([H])[H])C1([H])[H])C([H])([H])N([H])C3=O


 37 44  0  0  0  0  0  0  0  0999 V2000
   56.6354   -7.0958   -4.6773 C   0  0  0  0  0  0  0  0  0  0  0  0
   58.0043   -6.9807   -5.4276 C   0  0  0  0  0  0  0  0  0  0  0  0
   57.6399   -6.2264   -6.5207 C   0  0  0  0  0  0  0  0  0  0  0  0
   57.1248   -5.0531   -5.9890 O   0  0  0  0  0  0  0  0  0  0  0  0
   55.7013   -5.1816   -6.0602 C   0  0  0  0  0  0  0  0  0  0  0  0
   55.2698   -4.0580   -5.0863 C   0  0  0  0  0  0  0  0  0  0  0  0
   55.4692   -6.5036   -5.5124 C   0  0  0  0  0  0  0  0  0  0  0  0
   55.3670   -4.8097   -7.4160 N   0  0  0  0  0  0  0  0  0  0  0  0
   54.2049   -4.2426   -7.8311 C   0  0  0  0  0  0  0  0  0  0  0  0
   53.0271   -4.0008   -7.1980 C   0  0  0  0  0  0  0  0  0  0  0  0
   51.9388   -3.3982   -7.8571 C   0  0  0  0  0  0  0  0  0  0  0  0
   52.0584   -3.0395   -9.1821 C   0  0  0  0  0  0  0  0  0  0  0  0
   53.2483   -3.2735   -9.8593 C   0  0  0  0  0  0  0  0  0  0  0  0
   54.2781   -3.8666   -9.1600 C   0  0  0  0  0  0  0  0  0  0  0  0
   55.5175   -4.2134   -9.5873 C   0  0  0  0  0  0  0  0  0  0  0  0
   56.2423   -4.0994  -10.7743 C   0  0  0  0  0  0  0  0  0  0  0  0
   55.7667   -3.5123  -12.0536 C   0  0  0  0  0  0  0  0  0  0  0  0
   56.8931   -3.6438  -12.9454 N   0  0  0  0  0  0  0  0  0  0  0  0
   58.0012   -4.2714  -12.2629 C   0  0  0  0  0  0  0  0  0  0  0  0
   59.0722   -4.4751  -12.8609 O   0  0  0  0  0  0  0  0  0  0  0  0
   57.5456   -4.5348  -10.9163 C   0  0  0  0  0  0  0  0  0  0  0  0
   58.1887   -5.1232   -9.8395 C   0  0  0  0  0  0  0  0  0  0  0  0
   59.4053   -5.7049   -9.6242 C   0  0  0  0  0  0  0  0  0  0  0  0
   60.5155   -5.8934  -10.3793 C   0  0  0  0  0  0  0  0  0  0  0  0
   61.6102   -6.5542   -9.8095 C   0  0  0  0  0  0  0  0  0  0  0  0
   61.5695   -7.0063   -8.5109 C   0  0  0  0  0  0  0  0  0  0  0  0
   60.4417   -6.8177   -7.7351 C   0  0  0  0  0  0  0  0  0  0  0  0
   59.3667   -6.1597   -8.3199 C   0  0  0  0  0  0  0  0  0  0  0  0
   58.2087   -5.8823   -7.7538 N   0  0  0  0  0  0  0  0  0  0  0  0
   57.4604   -5.2270   -8.6810 C   0  0  0  0  0  0  0  0  0  0  0  0
   56.1389   -4.7738   -8.5404 C   0  0  0  0  0  0  0  0  0  0  0  0
   56.8758   -3.3229  -13.9305 H   0  0  0  0  0  0  0  0  0  0  0  0
   57.2017   -7.4551   -2.4247 C   0  0  0  0  0  0  0  0  0  0  0  0
   56.6906   -6.5196   -3.3815 N   0  0  0  0  0  0  0  0  0  0  0  0
   55.8345   -6.0517   -3.0946 H   0  0  0  0  0  0  0  0  0  0  0  0
   54.4749   -6.3638   -4.4953 O   0  0  0  0  0  0  0  0  0  0  0  0
   53.2326   -6.7677   -4.9187 C   0  0  0  0  0  0  0  0  0  0  0  0
 33 34  1  0  0  0
 34  1  1  0  0  0
  1  2  1  0  0  0
  2  3  1  0  0  0
  3  4  1  0  0  0
  4  5  1  0  0  0
  5  6  1  0  0  0
  5  7  1  0  0  0
  7 36  1  0  0  0
 36 37  1  0  0  0
  5  8  1  0  0  0
  8  9  1  0  0  0
  9 10  2  0  0  0
 10 11  1  0  0  0
 11 12  2  0  0  0
 12 13  1  0  0  0
 13 14  2  0  0  0
 14 15  1  0  0  0
 15 16  2  0  0  0
 16 17  1  0  0  0
 17 18  1  0  0  0
 18 19  1  0  0  0
 19 20  2  0  0  0
 19 21  1  0  0  0
 21 22  2  0  0  0
 22 23  1  0  0  0
 23 24  2  0  0  0
 24 25  1  0  0  0
 25 26  2  0  0  0
 26 27  1  0  0  0
 27 28  2  0  0  0
 28 29  1  0  0  0
 29 30  1  0  0  0
 30 31  2  0  0  0
  7  1  1  0  0  0
 31  8  1  0  0  0
 29  3  1  0  0  0
 14  9  1  0  0  0
 31 15  1  0  0  0
 21 16  1  0  0  0
 30 22  1  0  0  0
 28 23  1  0  0  0
 34 35  1  0  0  0
 18 32  1  0  0  0
M  END
> <minimizedAffinity>
-4.38698

> <CNNscore>
0.1891870201

> <CNNaffinity>
6.2089986801

> <CNN_VS>
1.1746619940

> <CNNaffinity_variance>
0.1436362416

$$$$
[H]c1c([H])c([H])c2c(c1[H])c1c3c(c4c5c([H])c([H])c([H])c([H])c5n5c4c1n2[C@]1([H])O[C@]5(C([H])([H])[H])[C@]([H])(OC([H])([H])[H])[C@]([H])(N([H])C([H])([H])[H])C1([H])[H])C([H])([H])N([H])C3=O


 37 44  0  0  0  0  0  0  0  0999 V2000
   62.7153   -9.1732   -9.8047 C   0  0  0  0  0  0  0  0  0  0  0  0
   61.8837  -10.0721   -8.8297 C   0  0  0  0  0  0  0  0  0  0  0  0
   62.1663   -9.4761   -7.6207 C   0  0  0  0  0  0  0  0  0  0  0  0
   61.7444   -8.1623   -7.7632 O   0  0  0  0  0  0  0  0  0  0  0  0
   62.9272   -7.3941   -8.0051 C   0  0  0  0  0  0  0  0  0  0  0  0
   62.3047   -6.0868   -8.5535 C   0  0  0  0  0  0  0  0  0  0  0  0
   63.6019   -8.1572   -9.0368 C   0  0  0  0  0  0  0  0  0  0  0  0
   63.4856   -7.1580   -6.6934 N   0  0  0  0  0  0  0  0  0  0  0  0
   64.2276   -6.0847   -6.3164 C   0  0  0  0  0  0  0  0  0  0  0  0
   64.7675   -5.0535   -7.0175 C   0  0  0  0  0  0  0  0  0  0  0  0
   65.5241   -4.0446   -6.3917 C   0  0  0  0  0  0  0  0  0  0  0  0
   65.7310   -4.0932   -5.0303 C   0  0  0  0  0  0  0  0  0  0  0  0
   65.1938   -5.1342   -4.2840 C   0  0  0  0  0  0  0  0  0  0  0  0
   64.4622   -6.0922   -4.9535 C   0  0  0  0  0  0  0  0  0  0  0  0
   63.8548   -7.2031   -4.4675 C   0  0  0  0  0  0  0  0  0  0  0  0
   63.6773   -7.7866   -3.2124 C   0  0  0  0  0  0  0  0  0  0  0  0
   64.2019   -7.2845   -1.9162 C   0  0  0  0  0  0  0  0  0  0  0  0
   63.7382   -8.2483   -0.9480 N   0  0  0  0  0  0  0  0  0  0  0  0
   62.9711   -9.2842   -1.6007 C   0  0  0  0  0  0  0  0  0  0  0  0
   62.4798  -10.2138   -0.9368 O   0  0  0  0  0  0  0  0  0  0  0  0
   62.9628   -8.9511   -3.0075 C   0  0  0  0  0  0  0  0  0  0  0  0
   62.3855   -9.5956   -4.0894 C   0  0  0  0  0  0  0  0  0  0  0  0
   61.6832  -10.7512   -4.2799 C   0  0  0  0  0  0  0  0  0  0  0  0
   61.2117  -11.7229   -3.4603 C   0  0  0  0  0  0  0  0  0  0  0  0
   60.5139  -12.7970   -4.0251 C   0  0  0  0  0  0  0  0  0  0  0  0
   60.3058  -12.8733   -5.3827 C   0  0  0  0  0  0  0  0  0  0  0  0
   60.7830  -11.8868   -6.2245 C   0  0  0  0  0  0  0  0  0  0  0  0
   61.4728  -10.8299   -5.6434 C   0  0  0  0  0  0  0  0  0  0  0  0
   62.0034   -9.7963   -6.2667 N   0  0  0  0  0  0  0  0  0  0  0  0
   62.5708   -9.0076   -5.3153 C   0  0  0  0  0  0  0  0  0  0  0  0
   63.2903   -7.8185   -5.5157 C   0  0  0  0  0  0  0  0  0  0  0  0
   63.9446   -8.1775    0.0650 H   0  0  0  0  0  0  0  0  0  0  0  0
   60.5044   -8.7308  -10.4682 C   0  0  0  0  0  0  0  0  0  0  0  0
   61.8914   -8.5243  -10.7608 N   0  0  0  0  0  0  0  0  0  0  0  0
   62.1479   -8.7076  -11.7276 H   0  0  0  0  0  0  0  0  0  0  0  0
   63.9139   -7.2451  -10.0920 O   0  0  0  0  0  0  0  0  0  0  0  0
   65.2665   -7.1221  -10.2946 C   0  0  0  0  0  0  0  0  0  0  0  0
 33 34  1  0  0  0
 34  1  1  0  0  0
  1  2  1  0  0  0
  2  3  1  0  0  0
  3  4  1  0  0  0
  4  5  1  0  0  0
  5  6  1  0  0  0
  5  7  1  0  0  0
  7 36  1  0  0  0
 36 37  1  0  0  0
  5  8  1  0  0  0
  8  9  1  0  0  0
  9 10  2  0  0  0
 10 11  1  0  0  0
 11 12  2  0  0  0
 12 13  1  0  0  0
 13 14  2  0  0  0
 14 15  1  0  0  0
 15 16  2  0  0  0
 16 17  1  0  0  0
 17 18  1  0  0  0
 18 19  1  0  0  0
 19 20  2  0  0  0
 19 21  1  0  0  0
 21 22  2  0  0  0
 22 23  1  0  0  0
 23 24  2  0  0  0
 24 25  1  0  0  0
 25 26  2  0  0  0
 26 27  1  0  0  0
 27 28  2  0  0  0
 28 29  1  0  0  0
 29 30  1  0  0  0
 30 31  2  0  0  0
  7  1  1  0  0  0
 31  8  1  0  0  0
 29  3  1  0  0  0
 14  9  1  0  0  0
 31 15  1  0  0  0
 21 16  1  0  0  0
 30 22  1  0  0  0
 28 23  1  0  0  0
 34 35  1  0  0  0
 18 32  1  0  0  0
M  END
> <minimizedAffinity>
-4.27484

> <CNNscore>
0.1810366660

> <CNNaffinity>
4.8766393661

> <CNN_VS>
0.8828505278

> <CNNaffinity_variance>
0.0470064357

$$$$
[H]c1c([H])c([H])c2c(c1[H])c1c3c(c4c5c([H])c([H])c([H])c([H])c5n5c4c1n2[C@]1([H])O[C@]5(C([H])([H])[H])[C@]([H])(OC([H])([H])[H])[C@]([H])(N([H])C([H])([H])[H])C1([H])[H])C([H])([H])N([H])C3=O


 37 44  0  0  0  0  0  0  0  0999 V2000
   63.7798   -8.6656   -9.5126 C   0  0  0  0  0  0  0  0  0  0  0  0
   62.6561   -7.6041   -9.7589 C   0  0  0  0  0  0  0  0  0  0  0  0
   62.0595   -7.5633   -8.5183 C   0  0  0  0  0  0  0  0  0  0  0  0
   63.0748   -7.1989   -7.6460 O   0  0  0  0  0  0  0  0  0  0  0  0
   63.4922   -8.4072   -7.0027 C   0  0  0  0  0  0  0  0  0  0  0  0
   64.8505   -7.9554   -6.4127 C   0  0  0  0  0  0  0  0  0  0  0  0
   63.6529   -9.3248   -8.1135 C   0  0  0  0  0  0  0  0  0  0  0  0
   62.5364   -8.6041   -5.9369 N   0  0  0  0  0  0  0  0  0  0  0  0
   62.7695   -9.2263   -4.7524 C   0  0  0  0  0  0  0  0  0  0  0  0
   63.8299   -9.9352   -4.2841 C   0  0  0  0  0  0  0  0  0  0  0  0
   63.8324  -10.5062   -2.9972 C   0  0  0  0  0  0  0  0  0  0  0  0
   62.7341  -10.3496   -2.1800 C   0  0  0  0  0  0  0  0  0  0  0  0
   61.6329   -9.6315   -2.6284 C   0  0  0  0  0  0  0  0  0  0  0  0
   61.6900   -9.0963   -3.8978 C   0  0  0  0  0  0  0  0  0  0  0  0
   60.7557   -8.3782   -4.5691 C   0  0  0  0  0  0  0  0  0  0  0  0
   59.4828   -7.8762   -4.2954 C   0  0  0  0  0  0  0  0  0  0  0  0
   58.7119   -8.0457   -3.0367 C   0  0  0  0  0  0  0  0  0  0  0  0
   57.4766   -7.3408   -3.2790 N   0  0  0  0  0  0  0  0  0  0  0  0
   57.4797   -6.7666   -4.6048 C   0  0  0  0  0  0  0  0  0  0  0  0
   56.5008   -6.1149   -5.0085 O   0  0  0  0  0  0  0  0  0  0  0  0
   58.7489   -7.1280   -5.1954 C   0  0  0  0  0  0  0  0  0  0  0  0
   59.2804   -6.8509   -6.4444 C   0  0  0  0  0  0  0  0  0  0  0  0
   58.8472   -6.2178   -7.5742 C   0  0  0  0  0  0  0  0  0  0  0  0
   57.7206   -5.5443   -7.9137 C   0  0  0  0  0  0  0  0  0  0  0  0
   57.6193   -5.0139   -9.2052 C   0  0  0  0  0  0  0  0  0  0  0  0
   58.6370   -5.1677  -10.1178 C   0  0  0  0  0  0  0  0  0  0  0  0
   59.7884   -5.8526   -9.7793 C   0  0  0  0  0  0  0  0  0  0  0  0
   59.8683   -6.3711   -8.4927 C   0  0  0  0  0  0  0  0  0  0  0  0
   60.8736   -7.0505   -7.9769 N   0  0  0  0  0  0  0  0  0  0  0  0
   60.5325   -7.3529   -6.6957 C   0  0  0  0  0  0  0  0  0  0  0  0
   61.2774   -8.1048   -5.7730 C   0  0  0  0  0  0  0  0  0  0  0  0
   56.7153   -7.2755   -2.5790 H   0  0  0  0  0  0  0  0  0  0  0  0
   65.3506   -7.9571  -11.1110 C   0  0  0  0  0  0  0  0  0  0  0  0
   65.0755   -8.1232   -9.7150 N   0  0  0  0  0  0  0  0  0  0  0  0
   65.8122   -8.5938   -9.1955 H   0  0  0  0  0  0  0  0  0  0  0  0
   64.9527   -9.9059   -7.9885 O   0  0  0  0  0  0  0  0  0  0  0  0
   64.9011  -11.2571   -7.7493 C   0  0  0  0  0  0  0  0  0  0  0  0
 33 34  1  0  0  0
 34  1  1  0  0  0
  1  2  1  0  0  0
  2  3  1  0  0  0
  3  4  1  0  0  0
  4  5  1  0  0  0
  5  6  1  0  0  0
  5  7  1  0  0  0
  7 36  1  0  0  0
 36 37  1  0  0  0
  5  8  1  0  0  0
  8  9  1  0  0  0
  9 10  2  0  0  0
 10 11  1  0  0  0
 11 12  2  0  0  0
 12 13  1  0  0  0
 13 14  2  0  0  0
 14 15  1  0  0  0
 15 16  2  0  0  0
 16 17  1  0  0  0
 17 18  1  0  0  0
 18 19  1  0  0  0
 19 20  2  0  0  0
 19 21  1  0  0  0
 21 22  2  0  0  0
 22 23  1  0  0  0
 23 24  2  0  0  0
 24 25  1  0  0  0
 25 26  2  0  0  0
 26 27  1  0  0  0
 27 28  2  0  0  0
 28 29  1  0  0  0
 29 30  1  0  0  0
 30 31  2  0  0  0
  7  1  1  0  0  0
 31  8  1  0  0  0
 29  3  1  0  0  0
 14  9  1  0  0  0
 31 15  1  0  0  0
 21 16  1  0  0  0
 30 22  1  0  0  0
 28 23  1  0  0  0
 34 35  1  0  0  0
 18 32  1  0  0  0
M  END
> <minimizedAffinity>
2.51888

> <CNNscore>
0.1529179513

> <CNNaffinity>
5.2299036980

> <CNN_VS>
0.7997461557

> <CNNaffinity_variance>
0.1863490790

$$$$
[H]c1c([H])c(N([H])C(=O)c2c(C([H])([H])[H])c(C(=O)C(=O)N([H])C3(C#N)C([H])([H])C3([H])[H])c3n2C([H])([H])C([H])([H])C3([H])[H])c([H])c(F)c1F


 32 35  0  0  0  0  0  0  0  0999 V2000
   53.9850   -6.1016   -6.8084 C   0  0  0  0  0  0  0  0  0  0  0  0
   53.0250   -5.0386   -7.1337 C   0  0  0  0  0  0  0  0  0  0  0  0
   51.7410   -4.9630   -6.6583 C   0  0  0  0  0  0  0  0  0  0  0  0
   51.1841   -3.8282   -7.1977 C   0  0  0  0  0  0  0  0  0  0  0  0
   49.8974   -3.0395   -7.2116 C   0  0  0  0  0  0  0  0  0  0  0  0
   50.4570   -1.6699   -7.5150 C   0  0  0  0  0  0  0  0  0  0  0  0
   51.5159   -2.0119   -8.5427 C   0  0  0  0  0  0  0  0  0  0  0  0
   52.1051   -3.2282   -7.9802 N   0  0  0  0  0  0  0  0  0  0  0  0
   53.2481   -3.9346   -7.9726 C   0  0  0  0  0  0  0  0  0  0  0  0
   54.5385   -3.7213   -8.6372 C   0  0  0  0  0  0  0  0  0  0  0  0
   55.3559   -2.8897   -8.1588 O   0  0  0  0  0  0  0  0  0  0  0  0
   54.9032   -4.4218   -9.8033 N   0  0  0  0  0  0  0  0  0  0  0  0
   54.1440   -5.1361  -10.1339 H   0  0  0  0  0  0  0  0  0  0  0  0
   56.0839   -4.3341  -10.5491 C   0  0  0  0  0  0  0  0  0  0  0  0
   56.2130   -3.7500  -11.7564 C   0  0  0  0  0  0  0  0  0  0  0  0
   57.4475   -3.7287  -12.4421 C   0  0  0  0  0  0  0  0  0  0  0  0
   58.5428   -4.3055  -11.8870 C   0  0  0  0  0  0  0  0  0  0  0  0
   59.7189   -4.2653  -12.5794 F   0  0  0  0  0  0  0  0  0  0  0  0
   58.4402   -4.9076  -10.6572 C   0  0  0  0  0  0  0  0  0  0  0  0
   59.5607   -5.4797  -10.1239 F   0  0  0  0  0  0  0  0  0  0  0  0
   57.2372   -4.9190  -10.0078 C   0  0  0  0  0  0  0  0  0  0  0  0
   51.0461   -5.8828   -5.7513 C   0  0  0  0  0  0  0  0  0  0  0  0
   50.3713   -6.8050   -6.2763 O   0  0  0  0  0  0  0  0  0  0  0  0
   51.1191   -5.7550   -4.3099 C   0  0  0  0  0  0  0  0  0  0  0  0
   50.3321   -4.9782   -3.7228 O   0  0  0  0  0  0  0  0  0  0  0  0
   52.0583   -6.4874   -3.5538 N   0  0  0  0  0  0  0  0  0  0  0  0
   52.7159   -7.1371   -4.0491 H   0  0  0  0  0  0  0  0  0  0  0  0
   52.0915   -6.3256   -2.1213 C   0  0  0  0  0  0  0  0  0  0  0  0
   53.5066   -6.3801   -1.5507 C   0  0  0  0  0  0  0  0  0  0  0  0
   52.6437   -5.1280   -1.4815 C   0  0  0  0  0  0  0  0  0  0  0  0
   51.0528   -7.0791   -1.4183 C   0  0  0  0  0  0  0  0  0  0  0  0
   50.2248   -7.6642   -0.8726 N   0  0  0  0  0  0  0  0  0  0  0  0
  1  2  1  0  0  0
  2  3  1  0  0  0
  3 22  1  0  0  0
 22 23  2  0  0  0
 22 24  1  0  0  0
 24 25  2  0  0  0
 24 26  1  0  0  0
 26 28  1  0  0  0
 28 29  1  0  0  0
 29 30  1  0  0  0
 28 31  1  0  0  0
 31 32  3  0  0  0
  3  4  2  0  0  0
  4  5  1  0  0  0
  5  6  1  0  0  0
  6  7  1  0  0  0
  7  8  1  0  0  0
  8  9  1  0  0  0
  9 10  1  0  0  0
 10 11  2  0  0  0
 10 12  1  0  0  0
 12 14  1  0  0  0
 14 15  2  0  0  0
 15 16  1  0  0  0
 16 17  2  0  0  0
 17 18  1  0  0  0
 17 19  1  0  0  0
 19 20  1  0  0  0
 19 21  2  0  0  0
  9  2  2  0  0  0
 21 14  1  0  0  0
 30 28  1  0  0  0
  8  4  1  0  0  0
 26 27  1  0  0  0
 12 13  1  0  0  0
M  END
> <minimizedAffinity>
-9.82791

> <CNNscore>
0.7017221451

> <CNNaffinity>
7.1624617577

> <CNN_VS>
5.0260581970

> <CNNaffinity_variance>
0.0145691680

$$$$
[H]c1c([H])c(N([H])C(=O)c2c(C([H])([H])[H])c(C(=O)C(=O)N([H])C3(C#N)C([H])([H])C3([H])[H])c3n2C([H])([H])C([H])([H])C3([H])[H])c([H])c(F)c1F


 32 35  0  0  0  0  0  0  0  0999 V2000
   56.3749   -4.0186  -10.4168 C   0  0  0  0  0  0  0  0  0  0  0  0
   56.3289   -4.5307   -9.0409 C   0  0  0  0  0  0  0  0  0  0  0  0
   55.3077   -4.3130   -8.1521 C   0  0  0  0  0  0  0  0  0  0  0  0
   55.6507   -4.9575   -6.9877 C   0  0  0  0  0  0  0  0  0  0  0  0
   55.1426   -5.2149   -5.5901 C   0  0  0  0  0  0  0  0  0  0  0  0
   55.8484   -6.5211   -5.3133 C   0  0  0  0  0  0  0  0  0  0  0  0
   57.2064   -6.2511   -5.9275 C   0  0  0  0  0  0  0  0  0  0  0  0
   56.8487   -5.5527   -7.1633 N   0  0  0  0  0  0  0  0  0  0  0  0
   57.3035   -5.3175   -8.4057 C   0  0  0  0  0  0  0  0  0  0  0  0
   58.5284   -5.7330   -9.0978 C   0  0  0  0  0  0  0  0  0  0  0  0
   58.6085   -5.6114  -10.3498 O   0  0  0  0  0  0  0  0  0  0  0  0
   59.6328   -6.2675   -8.4064 N   0  0  0  0  0  0  0  0  0  0  0  0
   59.4831   -6.3162   -7.3242 H   0  0  0  0  0  0  0  0  0  0  0  0
   60.8605   -6.7061   -8.9146 C   0  0  0  0  0  0  0  0  0  0  0  0
   62.0371   -6.0592   -8.8030 C   0  0  0  0  0  0  0  0  0  0  0  0
   63.2239   -6.5751   -9.3685 C   0  0  0  0  0  0  0  0  0  0  0  0
   63.1989   -7.7510  -10.0447 C   0  0  0  0  0  0  0  0  0  0  0  0
   64.3658   -8.2184  -10.5777 F   0  0  0  0  0  0  0  0  0  0  0  0
   62.0134   -8.4320  -10.1734 C   0  0  0  0  0  0  0  0  0  0  0  0
   62.0200   -9.6136  -10.8597 F   0  0  0  0  0  0  0  0  0  0  0  0
   60.8742   -7.9176   -9.6197 C   0  0  0  0  0  0  0  0  0  0  0  0
   54.0702   -3.5509   -8.3500 C   0  0  0  0  0  0  0  0  0  0  0  0
   54.1636   -2.4529   -8.9560 O   0  0  0  0  0  0  0  0  0  0  0  0
   52.7841   -4.0218   -7.8772 C   0  0  0  0  0  0  0  0  0  0  0  0
   52.4369   -5.2005   -8.1171 O   0  0  0  0  0  0  0  0  0  0  0  0
   51.9145   -3.1801   -7.1522 N   0  0  0  0  0  0  0  0  0  0  0  0
   52.2088   -2.1933   -6.9532 H   0  0  0  0  0  0  0  0  0  0  0  0
   50.6449   -3.6956   -6.7030 C   0  0  0  0  0  0  0  0  0  0  0  0
   49.6108   -2.5984   -6.4621 C   0  0  0  0  0  0  0  0  0  0  0  0
   49.4438   -3.6578   -7.5423 C   0  0  0  0  0  0  0  0  0  0  0  0
   50.7594   -4.7464   -5.6914 C   0  0  0  0  0  0  0  0  0  0  0  0
   50.8478   -5.5628   -4.8843 N   0  0  0  0  0  0  0  0  0  0  0  0
  1  2  1  0  0  0
  2  3  1  0  0  0
  3 22  1  0  0  0
 22 23  2  0  0  0
 22 24  1  0  0  0
 24 25  2  0  0  0
 24 26  1  0  0  0
 26 28  1  0  0  0
 28 29  1  0  0  0
 29 30  1  0  0  0
 28 31  1  0  0  0
 31 32  3  0  0  0
  3  4  2  0  0  0
  4  5  1  0  0  0
  5  6  1  0  0  0
  6  7  1  0  0  0
  7  8  1  0  0  0
  8  9  1  0  0  0
  9 10  1  0  0  0
 10 11  2  0  0  0
 10 12  1  0  0  0
 12 14  1  0  0  0
 14 15  2  0  0  0
 15 16  1  0  0  0
 16 17  2  0  0  0
 17 18  1  0  0  0
 17 19  1  0  0  0
 19 20  1  0  0  0
 19 21  2  0  0  0
  9  2  2  0  0  0
 21 14  1  0  0  0
 30 28  1  0  0  0
  8  4  1  0  0  0
 26 27  1  0  0  0
 12 13  1  0  0  0
M  END
> <minimizedAffinity>
-8.05778

> <CNNscore>
0.6848092675

> <CNNaffinity>
6.8768625259

> <CNN_VS>
4.7093391418

> <CNNaffinity_variance>
0.2076081485

$$$$
[H]c1c([H])c(N([H])C(=O)c2c(C([H])([H])[H])c(C(=O)C(=O)N([H])C3(C#N)C([H])([H])C3([H])[H])c3n2C([H])([H])C([H])([H])C3([H])[H])c([H])c(F)c1F


 32 35  0  0  0  0  0  0  0  0999 V2000
   53.9546   -6.1565   -6.7159 C   0  0  0  0  0  0  0  0  0  0  0  0
   53.0177   -5.0830   -7.0726 C   0  0  0  0  0  0  0  0  0  0  0  0
   51.7246   -4.9844   -6.6271 C   0  0  0  0  0  0  0  0  0  0  0  0
   51.1967   -3.8468   -7.1893 C   0  0  0  0  0  0  0  0  0  0  0  0
   49.9223   -3.0399   -7.2396 C   0  0  0  0  0  0  0  0  0  0  0  0
   50.5086   -1.6814   -7.5427 C   0  0  0  0  0  0  0  0  0  0  0  0
   51.5852   -2.0484   -8.5430 C   0  0  0  0  0  0  0  0  0  0  0  0
   52.1437   -3.2677   -7.9562 N   0  0  0  0  0  0  0  0  0  0  0  0
   53.2758   -3.9903   -7.9163 C   0  0  0  0  0  0  0  0  0  0  0  0
   54.5838   -3.8020   -8.5534 C   0  0  0  0  0  0  0  0  0  0  0  0
   55.3744   -2.9279   -8.1068 O   0  0  0  0  0  0  0  0  0  0  0  0
   54.9949   -4.5729   -9.6581 N   0  0  0  0  0  0  0  0  0  0  0  0
   54.2561   -5.3192   -9.9634 H   0  0  0  0  0  0  0  0  0  0  0  0
   56.1975   -4.5169  -10.3711 C   0  0  0  0  0  0  0  0  0  0  0  0
   57.4004   -4.9263   -9.9229 C   0  0  0  0  0  0  0  0  0  0  0  0
   58.5652   -4.8109  -10.7132 C   0  0  0  0  0  0  0  0  0  0  0  0
   58.4911   -4.2772  -11.9582 C   0  0  0  0  0  0  0  0  0  0  0  0
   59.6381   -4.1816  -12.6928 F   0  0  0  0  0  0  0  0  0  0  0  0
   57.2779   -3.8521  -12.4408 C   0  0  0  0  0  0  0  0  0  0  0  0
   57.2351   -3.3192  -13.6983 F   0  0  0  0  0  0  0  0  0  0  0  0
   56.1606   -3.9713  -11.6619 C   0  0  0  0  0  0  0  0  0  0  0  0
   50.9961   -5.8854   -5.7277 C   0  0  0  0  0  0  0  0  0  0  0  0
   50.2965   -6.7847   -6.2601 O   0  0  0  0  0  0  0  0  0  0  0  0
   51.0639   -5.7648   -4.2854 C   0  0  0  0  0  0  0  0  0  0  0  0
   50.2603   -5.0076   -3.6952 O   0  0  0  0  0  0  0  0  0  0  0  0
   52.0165   -6.4825   -3.5319 N   0  0  0  0  0  0  0  0  0  0  0  0
   52.6880   -7.1159   -4.0298 H   0  0  0  0  0  0  0  0  0  0  0  0
   52.0438   -6.3287   -2.0984 C   0  0  0  0  0  0  0  0  0  0  0  0
   53.4587   -6.3599   -1.5253 C   0  0  0  0  0  0  0  0  0  0  0  0
   52.5722   -5.1248   -1.4505 C   0  0  0  0  0  0  0  0  0  0  0  0
   51.0182   -7.1058   -1.4020 C   0  0  0  0  0  0  0  0  0  0  0  0
   50.2172   -7.7132   -0.8407 N   0  0  0  0  0  0  0  0  0  0  0  0
  1  2  1  0  0  0
  2  3  1  0  0  0
  3 22  1  0  0  0
 22 23  2  0  0  0
 22 24  1  0  0  0
 24 25  2  0  0  0
 24 26  1  0  0  0
 26 28  1  0  0  0
 28 29  1  0  0  0
 29 30  1  0  0  0
 28 31  1  0  0  0
 31 32  3  0  0  0
  3  4  2  0  0  0
  4  5  1  0  0  0
  5  6  1  0  0  0
  6  7  1  0  0  0
  7  8  1  0  0  0
  8  9  1  0  0  0
  9 10  1  0  0  0
 10 11  2  0  0  0
 10 12  1  0  0  0
 12 14  1  0  0  0
 14 15  2  0  0  0
 15 16  1  0  0  0
 16 17  2  0  0  0
 17 18  1  0  0  0
 17 19  1  0  0  0
 19 20  1  0  0  0
 19 21  2  0  0  0
  9  2  2  0  0  0
 21 14  1  0  0  0
 30 28  1  0  0  0
  8  4  1  0  0  0
 26 27  1  0  0  0
 12 13  1  0  0  0
M  END
> <minimizedAffinity>
-9.77489

> <CNNscore>
0.6341556907

> <CNNaffinity>
7.1233243942

> <CNN_VS>
4.5172967911

> <CNNaffinity_variance>
0.0223636180

$$$$
[H]c1c([H])c(N([H])C(=O)c2c(C([H])([H])[H])c(C(=O)C(=O)N([H])C3(C#N)C([H])([H])C3([H])[H])c3n2C([H])([H])C([H])([H])C3([H])[H])c([H])c(F)c1F


 32 35  0  0  0  0  0  0  0  0999 V2000
   53.1419   -6.3387   -5.0482 C   0  0  0  0  0  0  0  0  0  0  0  0
   52.1357   -5.3765   -5.5164 C   0  0  0  0  0  0  0  0  0  0  0  0
   51.0601   -4.9416   -4.7854 C   0  0  0  0  0  0  0  0  0  0  0  0
   50.3724   -4.0556   -5.5797 C   0  0  0  0  0  0  0  0  0  0  0  0
   49.1491   -3.1718   -5.5729 C   0  0  0  0  0  0  0  0  0  0  0  0
   49.5980   -2.1305   -6.5705 C   0  0  0  0  0  0  0  0  0  0  0  0
   50.2878   -2.9982   -7.6027 C   0  0  0  0  0  0  0  0  0  0  0  0
   51.0129   -3.9531   -6.7627 N   0  0  0  0  0  0  0  0  0  0  0  0
   52.0982   -4.7454   -6.7704 C   0  0  0  0  0  0  0  0  0  0  0  0
   53.1237   -4.9958   -7.7892 C   0  0  0  0  0  0  0  0  0  0  0  0
   53.0031   -5.9813   -8.5656 O   0  0  0  0  0  0  0  0  0  0  0  0
   54.2509   -4.1642   -7.9351 N   0  0  0  0  0  0  0  0  0  0  0  0
   54.2619   -3.3240   -7.2351 H   0  0  0  0  0  0  0  0  0  0  0  0
   55.3070   -4.2660   -8.8473 C   0  0  0  0  0  0  0  0  0  0  0  0
   55.2570   -3.9347  -10.1524 C   0  0  0  0  0  0  0  0  0  0  0  0
   56.3750   -4.0917  -11.0010 C   0  0  0  0  0  0  0  0  0  0  0  0
   57.5378   -4.5867  -10.5079 C   0  0  0  0  0  0  0  0  0  0  0  0
   58.5972   -4.7245  -11.3582 F   0  0  0  0  0  0  0  0  0  0  0  0
   57.6172   -4.9322   -9.1813 C   0  0  0  0  0  0  0  0  0  0  0  0
   58.8018   -5.4278   -8.7140 F   0  0  0  0  0  0  0  0  0  0  0  0
   56.5251   -4.7737   -8.3744 C   0  0  0  0  0  0  0  0  0  0  0  0
   50.6709   -5.3144   -3.4212 C   0  0  0  0  0  0  0  0  0  0  0  0
   49.4737   -5.1152   -3.0918 O   0  0  0  0  0  0  0  0  0  0  0  0
   51.6069   -5.8888   -2.4761 C   0  0  0  0  0  0  0  0  0  0  0  0
   51.9014   -5.2505   -1.4401 O   0  0  0  0  0  0  0  0  0  0  0  0
   52.1937   -7.1523   -2.6986 N   0  0  0  0  0  0  0  0  0  0  0  0
   51.9446   -7.6840   -3.5675 H   0  0  0  0  0  0  0  0  0  0  0  0
   53.1198   -7.6812   -1.7279 C   0  0  0  0  0  0  0  0  0  0  0  0
   54.4555   -8.0907   -2.3440 C   0  0  0  0  0  0  0  0  0  0  0  0
   54.3332   -6.9614   -1.3307 C   0  0  0  0  0  0  0  0  0  0  0  0
   52.5085   -8.6044   -0.7715 C   0  0  0  0  0  0  0  0  0  0  0  0
   52.0298   -9.3424   -0.0285 N   0  0  0  0  0  0  0  0  0  0  0  0
  1  2  1  0  0  0
  2  3  1  0  0  0
  3 22  1  0  0  0
 22 23  2  0  0  0
 22 24  1  0  0  0
 24 25  2  0  0  0
 24 26  1  0  0  0
 26 28  1  0  0  0
 28 29  1  0  0  0
 29 30  1  0  0  0
 28 31  1  0  0  0
 31 32  3  0  0  0
  3  4  2  0  0  0
  4  5  1  0  0  0
  5  6  1  0  0  0
  6  7  1  0  0  0
  7  8  1  0  0  0
  8  9  1  0  0  0
  9 10  1  0  0  0
 10 11  2  0  0  0
 10 12  1  0  0  0
 12 14  1  0  0  0
 14 15  2  0  0  0
 15 16  1  0  0  0
 16 17  2  0  0  0
 17 18  1  0  0  0
 17 19  1  0  0  0
 19 20  1  0  0  0
 19 21  2  0  0  0
  9  2  2  0  0  0
 21 14  1  0  0  0
 30 28  1  0  0  0
  8  4  1  0  0  0
 26 27  1  0  0  0
 12 13  1  0  0  0
M  END
> <minimizedAffinity>
-9.21522

> <CNNscore>
0.4829495251

> <CNNaffinity>
7.0687093735

> <CNN_VS>
3.4138298035

> <CNNaffinity_variance>
0.0596791133

$$$$
[H]c1c([H])c(N([H])C(=O)c2c(C([H])([H])[H])c(C(=O)C(=O)N([H])C3(C#N)C([H])([H])C3([H])[H])c3n2C([H])([H])C([H])([H])C3([H])[H])c([H])c(F)c1F


 32 35  0  0  0  0  0  0  0  0999 V2000
   57.0761   -4.3110   -7.1159 C   0  0  0  0  0  0  0  0  0  0  0  0
   55.6567   -4.6483   -6.9453 C   0  0  0  0  0  0  0  0  0  0  0  0
   54.6780   -4.4381   -7.8825 C   0  0  0  0  0  0  0  0  0  0  0  0
   53.5006   -4.8882   -7.3347 C   0  0  0  0  0  0  0  0  0  0  0  0
   52.0309   -5.0241   -7.6497 C   0  0  0  0  0  0  0  0  0  0  0  0
   51.7001   -6.1965   -6.7569 C   0  0  0  0  0  0  0  0  0  0  0  0
   52.5040   -5.8532   -5.5199 C   0  0  0  0  0  0  0  0  0  0  0  0
   53.7560   -5.3607   -6.0970 N   0  0  0  0  0  0  0  0  0  0  0  0
   55.0635   -5.2332   -5.8147 C   0  0  0  0  0  0  0  0  0  0  0  0
   55.8516   -5.5905   -4.6300 C   0  0  0  0  0  0  0  0  0  0  0  0
   55.9500   -4.7716   -3.6769 O   0  0  0  0  0  0  0  0  0  0  0  0
   56.5085   -6.8310   -4.5157 N   0  0  0  0  0  0  0  0  0  0  0  0
   56.3509   -7.4848   -5.3780 H   0  0  0  0  0  0  0  0  0  0  0  0
   57.2905   -7.3186   -3.4628 C   0  0  0  0  0  0  0  0  0  0  0  0
   58.6322   -7.2353   -3.3721 C   0  0  0  0  0  0  0  0  0  0  0  0
   59.3366   -7.7767   -2.2743 C   0  0  0  0  0  0  0  0  0  0  0  0
   58.6626   -8.4001   -1.2754 C   0  0  0  0  0  0  0  0  0  0  0  0
   59.3774   -8.9112   -0.2303 F   0  0  0  0  0  0  0  0  0  0  0  0
   57.2946   -8.4990   -1.3416 C   0  0  0  0  0  0  0  0  0  0  0  0
   56.6439   -9.1321   -0.3205 F   0  0  0  0  0  0  0  0  0  0  0  0
   56.6291   -7.9693   -2.4119 C   0  0  0  0  0  0  0  0  0  0  0  0
   54.8046   -3.8524   -9.2213 C   0  0  0  0  0  0  0  0  0  0  0  0
   53.9945   -2.9405   -9.5272 O   0  0  0  0  0  0  0  0  0  0  0  0
   55.8112   -4.2887  -10.1677 C   0  0  0  0  0  0  0  0  0  0  0  0
   56.5744   -5.2321   -9.8596 O   0  0  0  0  0  0  0  0  0  0  0  0
   55.9497   -3.6728  -11.4293 N   0  0  0  0  0  0  0  0  0  0  0  0
   55.3086   -2.8828  -11.6839 H   0  0  0  0  0  0  0  0  0  0  0  0
   56.9671   -4.1432  -12.3366 C   0  0  0  0  0  0  0  0  0  0  0  0
   58.1022   -3.1399  -12.5270 C   0  0  0  0  0  0  0  0  0  0  0  0
   58.3138   -4.5032  -11.8837 C   0  0  0  0  0  0  0  0  0  0  0  0
   56.4345   -4.7922  -13.5349 C   0  0  0  0  0  0  0  0  0  0  0  0
   56.0271   -5.2976  -14.4859 N   0  0  0  0  0  0  0  0  0  0  0  0
  1  2  1  0  0  0
  2  3  1  0  0  0
  3 22  1  0  0  0
 22 23  2  0  0  0
 22 24  1  0  0  0
 24 25  2  0  0  0
 24 26  1  0  0  0
 26 28  1  0  0  0
 28 29  1  0  0  0
 29 30  1  0  0  0
 28 31  1  0  0  0
 31 32  3  0  0  0
  3  4  2  0  0  0
  4  5  1  0  0  0
  5  6  1  0  0  0
  6  7  1  0  0  0
  7  8  1  0  0  0
  8  9  1  0  0  0
  9 10  1  0  0  0
 10 11  2  0  0  0
 10 12  1  0  0  0
 12 14  1  0  0  0
 14 15  2  0  0  0
 15 16  1  0  0  0
 16 17  2  0  0  0
 17 18  1  0  0  0
 17 19  1  0  0  0
 19 20  1  0  0  0
 19 21  2  0  0  0
  9  2  2  0  0  0
 21 14  1  0  0  0
 30 28  1  0  0  0
  8  4  1  0  0  0
 26 27  1  0  0  0
 12 13  1  0  0  0
M  END
> <minimizedAffinity>
-7.31989

> <CNNscore>
0.4738207459

> <CNNaffinity>
6.6381316185

> <CNN_VS>
3.1452844143

> <CNNaffinity_variance>
0.1210232973

$$$$
[H]c1c([H])c(N([H])C(=O)c2c(C([H])([H])[H])c(C(=O)C(=O)N([H])C3(C#N)C([H])([H])C3([H])[H])c3n2C([H])([H])C([H])([H])C3([H])[H])c([H])c(F)c1F


 32 35  0  0  0  0  0  0  0  0999 V2000
   55.3303   -5.7907   -5.5288 C   0  0  0  0  0  0  0  0  0  0  0  0
   53.9133   -5.4154   -5.6220 C   0  0  0  0  0  0  0  0  0  0  0  0
   53.0117   -5.4768   -4.5907 C   0  0  0  0  0  0  0  0  0  0  0  0
   51.8073   -5.0422   -5.0899 C   0  0  0  0  0  0  0  0  0  0  0  0
   50.3750   -4.8097   -4.6749 C   0  0  0  0  0  0  0  0  0  0  0  0
   50.0076   -3.7329   -5.6681 C   0  0  0  0  0  0  0  0  0  0  0  0
   50.6915   -4.2474   -6.9178 C   0  0  0  0  0  0  0  0  0  0  0  0
   51.9715   -4.7239   -6.3907 N   0  0  0  0  0  0  0  0  0  0  0  0
   53.2453   -4.9375   -6.7611 C   0  0  0  0  0  0  0  0  0  0  0  0
   53.9407   -4.7500   -8.0392 C   0  0  0  0  0  0  0  0  0  0  0  0
   53.2760   -4.4889   -9.0778 O   0  0  0  0  0  0  0  0  0  0  0  0
   55.3411   -4.8500   -8.1497 N   0  0  0  0  0  0  0  0  0  0  0  0
   55.8363   -5.0573   -7.1969 H   0  0  0  0  0  0  0  0  0  0  0  0
   56.1471   -4.6997   -9.2836 C   0  0  0  0  0  0  0  0  0  0  0  0
   55.7528   -4.2002  -10.4713 C   0  0  0  0  0  0  0  0  0  0  0  0
   56.6386   -4.1057  -11.5672 C   0  0  0  0  0  0  0  0  0  0  0  0
   57.9232   -4.5229  -11.4403 C   0  0  0  0  0  0  0  0  0  0  0  0
   58.7503   -4.4161  -12.5213 F   0  0  0  0  0  0  0  0  0  0  0  0
   58.3523   -5.0359  -10.2410 C   0  0  0  0  0  0  0  0  0  0  0  0
   59.6517   -5.4475  -10.1438 F   0  0  0  0  0  0  0  0  0  0  0  0
   57.4812   -5.1201   -9.1907 C   0  0  0  0  0  0  0  0  0  0  0  0
   53.2329   -5.9121   -3.2075 C   0  0  0  0  0  0  0  0  0  0  0  0
   54.1318   -5.3205   -2.5569 O   0  0  0  0  0  0  0  0  0  0  0  0
   52.4619   -6.9752   -2.5953 C   0  0  0  0  0  0  0  0  0  0  0  0
   51.4651   -7.4347   -3.1977 O   0  0  0  0  0  0  0  0  0  0  0  0
   52.8105   -7.5036   -1.3346 N   0  0  0  0  0  0  0  0  0  0  0  0
   53.6462   -7.1162   -0.8330 H   0  0  0  0  0  0  0  0  0  0  0  0
   52.0116   -8.5614   -0.7671 C   0  0  0  0  0  0  0  0  0  0  0  0
   52.1995   -9.8966   -1.4836 C   0  0  0  0  0  0  0  0  0  0  0  0
   52.6049   -9.6822   -0.0321 C   0  0  0  0  0  0  0  0  0  0  0  0
   50.6428   -8.1582   -0.4435 C   0  0  0  0  0  0  0  0  0  0  0  0
   49.5606   -7.8536   -0.1951 N   0  0  0  0  0  0  0  0  0  0  0  0
  1  2  1  0  0  0
  2  3  1  0  0  0
  3 22  1  0  0  0
 22 23  2  0  0  0
 22 24  1  0  0  0
 24 25  2  0  0  0
 24 26  1  0  0  0
 26 28  1  0  0  0
 28 29  1  0  0  0
 29 30  1  0  0  0
 28 31  1  0  0  0
 31 32  3  0  0  0
  3  4  2  0  0  0
  4  5  1  0  0  0
  5  6  1  0  0  0
  6  7  1  0  0  0
  7  8  1  0  0  0
  8  9  1  0  0  0
  9 10  1  0  0  0
 10 11  2  0  0  0
 10 12  1  0  0  0
 12 14  1  0  0  0
 14 15  2  0  0  0
 15 16  1  0  0  0
 16 17  2  0  0  0
 17 18  1  0  0  0
 17 19  1  0  0  0
 19 20  1  0  0  0
 19 21  2  0  0  0
  9  2  2  0  0  0
 21 14  1  0  0  0
 30 28  1  0  0  0
  8  4  1  0  0  0
 26 27  1  0  0  0
 12 13  1  0  0  0
M  END
> <minimizedAffinity>
-8.42391

> <CNNscore>
0.4092739820

> <CNNaffinity>
6.6918997765

> <CNN_VS>
2.7388205528

> <CNNaffinity_variance>
0.1853753179

$$$$
[H]c1c([H])c(N([H])C(=O)c2c(C([H])([H])[H])c(C(=O)C(=O)N([H])C3(C#N)C([H])([H])C3([H])[H])c3n2C([H])([H])C([H])([H])C3([H])[H])c([H])c(F)c1F


 32 35  0  0  0  0  0  0  0  0999 V2000
   57.4750   -5.3636   -7.7199 C   0  0  0  0  0  0  0  0  0  0  0  0
   56.1302   -4.8582   -8.0257 C   0  0  0  0  0  0  0  0  0  0  0  0
   55.1097   -4.7324   -7.1184 C   0  0  0  0  0  0  0  0  0  0  0  0
   54.0301   -4.2275   -7.8027 C   0  0  0  0  0  0  0  0  0  0  0  0
   52.5931   -3.8147   -7.5968 C   0  0  0  0  0  0  0  0  0  0  0  0
   52.4702   -2.8035   -8.7119 C   0  0  0  0  0  0  0  0  0  0  0  0
   53.2381   -3.4983   -9.8173 C   0  0  0  0  0  0  0  0  0  0  0  0
   54.3841   -4.0498   -9.0924 N   0  0  0  0  0  0  0  0  0  0  0  0
   55.6616   -4.4238   -9.2763 C   0  0  0  0  0  0  0  0  0  0  0  0
   56.5224   -4.4270  -10.4643 C   0  0  0  0  0  0  0  0  0  0  0  0
   57.5935   -5.0912  -10.4559 O   0  0  0  0  0  0  0  0  0  0  0  0
   56.1910   -3.7081  -11.6291 N   0  0  0  0  0  0  0  0  0  0  0  0
   55.2364   -3.1798  -11.5543 H   0  0  0  0  0  0  0  0  0  0  0  0
   56.8974   -3.6098  -12.8329 C   0  0  0  0  0  0  0  0  0  0  0  0
   56.3557   -3.5943  -14.0666 C   0  0  0  0  0  0  0  0  0  0  0  0
   57.1561   -3.5110  -15.2272 C   0  0  0  0  0  0  0  0  0  0  0  0
   58.5067   -3.4436  -15.1176 C   0  0  0  0  0  0  0  0  0  0  0  0
   59.2477   -3.3641  -16.2616 F   0  0  0  0  0  0  0  0  0  0  0  0
   59.0856   -3.4570  -13.8725 C   0  0  0  0  0  0  0  0  0  0  0  0
   60.4481   -3.3876  -13.7944 F   0  0  0  0  0  0  0  0  0  0  0  0
   58.2955   -3.5383  -12.7599 C   0  0  0  0  0  0  0  0  0  0  0  0
   55.1128   -5.0570   -5.6879 C   0  0  0  0  0  0  0  0  0  0  0  0
   56.0990   -4.6653   -5.0132 O   0  0  0  0  0  0  0  0  0  0  0  0
   54.0379   -5.7957   -5.0569 C   0  0  0  0  0  0  0  0  0  0  0  0
   53.5418   -6.7815   -5.6483 O   0  0  0  0  0  0  0  0  0  0  0  0
   53.5381   -5.4276   -3.7900 N   0  0  0  0  0  0  0  0  0  0  0  0
   53.9561   -4.6013   -3.2977 H   0  0  0  0  0  0  0  0  0  0  0  0
   52.4671   -6.1947   -3.2037 C   0  0  0  0  0  0  0  0  0  0  0  0
   51.4352   -5.3241   -2.4904 C   0  0  0  0  0  0  0  0  0  0  0  0
   51.0972   -6.1505   -3.7233 C   0  0  0  0  0  0  0  0  0  0  0  0
   52.9164   -7.4056   -2.5163 C   0  0  0  0  0  0  0  0  0  0  0  0
   53.2641   -8.3670   -1.9864 N   0  0  0  0  0  0  0  0  0  0  0  0
  1  2  1  0  0  0
  2  3  1  0  0  0
  3 22  1  0  0  0
 22 23  2  0  0  0
 22 24  1  0  0  0
 24 25  2  0  0  0
 24 26  1  0  0  0
 26 28  1  0  0  0
 28 29  1  0  0  0
 29 30  1  0  0  0
 28 31  1  0  0  0
 31 32  3  0  0  0
  3  4  2  0  0  0
  4  5  1  0  0  0
  5  6  1  0  0  0
  6  7  1  0  0  0
  7  8  1  0  0  0
  8  9  1  0  0  0
  9 10  1  0  0  0
 10 11  2  0  0  0
 10 12  1  0  0  0
 12 14  1  0  0  0
 14 15  2  0  0  0
 15 16  1  0  0  0
 16 17  2  0  0  0
 17 18  1  0  0  0
 17 19  1  0  0  0
 19 20  1  0  0  0
 19 21  2  0  0  0
  9  2  2  0  0  0
 21 14  1  0  0  0
 30 28  1  0  0  0
  8  4  1  0  0  0
 26 27  1  0  0  0
 12 13  1  0  0  0
M  END
> <minimizedAffinity>
-8.32547

> <CNNscore>
0.3865132034

> <CNNaffinity>
6.5240221024

> <CNN_VS>
2.5216207504

> <CNNaffinity_variance>
0.0679979622

$$$$
[H]c1c([H])c(N([H])C(=O)c2c(C([H])([H])[H])c(C(=O)C(=O)N([H])C3(C#N)C([H])([H])C3([H])[H])c3n2C([H])([H])C([H])([H])C3([H])[H])c([H])c(F)c1F


 32 35  0  0  0  0  0  0  0  0999 V2000
   52.6588   -4.3090   -8.1970 C   0  0  0  0  0  0  0  0  0  0  0  0
   53.6789   -4.8418   -7.2843 C   0  0  0  0  0  0  0  0  0  0  0  0
   53.4205   -5.4710   -6.0936 C   0  0  0  0  0  0  0  0  0  0  0  0
   54.6370   -5.8120   -5.5526 C   0  0  0  0  0  0  0  0  0  0  0  0
   55.2423   -6.4803   -4.3424 C   0  0  0  0  0  0  0  0  0  0  0  0
   56.5352   -6.9641   -4.9552 C   0  0  0  0  0  0  0  0  0  0  0  0
   56.9051   -5.7785   -5.8222 C   0  0  0  0  0  0  0  0  0  0  0  0
   55.6103   -5.4020   -6.3923 N   0  0  0  0  0  0  0  0  0  0  0  0
   55.0708   -4.8011   -7.4662 C   0  0  0  0  0  0  0  0  0  0  0  0
   55.6739   -4.1936   -8.6577 C   0  0  0  0  0  0  0  0  0  0  0  0
   55.7445   -2.9386   -8.7493 O   0  0  0  0  0  0  0  0  0  0  0  0
   56.1854   -4.9706   -9.7151 N   0  0  0  0  0  0  0  0  0  0  0  0
   56.1016   -6.0469   -9.5407 H   0  0  0  0  0  0  0  0  0  0  0  0
   56.7856   -4.5485  -10.9065 C   0  0  0  0  0  0  0  0  0  0  0  0
   56.1449   -4.0277  -11.9714 C   0  0  0  0  0  0  0  0  0  0  0  0
   56.8385   -3.6472  -13.1413 C   0  0  0  0  0  0  0  0  0  0  0  0
   58.1844   -3.8019  -13.2137 C   0  0  0  0  0  0  0  0  0  0  0  0
   58.8206   -3.4229  -14.3608 F   0  0  0  0  0  0  0  0  0  0  0  0
   58.8630   -4.3297  -12.1430 C   0  0  0  0  0  0  0  0  0  0  0  0
   60.2181   -4.4730  -12.2458 F   0  0  0  0  0  0  0  0  0  0  0  0
   58.1755   -4.6928  -11.0185 C   0  0  0  0  0  0  0  0  0  0  0  0
   52.1226   -5.7519   -5.4707 C   0  0  0  0  0  0  0  0  0  0  0  0
   52.0997   -6.6173   -4.5585 O   0  0  0  0  0  0  0  0  0  0  0  0
   50.9060   -5.0747   -5.8715 C   0  0  0  0  0  0  0  0  0  0  0  0
   49.9365   -5.7500   -6.2856 O   0  0  0  0  0  0  0  0  0  0  0  0
   50.7907   -3.6702   -5.8051 N   0  0  0  0  0  0  0  0  0  0  0  0
   51.6050   -3.1078   -5.4577 H   0  0  0  0  0  0  0  0  0  0  0  0
   49.5588   -3.0429   -6.2154 C   0  0  0  0  0  0  0  0  0  0  0  0
   49.7798   -1.8596   -7.1547 C   0  0  0  0  0  0  0  0  0  0  0  0
   49.0579   -3.1270   -7.5904 C   0  0  0  0  0  0  0  0  0  0  0  0
   48.5950   -2.8686   -5.1285 C   0  0  0  0  0  0  0  0  0  0  0  0
   47.8476   -2.7264   -4.2642 N   0  0  0  0  0  0  0  0  0  0  0  0
  1  2  1  0  0  0
  2  3  1  0  0  0
  3 22  1  0  0  0
 22 23  2  0  0  0
 22 24  1  0  0  0
 24 25  2  0  0  0
 24 26  1  0  0  0
 26 28  1  0  0  0
 28 29  1  0  0  0
 29 30  1  0  0  0
 28 31  1  0  0  0
 31 32  3  0  0  0
  3  4  2  0  0  0
  4  5  1  0  0  0
  5  6  1  0  0  0
  6  7  1  0  0  0
  7  8  1  0  0  0
  8  9  1  0  0  0
  9 10  1  0  0  0
 10 11  2  0  0  0
 10 12  1  0  0  0
 12 14  1  0  0  0
 14 15  2  0  0  0
 15 16  1  0  0  0
 16 17  2  0  0  0
 17 18  1  0  0  0
 17 19  1  0  0  0
 19 20  1  0  0  0
 19 21  2  0  0  0
  9  2  2  0  0  0
 21 14  1  0  0  0
 30 28  1  0  0  0
  8  4  1  0  0  0
 26 27  1  0  0  0
 12 13  1  0  0  0
M  END
> <minimizedAffinity>
-8.09888

> <CNNscore>
0.3810330927

> <CNNaffinity>
6.9070076942

> <CNN_VS>
2.6317985058

> <CNNaffinity_variance>
0.0686499849

$$$$
[H]c1c([H])c(N([H])C(=O)c2c(C([H])([H])[H])c(C(=O)C(=O)N([H])C3(C#N)C([H])([H])C3([H])[H])c3n2C([H])([H])C([H])([H])C3([H])[H])c([H])c(F)c1F


 32 35  0  0  0  0  0  0  0  0999 V2000
   55.7572   -3.0141  -11.4225 C   0  0  0  0  0  0  0  0  0  0  0  0
   56.7650   -3.8714  -10.7848 C   0  0  0  0  0  0  0  0  0  0  0  0
   57.9354   -4.2820  -11.3697 C   0  0  0  0  0  0  0  0  0  0  0  0
   58.5882   -5.0627  -10.4462 C   0  0  0  0  0  0  0  0  0  0  0  0
   59.8507   -5.8703  -10.2685 C   0  0  0  0  0  0  0  0  0  0  0  0
   59.9830   -5.7841   -8.7664 C   0  0  0  0  0  0  0  0  0  0  0  0
   58.5386   -5.9450   -8.3398 C   0  0  0  0  0  0  0  0  0  0  0  0
   57.8356   -5.1252   -9.3281 N   0  0  0  0  0  0  0  0  0  0  0  0
   56.7087   -4.4114   -9.4896 C   0  0  0  0  0  0  0  0  0  0  0  0
   55.5755   -4.1501   -8.5953 C   0  0  0  0  0  0  0  0  0  0  0  0
   55.7809   -3.6357   -7.4632 O   0  0  0  0  0  0  0  0  0  0  0  0
   54.2498   -4.4544   -8.9605 N   0  0  0  0  0  0  0  0  0  0  0  0
   54.1642   -4.8766   -9.9657 H   0  0  0  0  0  0  0  0  0  0  0  0
   53.0712   -4.2683   -8.2295 C   0  0  0  0  0  0  0  0  0  0  0  0
   52.4779   -5.1866   -7.4419 C   0  0  0  0  0  0  0  0  0  0  0  0
   51.2746   -4.9098   -6.7565 C   0  0  0  0  0  0  0  0  0  0  0  0
   50.6859   -3.6938   -6.8814 C   0  0  0  0  0  0  0  0  0  0  0  0
   49.5233   -3.4627   -6.2038 F   0  0  0  0  0  0  0  0  0  0  0  0
   51.2690   -2.7387   -7.6772 C   0  0  0  0  0  0  0  0  0  0  0  0
   50.6527   -1.5238   -7.7829 F   0  0  0  0  0  0  0  0  0  0  0  0
   52.4338   -3.0241   -8.3335 C   0  0  0  0  0  0  0  0  0  0  0  0
   58.4418   -3.9789  -12.7125 C   0  0  0  0  0  0  0  0  0  0  0  0
   59.6077   -3.5147  -12.7944 O   0  0  0  0  0  0  0  0  0  0  0  0
   57.6522   -4.1964  -13.9078 C   0  0  0  0  0  0  0  0  0  0  0  0
   56.8667   -5.1701  -13.9547 O   0  0  0  0  0  0  0  0  0  0  0  0
   57.7499   -3.3341  -15.0200 N   0  0  0  0  0  0  0  0  0  0  0  0
   58.4090   -2.5194  -14.9770 H   0  0  0  0  0  0  0  0  0  0  0  0
   56.9428   -3.5927  -16.1867 C   0  0  0  0  0  0  0  0  0  0  0  0
   55.4449   -3.5456  -15.8943 C   0  0  0  0  0  0  0  0  0  0  0  0
   56.1296   -2.5519  -16.8222 C   0  0  0  0  0  0  0  0  0  0  0  0
   57.4333   -4.6983  -17.0101 C   0  0  0  0  0  0  0  0  0  0  0  0
   57.8227   -5.5760  -17.6454 N   0  0  0  0  0  0  0  0  0  0  0  0
  1  2  1  0  0  0
  2  3  1  0  0  0
  3 22  1  0  0  0
 22 23  2  0  0  0
 22 24  1  0  0  0
 24 25  2  0  0  0
 24 26  1  0  0  0
 26 28  1  0  0  0
 28 29  1  0  0  0
 29 30  1  0  0  0
 28 31  1  0  0  0
 31 32  3  0  0  0
  3  4  2  0  0  0
  4  5  1  0  0  0
  5  6  1  0  0  0
  6  7  1  0  0  0
  7  8  1  0  0  0
  8  9  1  0  0  0
  9 10  1  0  0  0
 10 11  2  0  0  0
 10 12  1  0  0  0
 12 14  1  0  0  0
 14 15  2  0  0  0
 15 16  1  0  0  0
 16 17  2  0  0  0
 17 18  1  0  0  0
 17 19  1  0  0  0
 19 20  1  0  0  0
 19 21  2  0  0  0
  9  2  2  0  0  0
 21 14  1  0  0  0
 30 28  1  0  0  0
  8  4  1  0  0  0
 26 27  1  0  0  0
 12 13  1  0  0  0
M  END
> <minimizedAffinity>
-7.22012

> <CNNscore>
0.3759673536

> <CNNaffinity>
6.3211216927

> <CNN_VS>
2.3765354156

> <CNNaffinity_variance>
0.0986347347

$$$$
[H]c1nc([H])c(-c2nc(-c3c([H])nn(C([H])([H])[H])c3[H])c([H])c3nc(N4C([H])([H])[C@]([H])(C([H])([H])[H])N(C([H])([H])[H])C([H])([H])[C@@]4([H])C([H])([H])[H])n(C([H])([H])[C@]4([H])C([H])([H])C([H])([H])[C@@]([H])(C([H])([H])[H])C([H])([H])C4([H])[H])c23)c([H])c1Cl


 39 44  0  0  0  0  0  0  0  0999 V2000
   56.6025   -6.4890   -4.4770 C   0  0  0  0  0  0  0  0  0  0  0  0
   57.8249   -6.9477   -4.6828 N   0  0  0  0  0  0  0  0  0  0  0  0
   58.1724   -6.5339   -5.8951 C   0  0  0  0  0  0  0  0  0  0  0  0
   59.3635   -6.7546   -6.5544 C   0  0  0  0  0  0  0  0  0  0  0  0
   59.5905   -6.2581   -7.8207 C   0  0  0  0  0  0  0  0  0  0  0  0
   58.5956   -5.5635   -8.3586 N   0  0  0  0  0  0  0  0  0  0  0  0
   57.3863   -5.3282   -7.7158 C   0  0  0  0  0  0  0  0  0  0  0  0
   57.1334   -5.8030   -6.4502 C   0  0  0  0  0  0  0  0  0  0  0  0
   56.1433   -5.7679   -5.5582 N   0  0  0  0  0  0  0  0  0  0  0  0
   53.9342   -4.8880   -0.7211 C   0  0  0  0  0  0  0  0  0  0  0  0
   54.0791   -5.9049   -1.8633 C   0  0  0  0  0  0  0  0  0  0  0  0
   55.4427   -5.6562   -2.4569 C   0  0  0  0  0  0  0  0  0  0  0  0
   55.8966   -6.7332   -3.2974 N   0  0  0  0  0  0  0  0  0  0  0  0
   55.5729   -8.0778   -2.8971 C   0  0  0  0  0  0  0  0  0  0  0  0
   54.6042   -8.7610   -3.8247 C   0  0  0  0  0  0  0  0  0  0  0  0
   55.0116   -8.1131   -1.4837 C   0  0  0  0  0  0  0  0  0  0  0  0
   53.9466   -7.1971   -1.2676 N   0  0  0  0  0  0  0  0  0  0  0  0
   52.6394   -7.7432   -1.4699 C   0  0  0  0  0  0  0  0  0  0  0  0
   56.4287   -4.6023   -8.5134 C   0  0  0  0  0  0  0  0  0  0  0  0
   55.6776   -3.6342   -7.9108 C   0  0  0  0  0  0  0  0  0  0  0  0
   54.8978   -2.8317   -8.6329 N   0  0  0  0  0  0  0  0  0  0  0  0
   54.8371   -2.9614   -9.9664 C   0  0  0  0  0  0  0  0  0  0  0  0
   55.5799   -3.9274  -10.6198 C   0  0  0  0  0  0  0  0  0  0  0  0
   55.4527   -4.0416  -12.3605 Cl  0  0  0  0  0  0  0  0  0  0  0  0
   56.3755   -4.7421   -9.8570 C   0  0  0  0  0  0  0  0  0  0  0  0
   60.8582   -6.5141   -8.4721 C   0  0  0  0  0  0  0  0  0  0  0  0
   62.0343   -6.9108   -7.8842 C   0  0  0  0  0  0  0  0  0  0  0  0
   62.9482   -7.0288   -8.8694 N   0  0  0  0  0  0  0  0  0  0  0  0
   62.4272   -6.7316  -10.0504 N   0  0  0  0  0  0  0  0  0  0  0  0
   63.0914   -6.7405  -11.3566 C   0  0  0  0  0  0  0  0  0  0  0  0
   61.1328   -6.4114   -9.8138 C   0  0  0  0  0  0  0  0  0  0  0  0
   54.8917   -5.1635   -5.6335 C   0  0  0  0  0  0  0  0  0  0  0  0
   53.6644   -5.9288   -5.8415 C   0  0  0  0  0  0  0  0  0  0  0  0
   52.4671   -5.4044   -5.1232 C   0  0  0  0  0  0  0  0  0  0  0  0
   51.2603   -6.3381   -5.3964 C   0  0  0  0  0  0  0  0  0  0  0  0
   50.9313   -6.1326   -6.8589 C   0  0  0  0  0  0  0  0  0  0  0  0
   49.6569   -6.8428   -7.2537 C   0  0  0  0  0  0  0  0  0  0  0  0
   52.1082   -6.6406   -7.6615 C   0  0  0  0  0  0  0  0  0  0  0  0
   53.2939   -5.7555   -7.3391 C   0  0  0  0  0  0  0  0  0  0  0  0
 10 11  1  0  0  0
 11 12  1  0  0  0
 12 13  1  0  0  0
 13 14  1  0  0  0
 14 15  1  0  0  0
 14 16  1  0  0  0
 16 17  1  0  0  0
 17 18  1  0  0  0
 13  1  1  0  0  0
  1  2  2  0  0  0
  2  3  1  0  0  0
  3  4  2  0  0  0
  4  5  1  0  0  0
  5  6  2  0  0  0
  6  7  1  0  0  0
  7 19  1  0  0  0
 19 20  2  0  0  0
 20 21  1  0  0  0
 21 22  2  0  0  0
 22 23  1  0  0  0
 23 24  1  0  0  0
 23 25  2  0  0  0
  7  8  2  0  0  0
  8  9  1  0  0  0
  9 32  1  0  0  0
 32 33  1  0  0  0
 33 34  1  0  0  0
 34 35  1  0  0  0
 35 36  1  0  0  0
 36 37  1  0  0  0
 36 38  1  0  0  0
 38 39  1  0  0  0
  5 26  1  0  0  0
 26 27  1  0  0  0
 27 28  2  0  0  0
 28 29  1  0  0  0
 29 30  1  0  0  0
 29 31  1  0  0  0
 17 11  1  0  0  0
  9  1  1  0  0  0
 39 33  1  0  0  0
 31 26  2  0  0  0
  8  3  1  0  0  0
 25 19  1  0  0  0
M  END
> <minimizedAffinity>
-2.55205

> <CNNscore>
0.4147239923

> <CNNaffinity>
7.7805304527

> <CNN_VS>
3.2267725468

> <CNNaffinity_variance>
0.1966859996

$$$$
[H]c1nc([H])c(-c2nc(-c3c([H])nn(C([H])([H])[H])c3[H])c([H])c3nc(N4C([H])([H])[C@]([H])(C([H])([H])[H])N(C([H])([H])[H])C([H])([H])[C@@]4([H])C([H])([H])[H])n(C([H])([H])[C@]4([H])C([H])([H])C([H])([H])[C@@]([H])(C([H])([H])[H])C([H])([H])C4([H])[H])c23)c([H])c1Cl


 39 44  0  0  0  0  0  0  0  0999 V2000
   56.4728   -5.6532   -5.9769 C   0  0  0  0  0  0  0  0  0  0  0  0
   57.5721   -5.7851   -6.6988 N   0  0  0  0  0  0  0  0  0  0  0  0
   57.3013   -5.2456   -7.8808 C   0  0  0  0  0  0  0  0  0  0  0  0
   58.1384   -5.1350   -8.9713 C   0  0  0  0  0  0  0  0  0  0  0  0
   57.7210   -4.5430  -10.1448 C   0  0  0  0  0  0  0  0  0  0  0  0
   56.4721   -4.0942  -10.1560 N   0  0  0  0  0  0  0  0  0  0  0  0
   55.6090   -4.1943   -9.0715 C   0  0  0  0  0  0  0  0  0  0  0  0
   55.9985   -4.7717   -7.8857 C   0  0  0  0  0  0  0  0  0  0  0  0
   55.4736   -5.0222   -6.6862 N   0  0  0  0  0  0  0  0  0  0  0  0
   55.7431   -4.8170   -1.2274 C   0  0  0  0  0  0  0  0  0  0  0  0
   55.3797   -5.6538   -2.4633 C   0  0  0  0  0  0  0  0  0  0  0  0
   56.3269   -5.2068   -3.5481 C   0  0  0  0  0  0  0  0  0  0  0  0
   56.3763   -6.1161   -4.6632 N   0  0  0  0  0  0  0  0  0  0  0  0
   56.2928   -7.5258   -4.3826 C   0  0  0  0  0  0  0  0  0  0  0  0
   55.0245   -8.1615   -4.8852 C   0  0  0  0  0  0  0  0  0  0  0  0
   56.4263   -7.8010   -2.8925 C   0  0  0  0  0  0  0  0  0  0  0  0
   55.5539   -7.0211   -2.0859 N   0  0  0  0  0  0  0  0  0  0  0  0
   54.3059   -7.6494   -1.7767 C   0  0  0  0  0  0  0  0  0  0  0  0
   54.2810   -3.6945   -9.3297 C   0  0  0  0  0  0  0  0  0  0  0  0
   53.5326   -4.2999  -10.2982 C   0  0  0  0  0  0  0  0  0  0  0  0
   52.2505   -3.9807  -10.4645 N   0  0  0  0  0  0  0  0  0  0  0  0
   51.6720   -3.0576   -9.6822 C   0  0  0  0  0  0  0  0  0  0  0  0
   52.3906   -2.4186   -8.6887 C   0  0  0  0  0  0  0  0  0  0  0  0
   51.5740   -1.2246   -7.7054 Cl  0  0  0  0  0  0  0  0  0  0  0  0
   53.7084   -2.7626   -8.5353 C   0  0  0  0  0  0  0  0  0  0  0  0
   58.6370   -4.4480  -11.2624 C   0  0  0  0  0  0  0  0  0  0  0  0
   59.8385   -5.0954  -11.4150 C   0  0  0  0  0  0  0  0  0  0  0  0
   60.3462   -4.7107  -12.6042 N   0  0  0  0  0  0  0  0  0  0  0  0
   59.5419   -3.8573  -13.2200 N   0  0  0  0  0  0  0  0  0  0  0  0
   59.7362   -3.2152  -14.5228 C   0  0  0  0  0  0  0  0  0  0  0  0
   58.4805   -3.6886  -12.3959 C   0  0  0  0  0  0  0  0  0  0  0  0
   54.2035   -4.7444   -6.1891 C   0  0  0  0  0  0  0  0  0  0  0  0
   52.9848   -5.1622   -6.8786 C   0  0  0  0  0  0  0  0  0  0  0  0
   52.8923   -6.6237   -7.1619 C   0  0  0  0  0  0  0  0  0  0  0  0
   51.5792   -6.9102   -7.9345 C   0  0  0  0  0  0  0  0  0  0  0  0
   50.4741   -6.6590   -6.9320 C   0  0  0  0  0  0  0  0  0  0  0  0
   49.1220   -7.0639   -7.4725 C   0  0  0  0  0  0  0  0  0  0  0  0
   50.5037   -5.1867   -6.5877 C   0  0  0  0  0  0  0  0  0  0  0  0
   51.8174   -4.9103   -5.8868 C   0  0  0  0  0  0  0  0  0  0  0  0
 10 11  1  0  0  0
 11 12  1  0  0  0
 12 13  1  0  0  0
 13 14  1  0  0  0
 14 15  1  0  0  0
 14 16  1  0  0  0
 16 17  1  0  0  0
 17 18  1  0  0  0
 13  1  1  0  0  0
  1  2  2  0  0  0
  2  3  1  0  0  0
  3  4  2  0  0  0
  4  5  1  0  0  0
  5  6  2  0  0  0
  6  7  1  0  0  0
  7 19  1  0  0  0
 19 20  2  0  0  0
 20 21  1  0  0  0
 21 22  2  0  0  0
 22 23  1  0  0  0
 23 24  1  0  0  0
 23 25  2  0  0  0
  7  8  2  0  0  0
  8  9  1  0  0  0
  9 32  1  0  0  0
 32 33  1  0  0  0
 33 34  1  0  0  0
 34 35  1  0  0  0
 35 36  1  0  0  0
 36 37  1  0  0  0
 36 38  1  0  0  0
 38 39  1  0  0  0
  5 26  1  0  0  0
 26 27  1  0  0  0
 27 28  2  0  0  0
 28 29  1  0  0  0
 29 30  1  0  0  0
 29 31  1  0  0  0
 17 11  1  0  0  0
  9  1  1  0  0  0
 39 33  1  0  0  0
 31 26  2  0  0  0
  8  3  1  0  0  0
 25 19  1  0  0  0
M  END
> <minimizedAffinity>
-3.58482

> <CNNscore>
0.4069759846

> <CNNaffinity>
7.8297181129

> <CNN_VS>
3.1865072250

> <CNNaffinity_variance>
0.4326948524

$$$$
[H]c1nc([H])c(-c2nc(-c3c([H])nn(C([H])([H])[H])c3[H])c([H])c3nc(N4C([H])([H])[C@]([H])(C([H])([H])[H])N(C([H])([H])[H])C([H])([H])[C@@]4([H])C([H])([H])[H])n(C([H])([H])[C@]4([H])C([H])([H])C([H])([H])[C@@]([H])(C([H])([H])[H])C([H])([H])C4([H])[H])c23)c([H])c1Cl


 39 44  0  0  0  0  0  0  0  0999 V2000
   56.8277   -5.8626   -6.8537 C   0  0  0  0  0  0  0  0  0  0  0  0
   58.0839   -6.2605   -6.7510 N   0  0  0  0  0  0  0  0  0  0  0  0
   58.6417   -6.0221   -7.9316 C   0  0  0  0  0  0  0  0  0  0  0  0
   59.9450   -6.2604   -8.3142 C   0  0  0  0  0  0  0  0  0  0  0  0
   60.3917   -5.9578   -9.5833 C   0  0  0  0  0  0  0  0  0  0  0  0
   59.4923   -5.4305  -10.4046 N   0  0  0  0  0  0  0  0  0  0  0  0
   58.1736   -5.1818  -10.0438 C   0  0  0  0  0  0  0  0  0  0  0  0
   57.7009   -5.4649   -8.7838 C   0  0  0  0  0  0  0  0  0  0  0  0
   56.5570   -5.3580   -8.1075 N   0  0  0  0  0  0  0  0  0  0  0  0
   54.4422   -8.5479   -3.5540 C   0  0  0  0  0  0  0  0  0  0  0  0
   55.3009   -7.3050   -3.8324 C   0  0  0  0  0  0  0  0  0  0  0  0
   55.4509   -7.2434   -5.3315 C   0  0  0  0  0  0  0  0  0  0  0  0
   55.9183   -5.9646   -5.7993 N   0  0  0  0  0  0  0  0  0  0  0  0
   55.4389   -4.7875   -5.1228 C   0  0  0  0  0  0  0  0  0  0  0  0
   56.5112   -4.0586   -4.3584 C   0  0  0  0  0  0  0  0  0  0  0  0
   54.2973   -5.1219   -4.1747 C   0  0  0  0  0  0  0  0  0  0  0  0
   54.5854   -6.1943   -3.2876 N   0  0  0  0  0  0  0  0  0  0  0  0
   55.1126   -5.7941   -2.0189 C   0  0  0  0  0  0  0  0  0  0  0  0
   57.3596   -4.6624  -11.1151 C   0  0  0  0  0  0  0  0  0  0  0  0
   57.0193   -3.3402  -11.0943 C   0  0  0  0  0  0  0  0  0  0  0  0
   56.4068   -2.7800  -12.1356 N   0  0  0  0  0  0  0  0  0  0  0  0
   56.1132   -3.5066  -13.2240 C   0  0  0  0  0  0  0  0  0  0  0  0
   56.4386   -4.8489  -13.2899 C   0  0  0  0  0  0  0  0  0  0  0  0
   56.0260   -5.7369  -14.7392 Cl  0  0  0  0  0  0  0  0  0  0  0  0
   57.0686   -5.4046  -12.2069 C   0  0  0  0  0  0  0  0  0  0  0  0
   61.7702   -6.2242   -9.9382 C   0  0  0  0  0  0  0  0  0  0  0  0
   62.8624   -6.2218   -9.1057 C   0  0  0  0  0  0  0  0  0  0  0  0
   63.9371   -6.5237   -9.8632 N   0  0  0  0  0  0  0  0  0  0  0  0
   63.5973   -6.7188  -11.1285 N   0  0  0  0  0  0  0  0  0  0  0  0
   64.4708   -7.0634  -12.2535 C   0  0  0  0  0  0  0  0  0  0  0  0
   62.2568   -6.5350  -11.1843 C   0  0  0  0  0  0  0  0  0  0  0  0
   55.3205   -4.8637   -8.5125 C   0  0  0  0  0  0  0  0  0  0  0  0
   54.1529   -4.8613   -7.6340 C   0  0  0  0  0  0  0  0  0  0  0  0
   53.1441   -3.8039   -7.9318 C   0  0  0  0  0  0  0  0  0  0  0  0
   51.9938   -3.8918   -6.8965 C   0  0  0  0  0  0  0  0  0  0  0  0
   51.2773   -5.1850   -7.2184 C   0  0  0  0  0  0  0  0  0  0  0  0
   50.0107   -5.3425   -6.4088 C   0  0  0  0  0  0  0  0  0  0  0  0
   52.2429   -6.3160   -6.9434 C   0  0  0  0  0  0  0  0  0  0  0  0
   53.3901   -6.1822   -7.9229 C   0  0  0  0  0  0  0  0  0  0  0  0
 10 11  1  0  0  0
 11 12  1  0  0  0
 12 13  1  0  0  0
 13 14  1  0  0  0
 14 15  1  0  0  0
 14 16  1  0  0  0
 16 17  1  0  0  0
 17 18  1  0  0  0
 13  1  1  0  0  0
  1  2  2  0  0  0
  2  3  1  0  0  0
  3  4  2  0  0  0
  4  5  1  0  0  0
  5  6  2  0  0  0
  6  7  1  0  0  0
  7 19  1  0  0  0
 19 20  2  0  0  0
 20 21  1  0  0  0
 21 22  2  0  0  0
 22 23  1  0  0  0
 23 24  1  0  0  0
 23 25  2  0  0  0
  7  8  2  0  0  0
  8  9  1  0  0  0
  9 32  1  0  0  0
 32 33  1  0  0  0
 33 34  1  0  0  0
 34 35  1  0  0  0
 35 36  1  0  0  0
 36 37  1  0  0  0
 36 38  1  0  0  0
 38 39  1  0  0  0
  5 26  1  0  0  0
 26 27  1  0  0  0
 27 28  2  0  0  0
 28 29  1  0  0  0
 29 30  1  0  0  0
 29 31  1  0  0  0
 17 11  1  0  0  0
  9  1  1  0  0  0
 39 33  1  0  0  0
 31 26  2  0  0  0
  8  3  1  0  0  0
 25 19  1  0  0  0
M  END
> <minimizedAffinity>
-4.05858

> <CNNscore>
0.4023975134

> <CNNaffinity>
7.8060264587

> <CNN_VS>
3.1411256790

> <CNNaffinity_variance>
0.1635959893

$$$$
[H]c1nc([H])c(-c2nc(-c3c([H])nn(C([H])([H])[H])c3[H])c([H])c3nc(N4C([H])([H])[C@]([H])(C([H])([H])[H])N(C([H])([H])[H])C([H])([H])[C@@]4([H])C([H])([H])[H])n(C([H])([H])[C@]4([H])C([H])([H])C([H])([H])[C@@]([H])(C([H])([H])[H])C([H])([H])C4([H])[H])c23)c([H])c1Cl


 39 44  0  0  0  0  0  0  0  0999 V2000
   55.5493   -5.8438   -4.8774 C   0  0  0  0  0  0  0  0  0  0  0  0
   56.7599   -6.2734   -5.1886 N   0  0  0  0  0  0  0  0  0  0  0  0
   56.9877   -5.8604   -6.4292 C   0  0  0  0  0  0  0  0  0  0  0  0
   58.1207   -6.0563   -7.1907 C   0  0  0  0  0  0  0  0  0  0  0  0
   58.2216   -5.5641   -8.4749 C   0  0  0  0  0  0  0  0  0  0  0  0
   57.1655   -4.8988   -8.9259 N   0  0  0  0  0  0  0  0  0  0  0  0
   56.0124   -4.6887   -8.1793 C   0  0  0  0  0  0  0  0  0  0  0  0
   55.8852   -5.1599   -6.8937 C   0  0  0  0  0  0  0  0  0  0  0  0
   54.9776   -5.1428   -5.9173 N   0  0  0  0  0  0  0  0  0  0  0  0
   52.8750   -8.6895   -1.9551 C   0  0  0  0  0  0  0  0  0  0  0  0
   54.1676   -7.8809   -2.1422 C   0  0  0  0  0  0  0  0  0  0  0  0
   54.0125   -7.1682   -3.4619 C   0  0  0  0  0  0  0  0  0  0  0  0
   54.9575   -6.0965   -3.6384 N   0  0  0  0  0  0  0  0  0  0  0  0
   55.2982   -5.3067   -2.4838 C   0  0  0  0  0  0  0  0  0  0  0  0
   56.7239   -5.4863   -2.0360 C   0  0  0  0  0  0  0  0  0  0  0  0
   54.3720   -5.6084   -1.3155 C   0  0  0  0  0  0  0  0  0  0  0  0
   54.2501   -6.9941   -1.0246 N   0  0  0  0  0  0  0  0  0  0  0  0
   55.1581   -7.4772   -0.0296 C   0  0  0  0  0  0  0  0  0  0  0  0
   54.9696   -3.9931   -8.8925 C   0  0  0  0  0  0  0  0  0  0  0  0
   54.8729   -4.1695  -10.2431 C   0  0  0  0  0  0  0  0  0  0  0  0
   53.8364   -3.6783  -10.9197 N   0  0  0  0  0  0  0  0  0  0  0  0
   52.8686   -3.0009  -10.2847 C   0  0  0  0  0  0  0  0  0  0  0  0
   52.9243   -2.7977   -8.9181 C   0  0  0  0  0  0  0  0  0  0  0  0
   51.6287   -1.9050   -8.1542 Cl  0  0  0  0  0  0  0  0  0  0  0  0
   53.9999   -3.3120   -8.2419 C   0  0  0  0  0  0  0  0  0  0  0  0
   59.4327   -5.7934   -9.2350 C   0  0  0  0  0  0  0  0  0  0  0  0
   59.6339   -5.5656  -10.5743 C   0  0  0  0  0  0  0  0  0  0  0  0
   60.9066   -5.9194  -10.8483 N   0  0  0  0  0  0  0  0  0  0  0  0
   61.5300   -6.3590   -9.7654 N   0  0  0  0  0  0  0  0  0  0  0  0
   62.9121   -6.8324   -9.6507 C   0  0  0  0  0  0  0  0  0  0  0  0
   60.6245   -6.2847   -8.7612 C   0  0  0  0  0  0  0  0  0  0  0  0
   53.7093   -4.5704   -5.8842 C   0  0  0  0  0  0  0  0  0  0  0  0
   52.4880   -5.3722   -5.9128 C   0  0  0  0  0  0  0  0  0  0  0  0
   51.2199   -4.5880   -5.8737 C   0  0  0  0  0  0  0  0  0  0  0  0
   50.0171   -5.5657   -5.8603 C   0  0  0  0  0  0  0  0  0  0  0  0
   50.0149   -6.2003   -7.2338 C   0  0  0  0  0  0  0  0  0  0  0  0
   48.7910   -7.0591   -7.4545 C   0  0  0  0  0  0  0  0  0  0  0  0
   51.2819   -7.0174   -7.3550 C   0  0  0  0  0  0  0  0  0  0  0  0
   52.4498   -6.0546   -7.3068 C   0  0  0  0  0  0  0  0  0  0  0  0
 10 11  1  0  0  0
 11 12  1  0  0  0
 12 13  1  0  0  0
 13 14  1  0  0  0
 14 15  1  0  0  0
 14 16  1  0  0  0
 16 17  1  0  0  0
 17 18  1  0  0  0
 13  1  1  0  0  0
  1  2  2  0  0  0
  2  3  1  0  0  0
  3  4  2  0  0  0
  4  5  1  0  0  0
  5  6  2  0  0  0
  6  7  1  0  0  0
  7 19  1  0  0  0
 19 20  2  0  0  0
 20 21  1  0  0  0
 21 22  2  0  0  0
 22 23  1  0  0  0
 23 24  1  0  0  0
 23 25  2  0  0  0
  7  8  2  0  0  0
  8  9  1  0  0  0
  9 32  1  0  0  0
 32 33  1  0  0  0
 33 34  1  0  0  0
 34 35  1  0  0  0
 35 36  1  0  0  0
 36 37  1  0  0  0
 36 38  1  0  0  0
 38 39  1  0  0  0
  5 26  1  0  0  0
 26 27  1  0  0  0
 27 28  2  0  0  0
 28 29  1  0  0  0
 29 30  1  0  0  0
 29 31  1  0  0  0
 17 11  1  0  0  0
  9  1  1  0  0  0
 39 33  1  0  0  0
 31 26  2  0  0  0
  8  3  1  0  0  0
 25 19  1  0  0  0
M  END
> <minimizedAffinity>
-5.23598

> <CNNscore>
0.4022680819

> <CNNaffinity>
8.0512237549

> <CNN_VS>
3.2387502193

> <CNNaffinity_variance>
0.1838925779

$$$$
[H]c1nc([H])c(-c2nc(-c3c([H])nn(C([H])([H])[H])c3[H])c([H])c3nc(N4C([H])([H])[C@]([H])(C([H])([H])[H])N(C([H])([H])[H])C([H])([H])[C@@]4([H])C([H])([H])[H])n(C([H])([H])[C@]4([H])C([H])([H])C([H])([H])[C@@]([H])(C([H])([H])[H])C([H])([H])C4([H])[H])c23)c([H])c1Cl


 39 44  0  0  0  0  0  0  0  0999 V2000
   53.5406   -5.9195   -2.5089 C   0  0  0  0  0  0  0  0  0  0  0  0
   52.4639   -5.4314   -1.9178 N   0  0  0  0  0  0  0  0  0  0  0  0
   51.6035   -5.1583   -2.8908 C   0  0  0  0  0  0  0  0  0  0  0  0
   50.3318   -4.6377   -2.7733 C   0  0  0  0  0  0  0  0  0  0  0  0
   49.5414   -4.4061   -3.8794 C   0  0  0  0  0  0  0  0  0  0  0  0
   50.0815   -4.7114   -5.0527 N   0  0  0  0  0  0  0  0  0  0  0  0
   51.3601   -5.2358   -5.1977 C   0  0  0  0  0  0  0  0  0  0  0  0
   52.1688   -5.4853   -4.1137 C   0  0  0  0  0  0  0  0  0  0  0  0
   53.3881   -5.9699   -3.8778 N   0  0  0  0  0  0  0  0  0  0  0  0
   56.9450   -9.2550   -1.4725 C   0  0  0  0  0  0  0  0  0  0  0  0
   56.6352   -7.7993   -1.8531 C   0  0  0  0  0  0  0  0  0  0  0  0
   55.1323   -7.6819   -1.8162 C   0  0  0  0  0  0  0  0  0  0  0  0
   54.6738   -6.3173   -1.7969 N   0  0  0  0  0  0  0  0  0  0  0  0
   55.4414   -5.3631   -1.0399 C   0  0  0  0  0  0  0  0  0  0  0  0
   56.1265   -4.3324   -1.8965 C   0  0  0  0  0  0  0  0  0  0  0  0
   56.4820   -6.0551   -0.1726 C   0  0  0  0  0  0  0  0  0  0  0  0
   57.2921   -6.9832   -0.8811 N   0  0  0  0  0  0  0  0  0  0  0  0
   58.5186   -6.4433   -1.3832 C   0  0  0  0  0  0  0  0  0  0  0  0
   51.7619   -5.4333   -6.5687 C   0  0  0  0  0  0  0  0  0  0  0  0
   52.5127   -4.4670   -7.1746 C   0  0  0  0  0  0  0  0  0  0  0  0
   53.0398   -4.6726   -8.3801 N   0  0  0  0  0  0  0  0  0  0  0  0
   52.8415   -5.8343   -9.0204 C   0  0  0  0  0  0  0  0  0  0  0  0
   52.0882   -6.8414   -8.4458 C   0  0  0  0  0  0  0  0  0  0  0  0
   51.8692   -8.3307   -9.3365 Cl  0  0  0  0  0  0  0  0  0  0  0  0
   51.5554   -6.6082   -7.2047 C   0  0  0  0  0  0  0  0  0  0  0  0
   48.2115   -3.8601   -3.7056 C   0  0  0  0  0  0  0  0  0  0  0  0
   47.7110   -2.6956   -4.2344 C   0  0  0  0  0  0  0  0  0  0  0  0
   46.4342   -2.5871   -3.8127 N   0  0  0  0  0  0  0  0  0  0  0  0
   46.0891   -3.6114   -3.0471 N   0  0  0  0  0  0  0  0  0  0  0  0
   44.7974   -3.8587   -2.4007 C   0  0  0  0  0  0  0  0  0  0  0  0
   47.1841   -4.4050   -2.9751 C   0  0  0  0  0  0  0  0  0  0  0  0
   54.3532   -6.4363   -4.7658 C   0  0  0  0  0  0  0  0  0  0  0  0
   54.8632   -5.6211   -5.8660 C   0  0  0  0  0  0  0  0  0  0  0  0
   55.9013   -4.6222   -5.4798 C   0  0  0  0  0  0  0  0  0  0  0  0
   56.3100   -3.8032   -6.7309 C   0  0  0  0  0  0  0  0  0  0  0  0
   57.0523   -4.7830   -7.6130 C   0  0  0  0  0  0  0  0  0  0  0  0
   57.6786   -4.1010   -8.8076 C   0  0  0  0  0  0  0  0  0  0  0  0
   56.0610   -5.8393   -8.0475 C   0  0  0  0  0  0  0  0  0  0  0  0
   55.6261   -6.5917   -6.8073 C   0  0  0  0  0  0  0  0  0  0  0  0
 10 11  1  0  0  0
 11 12  1  0  0  0
 12 13  1  0  0  0
 13 14  1  0  0  0
 14 15  1  0  0  0
 14 16  1  0  0  0
 16 17  1  0  0  0
 17 18  1  0  0  0
 13  1  1  0  0  0
  1  2  2  0  0  0
  2  3  1  0  0  0
  3  4  2  0  0  0
  4  5  1  0  0  0
  5  6  2  0  0  0
  6  7  1  0  0  0
  7 19  1  0  0  0
 19 20  2  0  0  0
 20 21  1  0  0  0
 21 22  2  0  0  0
 22 23  1  0  0  0
 23 24  1  0  0  0
 23 25  2  0  0  0
  7  8  2  0  0  0
  8  9  1  0  0  0
  9 32  1  0  0  0
 32 33  1  0  0  0
 33 34  1  0  0  0
 34 35  1  0  0  0
 35 36  1  0  0  0
 36 37  1  0  0  0
 36 38  1  0  0  0
 38 39  1  0  0  0
  5 26  1  0  0  0
 26 27  1  0  0  0
 27 28  2  0  0  0
 28 29  1  0  0  0
 29 30  1  0  0  0
 29 31  1  0  0  0
 17 11  1  0  0  0
  9  1  1  0  0  0
 39 33  1  0  0  0
 31 26  2  0  0  0
  8  3  1  0  0  0
 25 19  1  0  0  0
M  END
> <minimizedAffinity>
-0.78131

> <CNNscore>
0.3788939416

> <CNNaffinity>
7.7502760887

> <CNN_VS>
2.9365327358

> <CNNaffinity_variance>
0.3006016612

$$$$
[H]c1nc([H])c(-c2nc(-c3c([H])nn(C([H])([H])[H])c3[H])c([H])c3nc(N4C([H])([H])[C@]([H])(C([H])([H])[H])N(C([H])([H])[H])C([H])([H])[C@@]4([H])C([H])([H])[H])n(C([H])([H])[C@]4([H])C([H])([H])C([H])([H])[C@@]([H])(C([H])([H])[H])C([H])([H])C4([H])[H])c23)c([H])c1Cl


 39 44  0  0  0  0  0  0  0  0999 V2000
   60.9201   -6.9898   -6.9645 C   0  0  0  0  0  0  0  0  0  0  0  0
   59.6286   -6.7601   -7.1265 N   0  0  0  0  0  0  0  0  0  0  0  0
   59.0510   -7.0874   -5.9772 C   0  0  0  0  0  0  0  0  0  0  0  0
   57.7127   -7.0139   -5.6526 C   0  0  0  0  0  0  0  0  0  0  0  0
   57.2499   -7.3879   -4.4086 C   0  0  0  0  0  0  0  0  0  0  0  0
   58.1682   -7.8219   -3.5542 N   0  0  0  0  0  0  0  0  0  0  0  0
   59.5217   -7.9063   -3.8571 C   0  0  0  0  0  0  0  0  0  0  0  0
   60.0145   -7.5332   -5.0856 C   0  0  0  0  0  0  0  0  0  0  0  0
   61.1949   -7.4691   -5.7019 N   0  0  0  0  0  0  0  0  0  0  0  0
   65.2229   -5.2400   -8.4524 C   0  0  0  0  0  0  0  0  0  0  0  0
   64.2492   -6.4279   -8.4279 C   0  0  0  0  0  0  0  0  0  0  0  0
   62.9947   -5.9102   -7.7706 C   0  0  0  0  0  0  0  0  0  0  0  0
   61.8559   -6.7666   -7.9763 N   0  0  0  0  0  0  0  0  0  0  0  0
   61.7264   -7.4134   -9.2560 C   0  0  0  0  0  0  0  0  0  0  0  0
   61.8936   -8.9078   -9.1904 C   0  0  0  0  0  0  0  0  0  0  0  0
   62.7176   -6.8494  -10.2627 C   0  0  0  0  0  0  0  0  0  0  0  0
   64.0574   -6.8161   -9.7898 N   0  0  0  0  0  0  0  0  0  0  0  0
   64.8388   -7.9661  -10.1288 C   0  0  0  0  0  0  0  0  0  0  0  0
   60.3269   -8.4635   -2.7982 C   0  0  0  0  0  0  0  0  0  0  0  0
   61.0874   -7.6178   -2.0425 C   0  0  0  0  0  0  0  0  0  0  0  0
   61.7213   -8.0602   -0.9581 N   0  0  0  0  0  0  0  0  0  0  0  0
   61.6231   -9.3460   -0.5896 C   0  0  0  0  0  0  0  0  0  0  0  0
   60.8643  -10.2385   -1.3241 C   0  0  0  0  0  0  0  0  0  0  0  0
   60.7804  -11.9010   -0.7870 Cl  0  0  0  0  0  0  0  0  0  0  0  0
   60.2206   -9.7616   -2.4361 C   0  0  0  0  0  0  0  0  0  0  0  0
   55.8354   -7.2909   -4.1134 C   0  0  0  0  0  0  0  0  0  0  0  0
   55.1524   -7.8988   -3.0887 C   0  0  0  0  0  0  0  0  0  0  0  0
   53.8607   -7.5257   -3.1990 N   0  0  0  0  0  0  0  0  0  0  0  0
   53.6776   -6.7166   -4.2317 N   0  0  0  0  0  0  0  0  0  0  0  0
   52.4276   -6.0987   -4.6821 C   0  0  0  0  0  0  0  0  0  0  0  0
   54.8956   -6.5658   -4.8041 C   0  0  0  0  0  0  0  0  0  0  0  0
   62.4650   -7.8018   -5.2399 C   0  0  0  0  0  0  0  0  0  0  0  0
   62.9503   -9.1797   -5.2089 C   0  0  0  0  0  0  0  0  0  0  0  0
   62.0448  -10.1797   -5.8449 C   0  0  0  0  0  0  0  0  0  0  0  0
   62.6621  -11.5937   -5.6942 C   0  0  0  0  0  0  0  0  0  0  0  0
   63.8835  -11.5832   -6.5871 C   0  0  0  0  0  0  0  0  0  0  0  0
   64.5122  -12.9533   -6.6959 C   0  0  0  0  0  0  0  0  0  0  0  0
   64.8575  -10.5822   -6.0070 C   0  0  0  0  0  0  0  0  0  0  0  0
   64.2163   -9.2139   -6.1068 C   0  0  0  0  0  0  0  0  0  0  0  0
 10 11  1  0  0  0
 11 12  1  0  0  0
 12 13  1  0  0  0
 13 14  1  0  0  0
 14 15  1  0  0  0
 14 16  1  0  0  0
 16 17  1  0  0  0
 17 18  1  0  0  0
 13  1  1  0  0  0
  1  2  2  0  0  0
  2  3  1  0  0  0
  3  4  2  0  0  0
  4  5  1  0  0  0
  5  6  2  0  0  0
  6  7  1  0  0  0
  7 19  1  0  0  0
 19 20  2  0  0  0
 20 21  1  0  0  0
 21 22  2  0  0  0
 22 23  1  0  0  0
 23 24  1  0  0  0
 23 25  2  0  0  0
  7  8  2  0  0  0
  8  9  1  0  0  0
  9 32  1  0  0  0
 32 33  1  0  0  0
 33 34  1  0  0  0
 34 35  1  0  0  0
 35 36  1  0  0  0
 36 37  1  0  0  0
 36 38  1  0  0  0
 38 39  1  0  0  0
  5 26  1  0  0  0
 26 27  1  0  0  0
 27 28  2  0  0  0
 28 29  1  0  0  0
 29 30  1  0  0  0
 29 31  1  0  0  0
 17 11  1  0  0  0
  9  1  1  0  0  0
 39 33  1  0  0  0
 31 26  2  0  0  0
  8  3  1  0  0  0
 25 19  1  0  0  0
M  END
> <minimizedAffinity>
2.11340

> <CNNscore>
0.3634578288

> <CNNaffinity>
6.6147155762

> <CNN_VS>
2.4041702747

> <CNNaffinity_variance>
0.5553289652

$$$$
[H]c1nc([H])c(-c2nc(-c3c([H])nn(C([H])([H])[H])c3[H])c([H])c3nc(N4C([H])([H])[C@]([H])(C([H])([H])[H])N(C([H])([H])[H])C([H])([H])[C@@]4([H])C([H])([H])[H])n(C([H])([H])[C@]4([H])C([H])([H])C([H])([H])[C@@]([H])(C([H])([H])[H])C([H])([H])C4([H])[H])c23)c([H])c1Cl


 39 44  0  0  0  0  0  0  0  0999 V2000
   59.5685   -5.7432   -9.0271 C   0  0  0  0  0  0  0  0  0  0  0  0
   59.7926   -5.6497  -10.3263 N   0  0  0  0  0  0  0  0  0  0  0  0
   58.7197   -5.0627  -10.8421 C   0  0  0  0  0  0  0  0  0  0  0  0
   58.4853   -4.7397  -12.1622 C   0  0  0  0  0  0  0  0  0  0  0  0
   57.3168   -4.1237  -12.5582 C   0  0  0  0  0  0  0  0  0  0  0  0
   56.4405   -3.8678  -11.5949 N   0  0  0  0  0  0  0  0  0  0  0  0
   56.6524   -4.1839  -10.2585 C   0  0  0  0  0  0  0  0  0  0  0  0
   57.8103   -4.7907   -9.8317 C   0  0  0  0  0  0  0  0  0  0  0  0
   58.3428   -5.2136   -8.6850 N   0  0  0  0  0  0  0  0  0  0  0  0
   60.5383   -8.2692   -4.9690 C   0  0  0  0  0  0  0  0  0  0  0  0
   60.7830   -8.1007   -6.4761 C   0  0  0  0  0  0  0  0  0  0  0  0
   60.0757   -6.8260   -6.8615 C   0  0  0  0  0  0  0  0  0  0  0  0
   60.4848   -6.3204   -8.1459 N   0  0  0  0  0  0  0  0  0  0  0  0
   61.8715   -6.4558   -8.5086 C   0  0  0  0  0  0  0  0  0  0  0  0
   62.1008   -7.4109   -9.6491 C   0  0  0  0  0  0  0  0  0  0  0  0
   62.7128   -6.8951   -7.3199 C   0  0  0  0  0  0  0  0  0  0  0  0
   62.2004   -8.0370   -6.6466 N   0  0  0  0  0  0  0  0  0  0  0  0
   62.7375   -9.2853   -7.0951 C   0  0  0  0  0  0  0  0  0  0  0  0
   55.5392   -3.8695   -9.3970 C   0  0  0  0  0  0  0  0  0  0  0  0
   55.3996   -2.5858   -8.9530 C   0  0  0  0  0  0  0  0  0  0  0  0
   54.3074   -2.2116   -8.2893 N   0  0  0  0  0  0  0  0  0  0  0  0
   53.3246   -3.0911   -8.0455 C   0  0  0  0  0  0  0  0  0  0  0  0
   53.4223   -4.4014   -8.4759 C   0  0  0  0  0  0  0  0  0  0  0  0
   52.1040   -5.4955   -8.1232 Cl  0  0  0  0  0  0  0  0  0  0  0  0
   54.5549   -4.7645   -9.1569 C   0  0  0  0  0  0  0  0  0  0  0  0
   57.1168   -3.8020  -13.9560 C   0  0  0  0  0  0  0  0  0  0  0  0
   58.0785   -3.6562  -14.9254 C   0  0  0  0  0  0  0  0  0  0  0  0
   57.4383   -3.3603  -16.0754 N   0  0  0  0  0  0  0  0  0  0  0  0
   56.1266   -3.3085  -15.8991 N   0  0  0  0  0  0  0  0  0  0  0  0
   55.0936   -3.0196  -16.8976 C   0  0  0  0  0  0  0  0  0  0  0  0
   55.9183   -3.5807  -14.5890 C   0  0  0  0  0  0  0  0  0  0  0  0
   57.8316   -5.1706   -7.3911 C   0  0  0  0  0  0  0  0  0  0  0  0
   56.4545   -5.5482   -7.0809 C   0  0  0  0  0  0  0  0  0  0  0  0
   56.2917   -6.9143   -6.5049 C   0  0  0  0  0  0  0  0  0  0  0  0
   54.7843   -7.1929   -6.2740 C   0  0  0  0  0  0  0  0  0  0  0  0
   54.3850   -6.2677   -5.1454 C   0  0  0  0  0  0  0  0  0  0  0  0
   52.9756   -6.5362   -4.6703 C   0  0  0  0  0  0  0  0  0  0  0  0
   54.5274   -4.8501   -5.6526 C   0  0  0  0  0  0  0  0  0  0  0  0
   55.9970   -4.6122   -5.9299 C   0  0  0  0  0  0  0  0  0  0  0  0
 10 11  1  0  0  0
 11 12  1  0  0  0
 12 13  1  0  0  0
 13 14  1  0  0  0
 14 15  1  0  0  0
 14 16  1  0  0  0
 16 17  1  0  0  0
 17 18  1  0  0  0
 13  1  1  0  0  0
  1  2  2  0  0  0
  2  3  1  0  0  0
  3  4  2  0  0  0
  4  5  1  0  0  0
  5  6  2  0  0  0
  6  7  1  0  0  0
  7 19  1  0  0  0
 19 20  2  0  0  0
 20 21  1  0  0  0
 21 22  2  0  0  0
 22 23  1  0  0  0
 23 24  1  0  0  0
 23 25  2  0  0  0
  7  8  2  0  0  0
  8  9  1  0  0  0
  9 32  1  0  0  0
 32 33  1  0  0  0
 33 34  1  0  0  0
 34 35  1  0  0  0
 35 36  1  0  0  0
 36 37  1  0  0  0
 36 38  1  0  0  0
 38 39  1  0  0  0
  5 26  1  0  0  0
 26 27  1  0  0  0
 27 28  2  0  0  0
 28 29  1  0  0  0
 29 30  1  0  0  0
 29 31  1  0  0  0
 17 11  1  0  0  0
  9  1  1  0  0  0
 39 33  1  0  0  0
 31 26  2  0  0  0
  8  3  1  0  0  0
 25 19  1  0  0  0
M  END
> <minimizedAffinity>
-2.36298

> <CNNscore>
0.3432543874

> <CNNaffinity>
7.4381952286

> <CNN_VS>
2.5531930923

> <CNNaffinity_variance>
0.3656445444

$$$$
[H]c1nc([H])c(-c2nc(-c3c([H])nn(C([H])([H])[H])c3[H])c([H])c3nc(N4C([H])([H])[C@]([H])(C([H])([H])[H])N(C([H])([H])[H])C([H])([H])[C@@]4([H])C([H])([H])[H])n(C([H])([H])[C@]4([H])C([H])([H])C([H])([H])[C@@]([H])(C([H])([H])[H])C([H])([H])C4([H])[H])c23)c([H])c1Cl


 39 44  0  0  0  0  0  0  0  0999 V2000
   61.4278   -7.5572   -7.9446 C   0  0  0  0  0  0  0  0  0  0  0  0
   61.4754   -7.2139   -9.2201 N   0  0  0  0  0  0  0  0  0  0  0  0
   60.4002   -6.4672   -9.4391 C   0  0  0  0  0  0  0  0  0  0  0  0
   60.0142   -5.8666  -10.6190 C   0  0  0  0  0  0  0  0  0  0  0  0
   58.8642   -5.1100  -10.7016 C   0  0  0  0  0  0  0  0  0  0  0  0
   58.1591   -5.0020   -9.5824 N   0  0  0  0  0  0  0  0  0  0  0  0
   58.5259   -5.5978   -8.3817 C   0  0  0  0  0  0  0  0  0  0  0  0
   59.6706   -6.3510   -8.2660 C   0  0  0  0  0  0  0  0  0  0  0  0
   60.3168   -7.0326   -7.3199 N   0  0  0  0  0  0  0  0  0  0  0  0
   63.1248  -11.9601   -6.7101 C   0  0  0  0  0  0  0  0  0  0  0  0
   63.4137  -10.5999   -7.3628 C   0  0  0  0  0  0  0  0  0  0  0  0
   62.1820   -9.7644   -7.1207 C   0  0  0  0  0  0  0  0  0  0  0  0
   62.4008   -8.3593   -7.3453 N   0  0  0  0  0  0  0  0  0  0  0  0
   63.6734   -7.8089   -6.9573 C   0  0  0  0  0  0  0  0  0  0  0  0
   64.5116   -7.3602   -8.1241 C   0  0  0  0  0  0  0  0  0  0  0  0
   64.4738   -8.8005   -6.1266 C   0  0  0  0  0  0  0  0  0  0  0  0
   64.5824  -10.0876   -6.7194 N   0  0  0  0  0  0  0  0  0  0  0  0
   65.7549  -10.2804   -7.5169 C   0  0  0  0  0  0  0  0  0  0  0  0
   57.5786   -5.3970   -7.3130 C   0  0  0  0  0  0  0  0  0  0  0  0
   56.9877   -4.1725   -7.1860 C   0  0  0  0  0  0  0  0  0  0  0  0
   55.9942   -3.9844   -6.3193 N   0  0  0  0  0  0  0  0  0  0  0  0
   55.5568   -4.9962   -5.5554 C   0  0  0  0  0  0  0  0  0  0  0  0
   56.1250   -6.2532   -5.6496 C   0  0  0  0  0  0  0  0  0  0  0  0
   55.5063   -7.5272   -4.6231 Cl  0  0  0  0  0  0  0  0  0  0  0  0
   57.1458   -6.4242   -6.5480 C   0  0  0  0  0  0  0  0  0  0  0  0
   58.5011   -4.4969  -11.9623 C   0  0  0  0  0  0  0  0  0  0  0  0
   59.3328   -3.8654  -12.8541 C   0  0  0  0  0  0  0  0  0  0  0  0
   58.5664   -3.4521  -13.8845 N   0  0  0  0  0  0  0  0  0  0  0  0
   57.2960   -3.7815  -13.7047 N   0  0  0  0  0  0  0  0  0  0  0  0
   56.1611   -3.5136  -14.5921 C   0  0  0  0  0  0  0  0  0  0  0  0
   57.2463   -4.4289  -12.5163 C   0  0  0  0  0  0  0  0  0  0  0  0
   59.9982   -7.2233   -5.9784 C   0  0  0  0  0  0  0  0  0  0  0  0
   60.7915   -8.0802   -5.1000 C   0  0  0  0  0  0  0  0  0  0  0  0
   61.4995   -7.3671   -3.9978 C   0  0  0  0  0  0  0  0  0  0  0  0
   62.3336   -8.3890   -3.1836 C   0  0  0  0  0  0  0  0  0  0  0  0
   61.3114   -9.2464   -2.4701 C   0  0  0  0  0  0  0  0  0  0  0  0
   61.9598  -10.1921   -1.4854 C   0  0  0  0  0  0  0  0  0  0  0  0
   60.5424  -10.0058   -3.5280 C   0  0  0  0  0  0  0  0  0  0  0  0
   59.7797   -8.9899   -4.3524 C   0  0  0  0  0  0  0  0  0  0  0  0
 10 11  1  0  0  0
 11 12  1  0  0  0
 12 13  1  0  0  0
 13 14  1  0  0  0
 14 15  1  0  0  0
 14 16  1  0  0  0
 16 17  1  0  0  0
 17 18  1  0  0  0
 13  1  1  0  0  0
  1  2  2  0  0  0
  2  3  1  0  0  0
  3  4  2  0  0  0
  4  5  1  0  0  0
  5  6  2  0  0  0
  6  7  1  0  0  0
  7 19  1  0  0  0
 19 20  2  0  0  0
 20 21  1  0  0  0
 21 22  2  0  0  0
 22 23  1  0  0  0
 23 24  1  0  0  0
 23 25  2  0  0  0
  7  8  2  0  0  0
  8  9  1  0  0  0
  9 32  1  0  0  0
 32 33  1  0  0  0
 33 34  1  0  0  0
 34 35  1  0  0  0
 35 36  1  0  0  0
 36 37  1  0  0  0
 36 38  1  0  0  0
 38 39  1  0  0  0
  5 26  1  0  0  0
 26 27  1  0  0  0
 27 28  2  0  0  0
 28 29  1  0  0  0
 29 30  1  0  0  0
 29 31  1  0  0  0
 17 11  1  0  0  0
  9  1  1  0  0  0
 39 33  1  0  0  0
 31 26  2  0  0  0
  8  3  1  0  0  0
 25 19  1  0  0  0
M  END
> <minimizedAffinity>
-0.82049

> <CNNscore>
0.3399899900

> <CNNaffinity>
6.7904267311

> <CNN_VS>
2.3086771965

> <CNNaffinity_variance>
0.0583849922

$$$$
[H]c1nc([H])c(-c2nc(-c3c([H])nn(C([H])([H])[H])c3[H])c([H])c3nc(N4C([H])([H])[C@]([H])(C([H])([H])[H])N(C([H])([H])[H])C([H])([H])[C@@]4([H])C([H])([H])[H])n(C([H])([H])[C@]4([H])C([H])([H])C([H])([H])[C@@]([H])(C([H])([H])[H])C([H])([H])C4([H])[H])c23)c([H])c1Cl


 39 44  0  0  0  0  0  0  0  0999 V2000
   56.5094   -5.6231   -6.1101 C   0  0  0  0  0  0  0  0  0  0  0  0
   57.5886   -5.7303   -6.8657 N   0  0  0  0  0  0  0  0  0  0  0  0
   57.2729   -5.1873   -8.0349 C   0  0  0  0  0  0  0  0  0  0  0  0
   58.0746   -5.0542   -9.1491 C   0  0  0  0  0  0  0  0  0  0  0  0
   57.6119   -4.4614  -10.3050 C   0  0  0  0  0  0  0  0  0  0  0  0
   56.3555   -4.0346  -10.2753 N   0  0  0  0  0  0  0  0  0  0  0  0
   55.5274   -4.1577   -9.1662 C   0  0  0  0  0  0  0  0  0  0  0  0
   55.9624   -4.7365   -7.9971 C   0  0  0  0  0  0  0  0  0  0  0  0
   55.4784   -5.0048   -6.7842 N   0  0  0  0  0  0  0  0  0  0  0  0
   58.1143   -8.6338   -2.6245 C   0  0  0  0  0  0  0  0  0  0  0  0
   57.7755   -7.1919   -3.0318 C   0  0  0  0  0  0  0  0  0  0  0  0
   57.1592   -7.2926   -4.4043 C   0  0  0  0  0  0  0  0  0  0  0  0
   56.4606   -6.0969   -4.7977 N   0  0  0  0  0  0  0  0  0  0  0  0
   55.7293   -5.3836   -3.7832 C   0  0  0  0  0  0  0  0  0  0  0  0
   56.3152   -4.0353   -3.4601 C   0  0  0  0  0  0  0  0  0  0  0  0
   55.6263   -6.1970   -2.5019 C   0  0  0  0  0  0  0  0  0  0  0  0
   56.8735   -6.6974   -2.0397 N   0  0  0  0  0  0  0  0  0  0  0  0
   57.5379   -5.8588   -1.0893 C   0  0  0  0  0  0  0  0  0  0  0  0
   54.1837   -3.6796   -9.3806 C   0  0  0  0  0  0  0  0  0  0  0  0
   53.3647   -4.3861  -10.2140 C   0  0  0  0  0  0  0  0  0  0  0  0
   52.0736   -4.0772  -10.3200 N   0  0  0  0  0  0  0  0  0  0  0  0
   51.5555   -3.0652   -9.6087 C   0  0  0  0  0  0  0  0  0  0  0  0
   52.3466   -2.3220   -8.7521 C   0  0  0  0  0  0  0  0  0  0  0  0
   51.6061   -1.0157   -7.8553 Cl  0  0  0  0  0  0  0  0  0  0  0  0
   53.6722   -2.6574   -8.6587 C   0  0  0  0  0  0  0  0  0  0  0  0
   58.4919   -4.3423  -11.4488 C   0  0  0  0  0  0  0  0  0  0  0  0
   59.7588   -4.8546  -11.5849 C   0  0  0  0  0  0  0  0  0  0  0  0
   60.1981   -4.5014  -12.8105 N   0  0  0  0  0  0  0  0  0  0  0  0
   59.2888   -3.7949  -13.4651 N   0  0  0  0  0  0  0  0  0  0  0  0
   59.3848   -3.2316  -14.8145 C   0  0  0  0  0  0  0  0  0  0  0  0
   58.2285   -3.6912  -12.6290 C   0  0  0  0  0  0  0  0  0  0  0  0
   54.2192   -4.7530   -6.2472 C   0  0  0  0  0  0  0  0  0  0  0  0
   52.9875   -5.1804   -6.9070 C   0  0  0  0  0  0  0  0  0  0  0  0
   52.8740   -6.6499   -7.1355 C   0  0  0  0  0  0  0  0  0  0  0  0
   51.5485   -6.9480   -7.8820 C   0  0  0  0  0  0  0  0  0  0  0  0
   50.4585   -6.6468   -6.8768 C   0  0  0  0  0  0  0  0  0  0  0  0
   49.0953   -7.0541   -7.3867 C   0  0  0  0  0  0  0  0  0  0  0  0
   50.5099   -5.1633   -6.5869 C   0  0  0  0  0  0  0  0  0  0  0  0
   51.8350   -4.8780   -5.9117 C   0  0  0  0  0  0  0  0  0  0  0  0
 10 11  1  0  0  0
 11 12  1  0  0  0
 12 13  1  0  0  0
 13 14  1  0  0  0
 14 15  1  0  0  0
 14 16  1  0  0  0
 16 17  1  0  0  0
 17 18  1  0  0  0
 13  1  1  0  0  0
  1  2  2  0  0  0
  2  3  1  0  0  0
  3  4  2  0  0  0
  4  5  1  0  0  0
  5  6  2  0  0  0
  6  7  1  0  0  0
  7 19  1  0  0  0
 19 20  2  0  0  0
 20 21  1  0  0  0
 21 22  2  0  0  0
 22 23  1  0  0  0
 23 24  1  0  0  0
 23 25  2  0  0  0
  7  8  2  0  0  0
  8  9  1  0  0  0
  9 32  1  0  0  0
 32 33  1  0  0  0
 33 34  1  0  0  0
 34 35  1  0  0  0
 35 36  1  0  0  0
 36 37  1  0  0  0
 36 38  1  0  0  0
 38 39  1  0  0  0
  5 26  1  0  0  0
 26 27  1  0  0  0
 27 28  2  0  0  0
 28 29  1  0  0  0
 29 30  1  0  0  0
 29 31  1  0  0  0
 17 11  1  0  0  0
  9  1  1  0  0  0
 39 33  1  0  0  0
 31 26  2  0  0  0
  8  3  1  0  0  0
 25 19  1  0  0  0
M  END
> <minimizedAffinity>
-3.42590

> <CNNscore>
0.3334194720

> <CNNaffinity>
7.7951445580

> <CNN_VS>
2.5990529060

> <CNNaffinity_variance>
0.3070954978

$$$$
[H]c1nc(N([H])c2c([H])c([H])c(N3C([H])([H])C([H])([H])C([H])(N4C([H])([H])C([H])([H])N(C([H])([H])[H])C([H])([H])C4([H])[H])C([H])([H])C3([H])[H])c([H])c2OC([H])([H])[H])nc(N([H])c2c([H])c([H])c([H])c([H])c2S(=O)(=O)C([H])(C([H])([H])[H])C([H])([H])[H])c1Cl


 44 48  0  0  0  0  0  0  0  0999 V2000
   55.0020   -3.4106   -9.9583 N   0  0  0  0  0  0  0  0  0  0  0  0
   55.0092   -2.8479  -10.8827 H   0  0  0  0  0  0  0  0  0  0  0  0
   53.8207   -3.3136   -9.1762 C   0  0  0  0  0  0  0  0  0  0  0  0
   52.9464   -2.3043   -9.1894 N   0  0  0  0  0  0  0  0  0  0  0  0
   51.8480   -2.2774   -8.4242 C   0  0  0  0  0  0  0  0  0  0  0  0
   51.5798   -3.3244   -7.5739 C   0  0  0  0  0  0  0  0  0  0  0  0
   50.1400   -3.3066   -6.5603 Cl  0  0  0  0  0  0  0  0  0  0  0  0
   52.4877   -4.4030   -7.5410 C   0  0  0  0  0  0  0  0  0  0  0  0
   53.5533   -4.3364   -8.3417 N   0  0  0  0  0  0  0  0  0  0  0  0
   52.1897   -5.4593   -6.6665 N   0  0  0  0  0  0  0  0  0  0  0  0
   52.0630   -6.4101   -7.1469 H   0  0  0  0  0  0  0  0  0  0  0  0
   52.0275   -5.4979   -5.2734 C   0  0  0  0  0  0  0  0  0  0  0  0
   50.7983   -5.2200   -4.7140 C   0  0  0  0  0  0  0  0  0  0  0  0
   50.6204   -5.2525   -3.3248 C   0  0  0  0  0  0  0  0  0  0  0  0
   51.6817   -5.5635   -2.5288 C   0  0  0  0  0  0  0  0  0  0  0  0
   52.9076   -5.8407   -3.0902 C   0  0  0  0  0  0  0  0  0  0  0  0
   53.1096   -5.8162   -4.4454 C   0  0  0  0  0  0  0  0  0  0  0  0
   54.6429   -6.1652   -5.1292 S   0  0  0  0  0  0  0  0  0  0  0  0
   55.3487   -4.8818   -5.4884 O   0  0  0  0  0  0  0  0  0  0  0  0
   54.6000   -7.0267   -6.3602 O   0  0  0  0  0  0  0  0  0  0  0  0
   55.7240   -7.0072   -3.9888 C   0  0  0  0  0  0  0  0  0  0  0  0
   55.1904   -8.3614   -3.6511 C   0  0  0  0  0  0  0  0  0  0  0  0
   57.1605   -6.9669   -4.3913 C   0  0  0  0  0  0  0  0  0  0  0  0
   56.9437   -4.5494  -10.7979 C   0  0  0  0  0  0  0  0  0  0  0  0
   58.1093   -5.2735  -10.6270 C   0  0  0  0  0  0  0  0  0  0  0  0
   58.5674   -5.6287   -9.3778 C   0  0  0  0  0  0  0  0  0  0  0  0
   57.8020   -5.2233   -8.3116 C   0  0  0  0  0  0  0  0  0  0  0  0
   56.6189   -4.4907   -8.4490 C   0  0  0  0  0  0  0  0  0  0  0  0
   56.1673   -4.1397   -9.6964 C   0  0  0  0  0  0  0  0  0  0  0  0
   59.7788   -6.3716   -9.2167 N   0  0  0  0  0  0  0  0  0  0  0  0
   60.7010   -5.9530   -8.2173 C   0  0  0  0  0  0  0  0  0  0  0  0
   61.7672   -6.9456   -7.8477 C   0  0  0  0  0  0  0  0  0  0  0  0
   62.3767   -7.6572   -9.0084 C   0  0  0  0  0  0  0  0  0  0  0  0
   61.5584   -7.5289  -10.2777 C   0  0  0  0  0  0  0  0  0  0  0  0
   60.0869   -7.5181  -10.0374 C   0  0  0  0  0  0  0  0  0  0  0  0
   62.7384   -9.0064   -8.8281 N   0  0  0  0  0  0  0  0  0  0  0  0
   63.0808   -9.7853   -9.9441 C   0  0  0  0  0  0  0  0  0  0  0  0
   63.0538  -11.2681   -9.5630 C   0  0  0  0  0  0  0  0  0  0  0  0
   63.7207  -11.4077   -8.2830 N   0  0  0  0  0  0  0  0  0  0  0  0
   65.1349  -11.2163   -8.3344 C   0  0  0  0  0  0  0  0  0  0  0  0
   63.0447  -10.7402   -7.2178 C   0  0  0  0  0  0  0  0  0  0  0  0
   62.0566   -9.7362   -7.8078 C   0  0  0  0  0  0  0  0  0  0  0  0
   57.5167   -3.8640  -13.0339 C   0  0  0  0  0  0  0  0  0  0  0  0
   56.5404   -4.2255  -12.0841 O   0  0  0  0  0  0  0  0  0  0  0  0
 43 44  1  0  0  0
 44 24  1  0  0  0
 24 25  2  0  0  0
 25 26  1  0  0  0
 26 27  2  0  0  0
 27 28  1  0  0  0
 28 29  2  0  0  0
 29  1  1  0  0  0
  1  3  1  0  0  0
  3  4  2  0  0  0
  4  5  1  0  0  0
  5  6  2  0  0  0
  6  7  1  0  0  0
  6  8  1  0  0  0
  8 10  1  0  0  0
 10 12  1  0  0  0
 12 13  2  0  0  0
 13 14  1  0  0  0
 14 15  2  0  0  0
 15 16  1  0  0  0
 16 17  2  0  0  0
 17 18  1  0  0  0
 18 19  2  0  0  0
 18 20  2  0  0  0
 18 21  1  0  0  0
 21 22  1  0  0  0
 21 23  1  0  0  0
  8  9  2  0  0  0
 26 30  1  0  0  0
 30 31  1  0  0  0
 31 32  1  0  0  0
 32 33  1  0  0  0
 33 34  1  0  0  0
 34 35  1  0  0  0
 33 36  1  0  0  0
 36 37  1  0  0  0
 37 38  1  0  0  0
 38 39  1  0  0  0
 39 40  1  0  0  0
 39 41  1  0  0  0
 41 42  1  0  0  0
 29 24  1  0  0  0
  9  3  1  0  0  0
 35 30  1  0  0  0
 42 36  1  0  0  0
 17 12  1  0  0  0
  1  2  1  0  0  0
 10 11  1  0  0  0
M  END
> <minimizedAffinity>
-9.50101

> <CNNscore>
0.9266451001

> <CNNaffinity>
8.1607112885

> <CNN_VS>
7.5620832443

> <CNNaffinity_variance>
0.0884491652

$$$$
[H]c1nc(N([H])c2c([H])c([H])c(N3C([H])([H])C([H])([H])C([H])(N4C([H])([H])C([H])([H])N(C([H])([H])[H])C([H])([H])C4([H])[H])C([H])([H])C3([H])[H])c([H])c2OC([H])([H])[H])nc(N([H])c2c([H])c([H])c([H])c([H])c2S(=O)(=O)C([H])(C([H])([H])[H])C([H])([H])[H])c1Cl


 44 48  0  0  0  0  0  0  0  0999 V2000
   54.7512   -3.6890  -10.1841 N   0  0  0  0  0  0  0  0  0  0  0  0
   54.6142   -3.3520  -11.2033 H   0  0  0  0  0  0  0  0  0  0  0  0
   53.6496   -3.4977   -9.3087 C   0  0  0  0  0  0  0  0  0  0  0  0
   52.8686   -2.4162   -9.2479 N   0  0  0  0  0  0  0  0  0  0  0  0
   51.8418   -2.3019   -8.3963 C   0  0  0  0  0  0  0  0  0  0  0  0
   51.5523   -3.3302   -7.5304 C   0  0  0  0  0  0  0  0  0  0  0  0
   50.2057   -3.1977   -6.4035 Cl  0  0  0  0  0  0  0  0  0  0  0  0
   52.3621   -4.4839   -7.5744 C   0  0  0  0  0  0  0  0  0  0  0  0
   53.3617   -4.5019   -8.4584 N   0  0  0  0  0  0  0  0  0  0  0  0
   52.0443   -5.5191   -6.6819 N   0  0  0  0  0  0  0  0  0  0  0  0
   51.8719   -6.4695   -7.1488 H   0  0  0  0  0  0  0  0  0  0  0  0
   51.9111   -5.5371   -5.2853 C   0  0  0  0  0  0  0  0  0  0  0  0
   50.6896   -5.2675   -4.7052 C   0  0  0  0  0  0  0  0  0  0  0  0
   50.5406   -5.2798   -3.3124 C   0  0  0  0  0  0  0  0  0  0  0  0
   51.6223   -5.5625   -2.5335 C   0  0  0  0  0  0  0  0  0  0  0  0
   52.8404   -5.8314   -3.1155 C   0  0  0  0  0  0  0  0  0  0  0  0
   53.0144   -5.8263   -4.4748 C   0  0  0  0  0  0  0  0  0  0  0  0
   54.5383   -6.1646   -5.1843 S   0  0  0  0  0  0  0  0  0  0  0  0
   55.2191   -4.8773   -5.5762 O   0  0  0  0  0  0  0  0  0  0  0  0
   54.4827   -7.0446   -6.4016 O   0  0  0  0  0  0  0  0  0  0  0  0
   55.6536   -6.9751   -4.0540 C   0  0  0  0  0  0  0  0  0  0  0  0
   55.1634   -8.3450   -3.7135 C   0  0  0  0  0  0  0  0  0  0  0  0
   57.0848   -6.8915   -4.4683 C   0  0  0  0  0  0  0  0  0  0  0  0
   56.8555   -4.5158  -10.9967 C   0  0  0  0  0  0  0  0  0  0  0  0
   58.1059   -5.0767  -10.8115 C   0  0  0  0  0  0  0  0  0  0  0  0
   58.5747   -5.4097   -9.5602 C   0  0  0  0  0  0  0  0  0  0  0  0
   57.7311   -5.1534   -8.5067 C   0  0  0  0  0  0  0  0  0  0  0  0
   56.4613   -4.5878   -8.6588 C   0  0  0  0  0  0  0  0  0  0  0  0
   55.9995   -4.2581   -9.9082 C   0  0  0  0  0  0  0  0  0  0  0  0
   59.8733   -5.9823   -9.3839 N   0  0  0  0  0  0  0  0  0  0  0  0
   60.6818   -6.1926  -10.5356 C   0  0  0  0  0  0  0  0  0  0  0  0
   62.1388   -6.4566  -10.2782 C   0  0  0  0  0  0  0  0  0  0  0  0
   62.4061   -7.3864   -9.1429 C   0  0  0  0  0  0  0  0  0  0  0  0
   61.2033   -7.5818   -8.2417 C   0  0  0  0  0  0  0  0  0  0  0  0
   60.3746   -6.3526   -8.0821 C   0  0  0  0  0  0  0  0  0  0  0  0
   63.5411   -7.1341   -8.3479 N   0  0  0  0  0  0  0  0  0  0  0  0
   64.4921   -6.1964   -8.7787 C   0  0  0  0  0  0  0  0  0  0  0  0
   65.7860   -6.3732   -7.9791 C   0  0  0  0  0  0  0  0  0  0  0  0
   65.4252   -6.5300   -6.5835 N   0  0  0  0  0  0  0  0  0  0  0  0
   64.9419   -5.3371   -5.9649 C   0  0  0  0  0  0  0  0  0  0  0  0
   64.6671   -7.7114   -6.3251 C   0  0  0  0  0  0  0  0  0  0  0  0
   64.1057   -8.2402   -7.6433 C   0  0  0  0  0  0  0  0  0  0  0  0
   57.4158   -3.8293  -13.2355 C   0  0  0  0  0  0  0  0  0  0  0  0
   56.4463   -4.2048  -12.2842 O   0  0  0  0  0  0  0  0  0  0  0  0
 43 44  1  0  0  0
 44 24  1  0  0  0
 24 25  2  0  0  0
 25 26  1  0  0  0
 26 27  2  0  0  0
 27 28  1  0  0  0
 28 29  2  0  0  0
 29  1  1  0  0  0
  1  3  1  0  0  0
  3  4  2  0  0  0
  4  5  1  0  0  0
  5  6  2  0  0  0
  6  7  1  0  0  0
  6  8  1  0  0  0
  8 10  1  0  0  0
 10 12  1  0  0  0
 12 13  2  0  0  0
 13 14  1  0  0  0
 14 15  2  0  0  0
 15 16  1  0  0  0
 16 17  2  0  0  0
 17 18  1  0  0  0
 18 19  2  0  0  0
 18 20  2  0  0  0
 18 21  1  0  0  0
 21 22  1  0  0  0
 21 23  1  0  0  0
  8  9  2  0  0  0
 26 30  1  0  0  0
 30 31  1  0  0  0
 31 32  1  0  0  0
 32 33  1  0  0  0
 33 34  1  0  0  0
 34 35  1  0  0  0
 33 36  1  0  0  0
 36 37  1  0  0  0
 37 38  1  0  0  0
 38 39  1  0  0  0
 39 40  1  0  0  0
 39 41  1  0  0  0
 41 42  1  0  0  0
 29 24  1  0  0  0
  9  3  1  0  0  0
 35 30  1  0  0  0
 42 36  1  0  0  0
 17 12  1  0  0  0
  1  2  1  0  0  0
 10 11  1  0  0  0
M  END
> <minimizedAffinity>
-9.58954

> <CNNscore>
0.9050758481

> <CNNaffinity>
8.1857051849

> <CNN_VS>
7.4086842537

> <CNNaffinity_variance>
0.0465758257

$$$$
[H]c1nc(N([H])c2c([H])c([H])c(N3C([H])([H])C([H])([H])C([H])(N4C([H])([H])C([H])([H])N(C([H])([H])[H])C([H])([H])C4([H])[H])C([H])([H])C3([H])[H])c([H])c2OC([H])([H])[H])nc(N([H])c2c([H])c([H])c([H])c([H])c2S(=O)(=O)C([H])(C([H])([H])[H])C([H])([H])[H])c1Cl


 44 48  0  0  0  0  0  0  0  0999 V2000
   55.4251   -3.5014   -9.9730 N   0  0  0  0  0  0  0  0  0  0  0  0
   55.4514   -2.8756  -10.8555 H   0  0  0  0  0  0  0  0  0  0  0  0
   54.2256   -3.4623   -9.2139 C   0  0  0  0  0  0  0  0  0  0  0  0
   53.2108   -2.6114   -9.3854 N   0  0  0  0  0  0  0  0  0  0  0  0
   52.1041   -2.6309   -8.6321 C   0  0  0  0  0  0  0  0  0  0  0  0
   51.9766   -3.5597   -7.6260 C   0  0  0  0  0  0  0  0  0  0  0  0
   50.5283   -3.6005   -6.6253 Cl  0  0  0  0  0  0  0  0  0  0  0  0
   53.0346   -4.4701   -7.4241 C   0  0  0  0  0  0  0  0  0  0  0  0
   54.0957   -4.3699   -8.2272 N   0  0  0  0  0  0  0  0  0  0  0  0
   52.8786   -5.4086   -6.3925 N   0  0  0  0  0  0  0  0  0  0  0  0
   51.8587   -5.6510   -6.1643 H   0  0  0  0  0  0  0  0  0  0  0  0
   53.8172   -6.0900   -5.6031 C   0  0  0  0  0  0  0  0  0  0  0  0
   55.1176   -6.2265   -6.0408 C   0  0  0  0  0  0  0  0  0  0  0  0
   56.0661   -6.9055   -5.2652 C   0  0  0  0  0  0  0  0  0  0  0  0
   55.6869   -7.4325   -4.0672 C   0  0  0  0  0  0  0  0  0  0  0  0
   54.3880   -7.2945   -3.6329 C   0  0  0  0  0  0  0  0  0  0  0  0
   53.4400   -6.6353   -4.3709 C   0  0  0  0  0  0  0  0  0  0  0  0
   51.8262   -6.4711   -3.8151 S   0  0  0  0  0  0  0  0  0  0  0  0
   51.5178   -7.5506   -2.8082 O   0  0  0  0  0  0  0  0  0  0  0  0
   50.7811   -6.5358   -4.8934 O   0  0  0  0  0  0  0  0  0  0  0  0
   51.5492   -4.9275   -2.9672 C   0  0  0  0  0  0  0  0  0  0  0  0
   50.1013   -4.5593   -2.9918 C   0  0  0  0  0  0  0  0  0  0  0  0
   52.2050   -4.8583   -1.6285 C   0  0  0  0  0  0  0  0  0  0  0  0
   57.3260   -4.6778  -10.8532 C   0  0  0  0  0  0  0  0  0  0  0  0
   58.4858   -5.4164  -10.7065 C   0  0  0  0  0  0  0  0  0  0  0  0
   58.9744   -5.7630   -9.4665 C   0  0  0  0  0  0  0  0  0  0  0  0
   58.2456   -5.3340   -8.3841 C   0  0  0  0  0  0  0  0  0  0  0  0
   57.0693   -4.5862   -8.4969 C   0  0  0  0  0  0  0  0  0  0  0  0
   56.5872   -4.2439   -9.7352 C   0  0  0  0  0  0  0  0  0  0  0  0
   60.1796   -6.5211   -9.3306 N   0  0  0  0  0  0  0  0  0  0  0  0
   61.2212   -5.9951   -8.5166 C   0  0  0  0  0  0  0  0  0  0  0  0
   62.3009   -6.9631   -8.1216 C   0  0  0  0  0  0  0  0  0  0  0  0
   62.7546   -7.8635   -9.2210 C   0  0  0  0  0  0  0  0  0  0  0  0
   61.7968   -7.8934  -10.3951 C   0  0  0  0  0  0  0  0  0  0  0  0
   60.3640   -7.7885   -9.9959 C   0  0  0  0  0  0  0  0  0  0  0  0
   63.1048   -9.1840   -8.8785 N   0  0  0  0  0  0  0  0  0  0  0  0
   63.3414   -9.5098   -7.5342 C   0  0  0  0  0  0  0  0  0  0  0  0
   64.0669  -10.8559   -7.4523 C   0  0  0  0  0  0  0  0  0  0  0  0
   63.4117  -11.7677   -8.3698 N   0  0  0  0  0  0  0  0  0  0  0  0
   62.1128  -12.1884   -7.9512 C   0  0  0  0  0  0  0  0  0  0  0  0
   63.5226  -11.3709   -9.7364 C   0  0  0  0  0  0  0  0  0  0  0  0
   63.9317   -9.9007   -9.7956 C   0  0  0  0  0  0  0  0  0  0  0  0
   57.8329   -3.9282  -13.0846 C   0  0  0  0  0  0  0  0  0  0  0  0
   56.8907   -4.3637  -12.1313 O   0  0  0  0  0  0  0  0  0  0  0  0
 43 44  1  0  0  0
 44 24  1  0  0  0
 24 25  2  0  0  0
 25 26  1  0  0  0
 26 27  2  0  0  0
 27 28  1  0  0  0
 28 29  2  0  0  0
 29  1  1  0  0  0
  1  3  1  0  0  0
  3  4  2  0  0  0
  4  5  1  0  0  0
  5  6  2  0  0  0
  6  7  1  0  0  0
  6  8  1  0  0  0
  8 10  1  0  0  0
 10 12  1  0  0  0
 12 13  2  0  0  0
 13 14  1  0  0  0
 14 15  2  0  0  0
 15 16  1  0  0  0
 16 17  2  0  0  0
 17 18  1  0  0  0
 18 19  2  0  0  0
 18 20  2  0  0  0
 18 21  1  0  0  0
 21 22  1  0  0  0
 21 23  1  0  0  0
  8  9  2  0  0  0
 26 30  1  0  0  0
 30 31  1  0  0  0
 31 32  1  0  0  0
 32 33  1  0  0  0
 33 34  1  0  0  0
 34 35  1  0  0  0
 33 36  1  0  0  0
 36 37  1  0  0  0
 37 38  1  0  0  0
 38 39  1  0  0  0
 39 40  1  0  0  0
 39 41  1  0  0  0
 41 42  1  0  0  0
 29 24  1  0  0  0
  9  3  1  0  0  0
 35 30  1  0  0  0
 42 36  1  0  0  0
 17 12  1  0  0  0
  1  2  1  0  0  0
 10 11  1  0  0  0
M  END
> <minimizedAffinity>
-8.66592

> <CNNscore>
0.8474518657

> <CNNaffinity>
8.0202560425

> <CNN_VS>
6.7967810631

> <CNNaffinity_variance>
0.0223492254

$$$$
[H]c1nc(N([H])c2c([H])c([H])c(N3C([H])([H])C([H])([H])C([H])(N4C([H])([H])C([H])([H])N(C([H])([H])[H])C([H])([H])C4([H])[H])C([H])([H])C3([H])[H])c([H])c2OC([H])([H])[H])nc(N([H])c2c([H])c([H])c([H])c([H])c2S(=O)(=O)C([H])(C([H])([H])[H])C([H])([H])[H])c1Cl


 44 48  0  0  0  0  0  0  0  0999 V2000
   55.3047   -3.6498  -10.1447 N   0  0  0  0  0  0  0  0  0  0  0  0
   55.2302   -3.1627  -11.1082 H   0  0  0  0  0  0  0  0  0  0  0  0
   54.1556   -3.5720   -9.3140 C   0  0  0  0  0  0  0  0  0  0  0  0
   53.1400   -2.7157   -9.4503 N   0  0  0  0  0  0  0  0  0  0  0  0
   52.0827   -2.6977   -8.6292 C   0  0  0  0  0  0  0  0  0  0  0  0
   52.0100   -3.5912   -7.5863 C   0  0  0  0  0  0  0  0  0  0  0  0
   50.6270   -3.5824   -6.4963 Cl  0  0  0  0  0  0  0  0  0  0  0  0
   53.0700   -4.5064   -7.4203 C   0  0  0  0  0  0  0  0  0  0  0  0
   54.0794   -4.4449   -8.2911 N   0  0  0  0  0  0  0  0  0  0  0  0
   52.9703   -5.4084   -6.3499 N   0  0  0  0  0  0  0  0  0  0  0  0
   51.9643   -5.6511   -6.0670 H   0  0  0  0  0  0  0  0  0  0  0  0
   53.9506   -6.0530   -5.5804 C   0  0  0  0  0  0  0  0  0  0  0  0
   55.2459   -6.1396   -6.0450 C   0  0  0  0  0  0  0  0  0  0  0  0
   56.2356   -6.7815   -5.2896 C   0  0  0  0  0  0  0  0  0  0  0  0
   55.9018   -7.3221   -4.0842 C   0  0  0  0  0  0  0  0  0  0  0  0
   54.6078   -7.2339   -3.6229 C   0  0  0  0  0  0  0  0  0  0  0  0
   53.6201   -6.6118   -4.3409 C   0  0  0  0  0  0  0  0  0  0  0  0
   52.0132   -6.5094   -3.7517 S   0  0  0  0  0  0  0  0  0  0  0  0
   51.7610   -7.6119   -2.7540 O   0  0  0  0  0  0  0  0  0  0  0  0
   50.9496   -6.5951   -4.8104 O   0  0  0  0  0  0  0  0  0  0  0  0
   51.7016   -4.9874   -2.8773 C   0  0  0  0  0  0  0  0  0  0  0  0
   50.2562   -4.6163   -2.9535 C   0  0  0  0  0  0  0  0  0  0  0  0
   52.3005   -4.9531   -1.5109 C   0  0  0  0  0  0  0  0  0  0  0  0
   57.3333   -4.6190  -10.9917 C   0  0  0  0  0  0  0  0  0  0  0  0
   58.5579   -5.2395  -10.8251 C   0  0  0  0  0  0  0  0  0  0  0  0
   59.0510   -5.5506   -9.5775 C   0  0  0  0  0  0  0  0  0  0  0  0
   58.2587   -5.2100   -8.5083 C   0  0  0  0  0  0  0  0  0  0  0  0
   57.0161   -4.5825   -8.6413 C   0  0  0  0  0  0  0  0  0  0  0  0
   56.5299   -4.2750   -9.8871 C   0  0  0  0  0  0  0  0  0  0  0  0
   60.3228   -6.1857   -9.4209 N   0  0  0  0  0  0  0  0  0  0  0  0
   61.1557   -6.3234  -10.5661 C   0  0  0  0  0  0  0  0  0  0  0  0
   62.5944   -6.6645  -10.2971 C   0  0  0  0  0  0  0  0  0  0  0  0
   62.7960   -7.7012   -9.2436 C   0  0  0  0  0  0  0  0  0  0  0  0
   61.5618   -7.9300   -8.3942 C   0  0  0  0  0  0  0  0  0  0  0  0
   60.7733   -6.6892   -8.1455 C   0  0  0  0  0  0  0  0  0  0  0  0
   63.9162   -7.5641   -8.4010 N   0  0  0  0  0  0  0  0  0  0  0  0
   65.1633   -7.2393   -8.9564 C   0  0  0  0  0  0  0  0  0  0  0  0
   66.2693   -7.5237   -7.9362 C   0  0  0  0  0  0  0  0  0  0  0  0
   65.8310   -7.0081   -6.6538 N   0  0  0  0  0  0  0  0  0  0  0  0
   65.8116   -5.5826   -6.5703 C   0  0  0  0  0  0  0  0  0  0  0  0
   64.6765   -7.6732   -6.1419 C   0  0  0  0  0  0  0  0  0  0  0  0
   64.0006   -8.4401   -7.2767 C   0  0  0  0  0  0  0  0  0  0  0  0
   57.8096   -3.7863  -13.2002 C   0  0  0  0  0  0  0  0  0  0  0  0
   56.8973   -4.3346  -12.2765 O   0  0  0  0  0  0  0  0  0  0  0  0
 43 44  1  0  0  0
 44 24  1  0  0  0
 24 25  2  0  0  0
 25 26  1  0  0  0
 26 27  2  0  0  0
 27 28  1  0  0  0
 28 29  2  0  0  0
 29  1  1  0  0  0
  1  3  1  0  0  0
  3  4  2  0  0  0
  4  5  1  0  0  0
  5  6  2  0  0  0
  6  7  1  0  0  0
  6  8  1  0  0  0
  8 10  1  0  0  0
 10 12  1  0  0  0
 12 13  2  0  0  0
 13 14  1  0  0  0
 14 15  2  0  0  0
 15 16  1  0  0  0
 16 17  2  0  0  0
 17 18  1  0  0  0
 18 19  2  0  0  0
 18 20  2  0  0  0
 18 21  1  0  0  0
 21 22  1  0  0  0
 21 23  1  0  0  0
  8  9  2  0  0  0
 26 30  1  0  0  0
 30 31  1  0  0  0
 31 32  1  0  0  0
 32 33  1  0  0  0
 33 34  1  0  0  0
 34 35  1  0  0  0
 33 36  1  0  0  0
 36 37  1  0  0  0
 37 38  1  0  0  0
 38 39  1  0  0  0
 39 40  1  0  0  0
 39 41  1  0  0  0
 41 42  1  0  0  0
 29 24  1  0  0  0
  9  3  1  0  0  0
 35 30  1  0  0  0
 42 36  1  0  0  0
 17 12  1  0  0  0
  1  2  1  0  0  0
 10 11  1  0  0  0
M  END
> <minimizedAffinity>
-8.62103

> <CNNscore>
0.8268525004

> <CNNaffinity>
8.0621051788

> <CNN_VS>
6.6661720276

> <CNNaffinity_variance>
0.0038069424

$$$$
[H]c1nc(N([H])c2c([H])c([H])c(N3C([H])([H])C([H])([H])C([H])(N4C([H])([H])C([H])([H])N(C([H])([H])[H])C([H])([H])C4([H])[H])C([H])([H])C3([H])[H])c([H])c2OC([H])([H])[H])nc(N([H])c2c([H])c([H])c([H])c([H])c2S(=O)(=O)C([H])(C([H])([H])[H])C([H])([H])[H])c1Cl


 44 48  0  0  0  0  0  0  0  0999 V2000
   54.4368   -3.1895   -9.7109 N   0  0  0  0  0  0  0  0  0  0  0  0
   54.3212   -2.4714  -10.5123 H   0  0  0  0  0  0  0  0  0  0  0  0
   53.3430   -3.3062   -8.8129 C   0  0  0  0  0  0  0  0  0  0  0  0
   52.2727   -2.5091   -8.7654 N   0  0  0  0  0  0  0  0  0  0  0  0
   51.2730   -2.6773   -7.8908 C   0  0  0  0  0  0  0  0  0  0  0  0
   51.3217   -3.7114   -6.9855 C   0  0  0  0  0  0  0  0  0  0  0  0
   50.0162   -3.9483   -5.8279 Cl  0  0  0  0  0  0  0  0  0  0  0  0
   52.4417   -4.5679   -7.0147 C   0  0  0  0  0  0  0  0  0  0  0  0
   53.3857   -4.3173   -7.9241 N   0  0  0  0  0  0  0  0  0  0  0  0
   52.4659   -5.6160   -6.0819 N   0  0  0  0  0  0  0  0  0  0  0  0
   51.4973   -5.9824   -5.8017 H   0  0  0  0  0  0  0  0  0  0  0  0
   53.5302   -6.2742   -5.4475 C   0  0  0  0  0  0  0  0  0  0  0  0
   54.6607   -6.6069   -6.1634 C   0  0  0  0  0  0  0  0  0  0  0  0
   55.7312   -7.2658   -5.5451 C   0  0  0  0  0  0  0  0  0  0  0  0
   55.6418   -7.5758   -4.2212 C   0  0  0  0  0  0  0  0  0  0  0  0
   54.5120   -7.2422   -3.5091 C   0  0  0  0  0  0  0  0  0  0  0  0
   53.4505   -6.5977   -4.0885 C   0  0  0  0  0  0  0  0  0  0  0  0
   52.0505   -6.1880   -3.1872 S   0  0  0  0  0  0  0  0  0  0  0  0
   50.8141   -6.6211   -3.9342 O   0  0  0  0  0  0  0  0  0  0  0  0
   51.9105   -4.7242   -2.8755 O   0  0  0  0  0  0  0  0  0  0  0  0
   51.9813   -7.0245   -1.6144 C   0  0  0  0  0  0  0  0  0  0  0  0
   52.7471   -6.2703   -0.5764 C   0  0  0  0  0  0  0  0  0  0  0  0
   50.6023   -7.4362   -1.2199 C   0  0  0  0  0  0  0  0  0  0  0  0
   56.3088   -4.0361   -8.4653 C   0  0  0  0  0  0  0  0  0  0  0  0
   57.5148   -4.7058   -8.3691 C   0  0  0  0  0  0  0  0  0  0  0  0
   58.1325   -5.2520   -9.4720 C   0  0  0  0  0  0  0  0  0  0  0  0
   57.4838   -5.0945  -10.6726 C   0  0  0  0  0  0  0  0  0  0  0  0
   56.2642   -4.4233  -10.8051 C   0  0  0  0  0  0  0  0  0  0  0  0
   55.6534   -3.8809   -9.7025 C   0  0  0  0  0  0  0  0  0  0  0  0
   59.3763   -5.9483   -9.3555 N   0  0  0  0  0  0  0  0  0  0  0  0
   60.1153   -5.8153   -8.1470 C   0  0  0  0  0  0  0  0  0  0  0  0
   61.2116   -6.8204   -7.9312 C   0  0  0  0  0  0  0  0  0  0  0  0
   62.0327   -7.1073   -9.1430 C   0  0  0  0  0  0  0  0  0  0  0  0
   61.3807   -6.6324  -10.4261 C   0  0  0  0  0  0  0  0  0  0  0  0
   59.8958   -6.7681  -10.4237 C   0  0  0  0  0  0  0  0  0  0  0  0
   62.4922   -8.4267   -9.3209 N   0  0  0  0  0  0  0  0  0  0  0  0
   61.8068   -9.4860   -8.7066 C   0  0  0  0  0  0  0  0  0  0  0  0
   62.6861  -10.7397   -8.7147 C   0  0  0  0  0  0  0  0  0  0  0  0
   63.2770  -10.8566  -10.0337 N   0  0  0  0  0  0  0  0  0  0  0  0
   62.3541  -11.2248  -11.0593 C   0  0  0  0  0  0  0  0  0  0  0  0
   64.1615   -9.7831  -10.3539 C   0  0  0  0  0  0  0  0  0  0  0  0
   63.9045   -8.6238   -9.3934 C   0  0  0  0  0  0  0  0  0  0  0  0
   56.5121   -3.4656   -6.1349 C   0  0  0  0  0  0  0  0  0  0  0  0
   55.7422   -3.5105   -7.3145 O   0  0  0  0  0  0  0  0  0  0  0  0
 43 44  1  0  0  0
 44 24  1  0  0  0
 24 25  2  0  0  0
 25 26  1  0  0  0
 26 27  2  0  0  0
 27 28  1  0  0  0
 28 29  2  0  0  0
 29  1  1  0  0  0
  1  3  1  0  0  0
  3  4  2  0  0  0
  4  5  1  0  0  0
  5  6  2  0  0  0
  6  7  1  0  0  0
  6  8  1  0  0  0
  8 10  1  0  0  0
 10 12  1  0  0  0
 12 13  2  0  0  0
 13 14  1  0  0  0
 14 15  2  0  0  0
 15 16  1  0  0  0
 16 17  2  0  0  0
 17 18  1  0  0  0
 18 19  2  0  0  0
 18 20  2  0  0  0
 18 21  1  0  0  0
 21 22  1  0  0  0
 21 23  1  0  0  0
  8  9  2  0  0  0
 26 30  1  0  0  0
 30 31  1  0  0  0
 31 32  1  0  0  0
 32 33  1  0  0  0
 33 34  1  0  0  0
 34 35  1  0  0  0
 33 36  1  0  0  0
 36 37  1  0  0  0
 37 38  1  0  0  0
 38 39  1  0  0  0
 39 40  1  0  0  0
 39 41  1  0  0  0
 41 42  1  0  0  0
 29 24  1  0  0  0
  9  3  1  0  0  0
 35 30  1  0  0  0
 42 36  1  0  0  0
 17 12  1  0  0  0
  1  2  1  0  0  0
 10 11  1  0  0  0
M  END
> <minimizedAffinity>
-7.68089

> <CNNscore>
0.8006752729

> <CNNaffinity>
8.0626792908

> <CNN_VS>
6.4555878639

> <CNNaffinity_variance>
0.0378356501

$$$$
[H]c1nc(N([H])c2c([H])c([H])c(N3C([H])([H])C([H])([H])C([H])(N4C([H])([H])C([H])([H])N(C([H])([H])[H])C([H])([H])C4([H])[H])C([H])([H])C3([H])[H])c([H])c2OC([H])([H])[H])nc(N([H])c2c([H])c([H])c([H])c([H])c2S(=O)(=O)C([H])(C([H])([H])[H])C([H])([H])[H])c1Cl


 44 48  0  0  0  0  0  0  0  0999 V2000
   55.1061   -3.4214   -9.6413 N   0  0  0  0  0  0  0  0  0  0  0  0
   55.0960   -2.7409  -10.4827 H   0  0  0  0  0  0  0  0  0  0  0  0
   53.9253   -3.4594   -8.8534 C   0  0  0  0  0  0  0  0  0  0  0  0
   52.8344   -2.7097   -9.0300 N   0  0  0  0  0  0  0  0  0  0  0  0
   51.7513   -2.7979   -8.2480 C   0  0  0  0  0  0  0  0  0  0  0  0
   51.7305   -3.6939   -7.2050 C   0  0  0  0  0  0  0  0  0  0  0  0
   50.3147   -3.8241   -6.1662 Cl  0  0  0  0  0  0  0  0  0  0  0  0
   52.8704   -4.4978   -6.9969 C   0  0  0  0  0  0  0  0  0  0  0  0
   53.8998   -4.3353   -7.8304 N   0  0  0  0  0  0  0  0  0  0  0  0
   52.8227   -5.4050   -5.9273 N   0  0  0  0  0  0  0  0  0  0  0  0
   51.8407   -5.5670   -5.5269 H   0  0  0  0  0  0  0  0  0  0  0  0
   53.8293   -6.1414   -5.2847 C   0  0  0  0  0  0  0  0  0  0  0  0
   55.0008   -6.4352   -5.9500 C   0  0  0  0  0  0  0  0  0  0  0  0
   56.0146   -7.1710   -5.3230 C   0  0  0  0  0  0  0  0  0  0  0  0
   55.8287   -7.5954   -4.0415 C   0  0  0  0  0  0  0  0  0  0  0  0
   54.6582   -7.3004   -3.3799 C   0  0  0  0  0  0  0  0  0  0  0  0
   53.6503   -6.5825   -3.9689 C   0  0  0  0  0  0  0  0  0  0  0  0
   52.1986   -6.2224   -3.1306 S   0  0  0  0  0  0  0  0  0  0  0  0
   51.0109   -6.6692   -3.9455 O   0  0  0  0  0  0  0  0  0  0  0  0
   52.0087   -4.7685   -2.7998 O   0  0  0  0  0  0  0  0  0  0  0  0
   52.0724   -7.0905   -1.5785 C   0  0  0  0  0  0  0  0  0  0  0  0
   52.8439   -6.3857   -0.5105 C   0  0  0  0  0  0  0  0  0  0  0  0
   50.6732   -7.4634   -1.2178 C   0  0  0  0  0  0  0  0  0  0  0  0
   56.9685   -4.5629  -10.6416 C   0  0  0  0  0  0  0  0  0  0  0  0
   58.1451   -5.2858  -10.5695 C   0  0  0  0  0  0  0  0  0  0  0  0
   58.7103   -5.6353   -9.3633 C   0  0  0  0  0  0  0  0  0  0  0  0
   58.0401   -5.2256   -8.2363 C   0  0  0  0  0  0  0  0  0  0  0  0
   56.8489   -4.4942   -8.2736 C   0  0  0  0  0  0  0  0  0  0  0  0
   56.2904   -4.1489   -9.4785 C   0  0  0  0  0  0  0  0  0  0  0  0
   59.9318   -6.3768   -9.3048 N   0  0  0  0  0  0  0  0  0  0  0  0
   59.9913   -7.6355   -9.9656 C   0  0  0  0  0  0  0  0  0  0  0  0
   61.3664   -8.2037  -10.1778 C   0  0  0  0  0  0  0  0  0  0  0  0
   62.2792   -8.0637   -9.0064 C   0  0  0  0  0  0  0  0  0  0  0  0
   61.7839   -7.0579   -7.9866 C   0  0  0  0  0  0  0  0  0  0  0  0
   61.0895   -5.8873   -8.5954 C   0  0  0  0  0  0  0  0  0  0  0  0
   63.6418   -7.8216   -9.2679 N   0  0  0  0  0  0  0  0  0  0  0  0
   64.2738   -8.4972  -10.3231 C   0  0  0  0  0  0  0  0  0  0  0  0
   65.7930   -8.3776  -10.1725 C   0  0  0  0  0  0  0  0  0  0  0  0
   66.0969   -6.9997   -9.8384 N   0  0  0  0  0  0  0  0  0  0  0  0
   65.9061   -6.0796  -10.9137 C   0  0  0  0  0  0  0  0  0  0  0  0
   65.5676   -6.5943   -8.5764 C   0  0  0  0  0  0  0  0  0  0  0  0
   64.4927   -7.5898   -8.1451 C   0  0  0  0  0  0  0  0  0  0  0  0
   57.3440   -3.8810  -12.9201 C   0  0  0  0  0  0  0  0  0  0  0  0
   56.4546   -4.2449  -11.8892 O   0  0  0  0  0  0  0  0  0  0  0  0
 43 44  1  0  0  0
 44 24  1  0  0  0
 24 25  2  0  0  0
 25 26  1  0  0  0
 26 27  2  0  0  0
 27 28  1  0  0  0
 28 29  2  0  0  0
 29  1  1  0  0  0
  1  3  1  0  0  0
  3  4  2  0  0  0
  4  5  1  0  0  0
  5  6  2  0  0  0
  6  7  1  0  0  0
  6  8  1  0  0  0
  8 10  1  0  0  0
 10 12  1  0  0  0
 12 13  2  0  0  0
 13 14  1  0  0  0
 14 15  2  0  0  0
 15 16  1  0  0  0
 16 17  2  0  0  0
 17 18  1  0  0  0
 18 19  2  0  0  0
 18 20  2  0  0  0
 18 21  1  0  0  0
 21 22  1  0  0  0
 21 23  1  0  0  0
  8  9  2  0  0  0
 26 30  1  0  0  0
 30 31  1  0  0  0
 31 32  1  0  0  0
 32 33  1  0  0  0
 33 34  1  0  0  0
 34 35  1  0  0  0
 33 36  1  0  0  0
 36 37  1  0  0  0
 37 38  1  0  0  0
 38 39  1  0  0  0
 39 40  1  0  0  0
 39 41  1  0  0  0
 41 42  1  0  0  0
 29 24  1  0  0  0
  9  3  1  0  0  0
 35 30  1  0  0  0
 42 36  1  0  0  0
 17 12  1  0  0  0
  1  2  1  0  0  0
 10 11  1  0  0  0
M  END
> <minimizedAffinity>
-8.42219

> <CNNscore>
0.7948920727

> <CNNaffinity>
8.0311450958

> <CNN_VS>
6.3838934898

> <CNNaffinity_variance>
0.0111624869

$$$$
[H]c1nc(N([H])c2c([H])c([H])c(N3C([H])([H])C([H])([H])C([H])(N4C([H])([H])C([H])([H])N(C([H])([H])[H])C([H])([H])C4([H])[H])C([H])([H])C3([H])[H])c([H])c2OC([H])([H])[H])nc(N([H])c2c([H])c([H])c([H])c([H])c2S(=O)(=O)C([H])(C([H])([H])[H])C([H])([H])[H])c1Cl


 44 48  0  0  0  0  0  0  0  0999 V2000
   55.3316   -3.2442   -9.5536 N   0  0  0  0  0  0  0  0  0  0  0  0
   55.4410   -2.3081  -10.0856 H   0  0  0  0  0  0  0  0  0  0  0  0
   54.0651   -3.4799   -8.9563 C   0  0  0  0  0  0  0  0  0  0  0  0
   52.9382   -2.8078   -9.2049 N   0  0  0  0  0  0  0  0  0  0  0  0
   51.7737   -3.0843   -8.6049 C   0  0  0  0  0  0  0  0  0  0  0  0
   51.7025   -4.1033   -7.6841 C   0  0  0  0  0  0  0  0  0  0  0  0
   50.1795   -4.4814   -6.8852 Cl  0  0  0  0  0  0  0  0  0  0  0  0
   52.8788   -4.8287   -7.4036 C   0  0  0  0  0  0  0  0  0  0  0  0
   53.9898   -4.4768   -8.0537 N   0  0  0  0  0  0  0  0  0  0  0  0
   52.7786   -5.8644   -6.4619 N   0  0  0  0  0  0  0  0  0  0  0  0
   52.9718   -6.8429   -6.8570 H   0  0  0  0  0  0  0  0  0  0  0  0
   52.4710   -5.8524   -5.0931 C   0  0  0  0  0  0  0  0  0  0  0  0
   51.3074   -5.2582   -4.6525 C   0  0  0  0  0  0  0  0  0  0  0  0
   50.9868   -5.2363   -3.2890 C   0  0  0  0  0  0  0  0  0  0  0  0
   51.8427   -5.8119   -2.3986 C   0  0  0  0  0  0  0  0  0  0  0  0
   53.0035   -6.4046   -2.8414 C   0  0  0  0  0  0  0  0  0  0  0  0
   53.3417   -6.4405   -4.1689 C   0  0  0  0  0  0  0  0  0  0  0  0
   54.7911   -7.1838   -4.7045 S   0  0  0  0  0  0  0  0  0  0  0  0
   54.7320   -7.4095   -6.1944 O   0  0  0  0  0  0  0  0  0  0  0  0
   55.0990   -8.5022   -4.0515 O   0  0  0  0  0  0  0  0  0  0  0  0
   56.2257   -6.1621   -4.4281 C   0  0  0  0  0  0  0  0  0  0  0  0
   55.9469   -5.1228   -3.3914 C   0  0  0  0  0  0  0  0  0  0  0  0
   57.4824   -6.9423   -4.2312 C   0  0  0  0  0  0  0  0  0  0  0  0
   56.9150   -4.5524   -8.3070 C   0  0  0  0  0  0  0  0  0  0  0  0
   58.0287   -5.3667   -8.2143 C   0  0  0  0  0  0  0  0  0  0  0  0
   58.7521   -5.7377   -9.3259 C   0  0  0  0  0  0  0  0  0  0  0  0
   58.3053   -5.2538  -10.5314 C   0  0  0  0  0  0  0  0  0  0  0  0
   57.1837   -4.4287  -10.6605 C   0  0  0  0  0  0  0  0  0  0  0  0
   56.4669   -4.0623   -9.5493 C   0  0  0  0  0  0  0  0  0  0  0  0
   59.8977   -6.5867   -9.2148 N   0  0  0  0  0  0  0  0  0  0  0  0
   60.9638   -6.1765   -8.3666 C   0  0  0  0  0  0  0  0  0  0  0  0
   61.9658   -7.2377   -8.0080 C   0  0  0  0  0  0  0  0  0  0  0  0
   62.3678   -8.1160   -9.1448 C   0  0  0  0  0  0  0  0  0  0  0  0
   61.4256   -8.0211  -10.3282 C   0  0  0  0  0  0  0  0  0  0  0  0
   59.9990   -7.8314   -9.9382 C   0  0  0  0  0  0  0  0  0  0  0  0
   62.6175   -9.4730   -8.8625 N   0  0  0  0  0  0  0  0  0  0  0  0
   62.4879   -9.9404   -7.5457 C   0  0  0  0  0  0  0  0  0  0  0  0
   63.1689  -11.3058   -7.4162 C   0  0  0  0  0  0  0  0  0  0  0  0
   62.7846  -12.1021   -8.5654 N   0  0  0  0  0  0  0  0  0  0  0  0
   61.4223  -12.5302   -8.5534 C   0  0  0  0  0  0  0  0  0  0  0  0
   63.2550  -11.5708   -9.8038 C   0  0  0  0  0  0  0  0  0  0  0  0
   63.6611  -10.1131   -9.5973 C   0  0  0  0  0  0  0  0  0  0  0  0
   56.6727   -3.1113   -6.3934 C   0  0  0  0  0  0  0  0  0  0  0  0
   56.2330   -4.2178   -7.1474 O   0  0  0  0  0  0  0  0  0  0  0  0
 43 44  1  0  0  0
 44 24  1  0  0  0
 24 25  2  0  0  0
 25 26  1  0  0  0
 26 27  2  0  0  0
 27 28  1  0  0  0
 28 29  2  0  0  0
 29  1  1  0  0  0
  1  3  1  0  0  0
  3  4  2  0  0  0
  4  5  1  0  0  0
  5  6  2  0  0  0
  6  7  1  0  0  0
  6  8  1  0  0  0
  8 10  1  0  0  0
 10 12  1  0  0  0
 12 13  2  0  0  0
 13 14  1  0  0  0
 14 15  2  0  0  0
 15 16  1  0  0  0
 16 17  2  0  0  0
 17 18  1  0  0  0
 18 19  2  0  0  0
 18 20  2  0  0  0
 18 21  1  0  0  0
 21 22  1  0  0  0
 21 23  1  0  0  0
  8  9  2  0  0  0
 26 30  1  0  0  0
 30 31  1  0  0  0
 31 32  1  0  0  0
 32 33  1  0  0  0
 33 34  1  0  0  0
 34 35  1  0  0  0
 33 36  1  0  0  0
 36 37  1  0  0  0
 37 38  1  0  0  0
 38 39  1  0  0  0
 39 40  1  0  0  0
 39 41  1  0  0  0
 41 42  1  0  0  0
 29 24  1  0  0  0
  9  3  1  0  0  0
 35 30  1  0  0  0
 42 36  1  0  0  0
 17 12  1  0  0  0
  1  2  1  0  0  0
 10 11  1  0  0  0
M  END
> <minimizedAffinity>
-8.22236

> <CNNscore>
0.7682594061

> <CNNaffinity>
7.9026174545

> <CNN_VS>
6.0712599754

> <CNNaffinity_variance>
0.0818732232

$$$$
[H]c1nc(N([H])c2c([H])c([H])c(N3C([H])([H])C([H])([H])C([H])(N4C([H])([H])C([H])([H])N(C([H])([H])[H])C([H])([H])C4([H])[H])C([H])([H])C3([H])[H])c([H])c2OC([H])([H])[H])nc(N([H])c2c([H])c([H])c([H])c([H])c2S(=O)(=O)C([H])(C([H])([H])[H])C([H])([H])[H])c1Cl


 44 48  0  0  0  0  0  0  0  0999 V2000
   54.4406   -3.2901   -9.9103 N   0  0  0  0  0  0  0  0  0  0  0  0
   54.2791   -2.6669  -10.7802 H   0  0  0  0  0  0  0  0  0  0  0  0
   53.3703   -3.3537   -8.9791 C   0  0  0  0  0  0  0  0  0  0  0  0
   52.3526   -2.4941   -8.8869 N   0  0  0  0  0  0  0  0  0  0  0  0
   51.3725   -2.6145   -7.9828 C   0  0  0  0  0  0  0  0  0  0  0  0
   51.3865   -3.6629   -7.0929 C   0  0  0  0  0  0  0  0  0  0  0  0
   50.1059   -3.8376   -5.8971 Cl  0  0  0  0  0  0  0  0  0  0  0  0
   52.4507   -4.5851   -7.1693 C   0  0  0  0  0  0  0  0  0  0  0  0
   53.3793   -4.3786   -8.1052 N   0  0  0  0  0  0  0  0  0  0  0  0
   52.4403   -5.6465   -6.2513 N   0  0  0  0  0  0  0  0  0  0  0  0
   51.4668   -6.0515   -6.0532 H   0  0  0  0  0  0  0  0  0  0  0  0
   53.4751   -6.2764   -5.5436 C   0  0  0  0  0  0  0  0  0  0  0  0
   54.6417   -6.6241   -6.1912 C   0  0  0  0  0  0  0  0  0  0  0  0
   55.6834   -7.2552   -5.4992 C   0  0  0  0  0  0  0  0  0  0  0  0
   55.5297   -7.5230   -4.1720 C   0  0  0  0  0  0  0  0  0  0  0  0
   54.3639   -7.1745   -3.5283 C   0  0  0  0  0  0  0  0  0  0  0  0
   53.3292   -6.5564   -4.1805 C   0  0  0  0  0  0  0  0  0  0  0  0
   51.8838   -6.1278   -3.3637 S   0  0  0  0  0  0  0  0  0  0  0  0
   50.6884   -6.5776   -4.1656 O   0  0  0  0  0  0  0  0  0  0  0  0
   51.7285   -4.6576   -3.0920 O   0  0  0  0  0  0  0  0  0  0  0  0
   51.7308   -6.9298   -1.7789 C   0  0  0  0  0  0  0  0  0  0  0  0
   51.6014   -8.4094   -1.9417 C   0  0  0  0  0  0  0  0  0  0  0  0
   52.7493   -6.4814   -0.7847 C   0  0  0  0  0  0  0  0  0  0  0  0
   56.3487   -3.9651   -8.6158 C   0  0  0  0  0  0  0  0  0  0  0  0
   57.5820   -4.5750   -8.4772 C   0  0  0  0  0  0  0  0  0  0  0  0
   58.2201   -5.1735   -9.5407 C   0  0  0  0  0  0  0  0  0  0  0  0
   57.5631   -5.1308  -10.7464 C   0  0  0  0  0  0  0  0  0  0  0  0
   56.3162   -4.5225  -10.9212 C   0  0  0  0  0  0  0  0  0  0  0  0
   55.6852   -3.9276   -9.8577 C   0  0  0  0  0  0  0  0  0  0  0  0
   59.4923   -5.8070   -9.3801 N   0  0  0  0  0  0  0  0  0  0  0  0
   60.2774   -6.0517  -10.5411 C   0  0  0  0  0  0  0  0  0  0  0  0
   61.7231   -6.3845  -10.3005 C   0  0  0  0  0  0  0  0  0  0  0  0
   61.9588   -7.3292   -9.1704 C   0  0  0  0  0  0  0  0  0  0  0  0
   60.7581   -7.4704   -8.2564 C   0  0  0  0  0  0  0  0  0  0  0  0
   59.9898   -6.2041   -8.0848 C   0  0  0  0  0  0  0  0  0  0  0  0
   63.1130   -7.1327   -8.3875 N   0  0  0  0  0  0  0  0  0  0  0  0
   63.6999   -5.8593   -8.3287 C   0  0  0  0  0  0  0  0  0  0  0  0
   65.1161   -5.9727   -7.7574 C   0  0  0  0  0  0  0  0  0  0  0  0
   65.0602   -6.8570   -6.6096 N   0  0  0  0  0  0  0  0  0  0  0  0
   64.4040   -6.2990   -5.4705 C   0  0  0  0  0  0  0  0  0  0  0  0
   64.6887   -8.1940   -6.9438 C   0  0  0  0  0  0  0  0  0  0  0  0
   64.0579   -8.2018   -8.3347 C   0  0  0  0  0  0  0  0  0  0  0  0
   56.3888   -3.5250   -6.2489 C   0  0  0  0  0  0  0  0  0  0  0  0
   55.7626   -3.3816   -7.5033 O   0  0  0  0  0  0  0  0  0  0  0  0
 43 44  1  0  0  0
 44 24  1  0  0  0
 24 25  2  0  0  0
 25 26  1  0  0  0
 26 27  2  0  0  0
 27 28  1  0  0  0
 28 29  2  0  0  0
 29  1  1  0  0  0
  1  3  1  0  0  0
  3  4  2  0  0  0
  4  5  1  0  0  0
  5  6  2  0  0  0
  6  7  1  0  0  0
  6  8  1  0  0  0
  8 10  1  0  0  0
 10 12  1  0  0  0
 12 13  2  0  0  0
 13 14  1  0  0  0
 14 15  2  0  0  0
 15 16  1  0  0  0
 16 17  2  0  0  0
 17 18  1  0  0  0
 18 19  2  0  0  0
 18 20  2  0  0  0
 18 21  1  0  0  0
 21 22  1  0  0  0
 21 23  1  0  0  0
  8  9  2  0  0  0
 26 30  1  0  0  0
 30 31  1  0  0  0
 31 32  1  0  0  0
 32 33  1  0  0  0
 33 34  1  0  0  0
 34 35  1  0  0  0
 33 36  1  0  0  0
 36 37  1  0  0  0
 37 38  1  0  0  0
 38 39  1  0  0  0
 39 40  1  0  0  0
 39 41  1  0  0  0
 41 42  1  0  0  0
 29 24  1  0  0  0
  9  3  1  0  0  0
 35 30  1  0  0  0
 42 36  1  0  0  0
 17 12  1  0  0  0
  1  2  1  0  0  0
 10 11  1  0  0  0
M  END
> <minimizedAffinity>
-7.66586

> <CNNscore>
0.7144402862

> <CNNaffinity>
7.9639549255

> <CNN_VS>
5.6897702217

> <CNNaffinity_variance>
0.0261221416

$$$$
[H]c1nc(N([H])c2c([H])c([H])c(N3C([H])([H])C([H])([H])C([H])(N4C([H])([H])C([H])([H])N(C([H])([H])[H])C([H])([H])C4([H])[H])C([H])([H])C3([H])[H])c([H])c2OC([H])([H])[H])nc(N([H])c2c([H])c([H])c([H])c([H])c2S(=O)(=O)C([H])(C([H])([H])[H])C([H])([H])[H])c1Cl


 44 48  0  0  0  0  0  0  0  0999 V2000
   54.9516   -3.6523   -9.2162 N   0  0  0  0  0  0  0  0  0  0  0  0
   54.8182   -2.9220  -10.0037 H   0  0  0  0  0  0  0  0  0  0  0  0
   53.8340   -3.8676   -8.3669 C   0  0  0  0  0  0  0  0  0  0  0  0
   52.6512   -3.2532   -8.4484 N   0  0  0  0  0  0  0  0  0  0  0  0
   51.6361   -3.5058   -7.6128 C   0  0  0  0  0  0  0  0  0  0  0  0
   51.7879   -4.4373   -6.6125 C   0  0  0  0  0  0  0  0  0  0  0  0
   50.4639   -4.7829   -5.5043 Cl  0  0  0  0  0  0  0  0  0  0  0  0
   53.0278   -5.1006   -6.5048 C   0  0  0  0  0  0  0  0  0  0  0  0
   53.9774   -4.7789   -7.3856 N   0  0  0  0  0  0  0  0  0  0  0  0
   53.1559   -6.0476   -5.4771 N   0  0  0  0  0  0  0  0  0  0  0  0
   52.2329   -6.5068   -5.1801 H   0  0  0  0  0  0  0  0  0  0  0  0
   54.2754   -6.5046   -4.7657 C   0  0  0  0  0  0  0  0  0  0  0  0
   55.4681   -6.7232   -5.4222 C   0  0  0  0  0  0  0  0  0  0  0  0
   56.5944   -7.1811   -4.7264 C   0  0  0  0  0  0  0  0  0  0  0  0
   56.4972   -7.4094   -3.3866 C   0  0  0  0  0  0  0  0  0  0  0  0
   55.3052   -7.1901   -2.7339 C   0  0  0  0  0  0  0  0  0  0  0  0
   54.1882   -6.7424   -3.3895 C   0  0  0  0  0  0  0  0  0  0  0  0
   52.7110   -6.4730   -2.5616 S   0  0  0  0  0  0  0  0  0  0  0  0
   51.5846   -7.1713   -3.2812 O   0  0  0  0  0  0  0  0  0  0  0  0
   52.3320   -5.0266   -2.4080 O   0  0  0  0  0  0  0  0  0  0  0  0
   52.7199   -7.1469   -0.9111 C   0  0  0  0  0  0  0  0  0  0  0  0
   53.2649   -6.1558    0.0653 C   0  0  0  0  0  0  0  0  0  0  0  0
   51.4282   -7.7852   -0.5224 C   0  0  0  0  0  0  0  0  0  0  0  0
   56.8232   -4.5804  -10.4028 C   0  0  0  0  0  0  0  0  0  0  0  0
   58.0673   -5.1821  -10.4512 C   0  0  0  0  0  0  0  0  0  0  0  0
   58.7673   -5.4964   -9.3077 C   0  0  0  0  0  0  0  0  0  0  0  0
   58.1609   -5.1786   -8.1167 C   0  0  0  0  0  0  0  0  0  0  0  0
   56.9045   -4.5704   -8.0321 C   0  0  0  0  0  0  0  0  0  0  0  0
   56.2116   -4.2597   -9.1751 C   0  0  0  0  0  0  0  0  0  0  0  0
   60.0566   -6.1120   -9.3740 N   0  0  0  0  0  0  0  0  0  0  0  0
   60.7150   -6.1686  -10.6339 C   0  0  0  0  0  0  0  0  0  0  0  0
   62.1820   -6.4934  -10.5965 C   0  0  0  0  0  0  0  0  0  0  0  0
   62.5487   -7.5819   -9.6449 C   0  0  0  0  0  0  0  0  0  0  0  0
   61.4549   -7.8833   -8.6399 C   0  0  0  0  0  0  0  0  0  0  0  0
   60.6950   -6.6752   -8.2085 C   0  0  0  0  0  0  0  0  0  0  0  0
   63.7780   -7.4676   -8.9671 N   0  0  0  0  0  0  0  0  0  0  0  0
   64.3169   -6.1951   -8.7228 C   0  0  0  0  0  0  0  0  0  0  0  0
   65.7937   -6.3278   -8.3402 C   0  0  0  0  0  0  0  0  0  0  0  0
   65.9078   -7.4164   -7.3892 N   0  0  0  0  0  0  0  0  0  0  0  0
   65.3682   -7.1272   -6.0990 C   0  0  0  0  0  0  0  0  0  0  0  0
   65.5529   -8.6854   -7.9376 C   0  0  0  0  0  0  0  0  0  0  0  0
   64.7642   -8.4668   -9.2270 C   0  0  0  0  0  0  0  0  0  0  0  0
   56.9410   -3.9265  -12.7171 C   0  0  0  0  0  0  0  0  0  0  0  0
   56.1736   -4.2914  -11.5928 O   0  0  0  0  0  0  0  0  0  0  0  0
 43 44  1  0  0  0
 44 24  1  0  0  0
 24 25  2  0  0  0
 25 26  1  0  0  0
 26 27  2  0  0  0
 27 28  1  0  0  0
 28 29  2  0  0  0
 29  1  1  0  0  0
  1  3  1  0  0  0
  3  4  2  0  0  0
  4  5  1  0  0  0
  5  6  2  0  0  0
  6  7  1  0  0  0
  6  8  1  0  0  0
  8 10  1  0  0  0
 10 12  1  0  0  0
 12 13  2  0  0  0
 13 14  1  0  0  0
 14 15  2  0  0  0
 15 16  1  0  0  0
 16 17  2  0  0  0
 17 18  1  0  0  0
 18 19  2  0  0  0
 18 20  2  0  0  0
 18 21  1  0  0  0
 21 22  1  0  0  0
 21 23  1  0  0  0
  8  9  2  0  0  0
 26 30  1  0  0  0
 30 31  1  0  0  0
 31 32  1  0  0  0
 32 33  1  0  0  0
 33 34  1  0  0  0
 34 35  1  0  0  0
 33 36  1  0  0  0
 36 37  1  0  0  0
 37 38  1  0  0  0
 38 39  1  0  0  0
 39 40  1  0  0  0
 39 41  1  0  0  0
 41 42  1  0  0  0
 29 24  1  0  0  0
  9  3  1  0  0  0
 35 30  1  0  0  0
 42 36  1  0  0  0
 17 12  1  0  0  0
  1  2  1  0  0  0
 10 11  1  0  0  0
M  END
> <minimizedAffinity>
-8.00919

> <CNNscore>
0.5147708654

> <CNNaffinity>
7.7299895287

> <CNN_VS>
3.9791734219

> <CNNaffinity_variance>
0.0744245499

$$$$
[H]ON([H])C(=O)C([H])([H])N(C([H])([H])c1c([H])c([H])c([N+](=O)[O-])c([H])c1[H])S(=O)(=O)c1c([H])c([H])c(-c2c([H])c([H])c([H])c([H])c2[H])c([H])c1[H]


 33 35  0  0  0  0  0  0  0  0999 V2000
   52.5671   -4.5127   -7.6508 N   0  0  0  0  0  0  0  0  0  0  0  0
   52.6267   -6.0315   -6.9604 S   0  0  0  0  0  0  0  0  0  0  0  0
   51.2907   -6.3659   -6.3592 O   0  0  0  0  0  0  0  0  0  0  0  0
   52.8188   -7.0409   -8.0921 O   0  0  0  0  0  0  0  0  0  0  0  0
   53.8233   -6.3892   -5.7897 C   0  0  0  0  0  0  0  0  0  0  0  0
   53.6762   -5.8378   -4.5350 C   0  0  0  0  0  0  0  0  0  0  0  0
   54.5981   -6.0717   -3.5208 C   0  0  0  0  0  0  0  0  0  0  0  0
   55.6956   -6.8742   -3.7576 C   0  0  0  0  0  0  0  0  0  0  0  0
   55.8186   -7.4127   -5.0201 C   0  0  0  0  0  0  0  0  0  0  0  0
   54.9237   -7.1886   -6.0124 C   0  0  0  0  0  0  0  0  0  0  0  0
   56.6867   -7.1438   -2.7169 C   0  0  0  0  0  0  0  0  0  0  0  0
   57.3920   -6.1776   -2.0737 C   0  0  0  0  0  0  0  0  0  0  0  0
   58.3041   -6.5484   -1.1061 C   0  0  0  0  0  0  0  0  0  0  0  0
   58.5318   -7.8626   -0.7620 C   0  0  0  0  0  0  0  0  0  0  0  0
   57.8109   -8.8499   -1.4193 C   0  0  0  0  0  0  0  0  0  0  0  0
   56.8994   -8.4768   -2.3866 C   0  0  0  0  0  0  0  0  0  0  0  0
   51.3968   -3.8201   -7.0948 C   0  0  0  0  0  0  0  0  0  0  0  0
   49.9934   -0.5184   -8.2179 O   0  0  0  0  0  0  0  0  0  0  0  0
   50.1945   -1.6393   -7.4542 N   0  0  0  0  0  0  0  0  0  0  0  0
   51.1339   -2.5997   -7.8697 C   0  0  0  0  0  0  0  0  0  0  0  0
   51.7657   -2.4084   -8.9369 O   0  0  0  0  0  0  0  0  0  0  0  0
   50.7180    0.1097   -7.9657 H   0  0  0  0  0  0  0  0  0  0  0  0
   49.6004   -1.6764   -6.6051 H   0  0  0  0  0  0  0  0  0  0  0  0
   53.7378   -3.6933   -7.5405 C   0  0  0  0  0  0  0  0  0  0  0  0
   54.8264   -4.0138   -8.4885 C   0  0  0  0  0  0  0  0  0  0  0  0
   54.7269   -3.9212   -9.8493 C   0  0  0  0  0  0  0  0  0  0  0  0
   55.7565   -4.2289  -10.6990 C   0  0  0  0  0  0  0  0  0  0  0  0
   56.9538   -4.6520  -10.1820 C   0  0  0  0  0  0  0  0  0  0  0  0
   57.1020   -4.7611   -8.8131 C   0  0  0  0  0  0  0  0  0  0  0  0
   56.0479   -4.4444   -7.9836 C   0  0  0  0  0  0  0  0  0  0  0  0
   58.0518   -4.9808  -11.0630 N   0  0  0  0  0  0  0  0  0  0  0  0
   57.9062   -4.8756  -12.4177 O   0  0  0  0  0  0  0  0  0  0  0  0
   59.1282   -5.3589  -10.5928 O   0  0  0  0  0  0  0  0  0  0  0  0
 18 19  1  0  0  0
 19 20  1  0  0  0
 20 21  2  0  0  0
 20 17  1  0  0  0
 17  1  1  0  0  0
  1 24  1  0  0  0
 24 25  1  0  0  0
 25 26  2  0  0  0
 26 27  1  0  0  0
 27 28  2  0  0  0
 28 29  1  0  0  0
 29 30  2  0  0  0
 28 31  1  0  0  0
 31 32  1  0  0  0
 31 33  2  0  0  0
  1  2  1  0  0  0
  2  3  2  0  0  0
  2  4  2  0  0  0
  2  5  1  0  0  0
  5  6  2  0  0  0
  6  7  1  0  0  0
  7  8  2  0  0  0
  8  9  1  0  0  0
  9 10  2  0  0  0
  8 11  1  0  0  0
 11 12  2  0  0  0
 12 13  1  0  0  0
 13 14  2  0  0  0
 14 15  1  0  0  0
 15 16  2  0  0  0
 30 25  1  0  0  0
 10  5  1  0  0  0
 16 11  1  0  0  0
 18 22  1  0  0  0
 19 23  1  0  0  0
M  CHG 1  31   1
M  CHG 1  32  -1
M  END
> <minimizedAffinity>
-8.01626

> <CNNscore>
0.4365172684

> <CNNaffinity>
6.8213157654

> <CNN_VS>
2.9776220322

> <CNNaffinity_variance>
0.1408798397

$$$$
[H]ON([H])C(=O)C([H])([H])N(C([H])([H])c1c([H])c([H])c([N+](=O)[O-])c([H])c1[H])S(=O)(=O)c1c([H])c([H])c(-c2c([H])c([H])c([H])c([H])c2[H])c([H])c1[H]


 33 35  0  0  0  0  0  0  0  0999 V2000
   51.4643   -4.6859   -7.3465 N   0  0  0  0  0  0  0  0  0  0  0  0
   51.9875   -6.1569   -6.7555 S   0  0  0  0  0  0  0  0  0  0  0  0
   50.8745   -6.8201   -5.9943 O   0  0  0  0  0  0  0  0  0  0  0  0
   52.2466   -7.0662   -7.9565 O   0  0  0  0  0  0  0  0  0  0  0  0
   53.3943   -6.2331   -5.7831 C   0  0  0  0  0  0  0  0  0  0  0  0
   54.4915   -6.8916   -6.2954 C   0  0  0  0  0  0  0  0  0  0  0  0
   55.6771   -7.0048   -5.5779 C   0  0  0  0  0  0  0  0  0  0  0  0
   55.7770   -6.4499   -4.3184 C   0  0  0  0  0  0  0  0  0  0  0  0
   54.6658   -5.7973   -3.8301 C   0  0  0  0  0  0  0  0  0  0  0  0
   53.5078   -5.6836   -4.5244 C   0  0  0  0  0  0  0  0  0  0  0  0
   57.0066   -6.5478   -3.5331 C   0  0  0  0  0  0  0  0  0  0  0  0
   58.0210   -7.4051   -3.8174 C   0  0  0  0  0  0  0  0  0  0  0  0
   59.1373   -7.4119   -3.0054 C   0  0  0  0  0  0  0  0  0  0  0  0
   59.2688   -6.5829   -1.9133 C   0  0  0  0  0  0  0  0  0  0  0  0
   58.2322   -5.7068   -1.6228 C   0  0  0  0  0  0  0  0  0  0  0  0
   57.1167   -5.7017   -2.4362 C   0  0  0  0  0  0  0  0  0  0  0  0
   50.2151   -4.3489   -6.6506 C   0  0  0  0  0  0  0  0  0  0  0  0
   50.0844   -0.8290   -7.9642 O   0  0  0  0  0  0  0  0  0  0  0  0
   50.3548   -2.1719   -7.9044 N   0  0  0  0  0  0  0  0  0  0  0  0
   49.9571   -2.9076   -6.7739 C   0  0  0  0  0  0  0  0  0  0  0  0
   49.3649   -2.3133   -5.8407 O   0  0  0  0  0  0  0  0  0  0  0  0
   49.1450   -0.7595   -8.2737 H   0  0  0  0  0  0  0  0  0  0  0  0
   50.8573   -2.5327   -8.7365 H   0  0  0  0  0  0  0  0  0  0  0  0
   52.3849   -3.5889   -7.2901 C   0  0  0  0  0  0  0  0  0  0  0  0
   53.6101   -3.7483   -8.1027 C   0  0  0  0  0  0  0  0  0  0  0  0
   54.8779   -3.8201   -7.5949 C   0  0  0  0  0  0  0  0  0  0  0  0
   55.9922   -3.9659   -8.3784 C   0  0  0  0  0  0  0  0  0  0  0  0
   55.8532   -4.0461   -9.7401 C   0  0  0  0  0  0  0  0  0  0  0  0
   54.5920   -3.9785  -10.2993 C   0  0  0  0  0  0  0  0  0  0  0  0
   53.4898   -3.8316   -9.4850 C   0  0  0  0  0  0  0  0  0  0  0  0
   57.0175   -4.2005  -10.5829 N   0  0  0  0  0  0  0  0  0  0  0  0
   57.9101   -5.2088  -10.3506 O   0  0  0  0  0  0  0  0  0  0  0  0
   57.2098   -3.4191  -11.5185 O   0  0  0  0  0  0  0  0  0  0  0  0
 18 19  1  0  0  0
 19 20  1  0  0  0
 20 21  2  0  0  0
 20 17  1  0  0  0
 17  1  1  0  0  0
  1 24  1  0  0  0
 24 25  1  0  0  0
 25 26  2  0  0  0
 26 27  1  0  0  0
 27 28  2  0  0  0
 28 29  1  0  0  0
 29 30  2  0  0  0
 28 31  1  0  0  0
 31 32  1  0  0  0
 31 33  2  0  0  0
  1  2  1  0  0  0
  2  3  2  0  0  0
  2  4  2  0  0  0
  2  5  1  0  0  0
  5  6  2  0  0  0
  6  7  1  0  0  0
  7  8  2  0  0  0
  8  9  1  0  0  0
  9 10  2  0  0  0
  8 11  1  0  0  0
 11 12  2  0  0  0
 12 13  1  0  0  0
 13 14  2  0  0  0
 14 15  1  0  0  0
 15 16  2  0  0  0
 30 25  1  0  0  0
 10  5  1  0  0  0
 16 11  1  0  0  0
 18 22  1  0  0  0
 19 23  1  0  0  0
M  CHG 1  31   1
M  CHG 1  32  -1
M  END
> <minimizedAffinity>
-8.19261

> <CNNscore>
0.3938475549

> <CNNaffinity>
6.8229932785

> <CNN_VS>
2.6872191429

> <CNNaffinity_variance>
0.1093127504

$$$$
[H]ON([H])C(=O)C([H])([H])N(C([H])([H])c1c([H])c([H])c([N+](=O)[O-])c([H])c1[H])S(=O)(=O)c1c([H])c([H])c(-c2c([H])c([H])c([H])c([H])c2[H])c([H])c1[H]


 33 35  0  0  0  0  0  0  0  0999 V2000
   54.6731   -5.7955   -7.2880 N   0  0  0  0  0  0  0  0  0  0  0  0
   55.9160   -4.7889   -7.7664 S   0  0  0  0  0  0  0  0  0  0  0  0
   55.7085   -3.4187   -7.1853 O   0  0  0  0  0  0  0  0  0  0  0  0
   57.1995   -5.3071   -7.1179 O   0  0  0  0  0  0  0  0  0  0  0  0
   56.2635   -4.5958   -9.4315 C   0  0  0  0  0  0  0  0  0  0  0  0
   55.2435   -4.1649  -10.2524 C   0  0  0  0  0  0  0  0  0  0  0  0
   55.4320   -3.9803  -11.6175 C   0  0  0  0  0  0  0  0  0  0  0  0
   56.6657   -4.2298  -12.1836 C   0  0  0  0  0  0  0  0  0  0  0  0
   57.6677   -4.6593  -11.3407 C   0  0  0  0  0  0  0  0  0  0  0  0
   57.4902   -4.8410  -10.0098 C   0  0  0  0  0  0  0  0  0  0  0  0
   56.9031   -4.0473  -13.6148 C   0  0  0  0  0  0  0  0  0  0  0  0
   56.0277   -4.4247  -14.5823 C   0  0  0  0  0  0  0  0  0  0  0  0
   56.3571   -4.2033  -15.9045 C   0  0  0  0  0  0  0  0  0  0  0  0
   57.5410   -3.6132  -16.2882 C   0  0  0  0  0  0  0  0  0  0  0  0
   58.4355   -3.2275  -15.2995 C   0  0  0  0  0  0  0  0  0  0  0  0
   58.1041   -3.4499  -13.9780 C   0  0  0  0  0  0  0  0  0  0  0  0
   54.5407   -5.6721   -5.8301 C   0  0  0  0  0  0  0  0  0  0  0  0
   57.0473   -7.4370   -3.6543 O   0  0  0  0  0  0  0  0  0  0  0  0
   56.3391   -6.4170   -4.2359 N   0  0  0  0  0  0  0  0  0  0  0  0
   55.3359   -6.7191   -5.1739 C   0  0  0  0  0  0  0  0  0  0  0  0
   55.1147   -7.9207   -5.4601 O   0  0  0  0  0  0  0  0  0  0  0  0
   56.4793   -7.7664   -2.9114 H   0  0  0  0  0  0  0  0  0  0  0  0
   56.6302   -5.4741   -3.9178 H   0  0  0  0  0  0  0  0  0  0  0  0
   53.4020   -5.6209   -7.9266 C   0  0  0  0  0  0  0  0  0  0  0  0
   52.3289   -5.0817   -7.0637 C   0  0  0  0  0  0  0  0  0  0  0  0
   51.7723   -3.8397   -7.1969 C   0  0  0  0  0  0  0  0  0  0  0  0
   50.7798   -3.3710   -6.3770 C   0  0  0  0  0  0  0  0  0  0  0  0
   50.3064   -4.1689   -5.3675 C   0  0  0  0  0  0  0  0  0  0  0  0
   50.8379   -5.4319   -5.1939 C   0  0  0  0  0  0  0  0  0  0  0  0
   51.8357   -5.8756   -6.0348 C   0  0  0  0  0  0  0  0  0  0  0  0
   49.2592   -3.6917   -4.4926 N   0  0  0  0  0  0  0  0  0  0  0  0
   48.6317   -2.5051   -4.7490 O   0  0  0  0  0  0  0  0  0  0  0  0
   48.9273   -4.3568   -3.5076 O   0  0  0  0  0  0  0  0  0  0  0  0
 18 19  1  0  0  0
 19 20  1  0  0  0
 20 21  2  0  0  0
 20 17  1  0  0  0
 17  1  1  0  0  0
  1 24  1  0  0  0
 24 25  1  0  0  0
 25 26  2  0  0  0
 26 27  1  0  0  0
 27 28  2  0  0  0
 28 29  1  0  0  0
 29 30  2  0  0  0
 28 31  1  0  0  0
 31 32  1  0  0  0
 31 33  2  0  0  0
  1  2  1  0  0  0
  2  3  2  0  0  0
  2  4  2  0  0  0
  2  5  1  0  0  0
  5  6  2  0  0  0
  6  7  1  0  0  0
  7  8  2  0  0  0
  8  9  1  0  0  0
  9 10  2  0  0  0
  8 11  1  0  0  0
 11 12  2  0  0  0
 12 13  1  0  0  0
 13 14  2  0  0  0
 14 15  1  0  0  0
 15 16  2  0  0  0
 30 25  1  0  0  0
 10  5  1  0  0  0
 16 11  1  0  0  0
 18 22  1  0  0  0
 19 23  1  0  0  0
M  CHG 1  31   1
M  CHG 1  32  -1
M  END
> <minimizedAffinity>
-9.23266

> <CNNscore>
0.3356930912

> <CNNaffinity>
6.4558343887

> <CNN_VS>
2.1671791077

> <CNNaffinity_variance>
0.1097085923

$$$$
[H]ON([H])C(=O)C([H])([H])N(C([H])([H])c1c([H])c([H])c([N+](=O)[O-])c([H])c1[H])S(=O)(=O)c1c([H])c([H])c(-c2c([H])c([H])c([H])c([H])c2[H])c([H])c1[H]


 33 35  0  0  0  0  0  0  0  0999 V2000
   55.0947   -4.4729   -9.4250 N   0  0  0  0  0  0  0  0  0  0  0  0
   53.9807   -3.2344   -9.3168 S   0  0  0  0  0  0  0  0  0  0  0  0
   54.6935   -1.9332   -9.0782 O   0  0  0  0  0  0  0  0  0  0  0  0
   53.3277   -3.0854  -10.6908 O   0  0  0  0  0  0  0  0  0  0  0  0
   52.7002   -3.3362   -8.1852 C   0  0  0  0  0  0  0  0  0  0  0  0
   52.7308   -4.3714   -7.2756 C   0  0  0  0  0  0  0  0  0  0  0  0
   51.7341   -4.5348   -6.3201 C   0  0  0  0  0  0  0  0  0  0  0  0
   50.6786   -3.6474   -6.2653 C   0  0  0  0  0  0  0  0  0  0  0  0
   50.6725   -2.6219   -7.1858 C   0  0  0  0  0  0  0  0  0  0  0  0
   51.6407   -2.4574   -8.1193 C   0  0  0  0  0  0  0  0  0  0  0  0
   49.6116   -3.7858   -5.2751 C   0  0  0  0  0  0  0  0  0  0  0  0
   49.6257   -4.6974   -4.2684 C   0  0  0  0  0  0  0  0  0  0  0  0
   48.5619   -4.7387   -3.3896 C   0  0  0  0  0  0  0  0  0  0  0  0
   47.4805   -3.8914   -3.4892 C   0  0  0  0  0  0  0  0  0  0  0  0
   47.4661   -2.9598   -4.5180 C   0  0  0  0  0  0  0  0  0  0  0  0
   48.5310   -2.9203   -5.3956 C   0  0  0  0  0  0  0  0  0  0  0  0
   55.4275   -4.6453  -10.8456 C   0  0  0  0  0  0  0  0  0  0  0  0
   58.4803   -2.7363  -11.9264 O   0  0  0  0  0  0  0  0  0  0  0  0
   57.1597   -3.0565  -11.7433 N   0  0  0  0  0  0  0  0  0  0  0  0
   56.8232   -4.2473  -11.0754 C   0  0  0  0  0  0  0  0  0  0  0  0
   57.7444   -4.9938  -10.6645 O   0  0  0  0  0  0  0  0  0  0  0  0
   58.7741   -2.3194  -11.0761 H   0  0  0  0  0  0  0  0  0  0  0  0
   56.5034   -2.3588  -12.1405 H   0  0  0  0  0  0  0  0  0  0  0  0
   56.2870   -4.3563   -8.6382 C   0  0  0  0  0  0  0  0  0  0  0  0
   56.1323   -4.6782   -7.2032 C   0  0  0  0  0  0  0  0  0  0  0  0
   56.1369   -3.7564   -6.1931 C   0  0  0  0  0  0  0  0  0  0  0  0
   55.9930   -4.0906   -4.8724 C   0  0  0  0  0  0  0  0  0  0  0  0
   55.8354   -5.4072   -4.5234 C   0  0  0  0  0  0  0  0  0  0  0  0
   55.8243   -6.3745   -5.5092 C   0  0  0  0  0  0  0  0  0  0  0  0
   55.9713   -6.0074   -6.8295 C   0  0  0  0  0  0  0  0  0  0  0  0
   55.6819   -5.7789   -3.1349 N   0  0  0  0  0  0  0  0  0  0  0  0
   54.4417   -5.8153   -2.5622 O   0  0  0  0  0  0  0  0  0  0  0  0
   56.6742   -6.0658   -2.4596 O   0  0  0  0  0  0  0  0  0  0  0  0
 18 19  1  0  0  0
 19 20  1  0  0  0
 20 21  2  0  0  0
 20 17  1  0  0  0
 17  1  1  0  0  0
  1 24  1  0  0  0
 24 25  1  0  0  0
 25 26  2  0  0  0
 26 27  1  0  0  0
 27 28  2  0  0  0
 28 29  1  0  0  0
 29 30  2  0  0  0
 28 31  1  0  0  0
 31 32  1  0  0  0
 31 33  2  0  0  0
  1  2  1  0  0  0
  2  3  2  0  0  0
  2  4  2  0  0  0
  2  5  1  0  0  0
  5  6  2  0  0  0
  6  7  1  0  0  0
  7  8  2  0  0  0
  8  9  1  0  0  0
  9 10  2  0  0  0
  8 11  1  0  0  0
 11 12  2  0  0  0
 12 13  1  0  0  0
 13 14  2  0  0  0
 14 15  1  0  0  0
 15 16  2  0  0  0
 30 25  1  0  0  0
 10  5  1  0  0  0
 16 11  1  0  0  0
 18 22  1  0  0  0
 19 23  1  0  0  0
M  CHG 1  31   1
M  CHG 1  32  -1
M  END
> <minimizedAffinity>
-8.13877

> <CNNscore>
0.3277756572

> <CNNaffinity>
6.6758942604

> <CNN_VS>
2.1881957054

> <CNNaffinity_variance>
0.2358993739

$$$$
[H]ON([H])C(=O)C([H])([H])N(C([H])([H])c1c([H])c([H])c([N+](=O)[O-])c([H])c1[H])S(=O)(=O)c1c([H])c([H])c(-c2c([H])c([H])c([H])c([H])c2[H])c([H])c1[H]


 33 35  0  0  0  0  0  0  0  0999 V2000
   58.2693   -5.8994   -9.8384 N   0  0  0  0  0  0  0  0  0  0  0  0
   57.8082   -5.3076   -8.3471 S   0  0  0  0  0  0  0  0  0  0  0  0
   58.1830   -6.2918   -7.2752 O   0  0  0  0  0  0  0  0  0  0  0  0
   58.6567   -4.0680   -8.0648 O   0  0  0  0  0  0  0  0  0  0  0  0
   56.1814   -4.8473   -8.0787 C   0  0  0  0  0  0  0  0  0  0  0  0
   55.5153   -5.4356   -7.0250 C   0  0  0  0  0  0  0  0  0  0  0  0
   54.1924   -5.1245   -6.7312 C   0  0  0  0  0  0  0  0  0  0  0  0
   53.5119   -4.2051   -7.5032 C   0  0  0  0  0  0  0  0  0  0  0  0
   54.2010   -3.6321   -8.5500 C   0  0  0  0  0  0  0  0  0  0  0  0
   55.4901   -3.9310   -8.8414 C   0  0  0  0  0  0  0  0  0  0  0  0
   52.1204   -3.8517   -7.2258 C   0  0  0  0  0  0  0  0  0  0  0  0
   51.4681   -2.8189   -7.8194 C   0  0  0  0  0  0  0  0  0  0  0  0
   50.1521   -2.5764   -7.4800 C   0  0  0  0  0  0  0  0  0  0  0  0
   49.4674   -3.3401   -6.5606 C   0  0  0  0  0  0  0  0  0  0  0  0
   50.1341   -4.3956   -5.9540 C   0  0  0  0  0  0  0  0  0  0  0  0
   51.4500   -4.6362   -6.2949 C   0  0  0  0  0  0  0  0  0  0  0  0
   58.8833   -4.7917  -10.5829 C   0  0  0  0  0  0  0  0  0  0  0  0
   56.2248   -3.0377  -12.5799 O   0  0  0  0  0  0  0  0  0  0  0  0
   57.0249   -3.3776  -11.5195 N   0  0  0  0  0  0  0  0  0  0  0  0
   57.9942   -4.3838  -11.6793 C   0  0  0  0  0  0  0  0  0  0  0  0
   58.1012   -4.9518  -12.7931 O   0  0  0  0  0  0  0  0  0  0  0  0
   56.7604   -2.4076  -13.1270 H   0  0  0  0  0  0  0  0  0  0  0  0
   56.8241   -2.8382  -10.6570 H   0  0  0  0  0  0  0  0  0  0  0  0
   59.1215   -7.0516   -9.8544 C   0  0  0  0  0  0  0  0  0  0  0  0
   60.5565   -6.7808   -9.6215 C   0  0  0  0  0  0  0  0  0  0  0  0
   61.1112   -6.5163   -8.3998 C   0  0  0  0  0  0  0  0  0  0  0  0
   62.4464   -6.2673   -8.2207 C   0  0  0  0  0  0  0  0  0  0  0  0
   63.2858   -6.2788   -9.3048 C   0  0  0  0  0  0  0  0  0  0  0  0
   62.7712   -6.5413  -10.5595 C   0  0  0  0  0  0  0  0  0  0  0  0
   61.4235   -6.7882  -10.7081 C   0  0  0  0  0  0  0  0  0  0  0  0
   64.6976   -6.0187   -9.1352 N   0  0  0  0  0  0  0  0  0  0  0  0
   65.3503   -6.4505   -8.0150 O   0  0  0  0  0  0  0  0  0  0  0  0
   65.3204   -5.4033  -10.0049 O   0  0  0  0  0  0  0  0  0  0  0  0
 18 19  1  0  0  0
 19 20  1  0  0  0
 20 21  2  0  0  0
 20 17  1  0  0  0
 17  1  1  0  0  0
  1 24  1  0  0  0
 24 25  1  0  0  0
 25 26  2  0  0  0
 26 27  1  0  0  0
 27 28  2  0  0  0
 28 29  1  0  0  0
 29 30  2  0  0  0
 28 31  1  0  0  0
 31 32  1  0  0  0
 31 33  2  0  0  0
  1  2  1  0  0  0
  2  3  2  0  0  0
  2  4  2  0  0  0
  2  5  1  0  0  0
  5  6  2  0  0  0
  6  7  1  0  0  0
  7  8  2  0  0  0
  8  9  1  0  0  0
  9 10  2  0  0  0
  8 11  1  0  0  0
 11 12  2  0  0  0
 12 13  1  0  0  0
 13 14  2  0  0  0
 14 15  1  0  0  0
 15 16  2  0  0  0
 30 25  1  0  0  0
 10  5  1  0  0  0
 16 11  1  0  0  0
 18 22  1  0  0  0
 19 23  1  0  0  0
M  CHG 1  31   1
M  CHG 1  32  -1
M  END
> <minimizedAffinity>
-6.12671

> <CNNscore>
0.3202051222

> <CNNaffinity>
6.0059208870

> <CNN_VS>
1.9231265783

> <CNNaffinity_variance>
0.3413378298

$$$$
[H]ON([H])C(=O)C([H])([H])N(C([H])([H])c1c([H])c([H])c([N+](=O)[O-])c([H])c1[H])S(=O)(=O)c1c([H])c([H])c(-c2c([H])c([H])c([H])c([H])c2[H])c([H])c1[H]


 33 35  0  0  0  0  0  0  0  0999 V2000
   56.3185   -3.6103   -9.4883 N   0  0  0  0  0  0  0  0  0  0  0  0
   57.1350   -4.7202   -8.5458 S   0  0  0  0  0  0  0  0  0  0  0  0
   57.3511   -4.1536   -7.1709 O   0  0  0  0  0  0  0  0  0  0  0  0
   56.2071   -5.9178   -8.3425 O   0  0  0  0  0  0  0  0  0  0  0  0
   58.6306   -5.3573   -9.0822 C   0  0  0  0  0  0  0  0  0  0  0  0
   59.4907   -5.8598   -8.1295 C   0  0  0  0  0  0  0  0  0  0  0  0
   60.7271   -6.3965   -8.4709 C   0  0  0  0  0  0  0  0  0  0  0  0
   61.1208   -6.4359   -9.7930 C   0  0  0  0  0  0  0  0  0  0  0  0
   60.2423   -5.9272  -10.7249 C   0  0  0  0  0  0  0  0  0  0  0  0
   59.0363   -5.4030  -10.3985 C   0  0  0  0  0  0  0  0  0  0  0  0
   62.4129   -6.9925  -10.1916 C   0  0  0  0  0  0  0  0  0  0  0  0
   62.5672   -7.9299  -11.1622 C   0  0  0  0  0  0  0  0  0  0  0  0
   63.8371   -8.3848  -11.4558 C   0  0  0  0  0  0  0  0  0  0  0  0
   64.9611   -7.9273  -10.8042 C   0  0  0  0  0  0  0  0  0  0  0  0
   64.8034   -6.9694   -9.8123 C   0  0  0  0  0  0  0  0  0  0  0  0
   63.5326   -6.5159   -9.5203 C   0  0  0  0  0  0  0  0  0  0  0  0
   55.5468   -4.3615  -10.4875 C   0  0  0  0  0  0  0  0  0  0  0  0
   57.6727   -3.1310  -13.3333 O   0  0  0  0  0  0  0  0  0  0  0  0
   57.1068   -3.2038  -12.0864 N   0  0  0  0  0  0  0  0  0  0  0  0
   56.1856   -4.2280  -11.8040 C   0  0  0  0  0  0  0  0  0  0  0  0
   55.8993   -5.0524  -12.7058 O   0  0  0  0  0  0  0  0  0  0  0  0
   58.4243   -3.7776  -13.3233 H   0  0  0  0  0  0  0  0  0  0  0  0
   57.4229   -2.4558  -11.4417 H   0  0  0  0  0  0  0  0  0  0  0  0
   55.4819   -2.6625   -8.8130 C   0  0  0  0  0  0  0  0  0  0  0  0
   54.1907   -3.1929   -8.3249 C   0  0  0  0  0  0  0  0  0  0  0  0
   54.0560   -4.2602   -7.4806 C   0  0  0  0  0  0  0  0  0  0  0  0
   52.8422   -4.7269   -7.0497 C   0  0  0  0  0  0  0  0  0  0  0  0
   51.6936   -4.1090   -7.4727 C   0  0  0  0  0  0  0  0  0  0  0  0
   51.7794   -3.0264   -8.3262 C   0  0  0  0  0  0  0  0  0  0  0  0
   53.0150   -2.5799   -8.7425 C   0  0  0  0  0  0  0  0  0  0  0  0
   50.4037   -4.5871   -7.0283 N   0  0  0  0  0  0  0  0  0  0  0  0
   50.0970   -5.9168   -7.1008 O   0  0  0  0  0  0  0  0  0  0  0  0
   49.5723   -3.7929   -6.5802 O   0  0  0  0  0  0  0  0  0  0  0  0
 18 19  1  0  0  0
 19 20  1  0  0  0
 20 21  2  0  0  0
 20 17  1  0  0  0
 17  1  1  0  0  0
  1 24  1  0  0  0
 24 25  1  0  0  0
 25 26  2  0  0  0
 26 27  1  0  0  0
 27 28  2  0  0  0
 28 29  1  0  0  0
 29 30  2  0  0  0
 28 31  1  0  0  0
 31 32  1  0  0  0
 31 33  2  0  0  0
  1  2  1  0  0  0
  2  3  2  0  0  0
  2  4  2  0  0  0
  2  5  1  0  0  0
  5  6  2  0  0  0
  6  7  1  0  0  0
  7  8  2  0  0  0
  8  9  1  0  0  0
  9 10  2  0  0  0
  8 11  1  0  0  0
 11 12  2  0  0  0
 12 13  1  0  0  0
 13 14  2  0  0  0
 14 15  1  0  0  0
 15 16  2  0  0  0
 30 25  1  0  0  0
 10  5  1  0  0  0
 16 11  1  0  0  0
 18 22  1  0  0  0
 19 23  1  0  0  0
M  CHG 1  31   1
M  CHG 1  32  -1
M  END
> <minimizedAffinity>
-5.27390

> <CNNscore>
0.3141146302

> <CNNaffinity>
5.8129339218

> <CNN_VS>
1.8259276152

> <CNNaffinity_variance>
0.1775251627

$$$$
[H]ON([H])C(=O)C([H])([H])N(C([H])([H])c1c([H])c([H])c([N+](=O)[O-])c([H])c1[H])S(=O)(=O)c1c([H])c([H])c(-c2c([H])c([H])c([H])c([H])c2[H])c([H])c1[H]


 33 35  0  0  0  0  0  0  0  0999 V2000
   57.6967   -4.8567   -9.8605 N   0  0  0  0  0  0  0  0  0  0  0  0
   57.1670   -4.8431   -8.2775 S   0  0  0  0  0  0  0  0  0  0  0  0
   57.4513   -6.1730   -7.6382 O   0  0  0  0  0  0  0  0  0  0  0  0
   58.0325   -3.8405   -7.5144 O   0  0  0  0  0  0  0  0  0  0  0  0
   55.5411   -4.4389   -7.9262 C   0  0  0  0  0  0  0  0  0  0  0  0
   54.8659   -5.2304   -7.0220 C   0  0  0  0  0  0  0  0  0  0  0  0
   53.5429   -4.9795   -6.6757 C   0  0  0  0  0  0  0  0  0  0  0  0
   52.8715   -3.9147   -7.2415 C   0  0  0  0  0  0  0  0  0  0  0  0
   53.5697   -3.1397   -8.1421 C   0  0  0  0  0  0  0  0  0  0  0  0
   54.8588   -3.3791   -8.4836 C   0  0  0  0  0  0  0  0  0  0  0  0
   51.4803   -3.6186   -6.9027 C   0  0  0  0  0  0  0  0  0  0  0  0
   50.7246   -2.6913   -7.5461 C   0  0  0  0  0  0  0  0  0  0  0  0
   49.4199   -2.4946   -7.1403 C   0  0  0  0  0  0  0  0  0  0  0  0
   48.8472   -3.2012   -6.1059 C   0  0  0  0  0  0  0  0  0  0  0  0
   49.6195   -4.1487   -5.4484 C   0  0  0  0  0  0  0  0  0  0  0  0
   50.9240   -4.3437   -5.8558 C   0  0  0  0  0  0  0  0  0  0  0  0
   58.3313   -6.1594  -10.1031 C   0  0  0  0  0  0  0  0  0  0  0  0
   61.5523   -6.1858   -8.1650 O   0  0  0  0  0  0  0  0  0  0  0  0
   60.2097   -6.2640   -8.4325 N   0  0  0  0  0  0  0  0  0  0  0  0
   59.7560   -6.0852   -9.7514 C   0  0  0  0  0  0  0  0  0  0  0  0
   60.5948   -5.8534  -10.6556 O   0  0  0  0  0  0  0  0  0  0  0  0
   61.9220   -7.0774   -8.3922 H   0  0  0  0  0  0  0  0  0  0  0  0
   59.6285   -6.4499   -7.5942 H   0  0  0  0  0  0  0  0  0  0  0  0
   56.7315   -4.5681  -10.8800 C   0  0  0  0  0  0  0  0  0  0  0  0
   57.2930   -4.1739  -12.1899 C   0  0  0  0  0  0  0  0  0  0  0  0
   58.5983   -3.8273  -12.4056 C   0  0  0  0  0  0  0  0  0  0  0  0
   59.0846   -3.4646  -13.6339 C   0  0  0  0  0  0  0  0  0  0  0  0
   58.2396   -3.4411  -14.7134 C   0  0  0  0  0  0  0  0  0  0  0  0
   56.9121   -3.7834  -14.5446 C   0  0  0  0  0  0  0  0  0  0  0  0
   56.4522   -4.1440  -13.2965 C   0  0  0  0  0  0  0  0  0  0  0  0
   58.7348   -3.0613  -16.0174 N   0  0  0  0  0  0  0  0  0  0  0  0
   59.0560   -1.7598  -16.2826 O   0  0  0  0  0  0  0  0  0  0  0  0
   58.8696   -3.9145  -16.8987 O   0  0  0  0  0  0  0  0  0  0  0  0
 18 19  1  0  0  0
 19 20  1  0  0  0
 20 21  2  0  0  0
 20 17  1  0  0  0
 17  1  1  0  0  0
  1 24  1  0  0  0
 24 25  1  0  0  0
 25 26  2  0  0  0
 26 27  1  0  0  0
 27 28  2  0  0  0
 28 29  1  0  0  0
 29 30  2  0  0  0
 28 31  1  0  0  0
 31 32  1  0  0  0
 31 33  2  0  0  0
  1  2  1  0  0  0
  2  3  2  0  0  0
  2  4  2  0  0  0
  2  5  1  0  0  0
  5  6  2  0  0  0
  6  7  1  0  0  0
  7  8  2  0  0  0
  8  9  1  0  0  0
  9 10  2  0  0  0
  8 11  1  0  0  0
 11 12  2  0  0  0
 12 13  1  0  0  0
 13 14  2  0  0  0
 14 15  1  0  0  0
 15 16  2  0  0  0
 30 25  1  0  0  0
 10  5  1  0  0  0
 16 11  1  0  0  0
 18 22  1  0  0  0
 19 23  1  0  0  0
M  CHG 1  31   1
M  CHG 1  32  -1
M  END
> <minimizedAffinity>
-7.25231

> <CNNscore>
0.2984474897

> <CNNaffinity>
6.0934486389

> <CNN_VS>
1.8185744286

> <CNNaffinity_variance>
0.2082623541

$$$$
[H]ON([H])C(=O)C([H])([H])N(C([H])([H])c1c([H])c([H])c([N+](=O)[O-])c([H])c1[H])S(=O)(=O)c1c([H])c([H])c(-c2c([H])c([H])c([H])c([H])c2[H])c([H])c1[H]


 33 35  0  0  0  0  0  0  0  0999 V2000
   54.7905   -6.3911   -6.0441 N   0  0  0  0  0  0  0  0  0  0  0  0
   56.0860   -5.4026   -6.4068 S   0  0  0  0  0  0  0  0  0  0  0  0
   55.9750   -4.1198   -5.6323 O   0  0  0  0  0  0  0  0  0  0  0  0
   57.3451   -6.0842   -5.8715 O   0  0  0  0  0  0  0  0  0  0  0  0
   56.4167   -4.9945   -8.0361 C   0  0  0  0  0  0  0  0  0  0  0  0
   57.6181   -5.4103   -8.5689 C   0  0  0  0  0  0  0  0  0  0  0  0
   57.9732   -5.1247   -9.8825 C   0  0  0  0  0  0  0  0  0  0  0  0
   57.1135   -4.4076  -10.6894 C   0  0  0  0  0  0  0  0  0  0  0  0
   55.9194   -4.0043  -10.1321 C   0  0  0  0  0  0  0  0  0  0  0  0
   55.5676   -4.2794   -8.8529 C   0  0  0  0  0  0  0  0  0  0  0  0
   57.4512   -4.0878  -12.0757 C   0  0  0  0  0  0  0  0  0  0  0  0
   58.7146   -3.8450  -12.5111 C   0  0  0  0  0  0  0  0  0  0  0  0
   58.9168   -3.5521  -13.8449 C   0  0  0  0  0  0  0  0  0  0  0  0
   57.8880   -3.4949  -14.7590 C   0  0  0  0  0  0  0  0  0  0  0  0
   56.5969   -3.7431  -14.3140 C   0  0  0  0  0  0  0  0  0  0  0  0
   56.3971   -4.0358  -12.9797 C   0  0  0  0  0  0  0  0  0  0  0  0
   54.3202   -6.0280   -4.7004 C   0  0  0  0  0  0  0  0  0  0  0  0
   55.8905   -8.8820   -2.8241 O   0  0  0  0  0  0  0  0  0  0  0  0
   55.7566   -7.8347   -3.6989 N   0  0  0  0  0  0  0  0  0  0  0  0
   54.5265   -7.1588   -3.7851 C   0  0  0  0  0  0  0  0  0  0  0  0
   53.5751   -7.5351   -3.0584 O   0  0  0  0  0  0  0  0  0  0  0  0
   56.0772   -8.4703   -1.9416 H   0  0  0  0  0  0  0  0  0  0  0  0
   56.6156   -7.6360   -4.2448 H   0  0  0  0  0  0  0  0  0  0  0  0
   53.6986   -6.4121   -6.9722 C   0  0  0  0  0  0  0  0  0  0  0  0
   52.5358   -5.5776   -6.6005 C   0  0  0  0  0  0  0  0  0  0  0  0
   51.5810   -5.9336   -5.6885 C   0  0  0  0  0  0  0  0  0  0  0  0
   50.5142   -5.1356   -5.3695 C   0  0  0  0  0  0  0  0  0  0  0  0
   50.3773   -3.9165   -5.9820 C   0  0  0  0  0  0  0  0  0  0  0  0
   51.3171   -3.5134   -6.9104 C   0  0  0  0  0  0  0  0  0  0  0  0
   52.3796   -4.3383   -7.2105 C   0  0  0  0  0  0  0  0  0  0  0  0
   49.2583   -3.0606   -5.6579 N   0  0  0  0  0  0  0  0  0  0  0  0
   48.8857   -2.8730   -4.3566 O   0  0  0  0  0  0  0  0  0  0  0  0
   48.6334   -2.4943   -6.5589 O   0  0  0  0  0  0  0  0  0  0  0  0
 18 19  1  0  0  0
 19 20  1  0  0  0
 20 21  2  0  0  0
 20 17  1  0  0  0
 17  1  1  0  0  0
  1 24  1  0  0  0
 24 25  1  0  0  0
 25 26  2  0  0  0
 26 27  1  0  0  0
 27 28  2  0  0  0
 28 29  1  0  0  0
 29 30  2  0  0  0
 28 31  1  0  0  0
 31 32  1  0  0  0
 31 33  2  0  0  0
  1  2  1  0  0  0
  2  3  2  0  0  0
  2  4  2  0  0  0
  2  5  1  0  0  0
  5  6  2  0  0  0
  6  7  1  0  0  0
  7  8  2  0  0  0
  8  9  1  0  0  0
  9 10  2  0  0  0
  8 11  1  0  0  0
 11 12  2  0  0  0
 12 13  1  0  0  0
 13 14  2  0  0  0
 14 15  1  0  0  0
 15 16  2  0  0  0
 30 25  1  0  0  0
 10  5  1  0  0  0
 16 11  1  0  0  0
 18 22  1  0  0  0
 19 23  1  0  0  0
M  CHG 1  31   1
M  CHG 1  32  -1
M  END
> <minimizedAffinity>
-9.62156

> <CNNscore>
0.2828540504

> <CNNaffinity>
6.3369336128

> <CNN_VS>
1.7924273014

> <CNNaffinity_variance>
0.1098386645

$$$$
[H]ON([H])C(=O)C([H])([H])N(C([H])([H])c1c([H])c([H])c([N+](=O)[O-])c([H])c1[H])S(=O)(=O)c1c([H])c([H])c(-c2c([H])c([H])c([H])c([H])c2[H])c([H])c1[H]


 33 35  0  0  0  0  0  0  0  0999 V2000
   55.5820   -3.5688   -9.1585 N   0  0  0  0  0  0  0  0  0  0  0  0
   53.9943   -3.8264   -9.6055 S   0  0  0  0  0  0  0  0  0  0  0  0
   53.6338   -2.9093  -10.7400 O   0  0  0  0  0  0  0  0  0  0  0  0
   53.9066   -5.2364  -10.1889 O   0  0  0  0  0  0  0  0  0  0  0  0
   52.7502   -3.7127   -8.4351 C   0  0  0  0  0  0  0  0  0  0  0  0
   52.5452   -4.7988   -7.6115 C   0  0  0  0  0  0  0  0  0  0  0  0
   51.5577   -4.7981   -6.6327 C   0  0  0  0  0  0  0  0  0  0  0  0
   50.7519   -3.6901   -6.4663 C   0  0  0  0  0  0  0  0  0  0  0  0
   50.9781   -2.6184   -7.3025 C   0  0  0  0  0  0  0  0  0  0  0  0
   51.9387   -2.6130   -8.2581 C   0  0  0  0  0  0  0  0  0  0  0  0
   49.7031   -3.6513   -5.4482 C   0  0  0  0  0  0  0  0  0  0  0  0
   48.7114   -2.7237   -5.4170 C   0  0  0  0  0  0  0  0  0  0  0  0
   47.7726   -2.7832   -4.4066 C   0  0  0  0  0  0  0  0  0  0  0  0
   47.7973   -3.7472   -3.4230 C   0  0  0  0  0  0  0  0  0  0  0  0
   48.8108   -4.6950   -3.4550 C   0  0  0  0  0  0  0  0  0  0  0  0
   49.7485   -4.6336   -4.4663 C   0  0  0  0  0  0  0  0  0  0  0  0
   55.6165   -3.4583   -7.6939 C   0  0  0  0  0  0  0  0  0  0  0  0
   56.3322   -6.7265   -5.9797 O   0  0  0  0  0  0  0  0  0  0  0  0
   55.6267   -5.6648   -6.4849 N   0  0  0  0  0  0  0  0  0  0  0  0
   56.3147   -4.6215   -7.1295 C   0  0  0  0  0  0  0  0  0  0  0  0
   57.5644   -4.6859   -7.2237 O   0  0  0  0  0  0  0  0  0  0  0  0
   56.4901   -7.3321   -6.7488 H   0  0  0  0  0  0  0  0  0  0  0  0
   54.6038   -5.7332   -6.3296 H   0  0  0  0  0  0  0  0  0  0  0  0
   56.5564   -4.5150   -9.6161 C   0  0  0  0  0  0  0  0  0  0  0  0
   57.1202   -4.2451  -10.9562 C   0  0  0  0  0  0  0  0  0  0  0  0
   58.4559   -4.1574  -11.2363 C   0  0  0  0  0  0  0  0  0  0  0  0
   58.9438   -3.9034  -12.4910 C   0  0  0  0  0  0  0  0  0  0  0  0
   58.0686   -3.7252  -13.5313 C   0  0  0  0  0  0  0  0  0  0  0  0
   56.7097   -3.8047  -13.2971 C   0  0  0  0  0  0  0  0  0  0  0  0
   56.2490   -4.0616  -12.0238 C   0  0  0  0  0  0  0  0  0  0  0  0
   58.5649   -3.4566  -14.8623 N   0  0  0  0  0  0  0  0  0  0  0  0
   57.8529   -3.8543  -15.9587 O   0  0  0  0  0  0  0  0  0  0  0  0
   59.6373   -2.8650  -15.0131 O   0  0  0  0  0  0  0  0  0  0  0  0
 18 19  1  0  0  0
 19 20  1  0  0  0
 20 21  2  0  0  0
 20 17  1  0  0  0
 17  1  1  0  0  0
  1 24  1  0  0  0
 24 25  1  0  0  0
 25 26  2  0  0  0
 26 27  1  0  0  0
 27 28  2  0  0  0
 28 29  1  0  0  0
 29 30  2  0  0  0
 28 31  1  0  0  0
 31 32  1  0  0  0
 31 33  2  0  0  0
  1  2  1  0  0  0
  2  3  2  0  0  0
  2  4  2  0  0  0
  2  5  1  0  0  0
  5  6  2  0  0  0
  6  7  1  0  0  0
  7  8  2  0  0  0
  8  9  1  0  0  0
  9 10  2  0  0  0
  8 11  1  0  0  0
 11 12  2  0  0  0
 12 13  1  0  0  0
 13 14  2  0  0  0
 14 15  1  0  0  0
 15 16  2  0  0  0
 30 25  1  0  0  0
 10  5  1  0  0  0
 16 11  1  0  0  0
 18 22  1  0  0  0
 19 23  1  0  0  0
M  CHG 1  31   1
M  CHG 1  32  -1
M  END
> <minimizedAffinity>
-7.78641

> <CNNscore>
0.2770267129

> <CNNaffinity>
6.2614741325

> <CNN_VS>
1.7345956564

> <CNNaffinity_variance>
0.4034472406

$$$$
[H]OC(=O)[C@@]([H])(N([H])C(=O)[C@@]([H])(N([H])C(=O)OC([H])([H])c1c([H])c([H])c([H])c([H])c1[H])C([H])(c1c([H])c([H])c([H])c([H])c1[H])c1c([H])c([H])c([H])c([H])c1[H])C([H])([H])[H]


 36 38  0  0  0  0  0  0  0  0999 V2000
   64.4924   -7.9546  -10.1640 C   0  0  0  0  0  0  0  0  0  0  0  0
   63.6766  -10.0594  -11.3655 N   0  0  0  0  0  0  0  0  0  0  0  0
   64.6302   -9.3103  -10.6702 C   0  0  0  0  0  0  0  0  0  0  0  0
   65.7519   -9.9041  -10.4580 O   0  0  0  0  0  0  0  0  0  0  0  0
   62.7166   -9.7435  -11.6188 H   0  0  0  0  0  0  0  0  0  0  0  0
   62.9074  -12.2947  -11.0875 C   0  0  0  0  0  0  0  0  0  0  0  0
   63.9473  -11.4313  -11.8155 C   0  0  0  0  0  0  0  0  0  0  0  0
   63.8801  -11.6035  -13.2589 C   0  0  0  0  0  0  0  0  0  0  0  0
   63.1335  -12.6227  -13.8233 O   0  0  0  0  0  0  0  0  0  0  0  0
   64.4979  -10.8317  -14.0232 O   0  0  0  0  0  0  0  0  0  0  0  0
   63.3941  -13.5984  -13.7869 H   0  0  0  0  0  0  0  0  0  0  0  0
   63.7267   -7.1507  -11.1503 N   0  0  0  0  0  0  0  0  0  0  0  0
   64.3004   -6.5975  -12.3043 C   0  0  0  0  0  0  0  0  0  0  0  0
   65.5060   -6.7673  -12.5608 O   0  0  0  0  0  0  0  0  0  0  0  0
   62.7152   -6.9999  -10.9612 H   0  0  0  0  0  0  0  0  0  0  0  0
   63.5244   -5.8556  -13.1681 O   0  0  0  0  0  0  0  0  0  0  0  0
   63.1477   -6.3057  -14.4338 C   0  0  0  0  0  0  0  0  0  0  0  0
   62.7320   -5.1429  -15.2844 C   0  0  0  0  0  0  0  0  0  0  0  0
   63.2931   -5.0445  -16.5320 C   0  0  0  0  0  0  0  0  0  0  0  0
   62.9442   -3.9931  -17.3543 C   0  0  0  0  0  0  0  0  0  0  0  0
   62.0359   -3.0696  -16.8894 C   0  0  0  0  0  0  0  0  0  0  0  0
   61.4788   -3.1748  -15.6397 C   0  0  0  0  0  0  0  0  0  0  0  0
   61.8259   -4.2193  -14.8241 C   0  0  0  0  0  0  0  0  0  0  0  0
   63.8182   -7.7445   -8.8728 C   0  0  0  0  0  0  0  0  0  0  0  0
   62.3744   -7.3956   -9.0951 C   0  0  0  0  0  0  0  0  0  0  0  0
   61.4933   -8.3647   -9.5922 C   0  0  0  0  0  0  0  0  0  0  0  0
   60.1646   -8.0706   -9.7925 C   0  0  0  0  0  0  0  0  0  0  0  0
   59.6736   -6.8098   -9.5060 C   0  0  0  0  0  0  0  0  0  0  0  0
   60.5079   -5.8296   -9.0159 C   0  0  0  0  0  0  0  0  0  0  0  0
   61.8408   -6.1681   -8.8286 C   0  0  0  0  0  0  0  0  0  0  0  0
   64.4168   -6.8645   -7.8778 C   0  0  0  0  0  0  0  0  0  0  0  0
   65.1927   -5.7871   -8.2196 C   0  0  0  0  0  0  0  0  0  0  0  0
   65.7530   -4.9288   -7.2620 C   0  0  0  0  0  0  0  0  0  0  0  0
   65.5290   -5.1572   -5.9224 C   0  0  0  0  0  0  0  0  0  0  0  0
   64.7491   -6.2394   -5.5618 C   0  0  0  0  0  0  0  0  0  0  0  0
   64.2068   -7.0717   -6.5096 C   0  0  0  0  0  0  0  0  0  0  0  0
  6  7  1  0  0  0
  7  2  1  0  0  0
  2  3  1  0  0  0
  3  4  2  0  0  0
  3  1  1  0  0  0
  1 12  1  0  0  0
 12 13  1  0  0  0
 13 14  2  0  0  0
 13 16  1  0  0  0
 16 17  1  0  0  0
 17 18  1  0  0  0
 18 19  2  0  0  0
 19 20  1  0  0  0
 20 21  2  0  0  0
 21 22  1  0  0  0
 22 23  2  0  0  0
  1 24  1  0  0  0
 24 25  1  0  0  0
 25 26  2  0  0  0
 26 27  1  0  0  0
 27 28  2  0  0  0
 28 29  1  0  0  0
 29 30  2  0  0  0
 24 31  1  0  0  0
 31 32  2  0  0  0
 32 33  1  0  0  0
 33 34  2  0  0  0
 34 35  1  0  0  0
 35 36  2  0  0  0
  7  8  1  0  0  0
  8  9  1  0  0  0
  8 10  2  0  0  0
 23 18  1  0  0  0
 30 25  1  0  0  0
 36 31  1  0  0  0
  2  5  1  0  0  0
 12 15  1  0  0  0
  9 11  1  0  0  0
M  END
> <minimizedAffinity>
-2.27001

> <CNNscore>
0.4578887522

> <CNNaffinity>
4.8297338486

> <CNN_VS>
2.2114808559

> <CNNaffinity_variance>
0.6480563879

$$$$
[H]OC(=O)[C@@]([H])(N([H])C(=O)[C@@]([H])(N([H])C(=O)OC([H])([H])c1c([H])c([H])c([H])c([H])c1[H])C([H])(c1c([H])c([H])c([H])c([H])c1[H])c1c([H])c([H])c([H])c([H])c1[H])C([H])([H])[H]


 36 38  0  0  0  0  0  0  0  0999 V2000
   56.1490   -3.7399   -9.9570 C   0  0  0  0  0  0  0  0  0  0  0  0
   56.2232   -4.1165  -12.4852 N   0  0  0  0  0  0  0  0  0  0  0  0
   56.6088   -3.4673  -11.3089 C   0  0  0  0  0  0  0  0  0  0  0  0
   57.4734   -2.5256  -11.4553 O   0  0  0  0  0  0  0  0  0  0  0  0
   55.5424   -4.9019  -12.5554 H   0  0  0  0  0  0  0  0  0  0  0  0
   58.2919   -3.9451  -13.6501 C   0  0  0  0  0  0  0  0  0  0  0  0
   56.7769   -3.7421  -13.7934 C   0  0  0  0  0  0  0  0  0  0  0  0
   56.2306   -4.5045  -14.9060 C   0  0  0  0  0  0  0  0  0  0  0  0
   56.2601   -5.8878  -14.9075 O   0  0  0  0  0  0  0  0  0  0  0  0
   55.7211   -3.9240  -15.8883 O   0  0  0  0  0  0  0  0  0  0  0  0
   57.1014   -6.4331  -15.0350 H   0  0  0  0  0  0  0  0  0  0  0  0
   54.6647   -3.7857   -9.9561 N   0  0  0  0  0  0  0  0  0  0  0  0
   53.8648   -2.8206   -9.3272 C   0  0  0  0  0  0  0  0  0  0  0  0
   54.3789   -1.8555   -8.7334 O   0  0  0  0  0  0  0  0  0  0  0  0
   54.2111   -4.5798  -10.4514 H   0  0  0  0  0  0  0  0  0  0  0  0
   52.4923   -2.9374   -9.3637 O   0  0  0  0  0  0  0  0  0  0  0  0
   51.6372   -2.1293   -8.6138 C   0  0  0  0  0  0  0  0  0  0  0  0
   51.0952   -2.9043   -7.4502 C   0  0  0  0  0  0  0  0  0  0  0  0
   49.9554   -2.4282   -6.8541 C   0  0  0  0  0  0  0  0  0  0  0  0
   49.4159   -3.1044   -5.7795 C   0  0  0  0  0  0  0  0  0  0  0  0
   50.0467   -4.2452   -5.3379 C   0  0  0  0  0  0  0  0  0  0  0  0
   51.1869   -4.7152   -5.9395 C   0  0  0  0  0  0  0  0  0  0  0  0
   51.7218   -4.0431   -7.0067 C   0  0  0  0  0  0  0  0  0  0  0  0
   56.5842   -4.9810   -9.2964 C   0  0  0  0  0  0  0  0  0  0  0  0
   56.0712   -5.0220   -7.8854 C   0  0  0  0  0  0  0  0  0  0  0  0
   56.4083   -3.9963   -6.9928 C   0  0  0  0  0  0  0  0  0  0  0  0
   55.9402   -4.0075   -5.6995 C   0  0  0  0  0  0  0  0  0  0  0  0
   55.1264   -5.0340   -5.2561 C   0  0  0  0  0  0  0  0  0  0  0  0
   54.7725   -6.0608   -6.1031 C   0  0  0  0  0  0  0  0  0  0  0  0
   55.2662   -6.0111   -7.3993 C   0  0  0  0  0  0  0  0  0  0  0  0
   57.9852   -5.3773   -9.3502 C   0  0  0  0  0  0  0  0  0  0  0  0
   58.7226   -5.6297   -8.2224 C   0  0  0  0  0  0  0  0  0  0  0  0
   60.0660   -6.0300   -8.2752 C   0  0  0  0  0  0  0  0  0  0  0  0
   60.6885   -6.1816   -9.4944 C   0  0  0  0  0  0  0  0  0  0  0  0
   59.9584   -5.9307  -10.6405 C   0  0  0  0  0  0  0  0  0  0  0  0
   58.6441   -5.5395  -10.5743 C   0  0  0  0  0  0  0  0  0  0  0  0
  6  7  1  0  0  0
  7  2  1  0  0  0
  2  3  1  0  0  0
  3  4  2  0  0  0
  3  1  1  0  0  0
  1 12  1  0  0  0
 12 13  1  0  0  0
 13 14  2  0  0  0
 13 16  1  0  0  0
 16 17  1  0  0  0
 17 18  1  0  0  0
 18 19  2  0  0  0
 19 20  1  0  0  0
 20 21  2  0  0  0
 21 22  1  0  0  0
 22 23  2  0  0  0
  1 24  1  0  0  0
 24 25  1  0  0  0
 25 26  2  0  0  0
 26 27  1  0  0  0
 27 28  2  0  0  0
 28 29  1  0  0  0
 29 30  2  0  0  0
 24 31  1  0  0  0
 31 32  2  0  0  0
 32 33  1  0  0  0
 33 34  2  0  0  0
 34 35  1  0  0  0
 35 36  2  0  0  0
  7  8  1  0  0  0
  8  9  1  0  0  0
  8 10  2  0  0  0
 23 18  1  0  0  0
 30 25  1  0  0  0
 36 31  1  0  0  0
  2  5  1  0  0  0
 12 15  1  0  0  0
  9 11  1  0  0  0
M  END
> <minimizedAffinity>
-8.24583

> <CNNscore>
0.4475493133

> <CNNaffinity>
6.5444869995

> <CNN_VS>
2.9289805889

> <CNNaffinity_variance>
0.1329328716

$$$$
[H]OC(=O)[C@@]([H])(N([H])C(=O)[C@@]([H])(N([H])C(=O)OC([H])([H])c1c([H])c([H])c([H])c([H])c1[H])C([H])(c1c([H])c([H])c([H])c([H])c1[H])c1c([H])c([H])c([H])c([H])c1[H])C([H])([H])[H]


 36 38  0  0  0  0  0  0  0  0999 V2000
   59.9803   -4.6411  -12.7665 C   0  0  0  0  0  0  0  0  0  0  0  0
   62.1907   -4.6359  -14.0525 N   0  0  0  0  0  0  0  0  0  0  0  0
   61.0976   -4.0082  -13.4480 C   0  0  0  0  0  0  0  0  0  0  0  0
   61.0968   -2.7228  -13.5062 O   0  0  0  0  0  0  0  0  0  0  0  0
   62.3591   -5.6631  -14.0957 H   0  0  0  0  0  0  0  0  0  0  0  0
   64.4882   -4.0659  -13.8029 C   0  0  0  0  0  0  0  0  0  0  0  0
   63.2609   -3.8690  -14.7040 C   0  0  0  0  0  0  0  0  0  0  0  0
   63.5257   -4.2734  -16.0766 C   0  0  0  0  0  0  0  0  0  0  0  0
   62.7779   -5.2649  -16.6866 O   0  0  0  0  0  0  0  0  0  0  0  0
   64.4380   -3.7318  -16.7368 O   0  0  0  0  0  0  0  0  0  0  0  0
   62.8483   -6.2462  -16.4554 H   0  0  0  0  0  0  0  0  0  0  0  0
   60.3704   -4.9154  -11.3601 N   0  0  0  0  0  0  0  0  0  0  0  0
   61.3253   -5.8771  -10.9993 C   0  0  0  0  0  0  0  0  0  0  0  0
   61.9064   -6.5545  -11.8663 O   0  0  0  0  0  0  0  0  0  0  0  0
   59.9030   -4.3573  -10.6174 H   0  0  0  0  0  0  0  0  0  0  0  0
   61.6274   -6.0790   -9.6702 O   0  0  0  0  0  0  0  0  0  0  0  0
   62.4746   -7.0944   -9.2257 C   0  0  0  0  0  0  0  0  0  0  0  0
   63.1605   -6.6682   -7.9624 C   0  0  0  0  0  0  0  0  0  0  0  0
   62.8192   -7.3268   -6.8088 C   0  0  0  0  0  0  0  0  0  0  0  0
   63.4214   -6.9727   -5.6192 C   0  0  0  0  0  0  0  0  0  0  0  0
   64.3534   -5.9602   -5.6310 C   0  0  0  0  0  0  0  0  0  0  0  0
   64.6896   -5.3058   -6.7893 C   0  0  0  0  0  0  0  0  0  0  0  0
   64.0912   -5.6582   -7.9702 C   0  0  0  0  0  0  0  0  0  0  0  0
   58.6979   -3.9232  -12.6892 C   0  0  0  0  0  0  0  0  0  0  0  0
   57.9980   -4.2539  -11.4021 C   0  0  0  0  0  0  0  0  0  0  0  0
   56.8819   -3.5060  -11.0053 C   0  0  0  0  0  0  0  0  0  0  0  0
   56.2186   -3.7988   -9.8364 C   0  0  0  0  0  0  0  0  0  0  0  0
   56.6427   -4.8393   -9.0301 C   0  0  0  0  0  0  0  0  0  0  0  0
   57.7359   -5.5979   -9.3854 C   0  0  0  0  0  0  0  0  0  0  0  0
   58.3762   -5.2691  -10.5721 C   0  0  0  0  0  0  0  0  0  0  0  0
   57.7703   -3.9744  -13.8116 C   0  0  0  0  0  0  0  0  0  0  0  0
   56.6583   -4.7763  -13.8115 C   0  0  0  0  0  0  0  0  0  0  0  0
   55.7551   -4.8110  -14.8842 C   0  0  0  0  0  0  0  0  0  0  0  0
   55.9730   -4.0187  -15.9895 C   0  0  0  0  0  0  0  0  0  0  0  0
   57.0898   -3.2050  -16.0047 C   0  0  0  0  0  0  0  0  0  0  0  0
   57.9658   -3.1809  -14.9478 C   0  0  0  0  0  0  0  0  0  0  0  0
  6  7  1  0  0  0
  7  2  1  0  0  0
  2  3  1  0  0  0
  3  4  2  0  0  0
  3  1  1  0  0  0
  1 12  1  0  0  0
 12 13  1  0  0  0
 13 14  2  0  0  0
 13 16  1  0  0  0
 16 17  1  0  0  0
 17 18  1  0  0  0
 18 19  2  0  0  0
 19 20  1  0  0  0
 20 21  2  0  0  0
 21 22  1  0  0  0
 22 23  2  0  0  0
  1 24  1  0  0  0
 24 25  1  0  0  0
 25 26  2  0  0  0
 26 27  1  0  0  0
 27 28  2  0  0  0
 28 29  1  0  0  0
 29 30  2  0  0  0
 24 31  1  0  0  0
 31 32  2  0  0  0
 32 33  1  0  0  0
 33 34  2  0  0  0
 34 35  1  0  0  0
 35 36  2  0  0  0
  7  8  1  0  0  0
  8  9  1  0  0  0
  8 10  2  0  0  0
 23 18  1  0  0  0
 30 25  1  0  0  0
 36 31  1  0  0  0
  2  5  1  0  0  0
 12 15  1  0  0  0
  9 11  1  0  0  0
M  END
> <minimizedAffinity>
-3.07237

> <CNNscore>
0.4407563806

> <CNNaffinity>
5.1376223564

> <CNN_VS>
2.2644398212

> <CNNaffinity_variance>
0.1115094647

$$$$
[H]OC(=O)[C@@]([H])(N([H])C(=O)[C@@]([H])(N([H])C(=O)OC([H])([H])c1c([H])c([H])c([H])c([H])c1[H])C([H])(c1c([H])c([H])c([H])c([H])c1[H])c1c([H])c([H])c([H])c([H])c1[H])C([H])([H])[H]


 36 38  0  0  0  0  0  0  0  0999 V2000
   59.8797   -6.4441   -9.2968 C   0  0  0  0  0  0  0  0  0  0  0  0
   61.5239   -7.5872  -10.8871 N   0  0  0  0  0  0  0  0  0  0  0  0
   61.1521   -6.5858   -9.9855 C   0  0  0  0  0  0  0  0  0  0  0  0
   62.0512   -5.6975   -9.7445 O   0  0  0  0  0  0  0  0  0  0  0  0
   60.9296   -8.3863  -11.1930 H   0  0  0  0  0  0  0  0  0  0  0  0
   63.2918   -9.0842  -11.4342 C   0  0  0  0  0  0  0  0  0  0  0  0
   62.8548   -7.6143  -11.5085 C   0  0  0  0  0  0  0  0  0  0  0  0
   62.8799   -7.1096  -12.8730 C   0  0  0  0  0  0  0  0  0  0  0  0
   62.4083   -5.8446  -13.1761 O   0  0  0  0  0  0  0  0  0  0  0  0
   63.3297   -7.8105  -13.8047 O   0  0  0  0  0  0  0  0  0  0  0  0
   61.4296   -5.5926  -13.1728 H   0  0  0  0  0  0  0  0  0  0  0  0
   60.1143   -6.5363   -7.8333 N   0  0  0  0  0  0  0  0  0  0  0  0
   60.9846   -7.4687   -7.2501 C   0  0  0  0  0  0  0  0  0  0  0  0
   61.6190   -8.2752   -7.9539 O   0  0  0  0  0  0  0  0  0  0  0  0
   59.6000   -5.8684   -7.2242 H   0  0  0  0  0  0  0  0  0  0  0  0
   61.1426   -7.4970   -5.8816 O   0  0  0  0  0  0  0  0  0  0  0  0
   60.1670   -7.9826   -5.0104 C   0  0  0  0  0  0  0  0  0  0  0  0
   60.7396   -9.0827   -4.1676 C   0  0  0  0  0  0  0  0  0  0  0  0
   60.0188   -9.4716   -3.0674 C   0  0  0  0  0  0  0  0  0  0  0  0
   60.5019  -10.4796   -2.2588 C   0  0  0  0  0  0  0  0  0  0  0  0
   61.7028  -11.0661   -2.5872 C   0  0  0  0  0  0  0  0  0  0  0  0
   62.4182  -10.6714   -3.6897 C   0  0  0  0  0  0  0  0  0  0  0  0
   61.9376   -9.6704   -4.4921 C   0  0  0  0  0  0  0  0  0  0  0  0
   59.0985   -5.2128   -9.4961 C   0  0  0  0  0  0  0  0  0  0  0  0
   57.9259   -5.1880   -8.5579 C   0  0  0  0  0  0  0  0  0  0  0  0
   57.9399   -5.9851   -7.4060 C   0  0  0  0  0  0  0  0  0  0  0  0
   56.8820   -5.9694   -6.5270 C   0  0  0  0  0  0  0  0  0  0  0  0
   55.7830   -5.1644   -6.7653 C   0  0  0  0  0  0  0  0  0  0  0  0
   55.7312   -4.3664   -7.8866 C   0  0  0  0  0  0  0  0  0  0  0  0
   56.8191   -4.4123   -8.7473 C   0  0  0  0  0  0  0  0  0  0  0  0
   58.6954   -4.8203  -10.8401 C   0  0  0  0  0  0  0  0  0  0  0  0
   57.4048   -4.9419  -11.2865 C   0  0  0  0  0  0  0  0  0  0  0  0
   57.0132   -4.5459  -12.5739 C   0  0  0  0  0  0  0  0  0  0  0  0
   57.9424   -4.0126  -13.4393 C   0  0  0  0  0  0  0  0  0  0  0  0
   59.2476   -3.8838  -13.0040 C   0  0  0  0  0  0  0  0  0  0  0  0
   59.6173   -4.2755  -11.7411 C   0  0  0  0  0  0  0  0  0  0  0  0
  6  7  1  0  0  0
  7  2  1  0  0  0
  2  3  1  0  0  0
  3  4  2  0  0  0
  3  1  1  0  0  0
  1 12  1  0  0  0
 12 13  1  0  0  0
 13 14  2  0  0  0
 13 16  1  0  0  0
 16 17  1  0  0  0
 17 18  1  0  0  0
 18 19  2  0  0  0
 19 20  1  0  0  0
 20 21  2  0  0  0
 21 22  1  0  0  0
 22 23  2  0  0  0
  1 24  1  0  0  0
 24 25  1  0  0  0
 25 26  2  0  0  0
 26 27  1  0  0  0
 27 28  2  0  0  0
 28 29  1  0  0  0
 29 30  2  0  0  0
 24 31  1  0  0  0
 31 32  2  0  0  0
 32 33  1  0  0  0
 33 34  2  0  0  0
 34 35  1  0  0  0
 35 36  2  0  0  0
  7  8  1  0  0  0
  8  9  1  0  0  0
  8 10  2  0  0  0
 23 18  1  0  0  0
 30 25  1  0  0  0
 36 31  1  0  0  0
  2  5  1  0  0  0
 12 15  1  0  0  0
  9 11  1  0  0  0
M  END
> <minimizedAffinity>
-2.47729

> <CNNscore>
0.4032817185

> <CNNaffinity>
5.1960191727

> <CNN_VS>
2.0954594612

> <CNNaffinity_variance>
0.3468383849

$$$$
[H]OC(=O)[C@@]([H])(N([H])C(=O)[C@@]([H])(N([H])C(=O)OC([H])([H])c1c([H])c([H])c([H])c([H])c1[H])C([H])(c1c([H])c([H])c([H])c([H])c1[H])c1c([H])c([H])c([H])c([H])c1[H])C([H])([H])[H]


 36 38  0  0  0  0  0  0  0  0999 V2000
   59.4598   -6.5068   -9.1663 C   0  0  0  0  0  0  0  0  0  0  0  0
   61.5868   -6.3863  -10.5809 N   0  0  0  0  0  0  0  0  0  0  0  0
   60.4026   -6.9972  -10.1583 C   0  0  0  0  0  0  0  0  0  0  0  0
   60.1273   -8.1194  -10.7243 O   0  0  0  0  0  0  0  0  0  0  0  0
   61.9617   -5.4766  -10.2383 H   0  0  0  0  0  0  0  0  0  0  0  0
   62.6593   -5.8841  -12.6456 C   0  0  0  0  0  0  0  0  0  0  0  0
   62.4483   -6.9926  -11.6047 C   0  0  0  0  0  0  0  0  0  0  0  0
   63.7111   -7.4997  -11.0891 C   0  0  0  0  0  0  0  0  0  0  0  0
   63.8941   -7.7189   -9.7352 O   0  0  0  0  0  0  0  0  0  0  0  0
   64.6616   -7.7490  -11.8610 O   0  0  0  0  0  0  0  0  0  0  0  0
   63.9900   -6.9796   -9.0529 H   0  0  0  0  0  0  0  0  0  0  0  0
   60.1656   -6.3553   -7.8685 N   0  0  0  0  0  0  0  0  0  0  0  0
   61.1256   -7.2656   -7.4031 C   0  0  0  0  0  0  0  0  0  0  0  0
   61.4399   -8.2616   -8.0793 O   0  0  0  0  0  0  0  0  0  0  0  0
   59.9246   -5.5270   -7.2877 H   0  0  0  0  0  0  0  0  0  0  0  0
   61.7313   -7.0598   -6.1827 O   0  0  0  0  0  0  0  0  0  0  0  0
   62.2508   -8.0945   -5.4042 C   0  0  0  0  0  0  0  0  0  0  0  0
   63.4389   -7.6033   -4.6325 C   0  0  0  0  0  0  0  0  0  0  0  0
   63.5608   -8.0225   -3.3323 C   0  0  0  0  0  0  0  0  0  0  0  0
   64.6360   -7.5992   -2.5786 C   0  0  0  0  0  0  0  0  0  0  0  0
   65.5587   -6.7621   -3.1635 C   0  0  0  0  0  0  0  0  0  0  0  0
   65.4298   -6.3470   -4.4650 C   0  0  0  0  0  0  0  0  0  0  0  0
   64.3618   -6.7680   -5.2126 C   0  0  0  0  0  0  0  0  0  0  0  0
   58.7858   -5.2202   -9.4034 C   0  0  0  0  0  0  0  0  0  0  0  0
   57.6618   -5.0382   -8.4240 C   0  0  0  0  0  0  0  0  0  0  0  0
   57.5072   -5.9440   -7.3665 C   0  0  0  0  0  0  0  0  0  0  0  0
   56.4921   -5.7899   -6.4513 C   0  0  0  0  0  0  0  0  0  0  0  0
   55.6036   -4.7355   -6.5589 C   0  0  0  0  0  0  0  0  0  0  0  0
   55.7219   -3.8238   -7.5845 C   0  0  0  0  0  0  0  0  0  0  0  0
   56.7597   -4.0159   -8.4859 C   0  0  0  0  0  0  0  0  0  0  0  0
   58.3625   -4.8617  -10.7507 C   0  0  0  0  0  0  0  0  0  0  0  0
   57.0890   -5.0859  -11.2063 C   0  0  0  0  0  0  0  0  0  0  0  0
   56.6765   -4.7230  -12.4969 C   0  0  0  0  0  0  0  0  0  0  0  0
   57.5666   -4.1177  -13.3561 C   0  0  0  0  0  0  0  0  0  0  0  0
   58.8541   -3.8851  -12.9115 C   0  0  0  0  0  0  0  0  0  0  0  0
   59.2447   -4.2455  -11.6456 C   0  0  0  0  0  0  0  0  0  0  0  0
  6  7  1  0  0  0
  7  2  1  0  0  0
  2  3  1  0  0  0
  3  4  2  0  0  0
  3  1  1  0  0  0
  1 12  1  0  0  0
 12 13  1  0  0  0
 13 14  2  0  0  0
 13 16  1  0  0  0
 16 17  1  0  0  0
 17 18  1  0  0  0
 18 19  2  0  0  0
 19 20  1  0  0  0
 20 21  2  0  0  0
 21 22  1  0  0  0
 22 23  2  0  0  0
  1 24  1  0  0  0
 24 25  1  0  0  0
 25 26  2  0  0  0
 26 27  1  0  0  0
 27 28  2  0  0  0
 28 29  1  0  0  0
 29 30  2  0  0  0
 24 31  1  0  0  0
 31 32  2  0  0  0
 32 33  1  0  0  0
 33 34  2  0  0  0
 34 35  1  0  0  0
 35 36  2  0  0  0
  7  8  1  0  0  0
  8  9  1  0  0  0
  8 10  2  0  0  0
 23 18  1  0  0  0
 30 25  1  0  0  0
 36 31  1  0  0  0
  2  5  1  0  0  0
 12 15  1  0  0  0
  9 11  1  0  0  0
M  END
> <minimizedAffinity>
-3.00141

> <CNNscore>
0.4030733705

> <CNNaffinity>
5.0704779625

> <CNN_VS>
2.0437746048

> <CNNaffinity_variance>
0.3350969553

$$$$
[H]OC(=O)[C@@]([H])(N([H])C(=O)[C@@]([H])(N([H])C(=O)OC([H])([H])c1c([H])c([H])c([H])c([H])c1[H])C([H])(c1c([H])c([H])c([H])c([H])c1[H])c1c([H])c([H])c([H])c([H])c1[H])C([H])([H])[H]


 36 38  0  0  0  0  0  0  0  0999 V2000
   61.5355   -5.6226  -10.6473 C   0  0  0  0  0  0  0  0  0  0  0  0
   63.5192   -7.2152  -10.3867 N   0  0  0  0  0  0  0  0  0  0  0  0
   62.4771   -6.6286  -11.1106 C   0  0  0  0  0  0  0  0  0  0  0  0
   62.3526   -7.0326  -12.3259 O   0  0  0  0  0  0  0  0  0  0  0  0
   63.7705   -7.0058   -9.3976 H   0  0  0  0  0  0  0  0  0  0  0  0
   65.7549   -8.0246  -10.2768 C   0  0  0  0  0  0  0  0  0  0  0  0
   64.4070   -8.2213  -10.9849 C   0  0  0  0  0  0  0  0  0  0  0  0
   63.9220   -9.5873  -10.8576 C   0  0  0  0  0  0  0  0  0  0  0  0
   63.1053  -10.1488  -11.8232 O   0  0  0  0  0  0  0  0  0  0  0  0
   64.2336  -10.2858   -9.8694 O   0  0  0  0  0  0  0  0  0  0  0  0
   62.1383   -9.8902  -11.9628 H   0  0  0  0  0  0  0  0  0  0  0  0
   60.5158   -5.3986  -11.7034 N   0  0  0  0  0  0  0  0  0  0  0  0
   60.6731   -4.4680  -12.7408 C   0  0  0  0  0  0  0  0  0  0  0  0
   61.7044   -3.7772  -12.8261 O   0  0  0  0  0  0  0  0  0  0  0  0
   59.6473   -5.9687  -11.6572 H   0  0  0  0  0  0  0  0  0  0  0  0
   59.6766   -4.3122  -13.6795 O   0  0  0  0  0  0  0  0  0  0  0  0
   58.5268   -3.5549  -13.4537 C   0  0  0  0  0  0  0  0  0  0  0  0
   57.7652   -3.3919  -14.7350 C   0  0  0  0  0  0  0  0  0  0  0  0
   56.4252   -3.6836  -14.7111 C   0  0  0  0  0  0  0  0  0  0  0  0
   55.6789   -3.5500  -15.8636 C   0  0  0  0  0  0  0  0  0  0  0  0
   56.3112   -3.1244  -17.0096 C   0  0  0  0  0  0  0  0  0  0  0  0
   57.6524   -2.8345  -17.0256 C   0  0  0  0  0  0  0  0  0  0  0  0
   58.3926   -2.9674  -15.8805 C   0  0  0  0  0  0  0  0  0  0  0  0
   60.7772   -5.8763   -9.4117 C   0  0  0  0  0  0  0  0  0  0  0  0
   61.0172   -7.2812   -8.9380 C   0  0  0  0  0  0  0  0  0  0  0  0
   61.6589   -7.5018   -7.7124 C   0  0  0  0  0  0  0  0  0  0  0  0
   61.8786   -8.7797   -7.2536 C   0  0  0  0  0  0  0  0  0  0  0  0
   61.4688   -9.8724   -7.9959 C   0  0  0  0  0  0  0  0  0  0  0  0
   60.8347   -9.6972   -9.2059 C   0  0  0  0  0  0  0  0  0  0  0  0
   60.6329   -8.3918   -9.6318 C   0  0  0  0  0  0  0  0  0  0  0  0
   59.3600   -5.5436   -9.3505 C   0  0  0  0  0  0  0  0  0  0  0  0
   58.6121   -5.2993  -10.4732 C   0  0  0  0  0  0  0  0  0  0  0  0
   57.2433   -4.9980  -10.4151 C   0  0  0  0  0  0  0  0  0  0  0  0
   56.6055   -4.9398   -9.1957 C   0  0  0  0  0  0  0  0  0  0  0  0
   57.3460   -5.1834   -8.0547 C   0  0  0  0  0  0  0  0  0  0  0  0
   58.6853   -5.4772   -8.1261 C   0  0  0  0  0  0  0  0  0  0  0  0
  6  7  1  0  0  0
  7  2  1  0  0  0
  2  3  1  0  0  0
  3  4  2  0  0  0
  3  1  1  0  0  0
  1 12  1  0  0  0
 12 13  1  0  0  0
 13 14  2  0  0  0
 13 16  1  0  0  0
 16 17  1  0  0  0
 17 18  1  0  0  0
 18 19  2  0  0  0
 19 20  1  0  0  0
 20 21  2  0  0  0
 21 22  1  0  0  0
 22 23  2  0  0  0
  1 24  1  0  0  0
 24 25  1  0  0  0
 25 26  2  0  0  0
 26 27  1  0  0  0
 27 28  2  0  0  0
 28 29  1  0  0  0
 29 30  2  0  0  0
 24 31  1  0  0  0
 31 32  2  0  0  0
 32 33  1  0  0  0
 33 34  2  0  0  0
 34 35  1  0  0  0
 35 36  2  0  0  0
  7  8  1  0  0  0
  8  9  1  0  0  0
  8 10  2  0  0  0
 23 18  1  0  0  0
 30 25  1  0  0  0
 36 31  1  0  0  0
  2  5  1  0  0  0
 12 15  1  0  0  0
  9 11  1  0  0  0
M  END
> <minimizedAffinity>
-1.73781

> <CNNscore>
0.3904807270

> <CNNaffinity>
4.8859353065

> <CNN_VS>
1.9078636169

> <CNNaffinity_variance>
0.2017877400

$$$$
[H]OC(=O)[C@@]([H])(N([H])C(=O)[C@@]([H])(N([H])C(=O)OC([H])([H])c1c([H])c([H])c([H])c([H])c1[H])C([H])(c1c([H])c([H])c([H])c([H])c1[H])c1c([H])c([H])c([H])c([H])c1[H])C([H])([H])[H]


 36 38  0  0  0  0  0  0  0  0999 V2000
   54.8864   -6.6767   -6.9206 C   0  0  0  0  0  0  0  0  0  0  0  0
   55.4205   -5.3396   -9.0339 N   0  0  0  0  0  0  0  0  0  0  0  0
   55.6941   -5.7863   -7.7379 C   0  0  0  0  0  0  0  0  0  0  0  0
   56.7923   -5.3545   -7.2249 O   0  0  0  0  0  0  0  0  0  0  0  0
   54.5854   -5.5907   -9.6039 H   0  0  0  0  0  0  0  0  0  0  0  0
   55.6212   -3.0811   -9.7582 C   0  0  0  0  0  0  0  0  0  0  0  0
   56.3340   -4.4408   -9.7521 C   0  0  0  0  0  0  0  0  0  0  0  0
   57.6617   -4.3543   -9.1630 C   0  0  0  0  0  0  0  0  0  0  0  0
   58.3722   -3.1670   -9.1730 O   0  0  0  0  0  0  0  0  0  0  0  0
   58.1914   -5.3544   -8.6333 O   0  0  0  0  0  0  0  0  0  0  0  0
   58.7879   -2.7663  -10.0025 H   0  0  0  0  0  0  0  0  0  0  0  0
   55.6120   -6.9554   -5.6553 N   0  0  0  0  0  0  0  0  0  0  0  0
   55.4150   -6.2212   -4.4767 C   0  0  0  0  0  0  0  0  0  0  0  0
   54.5968   -5.2845   -4.4388 O   0  0  0  0  0  0  0  0  0  0  0  0
   56.2971   -7.7379   -5.6600 H   0  0  0  0  0  0  0  0  0  0  0  0
   56.1336   -6.5361   -3.3440 O   0  0  0  0  0  0  0  0  0  0  0  0
   56.3777   -7.8474   -2.9349 C   0  0  0  0  0  0  0  0  0  0  0  0
   55.3020   -8.2945   -1.9909 C   0  0  0  0  0  0  0  0  0  0  0  0
   54.0110   -7.9509   -2.3010 C   0  0  0  0  0  0  0  0  0  0  0  0
   52.9841   -8.3379   -1.4649 C   0  0  0  0  0  0  0  0  0  0  0  0
   53.2938   -9.0627   -0.3367 C   0  0  0  0  0  0  0  0  0  0  0  0
   54.5882   -9.4027   -0.0332 C   0  0  0  0  0  0  0  0  0  0  0  0
   55.6071   -9.0180   -0.8641 C   0  0  0  0  0  0  0  0  0  0  0  0
   53.5391   -6.2428   -6.5175 C   0  0  0  0  0  0  0  0  0  0  0  0
   53.1612   -4.9863   -7.2484 C   0  0  0  0  0  0  0  0  0  0  0  0
   53.5968   -3.7446   -6.7679 C   0  0  0  0  0  0  0  0  0  0  0  0
   53.2724   -2.5821   -7.4277 C   0  0  0  0  0  0  0  0  0  0  0  0
   52.5086   -2.6185   -8.5801 C   0  0  0  0  0  0  0  0  0  0  0  0
   52.0610   -3.8195   -9.0842 C   0  0  0  0  0  0  0  0  0  0  0  0
   52.4107   -4.9682   -8.3881 C   0  0  0  0  0  0  0  0  0  0  0  0
   53.2041   -6.1404   -5.1032 C   0  0  0  0  0  0  0  0  0  0  0  0
   53.8687   -5.2996   -4.2483 C   0  0  0  0  0  0  0  0  0  0  0  0
   53.5331   -5.1871   -2.8909 C   0  0  0  0  0  0  0  0  0  0  0  0
   52.5012   -5.9396   -2.3754 C   0  0  0  0  0  0  0  0  0  0  0  0
   51.8217   -6.7921   -3.2245 C   0  0  0  0  0  0  0  0  0  0  0  0
   52.1607   -6.8924   -4.5512 C   0  0  0  0  0  0  0  0  0  0  0  0
  6  7  1  0  0  0
  7  2  1  0  0  0
  2  3  1  0  0  0
  3  4  2  0  0  0
  3  1  1  0  0  0
  1 12  1  0  0  0
 12 13  1  0  0  0
 13 14  2  0  0  0
 13 16  1  0  0  0
 16 17  1  0  0  0
 17 18  1  0  0  0
 18 19  2  0  0  0
 19 20  1  0  0  0
 20 21  2  0  0  0
 21 22  1  0  0  0
 22 23  2  0  0  0
  1 24  1  0  0  0
 24 25  1  0  0  0
 25 26  2  0  0  0
 26 27  1  0  0  0
 27 28  2  0  0  0
 28 29  1  0  0  0
 29 30  2  0  0  0
 24 31  1  0  0  0
 31 32  2  0  0  0
 32 33  1  0  0  0
 33 34  2  0  0  0
 34 35  1  0  0  0
 35 36  2  0  0  0
  7  8  1  0  0  0
  8  9  1  0  0  0
  8 10  2  0  0  0
 23 18  1  0  0  0
 30 25  1  0  0  0
 36 31  1  0  0  0
  2  5  1  0  0  0
 12 15  1  0  0  0
  9 11  1  0  0  0
M  END
> <minimizedAffinity>
4.06849

> <CNNscore>
0.3897825181

> <CNNaffinity>
5.7427253723

> <CNN_VS>
2.2384140491

> <CNNaffinity_variance>
1.1032747030

$$$$
[H]OC(=O)[C@@]([H])(N([H])C(=O)[C@@]([H])(N([H])C(=O)OC([H])([H])c1c([H])c([H])c([H])c([H])c1[H])C([H])(c1c([H])c([H])c([H])c([H])c1[H])c1c([H])c([H])c([H])c([H])c1[H])C([H])([H])[H]


 36 38  0  0  0  0  0  0  0  0999 V2000
   59.9443   -5.7570  -10.9455 C   0  0  0  0  0  0  0  0  0  0  0  0
   61.3540   -4.8439  -12.8738 N   0  0  0  0  0  0  0  0  0  0  0  0
   61.0730   -5.7662  -11.8616 C   0  0  0  0  0  0  0  0  0  0  0  0
   61.9169   -6.7301  -11.7423 O   0  0  0  0  0  0  0  0  0  0  0  0
   60.7804   -4.0089  -13.1169 H   0  0  0  0  0  0  0  0  0  0  0  0
   62.0020   -4.7705  -15.1629 C   0  0  0  0  0  0  0  0  0  0  0  0
   62.5342   -4.9786  -13.7380 C   0  0  0  0  0  0  0  0  0  0  0  0
   63.6085   -4.0501  -13.4196 C   0  0  0  0  0  0  0  0  0  0  0  0
   63.4752   -2.6937  -13.6580 O   0  0  0  0  0  0  0  0  0  0  0  0
   64.6792   -4.4593  -12.9220 O   0  0  0  0  0  0  0  0  0  0  0  0
   63.4827   -2.2805  -14.5803 H   0  0  0  0  0  0  0  0  0  0  0  0
   60.4583   -5.7413   -9.5523 N   0  0  0  0  0  0  0  0  0  0  0  0
   60.8184   -6.9013   -8.8512 C   0  0  0  0  0  0  0  0  0  0  0  0
   60.7264   -8.0221   -9.3837 O   0  0  0  0  0  0  0  0  0  0  0  0
   60.5502   -4.8154   -9.0876 H   0  0  0  0  0  0  0  0  0  0  0  0
   61.2801   -6.8048   -7.5565 O   0  0  0  0  0  0  0  0  0  0  0  0
   62.2567   -7.6504   -7.0294 C   0  0  0  0  0  0  0  0  0  0  0  0
   63.3326   -6.8381   -6.3730 C   0  0  0  0  0  0  0  0  0  0  0  0
   63.4942   -6.9860   -5.0191 C   0  0  0  0  0  0  0  0  0  0  0  0
   64.4702   -6.2613   -4.3669 C   0  0  0  0  0  0  0  0  0  0  0  0
   65.2561   -5.4058   -5.1049 C   0  0  0  0  0  0  0  0  0  0  0  0
   65.0883   -5.2632   -6.4594 C   0  0  0  0  0  0  0  0  0  0  0  0
   64.1189   -5.9835   -7.1061 C   0  0  0  0  0  0  0  0  0  0  0  0
   58.9765   -4.6509  -11.0232 C   0  0  0  0  0  0  0  0  0  0  0  0
   57.9951   -4.7431   -9.8900 C   0  0  0  0  0  0  0  0  0  0  0  0
   56.7215   -4.1755  -10.0250 C   0  0  0  0  0  0  0  0  0  0  0  0
   55.8029   -4.2582   -9.0046 C   0  0  0  0  0  0  0  0  0  0  0  0
   56.1210   -4.9047   -7.8241 C   0  0  0  0  0  0  0  0  0  0  0  0
   57.3627   -5.4754   -7.6525 C   0  0  0  0  0  0  0  0  0  0  0  0
   58.2595   -5.3693   -8.7065 C   0  0  0  0  0  0  0  0  0  0  0  0
   58.2928   -4.3736  -12.2796 C   0  0  0  0  0  0  0  0  0  0  0  0
   57.0706   -4.9132  -12.5872 C   0  0  0  0  0  0  0  0  0  0  0  0
   56.4038   -4.6307  -13.7886 C   0  0  0  0  0  0  0  0  0  0  0  0
   56.9792   -3.7826  -14.7087 C   0  0  0  0  0  0  0  0  0  0  0  0
   58.2112   -3.2309  -14.4132 C   0  0  0  0  0  0  0  0  0  0  0  0
   58.8529   -3.5160  -13.2334 C   0  0  0  0  0  0  0  0  0  0  0  0
  6  7  1  0  0  0
  7  2  1  0  0  0
  2  3  1  0  0  0
  3  4  2  0  0  0
  3  1  1  0  0  0
  1 12  1  0  0  0
 12 13  1  0  0  0
 13 14  2  0  0  0
 13 16  1  0  0  0
 16 17  1  0  0  0
 17 18  1  0  0  0
 18 19  2  0  0  0
 19 20  1  0  0  0
 20 21  2  0  0  0
 21 22  1  0  0  0
 22 23  2  0  0  0
  1 24  1  0  0  0
 24 25  1  0  0  0
 25 26  2  0  0  0
 26 27  1  0  0  0
 27 28  2  0  0  0
 28 29  1  0  0  0
 29 30  2  0  0  0
 24 31  1  0  0  0
 31 32  2  0  0  0
 32 33  1  0  0  0
 33 34  2  0  0  0
 34 35  1  0  0  0
 35 36  2  0  0  0
  7  8  1  0  0  0
  8  9  1  0  0  0
  8 10  2  0  0  0
 23 18  1  0  0  0
 30 25  1  0  0  0
 36 31  1  0  0  0
  2  5  1  0  0  0
 12 15  1  0  0  0
  9 11  1  0  0  0
M  END
> <minimizedAffinity>
-3.37260

> <CNNscore>
0.3849478960

> <CNNaffinity>
5.3963308334

> <CNN_VS>
2.0773062706

> <CNNaffinity_variance>
0.2478534281

$$$$
[H]OC(=O)[C@@]([H])(N([H])C(=O)[C@@]([H])(N([H])C(=O)OC([H])([H])c1c([H])c([H])c([H])c([H])c1[H])C([H])(c1c([H])c([H])c([H])c([H])c1[H])c1c([H])c([H])c([H])c([H])c1[H])C([H])([H])[H]


 36 38  0  0  0  0  0  0  0  0999 V2000
   63.1112   -6.5173  -10.4598 C   0  0  0  0  0  0  0  0  0  0  0  0
   64.1299   -8.8294  -10.8545 N   0  0  0  0  0  0  0  0  0  0  0  0
   64.1343   -7.5399  -10.3149 C   0  0  0  0  0  0  0  0  0  0  0  0
   65.1668   -7.2402   -9.6081 O   0  0  0  0  0  0  0  0  0  0  0  0
   63.3769   -9.2434  -11.4436 H   0  0  0  0  0  0  0  0  0  0  0  0
   64.7838  -10.6104   -9.4171 C   0  0  0  0  0  0  0  0  0  0  0  0
   65.2336   -9.7703  -10.6208 C   0  0  0  0  0  0  0  0  0  0  0  0
   65.5554  -10.6008  -11.7716 C   0  0  0  0  0  0  0  0  0  0  0  0
   65.6964  -11.9716  -11.6469 O   0  0  0  0  0  0  0  0  0  0  0  0
   65.7122  -10.0919  -12.9021 O   0  0  0  0  0  0  0  0  0  0  0  0
   66.4800  -12.4180  -11.1908 H   0  0  0  0  0  0  0  0  0  0  0  0
   62.4451   -6.6894  -11.7758 N   0  0  0  0  0  0  0  0  0  0  0  0
   63.1457   -6.7862  -12.9869 C   0  0  0  0  0  0  0  0  0  0  0  0
   64.3888   -6.7375  -13.0095 O   0  0  0  0  0  0  0  0  0  0  0  0
   61.4063   -6.7392  -11.7824 H   0  0  0  0  0  0  0  0  0  0  0  0
   62.4543   -6.9367  -14.1692 O   0  0  0  0  0  0  0  0  0  0  0  0
   62.6478   -6.1110  -15.2771 C   0  0  0  0  0  0  0  0  0  0  0  0
   62.6332   -4.6739  -14.8492 C   0  0  0  0  0  0  0  0  0  0  0  0
   63.8310   -4.0059  -14.8494 C   0  0  0  0  0  0  0  0  0  0  0  0
   63.8720   -2.6818  -14.4641 C   0  0  0  0  0  0  0  0  0  0  0  0
   62.6973   -2.0706  -14.0889 C   0  0  0  0  0  0  0  0  0  0  0  0
   61.5027   -2.7458  -14.0914 C   0  0  0  0  0  0  0  0  0  0  0  0
   61.4630   -4.0605  -14.4742 C   0  0  0  0  0  0  0  0  0  0  0  0
   62.0237   -6.4565   -9.4701 C   0  0  0  0  0  0  0  0  0  0  0  0
   61.8945   -7.7756   -8.7635 C   0  0  0  0  0  0  0  0  0  0  0  0
   62.3995   -7.9213   -7.4650 C   0  0  0  0  0  0  0  0  0  0  0  0
   62.2818   -9.1166   -6.7947 C   0  0  0  0  0  0  0  0  0  0  0  0
   61.6613  -10.1986   -7.3923 C   0  0  0  0  0  0  0  0  0  0  0  0
   61.1520  -10.0954   -8.6677 C   0  0  0  0  0  0  0  0  0  0  0  0
   61.2918   -8.8722   -9.3083 C   0  0  0  0  0  0  0  0  0  0  0  0
   60.7157   -5.9479   -9.8616 C   0  0  0  0  0  0  0  0  0  0  0  0
   60.4543   -5.4838  -11.1249 C   0  0  0  0  0  0  0  0  0  0  0  0
   59.1897   -5.0122  -11.5069 C   0  0  0  0  0  0  0  0  0  0  0  0
   58.1568   -5.0054  -10.5959 C   0  0  0  0  0  0  0  0  0  0  0  0
   58.4046   -5.4699   -9.3183 C   0  0  0  0  0  0  0  0  0  0  0  0
   59.6474   -5.9288   -8.9576 C   0  0  0  0  0  0  0  0  0  0  0  0
  6  7  1  0  0  0
  7  2  1  0  0  0
  2  3  1  0  0  0
  3  4  2  0  0  0
  3  1  1  0  0  0
  1 12  1  0  0  0
 12 13  1  0  0  0
 13 14  2  0  0  0
 13 16  1  0  0  0
 16 17  1  0  0  0
 17 18  1  0  0  0
 18 19  2  0  0  0
 19 20  1  0  0  0
 20 21  2  0  0  0
 21 22  1  0  0  0
 22 23  2  0  0  0
  1 24  1  0  0  0
 24 25  1  0  0  0
 25 26  2  0  0  0
 26 27  1  0  0  0
 27 28  2  0  0  0
 28 29  1  0  0  0
 29 30  2  0  0  0
 24 31  1  0  0  0
 31 32  2  0  0  0
 32 33  1  0  0  0
 33 34  2  0  0  0
 34 35  1  0  0  0
 35 36  2  0  0  0
  7  8  1  0  0  0
  8  9  1  0  0  0
  8 10  2  0  0  0
 23 18  1  0  0  0
 30 25  1  0  0  0
 36 31  1  0  0  0
  2  5  1  0  0  0
 12 15  1  0  0  0
  9 11  1  0  0  0
M  END
> <minimizedAffinity>
-2.45260

> <CNNscore>
0.3388011158

> <CNNaffinity>
4.4629034996

> <CNN_VS>
1.5120366812

> <CNNaffinity_variance>
0.0709295720

$$$$
[H]c1c([H])c([H])c(C2=NC([H])([H])c3nnc(C([H])([H])[H])n3-c3sc(C#CC([H])([H])N4C(=O)C([H])([H])C([H])([H])c5c([H])c([H])c([H])c([H])c54)c([H])c32)c(Cl)c1[H]


 35 40  0  0  0  0  0  0  0  0999 V2000
   50.5922   -5.6836   -6.8803 C   0  0  0  0  0  0  0  0  0  0  0  0
   51.1129   -4.4273   -7.5177 C   0  0  0  0  0  0  0  0  0  0  0  0
   50.4876   -3.4530   -8.1936 N   0  0  0  0  0  0  0  0  0  0  0  0
   51.3711   -2.5037   -8.5662 N   0  0  0  0  0  0  0  0  0  0  0  0
   52.5669   -2.8466   -8.1414 C   0  0  0  0  0  0  0  0  0  0  0  0
   53.8924   -2.1612   -8.2483 C   0  0  0  0  0  0  0  0  0  0  0  0
   54.9300   -3.0444   -8.7319 N   0  0  0  0  0  0  0  0  0  0  0  0
   55.3417   -4.2287   -8.3010 C   0  0  0  0  0  0  0  0  0  0  0  0
   54.7542   -4.9033   -7.1282 C   0  0  0  0  0  0  0  0  0  0  0  0
   55.4811   -5.6259   -6.2614 C   0  0  0  0  0  0  0  0  0  0  0  0
   54.8454   -6.2088   -5.2008 C   0  0  0  0  0  0  0  0  0  0  0  0
   53.2104   -5.7309   -5.4259 S   0  0  0  0  0  0  0  0  0  0  0  0
   53.4004   -4.8121   -6.8474 C   0  0  0  0  0  0  0  0  0  0  0  0
   52.3894   -4.0373   -7.4973 N   0  0  0  0  0  0  0  0  0  0  0  0
   56.4923   -4.7254   -9.0106 C   0  0  0  0  0  0  0  0  0  0  0  0
   57.5705   -5.1115   -8.1855 C   0  0  0  0  0  0  0  0  0  0  0  0
   58.7690   -5.4715   -8.6689 C   0  0  0  0  0  0  0  0  0  0  0  0
   59.0014   -5.4794  -10.0142 C   0  0  0  0  0  0  0  0  0  0  0  0
   57.9822   -5.1073  -10.8465 C   0  0  0  0  0  0  0  0  0  0  0  0
   56.7362   -4.7285  -10.3446 C   0  0  0  0  0  0  0  0  0  0  0  0
   55.6349   -3.9919  -11.4993 Cl  0  0  0  0  0  0  0  0  0  0  0  0
   55.3913   -7.0244   -4.1488 C   0  0  0  0  0  0  0  0  0  0  0  0
   55.8324   -7.7030   -3.2539 C   0  0  0  0  0  0  0  0  0  0  0  0
   56.3830   -8.5542   -2.1715 C   0  0  0  0  0  0  0  0  0  0  0  0
   57.7337   -8.1767   -1.8346 N   0  0  0  0  0  0  0  0  0  0  0  0
   58.8500   -9.0282   -2.1023 C   0  0  0  0  0  0  0  0  0  0  0  0
   58.6592  -10.2462   -2.3199 O   0  0  0  0  0  0  0  0  0  0  0  0
   60.2384   -8.5071   -2.1299 C   0  0  0  0  0  0  0  0  0  0  0  0
   60.4603   -7.4165   -1.1403 C   0  0  0  0  0  0  0  0  0  0  0  0
   59.2548   -6.5631   -0.8991 C   0  0  0  0  0  0  0  0  0  0  0  0
   59.4946   -5.3503   -0.3130 C   0  0  0  0  0  0  0  0  0  0  0  0
   58.4833   -4.4656   -0.0288 C   0  0  0  0  0  0  0  0  0  0  0  0
   57.1983   -4.8205   -0.3473 C   0  0  0  0  0  0  0  0  0  0  0  0
   56.9326   -6.0497   -0.9442 C   0  0  0  0  0  0  0  0  0  0  0  0
   57.9779   -6.9246   -1.2197 C   0  0  0  0  0  0  0  0  0  0  0  0
  1  2  1  0  0  0
  2  3  2  0  0  0
  3  4  1  0  0  0
  4  5  2  0  0  0
  5  6  1  0  0  0
  6  7  1  0  0  0
  7  8  2  0  0  0
  8  9  1  0  0  0
  9 10  1  0  0  0
 10 11  2  0  0  0
 11 12  1  0  0  0
 12 13  1  0  0  0
 13 14  1  0  0  0
 11 22  1  0  0  0
 22 23  3  0  0  0
 23 24  1  0  0  0
 24 25  1  0  0  0
 25 26  1  0  0  0
 26 27  2  0  0  0
 26 28  1  0  0  0
 28 29  1  0  0  0
 29 30  1  0  0  0
 30 31  2  0  0  0
 31 32  1  0  0  0
 32 33  2  0  0  0
 33 34  1  0  0  0
 34 35  2  0  0  0
  8 15  1  0  0  0
 15 16  2  0  0  0
 16 17  1  0  0  0
 17 18  2  0  0  0
 18 19  1  0  0  0
 19 20  2  0  0  0
 20 21  1  0  0  0
 14  2  1  0  0  0
 35 25  1  0  0  0
 20 15  1  0  0  0
 14  5  1  0  0  0
 35 30  1  0  0  0
 13  9  2  0  0  0
M  END
> <minimizedAffinity>
-8.67882

> <CNNscore>
0.6785869598

> <CNNaffinity>
7.7476706505

> <CNN_VS>
5.2574682236

> <CNNaffinity_variance>
0.2583234012

$$$$
[H]c1c([H])c([H])c(C2=NC([H])([H])c3nnc(C([H])([H])[H])n3-c3sc(C#CC([H])([H])N4C(=O)C([H])([H])C([H])([H])c5c([H])c([H])c([H])c([H])c54)c([H])c32)c(Cl)c1[H]


 35 40  0  0  0  0  0  0  0  0999 V2000
   50.8601   -5.7903   -6.7774 C   0  0  0  0  0  0  0  0  0  0  0  0
   51.3573   -4.5351   -7.4353 C   0  0  0  0  0  0  0  0  0  0  0  0
   50.7094   -3.5679   -8.1001 N   0  0  0  0  0  0  0  0  0  0  0  0
   51.5780   -2.6164   -8.5011 N   0  0  0  0  0  0  0  0  0  0  0  0
   52.7862   -2.9507   -8.1057 C   0  0  0  0  0  0  0  0  0  0  0  0
   54.1049   -2.2591   -8.2512 C   0  0  0  0  0  0  0  0  0  0  0  0
   55.1341   -3.1398   -8.7568 N   0  0  0  0  0  0  0  0  0  0  0  0
   55.5631   -4.3195   -8.3302 C   0  0  0  0  0  0  0  0  0  0  0  0
   55.0100   -4.9903   -7.1385 C   0  0  0  0  0  0  0  0  0  0  0  0
   55.7631   -5.7042   -6.2870 C   0  0  0  0  0  0  0  0  0  0  0  0
   55.1584   -6.2841   -5.2069 C   0  0  0  0  0  0  0  0  0  0  0  0
   53.5156   -5.8159   -5.3918 S   0  0  0  0  0  0  0  0  0  0  0  0
   53.6636   -4.9044   -6.8229 C   0  0  0  0  0  0  0  0  0  0  0  0
   52.6319   -4.1385   -7.4505 N   0  0  0  0  0  0  0  0  0  0  0  0
   56.6973   -4.8145   -9.0668 C   0  0  0  0  0  0  0  0  0  0  0  0
   57.7892   -5.2144   -8.2666 C   0  0  0  0  0  0  0  0  0  0  0  0
   58.9763   -5.5752   -8.7766 C   0  0  0  0  0  0  0  0  0  0  0  0
   59.1828   -5.5703  -10.1262 C   0  0  0  0  0  0  0  0  0  0  0  0
   58.1498   -5.1845  -10.9348 C   0  0  0  0  0  0  0  0  0  0  0  0
   56.9156   -4.8048  -10.4052 C   0  0  0  0  0  0  0  0  0  0  0  0
   55.7962   -4.0509  -11.5308 Cl  0  0  0  0  0  0  0  0  0  0  0  0
   55.7359   -7.0909   -4.1649 C   0  0  0  0  0  0  0  0  0  0  0  0
   56.2234   -7.7496   -3.2793 C   0  0  0  0  0  0  0  0  0  0  0  0
   56.8058   -8.5783   -2.1961 C   0  0  0  0  0  0  0  0  0  0  0  0
   58.0122   -7.9901   -1.6681 N   0  0  0  0  0  0  0  0  0  0  0  0
   57.9957   -6.7922   -0.8886 C   0  0  0  0  0  0  0  0  0  0  0  0
   56.9926   -6.0443   -0.9274 O   0  0  0  0  0  0  0  0  0  0  0  0
   59.1409   -6.4064   -0.0285 C   0  0  0  0  0  0  0  0  0  0  0  0
   60.4535   -6.7969   -0.6140 C   0  0  0  0  0  0  0  0  0  0  0  0
   60.4056   -8.0553   -1.4225 C   0  0  0  0  0  0  0  0  0  0  0  0
   61.6125   -8.6555   -1.6573 C   0  0  0  0  0  0  0  0  0  0  0  0
   61.7207   -9.8136   -2.3875 C   0  0  0  0  0  0  0  0  0  0  0  0
   60.5766  -10.3757   -2.8911 C   0  0  0  0  0  0  0  0  0  0  0  0
   59.3386   -9.7813   -2.6637 C   0  0  0  0  0  0  0  0  0  0  0  0
   59.2611   -8.6086   -1.9204 C   0  0  0  0  0  0  0  0  0  0  0  0
  1  2  1  0  0  0
  2  3  2  0  0  0
  3  4  1  0  0  0
  4  5  2  0  0  0
  5  6  1  0  0  0
  6  7  1  0  0  0
  7  8  2  0  0  0
  8  9  1  0  0  0
  9 10  1  0  0  0
 10 11  2  0  0  0
 11 12  1  0  0  0
 12 13  1  0  0  0
 13 14  1  0  0  0
 11 22  1  0  0  0
 22 23  3  0  0  0
 23 24  1  0  0  0
 24 25  1  0  0  0
 25 26  1  0  0  0
 26 27  2  0  0  0
 26 28  1  0  0  0
 28 29  1  0  0  0
 29 30  1  0  0  0
 30 31  2  0  0  0
 31 32  1  0  0  0
 32 33  2  0  0  0
 33 34  1  0  0  0
 34 35  2  0  0  0
  8 15  1  0  0  0
 15 16  2  0  0  0
 16 17  1  0  0  0
 17 18  2  0  0  0
 18 19  1  0  0  0
 19 20  2  0  0  0
 20 21  1  0  0  0
 14  2  1  0  0  0
 35 25  1  0  0  0
 20 15  1  0  0  0
 14  5  1  0  0  0
 35 30  1  0  0  0
 13  9  2  0  0  0
M  END
> <minimizedAffinity>
-8.26653

> <CNNscore>
0.6525301933

> <CNNaffinity>
7.5274109840

> <CNN_VS>
4.9118628502

> <CNNaffinity_variance>
0.2287655175

$$$$
[H]c1c([H])c([H])c(C2=NC([H])([H])c3nnc(C([H])([H])[H])n3-c3sc(C#CC([H])([H])N4C(=O)C([H])([H])C([H])([H])c5c([H])c([H])c([H])c([H])c54)c([H])c32)c(Cl)c1[H]


 35 40  0  0  0  0  0  0  0  0999 V2000
   51.6093   -6.2545   -6.2297 C   0  0  0  0  0  0  0  0  0  0  0  0
   51.8502   -5.0223   -7.0539 C   0  0  0  0  0  0  0  0  0  0  0  0
   51.0022   -4.2114   -7.7024 N   0  0  0  0  0  0  0  0  0  0  0  0
   51.6806   -3.2091   -8.2987 N   0  0  0  0  0  0  0  0  0  0  0  0
   52.9625   -3.3556   -8.0473 C   0  0  0  0  0  0  0  0  0  0  0  0
   54.1499   -2.5306   -8.4317 C   0  0  0  0  0  0  0  0  0  0  0  0
   55.2135   -3.3295   -8.9981 N   0  0  0  0  0  0  0  0  0  0  0  0
   55.8442   -4.4005   -8.5365 C   0  0  0  0  0  0  0  0  0  0  0  0
   55.5391   -5.0077   -7.2274 C   0  0  0  0  0  0  0  0  0  0  0  0
   56.4809   -5.5370   -6.4306 C   0  0  0  0  0  0  0  0  0  0  0  0
   56.0990   -6.0721   -5.2321 C   0  0  0  0  0  0  0  0  0  0  0  0
   54.3989   -5.8235   -5.2272 S   0  0  0  0  0  0  0  0  0  0  0  0
   54.2438   -5.0509   -6.7371 C   0  0  0  0  0  0  0  0  0  0  0  0
   53.0495   -4.4807   -7.2787 N   0  0  0  0  0  0  0  0  0  0  0  0
   56.9312   -4.8293   -9.3782 C   0  0  0  0  0  0  0  0  0  0  0  0
   58.0663   -5.2958   -8.6808 C   0  0  0  0  0  0  0  0  0  0  0  0
   59.2199   -5.6105   -9.2887 C   0  0  0  0  0  0  0  0  0  0  0  0
   59.3473   -5.4892  -10.6425 C   0  0  0  0  0  0  0  0  0  0  0  0
   58.2704   -5.0360  -11.3531 C   0  0  0  0  0  0  0  0  0  0  0  0
   57.0709   -4.7043  -10.7213 C   0  0  0  0  0  0  0  0  0  0  0  0
   55.8908   -3.8570  -11.7104 Cl  0  0  0  0  0  0  0  0  0  0  0  0
   56.9045   -6.6946   -4.2154 C   0  0  0  0  0  0  0  0  0  0  0  0
   57.5959   -7.2027   -3.3670 C   0  0  0  0  0  0  0  0  0  0  0  0
   58.4245   -7.8313   -2.3098 C   0  0  0  0  0  0  0  0  0  0  0  0
   59.4102   -8.7238   -2.8686 N   0  0  0  0  0  0  0  0  0  0  0  0
   60.2230   -8.3555   -3.9850 C   0  0  0  0  0  0  0  0  0  0  0  0
   59.8751   -7.3982   -4.7128 O   0  0  0  0  0  0  0  0  0  0  0  0
   61.4762   -9.0798   -4.3090 C   0  0  0  0  0  0  0  0  0  0  0  0
   61.3916  -10.5350   -4.0034 C   0  0  0  0  0  0  0  0  0  0  0  0
   60.5230  -10.8575   -2.8282 C   0  0  0  0  0  0  0  0  0  0  0  0
   60.7060  -12.0967   -2.2780 C   0  0  0  0  0  0  0  0  0  0  0  0
   59.9762  -12.5297   -1.1982 C   0  0  0  0  0  0  0  0  0  0  0  0
   59.0384  -11.6845   -0.6643 C   0  0  0  0  0  0  0  0  0  0  0  0
   58.8365  -10.4195   -1.2089 C   0  0  0  0  0  0  0  0  0  0  0  0
   59.5912  -10.0094   -2.3027 C   0  0  0  0  0  0  0  0  0  0  0  0
  1  2  1  0  0  0
  2  3  2  0  0  0
  3  4  1  0  0  0
  4  5  2  0  0  0
  5  6  1  0  0  0
  6  7  1  0  0  0
  7  8  2  0  0  0
  8  9  1  0  0  0
  9 10  1  0  0  0
 10 11  2  0  0  0
 11 12  1  0  0  0
 12 13  1  0  0  0
 13 14  1  0  0  0
 11 22  1  0  0  0
 22 23  3  0  0  0
 23 24  1  0  0  0
 24 25  1  0  0  0
 25 26  1  0  0  0
 26 27  2  0  0  0
 26 28  1  0  0  0
 28 29  1  0  0  0
 29 30  1  0  0  0
 30 31  2  0  0  0
 31 32  1  0  0  0
 32 33  2  0  0  0
 33 34  1  0  0  0
 34 35  2  0  0  0
  8 15  1  0  0  0
 15 16  2  0  0  0
 16 17  1  0  0  0
 17 18  2  0  0  0
 18 19  1  0  0  0
 19 20  2  0  0  0
 20 21  1  0  0  0
 14  2  1  0  0  0
 35 25  1  0  0  0
 20 15  1  0  0  0
 14  5  1  0  0  0
 35 30  1  0  0  0
 13  9  2  0  0  0
M  END
> <minimizedAffinity>
-8.60948

> <CNNscore>
0.5737552643

> <CNNaffinity>
7.2412047386

> <CNN_VS>
4.1546792984

> <CNNaffinity_variance>
0.0795742124

$$$$
[H]c1c([H])c([H])c(C2=NC([H])([H])c3nnc(C([H])([H])[H])n3-c3sc(C#CC([H])([H])N4C(=O)C([H])([H])C([H])([H])c5c([H])c([H])c([H])c([H])c54)c([H])c32)c(Cl)c1[H]


 35 40  0  0  0  0  0  0  0  0999 V2000
   51.0726   -1.6549   -7.9372 C   0  0  0  0  0  0  0  0  0  0  0  0
   50.5734   -2.8405   -7.1622 C   0  0  0  0  0  0  0  0  0  0  0  0
   49.3959   -3.0765   -6.5664 N   0  0  0  0  0  0  0  0  0  0  0  0
   49.3977   -4.3013   -6.0003 N   0  0  0  0  0  0  0  0  0  0  0  0
   50.5630   -4.8686   -6.2195 C   0  0  0  0  0  0  0  0  0  0  0  0
   51.0967   -6.2158   -5.8473 C   0  0  0  0  0  0  0  0  0  0  0  0
   52.3997   -6.1378   -5.2258 N   0  0  0  0  0  0  0  0  0  0  0  0
   53.5283   -5.5702   -5.6281 C   0  0  0  0  0  0  0  0  0  0  0  0
   53.6543   -4.8617   -6.9157 C   0  0  0  0  0  0  0  0  0  0  0  0
   54.7638   -4.9093   -7.6699 C   0  0  0  0  0  0  0  0  0  0  0  0
   54.7817   -4.2225   -8.8516 C   0  0  0  0  0  0  0  0  0  0  0  0
   53.2203   -3.5070   -8.9013 S   0  0  0  0  0  0  0  0  0  0  0  0
   52.6104   -4.1093   -7.4294 C   0  0  0  0  0  0  0  0  0  0  0  0
   51.2771   -3.9524   -6.9370 N   0  0  0  0  0  0  0  0  0  0  0  0
   54.6394   -5.8224   -4.7471 C   0  0  0  0  0  0  0  0  0  0  0  0
   55.7496   -6.4395   -5.3626 C   0  0  0  0  0  0  0  0  0  0  0  0
   56.8195   -6.8706   -4.6777 C   0  0  0  0  0  0  0  0  0  0  0  0
   56.8802   -6.7265   -3.3214 C   0  0  0  0  0  0  0  0  0  0  0  0
   55.8214   -6.1370   -2.6880 C   0  0  0  0  0  0  0  0  0  0  0  0
   54.7059   -5.6919   -3.3990 C   0  0  0  0  0  0  0  0  0  0  0  0
   53.3097   -5.2391   -2.4322 Cl  0  0  0  0  0  0  0  0  0  0  0  0
   55.8361   -4.1121   -9.8242 C   0  0  0  0  0  0  0  0  0  0  0  0
   56.7252   -3.9998  -10.6323 C   0  0  0  0  0  0  0  0  0  0  0  0
   57.8229   -3.8872  -11.6231 C   0  0  0  0  0  0  0  0  0  0  0  0
   58.9670   -4.6772  -11.2396 N   0  0  0  0  0  0  0  0  0  0  0  0
   58.9952   -5.4364  -10.0290 C   0  0  0  0  0  0  0  0  0  0  0  0
   58.1799   -5.1733   -9.1162 O   0  0  0  0  0  0  0  0  0  0  0  0
   59.9695   -6.5352   -9.8209 C   0  0  0  0  0  0  0  0  0  0  0  0
   61.2860   -6.2618  -10.4614 C   0  0  0  0  0  0  0  0  0  0  0  0
   61.1916   -5.4595  -11.7212 C   0  0  0  0  0  0  0  0  0  0  0  0
   62.2902   -5.5030  -12.5355 C   0  0  0  0  0  0  0  0  0  0  0  0
   62.3460   -4.8127  -13.7215 C   0  0  0  0  0  0  0  0  0  0  0  0
   61.2608   -4.0607  -14.0894 C   0  0  0  0  0  0  0  0  0  0  0  0
   60.1330   -4.0030  -13.2755 C   0  0  0  0  0  0  0  0  0  0  0  0
   60.1063   -4.7131  -12.0801 C   0  0  0  0  0  0  0  0  0  0  0  0
  1  2  1  0  0  0
  2  3  2  0  0  0
  3  4  1  0  0  0
  4  5  2  0  0  0
  5  6  1  0  0  0
  6  7  1  0  0  0
  7  8  2  0  0  0
  8  9  1  0  0  0
  9 10  1  0  0  0
 10 11  2  0  0  0
 11 12  1  0  0  0
 12 13  1  0  0  0
 13 14  1  0  0  0
 11 22  1  0  0  0
 22 23  3  0  0  0
 23 24  1  0  0  0
 24 25  1  0  0  0
 25 26  1  0  0  0
 26 27  2  0  0  0
 26 28  1  0  0  0
 28 29  1  0  0  0
 29 30  1  0  0  0
 30 31  2  0  0  0
 31 32  1  0  0  0
 32 33  2  0  0  0
 33 34  1  0  0  0
 34 35  2  0  0  0
  8 15  1  0  0  0
 15 16  2  0  0  0
 16 17  1  0  0  0
 17 18  2  0  0  0
 18 19  1  0  0  0
 19 20  2  0  0  0
 20 21  1  0  0  0
 14  2  1  0  0  0
 35 25  1  0  0  0
 20 15  1  0  0  0
 14  5  1  0  0  0
 35 30  1  0  0  0
 13  9  2  0  0  0
M  END
> <minimizedAffinity>
-7.32707

> <CNNscore>
0.5016329885

> <CNNaffinity>
7.6016454697

> <CNN_VS>
3.8132362366

> <CNNaffinity_variance>
0.3257891834

$$$$
[H]c1c([H])c([H])c(C2=NC([H])([H])c3nnc(C([H])([H])[H])n3-c3sc(C#CC([H])([H])N4C(=O)C([H])([H])C([H])([H])c5c([H])c([H])c([H])c([H])c54)c([H])c32)c(Cl)c1[H]


 35 40  0  0  0  0  0  0  0  0999 V2000
   50.3617   -1.4646   -7.3539 C   0  0  0  0  0  0  0  0  0  0  0  0
   50.0227   -2.6561   -6.5047 C   0  0  0  0  0  0  0  0  0  0  0  0
   48.9906   -2.8921   -5.6824 N   0  0  0  0  0  0  0  0  0  0  0  0
   49.0987   -4.1232   -5.1409 N   0  0  0  0  0  0  0  0  0  0  0  0
   50.1898   -4.6946   -5.6000 C   0  0  0  0  0  0  0  0  0  0  0  0
   50.7778   -6.0489   -5.3586 C   0  0  0  0  0  0  0  0  0  0  0  0
   52.1812   -5.9854   -5.0167 N   0  0  0  0  0  0  0  0  0  0  0  0
   53.2078   -5.4197   -5.6363 C   0  0  0  0  0  0  0  0  0  0  0  0
   53.0727   -4.6974   -6.9153 C   0  0  0  0  0  0  0  0  0  0  0  0
   54.0035   -4.7428   -7.8814 C   0  0  0  0  0  0  0  0  0  0  0  0
   53.7842   -4.0427   -9.0349 C   0  0  0  0  0  0  0  0  0  0  0  0
   52.2515   -3.3179   -8.7562 S   0  0  0  0  0  0  0  0  0  0  0  0
   51.9516   -3.9333   -7.1966 C   0  0  0  0  0  0  0  0  0  0  0  0
   50.7488   -3.7744   -6.4396 N   0  0  0  0  0  0  0  0  0  0  0  0
   54.4738   -5.6882   -5.0045 C   0  0  0  0  0  0  0  0  0  0  0  0
   55.4106   -6.3539   -5.8239 C   0  0  0  0  0  0  0  0  0  0  0  0
   56.5899   -6.8040   -5.3699 C   0  0  0  0  0  0  0  0  0  0  0  0
   56.9419   -6.6324   -4.0620 C   0  0  0  0  0  0  0  0  0  0  0  0
   56.0584   -5.9955   -3.2351 C   0  0  0  0  0  0  0  0  0  0  0  0
   54.8294   -5.5304   -3.7054 C   0  0  0  0  0  0  0  0  0  0  0  0
   53.6838   -5.0120   -2.4775 Cl  0  0  0  0  0  0  0  0  0  0  0  0
   54.6177   -3.9274  -10.2019 C   0  0  0  0  0  0  0  0  0  0  0  0
   55.3166   -3.8091  -11.1784 C   0  0  0  0  0  0  0  0  0  0  0  0
   56.1880   -3.6857  -12.3720 C   0  0  0  0  0  0  0  0  0  0  0  0
   57.5328   -4.1274  -12.0953 N   0  0  0  0  0  0  0  0  0  0  0  0
   58.5760   -4.0427  -13.0686 C   0  0  0  0  0  0  0  0  0  0  0  0
   58.2825   -3.9036  -14.2776 O   0  0  0  0  0  0  0  0  0  0  0  0
   60.0071   -4.1154  -12.6853 C   0  0  0  0  0  0  0  0  0  0  0  0
   60.2462   -5.0333  -11.5371 C   0  0  0  0  0  0  0  0  0  0  0  0
   59.1173   -5.0825  -10.5558 C   0  0  0  0  0  0  0  0  0  0  0  0
   59.4244   -5.5924   -9.3239 C   0  0  0  0  0  0  0  0  0  0  0  0
   58.4870   -5.7015   -8.3261 C   0  0  0  0  0  0  0  0  0  0  0  0
   57.2078   -5.2830   -8.5851 C   0  0  0  0  0  0  0  0  0  0  0  0
   56.8745   -4.7610   -9.8317 C   0  0  0  0  0  0  0  0  0  0  0  0
   57.8457   -4.6632  -10.8222 C   0  0  0  0  0  0  0  0  0  0  0  0
  1  2  1  0  0  0
  2  3  2  0  0  0
  3  4  1  0  0  0
  4  5  2  0  0  0
  5  6  1  0  0  0
  6  7  1  0  0  0
  7  8  2  0  0  0
  8  9  1  0  0  0
  9 10  1  0  0  0
 10 11  2  0  0  0
 11 12  1  0  0  0
 12 13  1  0  0  0
 13 14  1  0  0  0
 11 22  1  0  0  0
 22 23  3  0  0  0
 23 24  1  0  0  0
 24 25  1  0  0  0
 25 26  1  0  0  0
 26 27  2  0  0  0
 26 28  1  0  0  0
 28 29  1  0  0  0
 29 30  1  0  0  0
 30 31  2  0  0  0
 31 32  1  0  0  0
 32 33  2  0  0  0
 33 34  1  0  0  0
 34 35  2  0  0  0
  8 15  1  0  0  0
 15 16  2  0  0  0
 16 17  1  0  0  0
 17 18  2  0  0  0
 18 19  1  0  0  0
 19 20  2  0  0  0
 20 21  1  0  0  0
 14  2  1  0  0  0
 35 25  1  0  0  0
 20 15  1  0  0  0
 14  5  1  0  0  0
 35 30  1  0  0  0
 13  9  2  0  0  0
M  END
> <minimizedAffinity>
-8.69470

> <CNNscore>
0.4636828303

> <CNNaffinity>
7.8429841995

> <CNN_VS>
3.6366569996

> <CNNaffinity_variance>
0.2236017734

$$$$
[H]c1c([H])c([H])c(C2=NC([H])([H])c3nnc(C([H])([H])[H])n3-c3sc(C#CC([H])([H])N4C(=O)C([H])([H])C([H])([H])c5c([H])c([H])c([H])c([H])c54)c([H])c32)c(Cl)c1[H]


 35 40  0  0  0  0  0  0  0  0999 V2000
   52.4341   -1.7259   -8.7738 C   0  0  0  0  0  0  0  0  0  0  0  0
   51.7399   -2.8659   -8.0853 C   0  0  0  0  0  0  0  0  0  0  0  0
   50.4857   -2.9926   -7.6288 N   0  0  0  0  0  0  0  0  0  0  0  0
   50.3067   -4.2181   -7.0934 N   0  0  0  0  0  0  0  0  0  0  0  0
   51.4296   -4.8939   -7.1948 C   0  0  0  0  0  0  0  0  0  0  0  0
   51.7866   -6.2909   -6.7959 C   0  0  0  0  0  0  0  0  0  0  0  0
   53.0131   -6.3475   -6.0323 N   0  0  0  0  0  0  0  0  0  0  0  0
   54.2288   -5.8883   -6.2946 C   0  0  0  0  0  0  0  0  0  0  0  0
   54.5658   -5.1809   -7.5443 C   0  0  0  0  0  0  0  0  0  0  0  0
   55.7433   -5.3280   -8.1719 C   0  0  0  0  0  0  0  0  0  0  0  0
   55.9595   -4.6327   -9.3289 C   0  0  0  0  0  0  0  0  0  0  0  0
   54.4893   -3.7678   -9.5351 S   0  0  0  0  0  0  0  0  0  0  0  0
   53.6631   -4.3243   -8.1536 C   0  0  0  0  0  0  0  0  0  0  0  0
   52.3041   -4.0436   -7.8084 N   0  0  0  0  0  0  0  0  0  0  0  0
   55.2046   -6.2577   -5.3019 C   0  0  0  0  0  0  0  0  0  0  0  0
   55.1092   -7.5921   -4.8515 C   0  0  0  0  0  0  0  0  0  0  0  0
   55.8430   -8.0762   -3.8383 C   0  0  0  0  0  0  0  0  0  0  0  0
   56.7358   -7.2774   -3.1836 C   0  0  0  0  0  0  0  0  0  0  0  0
   56.8539   -5.9765   -3.5882 C   0  0  0  0  0  0  0  0  0  0  0  0
   56.0879   -5.4704   -4.6394 C   0  0  0  0  0  0  0  0  0  0  0  0
   56.1240   -3.7254   -4.8451 Cl  0  0  0  0  0  0  0  0  0  0  0  0
   57.1221   -4.6148  -10.1761 C   0  0  0  0  0  0  0  0  0  0  0  0
   58.0895   -4.5822  -10.8968 C   0  0  0  0  0  0  0  0  0  0  0  0
   59.2930   -4.5504  -11.7626 C   0  0  0  0  0  0  0  0  0  0  0  0
   59.0141   -3.9344  -13.0366 N   0  0  0  0  0  0  0  0  0  0  0  0
   59.9361   -3.0434  -13.6682 C   0  0  0  0  0  0  0  0  0  0  0  0
   60.8449   -2.5131  -12.9901 O   0  0  0  0  0  0  0  0  0  0  0  0
   59.8469   -2.7263  -15.1144 C   0  0  0  0  0  0  0  0  0  0  0  0
   58.4413   -2.6811  -15.6048 C   0  0  0  0  0  0  0  0  0  0  0  0
   57.5239   -3.6321  -14.9023 C   0  0  0  0  0  0  0  0  0  0  0  0
   56.3480   -3.9061  -15.5458 C   0  0  0  0  0  0  0  0  0  0  0  0
   55.4091   -4.7576  -15.0171 C   0  0  0  0  0  0  0  0  0  0  0  0
   55.6703   -5.3449  -13.8065 C   0  0  0  0  0  0  0  0  0  0  0  0
   56.8606   -5.0798  -13.1353 C   0  0  0  0  0  0  0  0  0  0  0  0
   57.7921   -4.2128  -13.6962 C   0  0  0  0  0  0  0  0  0  0  0  0
  1  2  1  0  0  0
  2  3  2  0  0  0
  3  4  1  0  0  0
  4  5  2  0  0  0
  5  6  1  0  0  0
  6  7  1  0  0  0
  7  8  2  0  0  0
  8  9  1  0  0  0
  9 10  1  0  0  0
 10 11  2  0  0  0
 11 12  1  0  0  0
 12 13  1  0  0  0
 13 14  1  0  0  0
 11 22  1  0  0  0
 22 23  3  0  0  0
 23 24  1  0  0  0
 24 25  1  0  0  0
 25 26  1  0  0  0
 26 27  2  0  0  0
 26 28  1  0  0  0
 28 29  1  0  0  0
 29 30  1  0  0  0
 30 31  2  0  0  0
 31 32  1  0  0  0
 32 33  2  0  0  0
 33 34  1  0  0  0
 34 35  2  0  0  0
  8 15  1  0  0  0
 15 16  2  0  0  0
 16 17  1  0  0  0
 17 18  2  0  0  0
 18 19  1  0  0  0
 19 20  2  0  0  0
 20 21  1  0  0  0
 14  2  1  0  0  0
 35 25  1  0  0  0
 20 15  1  0  0  0
 14  5  1  0  0  0
 35 30  1  0  0  0
 13  9  2  0  0  0
M  END
> <minimizedAffinity>
-6.54608

> <CNNscore>
0.4294871986

> <CNNaffinity>
7.4617300034

> <CNN_VS>
3.2047173977

> <CNNaffinity_variance>
0.1271191090

$$$$
[H]c1c([H])c([H])c(C2=NC([H])([H])c3nnc(C([H])([H])[H])n3-c3sc(C#CC([H])([H])N4C(=O)C([H])([H])C([H])([H])c5c([H])c([H])c([H])c([H])c54)c([H])c32)c(Cl)c1[H]


 35 40  0  0  0  0  0  0  0  0999 V2000
   54.1369   -2.2522   -9.0536 C   0  0  0  0  0  0  0  0  0  0  0  0
   53.1680   -3.1220   -8.3050 C   0  0  0  0  0  0  0  0  0  0  0  0
   51.8345   -3.0590   -8.1819 N   0  0  0  0  0  0  0  0  0  0  0  0
   51.3890   -4.0770   -7.4166 N   0  0  0  0  0  0  0  0  0  0  0  0
   52.4161   -4.8047   -7.0382 C   0  0  0  0  0  0  0  0  0  0  0  0
   52.5000   -6.0498   -6.2130 C   0  0  0  0  0  0  0  0  0  0  0  0
   53.4886   -5.9471   -5.1629 N   0  0  0  0  0  0  0  0  0  0  0  0
   54.7766   -5.6352   -5.2015 C   0  0  0  0  0  0  0  0  0  0  0  0
   55.4877   -5.3205   -6.4549 C   0  0  0  0  0  0  0  0  0  0  0  0
   56.7571   -5.6904   -6.6869 C   0  0  0  0  0  0  0  0  0  0  0  0
   57.3278   -5.3561   -7.8832 C   0  0  0  0  0  0  0  0  0  0  0  0
   56.0631   -4.5169   -8.6885 S   0  0  0  0  0  0  0  0  0  0  0  0
   54.8665   -4.6277   -7.4815 C   0  0  0  0  0  0  0  0  0  0  0  0
   53.5066   -4.2002   -7.5945 N   0  0  0  0  0  0  0  0  0  0  0  0
   55.4316   -5.7572   -3.9247 C   0  0  0  0  0  0  0  0  0  0  0  0
   56.0723   -4.5816   -3.4776 C   0  0  0  0  0  0  0  0  0  0  0  0
   56.8428   -4.5407   -2.3803 C   0  0  0  0  0  0  0  0  0  0  0  0
   57.0444   -5.6640   -1.6309 C   0  0  0  0  0  0  0  0  0  0  0  0
   56.4437   -6.8242   -2.0344 C   0  0  0  0  0  0  0  0  0  0  0  0
   55.6452   -6.8690   -3.1782 C   0  0  0  0  0  0  0  0  0  0  0  0
   55.1942   -8.4730   -3.7374 Cl  0  0  0  0  0  0  0  0  0  0  0  0
   58.6556   -5.6282   -8.3657 C   0  0  0  0  0  0  0  0  0  0  0  0
   59.7748   -5.8633   -8.7507 C   0  0  0  0  0  0  0  0  0  0  0  0
   61.1406   -6.1596   -9.2467 C   0  0  0  0  0  0  0  0  0  0  0  0
   61.5683   -7.4832   -8.8655 N   0  0  0  0  0  0  0  0  0  0  0  0
   61.1506   -8.6509   -9.5760 C   0  0  0  0  0  0  0  0  0  0  0  0
   60.1489   -8.5928  -10.3246 O   0  0  0  0  0  0  0  0  0  0  0  0
   61.8747   -9.9394   -9.4514 C   0  0  0  0  0  0  0  0  0  0  0  0
   62.4237  -10.1576   -8.0842 C   0  0  0  0  0  0  0  0  0  0  0  0
   62.8385   -8.8983   -7.3901 C   0  0  0  0  0  0  0  0  0  0  0  0
   63.6789   -9.0589   -6.3226 C   0  0  0  0  0  0  0  0  0  0  0  0
   64.1376   -7.9922   -5.5891 C   0  0  0  0  0  0  0  0  0  0  0  0
   63.7334   -6.7327   -5.9481 C   0  0  0  0  0  0  0  0  0  0  0  0
   62.8787   -6.5472   -7.0311 C   0  0  0  0  0  0  0  0  0  0  0  0
   62.4310   -7.6473   -7.7545 C   0  0  0  0  0  0  0  0  0  0  0  0
  1  2  1  0  0  0
  2  3  2  0  0  0
  3  4  1  0  0  0
  4  5  2  0  0  0
  5  6  1  0  0  0
  6  7  1  0  0  0
  7  8  2  0  0  0
  8  9  1  0  0  0
  9 10  1  0  0  0
 10 11  2  0  0  0
 11 12  1  0  0  0
 12 13  1  0  0  0
 13 14  1  0  0  0
 11 22  1  0  0  0
 22 23  3  0  0  0
 23 24  1  0  0  0
 24 25  1  0  0  0
 25 26  1  0  0  0
 26 27  2  0  0  0
 26 28  1  0  0  0
 28 29  1  0  0  0
 29 30  1  0  0  0
 30 31  2  0  0  0
 31 32  1  0  0  0
 32 33  2  0  0  0
 33 34  1  0  0  0
 34 35  2  0  0  0
  8 15  1  0  0  0
 15 16  2  0  0  0
 16 17  1  0  0  0
 17 18  2  0  0  0
 18 19  1  0  0  0
 19 20  2  0  0  0
 20 21  1  0  0  0
 14  2  1  0  0  0
 35 25  1  0  0  0
 20 15  1  0  0  0
 14  5  1  0  0  0
 35 30  1  0  0  0
 13  9  2  0  0  0
M  END
> <minimizedAffinity>
-8.36550

> <CNNscore>
0.3504038155

> <CNNaffinity>
7.2137985229

> <CNN_VS>
2.5277426243

> <CNNaffinity_variance>
0.0794902593

$$$$
[H]c1c([H])c([H])c(C2=NC([H])([H])c3nnc(C([H])([H])[H])n3-c3sc(C#CC([H])([H])N4C(=O)C([H])([H])C([H])([H])c5c([H])c([H])c([H])c([H])c54)c([H])c32)c(Cl)c1[H]


 35 40  0  0  0  0  0  0  0  0999 V2000
   51.6439   -1.8431   -8.3937 C   0  0  0  0  0  0  0  0  0  0  0  0
   51.1102   -2.9728   -7.5603 C   0  0  0  0  0  0  0  0  0  0  0  0
   49.9117   -3.1632   -6.9907 N   0  0  0  0  0  0  0  0  0  0  0  0
   49.8854   -4.3483   -6.3462 N   0  0  0  0  0  0  0  0  0  0  0  0
   51.0531   -4.9347   -6.4882 C   0  0  0  0  0  0  0  0  0  0  0  0
   51.5640   -6.2575   -6.0110 C   0  0  0  0  0  0  0  0  0  0  0  0
   52.8460   -6.1457   -5.3519 N   0  0  0  0  0  0  0  0  0  0  0  0
   53.9917   -5.6116   -5.7519 C   0  0  0  0  0  0  0  0  0  0  0  0
   54.1660   -4.9896   -7.0780 C   0  0  0  0  0  0  0  0  0  0  0  0
   55.2998   -5.0923   -7.7893 C   0  0  0  0  0  0  0  0  0  0  0  0
   55.3624   -4.4844   -9.0121 C   0  0  0  0  0  0  0  0  0  0  0  0
   53.8089   -3.7656   -9.1613 S   0  0  0  0  0  0  0  0  0  0  0  0
   53.1455   -4.2670   -7.6749 C   0  0  0  0  0  0  0  0  0  0  0  0
   51.7977   -4.0712   -7.2393 N   0  0  0  0  0  0  0  0  0  0  0  0
   55.0706   -5.8114   -4.8192 C   0  0  0  0  0  0  0  0  0  0  0  0
   56.1778   -6.5135   -5.3422 C   0  0  0  0  0  0  0  0  0  0  0  0
   57.2154   -6.9084   -4.5893 C   0  0  0  0  0  0  0  0  0  0  0  0
   57.2442   -6.6406   -3.2509 C   0  0  0  0  0  0  0  0  0  0  0  0
   56.1872   -5.9656   -2.7059 C   0  0  0  0  0  0  0  0  0  0  0  0
   55.1050   -5.5580   -3.4874 C   0  0  0  0  0  0  0  0  0  0  0  0
   53.6979   -4.9789   -2.6080 Cl  0  0  0  0  0  0  0  0  0  0  0  0
   56.4496   -4.4434   -9.9535 C   0  0  0  0  0  0  0  0  0  0  0  0
   57.3526   -4.3916  -10.7523 C   0  0  0  0  0  0  0  0  0  0  0  0
   58.4787   -4.3361  -11.7155 C   0  0  0  0  0  0  0  0  0  0  0  0
   58.0217   -4.0328  -13.0495 N   0  0  0  0  0  0  0  0  0  0  0  0
   56.6505   -4.1632  -13.4311 C   0  0  0  0  0  0  0  0  0  0  0  0
   55.8783   -4.8571  -12.7316 O   0  0  0  0  0  0  0  0  0  0  0  0
   56.1115   -3.4954  -14.6409 C   0  0  0  0  0  0  0  0  0  0  0  0
   57.1039   -3.4318  -15.7496 C   0  0  0  0  0  0  0  0  0  0  0  0
   58.5212   -3.3005  -15.2872 C   0  0  0  0  0  0  0  0  0  0  0  0
   59.4136   -2.8631  -16.2274 C   0  0  0  0  0  0  0  0  0  0  0  0
   60.7477   -2.6996  -15.9455 C   0  0  0  0  0  0  0  0  0  0  0  0
   61.1861   -2.9869  -14.6790 C   0  0  0  0  0  0  0  0  0  0  0  0
   60.2946   -3.4331  -13.7075 C   0  0  0  0  0  0  0  0  0  0  0  0
   58.9493   -3.5889  -14.0233 C   0  0  0  0  0  0  0  0  0  0  0  0
  1  2  1  0  0  0
  2  3  2  0  0  0
  3  4  1  0  0  0
  4  5  2  0  0  0
  5  6  1  0  0  0
  6  7  1  0  0  0
  7  8  2  0  0  0
  8  9  1  0  0  0
  9 10  1  0  0  0
 10 11  2  0  0  0
 11 12  1  0  0  0
 12 13  1  0  0  0
 13 14  1  0  0  0
 11 22  1  0  0  0
 22 23  3  0  0  0
 23 24  1  0  0  0
 24 25  1  0  0  0
 25 26  1  0  0  0
 26 27  2  0  0  0
 26 28  1  0  0  0
 28 29  1  0  0  0
 29 30  1  0  0  0
 30 31  2  0  0  0
 31 32  1  0  0  0
 32 33  2  0  0  0
 33 34  1  0  0  0
 34 35  2  0  0  0
  8 15  1  0  0  0
 15 16  2  0  0  0
 16 17  1  0  0  0
 17 18  2  0  0  0
 18 19  1  0  0  0
 19 20  2  0  0  0
 20 21  1  0  0  0
 14  2  1  0  0  0
 35 25  1  0  0  0
 20 15  1  0  0  0
 14  5  1  0  0  0
 35 30  1  0  0  0
 13  9  2  0  0  0
M  END
> <minimizedAffinity>
-9.91536

> <CNNscore>
0.3487677574

> <CNNaffinity>
7.3255591393

> <CNN_VS>
2.5549187660

> <CNNaffinity_variance>
0.0942420438

$$$$
[H]c1c([H])c([H])c(C2=NC([H])([H])c3nnc(C([H])([H])[H])n3-c3sc(C#CC([H])([H])N4C(=O)C([H])([H])C([H])([H])c5c([H])c([H])c([H])c([H])c54)c([H])c32)c(Cl)c1[H]


 35 40  0  0  0  0  0  0  0  0999 V2000
   52.8606   -2.2712   -8.7278 C   0  0  0  0  0  0  0  0  0  0  0  0
   52.0427   -3.1848   -7.8607 C   0  0  0  0  0  0  0  0  0  0  0  0
   50.7409   -3.1706   -7.5407 N   0  0  0  0  0  0  0  0  0  0  0  0
   50.4476   -4.2141   -6.7371 N   0  0  0  0  0  0  0  0  0  0  0  0
   51.5430   -4.9102   -6.5284 C   0  0  0  0  0  0  0  0  0  0  0  0
   51.7893   -6.1627   -5.7482 C   0  0  0  0  0  0  0  0  0  0  0  0
   52.9189   -6.0395   -4.8541 N   0  0  0  0  0  0  0  0  0  0  0  0
   54.1759   -5.6818   -5.0768 C   0  0  0  0  0  0  0  0  0  0  0  0
   54.6824   -5.3252   -6.4155 C   0  0  0  0  0  0  0  0  0  0  0  0
   55.9147   -5.6467   -6.8395 C   0  0  0  0  0  0  0  0  0  0  0  0
   56.2903   -5.2761   -8.1006 C   0  0  0  0  0  0  0  0  0  0  0  0
   54.8932   -4.4712   -8.6941 S   0  0  0  0  0  0  0  0  0  0  0  0
   53.8932   -4.6407   -7.3258 C   0  0  0  0  0  0  0  0  0  0  0  0
   52.5183   -4.2600   -7.2284 N   0  0  0  0  0  0  0  0  0  0  0  0
   55.0168   -5.7981   -3.9134 C   0  0  0  0  0  0  0  0  0  0  0  0
   55.6455   -4.5972   -3.5197 C   0  0  0  0  0  0  0  0  0  0  0  0
   56.5645   -4.5384   -2.5444 C   0  0  0  0  0  0  0  0  0  0  0  0
   56.9397   -5.6674   -1.8746 C   0  0  0  0  0  0  0  0  0  0  0  0
   56.3559   -6.8517   -2.2303 C   0  0  0  0  0  0  0  0  0  0  0  0
   55.4027   -6.9148   -3.2478 C   0  0  0  0  0  0  0  0  0  0  0  0
   54.9702   -8.5277   -3.7958 Cl  0  0  0  0  0  0  0  0  0  0  0  0
   57.5400   -5.4945   -8.7791 C   0  0  0  0  0  0  0  0  0  0  0  0
   58.5853   -5.6592   -9.3591 C   0  0  0  0  0  0  0  0  0  0  0  0
   59.8799   -5.8721  -10.0503 C   0  0  0  0  0  0  0  0  0  0  0  0
   59.9429   -5.1457  -11.2947 N   0  0  0  0  0  0  0  0  0  0  0  0
   58.8539   -4.3488  -11.7655 C   0  0  0  0  0  0  0  0  0  0  0  0
   57.7088   -4.5266  -11.2920 O   0  0  0  0  0  0  0  0  0  0  0  0
   59.0421   -3.3094  -12.8068 C   0  0  0  0  0  0  0  0  0  0  0  0
   60.0687   -3.6899  -13.8165 C   0  0  0  0  0  0  0  0  0  0  0  0
   61.1797   -4.5272  -13.2647 C   0  0  0  0  0  0  0  0  0  0  0  0
   62.3145   -4.5835  -14.0268 C   0  0  0  0  0  0  0  0  0  0  0  0
   63.4120   -5.3164  -13.6466 C   0  0  0  0  0  0  0  0  0  0  0  0
   63.3562   -6.0082  -12.4647 C   0  0  0  0  0  0  0  0  0  0  0  0
   62.2112   -5.9642  -11.6743 C   0  0  0  0  0  0  0  0  0  0  0  0
   61.1155   -5.2132  -12.0860 C   0  0  0  0  0  0  0  0  0  0  0  0
  1  2  1  0  0  0
  2  3  2  0  0  0
  3  4  1  0  0  0
  4  5  2  0  0  0
  5  6  1  0  0  0
  6  7  1  0  0  0
  7  8  2  0  0  0
  8  9  1  0  0  0
  9 10  1  0  0  0
 10 11  2  0  0  0
 11 12  1  0  0  0
 12 13  1  0  0  0
 13 14  1  0  0  0
 11 22  1  0  0  0
 22 23  3  0  0  0
 23 24  1  0  0  0
 24 25  1  0  0  0
 25 26  1  0  0  0
 26 27  2  0  0  0
 26 28  1  0  0  0
 28 29  1  0  0  0
 29 30  1  0  0  0
 30 31  2  0  0  0
 31 32  1  0  0  0
 32 33  2  0  0  0
 33 34  1  0  0  0
 34 35  2  0  0  0
  8 15  1  0  0  0
 15 16  2  0  0  0
 16 17  1  0  0  0
 17 18  2  0  0  0
 18 19  1  0  0  0
 19 20  2  0  0  0
 20 21  1  0  0  0
 14  2  1  0  0  0
 35 25  1  0  0  0
 20 15  1  0  0  0
 14  5  1  0  0  0
 35 30  1  0  0  0
 13  9  2  0  0  0
M  END
> <minimizedAffinity>
-6.63497

> <CNNscore>
0.3198485672

> <CNNaffinity>
7.1685867310

> <CNN_VS>
2.2928621769

> <CNNaffinity_variance>
0.1599947661

$$$$
[H]OC(=O)[C@@]([H])(N([H])C(=O)[C@@]([H])(N([H])C(=O)[C@@]([H])(N([H])C(=O)[C@@]([H])(N([H])C(=O)[C@@]([H])(N([H])C(=O)[C@@]([H])(N([H])C(=O)[C@@]([H])(N([H])C(=O)C([H])([H])[H])C([H])([H])O[H])C([H])(C([H])([H])[H])C([H])([H])[H])C([H])([H])C([H])([H])C([H])([H])N=C(N([H])[H])N([H])[H])C([H])([H])O[H])C([H])(C([H])([H])[H])C([H])([H])[H])C([H])([H])O[H])C([H])([H])O[H]


 69 68  0  0  0  0  0  0  0  0999 V2000
   58.3252   -5.6698   -9.1105 C   0  0  0  0  0  0  0  0  0  0  0  0
   58.4208   -5.6638  -10.3856 O   0  0  0  0  0  0  0  0  0  0  0  0
   59.4539   -6.0741   -8.3470 N   0  0  0  0  0  0  0  0  0  0  0  0
   59.5211   -6.1269   -7.3226 H   0  0  0  0  0  0  0  0  0  0  0  0
   57.0504   -5.2526   -8.5102 C   0  0  0  0  0  0  0  0  0  0  0  0
   55.8919   -6.1883   -6.4444 C   0  0  0  0  0  0  0  0  0  0  0  0
   54.7593   -6.2408   -7.0654 O   0  0  0  0  0  0  0  0  0  0  0  0
   57.0303   -5.7227   -7.1234 N   0  0  0  0  0  0  0  0  0  0  0  0
   57.9467   -5.6925   -6.6540 H   0  0  0  0  0  0  0  0  0  0  0  0
   55.9747   -6.6172   -5.0421 C   0  0  0  0  0  0  0  0  0  0  0  0
   56.6823   -4.7505   -3.1779 C   0  0  0  0  0  0  0  0  0  0  0  0
   56.4808   -3.4769   -3.3777 O   0  0  0  0  0  0  0  0  0  0  0  0
   56.3384   -5.6848   -4.0885 N   0  0  0  0  0  0  0  0  0  0  0  0
   55.8762   -4.7174   -4.9271 H   0  0  0  0  0  0  0  0  0  0  0  0
   57.3292   -4.9638   -1.8361 C   0  0  0  0  0  0  0  0  0  0  0  0
   55.3985   -5.6032    1.4754 C   0  0  0  0  0  0  0  0  0  0  0  0
   56.4373   -5.1750    0.5071 C   0  0  0  0  0  0  0  0  0  0  0  0
   57.4620   -4.5972    0.9443 O   0  0  0  0  0  0  0  0  0  0  0  0
   56.3264   -5.3843   -0.8867 N   0  0  0  0  0  0  0  0  0  0  0  0
   55.4486   -5.8825   -1.2385 H   0  0  0  0  0  0  0  0  0  0  0  0
   58.4448   -5.9320   -1.9223 C   0  0  0  0  0  0  0  0  0  0  0  0
   59.5718   -5.5077   -1.1835 O   0  0  0  0  0  0  0  0  0  0  0  0
   59.8425   -4.6088   -1.5159 H   0  0  0  0  0  0  0  0  0  0  0  0
   54.7810   -7.4781   -4.6986 C   0  0  0  0  0  0  0  0  0  0  0  0
   55.3040   -8.4061   -3.5651 C   0  0  0  0  0  0  0  0  0  0  0  0
   53.6329   -6.7453   -4.0961 C   0  0  0  0  0  0  0  0  0  0  0  0
   56.7709   -3.8119   -8.6385 C   0  0  0  0  0  0  0  0  0  0  0  0
   55.3806   -3.3372   -8.4553 C   0  0  0  0  0  0  0  0  0  0  0  0
   54.3680   -3.6386   -9.4872 C   0  0  0  0  0  0  0  0  0  0  0  0
   53.1797   -2.7952   -9.2792 N   0  0  0  0  0  0  0  0  0  0  0  0
   52.2687   -3.0134   -8.4441 C   0  0  0  0  0  0  0  0  0  0  0  0
   52.2110   -4.1145   -7.5452 N   0  0  0  0  0  0  0  0  0  0  0  0
   51.1849   -2.0660   -8.3739 N   0  0  0  0  0  0  0  0  0  0  0  0
   52.5768   -4.0128   -6.5632 H   0  0  0  0  0  0  0  0  0  0  0  0
   51.8092   -5.0170   -7.8542 H   0  0  0  0  0  0  0  0  0  0  0  0
   50.2211   -2.3685   -8.1883 H   0  0  0  0  0  0  0  0  0  0  0  0
   51.3707   -1.0539   -8.5208 H   0  0  0  0  0  0  0  0  0  0  0  0
   60.6288   -6.4437   -9.1422 C   0  0  0  0  0  0  0  0  0  0  0  0
   60.6873   -7.8942   -9.2881 C   0  0  0  0  0  0  0  0  0  0  0  0
   60.1834   -8.4901  -10.2555 O   0  0  0  0  0  0  0  0  0  0  0  0
   61.3515   -8.6235   -8.2826 N   0  0  0  0  0  0  0  0  0  0  0  0
   61.8015   -8.2058   -7.4440 H   0  0  0  0  0  0  0  0  0  0  0  0
   61.4424  -10.1053   -8.4032 C   0  0  0  0  0  0  0  0  0  0  0  0
   61.1946  -10.6812   -7.0359 C   0  0  0  0  0  0  0  0  0  0  0  0
   60.3955  -11.6679   -7.0234 O   0  0  0  0  0  0  0  0  0  0  0  0
   61.7953  -10.1743   -5.9108 N   0  0  0  0  0  0  0  0  0  0  0  0
   62.4926   -9.3326   -6.1461 H   0  0  0  0  0  0  0  0  0  0  0  0
   61.7403  -10.5264   -4.5515 C   0  0  0  0  0  0  0  0  0  0  0  0
   62.1659  -11.8524   -4.1324 C   0  0  0  0  0  0  0  0  0  0  0  0
   63.0570  -12.1357   -3.3450 O   0  0  0  0  0  0  0  0  0  0  0  0
   61.4604  -12.9975   -4.7003 N   0  0  0  0  0  0  0  0  0  0  0  0
   60.6958  -12.7915   -5.3743 H   0  0  0  0  0  0  0  0  0  0  0  0
   61.8302  -14.3326   -4.3173 C   0  0  0  0  0  0  0  0  0  0  0  0
   62.0953  -15.1726   -5.4692 C   0  0  0  0  0  0  0  0  0  0  0  0
   62.0571  -16.5399   -5.3436 O   0  0  0  0  0  0  0  0  0  0  0  0
   62.3553  -14.6621   -6.5703 O   0  0  0  0  0  0  0  0  0  0  0  0
   62.0778  -17.1786   -6.1125 H   0  0  0  0  0  0  0  0  0  0  0  0
   60.6715  -14.9706   -3.5176 C   0  0  0  0  0  0  0  0  0  0  0  0
   59.6175  -15.2097   -4.4298 O   0  0  0  0  0  0  0  0  0  0  0  0
   59.0896  -14.4070   -4.5717 H   0  0  0  0  0  0  0  0  0  0  0  0
   60.3266  -10.2341   -4.0512 C   0  0  0  0  0  0  0  0  0  0  0  0
   59.8532  -11.2331   -3.2048 O   0  0  0  0  0  0  0  0  0  0  0  0
   58.9308  -11.4498   -3.5177 H   0  0  0  0  0  0  0  0  0  0  0  0
   62.8332  -10.3661   -8.9054 C   0  0  0  0  0  0  0  0  0  0  0  0
   63.7619   -9.2742   -8.3732 C   0  0  0  0  0  0  0  0  0  0  0  0
   63.0369  -10.6659  -10.3287 C   0  0  0  0  0  0  0  0  0  0  0  0
   61.8661   -5.9072   -8.3897 C   0  0  0  0  0  0  0  0  0  0  0  0
   62.9451   -6.0463   -9.2618 O   0  0  0  0  0  0  0  0  0  0  0  0
   63.2418   -6.9871   -9.2665 H   0  0  0  0  0  0  0  0  0  0  0  0
 16 17  1  0  0  0
 17 18  2  0  0  0
 17 19  1  0  0  0
 19 15  1  0  0  0
 15 21  1  0  0  0
 21 22  1  0  0  0
 15 11  1  0  0  0
 11 12  2  0  0  0
 11 13  1  0  0  0
 13 10  1  0  0  0
 10 24  1  0  0  0
 24 25  1  0  0  0
 24 26  1  0  0  0
 10  6  1  0  0  0
  6  7  2  0  0  0
  6  8  1  0  0  0
  8  5  1  0  0  0
  5 27  1  0  0  0
 27 28  1  0  0  0
 28 29  1  0  0  0
 29 30  1  0  0  0
 30 31  2  0  0  0
 31 32  1  0  0  0
 31 33  1  0  0  0
  5  1  1  0  0  0
  1  2  2  0  0  0
  1  3  1  0  0  0
  3 38  1  0  0  0
 38 67  1  0  0  0
 67 68  1  0  0  0
 38 39  1  0  0  0
 39 40  2  0  0  0
 39 41  1  0  0  0
 41 43  1  0  0  0
 43 64  1  0  0  0
 64 65  1  0  0  0
 64 66  1  0  0  0
 43 44  1  0  0  0
 44 45  2  0  0  0
 44 46  1  0  0  0
 46 48  1  0  0  0
 48 61  1  0  0  0
 61 62  1  0  0  0
 48 49  1  0  0  0
 49 50  2  0  0  0
 49 51  1  0  0  0
 51 53  1  0  0  0
 53 58  1  0  0  0
 58 59  1  0  0  0
 53 54  1  0  0  0
 54 55  1  0  0  0
 54 56  2  0  0  0
 19 20  1  0  0  0
 22 23  1  0  0  0
 13 14  1  0  0  0
  8  9  1  0  0  0
 32 34  1  0  0  0
 32 35  1  0  0  0
 33 36  1  0  0  0
 33 37  1  0  0  0
  3  4  1  0  0  0
 68 69  1  0  0  0
 41 42  1  0  0  0
 46 47  1  0  0  0
 62 63  1  0  0  0
 51 52  1  0  0  0
 59 60  1  0  0  0
 55 57  1  0  0  0
M  END
> <minimizedAffinity>
-6.09373

> <CNNscore>
0.6532848477

> <CNNaffinity>
6.6446228027

> <CNN_VS>
4.3408312798

> <CNNaffinity_variance>
0.1027056202

$$$$
[H]OC(=O)[C@@]([H])(N([H])C(=O)[C@@]([H])(N([H])C(=O)[C@@]([H])(N([H])C(=O)[C@@]([H])(N([H])C(=O)[C@@]([H])(N([H])C(=O)[C@@]([H])(N([H])C(=O)[C@@]([H])(N([H])C(=O)C([H])([H])[H])C([H])([H])O[H])C([H])(C([H])([H])[H])C([H])([H])[H])C([H])([H])C([H])([H])C([H])([H])N=C(N([H])[H])N([H])[H])C([H])([H])O[H])C([H])(C([H])([H])[H])C([H])([H])[H])C([H])([H])O[H])C([H])([H])O[H]


 69 68  0  0  0  0  0  0  0  0999 V2000
   58.5353   -5.6357   -9.3263 C   0  0  0  0  0  0  0  0  0  0  0  0
   58.9251   -5.2999  -10.4970 O   0  0  0  0  0  0  0  0  0  0  0  0
   59.4442   -6.3274   -8.4804 N   0  0  0  0  0  0  0  0  0  0  0  0
   59.2698   -6.6561   -7.5222 H   0  0  0  0  0  0  0  0  0  0  0  0
   57.1670   -5.2807   -8.9243 C   0  0  0  0  0  0  0  0  0  0  0  0
   55.9326   -5.7176   -6.7402 C   0  0  0  0  0  0  0  0  0  0  0  0
   54.8418   -5.9948   -7.3763 O   0  0  0  0  0  0  0  0  0  0  0  0
   57.0868   -5.3773   -7.4653 N   0  0  0  0  0  0  0  0  0  0  0  0
   57.9719   -5.1734   -6.9793 H   0  0  0  0  0  0  0  0  0  0  0  0
   55.9522   -5.7645   -5.2724 C   0  0  0  0  0  0  0  0  0  0  0  0
   53.5606   -5.6075   -3.9623 C   0  0  0  0  0  0  0  0  0  0  0  0
   52.4496   -5.3568   -4.5990 O   0  0  0  0  0  0  0  0  0  0  0  0
   54.7497   -5.6884   -4.5948 N   0  0  0  0  0  0  0  0  0  0  0  0
   54.1494   -5.4223   -5.7871 H   0  0  0  0  0  0  0  0  0  0  0  0
   53.2841   -5.7732   -2.4924 C   0  0  0  0  0  0  0  0  0  0  0  0
   56.2444   -4.8867   -0.1359 C   0  0  0  0  0  0  0  0  0  0  0  0
   55.2301   -5.6509   -0.9022 C   0  0  0  0  0  0  0  0  0  0  0  0
   55.2254   -6.9023   -0.8075 O   0  0  0  0  0  0  0  0  0  0  0  0
   54.2694   -5.0361   -1.7376 N   0  0  0  0  0  0  0  0  0  0  0  0
   54.2869   -3.9694   -1.8009 H   0  0  0  0  0  0  0  0  0  0  0  0
   51.9060   -5.3562   -2.1519 C   0  0  0  0  0  0  0  0  0  0  0  0
   51.2446   -6.3163   -1.3539 O   0  0  0  0  0  0  0  0  0  0  0  0
   51.2530   -7.1854   -1.8401 H   0  0  0  0  0  0  0  0  0  0  0  0
   56.9022   -6.8440   -4.8073 C   0  0  0  0  0  0  0  0  0  0  0  0
   57.5927   -6.2214   -3.5602 C   0  0  0  0  0  0  0  0  0  0  0  0
   56.2452   -8.0823   -4.3044 C   0  0  0  0  0  0  0  0  0  0  0  0
   56.7074   -3.9819   -9.4459 C   0  0  0  0  0  0  0  0  0  0  0  0
   55.5178   -3.9489  -10.3266 C   0  0  0  0  0  0  0  0  0  0  0  0
   54.2169   -4.4180   -9.8083 C   0  0  0  0  0  0  0  0  0  0  0  0
   53.3205   -3.2690   -9.6011 N   0  0  0  0  0  0  0  0  0  0  0  0
   52.5423   -3.1182   -8.6281 C   0  0  0  0  0  0  0  0  0  0  0  0
   52.3780   -4.0273   -7.5462 N   0  0  0  0  0  0  0  0  0  0  0  0
   51.7469   -1.9170   -8.5878 N   0  0  0  0  0  0  0  0  0  0  0  0
   52.9216   -3.8898   -6.6552 H   0  0  0  0  0  0  0  0  0  0  0  0
   51.7238   -4.8249   -7.6325 H   0  0  0  0  0  0  0  0  0  0  0  0
   50.7858   -1.9238   -8.2259 H   0  0  0  0  0  0  0  0  0  0  0  0
   52.1423   -1.0215   -8.9372 H   0  0  0  0  0  0  0  0  0  0  0  0
   60.7619   -6.5760   -9.0731 C   0  0  0  0  0  0  0  0  0  0  0  0
   60.9498   -8.0094   -9.2703 C   0  0  0  0  0  0  0  0  0  0  0  0
   60.6888   -8.5766  -10.3450 O   0  0  0  0  0  0  0  0  0  0  0  0
   61.4532   -8.7553   -8.1867 N   0  0  0  0  0  0  0  0  0  0  0  0
   61.6993   -8.3612   -7.2570 H   0  0  0  0  0  0  0  0  0  0  0  0
   61.6700  -10.2194   -8.3541 C   0  0  0  0  0  0  0  0  0  0  0  0
   60.9280  -10.9111   -7.2434 C   0  0  0  0  0  0  0  0  0  0  0  0
   59.9260  -11.5887   -7.6296 O   0  0  0  0  0  0  0  0  0  0  0  0
   61.3197  -10.8120   -5.9318 N   0  0  0  0  0  0  0  0  0  0  0  0
   62.2485  -10.2011   -5.8126 H   0  0  0  0  0  0  0  0  0  0  0  0
   60.8171  -11.3528   -4.7362 C   0  0  0  0  0  0  0  0  0  0  0  0
   60.5807  -10.4830   -3.5948 C   0  0  0  0  0  0  0  0  0  0  0  0
   59.5629  -10.3931   -2.9237 O   0  0  0  0  0  0  0  0  0  0  0  0
   61.6715   -9.6068   -3.1778 N   0  0  0  0  0  0  0  0  0  0  0  0
   62.5524   -9.6585   -3.7279 H   0  0  0  0  0  0  0  0  0  0  0  0
   61.5003   -8.7312   -2.0509 C   0  0  0  0  0  0  0  0  0  0  0  0
   61.0076   -7.4267   -2.4488 C   0  0  0  0  0  0  0  0  0  0  0  0
   61.1829   -6.9924   -3.7401 O   0  0  0  0  0  0  0  0  0  0  0  0
   60.4258   -6.6997   -1.6279 O   0  0  0  0  0  0  0  0  0  0  0  0
   60.7447   -6.1818   -4.1278 H   0  0  0  0  0  0  0  0  0  0  0  0
   62.8637   -8.5332   -1.3502 C   0  0  0  0  0  0  0  0  0  0  0  0
   63.3819   -7.2928   -1.7893 O   0  0  0  0  0  0  0  0  0  0  0  0
   63.8263   -7.3843   -2.6480 H   0  0  0  0  0  0  0  0  0  0  0  0
   61.7150  -12.5240   -4.3407 C   0  0  0  0  0  0  0  0  0  0  0  0
   62.9143  -12.5270   -5.0480 O   0  0  0  0  0  0  0  0  0  0  0  0
   63.0449  -13.4617   -5.3718 H   0  0  0  0  0  0  0  0  0  0  0  0
   63.1579  -10.4008   -8.2664 C   0  0  0  0  0  0  0  0  0  0  0  0
   63.7618   -9.1846   -7.5635 C   0  0  0  0  0  0  0  0  0  0  0  0
   63.9015  -10.8145   -9.4635 C   0  0  0  0  0  0  0  0  0  0  0  0
   61.8094   -6.0046   -8.0926 C   0  0  0  0  0  0  0  0  0  0  0  0
   62.9963   -5.8846   -8.8143 O   0  0  0  0  0  0  0  0  0  0  0  0
   63.4205   -6.7716   -8.8947 H   0  0  0  0  0  0  0  0  0  0  0  0
 16 17  1  0  0  0
 17 18  2  0  0  0
 17 19  1  0  0  0
 19 15  1  0  0  0
 15 21  1  0  0  0
 21 22  1  0  0  0
 15 11  1  0  0  0
 11 12  2  0  0  0
 11 13  1  0  0  0
 13 10  1  0  0  0
 10 24  1  0  0  0
 24 25  1  0  0  0
 24 26  1  0  0  0
 10  6  1  0  0  0
  6  7  2  0  0  0
  6  8  1  0  0  0
  8  5  1  0  0  0
  5 27  1  0  0  0
 27 28  1  0  0  0
 28 29  1  0  0  0
 29 30  1  0  0  0
 30 31  2  0  0  0
 31 32  1  0  0  0
 31 33  1  0  0  0
  5  1  1  0  0  0
  1  2  2  0  0  0
  1  3  1  0  0  0
  3 38  1  0  0  0
 38 67  1  0  0  0
 67 68  1  0  0  0
 38 39  1  0  0  0
 39 40  2  0  0  0
 39 41  1  0  0  0
 41 43  1  0  0  0
 43 64  1  0  0  0
 64 65  1  0  0  0
 64 66  1  0  0  0
 43 44  1  0  0  0
 44 45  2  0  0  0
 44 46  1  0  0  0
 46 48  1  0  0  0
 48 61  1  0  0  0
 61 62  1  0  0  0
 48 49  1  0  0  0
 49 50  2  0  0  0
 49 51  1  0  0  0
 51 53  1  0  0  0
 53 58  1  0  0  0
 58 59  1  0  0  0
 53 54  1  0  0  0
 54 55  1  0  0  0
 54 56  2  0  0  0
 19 20  1  0  0  0
 22 23  1  0  0  0
 13 14  1  0  0  0
  8  9  1  0  0  0
 32 34  1  0  0  0
 32 35  1  0  0  0
 33 36  1  0  0  0
 33 37  1  0  0  0
  3  4  1  0  0  0
 68 69  1  0  0  0
 41 42  1  0  0  0
 46 47  1  0  0  0
 62 63  1  0  0  0
 51 52  1  0  0  0
 59 60  1  0  0  0
 55 57  1  0  0  0
M  END
> <minimizedAffinity>
-6.20052

> <CNNscore>
0.3740424514

> <CNNaffinity>
6.7405915260

> <CNN_VS>
2.5212674141

> <CNNaffinity_variance>
0.1444266140

$$$$
[H]OC(=O)[C@@]([H])(N([H])C(=O)[C@@]([H])(N([H])C(=O)[C@@]([H])(N([H])C(=O)[C@@]([H])(N([H])C(=O)[C@@]([H])(N([H])C(=O)[C@@]([H])(N([H])C(=O)[C@@]([H])(N([H])C(=O)C([H])([H])[H])C([H])([H])O[H])C([H])(C([H])([H])[H])C([H])([H])[H])C([H])([H])C([H])([H])C([H])([H])N=C(N([H])[H])N([H])[H])C([H])([H])O[H])C([H])(C([H])([H])[H])C([H])([H])[H])C([H])([H])O[H])C([H])([H])O[H]


 69 68  0  0  0  0  0  0  0  0999 V2000
   58.3907   -5.6405   -8.9498 C   0  0  0  0  0  0  0  0  0  0  0  0
   58.4658   -5.4079  -10.2049 O   0  0  0  0  0  0  0  0  0  0  0  0
   59.5025   -6.2461   -8.3038 N   0  0  0  0  0  0  0  0  0  0  0  0
   59.5826   -6.4889   -7.3081 H   0  0  0  0  0  0  0  0  0  0  0  0
   57.1558   -5.2621   -8.2487 C   0  0  0  0  0  0  0  0  0  0  0  0
   55.9343   -6.3837   -6.3161 C   0  0  0  0  0  0  0  0  0  0  0  0
   54.7856   -6.0925   -6.8325 O   0  0  0  0  0  0  0  0  0  0  0  0
   57.1088   -6.0037   -6.9868 N   0  0  0  0  0  0  0  0  0  0  0  0
   58.0343   -6.2442   -6.6037 H   0  0  0  0  0  0  0  0  0  0  0  0
   55.9971   -7.1083   -5.0400 C   0  0  0  0  0  0  0  0  0  0  0  0
   58.4097   -7.2574   -3.7681 C   0  0  0  0  0  0  0  0  0  0  0  0
   59.4981   -7.5889   -4.4070 O   0  0  0  0  0  0  0  0  0  0  0  0
   57.2107   -7.1791   -4.3818 N   0  0  0  0  0  0  0  0  0  0  0  0
   57.7764   -7.5463   -5.5642 H   0  0  0  0  0  0  0  0  0  0  0  0
   58.7229   -7.0014   -2.3187 C   0  0  0  0  0  0  0  0  0  0  0  0
   56.3607   -8.5890    0.3275 C   0  0  0  0  0  0  0  0  0  0  0  0
   57.0884   -7.5968   -0.5008 C   0  0  0  0  0  0  0  0  0  0  0  0
   56.8687   -6.3768   -0.3051 O   0  0  0  0  0  0  0  0  0  0  0  0
   58.0165   -7.9606   -1.5034 N   0  0  0  0  0  0  0  0  0  0  0  0
   58.1933   -9.0043   -1.6512 H   0  0  0  0  0  0  0  0  0  0  0  0
   60.1806   -7.0340   -2.0672 C   0  0  0  0  0  0  0  0  0  0  0  0
   60.5066   -6.5490   -0.7810 O   0  0  0  0  0  0  0  0  0  0  0  0
   60.1421   -5.6263   -0.6938 H   0  0  0  0  0  0  0  0  0  0  0  0
   54.8054   -6.7436   -4.1850 C   0  0  0  0  0  0  0  0  0  0  0  0
   54.6641   -7.9468   -3.2093 C   0  0  0  0  0  0  0  0  0  0  0  0
   55.0044   -5.5577   -3.3063 C   0  0  0  0  0  0  0  0  0  0  0  0
   56.9872   -3.8091   -8.0742 C   0  0  0  0  0  0  0  0  0  0  0  0
   55.7534   -3.1691   -8.5838 C   0  0  0  0  0  0  0  0  0  0  0  0
   54.7709   -3.9786   -9.3324 C   0  0  0  0  0  0  0  0  0  0  0  0
   53.4877   -3.2612   -9.4052 N   0  0  0  0  0  0  0  0  0  0  0  0
   52.5607   -3.3390   -8.5627 C   0  0  0  0  0  0  0  0  0  0  0  0
   52.5737   -4.1344   -7.3832 N   0  0  0  0  0  0  0  0  0  0  0  0
   51.3775   -2.5497   -8.7954 N   0  0  0  0  0  0  0  0  0  0  0  0
   52.8707   -3.7117   -6.4659 H   0  0  0  0  0  0  0  0  0  0  0  0
   52.2909   -5.1293   -7.4243 H   0  0  0  0  0  0  0  0  0  0  0  0
   50.4438   -2.9004   -8.5506 H   0  0  0  0  0  0  0  0  0  0  0  0
   51.4594   -1.6076   -9.2268 H   0  0  0  0  0  0  0  0  0  0  0  0
   60.6377   -6.5360   -9.1851 C   0  0  0  0  0  0  0  0  0  0  0  0
   60.7757   -7.9790   -9.3503 C   0  0  0  0  0  0  0  0  0  0  0  0
   60.3425   -8.5828  -10.3467 O   0  0  0  0  0  0  0  0  0  0  0  0
   61.4348   -8.6913   -8.3293 N   0  0  0  0  0  0  0  0  0  0  0  0
   61.8285   -8.2659   -7.4666 H   0  0  0  0  0  0  0  0  0  0  0  0
   61.6057  -10.1643   -8.4684 C   0  0  0  0  0  0  0  0  0  0  0  0
   60.9431  -10.8056   -7.2800 C   0  0  0  0  0  0  0  0  0  0  0  0
   60.0042  -11.6071   -7.5769 O   0  0  0  0  0  0  0  0  0  0  0  0
   61.3379  -10.5397   -5.9928 N   0  0  0  0  0  0  0  0  0  0  0  0
   62.2073   -9.8376   -5.9533 H   0  0  0  0  0  0  0  0  0  0  0  0
   60.9005  -11.0009   -4.7396 C   0  0  0  0  0  0  0  0  0  0  0  0
   61.4122  -10.3847   -3.5257 C   0  0  0  0  0  0  0  0  0  0  0  0
   62.2791   -9.5280   -3.4323 O   0  0  0  0  0  0  0  0  0  0  0  0
   60.8379  -10.8191   -2.2557 N   0  0  0  0  0  0  0  0  0  0  0  0
   60.0970  -11.5475   -2.2994 H   0  0  0  0  0  0  0  0  0  0  0  0
   61.2968  -10.2398   -1.0229 C   0  0  0  0  0  0  0  0  0  0  0  0
   62.4351  -10.9550   -0.4792 C   0  0  0  0  0  0  0  0  0  0  0  0
   63.6939  -10.7183   -0.9754 O   0  0  0  0  0  0  0  0  0  0  0  0
   62.2782  -11.7801    0.4347 O   0  0  0  0  0  0  0  0  0  0  0  0
   64.5380  -11.0531   -0.5573 H   0  0  0  0  0  0  0  0  0  0  0  0
   60.1566  -10.2945    0.0191 C   0  0  0  0  0  0  0  0  0  0  0  0
   60.1430   -9.0486    0.6882 O   0  0  0  0  0  0  0  0  0  0  0  0
   60.8040   -9.0270    1.3993 H   0  0  0  0  0  0  0  0  0  0  0  0
   61.1084  -12.5140   -4.7014 C   0  0  0  0  0  0  0  0  0  0  0  0
   62.1666  -12.8769   -3.8725 O   0  0  0  0  0  0  0  0  0  0  0  0
   62.7145  -13.5311   -4.3897 H   0  0  0  0  0  0  0  0  0  0  0  0
   63.0916  -10.3785   -8.4968 C   0  0  0  0  0  0  0  0  0  0  0  0
   63.7806   -9.1229   -7.9613 C   0  0  0  0  0  0  0  0  0  0  0  0
   63.7155  -10.9152   -9.7134 C   0  0  0  0  0  0  0  0  0  0  0  0
   61.8902   -5.9274   -8.5176 C   0  0  0  0  0  0  0  0  0  0  0  0
   62.9250   -6.0478   -9.4443 O   0  0  0  0  0  0  0  0  0  0  0  0
   63.2607   -6.9754   -9.4400 H   0  0  0  0  0  0  0  0  0  0  0  0
 16 17  1  0  0  0
 17 18  2  0  0  0
 17 19  1  0  0  0
 19 15  1  0  0  0
 15 21  1  0  0  0
 21 22  1  0  0  0
 15 11  1  0  0  0
 11 12  2  0  0  0
 11 13  1  0  0  0
 13 10  1  0  0  0
 10 24  1  0  0  0
 24 25  1  0  0  0
 24 26  1  0  0  0
 10  6  1  0  0  0
  6  7  2  0  0  0
  6  8  1  0  0  0
  8  5  1  0  0  0
  5 27  1  0  0  0
 27 28  1  0  0  0
 28 29  1  0  0  0
 29 30  1  0  0  0
 30 31  2  0  0  0
 31 32  1  0  0  0
 31 33  1  0  0  0
  5  1  1  0  0  0
  1  2  2  0  0  0
  1  3  1  0  0  0
  3 38  1  0  0  0
 38 67  1  0  0  0
 67 68  1  0  0  0
 38 39  1  0  0  0
 39 40  2  0  0  0
 39 41  1  0  0  0
 41 43  1  0  0  0
 43 64  1  0  0  0
 64 65  1  0  0  0
 64 66  1  0  0  0
 43 44  1  0  0  0
 44 45  2  0  0  0
 44 46  1  0  0  0
 46 48  1  0  0  0
 48 61  1  0  0  0
 61 62  1  0  0  0
 48 49  1  0  0  0
 49 50  2  0  0  0
 49 51  1  0  0  0
 51 53  1  0  0  0
 53 58  1  0  0  0
 58 59  1  0  0  0
 53 54  1  0  0  0
 54 55  1  0  0  0
 54 56  2  0  0  0
 19 20  1  0  0  0
 22 23  1  0  0  0
 13 14  1  0  0  0
  8  9  1  0  0  0
 32 34  1  0  0  0
 32 35  1  0  0  0
 33 36  1  0  0  0
 33 37  1  0  0  0
  3  4  1  0  0  0
 68 69  1  0  0  0
 41 42  1  0  0  0
 46 47  1  0  0  0
 62 63  1  0  0  0
 51 52  1  0  0  0
 59 60  1  0  0  0
 55 57  1  0  0  0
M  END
> <minimizedAffinity>
-5.41816

> <CNNscore>
0.3238153756

> <CNNaffinity>
6.1528539658

> <CNN_VS>
1.9923887253

> <CNNaffinity_variance>
0.3357291222

$$$$
[H]OC(=O)[C@@]([H])(N([H])C(=O)[C@@]([H])(N([H])C(=O)[C@@]([H])(N([H])C(=O)[C@@]([H])(N([H])C(=O)[C@@]([H])(N([H])C(=O)[C@@]([H])(N([H])C(=O)[C@@]([H])(N([H])C(=O)C([H])([H])[H])C([H])([H])O[H])C([H])(C([H])([H])[H])C([H])([H])[H])C([H])([H])C([H])([H])C([H])([H])N=C(N([H])[H])N([H])[H])C([H])([H])O[H])C([H])(C([H])([H])[H])C([H])([H])[H])C([H])([H])O[H])C([H])([H])O[H]


 69 68  0  0  0  0  0  0  0  0999 V2000
   56.6209   -6.8984   -4.7468 C   0  0  0  0  0  0  0  0  0  0  0  0
   56.4353   -8.1569   -4.8769 O   0  0  0  0  0  0  0  0  0  0  0  0
   57.4965   -6.4435   -3.7238 N   0  0  0  0  0  0  0  0  0  0  0  0
   57.7388   -5.4687   -3.5051 H   0  0  0  0  0  0  0  0  0  0  0  0
   55.9178   -5.9963   -5.6696 C   0  0  0  0  0  0  0  0  0  0  0  0
   57.1308   -4.7677   -7.5416 C   0  0  0  0  0  0  0  0  0  0  0  0
   56.8884   -3.6241   -6.9900 O   0  0  0  0  0  0  0  0  0  0  0  0
   56.6818   -5.9438   -6.9178 N   0  0  0  0  0  0  0  0  0  0  0  0
   56.8824   -6.8666   -7.3292 H   0  0  0  0  0  0  0  0  0  0  0  0
   57.8725   -4.8234   -8.8081 C   0  0  0  0  0  0  0  0  0  0  0  0
   60.0429   -6.4710   -8.9960 C   0  0  0  0  0  0  0  0  0  0  0  0
   60.1905   -7.2928   -9.9987 O   0  0  0  0  0  0  0  0  0  0  0  0
   58.9770   -5.6509   -8.8887 N   0  0  0  0  0  0  0  0  0  0  0  0
   58.4655   -6.1409  -10.0511 H   0  0  0  0  0  0  0  0  0  0  0  0
   61.2031   -6.6053   -8.0470 C   0  0  0  0  0  0  0  0  0  0  0  0
   61.9496   -9.7970   -5.9594 C   0  0  0  0  0  0  0  0  0  0  0  0
   61.8374   -8.3787   -6.3787 C   0  0  0  0  0  0  0  0  0  0  0  0
   62.2144   -7.4865   -5.5806 O   0  0  0  0  0  0  0  0  0  0  0  0
   61.3225   -7.9835   -7.6347 N   0  0  0  0  0  0  0  0  0  0  0  0
   61.0115   -8.7584   -8.3019 H   0  0  0  0  0  0  0  0  0  0  0  0
   62.4562   -6.1018   -8.6514 C   0  0  0  0  0  0  0  0  0  0  0  0
   63.0447   -7.0509   -9.5168 O   0  0  0  0  0  0  0  0  0  0  0  0
   63.1993   -7.8891   -9.0018 H   0  0  0  0  0  0  0  0  0  0  0  0
   56.9039   -4.9044   -9.9654 C   0  0  0  0  0  0  0  0  0  0  0  0
   56.0155   -3.6387   -9.7976 C   0  0  0  0  0  0  0  0  0  0  0  0
   57.5239   -4.7628  -11.3121 C   0  0  0  0  0  0  0  0  0  0  0  0
   54.4983   -6.3339   -5.8720 C   0  0  0  0  0  0  0  0  0  0  0  0
   53.5470   -5.2467   -6.1957 C   0  0  0  0  0  0  0  0  0  0  0  0
   53.3478   -4.8509   -7.6045 C   0  0  0  0  0  0  0  0  0  0  0  0
   52.4240   -3.7072   -7.6740 N   0  0  0  0  0  0  0  0  0  0  0  0
   52.3325   -2.9016   -8.6320 C   0  0  0  0  0  0  0  0  0  0  0  0
   53.1036   -2.9399   -9.8270 N   0  0  0  0  0  0  0  0  0  0  0  0
   51.3568   -1.8461   -8.5275 N   0  0  0  0  0  0  0  0  0  0  0  0
   52.7258   -3.4234  -10.6825 H   0  0  0  0  0  0  0  0  0  0  0  0
   54.0365   -2.4924   -9.8580 H   0  0  0  0  0  0  0  0  0  0  0  0
   51.5408   -0.9084   -8.9038 H   0  0  0  0  0  0  0  0  0  0  0  0
   50.4479   -2.0252   -8.0562 H   0  0  0  0  0  0  0  0  0  0  0  0
   58.1017   -7.5091   -2.9190 C   0  0  0  0  0  0  0  0  0  0  0  0
   57.2378   -7.8196   -1.7849 C   0  0  0  0  0  0  0  0  0  0  0  0
   57.3138   -8.8913   -1.1598 O   0  0  0  0  0  0  0  0  0  0  0  0
   56.2938   -6.8476   -1.4002 N   0  0  0  0  0  0  0  0  0  0  0  0
   56.1655   -5.9268   -1.8648 H   0  0  0  0  0  0  0  0  0  0  0  0
   55.4025   -7.1236   -0.2392 C   0  0  0  0  0  0  0  0  0  0  0  0
   53.9888   -6.8834   -0.6936 C   0  0  0  0  0  0  0  0  0  0  0  0
   53.2845   -6.2171    0.1263 O   0  0  0  0  0  0  0  0  0  0  0  0
   53.5207   -7.3469   -1.8975 N   0  0  0  0  0  0  0  0  0  0  0  0
   54.3125   -7.8744   -2.4848 H   0  0  0  0  0  0  0  0  0  0  0  0
   52.2766   -7.2534   -2.5443 C   0  0  0  0  0  0  0  0  0  0  0  0
   51.8250   -5.9694   -3.0566 C   0  0  0  0  0  0  0  0  0  0  0  0
   52.2194   -4.8577   -2.7356 O   0  0  0  0  0  0  0  0  0  0  0  0
   50.7818   -5.9804   -4.0779 N   0  0  0  0  0  0  0  0  0  0  0  0
   50.4238   -6.9107   -4.3741 H   0  0  0  0  0  0  0  0  0  0  0  0
   50.3011   -4.7429   -4.6288 C   0  0  0  0  0  0  0  0  0  0  0  0
   49.1665   -4.2254   -3.8889 C   0  0  0  0  0  0  0  0  0  0  0  0
   48.6873   -2.9671   -4.1608 O   0  0  0  0  0  0  0  0  0  0  0  0
   48.6239   -4.9149   -3.0109 O   0  0  0  0  0  0  0  0  0  0  0  0
   47.8269   -2.6016   -3.8064 H   0  0  0  0  0  0  0  0  0  0  0  0
   49.8520   -4.9779   -6.0889 C   0  0  0  0  0  0  0  0  0  0  0  0
   49.6715   -3.7056   -6.6795 O   0  0  0  0  0  0  0  0  0  0  0  0
   48.7990   -3.3396   -6.4605 H   0  0  0  0  0  0  0  0  0  0  0  0
   51.2237   -7.8619   -1.6194 C   0  0  0  0  0  0  0  0  0  0  0  0
   50.3398   -6.9039   -1.1298 O   0  0  0  0  0  0  0  0  0  0  0  0
   50.2669   -7.0675   -0.1482 H   0  0  0  0  0  0  0  0  0  0  0  0
   55.8472   -6.1619    0.8247 C   0  0  0  0  0  0  0  0  0  0  0  0
   56.2425   -4.8420    0.1615 C   0  0  0  0  0  0  0  0  0  0  0  0
   56.8017   -6.6133    1.8456 C   0  0  0  0  0  0  0  0  0  0  0  0
   59.4773   -6.9888   -2.4479 C   0  0  0  0  0  0  0  0  0  0  0  0
   60.2579   -6.8528   -3.5952 O   0  0  0  0  0  0  0  0  0  0  0  0
   60.5863   -7.7404   -3.8736 H   0  0  0  0  0  0  0  0  0  0  0  0
 16 17  1  0  0  0
 17 18  2  0  0  0
 17 19  1  0  0  0
 19 15  1  0  0  0
 15 21  1  0  0  0
 21 22  1  0  0  0
 15 11  1  0  0  0
 11 12  2  0  0  0
 11 13  1  0  0  0
 13 10  1  0  0  0
 10 24  1  0  0  0
 24 25  1  0  0  0
 24 26  1  0  0  0
 10  6  1  0  0  0
  6  7  2  0  0  0
  6  8  1  0  0  0
  8  5  1  0  0  0
  5 27  1  0  0  0
 27 28  1  0  0  0
 28 29  1  0  0  0
 29 30  1  0  0  0
 30 31  2  0  0  0
 31 32  1  0  0  0
 31 33  1  0  0  0
  5  1  1  0  0  0
  1  2  2  0  0  0
  1  3  1  0  0  0
  3 38  1  0  0  0
 38 67  1  0  0  0
 67 68  1  0  0  0
 38 39  1  0  0  0
 39 40  2  0  0  0
 39 41  1  0  0  0
 41 43  1  0  0  0
 43 64  1  0  0  0
 64 65  1  0  0  0
 64 66  1  0  0  0
 43 44  1  0  0  0
 44 45  2  0  0  0
 44 46  1  0  0  0
 46 48  1  0  0  0
 48 61  1  0  0  0
 61 62  1  0  0  0
 48 49  1  0  0  0
 49 50  2  0  0  0
 49 51  1  0  0  0
 51 53  1  0  0  0
 53 58  1  0  0  0
 58 59  1  0  0  0
 53 54  1  0  0  0
 54 55  1  0  0  0
 54 56  2  0  0  0
 19 20  1  0  0  0
 22 23  1  0  0  0
 13 14  1  0  0  0
  8  9  1  0  0  0
 32 34  1  0  0  0
 32 35  1  0  0  0
 33 36  1  0  0  0
 33 37  1  0  0  0
  3  4  1  0  0  0
 68 69  1  0  0  0
 41 42  1  0  0  0
 46 47  1  0  0  0
 62 63  1  0  0  0
 51 52  1  0  0  0
 59 60  1  0  0  0
 55 57  1  0  0  0
M  END
> <minimizedAffinity>
-7.27403

> <CNNscore>
0.2949180901

> <CNNaffinity>
6.9495377541

> <CNN_VS>
2.0495443344

> <CNNaffinity_variance>
0.6595678329

$$$$
[H]OC(=O)[C@@]([H])(N([H])C(=O)[C@@]([H])(N([H])C(=O)[C@@]([H])(N([H])C(=O)[C@@]([H])(N([H])C(=O)[C@@]([H])(N([H])C(=O)[C@@]([H])(N([H])C(=O)[C@@]([H])(N([H])C(=O)C([H])([H])[H])C([H])([H])O[H])C([H])(C([H])([H])[H])C([H])([H])[H])C([H])([H])C([H])([H])C([H])([H])N=C(N([H])[H])N([H])[H])C([H])([H])O[H])C([H])(C([H])([H])[H])C([H])([H])[H])C([H])([H])O[H])C([H])([H])O[H]


 69 68  0  0  0  0  0  0  0  0999 V2000
   59.1632   -5.6384  -10.2618 C   0  0  0  0  0  0  0  0  0  0  0  0
   60.0220   -5.2740  -11.1365 O   0  0  0  0  0  0  0  0  0  0  0  0
   59.5916   -6.4789   -9.1987 N   0  0  0  0  0  0  0  0  0  0  0  0
   59.0162   -6.8465   -8.4304 H   0  0  0  0  0  0  0  0  0  0  0  0
   57.7812   -5.1603  -10.4079 C   0  0  0  0  0  0  0  0  0  0  0  0
   55.8575   -4.7190   -8.7986 C   0  0  0  0  0  0  0  0  0  0  0  0
   55.0798   -4.3777   -9.7731 O   0  0  0  0  0  0  0  0  0  0  0  0
   57.1763   -5.1169   -9.0750 N   0  0  0  0  0  0  0  0  0  0  0  0
   57.8062   -5.4129   -8.3156 H   0  0  0  0  0  0  0  0  0  0  0  0
   55.3536   -4.6894   -7.4193 C   0  0  0  0  0  0  0  0  0  0  0  0
   52.6591   -4.8500   -7.0017 C   0  0  0  0  0  0  0  0  0  0  0  0
   52.1231   -5.8722   -6.3931 O   0  0  0  0  0  0  0  0  0  0  0  0
   53.9879   -4.7557   -7.2155 N   0  0  0  0  0  0  0  0  0  0  0  0
   54.1846   -5.9595   -6.6114 H   0  0  0  0  0  0  0  0  0  0  0  0
   51.5891   -3.8680   -7.3958 C   0  0  0  0  0  0  0  0  0  0  0  0
   48.7333   -2.5992   -5.0855 C   0  0  0  0  0  0  0  0  0  0  0  0
   49.5198   -2.9583   -6.2908 C   0  0  0  0  0  0  0  0  0  0  0  0
   49.0063   -2.7675   -7.4199 O   0  0  0  0  0  0  0  0  0  0  0  0
   50.8204   -3.5089   -6.2278 N   0  0  0  0  0  0  0  0  0  0  0  0
   51.2419   -3.6591   -5.2572 H   0  0  0  0  0  0  0  0  0  0  0  0
   52.1659   -2.6790   -8.0611 C   0  0  0  0  0  0  0  0  0  0  0  0
   51.5793   -2.4431   -9.3245 O   0  0  0  0  0  0  0  0  0  0  0  0
   51.6929   -3.2624   -9.8792 H   0  0  0  0  0  0  0  0  0  0  0  0
   56.1935   -5.5945   -6.5479 C   0  0  0  0  0  0  0  0  0  0  0  0
   56.2972   -4.8238   -5.2006 C   0  0  0  0  0  0  0  0  0  0  0  0
   55.5570   -6.8947   -6.1986 C   0  0  0  0  0  0  0  0  0  0  0  0
   57.6618   -3.8880  -11.1409 C   0  0  0  0  0  0  0  0  0  0  0  0
   57.7956   -3.9004  -12.6152 C   0  0  0  0  0  0  0  0  0  0  0  0
   56.5816   -3.9536  -13.4546 C   0  0  0  0  0  0  0  0  0  0  0  0
   56.8885   -4.6187  -14.7313 N   0  0  0  0  0  0  0  0  0  0  0  0
   56.5188   -4.2261  -15.8646 C   0  0  0  0  0  0  0  0  0  0  0  0
   55.7338   -3.0694  -16.1286 N   0  0  0  0  0  0  0  0  0  0  0  0
   56.9279   -5.0027  -17.0077 N   0  0  0  0  0  0  0  0  0  0  0  0
   56.2025   -2.1599  -16.3765 H   0  0  0  0  0  0  0  0  0  0  0  0
   54.7011   -3.1196  -16.0782 H   0  0  0  0  0  0  0  0  0  0  0  0
   56.3105   -5.1265  -17.8190 H   0  0  0  0  0  0  0  0  0  0  0  0
   57.8625   -5.4576  -17.0177 H   0  0  0  0  0  0  0  0  0  0  0  0
   61.0136   -6.8337   -9.2355 C   0  0  0  0  0  0  0  0  0  0  0  0
   61.1707   -8.1795   -9.7766 C   0  0  0  0  0  0  0  0  0  0  0  0
   60.2776   -8.7465  -10.4293 O   0  0  0  0  0  0  0  0  0  0  0  0
   62.3937   -8.8374   -9.5412 N   0  0  0  0  0  0  0  0  0  0  0  0
   63.1917   -8.4365   -9.0096 H   0  0  0  0  0  0  0  0  0  0  0  0
   62.5957  -10.2079  -10.0885 C   0  0  0  0  0  0  0  0  0  0  0  0
   62.4112  -11.1752   -8.9515 C   0  0  0  0  0  0  0  0  0  0  0  0
   62.1609  -12.3655   -9.3158 O   0  0  0  0  0  0  0  0  0  0  0  0
   62.5151  -10.7871   -7.6392 N   0  0  0  0  0  0  0  0  0  0  0  0
   62.7802   -9.7056   -7.5374 H   0  0  0  0  0  0  0  0  0  0  0  0
   62.3983  -11.4783   -6.4213 C   0  0  0  0  0  0  0  0  0  0  0  0
   61.3824  -11.0791   -5.4602 C   0  0  0  0  0  0  0  0  0  0  0  0
   60.4392  -11.7416   -5.0533 O   0  0  0  0  0  0  0  0  0  0  0  0
   61.4789   -9.7359   -4.8963 N   0  0  0  0  0  0  0  0  0  0  0  0
   62.2708   -9.1454   -5.2214 H   0  0  0  0  0  0  0  0  0  0  0  0
   60.5091   -9.2878   -3.9349 C   0  0  0  0  0  0  0  0  0  0  0  0
   60.1732   -7.8889   -4.1162 C   0  0  0  0  0  0  0  0  0  0  0  0
   58.8780   -7.5255   -4.3941 O   0  0  0  0  0  0  0  0  0  0  0  0
   61.0507   -7.0163   -4.0198 O   0  0  0  0  0  0  0  0  0  0  0  0
   58.5405   -6.5845   -4.3825 H   0  0  0  0  0  0  0  0  0  0  0  0
   61.0882   -9.4592   -2.5121 C   0  0  0  0  0  0  0  0  0  0  0  0
   60.3389   -8.6218   -1.6533 O   0  0  0  0  0  0  0  0  0  0  0  0
   60.6647   -7.7076   -1.6855 H   0  0  0  0  0  0  0  0  0  0  0  0
   63.7776  -11.5020   -5.7648 C   0  0  0  0  0  0  0  0  0  0  0  0
   64.3595  -10.2378   -5.7222 O   0  0  0  0  0  0  0  0  0  0  0  0
   65.2970  -10.3512   -6.0447 H   0  0  0  0  0  0  0  0  0  0  0  0
   63.9954  -10.2029  -10.6321 C   0  0  0  0  0  0  0  0  0  0  0  0
   64.7885   -9.0937   -9.9402 C   0  0  0  0  0  0  0  0  0  0  0  0
   64.2001  -10.2500  -12.0857 C   0  0  0  0  0  0  0  0  0  0  0  0
   61.5340   -6.7507   -7.7839 C   0  0  0  0  0  0  0  0  0  0  0  0
   61.1543   -7.9402   -7.1635 O   0  0  0  0  0  0  0  0  0  0  0  0
   60.1992   -7.8917   -6.9213 H   0  0  0  0  0  0  0  0  0  0  0  0
 16 17  1  0  0  0
 17 18  2  0  0  0
 17 19  1  0  0  0
 19 15  1  0  0  0
 15 21  1  0  0  0
 21 22  1  0  0  0
 15 11  1  0  0  0
 11 12  2  0  0  0
 11 13  1  0  0  0
 13 10  1  0  0  0
 10 24  1  0  0  0
 24 25  1  0  0  0
 24 26  1  0  0  0
 10  6  1  0  0  0
  6  7  2  0  0  0
  6  8  1  0  0  0
  8  5  1  0  0  0
  5 27  1  0  0  0
 27 28  1  0  0  0
 28 29  1  0  0  0
 29 30  1  0  0  0
 30 31  2  0  0  0
 31 32  1  0  0  0
 31 33  1  0  0  0
  5  1  1  0  0  0
  1  2  2  0  0  0
  1  3  1  0  0  0
  3 38  1  0  0  0
 38 67  1  0  0  0
 67 68  1  0  0  0
 38 39  1  0  0  0
 39 40  2  0  0  0
 39 41  1  0  0  0
 41 43  1  0  0  0
 43 64  1  0  0  0
 64 65  1  0  0  0
 64 66  1  0  0  0
 43 44  1  0  0  0
 44 45  2  0  0  0
 44 46  1  0  0  0
 46 48  1  0  0  0
 48 61  1  0  0  0
 61 62  1  0  0  0
 48 49  1  0  0  0
 49 50  2  0  0  0
 49 51  1  0  0  0
 51 53  1  0  0  0
 53 58  1  0  0  0
 58 59  1  0  0  0
 53 54  1  0  0  0
 54 55  1  0  0  0
 54 56  2  0  0  0
 19 20  1  0  0  0
 22 23  1  0  0  0
 13 14  1  0  0  0
  8  9  1  0  0  0
 32 34  1  0  0  0
 32 35  1  0  0  0
 33 36  1  0  0  0
 33 37  1  0  0  0
  3  4  1  0  0  0
 68 69  1  0  0  0
 41 42  1  0  0  0
 46 47  1  0  0  0
 62 63  1  0  0  0
 51 52  1  0  0  0
 59 60  1  0  0  0
 55 57  1  0  0  0
M  END
> <minimizedAffinity>
-6.84855

> <CNNscore>
0.2731002271

> <CNNaffinity>
6.3911676407

> <CNN_VS>
1.7454292774

> <CNNaffinity_variance>
0.4142674506

$$$$
[H]OC(=O)[C@@]([H])(N([H])C(=O)[C@@]([H])(N([H])C(=O)[C@@]([H])(N([H])C(=O)[C@@]([H])(N([H])C(=O)[C@@]([H])(N([H])C(=O)[C@@]([H])(N([H])C(=O)[C@@]([H])(N([H])C(=O)C([H])([H])[H])C([H])([H])O[H])C([H])(C([H])([H])[H])C([H])([H])[H])C([H])([H])C([H])([H])C([H])([H])N=C(N([H])[H])N([H])[H])C([H])([H])O[H])C([H])(C([H])([H])[H])C([H])([H])[H])C([H])([H])O[H])C([H])([H])O[H]


 69 68  0  0  0  0  0  0  0  0999 V2000
   55.7988   -4.5328   -9.6143 C   0  0  0  0  0  0  0  0  0  0  0  0
   55.6869   -4.5585  -10.8879 O   0  0  0  0  0  0  0  0  0  0  0  0
   57.0176   -4.9732   -9.0308 N   0  0  0  0  0  0  0  0  0  0  0  0
   57.2474   -5.0072   -8.0294 H   0  0  0  0  0  0  0  0  0  0  0  0
   54.6569   -4.0434   -8.8292 C   0  0  0  0  0  0  0  0  0  0  0  0
   54.0259   -5.4954   -6.8346 C   0  0  0  0  0  0  0  0  0  0  0  0
   53.0790   -6.0624   -7.5076 O   0  0  0  0  0  0  0  0  0  0  0  0
   54.8210   -4.5159   -7.4529 N   0  0  0  0  0  0  0  0  0  0  0  0
   55.5942   -4.0667   -6.9416 H   0  0  0  0  0  0  0  0  0  0  0  0
   54.2598   -5.8830   -5.4374 C   0  0  0  0  0  0  0  0  0  0  0  0
   52.1006   -5.9902   -3.7681 C   0  0  0  0  0  0  0  0  0  0  0  0
   50.8807   -5.9178   -4.2256 O   0  0  0  0  0  0  0  0  0  0  0  0
   53.1774   -5.9389   -4.5793 N   0  0  0  0  0  0  0  0  0  0  0  0
   52.3693   -5.8072   -5.6667 H   0  0  0  0  0  0  0  0  0  0  0  0
   52.0798   -6.1276   -2.2697 C   0  0  0  0  0  0  0  0  0  0  0  0
   51.2140   -9.6489   -0.8719 C   0  0  0  0  0  0  0  0  0  0  0  0
   51.1330   -8.2095   -1.2208 C   0  0  0  0  0  0  0  0  0  0  0  0
   50.1089   -7.5678   -0.8825 O   0  0  0  0  0  0  0  0  0  0  0  0
   52.1544   -7.5261   -1.9198 N   0  0  0  0  0  0  0  0  0  0  0  0
   53.0204   -8.0890   -2.1945 H   0  0  0  0  0  0  0  0  0  0  0  0
   53.1664   -5.3449   -1.6405 C   0  0  0  0  0  0  0  0  0  0  0  0
   52.8400   -4.9501   -0.3239 O   0  0  0  0  0  0  0  0  0  0  0  0
   51.9892   -4.4334   -0.3548 H   0  0  0  0  0  0  0  0  0  0  0  0
   55.2029   -7.0628   -5.3844 C   0  0  0  0  0  0  0  0  0  0  0  0
   56.6061   -6.4117   -5.2207 C   0  0  0  0  0  0  0  0  0  0  0  0
   55.0441   -7.9385   -4.1903 C   0  0  0  0  0  0  0  0  0  0  0  0
   54.4459   -2.5884   -8.9218 C   0  0  0  0  0  0  0  0  0  0  0  0
   53.1034   -2.0429   -8.6187 C   0  0  0  0  0  0  0  0  0  0  0  0
   51.9331   -2.9437   -8.6316 C   0  0  0  0  0  0  0  0  0  0  0  0
   50.9885   -2.5471   -7.5747 N   0  0  0  0  0  0  0  0  0  0  0  0
   50.3411   -3.3349   -6.8431 C   0  0  0  0  0  0  0  0  0  0  0  0
   50.3957   -4.7555   -6.8982 N   0  0  0  0  0  0  0  0  0  0  0  0
   49.4695   -2.7610   -5.8491 N   0  0  0  0  0  0  0  0  0  0  0  0
   51.0437   -5.2831   -6.2578 H   0  0  0  0  0  0  0  0  0  0  0  0
   49.7985   -5.2729   -7.5669 H   0  0  0  0  0  0  0  0  0  0  0  0
   48.5701   -3.1959   -5.6111 H   0  0  0  0  0  0  0  0  0  0  0  0
   49.7441   -1.8843   -5.3629 H   0  0  0  0  0  0  0  0  0  0  0  0
   58.0315   -5.4145   -9.9935 C   0  0  0  0  0  0  0  0  0  0  0  0
   59.2797   -5.7031   -9.2954 C   0  0  0  0  0  0  0  0  0  0  0  0
   59.4602   -5.4130   -8.1003 O   0  0  0  0  0  0  0  0  0  0  0  0
   60.3016   -6.3410  -10.0252 N   0  0  0  0  0  0  0  0  0  0  0  0
   60.2335   -6.6200  -11.0241 H   0  0  0  0  0  0  0  0  0  0  0  0
   61.5859   -6.6629   -9.3429 C   0  0  0  0  0  0  0  0  0  0  0  0
   62.6904   -6.4354  -10.3384 C   0  0  0  0  0  0  0  0  0  0  0  0
   63.7795   -6.0327   -9.8248 O   0  0  0  0  0  0  0  0  0  0  0  0
   62.5186   -6.6562  -11.6820 N   0  0  0  0  0  0  0  0  0  0  0  0
   61.4981   -7.0465  -11.9197 H   0  0  0  0  0  0  0  0  0  0  0  0
   63.3709   -6.5314  -12.7923 C   0  0  0  0  0  0  0  0  0  0  0  0
   62.9092   -5.8318  -13.9807 C   0  0  0  0  0  0  0  0  0  0  0  0
   62.9258   -6.2321  -15.1356 O   0  0  0  0  0  0  0  0  0  0  0  0
   62.3522   -4.4942  -13.8017 N   0  0  0  0  0  0  0  0  0  0  0  0
   62.3232   -4.1232  -12.8307 H   0  0  0  0  0  0  0  0  0  0  0  0
   61.8712   -3.7571  -14.9380 C   0  0  0  0  0  0  0  0  0  0  0  0
   62.6356   -2.5451  -15.1603 C   0  0  0  0  0  0  0  0  0  0  0  0
   62.9170   -1.7094  -14.1070 O   0  0  0  0  0  0  0  0  0  0  0  0
   63.0391   -2.2588  -16.2987 O   0  0  0  0  0  0  0  0  0  0  0  0
   63.5587   -0.9440  -14.1491 H   0  0  0  0  0  0  0  0  0  0  0  0
   60.3985   -3.3552  -14.6959 C   0  0  0  0  0  0  0  0  0  0  0  0
   60.2271   -2.0574  -15.2314 O   0  0  0  0  0  0  0  0  0  0  0  0
   60.5249   -1.3787  -14.6039 H   0  0  0  0  0  0  0  0  0  0  0  0
   63.8730   -7.9284  -13.1536 C   0  0  0  0  0  0  0  0  0  0  0  0
   64.6987   -8.4601  -12.1666 O   0  0  0  0  0  0  0  0  0  0  0  0
   65.4975   -8.8268  -12.6389 H   0  0  0  0  0  0  0  0  0  0  0  0
   61.4540   -8.1014   -8.9330 C   0  0  0  0  0  0  0  0  0  0  0  0
   62.6931   -8.5004   -8.1308 C   0  0  0  0  0  0  0  0  0  0  0  0
   61.0589   -9.0993   -9.9356 C   0  0  0  0  0  0  0  0  0  0  0  0
   58.2126   -4.2671  -11.0112 C   0  0  0  0  0  0  0  0  0  0  0  0
   58.3422   -4.8701  -12.2617 O   0  0  0  0  0  0  0  0  0  0  0  0
   59.2576   -5.2247  -12.3597 H   0  0  0  0  0  0  0  0  0  0  0  0
 16 17  1  0  0  0
 17 18  2  0  0  0
 17 19  1  0  0  0
 19 15  1  0  0  0
 15 21  1  0  0  0
 21 22  1  0  0  0
 15 11  1  0  0  0
 11 12  2  0  0  0
 11 13  1  0  0  0
 13 10  1  0  0  0
 10 24  1  0  0  0
 24 25  1  0  0  0
 24 26  1  0  0  0
 10  6  1  0  0  0
  6  7  2  0  0  0
  6  8  1  0  0  0
  8  5  1  0  0  0
  5 27  1  0  0  0
 27 28  1  0  0  0
 28 29  1  0  0  0
 29 30  1  0  0  0
 30 31  2  0  0  0
 31 32  1  0  0  0
 31 33  1  0  0  0
  5  1  1  0  0  0
  1  2  2  0  0  0
  1  3  1  0  0  0
  3 38  1  0  0  0
 38 67  1  0  0  0
 67 68  1  0  0  0
 38 39  1  0  0  0
 39 40  2  0  0  0
 39 41  1  0  0  0
 41 43  1  0  0  0
 43 64  1  0  0  0
 64 65  1  0  0  0
 64 66  1  0  0  0
 43 44  1  0  0  0
 44 45  2  0  0  0
 44 46  1  0  0  0
 46 48  1  0  0  0
 48 61  1  0  0  0
 61 62  1  0  0  0
 48 49  1  0  0  0
 49 50  2  0  0  0
 49 51  1  0  0  0
 51 53  1  0  0  0
 53 58  1  0  0  0
 58 59  1  0  0  0
 53 54  1  0  0  0
 54 55  1  0  0  0
 54 56  2  0  0  0
 19 20  1  0  0  0
 22 23  1  0  0  0
 13 14  1  0  0  0
  8  9  1  0  0  0
 32 34  1  0  0  0
 32 35  1  0  0  0
 33 36  1  0  0  0
 33 37  1  0  0  0
  3  4  1  0  0  0
 68 69  1  0  0  0
 41 42  1  0  0  0
 46 47  1  0  0  0
 62 63  1  0  0  0
 51 52  1  0  0  0
 59 60  1  0  0  0
 55 57  1  0  0  0
M  END
> <minimizedAffinity>
-7.40157

> <CNNscore>
0.2478846163

> <CNNaffinity>
6.6956148148

> <CNN_VS>
1.6597398520

> <CNNaffinity_variance>
0.2143241912

$$$$
[H]OC(=O)[C@@]([H])(N([H])C(=O)[C@@]([H])(N([H])C(=O)[C@@]([H])(N([H])C(=O)[C@@]([H])(N([H])C(=O)[C@@]([H])(N([H])C(=O)[C@@]([H])(N([H])C(=O)[C@@]([H])(N([H])C(=O)C([H])([H])[H])C([H])([H])O[H])C([H])(C([H])([H])[H])C([H])([H])[H])C([H])([H])C([H])([H])C([H])([H])N=C(N([H])[H])N([H])[H])C([H])([H])O[H])C([H])(C([H])([H])[H])C([H])([H])[H])C([H])([H])O[H])C([H])([H])O[H]


 69 68  0  0  0  0  0  0  0  0999 V2000
   58.4126   -5.7302   -9.0904 C   0  0  0  0  0  0  0  0  0  0  0  0
   58.5600   -5.6309  -10.3567 O   0  0  0  0  0  0  0  0  0  0  0  0
   59.5136   -6.1796   -8.3119 N   0  0  0  0  0  0  0  0  0  0  0  0
   59.5397   -6.3060   -7.2921 H   0  0  0  0  0  0  0  0  0  0  0  0
   57.1098   -5.3681   -8.5149 C   0  0  0  0  0  0  0  0  0  0  0  0
   55.9657   -6.1296   -6.3710 C   0  0  0  0  0  0  0  0  0  0  0  0
   54.8093   -6.1216   -6.9487 O   0  0  0  0  0  0  0  0  0  0  0  0
   57.1084   -5.7789   -7.1093 N   0  0  0  0  0  0  0  0  0  0  0  0
   58.0419   -5.7989   -6.6743 H   0  0  0  0  0  0  0  0  0  0  0  0
   56.0705   -6.5065   -4.9553 C   0  0  0  0  0  0  0  0  0  0  0  0
   58.5109   -7.3133   -4.0311 C   0  0  0  0  0  0  0  0  0  0  0  0
   59.5364   -7.4338   -4.8289 O   0  0  0  0  0  0  0  0  0  0  0  0
   57.2993   -6.9159   -4.4720 N   0  0  0  0  0  0  0  0  0  0  0  0
   57.7785   -6.8165   -5.7421 H   0  0  0  0  0  0  0  0  0  0  0  0
   58.9071   -7.6800   -2.6265 C   0  0  0  0  0  0  0  0  0  0  0  0
   58.3816   -4.9895    0.1281 C   0  0  0  0  0  0  0  0  0  0  0  0
   59.0230   -5.9401   -0.8126 C   0  0  0  0  0  0  0  0  0  0  0  0
   60.2754   -6.0209   -0.8216 O   0  0  0  0  0  0  0  0  0  0  0  0
   58.2900   -6.7581   -1.7028 N   0  0  0  0  0  0  0  0  0  0  0  0
   57.2246   -6.6781   -1.6763 H   0  0  0  0  0  0  0  0  0  0  0  0
   58.5591   -9.0843   -2.3164 C   0  0  0  0  0  0  0  0  0  0  0  0
   59.2577   -9.9964   -3.1386 O   0  0  0  0  0  0  0  0  0  0  0  0
   59.0613   -9.7733   -4.0891 H   0  0  0  0  0  0  0  0  0  0  0  0
   55.3291   -5.5032   -4.1022 C   0  0  0  0  0  0  0  0  0  0  0  0
   54.7700   -6.3543   -2.9263 C   0  0  0  0  0  0  0  0  0  0  0  0
   56.1894   -4.4735   -3.4560 C   0  0  0  0  0  0  0  0  0  0  0  0
   56.7423   -3.9545   -8.7065 C   0  0  0  0  0  0  0  0  0  0  0  0
   55.7961   -3.6053   -9.7903 C   0  0  0  0  0  0  0  0  0  0  0  0
   54.4463   -4.2046   -9.7974 C   0  0  0  0  0  0  0  0  0  0  0  0
   53.4353   -3.1555   -9.5884 N   0  0  0  0  0  0  0  0  0  0  0  0
   52.6200   -3.1088   -8.6355 C   0  0  0  0  0  0  0  0  0  0  0  0
   52.5174   -4.0591   -7.5817 N   0  0  0  0  0  0  0  0  0  0  0  0
   51.7087   -1.9933   -8.5889 N   0  0  0  0  0  0  0  0  0  0  0  0
   53.0204   -3.8934   -6.6719 H   0  0  0  0  0  0  0  0  0  0  0  0
   51.9480   -4.9145   -7.7070 H   0  0  0  0  0  0  0  0  0  0  0  0
   50.7436   -2.1045   -8.2559 H   0  0  0  0  0  0  0  0  0  0  0  0
   52.0227   -1.0539   -8.9042 H   0  0  0  0  0  0  0  0  0  0  0  0
   60.7241   -6.4809   -9.0824 C   0  0  0  0  0  0  0  0  0  0  0  0
   60.8292   -7.9212   -9.2895 C   0  0  0  0  0  0  0  0  0  0  0  0
   60.3720   -8.4872  -10.2973 O   0  0  0  0  0  0  0  0  0  0  0  0
   61.4841   -8.6759   -8.2968 N   0  0  0  0  0  0  0  0  0  0  0  0
   61.8965   -8.2836   -7.4271 H   0  0  0  0  0  0  0  0  0  0  0  0
   61.6217  -10.1477   -8.4791 C   0  0  0  0  0  0  0  0  0  0  0  0
   61.2789  -10.7950   -7.1652 C   0  0  0  0  0  0  0  0  0  0  0  0
   60.8437   -9.9893   -6.2857 O   0  0  0  0  0  0  0  0  0  0  0  0
   61.4245  -12.1436   -6.9563 N   0  0  0  0  0  0  0  0  0  0  0  0
   61.7838  -12.6772   -7.8708 H   0  0  0  0  0  0  0  0  0  0  0  0
   61.1744  -12.9767   -5.8526 C   0  0  0  0  0  0  0  0  0  0  0  0
   61.4121  -12.4807   -4.5063 C   0  0  0  0  0  0  0  0  0  0  0  0
   60.7544  -12.7071   -3.5011 O   0  0  0  0  0  0  0  0  0  0  0  0
   62.5672  -11.6116   -4.3024 N   0  0  0  0  0  0  0  0  0  0  0  0
   63.1487  -11.3988   -5.1379 H   0  0  0  0  0  0  0  0  0  0  0  0
   62.8585  -11.0975   -2.9921 C   0  0  0  0  0  0  0  0  0  0  0  0
   62.2851   -9.7815   -2.7870 C   0  0  0  0  0  0  0  0  0  0  0  0
   62.0585   -8.9574   -3.8623 O   0  0  0  0  0  0  0  0  0  0  0  0
   61.9960   -9.3955   -1.6433 O   0  0  0  0  0  0  0  0  0  0  0  0
   61.5332   -8.1078   -3.8220 H   0  0  0  0  0  0  0  0  0  0  0  0
   64.3903  -10.9829   -2.8208 C   0  0  0  0  0  0  0  0  0  0  0  0
   64.8550  -10.0884   -3.8129 O   0  0  0  0  0  0  0  0  0  0  0  0
   64.9750  -10.5418   -4.6632 H   0  0  0  0  0  0  0  0  0  0  0  0
   61.9230  -14.2890   -6.0804 C   0  0  0  0  0  0  0  0  0  0  0  0
   61.8211  -15.1467   -4.9883 O   0  0  0  0  0  0  0  0  0  0  0  0
   62.7447  -15.4776   -4.8064 H   0  0  0  0  0  0  0  0  0  0  0  0
   63.0546  -10.3540   -8.8774 C   0  0  0  0  0  0  0  0  0  0  0  0
   63.9379   -9.4357   -8.0322 C   0  0  0  0  0  0  0  0  0  0  0  0
   63.4090  -10.3582  -10.3028 C   0  0  0  0  0  0  0  0  0  0  0  0
   61.9202   -5.9449   -8.2656 C   0  0  0  0  0  0  0  0  0  0  0  0
   63.0338   -6.0309   -9.1003 O   0  0  0  0  0  0  0  0  0  0  0  0
   63.3513   -6.9645   -9.1255 H   0  0  0  0  0  0  0  0  0  0  0  0
 16 17  1  0  0  0
 17 18  2  0  0  0
 17 19  1  0  0  0
 19 15  1  0  0  0
 15 21  1  0  0  0
 21 22  1  0  0  0
 15 11  1  0  0  0
 11 12  2  0  0  0
 11 13  1  0  0  0
 13 10  1  0  0  0
 10 24  1  0  0  0
 24 25  1  0  0  0
 24 26  1  0  0  0
 10  6  1  0  0  0
  6  7  2  0  0  0
  6  8  1  0  0  0
  8  5  1  0  0  0
  5 27  1  0  0  0
 27 28  1  0  0  0
 28 29  1  0  0  0
 29 30  1  0  0  0
 30 31  2  0  0  0
 31 32  1  0  0  0
 31 33  1  0  0  0
  5  1  1  0  0  0
  1  2  2  0  0  0
  1  3  1  0  0  0
  3 38  1  0  0  0
 38 67  1  0  0  0
 67 68  1  0  0  0
 38 39  1  0  0  0
 39 40  2  0  0  0
 39 41  1  0  0  0
 41 43  1  0  0  0
 43 64  1  0  0  0
 64 65  1  0  0  0
 64 66  1  0  0  0
 43 44  1  0  0  0
 44 45  2  0  0  0
 44 46  1  0  0  0
 46 48  1  0  0  0
 48 61  1  0  0  0
 61 62  1  0  0  0
 48 49  1  0  0  0
 49 50  2  0  0  0
 49 51  1  0  0  0
 51 53  1  0  0  0
 53 58  1  0  0  0
 58 59  1  0  0  0
 53 54  1  0  0  0
 54 55  1  0  0  0
 54 56  2  0  0  0
 19 20  1  0  0  0
 22 23  1  0  0  0
 13 14  1  0  0  0
  8  9  1  0  0  0
 32 34  1  0  0  0
 32 35  1  0  0  0
 33 36  1  0  0  0
 33 37  1  0  0  0
  3  4  1  0  0  0
 68 69  1  0  0  0
 41 42  1  0  0  0
 46 47  1  0  0  0
 62 63  1  0  0  0
 51 52  1  0  0  0
 59 60  1  0  0  0
 55 57  1  0  0  0
M  END
> <minimizedAffinity>
-5.80024

> <CNNscore>
0.2345816642

> <CNNaffinity>
6.1504082680

> <CNN_VS>
1.4427729845

> <CNNaffinity_variance>
0.2271537781

$$$$
[H]OC(=O)[C@@]([H])(N([H])C(=O)[C@@]([H])(N([H])C(=O)[C@@]([H])(N([H])C(=O)[C@@]([H])(N([H])C(=O)[C@@]([H])(N([H])C(=O)[C@@]([H])(N([H])C(=O)[C@@]([H])(N([H])C(=O)C([H])([H])[H])C([H])([H])O[H])C([H])(C([H])([H])[H])C([H])([H])[H])C([H])([H])C([H])([H])C([H])([H])N=C(N([H])[H])N([H])[H])C([H])([H])O[H])C([H])(C([H])([H])[H])C([H])([H])[H])C([H])([H])O[H])C([H])([H])O[H]


 69 68  0  0  0  0  0  0  0  0999 V2000
   56.1163   -5.9711   -5.4408 C   0  0  0  0  0  0  0  0  0  0  0  0
   55.5737   -5.1154   -4.6606 O   0  0  0  0  0  0  0  0  0  0  0  0
   56.8558   -7.0403   -4.8665 N   0  0  0  0  0  0  0  0  0  0  0  0
   57.3414   -7.7956   -5.3668 H   0  0  0  0  0  0  0  0  0  0  0  0
   55.9376   -5.7979   -6.8892 C   0  0  0  0  0  0  0  0  0  0  0  0
   53.4729   -5.4309   -7.4140 C   0  0  0  0  0  0  0  0  0  0  0  0
   53.2723   -6.7042   -7.5119 O   0  0  0  0  0  0  0  0  0  0  0  0
   54.7576   -4.9567   -7.1001 N   0  0  0  0  0  0  0  0  0  0  0  0
   54.9346   -3.9473   -6.9965 H   0  0  0  0  0  0  0  0  0  0  0  0
   52.3581   -4.4989   -7.6286 C   0  0  0  0  0  0  0  0  0  0  0  0
   50.4722   -4.2084   -5.6742 C   0  0  0  0  0  0  0  0  0  0  0  0
   49.5951   -3.2431   -5.7111 O   0  0  0  0  0  0  0  0  0  0  0  0
   51.4098   -4.3656   -6.6317 N   0  0  0  0  0  0  0  0  0  0  0  0
   50.9399   -3.2713   -7.2909 H   0  0  0  0  0  0  0  0  0  0  0  0
   50.2575   -5.0509   -4.4459 C   0  0  0  0  0  0  0  0  0  0  0  0
   52.9632   -7.0497   -2.5001 C   0  0  0  0  0  0  0  0  0  0  0  0
   51.6574   -6.4994   -2.9384 C   0  0  0  0  0  0  0  0  0  0  0  0
   50.6201   -6.8640   -2.3333 O   0  0  0  0  0  0  0  0  0  0  0  0
   51.5252   -5.5850   -4.0086 N   0  0  0  0  0  0  0  0  0  0  0  0
   52.4208   -5.2831   -4.5078 H   0  0  0  0  0  0  0  0  0  0  0  0
   49.5859   -4.2824   -3.3747 C   0  0  0  0  0  0  0  0  0  0  0  0
   48.1923   -4.5133   -3.3520 O   0  0  0  0  0  0  0  0  0  0  0  0
   47.8238   -4.2870   -4.2491 H   0  0  0  0  0  0  0  0  0  0  0  0
   52.8764   -3.2085   -8.2204 C   0  0  0  0  0  0  0  0  0  0  0  0
   53.3663   -3.6187   -9.6386 C   0  0  0  0  0  0  0  0  0  0  0  0
   51.8385   -2.1674   -8.4587 C   0  0  0  0  0  0  0  0  0  0  0  0
   57.1367   -5.3003   -7.5854 C   0  0  0  0  0  0  0  0  0  0  0  0
   56.9623   -4.4544   -8.7878 C   0  0  0  0  0  0  0  0  0  0  0  0
   57.5085   -4.9099  -10.0821 C   0  0  0  0  0  0  0  0  0  0  0  0
   56.6834   -4.3855  -11.1824 N   0  0  0  0  0  0  0  0  0  0  0  0
   57.1156   -3.7747  -12.1900 C   0  0  0  0  0  0  0  0  0  0  0  0
   58.4799   -3.4726  -12.4573 N   0  0  0  0  0  0  0  0  0  0  0  0
   56.1549   -3.3452  -13.1748 N   0  0  0  0  0  0  0  0  0  0  0  0
   59.0532   -4.1157  -13.0624 H   0  0  0  0  0  0  0  0  0  0  0  0
   58.9112   -2.6204  -12.0584 H   0  0  0  0  0  0  0  0  0  0  0  0
   56.2668   -2.4580  -13.6797 H   0  0  0  0  0  0  0  0  0  0  0  0
   55.3238   -3.9348  -13.3798 H   0  0  0  0  0  0  0  0  0  0  0  0
   56.9042   -7.0319   -3.4012 C   0  0  0  0  0  0  0  0  0  0  0  0
   58.2906   -6.9421   -2.9556 C   0  0  0  0  0  0  0  0  0  0  0  0
   58.6985   -6.0280   -2.2187 O   0  0  0  0  0  0  0  0  0  0  0  0
   59.1795   -7.9461   -3.3866 N   0  0  0  0  0  0  0  0  0  0  0  0
   58.9219   -8.7450   -3.9996 H   0  0  0  0  0  0  0  0  0  0  0  0
   60.6002   -7.8948   -2.9423 C   0  0  0  0  0  0  0  0  0  0  0  0
   61.4531   -7.8183   -4.1790 C   0  0  0  0  0  0  0  0  0  0  0  0
   62.2910   -6.8644   -4.1754 O   0  0  0  0  0  0  0  0  0  0  0  0
   61.3263   -8.7158   -5.2095 N   0  0  0  0  0  0  0  0  0  0  0  0
   60.5585   -9.5000   -4.9956 H   0  0  0  0  0  0  0  0  0  0  0  0
   61.9894   -8.8657   -6.4393 C   0  0  0  0  0  0  0  0  0  0  0  0
   61.9267   -7.7999   -7.4268 C   0  0  0  0  0  0  0  0  0  0  0  0
   61.1115   -6.8914   -7.4931 O   0  0  0  0  0  0  0  0  0  0  0  0
   62.9473   -7.7873   -8.4706 N   0  0  0  0  0  0  0  0  0  0  0  0
   63.6570   -8.5469   -8.4433 H   0  0  0  0  0  0  0  0  0  0  0  0
   62.9425   -6.7537   -9.4693 C   0  0  0  0  0  0  0  0  0  0  0  0
   62.1521   -7.1234  -10.6275 C   0  0  0  0  0  0  0  0  0  0  0  0
   61.1995   -8.1074  -10.5214 O   0  0  0  0  0  0  0  0  0  0  0  0
   62.3308   -6.5537  -11.7157 O   0  0  0  0  0  0  0  0  0  0  0  0
   60.5181   -8.3119  -11.2237 H   0  0  0  0  0  0  0  0  0  0  0  0
   64.3916   -6.4979   -9.9421 C   0  0  0  0  0  0  0  0  0  0  0  0
   64.8573   -7.6982  -10.5273 O   0  0  0  0  0  0  0  0  0  0  0  0
   65.1778   -8.3156   -9.8496 H   0  0  0  0  0  0  0  0  0  0  0  0
   61.5407  -10.1914   -7.0521 C   0  0  0  0  0  0  0  0  0  0  0  0
   60.8367  -10.0083   -8.2393 O   0  0  0  0  0  0  0  0  0  0  0  0
   60.0228  -10.5816   -8.1722 H   0  0  0  0  0  0  0  0  0  0  0  0
   60.8068   -9.1633   -2.1659 C   0  0  0  0  0  0  0  0  0  0  0  0
   60.0113   -9.0783   -0.8628 C   0  0  0  0  0  0  0  0  0  0  0  0
   62.1697   -9.6807   -1.9874 C   0  0  0  0  0  0  0  0  0  0  0  0
   56.2475   -8.3455   -2.9235 C   0  0  0  0  0  0  0  0  0  0  0  0
   56.7022   -8.5598   -1.6229 O   0  0  0  0  0  0  0  0  0  0  0  0
   57.6194   -8.9218   -1.6533 H   0  0  0  0  0  0  0  0  0  0  0  0
 16 17  1  0  0  0
 17 18  2  0  0  0
 17 19  1  0  0  0
 19 15  1  0  0  0
 15 21  1  0  0  0
 21 22  1  0  0  0
 15 11  1  0  0  0
 11 12  2  0  0  0
 11 13  1  0  0  0
 13 10  1  0  0  0
 10 24  1  0  0  0
 24 25  1  0  0  0
 24 26  1  0  0  0
 10  6  1  0  0  0
  6  7  2  0  0  0
  6  8  1  0  0  0
  8  5  1  0  0  0
  5 27  1  0  0  0
 27 28  1  0  0  0
 28 29  1  0  0  0
 29 30  1  0  0  0
 30 31  2  0  0  0
 31 32  1  0  0  0
 31 33  1  0  0  0
  5  1  1  0  0  0
  1  2  2  0  0  0
  1  3  1  0  0  0
  3 38  1  0  0  0
 38 67  1  0  0  0
 67 68  1  0  0  0
 38 39  1  0  0  0
 39 40  2  0  0  0
 39 41  1  0  0  0
 41 43  1  0  0  0
 43 64  1  0  0  0
 64 65  1  0  0  0
 64 66  1  0  0  0
 43 44  1  0  0  0
 44 45  2  0  0  0
 44 46  1  0  0  0
 46 48  1  0  0  0
 48 61  1  0  0  0
 61 62  1  0  0  0
 48 49  1  0  0  0
 49 50  2  0  0  0
 49 51  1  0  0  0
 51 53  1  0  0  0
 53 58  1  0  0  0
 58 59  1  0  0  0
 53 54  1  0  0  0
 54 55  1  0  0  0
 54 56  2  0  0  0
 19 20  1  0  0  0
 22 23  1  0  0  0
 13 14  1  0  0  0
  8  9  1  0  0  0
 32 34  1  0  0  0
 32 35  1  0  0  0
 33 36  1  0  0  0
 33 37  1  0  0  0
  3  4  1  0  0  0
 68 69  1  0  0  0
 41 42  1  0  0  0
 46 47  1  0  0  0
 62 63  1  0  0  0
 51 52  1  0  0  0
 59 60  1  0  0  0
 55 57  1  0  0  0
M  END
> <minimizedAffinity>
-7.74009

> <CNNscore>
0.2142093182

> <CNNaffinity>
6.5015783310

> <CNN_VS>
1.3926986456

> <CNNaffinity_variance>
0.8264686465

$$$$
[H]OC(=O)[C@@]([H])(N([H])C(=O)[C@@]([H])(N([H])C(=O)[C@@]([H])(N([H])C(=O)[C@@]([H])(N([H])C(=O)[C@@]([H])(N([H])C(=O)[C@@]([H])(N([H])C(=O)[C@@]([H])(N([H])C(=O)C([H])([H])[H])C([H])([H])O[H])C([H])(C([H])([H])[H])C([H])([H])[H])C([H])([H])C([H])([H])C([H])([H])N=C(N([H])[H])N([H])[H])C([H])([H])O[H])C([H])(C([H])([H])[H])C([H])([H])[H])C([H])([H])O[H])C([H])([H])O[H]


 69 68  0  0  0  0  0  0  0  0999 V2000
   56.2201   -5.6916   -4.3521 C   0  0  0  0  0  0  0  0  0  0  0  0
   56.2540   -4.7832   -3.4528 O   0  0  0  0  0  0  0  0  0  0  0  0
   56.7902   -6.9599   -4.0578 N   0  0  0  0  0  0  0  0  0  0  0  0
   56.8340   -7.7777   -4.6790 H   0  0  0  0  0  0  0  0  0  0  0  0
   55.5875   -5.3685   -5.6387 C   0  0  0  0  0  0  0  0  0  0  0  0
   53.1978   -6.0854   -6.1488 C   0  0  0  0  0  0  0  0  0  0  0  0
   53.6060   -6.9087   -7.0579 O   0  0  0  0  0  0  0  0  0  0  0  0
   54.1385   -5.3284   -5.4306 N   0  0  0  0  0  0  0  0  0  0  0  0
   53.8363   -4.6821   -4.6875 H   0  0  0  0  0  0  0  0  0  0  0  0
   51.7603   -5.9540   -5.8770 C   0  0  0  0  0  0  0  0  0  0  0  0
   50.9453   -5.2997   -3.3535 C   0  0  0  0  0  0  0  0  0  0  0  0
   49.9773   -4.4490   -3.1486 O   0  0  0  0  0  0  0  0  0  0  0  0
   51.3594   -5.6334   -4.5934 N   0  0  0  0  0  0  0  0  0  0  0  0
   50.4396   -4.7932   -5.1418 H   0  0  0  0  0  0  0  0  0  0  0  0
   51.4772   -5.7991   -2.0373 C   0  0  0  0  0  0  0  0  0  0  0  0
   51.2468   -9.6416   -1.5043 C   0  0  0  0  0  0  0  0  0  0  0  0
   50.9954   -8.1838   -1.3961 C   0  0  0  0  0  0  0  0  0  0  0  0
   50.0943   -7.7876   -0.6176 O   0  0  0  0  0  0  0  0  0  0  0  0
   51.7211   -7.2187   -2.1314 N   0  0  0  0  0  0  0  0  0  0  0  0
   52.4874   -7.5761   -2.7851 H   0  0  0  0  0  0  0  0  0  0  0  0
   52.6917   -5.0586   -1.6298 C   0  0  0  0  0  0  0  0  0  0  0  0
   53.8608   -5.5998   -2.2098 O   0  0  0  0  0  0  0  0  0  0  0  0
   53.9180   -6.5614   -1.9572 H   0  0  0  0  0  0  0  0  0  0  0  0
   51.0987   -5.1713   -6.9877 C   0  0  0  0  0  0  0  0  0  0  0  0
   49.7528   -5.9163   -7.2185 C   0  0  0  0  0  0  0  0  0  0  0  0
   50.7105   -3.7793   -6.6277 C   0  0  0  0  0  0  0  0  0  0  0  0
   56.1159   -4.1504   -6.2768 C   0  0  0  0  0  0  0  0  0  0  0  0
   55.5106   -3.6927   -7.5480 C   0  0  0  0  0  0  0  0  0  0  0  0
   55.5723   -4.5654   -8.7378 C   0  0  0  0  0  0  0  0  0  0  0  0
   55.9521   -3.7715   -9.9177 N   0  0  0  0  0  0  0  0  0  0  0  0
   56.9624   -3.9704  -10.6352 C   0  0  0  0  0  0  0  0  0  0  0  0
   57.9297   -4.9958  -10.4432 N   0  0  0  0  0  0  0  0  0  0  0  0
   57.1655   -3.0948  -11.7618 N   0  0  0  0  0  0  0  0  0  0  0  0
   57.8415   -5.9073  -10.9624 H   0  0  0  0  0  0  0  0  0  0  0  0
   58.7220   -4.8476   -9.7936 H   0  0  0  0  0  0  0  0  0  0  0  0
   58.1071   -2.8020  -12.0487 H   0  0  0  0  0  0  0  0  0  0  0  0
   56.3479   -2.7403  -12.2967 H   0  0  0  0  0  0  0  0  0  0  0  0
   57.3631   -7.0750   -2.7131 C   0  0  0  0  0  0  0  0  0  0  0  0
   58.8178   -7.1416   -2.8026 C   0  0  0  0  0  0  0  0  0  0  0  0
   59.5445   -6.1472   -2.6352 O   0  0  0  0  0  0  0  0  0  0  0  0
   59.3962   -8.3945   -3.0848 N   0  0  0  0  0  0  0  0  0  0  0  0
   58.8641   -9.2745   -3.2356 H   0  0  0  0  0  0  0  0  0  0  0  0
   60.8790   -8.5043   -3.1717 C   0  0  0  0  0  0  0  0  0  0  0  0
   61.2290   -8.6959   -4.6221 C   0  0  0  0  0  0  0  0  0  0  0  0
   61.2244   -7.6252   -5.3046 O   0  0  0  0  0  0  0  0  0  0  0  0
   61.5308   -9.9291   -5.1432 N   0  0  0  0  0  0  0  0  0  0  0  0
   61.5164  -10.7322   -4.3654 H   0  0  0  0  0  0  0  0  0  0  0  0
   61.8899  -10.3662   -6.4295 C   0  0  0  0  0  0  0  0  0  0  0  0
   62.3836   -9.4074   -7.4052 C   0  0  0  0  0  0  0  0  0  0  0  0
   63.5463   -9.1852   -7.7104 O   0  0  0  0  0  0  0  0  0  0  0  0
   61.3960   -8.6056   -8.1216 N   0  0  0  0  0  0  0  0  0  0  0  0
   60.3966   -8.7698   -7.8857 H   0  0  0  0  0  0  0  0  0  0  0  0
   61.8230   -7.6476   -9.1043 C   0  0  0  0  0  0  0  0  0  0  0  0
   60.8572   -6.5795   -9.2747 C   0  0  0  0  0  0  0  0  0  0  0  0
   60.5804   -6.0999  -10.5318 O   0  0  0  0  0  0  0  0  0  0  0  0
   60.2770   -6.0964   -8.2895 O   0  0  0  0  0  0  0  0  0  0  0  0
   59.8267   -5.4790  -10.7461 H   0  0  0  0  0  0  0  0  0  0  0  0
   61.9934   -8.3588  -10.4660 C   0  0  0  0  0  0  0  0  0  0  0  0
   60.8596   -9.1839  -10.6502 O   0  0  0  0  0  0  0  0  0  0  0  0
   60.9642  -10.0299  -10.1850 H   0  0  0  0  0  0  0  0  0  0  0  0
   60.7112  -11.1531   -7.0002 C   0  0  0  0  0  0  0  0  0  0  0  0
   60.8238  -11.3420   -8.3751 O   0  0  0  0  0  0  0  0  0  0  0  0
   59.9348  -11.1071   -8.7626 H   0  0  0  0  0  0  0  0  0  0  0  0
   61.2275   -9.6931   -2.3233 C   0  0  0  0  0  0  0  0  0  0  0  0
   59.9507  -10.4834   -2.0346 C   0  0  0  0  0  0  0  0  0  0  0  0
   62.0799   -9.5056   -1.1420 C   0  0  0  0  0  0  0  0  0  0  0  0
   56.7820   -8.3616   -2.0871 C   0  0  0  0  0  0  0  0  0  0  0  0
   55.3978   -8.1956   -2.0658 O   0  0  0  0  0  0  0  0  0  0  0  0
   55.1510   -7.6080   -1.3128 H   0  0  0  0  0  0  0  0  0  0  0  0
 16 17  1  0  0  0
 17 18  2  0  0  0
 17 19  1  0  0  0
 19 15  1  0  0  0
 15 21  1  0  0  0
 21 22  1  0  0  0
 15 11  1  0  0  0
 11 12  2  0  0  0
 11 13  1  0  0  0
 13 10  1  0  0  0
 10 24  1  0  0  0
 24 25  1  0  0  0
 24 26  1  0  0  0
 10  6  1  0  0  0
  6  7  2  0  0  0
  6  8  1  0  0  0
  8  5  1  0  0  0
  5 27  1  0  0  0
 27 28  1  0  0  0
 28 29  1  0  0  0
 29 30  1  0  0  0
 30 31  2  0  0  0
 31 32  1  0  0  0
 31 33  1  0  0  0
  5  1  1  0  0  0
  1  2  2  0  0  0
  1  3  1  0  0  0
  3 38  1  0  0  0
 38 67  1  0  0  0
 67 68  1  0  0  0
 38 39  1  0  0  0
 39 40  2  0  0  0
 39 41  1  0  0  0
 41 43  1  0  0  0
 43 64  1  0  0  0
 64 65  1  0  0  0
 64 66  1  0  0  0
 43 44  1  0  0  0
 44 45  2  0  0  0
 44 46  1  0  0  0
 46 48  1  0  0  0
 48 61  1  0  0  0
 61 62  1  0  0  0
 48 49  1  0  0  0
 49 50  2  0  0  0
 49 51  1  0  0  0
 51 53  1  0  0  0
 53 58  1  0  0  0
 58 59  1  0  0  0
 53 54  1  0  0  0
 54 55  1  0  0  0
 54 56  2  0  0  0
 19 20  1  0  0  0
 22 23  1  0  0  0
 13 14  1  0  0  0
  8  9  1  0  0  0
 32 34  1  0  0  0
 32 35  1  0  0  0
 33 36  1  0  0  0
 33 37  1  0  0  0
  3  4  1  0  0  0
 68 69  1  0  0  0
 41 42  1  0  0  0
 46 47  1  0  0  0
 62 63  1  0  0  0
 51 52  1  0  0  0
 59 60  1  0  0  0
 55 57  1  0  0  0
M  END
> <minimizedAffinity>
-7.53926

> <CNNscore>
0.1823610067

> <CNNaffinity>
6.4724478722

> <CNN_VS>
1.1803220510

> <CNNaffinity_variance>
0.6950370669

$$$$
[H]OC([H])([H])[C@@]1([H])[C@@]([H])(C([H])([H])OP(=O)(O[H])O[H])N([H])C([H])([H])[C@]([H])(O[H])[C@@]([H])(O[H])[C@]1([H])O[H]


 25 25  0  0  0  0  0  0  0  0999 V2000
   56.2432   -6.1504  -14.9857 C   0  0  0  0  0  0  0  0  0  0  0  0
   57.4071   -7.0033  -15.4020 C   0  0  0  0  0  0  0  0  0  0  0  0
   56.9991   -8.3190  -15.4914 O   0  0  0  0  0  0  0  0  0  0  0  0
   57.8817   -6.4506  -16.7409 C   0  0  0  0  0  0  0  0  0  0  0  0
   58.1063   -7.5232  -17.5770 O   0  0  0  0  0  0  0  0  0  0  0  0
   59.1012   -5.6257  -16.4547 C   0  0  0  0  0  0  0  0  0  0  0  0
   60.0199   -5.6020  -17.4837 O   0  0  0  0  0  0  0  0  0  0  0  0
   58.6403   -4.2401  -16.0421 C   0  0  0  0  0  0  0  0  0  0  0  0
   57.2514   -4.1037  -15.8763 N   0  0  0  0  0  0  0  0  0  0  0  0
   56.6247   -4.7063  -14.7715 C   0  0  0  0  0  0  0  0  0  0  0  0
   57.3619   -8.8876  -14.7535 H   0  0  0  0  0  0  0  0  0  0  0  0
   58.9842   -7.5286  -18.0123 H   0  0  0  0  0  0  0  0  0  0  0  0
   60.4653   -4.7090  -17.4918 H   0  0  0  0  0  0  0  0  0  0  0  0
   56.6823   -3.7875  -16.6584 H   0  0  0  0  0  0  0  0  0  0  0  0
   55.1510   -5.7673  -12.8947 O   0  0  0  0  0  0  0  0  0  0  0  0
   55.5654   -6.7410  -13.7874 C   0  0  0  0  0  0  0  0  0  0  0  0
   54.6134   -5.1050  -13.3939 H   0  0  0  0  0  0  0  0  0  0  0  0
   57.4114   -4.5162  -13.4808 C   0  0  0  0  0  0  0  0  0  0  0  0
   57.0058   -3.2889  -12.9549 O   0  0  0  0  0  0  0  0  0  0  0  0
   56.4276   -3.5217  -11.3911 P   0  0  0  0  0  0  0  0  0  0  0  0
   56.3705   -2.0427  -10.5589 O   0  0  0  0  0  0  0  0  0  0  0  0
   54.8406   -4.1286  -11.3860 O   0  0  0  0  0  0  0  0  0  0  0  0
   57.2909   -4.5324  -10.6911 O   0  0  0  0  0  0  0  0  0  0  0  0
   57.2688   -1.6241  -10.5791 H   0  0  0  0  0  0  0  0  0  0  0  0
   54.2794   -3.4510  -11.8614 H   0  0  0  0  0  0  0  0  0  0  0  0
 15 16  1  0  0  0
 16  1  1  0  0  0
  1  2  1  0  0  0
  2  3  1  0  0  0
  2  4  1  0  0  0
  4  5  1  0  0  0
  4  6  1  0  0  0
  6  7  1  0  0  0
  6  8  1  0  0  0
  8  9  1  0  0  0
  9 10  1  0  0  0
 10 18  1  0  0  0
 18 19  1  0  0  0
 19 20  1  0  0  0
 20 21  1  0  0  0
 20 22  1  0  0  0
 20 23  2  0  0  0
 10  1  1  0  0  0
 15 17  1  0  0  0
  3 11  1  0  0  0
  5 12  1  0  0  0
  7 13  1  0  0  0
  9 14  1  0  0  0
 21 24  1  0  0  0
 22 25  1  0  0  0
M  END
> <minimizedAffinity>
11.67408

> <CNNscore>
0.5224907994

> <CNNaffinity>
3.2431159019

> <CNN_VS>
1.6944981813

> <CNNaffinity_variance>
0.7326045036

$$$$
[H]OC([H])([H])[C@@]1([H])[C@@]([H])(C([H])([H])OP(=O)(O[H])O[H])N([H])C([H])([H])[C@]([H])(O[H])[C@@]([H])(O[H])[C@]1([H])O[H]


 25 25  0  0  0  0  0  0  0  0999 V2000
   63.1635   -5.2430  -14.1707 C   0  0  0  0  0  0  0  0  0  0  0  0
   62.9029   -6.2672  -15.2376 C   0  0  0  0  0  0  0  0  0  0  0  0
   62.2955   -5.6570  -16.3167 O   0  0  0  0  0  0  0  0  0  0  0  0
   64.2595   -6.8629  -15.5957 C   0  0  0  0  0  0  0  0  0  0  0  0
   64.3308   -6.9374  -16.9702 O   0  0  0  0  0  0  0  0  0  0  0  0
   64.3406   -8.1897  -14.9010 C   0  0  0  0  0  0  0  0  0  0  0  0
   65.0984   -9.1299  -15.5682 O   0  0  0  0  0  0  0  0  0  0  0  0
   64.8189   -7.9442  -13.4819 C   0  0  0  0  0  0  0  0  0  0  0  0
   64.9157   -6.5907  -13.1161 N   0  0  0  0  0  0  0  0  0  0  0  0
   63.7419   -5.8440  -12.9133 C   0  0  0  0  0  0  0  0  0  0  0  0
   61.3307   -5.9027  -16.4075 H   0  0  0  0  0  0  0  0  0  0  0  0
   64.5871   -7.8155  -17.3217 H   0  0  0  0  0  0  0  0  0  0  0  0
   65.5481   -9.7123  -14.8941 H   0  0  0  0  0  0  0  0  0  0  0  0
   65.8008   -6.1025  -13.2327 H   0  0  0  0  0  0  0  0  0  0  0  0
   61.9065   -3.2593  -14.6141 O   0  0  0  0  0  0  0  0  0  0  0  0
   61.9252   -4.4449  -13.8995 C   0  0  0  0  0  0  0  0  0  0  0  0
   62.0641   -3.4745  -15.5658 H   0  0  0  0  0  0  0  0  0  0  0  0
   62.6923   -6.6130  -12.1211 C   0  0  0  0  0  0  0  0  0  0  0  0
   62.8632   -6.2428  -10.7866 O   0  0  0  0  0  0  0  0  0  0  0  0
   61.5636   -6.8162   -9.8831 P   0  0  0  0  0  0  0  0  0  0  0  0
   61.8887   -6.6647   -8.2234 O   0  0  0  0  0  0  0  0  0  0  0  0
   60.1478   -5.9220  -10.1711 O   0  0  0  0  0  0  0  0  0  0  0  0
   61.2779   -8.2376  -10.2768 O   0  0  0  0  0  0  0  0  0  0  0  0
   62.7382   -7.1312   -8.0153 H   0  0  0  0  0  0  0  0  0  0  0  0
   60.3545   -4.9782   -9.9131 H   0  0  0  0  0  0  0  0  0  0  0  0
 15 16  1  0  0  0
 16  1  1  0  0  0
  1  2  1  0  0  0
  2  3  1  0  0  0
  2  4  1  0  0  0
  4  5  1  0  0  0
  4  6  1  0  0  0
  6  7  1  0  0  0
  6  8  1  0  0  0
  8  9  1  0  0  0
  9 10  1  0  0  0
 10 18  1  0  0  0
 18 19  1  0  0  0
 19 20  1  0  0  0
 20 21  1  0  0  0
 20 22  1  0  0  0
 20 23  2  0  0  0
 10  1  1  0  0  0
 15 17  1  0  0  0
  3 11  1  0  0  0
  5 12  1  0  0  0
  7 13  1  0  0  0
  9 14  1  0  0  0
 21 24  1  0  0  0
 22 25  1  0  0  0
M  END
> <minimizedAffinity>
-2.35171

> <CNNscore>
0.5096914768

> <CNNaffinity>
3.0686817169

> <CNN_VS>
1.5640809536

> <CNNaffinity_variance>
0.0923544317

$$$$
[H]OC([H])([H])[C@@]1([H])[C@@]([H])(C([H])([H])OP(=O)(O[H])O[H])N([H])C([H])([H])[C@]([H])(O[H])[C@@]([H])(O[H])[C@]1([H])O[H]


 25 25  0  0  0  0  0  0  0  0999 V2000
   54.9642   -4.3870   -6.2120 C   0  0  0  0  0  0  0  0  0  0  0  0
   55.9468   -4.8861   -5.1917 C   0  0  0  0  0  0  0  0  0  0  0  0
   56.3943   -3.8238   -4.4321 O   0  0  0  0  0  0  0  0  0  0  0  0
   55.2040   -5.9235   -4.3580 C   0  0  0  0  0  0  0  0  0  0  0  0
   55.5023   -5.6835   -3.0339 O   0  0  0  0  0  0  0  0  0  0  0  0
   55.6454   -7.2677   -4.8559 C   0  0  0  0  0  0  0  0  0  0  0  0
   55.6462   -8.2538   -3.8909 O   0  0  0  0  0  0  0  0  0  0  0  0
   54.7936   -7.6211   -6.0610 C   0  0  0  0  0  0  0  0  0  0  0  0
   53.9440   -6.5941   -6.5064 N   0  0  0  0  0  0  0  0  0  0  0  0
   54.4947   -5.4718   -7.1498 C   0  0  0  0  0  0  0  0  0  0  0  0
   57.3413   -3.5752   -4.6344 H   0  0  0  0  0  0  0  0  0  0  0  0
   55.8150   -6.4663   -2.5342 H   0  0  0  0  0  0  0  0  0  0  0  0
   55.4100   -9.1217   -4.3230 H   0  0  0  0  0  0  0  0  0  0  0  0
   52.9889   -6.5478   -6.1584 H   0  0  0  0  0  0  0  0  0  0  0  0
   56.7252   -2.7821   -6.3991 O   0  0  0  0  0  0  0  0  0  0  0  0
   55.5267   -3.2083   -6.9456 C   0  0  0  0  0  0  0  0  0  0  0  0
   57.3280   -3.5631   -6.3398 H   0  0  0  0  0  0  0  0  0  0  0  0
   55.5711   -5.8496   -8.1594 C   0  0  0  0  0  0  0  0  0  0  0  0
   56.3313   -4.6979   -8.3672 O   0  0  0  0  0  0  0  0  0  0  0  0
   56.6975   -4.5655  -10.0050 P   0  0  0  0  0  0  0  0  0  0  0  0
   55.4868   -5.3029  -10.9398 O   0  0  0  0  0  0  0  0  0  0  0  0
   56.7638   -2.9447  -10.5107 O   0  0  0  0  0  0  0  0  0  0  0  0
   58.0518   -5.1645  -10.2579 O   0  0  0  0  0  0  0  0  0  0  0  0
   55.3761   -6.2426  -10.6446 H   0  0  0  0  0  0  0  0  0  0  0  0
   55.8601   -2.5569  -10.3292 H   0  0  0  0  0  0  0  0  0  0  0  0
 15 16  1  0  0  0
 16  1  1  0  0  0
  1  2  1  0  0  0
  2  3  1  0  0  0
  2  4  1  0  0  0
  4  5  1  0  0  0
  4  6  1  0  0  0
  6  7  1  0  0  0
  6  8  1  0  0  0
  8  9  1  0  0  0
  9 10  1  0  0  0
 10 18  1  0  0  0
 18 19  1  0  0  0
 19 20  1  0  0  0
 20 21  1  0  0  0
 20 22  1  0  0  0
 20 23  2  0  0  0
 10  1  1  0  0  0
 15 17  1  0  0  0
  3 11  1  0  0  0
  5 12  1  0  0  0
  7 13  1  0  0  0
  9 14  1  0  0  0
 21 24  1  0  0  0
 22 25  1  0  0  0
M  END
> <minimizedAffinity>
-1.09826

> <CNNscore>
0.4482687414

> <CNNaffinity>
3.8271968365

> <CNN_VS>
1.7156126499

> <CNNaffinity_variance>
0.8908883333

$$$$
[H]OC([H])([H])[C@@]1([H])[C@@]([H])(C([H])([H])OP(=O)(O[H])O[H])N([H])C([H])([H])[C@]([H])(O[H])[C@@]([H])(O[H])[C@]1([H])O[H]


 25 25  0  0  0  0  0  0  0  0999 V2000
   57.6006   -4.9153  -10.8805 C   0  0  0  0  0  0  0  0  0  0  0  0
   57.0906   -3.6288  -10.2973 C   0  0  0  0  0  0  0  0  0  0  0  0
   56.6266   -2.8194  -11.3147 O   0  0  0  0  0  0  0  0  0  0  0  0
   55.9908   -4.0138   -9.3147 C   0  0  0  0  0  0  0  0  0  0  0  0
   54.9316   -3.1561   -9.5196 O   0  0  0  0  0  0  0  0  0  0  0  0
   56.5944   -3.9322   -7.9441 C   0  0  0  0  0  0  0  0  0  0  0  0
   55.6982   -3.5883   -6.9531 O   0  0  0  0  0  0  0  0  0  0  0  0
   57.3049   -5.2445   -7.6688 C   0  0  0  0  0  0  0  0  0  0  0  0
   57.3677   -6.1240   -8.7631 N   0  0  0  0  0  0  0  0  0  0  0  0
   58.2152   -5.8231   -9.8438 C   0  0  0  0  0  0  0  0  0  0  0  0
   57.2238   -2.0369  -11.4897 H   0  0  0  0  0  0  0  0  0  0  0  0
   54.5948   -2.7176   -8.7105 H   0  0  0  0  0  0  0  0  0  0  0  0
   55.9631   -4.0520   -6.1101 H   0  0  0  0  0  0  0  0  0  0  0  0
   56.6434   -6.8288   -8.8815 H   0  0  0  0  0  0  0  0  0  0  0  0
   57.8765   -4.6056  -13.2342 O   0  0  0  0  0  0  0  0  0  0  0  0
   58.5361   -4.6385  -12.0174 C   0  0  0  0  0  0  0  0  0  0  0  0
   57.1197   -3.9751  -13.1537 H   0  0  0  0  0  0  0  0  0  0  0  0
   59.5798   -5.3196   -9.3908 C   0  0  0  0  0  0  0  0  0  0  0  0
   60.5240   -6.0580  -10.1053 O   0  0  0  0  0  0  0  0  0  0  0  0
   61.1654   -7.2503   -9.1048 P   0  0  0  0  0  0  0  0  0  0  0  0
   60.7299   -6.9595   -7.4895 O   0  0  0  0  0  0  0  0  0  0  0  0
   60.5609   -8.7915   -9.4873 O   0  0  0  0  0  0  0  0  0  0  0  0
   62.6556   -7.3003   -9.2893 O   0  0  0  0  0  0  0  0  0  0  0  0
   61.0192   -6.0463   -7.2348 H   0  0  0  0  0  0  0  0  0  0  0  0
   59.5693   -8.7415   -9.3684 H   0  0  0  0  0  0  0  0  0  0  0  0
 15 16  1  0  0  0
 16  1  1  0  0  0
  1  2  1  0  0  0
  2  3  1  0  0  0
  2  4  1  0  0  0
  4  5  1  0  0  0
  4  6  1  0  0  0
  6  7  1  0  0  0
  6  8  1  0  0  0
  8  9  1  0  0  0
  9 10  1  0  0  0
 10 18  1  0  0  0
 18 19  1  0  0  0
 19 20  1  0  0  0
 20 21  1  0  0  0
 20 22  1  0  0  0
 20 23  2  0  0  0
 10  1  1  0  0  0
 15 17  1  0  0  0
  3 11  1  0  0  0
  5 12  1  0  0  0
  7 13  1  0  0  0
  9 14  1  0  0  0
 21 24  1  0  0  0
 22 25  1  0  0  0
M  END
> <minimizedAffinity>
-4.26363

> <CNNscore>
0.4201964736

> <CNNaffinity>
3.5836906433

> <CNN_VS>
1.5058541298

> <CNNaffinity_variance>
0.0756865442

$$$$
[H]OC([H])([H])[C@@]1([H])[C@@]([H])(C([H])([H])OP(=O)(O[H])O[H])N([H])C([H])([H])[C@]([H])(O[H])[C@@]([H])(O[H])[C@]1([H])O[H]


 25 25  0  0  0  0  0  0  0  0999 V2000
   55.0875   -7.2885   -4.2080 C   0  0  0  0  0  0  0  0  0  0  0  0
   54.1976   -6.1247   -3.8780 C   0  0  0  0  0  0  0  0  0  0  0  0
   53.9203   -5.4211   -5.0329 O   0  0  0  0  0  0  0  0  0  0  0  0
   52.9440   -6.7147   -3.2428 C   0  0  0  0  0  0  0  0  0  0  0  0
   51.8564   -6.0784   -3.8013 O   0  0  0  0  0  0  0  0  0  0  0  0
   53.0813   -6.5169   -1.7624 C   0  0  0  0  0  0  0  0  0  0  0  0
   51.8812   -6.3524   -1.1020 O   0  0  0  0  0  0  0  0  0  0  0  0
   53.9053   -7.6667   -1.2130 C   0  0  0  0  0  0  0  0  0  0  0  0
   54.4555   -8.5181   -2.1863 N   0  0  0  0  0  0  0  0  0  0  0  0
   55.5181   -8.0595   -2.9846 C   0  0  0  0  0  0  0  0  0  0  0  0
   54.3875   -4.5380   -5.0696 H   0  0  0  0  0  0  0  0  0  0  0  0
   51.2170   -5.7129   -3.1548 H   0  0  0  0  0  0  0  0  0  0  0  0
   51.9609   -6.7554   -0.1926 H   0  0  0  0  0  0  0  0  0  0  0  0
   53.9434   -9.3498   -2.4714 H   0  0  0  0  0  0  0  0  0  0  0  0
   55.9359   -6.7537   -6.3774 O   0  0  0  0  0  0  0  0  0  0  0  0
   56.2538   -6.8367   -5.0325 C   0  0  0  0  0  0  0  0  0  0  0  0
   55.1231   -6.1983   -6.4648 H   0  0  0  0  0  0  0  0  0  0  0  0
   56.5657   -7.3011   -2.1796 C   0  0  0  0  0  0  0  0  0  0  0  0
   57.6887   -8.1278   -2.1254 O   0  0  0  0  0  0  0  0  0  0  0  0
   59.0747   -7.1901   -2.3096 P   0  0  0  0  0  0  0  0  0  0  0  0
   60.3142   -7.7689   -1.3036 O   0  0  0  0  0  0  0  0  0  0  0  0
   59.6812   -7.2601   -3.8952 O   0  0  0  0  0  0  0  0  0  0  0  0
   58.7397   -5.7533   -2.0261 O   0  0  0  0  0  0  0  0  0  0  0  0
   59.9877   -7.7941   -0.3681 H   0  0  0  0  0  0  0  0  0  0  0  0
   59.8917   -8.2213   -4.0730 H   0  0  0  0  0  0  0  0  0  0  0  0
 15 16  1  0  0  0
 16  1  1  0  0  0
  1  2  1  0  0  0
  2  3  1  0  0  0
  2  4  1  0  0  0
  4  5  1  0  0  0
  4  6  1  0  0  0
  6  7  1  0  0  0
  6  8  1  0  0  0
  8  9  1  0  0  0
  9 10  1  0  0  0
 10 18  1  0  0  0
 18 19  1  0  0  0
 19 20  1  0  0  0
 20 21  1  0  0  0
 20 22  1  0  0  0
 20 23  2  0  0  0
 10  1  1  0  0  0
 15 17  1  0  0  0
  3 11  1  0  0  0
  5 12  1  0  0  0
  7 13  1  0  0  0
  9 14  1  0  0  0
 21 24  1  0  0  0
 22 25  1  0  0  0
M  END
> <minimizedAffinity>
-4.53567

> <CNNscore>
0.2908442318

> <CNNaffinity>
3.7080962658

> <CNN_VS>
1.0784784555

> <CNNaffinity_variance>
0.1128466949

$$$$
[H]OC([H])([H])[C@@]1([H])[C@@]([H])(C([H])([H])OP(=O)(O[H])O[H])N([H])C([H])([H])[C@]([H])(O[H])[C@@]([H])(O[H])[C@]1([H])O[H]


 25 25  0  0  0  0  0  0  0  0999 V2000
   56.5203   -4.5413  -12.2470 C   0  0  0  0  0  0  0  0  0  0  0  0
   55.9993   -3.7199  -11.1028 C   0  0  0  0  0  0  0  0  0  0  0  0
   54.7222   -3.2864  -11.3972 O   0  0  0  0  0  0  0  0  0  0  0  0
   56.0366   -4.6258   -9.8775 C   0  0  0  0  0  0  0  0  0  0  0  0
   54.8447   -4.4636   -9.2045 O   0  0  0  0  0  0  0  0  0  0  0  0
   57.2491   -4.2287   -9.0891 C   0  0  0  0  0  0  0  0  0  0  0  0
   57.1199   -4.4089   -7.7273 O   0  0  0  0  0  0  0  0  0  0  0  0
   58.4440   -4.9609   -9.6712 C   0  0  0  0  0  0  0  0  0  0  0  0
   58.1810   -5.6780  -10.8510 N   0  0  0  0  0  0  0  0  0  0  0  0
   57.9509   -4.9780  -12.0484 C   0  0  0  0  0  0  0  0  0  0  0  0
   54.6818   -2.3071  -11.5943 H   0  0  0  0  0  0  0  0  0  0  0  0
   54.9354   -4.2672   -8.2488 H   0  0  0  0  0  0  0  0  0  0  0  0
   58.0114   -4.6564   -7.3534 H   0  0  0  0  0  0  0  0  0  0  0  0
   57.9232   -6.6606  -10.7929 H   0  0  0  0  0  0  0  0  0  0  0  0
   56.4779   -4.6533  -14.6339 O   0  0  0  0  0  0  0  0  0  0  0  0
   56.3243   -3.8153  -13.5426 C   0  0  0  0  0  0  0  0  0  0  0  0
   55.8902   -5.4368  -14.5017 H   0  0  0  0  0  0  0  0  0  0  0  0
   58.9255   -3.8237  -12.2444 C   0  0  0  0  0  0  0  0  0  0  0  0
   60.0712   -4.3749  -12.8197 O   0  0  0  0  0  0  0  0  0  0  0  0
   60.5171   -3.4528  -14.1557 P   0  0  0  0  0  0  0  0  0  0  0  0
   60.9143   -1.8737  -13.6743 O   0  0  0  0  0  0  0  0  0  0  0  0
   61.8998   -4.0752  -14.9224 O   0  0  0  0  0  0  0  0  0  0  0  0
   59.4036   -3.4743  -15.1640 O   0  0  0  0  0  0  0  0  0  0  0  0
   60.1511   -1.4849  -13.1753 H   0  0  0  0  0  0  0  0  0  0  0  0
   62.6294   -4.0628  -14.2387 H   0  0  0  0  0  0  0  0  0  0  0  0
 15 16  1  0  0  0
 16  1  1  0  0  0
  1  2  1  0  0  0
  2  3  1  0  0  0
  2  4  1  0  0  0
  4  5  1  0  0  0
  4  6  1  0  0  0
  6  7  1  0  0  0
  6  8  1  0  0  0
  8  9  1  0  0  0
  9 10  1  0  0  0
 10 18  1  0  0  0
 18 19  1  0  0  0
 19 20  1  0  0  0
 20 21  1  0  0  0
 20 22  1  0  0  0
 20 23  2  0  0  0
 10  1  1  0  0  0
 15 17  1  0  0  0
  3 11  1  0  0  0
  5 12  1  0  0  0
  7 13  1  0  0  0
  9 14  1  0  0  0
 21 24  1  0  0  0
 22 25  1  0  0  0
M  END
> <minimizedAffinity>
-3.89518

> <CNNscore>
0.2897506952

> <CNNaffinity>
3.4977467060

> <CNN_VS>
1.0134745836

> <CNNaffinity_variance>
0.0493927710

$$$$
[H]OC([H])([H])[C@@]1([H])[C@@]([H])(C([H])([H])OP(=O)(O[H])O[H])N([H])C([H])([H])[C@]([H])(O[H])[C@@]([H])(O[H])[C@]1([H])O[H]


 25 25  0  0  0  0  0  0  0  0999 V2000
   52.6054   -5.4180   -7.3860 C   0  0  0  0  0  0  0  0  0  0  0  0
   52.8336   -3.9496   -7.6029 C   0  0  0  0  0  0  0  0  0  0  0  0
   53.9331   -3.7748   -8.4192 O   0  0  0  0  0  0  0  0  0  0  0  0
   51.5538   -3.4085   -8.2294 C   0  0  0  0  0  0  0  0  0  0  0  0
   51.9182   -2.5807   -9.2696 O   0  0  0  0  0  0  0  0  0  0  0  0
   50.7971   -2.7224   -7.1311 C   0  0  0  0  0  0  0  0  0  0  0  0
   50.0271   -1.6593   -7.5560 O   0  0  0  0  0  0  0  0  0  0  0  0
   49.9936   -3.7753   -6.3905 C   0  0  0  0  0  0  0  0  0  0  0  0
   50.2537   -5.1003   -6.7802 N   0  0  0  0  0  0  0  0  0  0  0  0
   51.4759   -5.6977   -6.4254 C   0  0  0  0  0  0  0  0  0  0  0  0
   54.7268   -3.4170   -7.9278 H   0  0  0  0  0  0  0  0  0  0  0  0
   51.5066   -1.6916   -9.2513 H   0  0  0  0  0  0  0  0  0  0  0  0
   49.2093   -1.6115   -6.9862 H   0  0  0  0  0  0  0  0  0  0  0  0
   49.6819   -5.5312   -7.5032 H   0  0  0  0  0  0  0  0  0  0  0  0
   54.7165   -5.2299   -6.2815 O   0  0  0  0  0  0  0  0  0  0  0  0
   53.8796   -6.0890   -6.9731 C   0  0  0  0  0  0  0  0  0  0  0  0
   54.1978   -4.8285   -5.5422 H   0  0  0  0  0  0  0  0  0  0  0  0
   51.8733   -5.3996   -4.9853 C   0  0  0  0  0  0  0  0  0  0  0  0
   51.3187   -6.4184   -4.2096 O   0  0  0  0  0  0  0  0  0  0  0  0
   50.6970   -5.7574   -2.7916 P   0  0  0  0  0  0  0  0  0  0  0  0
   49.2067   -5.0035   -3.0983 O   0  0  0  0  0  0  0  0  0  0  0  0
   50.3921   -6.9475   -1.6179 O   0  0  0  0  0  0  0  0  0  0  0  0
   51.7030   -4.8066   -2.2079 O   0  0  0  0  0  0  0  0  0  0  0  0
   49.3249   -4.3314   -3.8172 H   0  0  0  0  0  0  0  0  0  0  0  0
   49.7284   -7.5769   -2.0222 H   0  0  0  0  0  0  0  0  0  0  0  0
 15 16  1  0  0  0
 16  1  1  0  0  0
  1  2  1  0  0  0
  2  3  1  0  0  0
  2  4  1  0  0  0
  4  5  1  0  0  0
  4  6  1  0  0  0
  6  7  1  0  0  0
  6  8  1  0  0  0
  8  9  1  0  0  0
  9 10  1  0  0  0
 10 18  1  0  0  0
 18 19  1  0  0  0
 19 20  1  0  0  0
 20 21  1  0  0  0
 20 22  1  0  0  0
 20 23  2  0  0  0
 10  1  1  0  0  0
 15 17  1  0  0  0
  3 11  1  0  0  0
  5 12  1  0  0  0
  7 13  1  0  0  0
  9 14  1  0  0  0
 21 24  1  0  0  0
 22 25  1  0  0  0
M  END
> <minimizedAffinity>
-6.74425

> <CNNscore>
0.2482492775

> <CNNaffinity>
4.0565237999

> <CNN_VS>
1.0070290565

> <CNNaffinity_variance>
0.0330622904

$$$$
[H]OC([H])([H])[C@@]1([H])[C@@]([H])(C([H])([H])OP(=O)(O[H])O[H])N([H])C([H])([H])[C@]([H])(O[H])[C@@]([H])(O[H])[C@]1([H])O[H]


 25 25  0  0  0  0  0  0  0  0999 V2000
   54.7973   -7.4333   -3.6671 C   0  0  0  0  0  0  0  0  0  0  0  0
   54.2786   -6.0433   -3.4343 C   0  0  0  0  0  0  0  0  0  0  0  0
   53.8753   -5.4998   -4.6376 O   0  0  0  0  0  0  0  0  0  0  0  0
   53.1278   -6.1791   -2.4442 C   0  0  0  0  0  0  0  0  0  0  0  0
   52.0919   -5.3927   -2.9007 O   0  0  0  0  0  0  0  0  0  0  0  0
   53.6663   -5.7732   -1.1045 C   0  0  0  0  0  0  0  0  0  0  0  0
   52.7289   -5.1998   -0.2703 O   0  0  0  0  0  0  0  0  0  0  0  0
   54.3439   -6.9833   -0.4885 C   0  0  0  0  0  0  0  0  0  0  0  0
   54.4463   -8.0993   -1.3364 N   0  0  0  0  0  0  0  0  0  0  0  0
   55.3486   -8.0680   -2.4141 C   0  0  0  0  0  0  0  0  0  0  0  0
   54.4914   -4.7836   -4.9645 H   0  0  0  0  0  0  0  0  0  0  0  0
   51.7233   -4.7725   -2.2376 H   0  0  0  0  0  0  0  0  0  0  0  0
   52.9465   -5.4488    0.6712 H   0  0  0  0  0  0  0  0  0  0  0  0
   53.7184   -8.8101   -1.3188 H   0  0  0  0  0  0  0  0  0  0  0  0
   55.1910   -7.7053   -6.0086 O   0  0  0  0  0  0  0  0  0  0  0  0
   55.7899   -7.4391   -4.7891 C   0  0  0  0  0  0  0  0  0  0  0  0
   54.4371   -7.0763   -6.1218 H   0  0  0  0  0  0  0  0  0  0  0  0
   56.6971   -7.4741   -2.0273 C   0  0  0  0  0  0  0  0  0  0  0  0
   56.7895   -6.2514   -2.6934 O   0  0  0  0  0  0  0  0  0  0  0  0
   57.6915   -5.1799   -1.7594 P   0  0  0  0  0  0  0  0  0  0  0  0
   57.3073   -3.5770   -2.1672 O   0  0  0  0  0  0  0  0  0  0  0  0
   57.3503   -5.3410   -0.1027 O   0  0  0  0  0  0  0  0  0  0  0  0
   59.1530   -5.4759   -1.9418 O   0  0  0  0  0  0  0  0  0  0  0  0
   57.4434   -3.4483   -3.1406 H   0  0  0  0  0  0  0  0  0  0  0  0
   56.3745   -5.1498    0.0028 H   0  0  0  0  0  0  0  0  0  0  0  0
 15 16  1  0  0  0
 16  1  1  0  0  0
  1  2  1  0  0  0
  2  3  1  0  0  0
  2  4  1  0  0  0
  4  5  1  0  0  0
  4  6  1  0  0  0
  6  7  1  0  0  0
  6  8  1  0  0  0
  8  9  1  0  0  0
  9 10  1  0  0  0
 10 18  1  0  0  0
 18 19  1  0  0  0
 19 20  1  0  0  0
 20 21  1  0  0  0
 20 22  1  0  0  0
 20 23  2  0  0  0
 10  1  1  0  0  0
 15 17  1  0  0  0
  3 11  1  0  0  0
  5 12  1  0  0  0
  7 13  1  0  0  0
  9 14  1  0  0  0
 21 24  1  0  0  0
 22 25  1  0  0  0
M  END
> <minimizedAffinity>
-5.11111

> <CNNscore>
0.2460149825

> <CNNaffinity>
3.6020226479

> <CNN_VS>
0.8861515522

> <CNNaffinity_variance>
0.2408965081

$$$$
[H]OC([H])([H])[C@@]1([H])[C@@]([H])(C([H])([H])OP(=O)(O[H])O[H])N([H])C([H])([H])[C@]([H])(O[H])[C@@]([H])(O[H])[C@]1([H])O[H]


 25 25  0  0  0  0  0  0  0  0999 V2000
   64.4188   -7.3746   -6.1657 C   0  0  0  0  0  0  0  0  0  0  0  0
   64.1738   -5.9233   -5.8677 C   0  0  0  0  0  0  0  0  0  0  0  0
   63.9485   -5.7674   -4.5147 O   0  0  0  0  0  0  0  0  0  0  0  0
   65.4164   -5.1768   -6.3389 C   0  0  0  0  0  0  0  0  0  0  0  0
   65.7546   -4.2713   -5.3563 O   0  0  0  0  0  0  0  0  0  0  0  0
   65.0666   -4.5540   -7.6577 C   0  0  0  0  0  0  0  0  0  0  0  0
   65.7285   -3.3714   -7.9159 O   0  0  0  0  0  0  0  0  0  0  0  0
   65.2802   -5.5986   -8.7376 C   0  0  0  0  0  0  0  0  0  0  0  0
   65.5850   -6.8859   -8.2633 N   0  0  0  0  0  0  0  0  0  0  0  0
   64.5813   -7.6485   -7.6406 C   0  0  0  0  0  0  0  0  0  0  0  0
   62.9940   -5.5586   -4.3029 H   0  0  0  0  0  0  0  0  0  0  0  0
   65.8853   -3.3525   -5.6710 H   0  0  0  0  0  0  0  0  0  0  0  0
   65.8935   -3.3072   -8.8979 H   0  0  0  0  0  0  0  0  0  0  0  0
   66.5582   -7.1619   -8.1536 H   0  0  0  0  0  0  0  0  0  0  0  0
   62.1393   -7.5556   -5.4708 O   0  0  0  0  0  0  0  0  0  0  0  0
   63.3503   -8.2224   -5.5464 C   0  0  0  0  0  0  0  0  0  0  0  0
   61.9263   -7.2074   -6.3709 H   0  0  0  0  0  0  0  0  0  0  0  0
   63.2506   -7.5728   -8.3783 C   0  0  0  0  0  0  0  0  0  0  0  0
   63.3000   -8.5517   -9.3717 O   0  0  0  0  0  0  0  0  0  0  0  0
   62.3081   -9.8381   -8.9298 P   0  0  0  0  0  0  0  0  0  0  0  0
   61.0810   -9.3027   -7.8853 O   0  0  0  0  0  0  0  0  0  0  0  0
   61.5216  -10.5220  -10.2717 O   0  0  0  0  0  0  0  0  0  0  0  0
   63.1479  -10.9186   -8.3100 O   0  0  0  0  0  0  0  0  0  0  0  0
   61.4930   -8.8488   -7.1064 H   0  0  0  0  0  0  0  0  0  0  0  0
   60.9738   -9.7911  -10.6786 H   0  0  0  0  0  0  0  0  0  0  0  0
 15 16  1  0  0  0
 16  1  1  0  0  0
  1  2  1  0  0  0
  2  3  1  0  0  0
  2  4  1  0  0  0
  4  5  1  0  0  0
  4  6  1  0  0  0
  6  7  1  0  0  0
  6  8  1  0  0  0
  8  9  1  0  0  0
  9 10  1  0  0  0
 10 18  1  0  0  0
 18 19  1  0  0  0
 19 20  1  0  0  0
 20 21  1  0  0  0
 20 22  1  0  0  0
 20 23  2  0  0  0
 10  1  1  0  0  0
 15 17  1  0  0  0
  3 11  1  0  0  0
  5 12  1  0  0  0
  7 13  1  0  0  0
  9 14  1  0  0  0
 21 24  1  0  0  0
 22 25  1  0  0  0
M  END
> <minimizedAffinity>
-2.74935

> <CNNscore>
0.2439559400

> <CNNaffinity>
2.7746605873

> <CNN_VS>
0.6768949032

> <CNNaffinity_variance>
0.0277338810

$$$$
[H]c1c([H])c([H])c2c(c1[H])c1c3c(c4c5c([H])c([H])c([H])c([H])c5n5c4c1n2[C@@]1(C([H])([H])[H])O[C@]5([H])C([H])([H])[C@]([H])(N([H])C([H])([H])[H])[C@@]1([H])OC([H])([H])[H])C(=O)N([H])C3([H])[H]


 37 44  0  0  0  0  0  0  0  0999 V2000
   55.9448   -4.9238   -3.3517 C   0  0  0  0  0  0  0  0  0  0  0  0
   56.8992   -5.4721   -4.4135 C   0  0  0  0  0  0  0  0  0  0  0  0
   56.2219   -6.5062   -5.2547 C   0  0  0  0  0  0  0  0  0  0  0  0
   55.2996   -7.2570   -4.7129 O   0  0  0  0  0  0  0  0  0  0  0  0
   54.4645   -6.8301   -3.6916 C   0  0  0  0  0  0  0  0  0  0  0  0
   53.9074   -8.1415   -3.1651 C   0  0  0  0  0  0  0  0  0  0  0  0
   55.3165   -6.1021   -2.7002 C   0  0  0  0  0  0  0  0  0  0  0  0
   53.4055   -6.0304   -4.3126 N   0  0  0  0  0  0  0  0  0  0  0  0
   52.1690   -5.8191   -3.8259 C   0  0  0  0  0  0  0  0  0  0  0  0
   51.5415   -6.1918   -2.6838 C   0  0  0  0  0  0  0  0  0  0  0  0
   50.2362   -5.8372   -2.4138 C   0  0  0  0  0  0  0  0  0  0  0  0
   49.4862   -5.0751   -3.2989 C   0  0  0  0  0  0  0  0  0  0  0  0
   50.1110   -4.6889   -4.4634 C   0  0  0  0  0  0  0  0  0  0  0  0
   51.4086   -5.0491   -4.7175 C   0  0  0  0  0  0  0  0  0  0  0  0
   52.2186   -4.7864   -5.7790 C   0  0  0  0  0  0  0  0  0  0  0  0
   52.0156   -4.0840   -6.9520 C   0  0  0  0  0  0  0  0  0  0  0  0
   50.8176   -3.3587   -7.4519 C   0  0  0  0  0  0  0  0  0  0  0  0
   51.1637   -2.8212   -8.7244 N   0  0  0  0  0  0  0  0  0  0  0  0
   52.5133   -3.1732   -9.0236 C   0  0  0  0  0  0  0  0  0  0  0  0
   53.0552   -2.8222  -10.0715 O   0  0  0  0  0  0  0  0  0  0  0  0
   53.0239   -3.9530   -7.9178 C   0  0  0  0  0  0  0  0  0  0  0  0
   54.2288   -4.5648   -7.6269 C   0  0  0  0  0  0  0  0  0  0  0  0
   55.4442   -4.6559   -8.2880 C   0  0  0  0  0  0  0  0  0  0  0  0
   55.8825   -4.1836   -9.4773 C   0  0  0  0  0  0  0  0  0  0  0  0
   57.2024   -4.4515   -9.8794 C   0  0  0  0  0  0  0  0  0  0  0  0
   58.0273   -5.1819   -9.0719 C   0  0  0  0  0  0  0  0  0  0  0  0
   57.6114   -5.6762   -7.8567 C   0  0  0  0  0  0  0  0  0  0  0  0
   56.3163   -5.4012   -7.4848 C   0  0  0  0  0  0  0  0  0  0  0  0
   55.6595   -5.7465   -6.3873 N   0  0  0  0  0  0  0  0  0  0  0  0
   54.4089   -5.2663   -6.4387 C   0  0  0  0  0  0  0  0  0  0  0  0
   53.3998   -5.3870   -5.4985 C   0  0  0  0  0  0  0  0  0  0  0  0
   50.5121   -2.2611   -9.3230 H   0  0  0  0  0  0  0  0  0  0  0  0
   57.7677   -4.3704   -1.8369 C   0  0  0  0  0  0  0  0  0  0  0  0
   56.5901   -3.9829   -2.5144 N   0  0  0  0  0  0  0  0  0  0  0  0
   56.6517   -3.0243   -2.8787 H   0  0  0  0  0  0  0  0  0  0  0  0
   54.6765   -5.6955   -1.5654 O   0  0  0  0  0  0  0  0  0  0  0  0
   54.9574   -6.2980   -0.3749 C   0  0  0  0  0  0  0  0  0  0  0  0
 33 34  1  0  0  0
 34  1  1  0  0  0
  1  2  1  0  0  0
  2  3  1  0  0  0
  3  4  1  0  0  0
  4  5  1  0  0  0
  5  6  1  0  0  0
  5  7  1  0  0  0
  7 36  1  0  0  0
 36 37  1  0  0  0
  5  8  1  0  0  0
  8  9  1  0  0  0
  9 10  2  0  0  0
 10 11  1  0  0  0
 11 12  2  0  0  0
 12 13  1  0  0  0
 13 14  2  0  0  0
 14 15  1  0  0  0
 15 16  2  0  0  0
 16 17  1  0  0  0
 17 18  1  0  0  0
 18 19  1  0  0  0
 19 20  2  0  0  0
 19 21  1  0  0  0
 21 22  2  0  0  0
 22 23  1  0  0  0
 23 24  2  0  0  0
 24 25  1  0  0  0
 25 26  2  0  0  0
 26 27  1  0  0  0
 27 28  2  0  0  0
 28 29  1  0  0  0
 29 30  1  0  0  0
 30 31  2  0  0  0
  7  1  1  0  0  0
 31  8  1  0  0  0
 29  3  1  0  0  0
 14  9  1  0  0  0
 31 15  1  0  0  0
 21 16  1  0  0  0
 30 22  1  0  0  0
 28 23  1  0  0  0
 34 35  1  0  0  0
 18 32  1  0  0  0
M  END
> <minimizedAffinity>
-12.56109

> <CNNscore>
0.8497571349

> <CNNaffinity>
7.3901948929

> <CNN_VS>
6.2798709869

> <CNNaffinity_variance>
0.0992473662

$$$$
[H]c1c([H])c([H])c2c(c1[H])c1c3c(c4c5c([H])c([H])c([H])c([H])c5n5c4c1n2[C@@]1(C([H])([H])[H])O[C@]5([H])C([H])([H])[C@]([H])(N([H])C([H])([H])[H])[C@@]1([H])OC([H])([H])[H])C(=O)N([H])C3([H])[H]


 37 44  0  0  0  0  0  0  0  0999 V2000
   62.7539   -9.4769   -8.5143 C   0  0  0  0  0  0  0  0  0  0  0  0
   63.5177   -8.6796   -7.4563 C   0  0  0  0  0  0  0  0  0  0  0  0
   64.9848   -8.6815   -7.7447 C   0  0  0  0  0  0  0  0  0  0  0  0
   65.5135   -9.7259   -8.3258 O   0  0  0  0  0  0  0  0  0  0  0  0
   64.8336  -10.5272   -9.2304 C   0  0  0  0  0  0  0  0  0  0  0  0
   65.7034  -11.7717   -9.2717 C   0  0  0  0  0  0  0  0  0  0  0  0
   63.4693  -10.7703   -8.6660 C   0  0  0  0  0  0  0  0  0  0  0  0
   64.8620   -9.8332  -10.5204 N   0  0  0  0  0  0  0  0  0  0  0  0
   64.7647  -10.3976  -11.7380 C   0  0  0  0  0  0  0  0  0  0  0  0
   64.5772  -11.6714  -12.1617 C   0  0  0  0  0  0  0  0  0  0  0  0
   64.5114  -11.9979  -13.5001 C   0  0  0  0  0  0  0  0  0  0  0  0
   64.6335  -11.0378  -14.4951 C   0  0  0  0  0  0  0  0  0  0  0  0
   64.8241   -9.7391  -14.0794 C   0  0  0  0  0  0  0  0  0  0  0  0
   64.8874   -9.4304  -12.7457 C   0  0  0  0  0  0  0  0  0  0  0  0
   65.0635   -8.2399  -12.1103 C   0  0  0  0  0  0  0  0  0  0  0  0
   65.2439   -6.9527  -12.5806 C   0  0  0  0  0  0  0  0  0  0  0  0
   65.2996   -6.4282  -13.9709 C   0  0  0  0  0  0  0  0  0  0  0  0
   65.5119   -5.0236  -13.8722 N   0  0  0  0  0  0  0  0  0  0  0  0
   65.5801   -4.6618  -12.4940 C   0  0  0  0  0  0  0  0  0  0  0  0
   65.7545   -3.4960  -12.1401 O   0  0  0  0  0  0  0  0  0  0  0  0
   65.4124   -5.8659  -11.7105 C   0  0  0  0  0  0  0  0  0  0  0  0
   65.3858   -6.1576  -10.3597 C   0  0  0  0  0  0  0  0  0  0  0  0
   65.4954   -5.3915   -9.2091 C   0  0  0  0  0  0  0  0  0  0  0  0
   65.6851   -4.0689   -8.9989 C   0  0  0  0  0  0  0  0  0  0  0  0
   65.7550   -3.5850   -7.6811 C   0  0  0  0  0  0  0  0  0  0  0  0
   65.6316   -4.4481   -6.6294 C   0  0  0  0  0  0  0  0  0  0  0  0
   65.4379   -5.7986   -6.8102 C   0  0  0  0  0  0  0  0  0  0  0  0
   65.3729   -6.2483   -8.1082 C   0  0  0  0  0  0  0  0  0  0  0  0
   65.1977   -7.4776   -8.5701 N   0  0  0  0  0  0  0  0  0  0  0  0
   65.2025   -7.4618   -9.9107 C   0  0  0  0  0  0  0  0  0  0  0  0
   65.0408   -8.5225  -10.7858 C   0  0  0  0  0  0  0  0  0  0  0  0
   65.6000   -4.3830  -14.6958 H   0  0  0  0  0  0  0  0  0  0  0  0
   60.9470   -9.3145   -6.8918 C   0  0  0  0  0  0  0  0  0  0  0  0
   61.3699   -9.5278   -8.2227 N   0  0  0  0  0  0  0  0  0  0  0  0
   60.7498   -9.0716   -8.9030 H   0  0  0  0  0  0  0  0  0  0  0  0
   62.6864  -11.6320   -9.3781 O   0  0  0  0  0  0  0  0  0  0  0  0
   62.5147  -12.9121   -8.9409 C   0  0  0  0  0  0  0  0  0  0  0  0
 33 34  1  0  0  0
 34  1  1  0  0  0
  1  2  1  0  0  0
  2  3  1  0  0  0
  3  4  1  0  0  0
  4  5  1  0  0  0
  5  6  1  0  0  0
  5  7  1  0  0  0
  7 36  1  0  0  0
 36 37  1  0  0  0
  5  8  1  0  0  0
  8  9  1  0  0  0
  9 10  2  0  0  0
 10 11  1  0  0  0
 11 12  2  0  0  0
 12 13  1  0  0  0
 13 14  2  0  0  0
 14 15  1  0  0  0
 15 16  2  0  0  0
 16 17  1  0  0  0
 17 18  1  0  0  0
 18 19  1  0  0  0
 19 20  2  0  0  0
 19 21  1  0  0  0
 21 22  2  0  0  0
 22 23  1  0  0  0
 23 24  2  0  0  0
 24 25  1  0  0  0
 25 26  2  0  0  0
 26 27  1  0  0  0
 27 28  2  0  0  0
 28 29  1  0  0  0
 29 30  1  0  0  0
 30 31  2  0  0  0
  7  1  1  0  0  0
 31  8  1  0  0  0
 29  3  1  0  0  0
 14  9  1  0  0  0
 31 15  1  0  0  0
 21 16  1  0  0  0
 30 22  1  0  0  0
 28 23  1  0  0  0
 34 35  1  0  0  0
 18 32  1  0  0  0
M  END
> <minimizedAffinity>
-1.63894

> <CNNscore>
0.5404662490

> <CNNaffinity>
5.2125878334

> <CNN_VS>
2.8172278404

> <CNNaffinity_variance>
0.2537621260

$$$$
[H]c1c([H])c([H])c2c(c1[H])c1c3c(c4c5c([H])c([H])c([H])c([H])c5n5c4c1n2[C@@]1(C([H])([H])[H])O[C@]5([H])C([H])([H])[C@]([H])(N([H])C([H])([H])[H])[C@@]1([H])OC([H])([H])[H])C(=O)N([H])C3([H])[H]


 37 44  0  0  0  0  0  0  0  0999 V2000
   60.6332   -4.1245  -16.1369 C   0  0  0  0  0  0  0  0  0  0  0  0
   60.8141   -5.3070  -17.0897 C   0  0  0  0  0  0  0  0  0  0  0  0
   62.2379   -5.4212  -17.5319 C   0  0  0  0  0  0  0  0  0  0  0  0
   62.9521   -4.3333  -17.6509 O   0  0  0  0  0  0  0  0  0  0  0  0
   62.7707   -3.2061  -16.8641 C   0  0  0  0  0  0  0  0  0  0  0  0
   63.5180   -2.1433  -17.6510 C   0  0  0  0  0  0  0  0  0  0  0  0
   61.2972   -2.9604  -16.7783 C   0  0  0  0  0  0  0  0  0  0  0  0
   63.4366   -3.4667  -15.5853 N   0  0  0  0  0  0  0  0  0  0  0  0
   63.9227   -2.5476  -14.7313 C   0  0  0  0  0  0  0  0  0  0  0  0
   63.9276   -1.1922  -14.7256 C   0  0  0  0  0  0  0  0  0  0  0  0
   64.5061   -0.4642  -13.7070 C   0  0  0  0  0  0  0  0  0  0  0  0
   65.1192   -1.0792  -12.6240 C   0  0  0  0  0  0  0  0  0  0  0  0
   65.1216   -2.4560  -12.6162 C   0  0  0  0  0  0  0  0  0  0  0  0
   64.5425   -3.1654  -13.6358 C   0  0  0  0  0  0  0  0  0  0  0  0
   64.4233   -4.5059  -13.8379 C   0  0  0  0  0  0  0  0  0  0  0  0
   64.8435   -5.5981  -13.1023 C   0  0  0  0  0  0  0  0  0  0  0  0
   65.5769   -5.6721  -11.8109 C   0  0  0  0  0  0  0  0  0  0  0  0
   65.7540   -7.0543  -11.5174 N   0  0  0  0  0  0  0  0  0  0  0  0
   65.1593   -7.8280  -12.5579 C   0  0  0  0  0  0  0  0  0  0  0  0
   65.1736   -9.0586  -12.5366 O   0  0  0  0  0  0  0  0  0  0  0  0
   64.6016   -6.9121  -13.5283 C   0  0  0  0  0  0  0  0  0  0  0  0
   63.9192   -7.0491  -14.7225 C   0  0  0  0  0  0  0  0  0  0  0  0
   63.4816   -8.1392  -15.4593 C   0  0  0  0  0  0  0  0  0  0  0  0
   63.5829   -9.4753  -15.2745 C   0  0  0  0  0  0  0  0  0  0  0  0
   63.0221  -10.3455  -16.2252 C   0  0  0  0  0  0  0  0  0  0  0  0
   62.3833   -9.8392  -17.3214 C   0  0  0  0  0  0  0  0  0  0  0  0
   62.2637   -8.4854  -17.5380 C   0  0  0  0  0  0  0  0  0  0  0  0
   62.8200   -7.6540  -16.5943 C   0  0  0  0  0  0  0  0  0  0  0  0
   62.8554   -6.3304  -16.5479 N   0  0  0  0  0  0  0  0  0  0  0  0
   63.5062   -5.9338  -15.4450 C   0  0  0  0  0  0  0  0  0  0  0  0
   63.7572   -4.6439  -15.0092 C   0  0  0  0  0  0  0  0  0  0  0  0
   66.2458   -7.4164  -10.6668 H   0  0  0  0  0  0  0  0  0  0  0  0
   58.9464   -4.0611  -14.3835 C   0  0  0  0  0  0  0  0  0  0  0  0
   59.2793   -3.9731  -15.7536 N   0  0  0  0  0  0  0  0  0  0  0  0
   58.7573   -3.2281  -16.2309 H   0  0  0  0  0  0  0  0  0  0  0  0
   60.9311   -1.8210  -16.1222 O   0  0  0  0  0  0  0  0  0  0  0  0
   60.7428   -1.8461  -14.7720 C   0  0  0  0  0  0  0  0  0  0  0  0
 33 34  1  0  0  0
 34  1  1  0  0  0
  1  2  1  0  0  0
  2  3  1  0  0  0
  3  4  1  0  0  0
  4  5  1  0  0  0
  5  6  1  0  0  0
  5  7  1  0  0  0
  7 36  1  0  0  0
 36 37  1  0  0  0
  5  8  1  0  0  0
  8  9  1  0  0  0
  9 10  2  0  0  0
 10 11  1  0  0  0
 11 12  2  0  0  0
 12 13  1  0  0  0
 13 14  2  0  0  0
 14 15  1  0  0  0
 15 16  2  0  0  0
 16 17  1  0  0  0
 17 18  1  0  0  0
 18 19  1  0  0  0
 19 20  2  0  0  0
 19 21  1  0  0  0
 21 22  2  0  0  0
 22 23  1  0  0  0
 23 24  2  0  0  0
 24 25  1  0  0  0
 25 26  2  0  0  0
 26 27  1  0  0  0
 27 28  2  0  0  0
 28 29  1  0  0  0
 29 30  1  0  0  0
 30 31  2  0  0  0
  7  1  1  0  0  0
 31  8  1  0  0  0
 29  3  1  0  0  0
 14  9  1  0  0  0
 31 15  1  0  0  0
 21 16  1  0  0  0
 30 22  1  0  0  0
 28 23  1  0  0  0
 34 35  1  0  0  0
 18 32  1  0  0  0
M  END
> <minimizedAffinity>
1.29989

> <CNNscore>
0.4284169674

> <CNNaffinity>
4.6970815659

> <CNN_VS>
2.0123095512

> <CNNaffinity_variance>
0.0892950892

$$$$
[H]c1c([H])c([H])c2c(c1[H])c1c3c(c4c5c([H])c([H])c([H])c([H])c5n5c4c1n2[C@@]1(C([H])([H])[H])O[C@]5([H])C([H])([H])[C@]([H])(N([H])C([H])([H])[H])[C@@]1([H])OC([H])([H])[H])C(=O)N([H])C3([H])[H]


 37 44  0  0  0  0  0  0  0  0999 V2000
   56.3787   -4.9651  -12.6513 C   0  0  0  0  0  0  0  0  0  0  0  0
   57.3565   -4.1761  -13.5232 C   0  0  0  0  0  0  0  0  0  0  0  0
   58.1871   -3.2533  -12.6899 C   0  0  0  0  0  0  0  0  0  0  0  0
   57.6659   -2.7359  -11.6089 O   0  0  0  0  0  0  0  0  0  0  0  0
   56.7159   -3.3798  -10.8309 C   0  0  0  0  0  0  0  0  0  0  0  0
   56.1628   -2.2398   -9.9932 C   0  0  0  0  0  0  0  0  0  0  0  0
   55.7112   -3.9767  -11.7653 C   0  0  0  0  0  0  0  0  0  0  0  0
   57.4338   -4.3397   -9.9884 N   0  0  0  0  0  0  0  0  0  0  0  0
   57.0304   -4.8232   -8.7993 C   0  0  0  0  0  0  0  0  0  0  0  0
   55.9108   -4.6503   -8.0551 C   0  0  0  0  0  0  0  0  0  0  0  0
   55.7340   -5.2754   -6.8384 C   0  0  0  0  0  0  0  0  0  0  0  0
   56.6956   -6.1212   -6.3030 C   0  0  0  0  0  0  0  0  0  0  0  0
   57.8384   -6.3066   -7.0483 C   0  0  0  0  0  0  0  0  0  0  0  0
   57.9994   -5.6784   -8.2556 C   0  0  0  0  0  0  0  0  0  0  0  0
   59.0229   -5.7115   -9.1519 C   0  0  0  0  0  0  0  0  0  0  0  0
   60.2369   -6.3724   -9.1529 C   0  0  0  0  0  0  0  0  0  0  0  0
   60.8387   -7.2944   -8.1535 C   0  0  0  0  0  0  0  0  0  0  0  0
   62.1123   -7.6777   -8.6624 N   0  0  0  0  0  0  0  0  0  0  0  0
   62.3158   -7.0445   -9.9244 C   0  0  0  0  0  0  0  0  0  0  0  0
   63.3454   -7.2187  -10.5759 O   0  0  0  0  0  0  0  0  0  0  0  0
   61.1473   -6.2422  -10.2116 C   0  0  0  0  0  0  0  0  0  0  0  0
   60.7586   -5.4179  -11.2508 C   0  0  0  0  0  0  0  0  0  0  0  0
   61.3429   -5.0462  -12.4522 C   0  0  0  0  0  0  0  0  0  0  0  0
   62.5250   -5.3518  -13.0339 C   0  0  0  0  0  0  0  0  0  0  0  0
   62.8367   -4.8011  -14.2890 C   0  0  0  0  0  0  0  0  0  0  0  0
   61.9496   -3.9668  -14.9078 C   0  0  0  0  0  0  0  0  0  0  0  0
   60.7392   -3.6365  -14.3422 C   0  0  0  0  0  0  0  0  0  0  0  0
   60.4566   -4.1875  -13.1143 C   0  0  0  0  0  0  0  0  0  0  0  0
   59.3844   -4.0448  -12.3492 N   0  0  0  0  0  0  0  0  0  0  0  0
   59.5309   -4.7634  -11.2269 C   0  0  0  0  0  0  0  0  0  0  0  0
   58.6465   -4.9023  -10.1708 C   0  0  0  0  0  0  0  0  0  0  0  0
   62.7731   -8.3225   -8.1682 H   0  0  0  0  0  0  0  0  0  0  0  0
   55.6542   -5.7400  -14.8419 C   0  0  0  0  0  0  0  0  0  0  0  0
   55.5494   -5.8029  -13.4345 N   0  0  0  0  0  0  0  0  0  0  0  0
   55.4383   -6.7672  -13.0981 H   0  0  0  0  0  0  0  0  0  0  0  0
   54.6357   -4.5679  -11.1684 O   0  0  0  0  0  0  0  0  0  0  0  0
   53.7208   -3.8028  -10.5073 C   0  0  0  0  0  0  0  0  0  0  0  0
 33 34  1  0  0  0
 34  1  1  0  0  0
  1  2  1  0  0  0
  2  3  1  0  0  0
  3  4  1  0  0  0
  4  5  1  0  0  0
  5  6  1  0  0  0
  5  7  1  0  0  0
  7 36  1  0  0  0
 36 37  1  0  0  0
  5  8  1  0  0  0
  8  9  1  0  0  0
  9 10  2  0  0  0
 10 11  1  0  0  0
 11 12  2  0  0  0
 12 13  1  0  0  0
 13 14  2  0  0  0
 14 15  1  0  0  0
 15 16  2  0  0  0
 16 17  1  0  0  0
 17 18  1  0  0  0
 18 19  1  0  0  0
 19 20  2  0  0  0
 19 21  1  0  0  0
 21 22  2  0  0  0
 22 23  1  0  0  0
 23 24  2  0  0  0
 24 25  1  0  0  0
 25 26  2  0  0  0
 26 27  1  0  0  0
 27 28  2  0  0  0
 28 29  1  0  0  0
 29 30  1  0  0  0
 30 31  2  0  0  0
  7  1  1  0  0  0
 31  8  1  0  0  0
 29  3  1  0  0  0
 14  9  1  0  0  0
 31 15  1  0  0  0
 21 16  1  0  0  0
 30 22  1  0  0  0
 28 23  1  0  0  0
 34 35  1  0  0  0
 18 32  1  0  0  0
M  END
> <minimizedAffinity>
4.65982

> <CNNscore>
0.3894501030

> <CNNaffinity>
5.7759823799

> <CNN_VS>
2.2494568825

> <CNNaffinity_variance>
0.1881013066

$$$$
[H]c1c([H])c([H])c2c(c1[H])c1c3c(c4c5c([H])c([H])c([H])c([H])c5n5c4c1n2[C@@]1(C([H])([H])[H])O[C@]5([H])C([H])([H])[C@]([H])(N([H])C([H])([H])[H])[C@@]1([H])OC([H])([H])[H])C(=O)N([H])C3([H])[H]


 37 44  0  0  0  0  0  0  0  0999 V2000
   61.0217   -8.4239   -9.6464 C   0  0  0  0  0  0  0  0  0  0  0  0
   60.2841   -7.9253   -8.4030 C   0  0  0  0  0  0  0  0  0  0  0  0
   60.5802   -6.4813   -8.1518 C   0  0  0  0  0  0  0  0  0  0  0  0
   61.7521   -6.0090   -8.4856 O   0  0  0  0  0  0  0  0  0  0  0  0
   62.4949   -6.4842   -9.5557 C   0  0  0  0  0  0  0  0  0  0  0  0
   63.8758   -5.9251   -9.2597 C   0  0  0  0  0  0  0  0  0  0  0  0
   62.4323   -7.9783   -9.5074 C   0  0  0  0  0  0  0  0  0  0  0  0
   61.9382   -5.8738  -10.7658 N   0  0  0  0  0  0  0  0  0  0  0  0
   62.5839   -5.6593  -11.9266 C   0  0  0  0  0  0  0  0  0  0  0  0
   63.8353   -5.9442  -12.3626 C   0  0  0  0  0  0  0  0  0  0  0  0
   64.2649   -5.6109  -13.6302 C   0  0  0  0  0  0  0  0  0  0  0  0
   63.4379   -4.9620  -14.5368 C   0  0  0  0  0  0  0  0  0  0  0  0
   62.1635   -4.6665  -14.1077 C   0  0  0  0  0  0  0  0  0  0  0  0
   61.7513   -5.0041  -12.8451 C   0  0  0  0  0  0  0  0  0  0  0  0
   60.5601   -4.8194  -12.2135 C   0  0  0  0  0  0  0  0  0  0  0  0
   59.3758   -4.2310  -12.6158 C   0  0  0  0  0  0  0  0  0  0  0  0
   58.9993   -3.5957  -13.9064 C   0  0  0  0  0  0  0  0  0  0  0  0
   57.6539   -3.1498  -13.7681 N   0  0  0  0  0  0  0  0  0  0  0  0
   57.1866   -3.4875  -12.4632 C   0  0  0  0  0  0  0  0  0  0  0  0
   56.0449   -3.2125  -12.0949 O   0  0  0  0  0  0  0  0  0  0  0  0
   58.2633   -4.1549  -11.7654 C   0  0  0  0  0  0  0  0  0  0  0  0
   58.4209   -4.7026  -10.5062 C   0  0  0  0  0  0  0  0  0  0  0  0
   57.5861   -4.8421   -9.4079 C   0  0  0  0  0  0  0  0  0  0  0  0
   56.3068   -4.4719   -9.1715 C   0  0  0  0  0  0  0  0  0  0  0  0
   55.7258   -4.7625   -7.9251 C   0  0  0  0  0  0  0  0  0  0  0  0
   56.4523   -5.4122   -6.9680 C   0  0  0  0  0  0  0  0  0  0  0  0
   57.7555   -5.8018   -7.1776 C   0  0  0  0  0  0  0  0  0  0  0  0
   58.3022   -5.5066   -8.4045 C   0  0  0  0  0  0  0  0  0  0  0  0
   59.5157   -5.7581   -8.8729 N   0  0  0  0  0  0  0  0  0  0  0  0
   59.6233   -5.2898  -10.1245 C   0  0  0  0  0  0  0  0  0  0  0  0
   60.7119   -5.3527  -10.9777 C   0  0  0  0  0  0  0  0  0  0  0  0
   57.1180   -2.6559  -14.5200 H   0  0  0  0  0  0  0  0  0  0  0  0
   60.8739  -10.3069  -11.1814 C   0  0  0  0  0  0  0  0  0  0  0  0
   60.7922   -9.8033   -9.8640 N   0  0  0  0  0  0  0  0  0  0  0  0
   61.2133  -10.4429   -9.1791 H   0  0  0  0  0  0  0  0  0  0  0  0
   63.1978   -8.6264  -10.4328 O   0  0  0  0  0  0  0  0  0  0  0  0
   62.8299   -9.8640  -10.8714 C   0  0  0  0  0  0  0  0  0  0  0  0
 33 34  1  0  0  0
 34  1  1  0  0  0
  1  2  1  0  0  0
  2  3  1  0  0  0
  3  4  1  0  0  0
  4  5  1  0  0  0
  5  6  1  0  0  0
  5  7  1  0  0  0
  7 36  1  0  0  0
 36 37  1  0  0  0
  5  8  1  0  0  0
  8  9  1  0  0  0
  9 10  2  0  0  0
 10 11  1  0  0  0
 11 12  2  0  0  0
 12 13  1  0  0  0
 13 14  2  0  0  0
 14 15  1  0  0  0
 15 16  2  0  0  0
 16 17  1  0  0  0
 17 18  1  0  0  0
 18 19  1  0  0  0
 19 20  2  0  0  0
 19 21  1  0  0  0
 21 22  2  0  0  0
 22 23  1  0  0  0
 23 24  2  0  0  0
 24 25  1  0  0  0
 25 26  2  0  0  0
 26 27  1  0  0  0
 27 28  2  0  0  0
 28 29  1  0  0  0
 29 30  1  0  0  0
 30 31  2  0  0  0
  7  1  1  0  0  0
 31  8  1  0  0  0
 29  3  1  0  0  0
 14  9  1  0  0  0
 31 15  1  0  0  0
 21 16  1  0  0  0
 30 22  1  0  0  0
 28 23  1  0  0  0
 34 35  1  0  0  0
 18 32  1  0  0  0
M  END
> <minimizedAffinity>
2.95904

> <CNNscore>
0.3398292661

> <CNNaffinity>
5.2572631836

> <CNN_VS>
1.7865718603

> <CNNaffinity_variance>
0.0771558732

$$$$
[H]c1c([H])c([H])c2c(c1[H])c1c3c(c4c5c([H])c([H])c([H])c([H])c5n5c4c1n2[C@@]1(C([H])([H])[H])O[C@]5([H])C([H])([H])[C@]([H])(N([H])C([H])([H])[H])[C@@]1([H])OC([H])([H])[H])C(=O)N([H])C3([H])[H]


 37 44  0  0  0  0  0  0  0  0999 V2000
   58.1757   -4.3339  -14.8587 C   0  0  0  0  0  0  0  0  0  0  0  0
   59.0724   -3.4506  -15.7273 C   0  0  0  0  0  0  0  0  0  0  0  0
   60.0397   -2.6825  -14.8846 C   0  0  0  0  0  0  0  0  0  0  0  0
   59.6794   -2.3167  -13.6828 O   0  0  0  0  0  0  0  0  0  0  0  0
   58.8050   -3.0433  -12.8891 C   0  0  0  0  0  0  0  0  0  0  0  0
   58.4107   -2.0253  -11.8331 C   0  0  0  0  0  0  0  0  0  0  0  0
   57.6672   -3.4698  -13.7621 C   0  0  0  0  0  0  0  0  0  0  0  0
   59.5782   -4.1351  -12.2918 N   0  0  0  0  0  0  0  0  0  0  0  0
   59.3036   -4.7779  -11.1420 C   0  0  0  0  0  0  0  0  0  0  0  0
   58.2932   -4.6877  -10.2431 C   0  0  0  0  0  0  0  0  0  0  0  0
   58.2405   -5.4804   -9.1156 C   0  0  0  0  0  0  0  0  0  0  0  0
   59.2223   -6.4205   -8.8347 C   0  0  0  0  0  0  0  0  0  0  0  0
   60.2550   -6.5235   -9.7395 C   0  0  0  0  0  0  0  0  0  0  0  0
   60.2934   -5.7287  -10.8553 C   0  0  0  0  0  0  0  0  0  0  0  0
   61.1960   -5.6559  -11.8712 C   0  0  0  0  0  0  0  0  0  0  0  0
   62.3701   -6.3406  -12.1227 C   0  0  0  0  0  0  0  0  0  0  0  0
   63.0492   -7.4151  -11.3510 C   0  0  0  0  0  0  0  0  0  0  0  0
   64.2319   -7.7520  -12.0689 N   0  0  0  0  0  0  0  0  0  0  0  0
   64.3059   -6.9453  -13.2431 C   0  0  0  0  0  0  0  0  0  0  0  0
   65.2385   -7.0483  -14.0398 O   0  0  0  0  0  0  0  0  0  0  0  0
   63.1476   -6.0795  -13.2601 C   0  0  0  0  0  0  0  0  0  0  0  0
   62.6706   -5.1013  -14.1122 C   0  0  0  0  0  0  0  0  0  0  0  0
   63.1180   -4.5719  -15.3132 C   0  0  0  0  0  0  0  0  0  0  0  0
   64.2046   -4.8190  -16.0798 C   0  0  0  0  0  0  0  0  0  0  0  0
   64.3830   -4.0976  -17.2729 C   0  0  0  0  0  0  0  0  0  0  0  0
   63.4641   -3.1586  -17.6469 C   0  0  0  0  0  0  0  0  0  0  0  0
   62.3487   -2.8840  -16.8890 C   0  0  0  0  0  0  0  0  0  0  0  0
   62.1957   -3.6024  -15.7264 C   0  0  0  0  0  0  0  0  0  0  0  0
   61.2336   -3.5463  -14.8173 N   0  0  0  0  0  0  0  0  0  0  0  0
   61.4854   -4.4259  -13.8374 C   0  0  0  0  0  0  0  0  0  0  0  0
   60.7330   -4.6960  -12.7071 C   0  0  0  0  0  0  0  0  0  0  0  0
   64.9195   -8.4795  -11.7611 H   0  0  0  0  0  0  0  0  0  0  0  0
   56.1038   -4.3148  -16.1358 C   0  0  0  0  0  0  0  0  0  0  0  0
   57.2198   -5.0254  -15.6403 N   0  0  0  0  0  0  0  0  0  0  0  0
   57.5965   -5.6844  -16.3325 H   0  0  0  0  0  0  0  0  0  0  0  0
   56.6484   -4.1145  -13.1225 O   0  0  0  0  0  0  0  0  0  0  0  0
   56.7424   -5.4515  -12.8722 C   0  0  0  0  0  0  0  0  0  0  0  0
 33 34  1  0  0  0
 34  1  1  0  0  0
  1  2  1  0  0  0
  2  3  1  0  0  0
  3  4  1  0  0  0
  4  5  1  0  0  0
  5  6  1  0  0  0
  5  7  1  0  0  0
  7 36  1  0  0  0
 36 37  1  0  0  0
  5  8  1  0  0  0
  8  9  1  0  0  0
  9 10  2  0  0  0
 10 11  1  0  0  0
 11 12  2  0  0  0
 12 13  1  0  0  0
 13 14  2  0  0  0
 14 15  1  0  0  0
 15 16  2  0  0  0
 16 17  1  0  0  0
 17 18  1  0  0  0
 18 19  1  0  0  0
 19 20  2  0  0  0
 19 21  1  0  0  0
 21 22  2  0  0  0
 22 23  1  0  0  0
 23 24  2  0  0  0
 24 25  1  0  0  0
 25 26  2  0  0  0
 26 27  1  0  0  0
 27 28  2  0  0  0
 28 29  1  0  0  0
 29 30  1  0  0  0
 30 31  2  0  0  0
  7  1  1  0  0  0
 31  8  1  0  0  0
 29  3  1  0  0  0
 14  9  1  0  0  0
 31 15  1  0  0  0
 21 16  1  0  0  0
 30 22  1  0  0  0
 28 23  1  0  0  0
 34 35  1  0  0  0
 18 32  1  0  0  0
M  END
> <minimizedAffinity>
6.70829

> <CNNscore>
0.3230097890

> <CNNaffinity>
4.9279341698

> <CNN_VS>
1.5917710066

> <CNNaffinity_variance>
0.0549017414

$$$$
[H]c1c([H])c([H])c2c(c1[H])c1c3c(c4c5c([H])c([H])c([H])c([H])c5n5c4c1n2[C@@]1(C([H])([H])[H])O[C@]5([H])C([H])([H])[C@]([H])(N([H])C([H])([H])[H])[C@@]1([H])OC([H])([H])[H])C(=O)N([H])C3([H])[H]


 37 44  0  0  0  0  0  0  0  0999 V2000
   62.5143   -7.2833  -10.1073 C   0  0  0  0  0  0  0  0  0  0  0  0
   63.2847   -6.4314  -11.1170 C   0  0  0  0  0  0  0  0  0  0  0  0
   64.6709   -6.9579  -11.3095 C   0  0  0  0  0  0  0  0  0  0  0  0
   65.2731   -7.5357  -10.3038 O   0  0  0  0  0  0  0  0  0  0  0  0
   64.6083   -8.2503   -9.3190 C   0  0  0  0  0  0  0  0  0  0  0  0
   65.6578   -8.3385   -8.2245 C   0  0  0  0  0  0  0  0  0  0  0  0
   63.4050   -7.4507   -8.9298 C   0  0  0  0  0  0  0  0  0  0  0  0
   64.3251   -9.5771   -9.8722 N   0  0  0  0  0  0  0  0  0  0  0  0
   64.1410  -10.7143   -9.1769 C   0  0  0  0  0  0  0  0  0  0  0  0
   64.1076  -11.0010   -7.8526 C   0  0  0  0  0  0  0  0  0  0  0  0
   63.8961  -12.2807   -7.3834 C   0  0  0  0  0  0  0  0  0  0  0  0
   63.7042  -13.3535   -8.2430 C   0  0  0  0  0  0  0  0  0  0  0  0
   63.7353  -13.0771   -9.5914 C   0  0  0  0  0  0  0  0  0  0  0  0
   63.9465  -11.8003  -10.0423 C   0  0  0  0  0  0  0  0  0  0  0  0
   64.0147  -11.2971  -11.3048 C   0  0  0  0  0  0  0  0  0  0  0  0
   63.9041  -11.8891  -12.5490 C   0  0  0  0  0  0  0  0  0  0  0  0
   63.6607  -13.3058  -12.9294 C   0  0  0  0  0  0  0  0  0  0  0  0
   63.6474  -13.3528  -14.3526 N   0  0  0  0  0  0  0  0  0  0  0  0
   63.8612  -12.0372  -14.8608 C   0  0  0  0  0  0  0  0  0  0  0  0
   63.8895  -11.8086  -16.0699 O   0  0  0  0  0  0  0  0  0  0  0  0
   64.0176  -11.1459  -13.7327 C   0  0  0  0  0  0  0  0  0  0  0  0
   64.2445   -9.7908  -13.5815 C   0  0  0  0  0  0  0  0  0  0  0  0
   64.3966   -8.7372  -14.4700 C   0  0  0  0  0  0  0  0  0  0  0  0
   64.3918   -8.6644  -15.8206 C   0  0  0  0  0  0  0  0  0  0  0  0
   64.5778   -7.4180  -16.4428 C   0  0  0  0  0  0  0  0  0  0  0  0
   64.7608   -6.2967  -15.6843 C   0  0  0  0  0  0  0  0  0  0  0  0
   64.7709   -6.3376  -14.3087 C   0  0  0  0  0  0  0  0  0  0  0  0
   64.5869   -7.5681  -13.7228 C   0  0  0  0  0  0  0  0  0  0  0  0
   64.5522   -7.8979  -12.4401 N   0  0  0  0  0  0  0  0  0  0  0  0
   64.3519   -9.2179  -12.3179 C   0  0  0  0  0  0  0  0  0  0  0  0
   64.2398   -9.9692  -11.1604 C   0  0  0  0  0  0  0  0  0  0  0  0
   63.5017  -14.2269  -14.9106 H   0  0  0  0  0  0  0  0  0  0  0  0
   60.1233   -7.6553   -9.8459 C   0  0  0  0  0  0  0  0  0  0  0  0
   61.2186   -6.7635   -9.8758 N   0  0  0  0  0  0  0  0  0  0  0  0
   61.1472   -6.0396   -9.1504 H   0  0  0  0  0  0  0  0  0  0  0  0
   62.6790   -7.9543   -7.8897 O   0  0  0  0  0  0  0  0  0  0  0  0
   62.6521   -7.2927   -6.6977 C   0  0  0  0  0  0  0  0  0  0  0  0
 33 34  1  0  0  0
 34  1  1  0  0  0
  1  2  1  0  0  0
  2  3  1  0  0  0
  3  4  1  0  0  0
  4  5  1  0  0  0
  5  6  1  0  0  0
  5  7  1  0  0  0
  7 36  1  0  0  0
 36 37  1  0  0  0
  5  8  1  0  0  0
  8  9  1  0  0  0
  9 10  2  0  0  0
 10 11  1  0  0  0
 11 12  2  0  0  0
 12 13  1  0  0  0
 13 14  2  0  0  0
 14 15  1  0  0  0
 15 16  2  0  0  0
 16 17  1  0  0  0
 17 18  1  0  0  0
 18 19  1  0  0  0
 19 20  2  0  0  0
 19 21  1  0  0  0
 21 22  2  0  0  0
 22 23  1  0  0  0
 23 24  2  0  0  0
 24 25  1  0  0  0
 25 26  2  0  0  0
 26 27  1  0  0  0
 27 28  2  0  0  0
 28 29  1  0  0  0
 29 30  1  0  0  0
 30 31  2  0  0  0
  7  1  1  0  0  0
 31  8  1  0  0  0
 29  3  1  0  0  0
 14  9  1  0  0  0
 31 15  1  0  0  0
 21 16  1  0  0  0
 30 22  1  0  0  0
 28 23  1  0  0  0
 34 35  1  0  0  0
 18 32  1  0  0  0
M  END
> <minimizedAffinity>
-2.47387

> <CNNscore>
0.2951741517

> <CNNaffinity>
4.8275251389

> <CNN_VS>
1.4249606133

> <CNNaffinity_variance>
0.0987075120

$$$$
[H]c1c([H])c([H])c2c(c1[H])c1c3c(c4c5c([H])c([H])c([H])c([H])c5n5c4c1n2[C@@]1(C([H])([H])[H])O[C@]5([H])C([H])([H])[C@]([H])(N([H])C([H])([H])[H])[C@@]1([H])OC([H])([H])[H])C(=O)N([H])C3([H])[H]


 37 44  0  0  0  0  0  0  0  0999 V2000
   53.6847   -5.1234   -9.7886 C   0  0  0  0  0  0  0  0  0  0  0  0
   54.1227   -4.1780  -10.9080 C   0  0  0  0  0  0  0  0  0  0  0  0
   55.0858   -3.1557  -10.3949 C   0  0  0  0  0  0  0  0  0  0  0  0
   54.9728   -2.7447   -9.1595 O   0  0  0  0  0  0  0  0  0  0  0  0
   54.5036   -3.5407   -8.1256 C   0  0  0  0  0  0  0  0  0  0  0  0
   54.1828   -2.5146   -7.0526 C   0  0  0  0  0  0  0  0  0  0  0  0
   53.2992   -4.2654   -8.6384 C   0  0  0  0  0  0  0  0  0  0  0  0
   55.6169   -4.3962   -7.7069 N   0  0  0  0  0  0  0  0  0  0  0  0
   55.7861   -4.9583   -6.4962 C   0  0  0  0  0  0  0  0  0  0  0  0
   55.0414   -4.9724   -5.3637 C   0  0  0  0  0  0  0  0  0  0  0  0
   55.4462   -5.6405   -4.2269 C   0  0  0  0  0  0  0  0  0  0  0  0
   56.6439   -6.3402   -4.1760 C   0  0  0  0  0  0  0  0  0  0  0  0
   57.4108   -6.3349   -5.3195 C   0  0  0  0  0  0  0  0  0  0  0  0
   56.9951   -5.6664   -6.4412 C   0  0  0  0  0  0  0  0  0  0  0  0
   57.5736   -5.5260   -7.6650 C   0  0  0  0  0  0  0  0  0  0  0  0
   58.7634   -5.9941   -8.1902 C   0  0  0  0  0  0  0  0  0  0  0  0
   59.8285   -6.8329   -7.5793 C   0  0  0  0  0  0  0  0  0  0  0  0
   60.8341   -7.0078   -8.5722 N   0  0  0  0  0  0  0  0  0  0  0  0
   60.4346   -6.3268   -9.7603 C   0  0  0  0  0  0  0  0  0  0  0  0
   61.1345   -6.3296  -10.7727 O   0  0  0  0  0  0  0  0  0  0  0  0
   59.1531   -5.7064   -9.5062 C   0  0  0  0  0  0  0  0  0  0  0  0
   58.2788   -4.9309  -10.2444 C   0  0  0  0  0  0  0  0  0  0  0  0
   58.2838   -4.4515  -11.5454 C   0  0  0  0  0  0  0  0  0  0  0  0
   59.1673   -4.5623  -12.5636 C   0  0  0  0  0  0  0  0  0  0  0  0
   58.8797   -3.9463  -13.7938 C   0  0  0  0  0  0  0  0  0  0  0  0
   57.7180   -3.2450  -13.9513 C   0  0  0  0  0  0  0  0  0  0  0  0
   56.7993   -3.1139  -12.9350 C   0  0  0  0  0  0  0  0  0  0  0  0
   57.1025   -3.7251  -11.7410 C   0  0  0  0  0  0  0  0  0  0  0  0
   56.4132   -3.7622  -10.6102 N   0  0  0  0  0  0  0  0  0  0  0  0
   57.0865   -4.4716   -9.6933 C   0  0  0  0  0  0  0  0  0  0  0  0
   56.7205   -4.7639   -8.3904 C   0  0  0  0  0  0  0  0  0  0  0  0
   61.7157   -7.5539   -8.4263 H   0  0  0  0  0  0  0  0  0  0  0  0
   52.5960   -6.2668  -11.6410 C   0  0  0  0  0  0  0  0  0  0  0  0
   52.7316   -6.0624  -10.2497 N   0  0  0  0  0  0  0  0  0  0  0  0
   52.6758   -6.9425   -9.7227 H   0  0  0  0  0  0  0  0  0  0  0  0
   52.6372   -5.0249   -7.7178 O   0  0  0  0  0  0  0  0  0  0  0  0
   51.4631   -4.5783   -7.1875 C   0  0  0  0  0  0  0  0  0  0  0  0
 33 34  1  0  0  0
 34  1  1  0  0  0
  1  2  1  0  0  0
  2  3  1  0  0  0
  3  4  1  0  0  0
  4  5  1  0  0  0
  5  6  1  0  0  0
  5  7  1  0  0  0
  7 36  1  0  0  0
 36 37  1  0  0  0
  5  8  1  0  0  0
  8  9  1  0  0  0
  9 10  2  0  0  0
 10 11  1  0  0  0
 11 12  2  0  0  0
 12 13  1  0  0  0
 13 14  2  0  0  0
 14 15  1  0  0  0
 15 16  2  0  0  0
 16 17  1  0  0  0
 17 18  1  0  0  0
 18 19  1  0  0  0
 19 20  2  0  0  0
 19 21  1  0  0  0
 21 22  2  0  0  0
 22 23  1  0  0  0
 23 24  2  0  0  0
 24 25  1  0  0  0
 25 26  2  0  0  0
 26 27  1  0  0  0
 27 28  2  0  0  0
 28 29  1  0  0  0
 29 30  1  0  0  0
 30 31  2  0  0  0
  7  1  1  0  0  0
 31  8  1  0  0  0
 29  3  1  0  0  0
 14  9  1  0  0  0
 31 15  1  0  0  0
 21 16  1  0  0  0
 30 22  1  0  0  0
 28 23  1  0  0  0
 34 35  1  0  0  0
 18 32  1  0  0  0
M  END
> <minimizedAffinity>
10.24392

> <CNNscore>
0.2857989073

> <CNNaffinity>
6.2606673241

> <CNN_VS>
1.7892918587

> <CNNaffinity_variance>
0.2353807390

$$$$
[H]c1c([H])c([H])c2c(c1[H])c1c3c(c4c5c([H])c([H])c([H])c([H])c5n5c4c1n2[C@@]1(C([H])([H])[H])O[C@]5([H])C([H])([H])[C@]([H])(N([H])C([H])([H])[H])[C@@]1([H])OC([H])([H])[H])C(=O)N([H])C3([H])[H]


 37 44  0  0  0  0  0  0  0  0999 V2000
   56.5842   -5.4578   -7.0775 C   0  0  0  0  0  0  0  0  0  0  0  0
   57.3657   -4.6472   -6.0427 C   0  0  0  0  0  0  0  0  0  0  0  0
   56.4628   -3.7057   -5.3117 C   0  0  0  0  0  0  0  0  0  0  0  0
   55.4347   -3.1999   -5.9402 O   0  0  0  0  0  0  0  0  0  0  0  0
   54.7443   -3.8648   -6.9421 C   0  0  0  0  0  0  0  0  0  0  0  0
   53.9629   -2.7373   -7.5941 C   0  0  0  0  0  0  0  0  0  0  0  0
   55.7645   -4.4844   -7.8445 C   0  0  0  0  0  0  0  0  0  0  0  0
   53.8381   -4.8080   -6.2821 N   0  0  0  0  0  0  0  0  0  0  0  0
   52.6893   -5.3001   -6.7807 C   0  0  0  0  0  0  0  0  0  0  0  0
   52.0500   -5.1523   -7.9667 C   0  0  0  0  0  0  0  0  0  0  0  0
   50.8528   -5.7808   -8.2389 C   0  0  0  0  0  0  0  0  0  0  0  0
   50.2306   -6.6047   -7.3111 C   0  0  0  0  0  0  0  0  0  0  0  0
   50.8688   -6.7645   -6.1017 C   0  0  0  0  0  0  0  0  0  0  0  0
   52.0581   -6.1332   -5.8460 C   0  0  0  0  0  0  0  0  0  0  0  0
   52.8580   -6.1436   -4.7451 C   0  0  0  0  0  0  0  0  0  0  0  0
   52.7475   -6.7770   -3.5215 C   0  0  0  0  0  0  0  0  0  0  0  0
   51.6956   -7.6849   -2.9922 C   0  0  0  0  0  0  0  0  0  0  0  0
   52.0861   -8.0396   -1.6695 N   0  0  0  0  0  0  0  0  0  0  0  0
   53.3260   -7.4024   -1.3668 C   0  0  0  0  0  0  0  0  0  0  0  0
   53.8812   -7.5536   -0.2787 O   0  0  0  0  0  0  0  0  0  0  0  0
   53.7197   -6.6267   -2.5221 C   0  0  0  0  0  0  0  0  0  0  0  0
   54.7918   -5.8115   -2.8333 C   0  0  0  0  0  0  0  0  0  0  0  0
   55.9361   -5.4272   -2.1512 C   0  0  0  0  0  0  0  0  0  0  0  0
   56.4078   -5.7063   -0.9146 C   0  0  0  0  0  0  0  0  0  0  0  0
   57.6307   -5.1490   -0.5030 C   0  0  0  0  0  0  0  0  0  0  0  0
   58.3293   -4.3351   -1.3488 C   0  0  0  0  0  0  0  0  0  0  0  0
   57.8764   -4.0319   -2.6126 C   0  0  0  0  0  0  0  0  0  0  0  0
   56.6778   -4.5888   -2.9928 C   0  0  0  0  0  0  0  0  0  0  0  0
   56.0133   -4.4700   -4.1328 N   0  0  0  0  0  0  0  0  0  0  0  0
   54.8807   -5.1848   -4.0726 C   0  0  0  0  0  0  0  0  0  0  0  0
   53.9086   -5.3433   -5.0456 C   0  0  0  0  0  0  0  0  0  0  0  0
   51.5327   -8.6692   -1.0419 H   0  0  0  0  0  0  0  0  0  0  0  0
   58.5287   -5.7511   -8.5117 C   0  0  0  0  0  0  0  0  0  0  0  0
   57.4373   -6.3142   -7.8134 N   0  0  0  0  0  0  0  0  0  0  0  0
   57.6859   -7.2010   -7.3582 H   0  0  0  0  0  0  0  0  0  0  0  0
   55.2660   -5.0994   -8.9561 O   0  0  0  0  0  0  0  0  0  0  0  0
   55.4027   -4.5087  -10.1774 C   0  0  0  0  0  0  0  0  0  0  0  0
 33 34  1  0  0  0
 34  1  1  0  0  0
  1  2  1  0  0  0
  2  3  1  0  0  0
  3  4  1  0  0  0
  4  5  1  0  0  0
  5  6  1  0  0  0
  5  7  1  0  0  0
  7 36  1  0  0  0
 36 37  1  0  0  0
  5  8  1  0  0  0
  8  9  1  0  0  0
  9 10  2  0  0  0
 10 11  1  0  0  0
 11 12  2  0  0  0
 12 13  1  0  0  0
 13 14  2  0  0  0
 14 15  1  0  0  0
 15 16  2  0  0  0
 16 17  1  0  0  0
 17 18  1  0  0  0
 18 19  1  0  0  0
 19 20  2  0  0  0
 19 21  1  0  0  0
 21 22  2  0  0  0
 22 23  1  0  0  0
 23 24  2  0  0  0
 24 25  1  0  0  0
 25 26  2  0  0  0
 26 27  1  0  0  0
 27 28  2  0  0  0
 28 29  1  0  0  0
 29 30  1  0  0  0
 30 31  2  0  0  0
  7  1  1  0  0  0
 31  8  1  0  0  0
 29  3  1  0  0  0
 14  9  1  0  0  0
 31 15  1  0  0  0
 21 16  1  0  0  0
 30 22  1  0  0  0
 28 23  1  0  0  0
 34 35  1  0  0  0
 18 32  1  0  0  0
M  END
> <minimizedAffinity>
1.86794

> <CNNscore>
0.2566145062

> <CNNaffinity>
6.4816999435

> <CNN_VS>
1.6632982492

> <CNNaffinity_variance>
0.5338425636

$$$$
[H]N=C(N([H])[H])N([H])C([H])([H])C([H])([H])C([H])([H])[C@@]1([H])C(=O)N([H])[C@@]([H])(C([H])([H])c2c([H])c([H])c([H])c([H])c2[H])C(=O)N2C([H])([H])C([H])([H])C([H])([H])[C@@]2([H])C(=O)N([H])[C@@]([H])(C([H])([H])c2c([H])c([H])c([H])c([H])c2[H])C(=O)N([H])[C@@]([H])(C([H])([H])c2c([H])c([H])c([H])c([H])c2[H])C(=O)N2C([H])([H])C([H])([H])C([H])([H])[C@@]2([H])C(=O)N1[H]


 66 71  0  0  0  0  0  0  0  0999 V2000
   51.2203   -5.9378   -7.4112 C   0  0  0  0  0  0  0  0  0  0  0  0
   51.6400   -4.5795   -7.0116 N   0  0  0  0  0  0  0  0  0  0  0  0
   52.6504   -3.7504   -7.4192 C   0  0  0  0  0  0  0  0  0  0  0  0
   52.2616   -2.7508   -8.1658 O   0  0  0  0  0  0  0  0  0  0  0  0
   54.0992   -3.7446   -7.1850 C   0  0  0  0  0  0  0  0  0  0  0  0
   54.4727   -2.2837   -6.9225 C   0  0  0  0  0  0  0  0  0  0  0  0
   54.6091   -1.7476   -8.3316 C   0  0  0  0  0  0  0  0  0  0  0  0
   54.6792   -2.9190   -9.2753 C   0  0  0  0  0  0  0  0  0  0  0  0
   54.9263   -4.0424   -8.3522 N   0  0  0  0  0  0  0  0  0  0  0  0
   55.7407   -5.2002   -8.3744 C   0  0  0  0  0  0  0  0  0  0  0  0
   55.6585   -5.8963   -9.4210 O   0  0  0  0  0  0  0  0  0  0  0  0
   56.6578   -5.6546   -7.2992 C   0  0  0  0  0  0  0  0  0  0  0  0
   56.2425   -6.8470   -6.6572 N   0  0  0  0  0  0  0  0  0  0  0  0
   56.1004   -7.1214   -5.2715 C   0  0  0  0  0  0  0  0  0  0  0  0
   55.1058   -7.8374   -4.8797 O   0  0  0  0  0  0  0  0  0  0  0  0
   57.0184   -6.6435   -4.2527 C   0  0  0  0  0  0  0  0  0  0  0  0
   56.6243   -5.5504   -3.4176 N   0  0  0  0  0  0  0  0  0  0  0  0
   55.4608   -4.9049   -3.0333 C   0  0  0  0  0  0  0  0  0  0  0  0
   55.2881   -3.7652   -3.6964 O   0  0  0  0  0  0  0  0  0  0  0  0
   54.3798   -5.1333   -2.0949 C   0  0  0  0  0  0  0  0  0  0  0  0
   54.8324   -5.1039   -0.6328 C   0  0  0  0  0  0  0  0  0  0  0  0
   54.3299   -6.3916   -0.0309 C   0  0  0  0  0  0  0  0  0  0  0  0
   54.1168   -7.2441   -1.2525 C   0  0  0  0  0  0  0  0  0  0  0  0
   53.5197   -6.2673   -2.2081 N   0  0  0  0  0  0  0  0  0  0  0  0
   52.3781   -6.4471   -2.9750 C   0  0  0  0  0  0  0  0  0  0  0  0
   51.7731   -7.5896   -2.8364 O   0  0  0  0  0  0  0  0  0  0  0  0
   51.7122   -5.5443   -3.9463 C   0  0  0  0  0  0  0  0  0  0  0  0
   50.9059   -6.3375   -4.8515 N   0  0  0  0  0  0  0  0  0  0  0  0
   51.1713   -6.7677   -6.1507 C   0  0  0  0  0  0  0  0  0  0  0  0
   51.4020   -8.0152   -6.3183 O   0  0  0  0  0  0  0  0  0  0  0  0
   50.9469   -4.2193   -6.2601 H   0  0  0  0  0  0  0  0  0  0  0  0
   55.9867   -7.6635   -7.3107 H   0  0  0  0  0  0  0  0  0  0  0  0
   57.5495   -5.0915   -2.9828 H   0  0  0  0  0  0  0  0  0  0  0  0
   49.9619   -6.6619   -4.4361 H   0  0  0  0  0  0  0  0  0  0  0  0
   52.0891   -6.5180   -8.4423 C   0  0  0  0  0  0  0  0  0  0  0  0
   51.6504   -7.6659   -9.2661 C   0  0  0  0  0  0  0  0  0  0  0  0
   52.0152   -7.6995  -10.7054 C   0  0  0  0  0  0  0  0  0  0  0  0
   52.2000   -6.4680  -11.3587 N   0  0  0  0  0  0  0  0  0  0  0  0
   51.8926   -5.5420  -11.0186 H   0  0  0  0  0  0  0  0  0  0  0  0
   52.0473   -6.5381  -13.8334 N   0  0  0  0  0  0  0  0  0  0  0  0
   52.8398   -6.3904  -12.6654 C   0  0  0  0  0  0  0  0  0  0  0  0
   54.1061   -6.1900  -12.7642 N   0  0  0  0  0  0  0  0  0  0  0  0
   52.4459   -6.8112  -14.7521 H   0  0  0  0  0  0  0  0  0  0  0  0
   51.0262   -6.3669  -13.7706 H   0  0  0  0  0  0  0  0  0  0  0  0
   54.5601   -6.1343  -13.6956 H   0  0  0  0  0  0  0  0  0  0  0  0
   58.1029   -5.5919   -7.7270 C   0  0  0  0  0  0  0  0  0  0  0  0
   58.3617   -5.2903   -9.1289 C   0  0  0  0  0  0  0  0  0  0  0  0
   59.4240   -5.8684   -9.7830 C   0  0  0  0  0  0  0  0  0  0  0  0
   59.6997   -5.5478  -11.1214 C   0  0  0  0  0  0  0  0  0  0  0  0
   58.9105   -4.6522  -11.7942 C   0  0  0  0  0  0  0  0  0  0  0  0
   57.8430   -4.0677  -11.1474 C   0  0  0  0  0  0  0  0  0  0  0  0
   57.5780   -4.3942   -9.8144 C   0  0  0  0  0  0  0  0  0  0  0  0
   57.6420   -7.8155   -3.4615 C   0  0  0  0  0  0  0  0  0  0  0  0
   59.1264   -7.7681   -3.6646 C   0  0  0  0  0  0  0  0  0  0  0  0
   59.7447   -7.8738   -4.8777 C   0  0  0  0  0  0  0  0  0  0  0  0
   61.1083   -7.8268   -5.0182 C   0  0  0  0  0  0  0  0  0  0  0  0
   61.9244   -7.6678   -3.9214 C   0  0  0  0  0  0  0  0  0  0  0  0
   61.3174   -7.5589   -2.6848 C   0  0  0  0  0  0  0  0  0  0  0  0
   59.9540   -7.6064   -2.5478 C   0  0  0  0  0  0  0  0  0  0  0  0
   50.8626   -4.5707   -3.1804 C   0  0  0  0  0  0  0  0  0  0  0  0
   49.7396   -3.9765   -3.9063 C   0  0  0  0  0  0  0  0  0  0  0  0
   48.4413   -4.1311   -3.4429 C   0  0  0  0  0  0  0  0  0  0  0  0
   47.3683   -3.5660   -4.0974 C   0  0  0  0  0  0  0  0  0  0  0  0
   47.5803   -2.8270   -5.2417 C   0  0  0  0  0  0  0  0  0  0  0  0
   48.8399   -2.6464   -5.7368 C   0  0  0  0  0  0  0  0  0  0  0  0
   49.8941   -3.2297   -5.0517 C   0  0  0  0  0  0  0  0  0  0  0  0
 40 41  1  0  0  0
 41 42  2  0  0  0
 41 38  1  0  0  0
 38 37  1  0  0  0
 37 36  1  0  0  0
 36 35  1  0  0  0
 35  1  1  0  0  0
  1  2  1  0  0  0
  2  3  1  0  0  0
  3  4  2  0  0  0
  3  5  1  0  0  0
  5  6  1  0  0  0
  6  7  1  0  0  0
  7  8  1  0  0  0
  8  9  1  0  0  0
  9 10  1  0  0  0
 10 11  2  0  0  0
 10 12  1  0  0  0
 12 46  1  0  0  0
 46 47  1  0  0  0
 47 48  2  0  0  0
 48 49  1  0  0  0
 49 50  2  0  0  0
 50 51  1  0  0  0
 51 52  2  0  0  0
 12 13  1  0  0  0
 13 14  1  0  0  0
 14 15  2  0  0  0
 14 16  1  0  0  0
 16 53  1  0  0  0
 53 54  1  0  0  0
 54 55  2  0  0  0
 55 56  1  0  0  0
 56 57  2  0  0  0
 57 58  1  0  0  0
 58 59  2  0  0  0
 16 17  1  0  0  0
 17 18  1  0  0  0
 18 19  2  0  0  0
 18 20  1  0  0  0
 20 21  1  0  0  0
 21 22  1  0  0  0
 22 23  1  0  0  0
 23 24  1  0  0  0
 24 25  1  0  0  0
 25 26  2  0  0  0
 25 27  1  0  0  0
 27 60  1  0  0  0
 60 61  1  0  0  0
 61 62  2  0  0  0
 62 63  1  0  0  0
 63 64  2  0  0  0
 64 65  1  0  0  0
 65 66  2  0  0  0
 27 28  1  0  0  0
 28 29  1  0  0  0
 29 30  2  0  0  0
 29  1  1  0  0  0
  9  5  1  0  0  0
 52 47  1  0  0  0
 59 54  1  0  0  0
 24 20  1  0  0  0
 66 61  1  0  0  0
 40 43  1  0  0  0
 40 44  1  0  0  0
 42 45  1  0  0  0
 38 39  1  0  0  0
  2 31  1  0  0  0
 13 32  1  0  0  0
 17 33  1  0  0  0
 28 34  1  0  0  0
M  END
> <minimizedAffinity>
18.23324

> <CNNscore>
0.4525361061

> <CNNaffinity>
7.5772790909

> <CNN_VS>
3.4289922714

> <CNNaffinity_variance>
0.2423977852

$$$$
[H]N=C(N([H])[H])N([H])C([H])([H])C([H])([H])C([H])([H])[C@@]1([H])C(=O)N([H])[C@@]([H])(C([H])([H])c2c([H])c([H])c([H])c([H])c2[H])C(=O)N2C([H])([H])C([H])([H])C([H])([H])[C@@]2([H])C(=O)N([H])[C@@]([H])(C([H])([H])c2c([H])c([H])c([H])c([H])c2[H])C(=O)N([H])[C@@]([H])(C([H])([H])c2c([H])c([H])c([H])c([H])c2[H])C(=O)N2C([H])([H])C([H])([H])C([H])([H])[C@@]2([H])C(=O)N1[H]


 66 71  0  0  0  0  0  0  0  0999 V2000
   51.8731   -2.9492   -8.5767 C   0  0  0  0  0  0  0  0  0  0  0  0
   51.8797   -4.4142   -8.7629 N   0  0  0  0  0  0  0  0  0  0  0  0
   51.4832   -5.4629   -7.9770 C   0  0  0  0  0  0  0  0  0  0  0  0
   50.3693   -6.0314   -8.3559 O   0  0  0  0  0  0  0  0  0  0  0  0
   52.0585   -6.0962   -6.7846 C   0  0  0  0  0  0  0  0  0  0  0  0
   51.8943   -7.6035   -6.9936 C   0  0  0  0  0  0  0  0  0  0  0  0
   50.4696   -7.8206   -6.5300 C   0  0  0  0  0  0  0  0  0  0  0  0
   50.0299   -6.5953   -5.7730 C   0  0  0  0  0  0  0  0  0  0  0  0
   51.3102   -5.8995   -5.5450 N   0  0  0  0  0  0  0  0  0  0  0  0
   51.8885   -5.1878   -4.4664 C   0  0  0  0  0  0  0  0  0  0  0  0
   51.1558   -4.3021   -3.9514 O   0  0  0  0  0  0  0  0  0  0  0  0
   53.2481   -5.3878   -3.9054 C   0  0  0  0  0  0  0  0  0  0  0  0
   54.1303   -4.3046   -4.1399 N   0  0  0  0  0  0  0  0  0  0  0  0
   55.4434   -4.3129   -4.6796 C   0  0  0  0  0  0  0  0  0  0  0  0
   55.7911   -3.3677   -5.4802 O   0  0  0  0  0  0  0  0  0  0  0  0
   56.4356   -5.3306   -4.3809 C   0  0  0  0  0  0  0  0  0  0  0  0
   56.7218   -6.3331   -5.3610 N   0  0  0  0  0  0  0  0  0  0  0  0
   56.5577   -6.5307   -6.7219 C   0  0  0  0  0  0  0  0  0  0  0  0
   55.5263   -7.3286   -6.9826 O   0  0  0  0  0  0  0  0  0  0  0  0
   57.2135   -6.1071   -7.9433 C   0  0  0  0  0  0  0  0  0  0  0  0
   58.6424   -6.6393   -8.0781 C   0  0  0  0  0  0  0  0  0  0  0  0
   59.4986   -5.4277   -8.3462 C   0  0  0  0  0  0  0  0  0  0  0  0
   58.6274   -4.3117   -7.8362 C   0  0  0  0  0  0  0  0  0  0  0  0
   57.2792   -4.7306   -8.3168 N   0  0  0  0  0  0  0  0  0  0  0  0
   56.3578   -3.9457   -8.9938 C   0  0  0  0  0  0  0  0  0  0  0  0
   56.7190   -2.7192   -9.2301 O   0  0  0  0  0  0  0  0  0  0  0  0
   55.0032   -4.2679   -9.5070 C   0  0  0  0  0  0  0  0  0  0  0  0
   54.2492   -3.0395   -9.6520 N   0  0  0  0  0  0  0  0  0  0  0  0
   53.2849   -2.4722   -8.8204 C   0  0  0  0  0  0  0  0  0  0  0  0
   53.6147   -1.4162   -8.1774 O   0  0  0  0  0  0  0  0  0  0  0  0
   52.2637   -4.6268   -9.7539 H   0  0  0  0  0  0  0  0  0  0  0  0
   53.7510   -3.3304   -3.8825 H   0  0  0  0  0  0  0  0  0  0  0  0
   57.1931   -7.2063   -4.8404 H   0  0  0  0  0  0  0  0  0  0  0  0
   54.4980   -2.4680  -10.5356 H   0  0  0  0  0  0  0  0  0  0  0  0
   51.3546   -2.5481   -7.2633 C   0  0  0  0  0  0  0  0  0  0  0  0
   49.9290   -2.2048   -7.0672 C   0  0  0  0  0  0  0  0  0  0  0  0
   49.1357   -1.7344   -8.2313 C   0  0  0  0  0  0  0  0  0  0  0  0
   48.5343   -0.4665   -8.1392 N   0  0  0  0  0  0  0  0  0  0  0  0
   47.5569   -0.2704   -7.8674 H   0  0  0  0  0  0  0  0  0  0  0  0
   50.5261    0.9874   -7.8726 N   0  0  0  0  0  0  0  0  0  0  0  0
   49.2657    0.7470   -8.4788 C   0  0  0  0  0  0  0  0  0  0  0  0
   48.7796    1.5921   -9.3172 N   0  0  0  0  0  0  0  0  0  0  0  0
   50.9468    1.9342   -7.8072 H   0  0  0  0  0  0  0  0  0  0  0  0
   51.0524    0.1859   -7.4769 H   0  0  0  0  0  0  0  0  0  0  0  0
   49.3020    2.4556   -9.5585 H   0  0  0  0  0  0  0  0  0  0  0  0
   53.2032   -5.9226   -2.4957 C   0  0  0  0  0  0  0  0  0  0  0  0
   54.1847   -6.9415   -2.1468 C   0  0  0  0  0  0  0  0  0  0  0  0
   54.5079   -7.1783   -0.8315 C   0  0  0  0  0  0  0  0  0  0  0  0
   55.4829   -8.1304   -0.4951 C   0  0  0  0  0  0  0  0  0  0  0  0
   56.1259   -8.8375   -1.4770 C   0  0  0  0  0  0  0  0  0  0  0  0
   55.8087   -8.6076   -2.7984 C   0  0  0  0  0  0  0  0  0  0  0  0
   54.8363   -7.6570   -3.1217 C   0  0  0  0  0  0  0  0  0  0  0  0
   57.7078   -4.7117   -3.7585 C   0  0  0  0  0  0  0  0  0  0  0  0
   57.9483   -5.3849   -2.4411 C   0  0  0  0  0  0  0  0  0  0  0  0
   57.4604   -4.9409   -1.2452 C   0  0  0  0  0  0  0  0  0  0  0  0
   57.7066   -5.5878   -0.0611 C   0  0  0  0  0  0  0  0  0  0  0  0
   58.4698   -6.7327   -0.0294 C   0  0  0  0  0  0  0  0  0  0  0  0
   58.9726   -7.1981   -1.2295 C   0  0  0  0  0  0  0  0  0  0  0  0
   58.7246   -6.5489   -2.4114 C   0  0  0  0  0  0  0  0  0  0  0  0
   55.1526   -4.9675  -10.8278 C   0  0  0  0  0  0  0  0  0  0  0  0
   56.2637   -4.5298  -11.6734 C   0  0  0  0  0  0  0  0  0  0  0  0
   56.0206   -3.8657  -12.8667 C   0  0  0  0  0  0  0  0  0  0  0  0
   57.0492   -3.4265  -13.6718 C   0  0  0  0  0  0  0  0  0  0  0  0
   58.3553   -3.6480  -13.2904 C   0  0  0  0  0  0  0  0  0  0  0  0
   58.6452   -4.2970  -12.1246 C   0  0  0  0  0  0  0  0  0  0  0  0
   57.5848   -4.7239  -11.3408 C   0  0  0  0  0  0  0  0  0  0  0  0
 40 41  1  0  0  0
 41 42  2  0  0  0
 41 38  1  0  0  0
 38 37  1  0  0  0
 37 36  1  0  0  0
 36 35  1  0  0  0
 35  1  1  0  0  0
  1  2  1  0  0  0
  2  3  1  0  0  0
  3  4  2  0  0  0
  3  5  1  0  0  0
  5  6  1  0  0  0
  6  7  1  0  0  0
  7  8  1  0  0  0
  8  9  1  0  0  0
  9 10  1  0  0  0
 10 11  2  0  0  0
 10 12  1  0  0  0
 12 46  1  0  0  0
 46 47  1  0  0  0
 47 48  2  0  0  0
 48 49  1  0  0  0
 49 50  2  0  0  0
 50 51  1  0  0  0
 51 52  2  0  0  0
 12 13  1  0  0  0
 13 14  1  0  0  0
 14 15  2  0  0  0
 14 16  1  0  0  0
 16 53  1  0  0  0
 53 54  1  0  0  0
 54 55  2  0  0  0
 55 56  1  0  0  0
 56 57  2  0  0  0
 57 58  1  0  0  0
 58 59  2  0  0  0
 16 17  1  0  0  0
 17 18  1  0  0  0
 18 19  2  0  0  0
 18 20  1  0  0  0
 20 21  1  0  0  0
 21 22  1  0  0  0
 22 23  1  0  0  0
 23 24  1  0  0  0
 24 25  1  0  0  0
 25 26  2  0  0  0
 25 27  1  0  0  0
 27 60  1  0  0  0
 60 61  1  0  0  0
 61 62  2  0  0  0
 62 63  1  0  0  0
 63 64  2  0  0  0
 64 65  1  0  0  0
 65 66  2  0  0  0
 27 28  1  0  0  0
 28 29  1  0  0  0
 29 30  2  0  0  0
 29  1  1  0  0  0
  9  5  1  0  0  0
 52 47  1  0  0  0
 59 54  1  0  0  0
 24 20  1  0  0  0
 66 61  1  0  0  0
 40 43  1  0  0  0
 40 44  1  0  0  0
 42 45  1  0  0  0
 38 39  1  0  0  0
  2 31  1  0  0  0
 13 32  1  0  0  0
 17 33  1  0  0  0
 28 34  1  0  0  0
M  END
> <minimizedAffinity>
18.37351

> <CNNscore>
0.4367057979

> <CNNaffinity>
7.4953079224

> <CNN_VS>
3.2732443810

> <CNNaffinity_variance>
0.7443940639

$$$$
[H]N=C(N([H])[H])N([H])C([H])([H])C([H])([H])C([H])([H])[C@@]1([H])C(=O)N([H])[C@@]([H])(C([H])([H])c2c([H])c([H])c([H])c([H])c2[H])C(=O)N2C([H])([H])C([H])([H])C([H])([H])[C@@]2([H])C(=O)N([H])[C@@]([H])(C([H])([H])c2c([H])c([H])c([H])c([H])c2[H])C(=O)N([H])[C@@]([H])(C([H])([H])c2c([H])c([H])c([H])c([H])c2[H])C(=O)N2C([H])([H])C([H])([H])C([H])([H])[C@@]2([H])C(=O)N1[H]


 66 71  0  0  0  0  0  0  0  0999 V2000
   51.6564   -2.8592   -8.3574 C   0  0  0  0  0  0  0  0  0  0  0  0
   51.6447   -4.3213   -8.5644 N   0  0  0  0  0  0  0  0  0  0  0  0
   51.2525   -5.3772   -7.7860 C   0  0  0  0  0  0  0  0  0  0  0  0
   50.1259   -5.9293   -8.1517 O   0  0  0  0  0  0  0  0  0  0  0  0
   51.8436   -6.0331   -6.6138 C   0  0  0  0  0  0  0  0  0  0  0  0
   51.6604   -7.5356   -6.8408 C   0  0  0  0  0  0  0  0  0  0  0  0
   50.2426   -7.7453   -6.3536 C   0  0  0  0  0  0  0  0  0  0  0  0
   49.8295   -6.5267   -5.5711 C   0  0  0  0  0  0  0  0  0  0  0  0
   51.1209   -5.8469   -5.3575 N   0  0  0  0  0  0  0  0  0  0  0  0
   51.7264   -5.1564   -4.2802 C   0  0  0  0  0  0  0  0  0  0  0  0
   51.0125   -4.2710   -3.7389 O   0  0  0  0  0  0  0  0  0  0  0  0
   53.0943   -5.3777   -3.7478 C   0  0  0  0  0  0  0  0  0  0  0  0
   53.9828   -4.3000   -3.9837 N   0  0  0  0  0  0  0  0  0  0  0  0
   55.2854   -4.3135   -4.5482 C   0  0  0  0  0  0  0  0  0  0  0  0
   55.6274   -3.3603   -5.3418 O   0  0  0  0  0  0  0  0  0  0  0  0
   56.2727   -5.3450   -4.2828 C   0  0  0  0  0  0  0  0  0  0  0  0
   56.5303   -6.3361   -5.2822 N   0  0  0  0  0  0  0  0  0  0  0  0
   56.3387   -6.5127   -6.6423 C   0  0  0  0  0  0  0  0  0  0  0  0
   55.2945   -7.2966   -6.8947 O   0  0  0  0  0  0  0  0  0  0  0  0
   56.9756   -6.0781   -7.8699 C   0  0  0  0  0  0  0  0  0  0  0  0
   58.3963   -6.6223   -8.0392 C   0  0  0  0  0  0  0  0  0  0  0  0
   59.2595   -5.4155   -8.3063 C   0  0  0  0  0  0  0  0  0  0  0  0
   58.4093   -4.2984   -7.7642 C   0  0  0  0  0  0  0  0  0  0  0  0
   57.0482   -4.6971   -8.2250 N   0  0  0  0  0  0  0  0  0  0  0  0
   56.1222   -3.8936   -8.8734 C   0  0  0  0  0  0  0  0  0  0  0  0
   56.4913   -2.6674   -9.0991 O   0  0  0  0  0  0  0  0  0  0  0  0
   54.7550   -4.1951   -9.3653 C   0  0  0  0  0  0  0  0  0  0  0  0
   54.0109   -2.9573   -9.4787 N   0  0  0  0  0  0  0  0  0  0  0  0
   53.0681   -2.3926   -8.6210 C   0  0  0  0  0  0  0  0  0  0  0  0
   53.4206   -1.3492   -7.9695 O   0  0  0  0  0  0  0  0  0  0  0  0
   52.0079   -4.5235   -9.5653 H   0  0  0  0  0  0  0  0  0  0  0  0
   53.6182   -3.3259   -3.7055 H   0  0  0  0  0  0  0  0  0  0  0  0
   57.0024   -7.2213   -4.7830 H   0  0  0  0  0  0  0  0  0  0  0  0
   54.2488   -2.3758  -10.3586 H   0  0  0  0  0  0  0  0  0  0  0  0
   51.1667   -2.4718   -7.0289 C   0  0  0  0  0  0  0  0  0  0  0  0
   49.7556   -2.0866   -6.8074 C   0  0  0  0  0  0  0  0  0  0  0  0
   48.8653   -3.0135   -6.0632 C   0  0  0  0  0  0  0  0  0  0  0  0
   48.6737   -2.7705   -4.6913 N   0  0  0  0  0  0  0  0  0  0  0  0
   49.1511   -2.0506   -4.1242 H   0  0  0  0  0  0  0  0  0  0  0  0
   46.3862   -3.2520   -3.8619 N   0  0  0  0  0  0  0  0  0  0  0  0
   47.7652   -3.5856   -3.8956 C   0  0  0  0  0  0  0  0  0  0  0  0
   48.2026   -4.5958   -3.2312 N   0  0  0  0  0  0  0  0  0  0  0  0
   45.7516   -3.5616   -3.1010 H   0  0  0  0  0  0  0  0  0  0  0  0
   45.9919   -2.6745   -4.6280 H   0  0  0  0  0  0  0  0  0  0  0  0
   47.5542   -5.1757   -2.6655 H   0  0  0  0  0  0  0  0  0  0  0  0
   53.0705   -5.9322   -2.3453 C   0  0  0  0  0  0  0  0  0  0  0  0
   52.3208   -7.1643   -2.1373 C   0  0  0  0  0  0  0  0  0  0  0  0
   51.0807   -7.1354   -1.5440 C   0  0  0  0  0  0  0  0  0  0  0  0
   50.3747   -8.3247   -1.3053 C   0  0  0  0  0  0  0  0  0  0  0  0
   50.9146   -9.5325   -1.6622 C   0  0  0  0  0  0  0  0  0  0  0  0
   52.1569   -9.5719   -2.2578 C   0  0  0  0  0  0  0  0  0  0  0  0
   52.8511   -8.3812   -2.4905 C   0  0  0  0  0  0  0  0  0  0  0  0
   57.5625   -4.7477   -3.6759 C   0  0  0  0  0  0  0  0  0  0  0  0
   57.8769   -5.5103   -2.4244 C   0  0  0  0  0  0  0  0  0  0  0  0
   58.9949   -6.2738   -2.2443 C   0  0  0  0  0  0  0  0  0  0  0  0
   59.2428   -6.9576   -1.0814 C   0  0  0  0  0  0  0  0  0  0  0  0
   58.3582   -6.9007   -0.0286 C   0  0  0  0  0  0  0  0  0  0  0  0
   57.2208   -6.1331   -0.1914 C   0  0  0  0  0  0  0  0  0  0  0  0
   56.9759   -5.4509   -1.3553 C   0  0  0  0  0  0  0  0  0  0  0  0
   54.8725   -4.8771  -10.6984 C   0  0  0  0  0  0  0  0  0  0  0  0
   56.0156   -4.4926  -11.5270 C   0  0  0  0  0  0  0  0  0  0  0  0
   55.8289   -3.7444  -12.6801 C   0  0  0  0  0  0  0  0  0  0  0  0
   56.8901   -3.3534  -13.4676 C   0  0  0  0  0  0  0  0  0  0  0  0
   58.1725   -3.7097  -13.1088 C   0  0  0  0  0  0  0  0  0  0  0  0
   58.4071   -4.4454  -11.9827 C   0  0  0  0  0  0  0  0  0  0  0  0
   57.3153   -4.8203  -11.2157 C   0  0  0  0  0  0  0  0  0  0  0  0
 40 41  1  0  0  0
 41 42  2  0  0  0
 41 38  1  0  0  0
 38 37  1  0  0  0
 37 36  1  0  0  0
 36 35  1  0  0  0
 35  1  1  0  0  0
  1  2  1  0  0  0
  2  3  1  0  0  0
  3  4  2  0  0  0
  3  5  1  0  0  0
  5  6  1  0  0  0
  6  7  1  0  0  0
  7  8  1  0  0  0
  8  9  1  0  0  0
  9 10  1  0  0  0
 10 11  2  0  0  0
 10 12  1  0  0  0
 12 46  1  0  0  0
 46 47  1  0  0  0
 47 48  2  0  0  0
 48 49  1  0  0  0
 49 50  2  0  0  0
 50 51  1  0  0  0
 51 52  2  0  0  0
 12 13  1  0  0  0
 13 14  1  0  0  0
 14 15  2  0  0  0
 14 16  1  0  0  0
 16 53  1  0  0  0
 53 54  1  0  0  0
 54 55  2  0  0  0
 55 56  1  0  0  0
 56 57  2  0  0  0
 57 58  1  0  0  0
 58 59  2  0  0  0
 16 17  1  0  0  0
 17 18  1  0  0  0
 18 19  2  0  0  0
 18 20  1  0  0  0
 20 21  1  0  0  0
 21 22  1  0  0  0
 22 23  1  0  0  0
 23 24  1  0  0  0
 24 25  1  0  0  0
 25 26  2  0  0  0
 25 27  1  0  0  0
 27 60  1  0  0  0
 60 61  1  0  0  0
 61 62  2  0  0  0
 62 63  1  0  0  0
 63 64  2  0  0  0
 64 65  1  0  0  0
 65 66  2  0  0  0
 27 28  1  0  0  0
 28 29  1  0  0  0
 29 30  2  0  0  0
 29  1  1  0  0  0
  9  5  1  0  0  0
 52 47  1  0  0  0
 59 54  1  0  0  0
 24 20  1  0  0  0
 66 61  1  0  0  0
 40 43  1  0  0  0
 40 44  1  0  0  0
 42 45  1  0  0  0
 38 39  1  0  0  0
  2 31  1  0  0  0
 13 32  1  0  0  0
 17 33  1  0  0  0
 28 34  1  0  0  0
M  END
> <minimizedAffinity>
8.60304

> <CNNscore>
0.4104274809

> <CNNaffinity>
7.6678571701

> <CNN_VS>
3.1470992565

> <CNNaffinity_variance>
1.0435678959

$$$$
[H]N=C(N([H])[H])N([H])C([H])([H])C([H])([H])C([H])([H])[C@@]1([H])C(=O)N([H])[C@@]([H])(C([H])([H])c2c([H])c([H])c([H])c([H])c2[H])C(=O)N2C([H])([H])C([H])([H])C([H])([H])[C@@]2([H])C(=O)N([H])[C@@]([H])(C([H])([H])c2c([H])c([H])c([H])c([H])c2[H])C(=O)N([H])[C@@]([H])(C([H])([H])c2c([H])c([H])c([H])c([H])c2[H])C(=O)N2C([H])([H])C([H])([H])C([H])([H])[C@@]2([H])C(=O)N1[H]


 66 71  0  0  0  0  0  0  0  0999 V2000
   61.0478   -6.8493   -7.0868 C   0  0  0  0  0  0  0  0  0  0  0  0
   62.5088   -6.6875   -6.9447 N   0  0  0  0  0  0  0  0  0  0  0  0
   63.5102   -6.3811   -7.8267 C   0  0  0  0  0  0  0  0  0  0  0  0
   63.9779   -5.1662   -7.7127 O   0  0  0  0  0  0  0  0  0  0  0  0
   64.1832   -7.1438   -8.8845 C   0  0  0  0  0  0  0  0  0  0  0  0
   65.6709   -6.8074   -8.7583 C   0  0  0  0  0  0  0  0  0  0  0  0
   65.7531   -5.5039   -9.5236 C   0  0  0  0  0  0  0  0  0  0  0  0
   64.4864   -5.3475  -10.3228 C   0  0  0  0  0  0  0  0  0  0  0  0
   63.9085   -6.7025  -10.2502 N   0  0  0  0  0  0  0  0  0  0  0  0
   63.2433   -7.5609  -11.1585 C   0  0  0  0  0  0  0  0  0  0  0  0
   62.2901   -7.0375  -11.7941 O   0  0  0  0  0  0  0  0  0  0  0  0
   63.5618   -8.9871  -11.4190 C   0  0  0  0  0  0  0  0  0  0  0  0
   62.5656   -9.8884  -10.9697 N   0  0  0  0  0  0  0  0  0  0  0  0
   62.6984  -11.0473  -10.1604 C   0  0  0  0  0  0  0  0  0  0  0  0
   61.7957  -11.2941   -9.2775 O   0  0  0  0  0  0  0  0  0  0  0  0
   63.7997  -11.9880  -10.2669 C   0  0  0  0  0  0  0  0  0  0  0  0
   64.8325  -11.9661   -9.2767 N   0  0  0  0  0  0  0  0  0  0  0  0
   65.0260  -11.4941   -7.9892 C   0  0  0  0  0  0  0  0  0  0  0  0
   65.7286  -10.3650   -7.9792 O   0  0  0  0  0  0  0  0  0  0  0  0
   64.6744  -11.9035   -6.6438 C   0  0  0  0  0  0  0  0  0  0  0  0
   65.3359  -13.2172   -6.2194 C   0  0  0  0  0  0  0  0  0  0  0  0
   64.2099  -14.0971   -5.7394 C   0  0  0  0  0  0  0  0  0  0  0  0
   63.0147  -13.4582   -6.3935 C   0  0  0  0  0  0  0  0  0  0  0  0
   63.3129  -12.0066   -6.2264 N   0  0  0  0  0  0  0  0  0  0  0  0
   62.4530  -11.0322   -5.7419 C   0  0  0  0  0  0  0  0  0  0  0  0
   61.2666  -11.4392   -5.3990 O   0  0  0  0  0  0  0  0  0  0  0  0
   62.6545   -9.5757   -5.5416 C   0  0  0  0  0  0  0  0  0  0  0  0
   61.3637   -8.9184   -5.5279 N   0  0  0  0  0  0  0  0  0  0  0  0
   60.7037   -8.2107   -6.5314 C   0  0  0  0  0  0  0  0  0  0  0  0
   59.6768   -8.7631   -7.0584 O   0  0  0  0  0  0  0  0  0  0  0  0
   62.7640   -6.8273   -5.9007 H   0  0  0  0  0  0  0  0  0  0  0  0
   61.5587   -9.6605  -11.2752 H   0  0  0  0  0  0  0  0  0  0  0  0
   65.7406  -12.4611   -9.7079 H   0  0  0  0  0  0  0  0  0  0  0  0
   60.8250   -9.0184   -4.5959 H   0  0  0  0  0  0  0  0  0  0  0  0
   60.5899   -6.6652   -8.4691 C   0  0  0  0  0  0  0  0  0  0  0  0
   59.4474   -5.7831   -8.7938 C   0  0  0  0  0  0  0  0  0  0  0  0
   58.5855   -5.2870   -7.6907 C   0  0  0  0  0  0  0  0  0  0  0  0
   57.1975   -5.4761   -7.8142 N   0  0  0  0  0  0  0  0  0  0  0  0
   56.6340   -5.3374   -8.6692 H   0  0  0  0  0  0  0  0  0  0  0  0
   56.9922   -6.5268   -5.5768 N   0  0  0  0  0  0  0  0  0  0  0  0
   56.3798   -5.8653   -6.6728 C   0  0  0  0  0  0  0  0  0  0  0  0
   55.1189   -5.6141   -6.6540 N   0  0  0  0  0  0  0  0  0  0  0  0
   56.4583   -7.1048   -4.8997 H   0  0  0  0  0  0  0  0  0  0  0  0
   58.0164   -6.4314   -5.4432 H   0  0  0  0  0  0  0  0  0  0  0  0
   54.5380   -5.8913   -5.8400 H   0  0  0  0  0  0  0  0  0  0  0  0
   64.0782   -9.2027  -12.8198 C   0  0  0  0  0  0  0  0  0  0  0  0
   64.5548   -8.0253  -13.5339 C   0  0  0  0  0  0  0  0  0  0  0  0
   64.4128   -7.9312  -14.8983 C   0  0  0  0  0  0  0  0  0  0  0  0
   64.9079   -6.8169  -15.5934 C   0  0  0  0  0  0  0  0  0  0  0  0
   65.5403   -5.8061  -14.9180 C   0  0  0  0  0  0  0  0  0  0  0  0
   65.6873   -5.8910  -13.5503 C   0  0  0  0  0  0  0  0  0  0  0  0
   65.1905   -7.0055  -12.8684 C   0  0  0  0  0  0  0  0  0  0  0  0
   63.2943  -13.4139  -10.5831 C   0  0  0  0  0  0  0  0  0  0  0  0
   63.1679  -13.5365  -12.0716 C   0  0  0  0  0  0  0  0  0  0  0  0
   64.1898  -13.8832  -12.9086 C   0  0  0  0  0  0  0  0  0  0  0  0
   64.0304  -13.9823  -14.2673 C   0  0  0  0  0  0  0  0  0  0  0  0
   62.8107  -13.7318  -14.8535 C   0  0  0  0  0  0  0  0  0  0  0  0
   61.7638  -13.3796  -14.0231 C   0  0  0  0  0  0  0  0  0  0  0  0
   61.9266  -13.2813  -12.6653 C   0  0  0  0  0  0  0  0  0  0  0  0
   63.3761   -9.3734   -4.2399 C   0  0  0  0  0  0  0  0  0  0  0  0
   62.5852   -8.8282   -3.1360 C   0  0  0  0  0  0  0  0  0  0  0  0
   63.1713   -8.5882   -1.9019 C   0  0  0  0  0  0  0  0  0  0  0  0
   62.4534   -8.0579   -0.8519 C   0  0  0  0  0  0  0  0  0  0  0  0
   61.1194   -7.7552   -1.0225 C   0  0  0  0  0  0  0  0  0  0  0  0
   60.4980   -7.9734   -2.2186 C   0  0  0  0  0  0  0  0  0  0  0  0
   61.2520   -8.5078   -3.2515 C   0  0  0  0  0  0  0  0  0  0  0  0
 40 41  1  0  0  0
 41 42  2  0  0  0
 41 38  1  0  0  0
 38 37  1  0  0  0
 37 36  1  0  0  0
 36 35  1  0  0  0
 35  1  1  0  0  0
  1  2  1  0  0  0
  2  3  1  0  0  0
  3  4  2  0  0  0
  3  5  1  0  0  0
  5  6  1  0  0  0
  6  7  1  0  0  0
  7  8  1  0  0  0
  8  9  1  0  0  0
  9 10  1  0  0  0
 10 11  2  0  0  0
 10 12  1  0  0  0
 12 46  1  0  0  0
 46 47  1  0  0  0
 47 48  2  0  0  0
 48 49  1  0  0  0
 49 50  2  0  0  0
 50 51  1  0  0  0
 51 52  2  0  0  0
 12 13  1  0  0  0
 13 14  1  0  0  0
 14 15  2  0  0  0
 14 16  1  0  0  0
 16 53  1  0  0  0
 53 54  1  0  0  0
 54 55  2  0  0  0
 55 56  1  0  0  0
 56 57  2  0  0  0
 57 58  1  0  0  0
 58 59  2  0  0  0
 16 17  1  0  0  0
 17 18  1  0  0  0
 18 19  2  0  0  0
 18 20  1  0  0  0
 20 21  1  0  0  0
 21 22  1  0  0  0
 22 23  1  0  0  0
 23 24  1  0  0  0
 24 25  1  0  0  0
 25 26  2  0  0  0
 25 27  1  0  0  0
 27 60  1  0  0  0
 60 61  1  0  0  0
 61 62  2  0  0  0
 62 63  1  0  0  0
 63 64  2  0  0  0
 64 65  1  0  0  0
 65 66  2  0  0  0
 27 28  1  0  0  0
 28 29  1  0  0  0
 29 30  2  0  0  0
 29  1  1  0  0  0
  9  5  1  0  0  0
 52 47  1  0  0  0
 59 54  1  0  0  0
 24 20  1  0  0  0
 66 61  1  0  0  0
 40 43  1  0  0  0
 40 44  1  0  0  0
 42 45  1  0  0  0
 38 39  1  0  0  0
  2 31  1  0  0  0
 13 32  1  0  0  0
 17 33  1  0  0  0
 28 34  1  0  0  0
M  END
> <minimizedAffinity>
0.99362

> <CNNscore>
0.4042496681

> <CNNaffinity>
6.8709855080

> <CNN_VS>
2.7775936127

> <CNNaffinity_variance>
1.2408604622

$$$$
[H]N=C(N([H])[H])N([H])C([H])([H])C([H])([H])C([H])([H])[C@@]1([H])C(=O)N([H])[C@@]([H])(C([H])([H])c2c([H])c([H])c([H])c([H])c2[H])C(=O)N2C([H])([H])C([H])([H])C([H])([H])[C@@]2([H])C(=O)N([H])[C@@]([H])(C([H])([H])c2c([H])c([H])c([H])c([H])c2[H])C(=O)N([H])[C@@]([H])(C([H])([H])c2c([H])c([H])c([H])c([H])c2[H])C(=O)N2C([H])([H])C([H])([H])C([H])([H])[C@@]2([H])C(=O)N1[H]


 66 71  0  0  0  0  0  0  0  0999 V2000
   61.0224   -6.8277   -8.1666 C   0  0  0  0  0  0  0  0  0  0  0  0
   62.4793   -6.6371   -8.0185 N   0  0  0  0  0  0  0  0  0  0  0  0
   63.4906   -6.3961   -8.9093 C   0  0  0  0  0  0  0  0  0  0  0  0
   63.9438   -5.1705   -8.8941 O   0  0  0  0  0  0  0  0  0  0  0  0
   64.1874   -7.2392   -9.8878 C   0  0  0  0  0  0  0  0  0  0  0  0
   65.6695   -6.8757   -9.7701 C   0  0  0  0  0  0  0  0  0  0  0  0
   65.7495   -5.6420  -10.6439 C   0  0  0  0  0  0  0  0  0  0  0  0
   64.4934   -5.5700  -11.4714 C   0  0  0  0  0  0  0  0  0  0  0  0
   63.9287   -6.9204  -11.2902 N   0  0  0  0  0  0  0  0  0  0  0  0
   63.2863   -7.8615  -12.1304 C   0  0  0  0  0  0  0  0  0  0  0  0
   62.3374   -7.4061  -12.8222 O   0  0  0  0  0  0  0  0  0  0  0  0
   63.6236   -9.3011  -12.2623 C   0  0  0  0  0  0  0  0  0  0  0  0
   62.6303  -10.1719  -11.7510 N   0  0  0  0  0  0  0  0  0  0  0  0
   62.7629  -11.2552  -10.8429 C   0  0  0  0  0  0  0  0  0  0  0  0
   61.8496  -11.4355   -9.9548 O   0  0  0  0  0  0  0  0  0  0  0  0
   63.8756  -12.1886  -10.8523 C   0  0  0  0  0  0  0  0  0  0  0  0
   64.8930  -12.0694   -9.8532 N   0  0  0  0  0  0  0  0  0  0  0  0
   65.0621  -11.4859   -8.6086 C   0  0  0  0  0  0  0  0  0  0  0  0
   65.7527  -10.3521   -8.6862 O   0  0  0  0  0  0  0  0  0  0  0  0
   64.6946  -11.7821   -7.2380 C   0  0  0  0  0  0  0  0  0  0  0  0
   65.3633  -13.0464   -6.6926 C   0  0  0  0  0  0  0  0  0  0  0  0
   64.2395  -13.8949   -6.1543 C   0  0  0  0  0  0  0  0  0  0  0  0
   63.0477  -13.3287   -6.8779 C   0  0  0  0  0  0  0  0  0  0  0  0
   63.3281  -11.8647   -6.8326 N   0  0  0  0  0  0  0  0  0  0  0  0
   62.4508  -10.8624   -6.4461 C   0  0  0  0  0  0  0  0  0  0  0  0
   61.2638  -11.2522   -6.0861 O   0  0  0  0  0  0  0  0  0  0  0  0
   62.6341   -9.3918   -6.3695 C   0  0  0  0  0  0  0  0  0  0  0  0
   61.3364   -8.7509   -6.4307 N   0  0  0  0  0  0  0  0  0  0  0  0
   60.6842   -8.1401   -7.5008 C   0  0  0  0  0  0  0  0  0  0  0  0
   59.6712   -8.7478   -7.9926 O   0  0  0  0  0  0  0  0  0  0  0  0
   62.7202   -6.6835   -6.9628 H   0  0  0  0  0  0  0  0  0  0  0  0
   61.6257   -9.9830  -12.0892 H   0  0  0  0  0  0  0  0  0  0  0  0
   65.8126  -12.5890  -10.2273 H   0  0  0  0  0  0  0  0  0  0  0  0
   60.7847   -8.7766   -5.5012 H   0  0  0  0  0  0  0  0  0  0  0  0
   60.5834   -6.7687   -9.5660 C   0  0  0  0  0  0  0  0  0  0  0  0
   59.5784   -5.7825  -10.0198 C   0  0  0  0  0  0  0  0  0  0  0  0
   58.2318   -5.7875   -9.3936 C   0  0  0  0  0  0  0  0  0  0  0  0
   57.4962   -4.5893   -9.4225 N   0  0  0  0  0  0  0  0  0  0  0  0
   57.7204   -3.7461   -9.9761 H   0  0  0  0  0  0  0  0  0  0  0  0
   56.3503   -4.7981   -7.2327 N   0  0  0  0  0  0  0  0  0  0  0  0
   56.3102   -4.4064   -8.5961 C   0  0  0  0  0  0  0  0  0  0  0  0
   55.2388   -3.8963   -9.0913 N   0  0  0  0  0  0  0  0  0  0  0  0
   55.4946   -4.9992   -6.6805 H   0  0  0  0  0  0  0  0  0  0  0  0
   57.2714   -4.8885   -6.7645 H   0  0  0  0  0  0  0  0  0  0  0  0
   54.3952   -3.7660   -8.5012 H   0  0  0  0  0  0  0  0  0  0  0  0
   64.1632   -9.6304  -13.6318 C   0  0  0  0  0  0  0  0  0  0  0  0
   64.3844   -8.5114  -14.5386 C   0  0  0  0  0  0  0  0  0  0  0  0
   63.5222   -8.2789  -15.5841 C   0  0  0  0  0  0  0  0  0  0  0  0
   63.7560   -7.2267  -16.4831 C   0  0  0  0  0  0  0  0  0  0  0  0
   64.8497   -6.4158  -16.3285 C   0  0  0  0  0  0  0  0  0  0  0  0
   65.7197   -6.6405  -15.2834 C   0  0  0  0  0  0  0  0  0  0  0  0
   65.4771   -7.6914  -14.3944 C   0  0  0  0  0  0  0  0  0  0  0  0
   63.3899  -13.6422  -11.0514 C   0  0  0  0  0  0  0  0  0  0  0  0
   62.7515  -13.7316  -12.4046 C   0  0  0  0  0  0  0  0  0  0  0  0
   63.4148  -13.5575  -13.5856 C   0  0  0  0  0  0  0  0  0  0  0  0
   62.7903  -13.6467  -14.8036 C   0  0  0  0  0  0  0  0  0  0  0  0
   61.4441  -13.9208  -14.8864 C   0  0  0  0  0  0  0  0  0  0  0  0
   60.7552  -14.1003  -13.7021 C   0  0  0  0  0  0  0  0  0  0  0  0
   61.3826  -14.0104  -12.4863 C   0  0  0  0  0  0  0  0  0  0  0  0
   63.3338   -9.0697   -5.0800 C   0  0  0  0  0  0  0  0  0  0  0  0
   62.8604   -9.7762   -3.8892 C   0  0  0  0  0  0  0  0  0  0  0  0
   63.5471  -10.8807   -3.4069 C   0  0  0  0  0  0  0  0  0  0  0  0
   63.1330  -11.5522   -2.2769 C   0  0  0  0  0  0  0  0  0  0  0  0
   62.0099  -11.1232   -1.6025 C   0  0  0  0  0  0  0  0  0  0  0  0
   61.3006  -10.0409   -2.0382 C   0  0  0  0  0  0  0  0  0  0  0  0
   61.7472   -9.3909   -3.1780 C   0  0  0  0  0  0  0  0  0  0  0  0
 40 41  1  0  0  0
 41 42  2  0  0  0
 41 38  1  0  0  0
 38 37  1  0  0  0
 37 36  1  0  0  0
 36 35  1  0  0  0
 35  1  1  0  0  0
  1  2  1  0  0  0
  2  3  1  0  0  0
  3  4  2  0  0  0
  3  5  1  0  0  0
  5  6  1  0  0  0
  6  7  1  0  0  0
  7  8  1  0  0  0
  8  9  1  0  0  0
  9 10  1  0  0  0
 10 11  2  0  0  0
 10 12  1  0  0  0
 12 46  1  0  0  0
 46 47  1  0  0  0
 47 48  2  0  0  0
 48 49  1  0  0  0
 49 50  2  0  0  0
 50 51  1  0  0  0
 51 52  2  0  0  0
 12 13  1  0  0  0
 13 14  1  0  0  0
 14 15  2  0  0  0
 14 16  1  0  0  0
 16 53  1  0  0  0
 53 54  1  0  0  0
 54 55  2  0  0  0
 55 56  1  0  0  0
 56 57  2  0  0  0
 57 58  1  0  0  0
 58 59  2  0  0  0
 16 17  1  0  0  0
 17 18  1  0  0  0
 18 19  2  0  0  0
 18 20  1  0  0  0
 20 21  1  0  0  0
 21 22  1  0  0  0
 22 23  1  0  0  0
 23 24  1  0  0  0
 24 25  1  0  0  0
 25 26  2  0  0  0
 25 27  1  0  0  0
 27 60  1  0  0  0
 60 61  1  0  0  0
 61 62  2  0  0  0
 62 63  1  0  0  0
 63 64  2  0  0  0
 64 65  1  0  0  0
 65 66  2  0  0  0
 27 28  1  0  0  0
 28 29  1  0  0  0
 29 30  2  0  0  0
 29  1  1  0  0  0
  9  5  1  0  0  0
 52 47  1  0  0  0
 59 54  1  0  0  0
 24 20  1  0  0  0
 66 61  1  0  0  0
 40 43  1  0  0  0
 40 44  1  0  0  0
 42 45  1  0  0  0
 38 39  1  0  0  0
  2 31  1  0  0  0
 13 32  1  0  0  0
 17 33  1  0  0  0
 28 34  1  0  0  0
M  END
> <minimizedAffinity>
-0.31096

> <CNNscore>
0.4013971984

> <CNNaffinity>
6.7521185875

> <CNN_VS>
2.7102813721

> <CNNaffinity_variance>
1.0132240057

$$$$
[H]N=C(N([H])[H])N([H])C([H])([H])C([H])([H])C([H])([H])[C@@]1([H])C(=O)N([H])[C@@]([H])(C([H])([H])c2c([H])c([H])c([H])c([H])c2[H])C(=O)N2C([H])([H])C([H])([H])C([H])([H])[C@@]2([H])C(=O)N([H])[C@@]([H])(C([H])([H])c2c([H])c([H])c([H])c([H])c2[H])C(=O)N([H])[C@@]([H])(C([H])([H])c2c([H])c([H])c([H])c([H])c2[H])C(=O)N2C([H])([H])C([H])([H])C([H])([H])[C@@]2([H])C(=O)N1[H]


 66 71  0  0  0  0  0  0  0  0999 V2000
   60.8833   -6.8507   -9.0435 C   0  0  0  0  0  0  0  0  0  0  0  0
   62.3169   -6.6461   -8.7545 N   0  0  0  0  0  0  0  0  0  0  0  0
   63.3878   -6.2806   -9.5253 C   0  0  0  0  0  0  0  0  0  0  0  0
   63.7993   -5.0553   -9.3330 O   0  0  0  0  0  0  0  0  0  0  0  0
   64.1868   -6.9886  -10.5324 C   0  0  0  0  0  0  0  0  0  0  0  0
   65.6425   -6.6082  -10.2517 C   0  0  0  0  0  0  0  0  0  0  0  0
   65.7527   -5.2799  -10.9695 C   0  0  0  0  0  0  0  0  0  0  0  0
   64.5649   -5.1403  -11.8846 C   0  0  0  0  0  0  0  0  0  0  0  0
   64.0307   -6.5149  -11.9059 N   0  0  0  0  0  0  0  0  0  0  0  0
   63.4875   -7.3663  -12.8981 C   0  0  0  0  0  0  0  0  0  0  0  0
   62.5827   -6.8549  -13.6096 O   0  0  0  0  0  0  0  0  0  0  0  0
   63.8798   -8.7728  -13.1648 C   0  0  0  0  0  0  0  0  0  0  0  0
   62.8770   -9.7192  -12.8401 N   0  0  0  0  0  0  0  0  0  0  0  0
   62.9712  -10.8973  -12.0534 C   0  0  0  0  0  0  0  0  0  0  0  0
   61.9963  -11.2000  -11.2703 O   0  0  0  0  0  0  0  0  0  0  0  0
   64.1102  -11.7982  -12.0769 C   0  0  0  0  0  0  0  0  0  0  0  0
   65.0405  -11.7731  -10.9899 N   0  0  0  0  0  0  0  0  0  0  0  0
   65.0912  -11.3345   -9.6773 C   0  0  0  0  0  0  0  0  0  0  0  0
   65.7494  -10.1842   -9.5678 O   0  0  0  0  0  0  0  0  0  0  0  0
   64.6253  -11.7960   -8.3845 C   0  0  0  0  0  0  0  0  0  0  0  0
   65.2883  -13.0999   -7.9332 C   0  0  0  0  0  0  0  0  0  0  0  0
   64.1526  -14.0301   -7.5900 C   0  0  0  0  0  0  0  0  0  0  0  0
   63.0048  -13.4105   -8.3406 C   0  0  0  0  0  0  0  0  0  0  0  0
   63.2341  -11.9557   -8.1057 N   0  0  0  0  0  0  0  0  0  0  0  0
   62.2975  -11.0250   -7.6815 C   0  0  0  0  0  0  0  0  0  0  0  0
   61.0985  -11.4804   -7.4678 O   0  0  0  0  0  0  0  0  0  0  0  0
   62.4273   -9.5695   -7.4229 C   0  0  0  0  0  0  0  0  0  0  0  0
   61.1189   -8.9550   -7.5180 N   0  0  0  0  0  0  0  0  0  0  0  0
   60.5350   -8.2388   -8.5618 C   0  0  0  0  0  0  0  0  0  0  0  0
   59.5842   -8.8078   -9.2019 O   0  0  0  0  0  0  0  0  0  0  0  0
   62.4743   -6.8093   -7.6946 H   0  0  0  0  0  0  0  0  0  0  0  0
   61.8971   -9.5148  -13.2366 H   0  0  0  0  0  0  0  0  0  0  0  0
   66.0030  -12.2251  -11.3433 H   0  0  0  0  0  0  0  0  0  0  0  0
   60.4960   -9.1008   -6.6464 H   0  0  0  0  0  0  0  0  0  0  0  0
   60.5555   -6.6394  -10.4586 C   0  0  0  0  0  0  0  0  0  0  0  0
   59.6889   -5.5217  -10.8926 C   0  0  0  0  0  0  0  0  0  0  0  0
   60.1499   -4.6404  -11.9956 C   0  0  0  0  0  0  0  0  0  0  0  0
   59.2487   -3.6735  -12.4758 N   0  0  0  0  0  0  0  0  0  0  0  0
   58.6464   -3.0595  -11.9030 H   0  0  0  0  0  0  0  0  0  0  0  0
   57.7194   -3.4441  -14.4150 N   0  0  0  0  0  0  0  0  0  0  0  0
   59.0430   -3.4702  -13.9038 C   0  0  0  0  0  0  0  0  0  0  0  0
   60.0449   -3.3153  -14.6947 N   0  0  0  0  0  0  0  0  0  0  0  0
   57.4989   -3.6241  -15.4133 H   0  0  0  0  0  0  0  0  0  0  0  0
   56.9363   -3.2369  -13.7671 H   0  0  0  0  0  0  0  0  0  0  0  0
   59.8967   -3.1700  -15.7114 H   0  0  0  0  0  0  0  0  0  0  0  0
   64.5370   -8.9287  -14.5135 C   0  0  0  0  0  0  0  0  0  0  0  0
   64.6734   -7.7243  -15.3222 C   0  0  0  0  0  0  0  0  0  0  0  0
   63.9265   -7.5625  -16.4652 C   0  0  0  0  0  0  0  0  0  0  0  0
   64.0859   -6.4222  -17.2679 C   0  0  0  0  0  0  0  0  0  0  0  0
   64.9906   -5.4534  -16.9204 C   0  0  0  0  0  0  0  0  0  0  0  0
   65.7437   -5.6062  -15.7763 C   0  0  0  0  0  0  0  0  0  0  0  0
   65.5767   -6.7460  -14.9847 C   0  0  0  0  0  0  0  0  0  0  0  0
   63.6883  -13.2294  -12.4798 C   0  0  0  0  0  0  0  0  0  0  0  0
   63.2789  -13.1985  -13.9214 C   0  0  0  0  0  0  0  0  0  0  0  0
   61.9979  -13.3636  -14.3653 C   0  0  0  0  0  0  0  0  0  0  0  0
   61.6672  -13.3296  -15.6960 C   0  0  0  0  0  0  0  0  0  0  0  0
   62.6312  -13.1236  -16.6563 C   0  0  0  0  0  0  0  0  0  0  0  0
   63.9338  -12.9542  -16.2271 C   0  0  0  0  0  0  0  0  0  0  0  0
   64.2610  -12.9889  -14.8960 C   0  0  0  0  0  0  0  0  0  0  0  0
   63.0114   -9.3837   -6.0517 C   0  0  0  0  0  0  0  0  0  0  0  0
   62.2267   -9.9092   -4.9340 C   0  0  0  0  0  0  0  0  0  0  0  0
   61.3457   -9.0883   -4.2454 C   0  0  0  0  0  0  0  0  0  0  0  0
   60.5814   -9.5631   -3.2016 C   0  0  0  0  0  0  0  0  0  0  0  0
   60.6880  -10.8849   -2.8251 C   0  0  0  0  0  0  0  0  0  0  0  0
   61.5410  -11.7321   -3.4725 C   0  0  0  0  0  0  0  0  0  0  0  0
   62.2934  -11.2189   -4.5173 C   0  0  0  0  0  0  0  0  0  0  0  0
 40 41  1  0  0  0
 41 42  2  0  0  0
 41 38  1  0  0  0
 38 37  1  0  0  0
 37 36  1  0  0  0
 36 35  1  0  0  0
 35  1  1  0  0  0
  1  2  1  0  0  0
  2  3  1  0  0  0
  3  4  2  0  0  0
  3  5  1  0  0  0
  5  6  1  0  0  0
  6  7  1  0  0  0
  7  8  1  0  0  0
  8  9  1  0  0  0
  9 10  1  0  0  0
 10 11  2  0  0  0
 10 12  1  0  0  0
 12 46  1  0  0  0
 46 47  1  0  0  0
 47 48  2  0  0  0
 48 49  1  0  0  0
 49 50  2  0  0  0
 50 51  1  0  0  0
 51 52  2  0  0  0
 12 13  1  0  0  0
 13 14  1  0  0  0
 14 15  2  0  0  0
 14 16  1  0  0  0
 16 53  1  0  0  0
 53 54  1  0  0  0
 54 55  2  0  0  0
 55 56  1  0  0  0
 56 57  2  0  0  0
 57 58  1  0  0  0
 58 59  2  0  0  0
 16 17  1  0  0  0
 17 18  1  0  0  0
 18 19  2  0  0  0
 18 20  1  0  0  0
 20 21  1  0  0  0
 21 22  1  0  0  0
 22 23  1  0  0  0
 23 24  1  0  0  0
 24 25  1  0  0  0
 25 26  2  0  0  0
 25 27  1  0  0  0
 27 60  1  0  0  0
 60 61  1  0  0  0
 61 62  2  0  0  0
 62 63  1  0  0  0
 63 64  2  0  0  0
 64 65  1  0  0  0
 65 66  2  0  0  0
 27 28  1  0  0  0
 28 29  1  0  0  0
 29 30  2  0  0  0
 29  1  1  0  0  0
  9  5  1  0  0  0
 52 47  1  0  0  0
 59 54  1  0  0  0
 24 20  1  0  0  0
 66 61  1  0  0  0
 40 43  1  0  0  0
 40 44  1  0  0  0
 42 45  1  0  0  0
 38 39  1  0  0  0
  2 31  1  0  0  0
 13 32  1  0  0  0
 17 33  1  0  0  0
 28 34  1  0  0  0
M  END
> <minimizedAffinity>
1.90432

> <CNNscore>
0.3994273543

> <CNNaffinity>
6.5106377602

> <CNN_VS>
2.6005268097

> <CNNaffinity_variance>
0.9445484877

$$$$
[H]N=C(N([H])[H])N([H])C([H])([H])C([H])([H])C([H])([H])[C@@]1([H])C(=O)N([H])[C@@]([H])(C([H])([H])c2c([H])c([H])c([H])c([H])c2[H])C(=O)N2C([H])([H])C([H])([H])C([H])([H])[C@@]2([H])C(=O)N([H])[C@@]([H])(C([H])([H])c2c([H])c([H])c([H])c([H])c2[H])C(=O)N([H])[C@@]([H])(C([H])([H])c2c([H])c([H])c([H])c([H])c2[H])C(=O)N2C([H])([H])C([H])([H])C([H])([H])[C@@]2([H])C(=O)N1[H]


 66 71  0  0  0  0  0  0  0  0999 V2000
   53.3819   -3.4810   -8.0862 C   0  0  0  0  0  0  0  0  0  0  0  0
   53.2313   -4.9364   -8.2863 N   0  0  0  0  0  0  0  0  0  0  0  0
   52.2807   -5.8440   -7.9030 C   0  0  0  0  0  0  0  0  0  0  0  0
   51.4966   -6.2460   -8.8681 O   0  0  0  0  0  0  0  0  0  0  0  0
   51.9565   -6.4747   -6.6181 C   0  0  0  0  0  0  0  0  0  0  0  0
   51.6738   -7.9451   -6.9355 C   0  0  0  0  0  0  0  0  0  0  0  0
   50.2258   -7.8878   -7.3734 C   0  0  0  0  0  0  0  0  0  0  0  0
   49.6620   -6.5543   -6.9593 C   0  0  0  0  0  0  0  0  0  0  0  0
   50.6880   -6.0660   -6.0190 N   0  0  0  0  0  0  0  0  0  0  0  0
   50.6705   -5.3829   -4.7790 C   0  0  0  0  0  0  0  0  0  0  0  0
   49.9471   -4.3524   -4.7424 O   0  0  0  0  0  0  0  0  0  0  0  0
   51.4122   -5.7641   -3.5511 C   0  0  0  0  0  0  0  0  0  0  0  0
   52.4483   -4.8627   -3.2039 N   0  0  0  0  0  0  0  0  0  0  0  0
   53.8094   -5.1287   -2.9000 C   0  0  0  0  0  0  0  0  0  0  0  0
   54.7106   -4.3158   -3.3268 O   0  0  0  0  0  0  0  0  0  0  0  0
   54.2579   -6.2723   -2.1251 C   0  0  0  0  0  0  0  0  0  0  0  0
   54.8640   -7.3777   -2.8021 N   0  0  0  0  0  0  0  0  0  0  0  0
   55.4663   -7.6448   -4.0202 C   0  0  0  0  0  0  0  0  0  0  0  0
   54.6410   -8.2773   -4.8493 O   0  0  0  0  0  0  0  0  0  0  0  0
   56.7606   -7.4270   -4.6355 C   0  0  0  0  0  0  0  0  0  0  0  0
   57.8926   -8.1975   -3.9513 C   0  0  0  0  0  0  0  0  0  0  0  0
   58.9496   -7.1680   -3.6420 C   0  0  0  0  0  0  0  0  0  0  0  0
   58.1586   -5.8884   -3.6802 C   0  0  0  0  0  0  0  0  0  0  0  0
   57.2702   -6.1117   -4.8569 N   0  0  0  0  0  0  0  0  0  0  0  0
   57.0512   -5.2366   -5.9104 C   0  0  0  0  0  0  0  0  0  0  0  0
   57.6944   -4.1078   -5.8562 O   0  0  0  0  0  0  0  0  0  0  0  0
   56.1933   -5.3661   -7.1143 C   0  0  0  0  0  0  0  0  0  0  0  0
   55.8872   -4.0435   -7.6199 N   0  0  0  0  0  0  0  0  0  0  0  0
   54.7415   -3.2644   -7.4661 C   0  0  0  0  0  0  0  0  0  0  0  0
   54.8317   -2.2335   -6.7134 O   0  0  0  0  0  0  0  0  0  0  0  0
   54.0631   -5.2821   -8.8891 H   0  0  0  0  0  0  0  0  0  0  0  0
   52.1710   -3.8228   -3.1746 H   0  0  0  0  0  0  0  0  0  0  0  0
   54.7933   -8.2764   -2.1366 H   0  0  0  0  0  0  0  0  0  0  0  0
   56.6892   -3.5879   -8.1841 H   0  0  0  0  0  0  0  0  0  0  0  0
   52.2931   -2.9040   -7.2886 C   0  0  0  0  0  0  0  0  0  0  0  0
   50.9192   -2.7888   -7.8251 C   0  0  0  0  0  0  0  0  0  0  0  0
   49.9274   -1.9621   -7.0914 C   0  0  0  0  0  0  0  0  0  0  0  0
   48.7894   -2.6116   -6.5807 N   0  0  0  0  0  0  0  0  0  0  0  0
   48.1472   -3.2265   -7.1071 H   0  0  0  0  0  0  0  0  0  0  0  0
   47.1669   -3.0418   -4.7546 N   0  0  0  0  0  0  0  0  0  0  0  0
   48.3688   -2.4309   -5.1974 C   0  0  0  0  0  0  0  0  0  0  0  0
   49.0749   -1.7283   -4.3843 N   0  0  0  0  0  0  0  0  0  0  0  0
   46.6449   -2.7145   -3.9191 H   0  0  0  0  0  0  0  0  0  0  0  0
   46.7906   -3.8495   -5.2855 H   0  0  0  0  0  0  0  0  0  0  0  0
   48.7744   -1.6011   -3.3993 H   0  0  0  0  0  0  0  0  0  0  0  0
   50.4834   -6.1790   -2.4374 C   0  0  0  0  0  0  0  0  0  0  0  0
   50.7637   -7.4522   -1.7866 C   0  0  0  0  0  0  0  0  0  0  0  0
   51.6682   -8.3317   -2.3334 C   0  0  0  0  0  0  0  0  0  0  0  0
   51.9094   -9.5761   -1.7306 C   0  0  0  0  0  0  0  0  0  0  0  0
   51.2442   -9.9300   -0.5861 C   0  0  0  0  0  0  0  0  0  0  0  0
   50.3359   -9.0552   -0.0301 C   0  0  0  0  0  0  0  0  0  0  0  0
   50.1036   -7.8187   -0.6390 C   0  0  0  0  0  0  0  0  0  0  0  0
   55.0405   -5.8293   -0.8682 C   0  0  0  0  0  0  0  0  0  0  0  0
   56.0750   -6.8748   -0.5794 C   0  0  0  0  0  0  0  0  0  0  0  0
   55.8158   -8.2119   -0.4776 C   0  0  0  0  0  0  0  0  0  0  0  0
   56.7939   -9.1355   -0.2101 C   0  0  0  0  0  0  0  0  0  0  0  0
   58.1013   -8.7449   -0.0301 C   0  0  0  0  0  0  0  0  0  0  0  0
   58.3838   -7.3959   -0.1293 C   0  0  0  0  0  0  0  0  0  0  0  0
   57.4036   -6.4752   -0.3969 C   0  0  0  0  0  0  0  0  0  0  0  0
   56.9359   -6.1760   -8.1384 C   0  0  0  0  0  0  0  0  0  0  0  0
   57.3129   -5.4799   -9.3691 C   0  0  0  0  0  0  0  0  0  0  0  0
   58.6035   -5.5807   -9.8674 C   0  0  0  0  0  0  0  0  0  0  0  0
   58.9789   -4.9506  -11.0341 C   0  0  0  0  0  0  0  0  0  0  0  0
   58.0562   -4.1992  -11.7301 C   0  0  0  0  0  0  0  0  0  0  0  0
   56.7737   -4.0702  -11.2798 C   0  0  0  0  0  0  0  0  0  0  0  0
   56.4328   -4.7182  -10.1031 C   0  0  0  0  0  0  0  0  0  0  0  0
 40 41  1  0  0  0
 41 42  2  0  0  0
 41 38  1  0  0  0
 38 37  1  0  0  0
 37 36  1  0  0  0
 36 35  1  0  0  0
 35  1  1  0  0  0
  1  2  1  0  0  0
  2  3  1  0  0  0
  3  4  2  0  0  0
  3  5  1  0  0  0
  5  6  1  0  0  0
  6  7  1  0  0  0
  7  8  1  0  0  0
  8  9  1  0  0  0
  9 10  1  0  0  0
 10 11  2  0  0  0
 10 12  1  0  0  0
 12 46  1  0  0  0
 46 47  1  0  0  0
 47 48  2  0  0  0
 48 49  1  0  0  0
 49 50  2  0  0  0
 50 51  1  0  0  0
 51 52  2  0  0  0
 12 13  1  0  0  0
 13 14  1  0  0  0
 14 15  2  0  0  0
 14 16  1  0  0  0
 16 53  1  0  0  0
 53 54  1  0  0  0
 54 55  2  0  0  0
 55 56  1  0  0  0
 56 57  2  0  0  0
 57 58  1  0  0  0
 58 59  2  0  0  0
 16 17  1  0  0  0
 17 18  1  0  0  0
 18 19  2  0  0  0
 18 20  1  0  0  0
 20 21  1  0  0  0
 21 22  1  0  0  0
 22 23  1  0  0  0
 23 24  1  0  0  0
 24 25  1  0  0  0
 25 26  2  0  0  0
 25 27  1  0  0  0
 27 60  1  0  0  0
 60 61  1  0  0  0
 61 62  2  0  0  0
 62 63  1  0  0  0
 63 64  2  0  0  0
 64 65  1  0  0  0
 65 66  2  0  0  0
 27 28  1  0  0  0
 28 29  1  0  0  0
 29 30  2  0  0  0
 29  1  1  0  0  0
  9  5  1  0  0  0
 52 47  1  0  0  0
 59 54  1  0  0  0
 24 20  1  0  0  0
 66 61  1  0  0  0
 40 43  1  0  0  0
 40 44  1  0  0  0
 42 45  1  0  0  0
 38 39  1  0  0  0
  2 31  1  0  0  0
 13 32  1  0  0  0
 17 33  1  0  0  0
 28 34  1  0  0  0
M  END
> <minimizedAffinity>
4.49235

> <CNNscore>
0.3877951801

> <CNNaffinity>
7.8867850304

> <CNN_VS>
3.0584571362

> <CNNaffinity_variance>
0.4229753911

$$$$
[H]N=C(N([H])[H])N([H])C([H])([H])C([H])([H])C([H])([H])[C@@]1([H])C(=O)N([H])[C@@]([H])(C([H])([H])c2c([H])c([H])c([H])c([H])c2[H])C(=O)N2C([H])([H])C([H])([H])C([H])([H])[C@@]2([H])C(=O)N([H])[C@@]([H])(C([H])([H])c2c([H])c([H])c([H])c([H])c2[H])C(=O)N([H])[C@@]([H])(C([H])([H])c2c([H])c([H])c([H])c([H])c2[H])C(=O)N2C([H])([H])C([H])([H])C([H])([H])[C@@]2([H])C(=O)N1[H]


 66 71  0  0  0  0  0  0  0  0999 V2000
   61.4662   -6.6010   -7.6834 C   0  0  0  0  0  0  0  0  0  0  0  0
   62.9169   -6.6578   -7.9534 N   0  0  0  0  0  0  0  0  0  0  0  0
   63.6639   -7.2022   -8.9634 C   0  0  0  0  0  0  0  0  0  0  0  0
   64.1601   -6.3292   -9.7997 O   0  0  0  0  0  0  0  0  0  0  0  0
   64.0353   -8.5801   -9.3056 C   0  0  0  0  0  0  0  0  0  0  0  0
   65.5101   -8.5253   -9.7113 C   0  0  0  0  0  0  0  0  0  0  0  0
   65.4104   -8.0985  -11.1603 C   0  0  0  0  0  0  0  0  0  0  0  0
   63.9838   -8.2806  -11.6067 C   0  0  0  0  0  0  0  0  0  0  0  0
   63.4269   -9.1118  -10.5231 N   0  0  0  0  0  0  0  0  0  0  0  0
   62.5415  -10.2146  -10.4568 C   0  0  0  0  0  0  0  0  0  0  0  0
   61.4642  -10.0792  -11.0952 O   0  0  0  0  0  0  0  0  0  0  0  0
   62.7654  -11.4826   -9.7183 C   0  0  0  0  0  0  0  0  0  0  0  0
   61.9058  -11.6580   -8.6062 N   0  0  0  0  0  0  0  0  0  0  0  0
   62.2263  -11.9899   -7.2635 C   0  0  0  0  0  0  0  0  0  0  0  0
   61.5757  -11.4196   -6.3112 O   0  0  0  0  0  0  0  0  0  0  0  0
   63.2524  -12.9469   -6.8884 C   0  0  0  0  0  0  0  0  0  0  0  0
   64.5038  -12.4659   -6.3881 N   0  0  0  0  0  0  0  0  0  0  0  0
   65.0251  -11.3067   -5.8382 C   0  0  0  0  0  0  0  0  0  0  0  0
   65.7209  -10.6080   -6.7306 O   0  0  0  0  0  0  0  0  0  0  0  0
   65.0233  -10.6501   -4.5458 C   0  0  0  0  0  0  0  0  0  0  0  0
   65.7550  -11.4464   -3.4623 C   0  0  0  0  0  0  0  0  0  0  0  0
   64.7779  -11.5620   -2.3200 C   0  0  0  0  0  0  0  0  0  0  0  0
   63.4633  -11.3103   -3.0079 C   0  0  0  0  0  0  0  0  0  0  0  0
   63.8121  -10.1989   -3.9391 N   0  0  0  0  0  0  0  0  0  0  0  0
   63.1163   -9.0118   -4.1135 C   0  0  0  0  0  0  0  0  0  0  0  0
   62.0518   -8.8631   -3.3819 O   0  0  0  0  0  0  0  0  0  0  0  0
   63.3802   -7.8572   -5.0075 C   0  0  0  0  0  0  0  0  0  0  0  0
   62.1437   -7.1329   -5.2200 N   0  0  0  0  0  0  0  0  0  0  0  0
   61.2584   -7.1606   -6.2964 C   0  0  0  0  0  0  0  0  0  0  0  0
   60.1243   -7.7222   -6.1070 O   0  0  0  0  0  0  0  0  0  0  0  0
   63.4283   -6.1160   -7.1663 H   0  0  0  0  0  0  0  0  0  0  0  0
   60.8572  -11.5093   -8.7995 H   0  0  0  0  0  0  0  0  0  0  0  0
   65.2657  -13.2779   -6.5137 H   0  0  0  0  0  0  0  0  0  0  0  0
   61.8594   -6.4903   -4.3983 H   0  0  0  0  0  0  0  0  0  0  0  0
   60.6731   -7.2972   -8.7037 C   0  0  0  0  0  0  0  0  0  0  0  0
   59.7269   -6.5687   -9.5771 C   0  0  0  0  0  0  0  0  0  0  0  0
   58.9322   -5.4527   -9.0038 C   0  0  0  0  0  0  0  0  0  0  0  0
   57.9408   -5.7773   -8.0607 N   0  0  0  0  0  0  0  0  0  0  0  0
   57.9466   -6.5881   -7.4202 H   0  0  0  0  0  0  0  0  0  0  0  0
   56.2549   -4.6566   -6.6275 N   0  0  0  0  0  0  0  0  0  0  0  0
   56.7305   -4.9772   -7.9255 C   0  0  0  0  0  0  0  0  0  0  0  0
   56.0985   -4.5642   -8.9663 N   0  0  0  0  0  0  0  0  0  0  0  0
   55.2707   -4.3838   -6.4412 H   0  0  0  0  0  0  0  0  0  0  0  0
   56.9151   -4.6952   -5.8285 H   0  0  0  0  0  0  0  0  0  0  0  0
   55.2371   -3.9939   -8.8684 H   0  0  0  0  0  0  0  0  0  0  0  0
   62.9047  -12.6606  -10.6501 C   0  0  0  0  0  0  0  0  0  0  0  0
   63.6676  -12.4458  -11.8728 C   0  0  0  0  0  0  0  0  0  0  0  0
   63.1273  -12.7608  -13.0974 C   0  0  0  0  0  0  0  0  0  0  0  0
   63.8752  -12.5934  -14.2732 C   0  0  0  0  0  0  0  0  0  0  0  0
   65.1569  -12.1122  -14.2143 C   0  0  0  0  0  0  0  0  0  0  0  0
   65.7073  -11.7933  -12.9917 C   0  0  0  0  0  0  0  0  0  0  0  0
   64.9533  -11.9642  -11.8272 C   0  0  0  0  0  0  0  0  0  0  0  0
   62.6656  -14.1001   -6.0433 C   0  0  0  0  0  0  0  0  0  0  0  0
   61.7421  -13.5002   -5.0264 C   0  0  0  0  0  0  0  0  0  0  0  0
   60.4758  -13.0640   -5.2938 C   0  0  0  0  0  0  0  0  0  0  0  0
   59.6639  -12.5190   -4.3319 C   0  0  0  0  0  0  0  0  0  0  0  0
   60.1007  -12.3874   -3.0334 C   0  0  0  0  0  0  0  0  0  0  0  0
   61.3794  -12.8232   -2.7429 C   0  0  0  0  0  0  0  0  0  0  0  0
   62.1884  -13.3674   -3.7068 C   0  0  0  0  0  0  0  0  0  0  0  0
   64.4124   -6.9818   -4.3561 C   0  0  0  0  0  0  0  0  0  0  0  0
   64.8006   -5.7773   -5.0908 C   0  0  0  0  0  0  0  0  0  0  0  0
   64.6314   -4.5224   -4.5244 C   0  0  0  0  0  0  0  0  0  0  0  0
   65.0061   -3.3739   -5.1875 C   0  0  0  0  0  0  0  0  0  0  0  0
   65.5638   -3.4641   -6.4449 C   0  0  0  0  0  0  0  0  0  0  0  0
   65.7507   -4.6768   -7.0440 C   0  0  0  0  0  0  0  0  0  0  0  0
   65.3618   -5.8097   -6.3468 C   0  0  0  0  0  0  0  0  0  0  0  0
 40 41  1  0  0  0
 41 42  2  0  0  0
 41 38  1  0  0  0
 38 37  1  0  0  0
 37 36  1  0  0  0
 36 35  1  0  0  0
 35  1  1  0  0  0
  1  2  1  0  0  0
  2  3  1  0  0  0
  3  4  2  0  0  0
  3  5  1  0  0  0
  5  6  1  0  0  0
  6  7  1  0  0  0
  7  8  1  0  0  0
  8  9  1  0  0  0
  9 10  1  0  0  0
 10 11  2  0  0  0
 10 12  1  0  0  0
 12 46  1  0  0  0
 46 47  1  0  0  0
 47 48  2  0  0  0
 48 49  1  0  0  0
 49 50  2  0  0  0
 50 51  1  0  0  0
 51 52  2  0  0  0
 12 13  1  0  0  0
 13 14  1  0  0  0
 14 15  2  0  0  0
 14 16  1  0  0  0
 16 53  1  0  0  0
 53 54  1  0  0  0
 54 55  2  0  0  0
 55 56  1  0  0  0
 56 57  2  0  0  0
 57 58  1  0  0  0
 58 59  2  0  0  0
 16 17  1  0  0  0
 17 18  1  0  0  0
 18 19  2  0  0  0
 18 20  1  0  0  0
 20 21  1  0  0  0
 21 22  1  0  0  0
 22 23  1  0  0  0
 23 24  1  0  0  0
 24 25  1  0  0  0
 25 26  2  0  0  0
 25 27  1  0  0  0
 27 60  1  0  0  0
 60 61  1  0  0  0
 61 62  2  0  0  0
 62 63  1  0  0  0
 63 64  2  0  0  0
 64 65  1  0  0  0
 65 66  2  0  0  0
 27 28  1  0  0  0
 28 29  1  0  0  0
 29 30  2  0  0  0
 29  1  1  0  0  0
  9  5  1  0  0  0
 52 47  1  0  0  0
 59 54  1  0  0  0
 24 20  1  0  0  0
 66 61  1  0  0  0
 40 43  1  0  0  0
 40 44  1  0  0  0
 42 45  1  0  0  0
 38 39  1  0  0  0
  2 31  1  0  0  0
 13 32  1  0  0  0
 17 33  1  0  0  0
 28 34  1  0  0  0
M  END
> <minimizedAffinity>
-2.87280

> <CNNscore>
0.3802778721

> <CNNaffinity>
6.7207512856

> <CNN_VS>
2.5557529926

> <CNNaffinity_variance>
0.3771556020

$$$$
[H]N=C(N([H])[H])N([H])C([H])([H])C([H])([H])C([H])([H])[C@@]1([H])C(=O)N([H])[C@@]([H])(C([H])([H])c2c([H])c([H])c([H])c([H])c2[H])C(=O)N2C([H])([H])C([H])([H])C([H])([H])[C@@]2([H])C(=O)N([H])[C@@]([H])(C([H])([H])c2c([H])c([H])c([H])c([H])c2[H])C(=O)N([H])[C@@]([H])(C([H])([H])c2c([H])c([H])c([H])c([H])c2[H])C(=O)N2C([H])([H])C([H])([H])C([H])([H])[C@@]2([H])C(=O)N1[H]


 66 71  0  0  0  0  0  0  0  0999 V2000
   51.8169   -2.6787   -8.5528 C   0  0  0  0  0  0  0  0  0  0  0  0
   51.7555   -4.1128   -8.8997 N   0  0  0  0  0  0  0  0  0  0  0  0
   51.2768   -5.2175   -8.2476 C   0  0  0  0  0  0  0  0  0  0  0  0
   50.1502   -5.6794   -8.7220 O   0  0  0  0  0  0  0  0  0  0  0  0
   51.7740   -6.0075   -7.1151 C   0  0  0  0  0  0  0  0  0  0  0  0
   51.5409   -7.4718   -7.4947 C   0  0  0  0  0  0  0  0  0  0  0  0
   50.0906   -7.6594   -7.1031 C   0  0  0  0  0  0  0  0  0  0  0  0
   49.6862   -6.5015   -6.2294 C   0  0  0  0  0  0  0  0  0  0  0  0
   50.9910   -5.9061   -5.8855 N   0  0  0  0  0  0  0  0  0  0  0  0
   51.5643   -5.3488   -4.7171 C   0  0  0  0  0  0  0  0  0  0  0  0
   50.8591   -4.4856   -4.1306 O   0  0  0  0  0  0  0  0  0  0  0  0
   52.8900   -5.6831   -4.1391 C   0  0  0  0  0  0  0  0  0  0  0  0
   53.8345   -4.6309   -4.2244 N   0  0  0  0  0  0  0  0  0  0  0  0
   55.1648   -4.6526   -4.7200 C   0  0  0  0  0  0  0  0  0  0  0  0
   55.5900   -3.6464   -5.3998 O   0  0  0  0  0  0  0  0  0  0  0  0
   56.0918   -5.7497   -4.5047 C   0  0  0  0  0  0  0  0  0  0  0  0
   56.3627   -6.6538   -5.5802 N   0  0  0  0  0  0  0  0  0  0  0  0
   56.2397   -6.6929   -6.9591 C   0  0  0  0  0  0  0  0  0  0  0  0
   55.1792   -7.3998   -7.3389 O   0  0  0  0  0  0  0  0  0  0  0  0
   56.9614   -6.1755   -8.1049 C   0  0  0  0  0  0  0  0  0  0  0  0
   58.3653   -6.7676   -8.2527 C   0  0  0  0  0  0  0  0  0  0  0  0
   59.2917   -5.5829   -8.3579 C   0  0  0  0  0  0  0  0  0  0  0  0
   58.4603   -4.4829   -7.7552 C   0  0  0  0  0  0  0  0  0  0  0  0
   57.1114   -4.7722   -8.3214 N   0  0  0  0  0  0  0  0  0  0  0  0
   56.2572   -3.8689   -8.9362 C   0  0  0  0  0  0  0  0  0  0  0  0
   56.6893   -2.6456   -9.0238 O   0  0  0  0  0  0  0  0  0  0  0  0
   54.9081   -4.0583   -9.5243 C   0  0  0  0  0  0  0  0  0  0  0  0
   54.2239   -2.7819   -9.5562 N   0  0  0  0  0  0  0  0  0  0  0  0
   53.2594   -2.2564   -8.6977 C   0  0  0  0  0  0  0  0  0  0  0  0
   53.6186   -1.2963   -7.9316 O   0  0  0  0  0  0  0  0  0  0  0  0
   52.1649   -4.2372   -9.8955 H   0  0  0  0  0  0  0  0  0  0  0  0
   53.4963   -3.6712   -3.8729 H   0  0  0  0  0  0  0  0  0  0  0  0
   56.7689   -7.6031   -5.1449 H   0  0  0  0  0  0  0  0  0  0  0  0
   54.5344   -2.1322  -10.3627 H   0  0  0  0  0  0  0  0  0  0  0  0
   51.2710   -2.3951   -7.2201 C   0  0  0  0  0  0  0  0  0  0  0  0
   49.8663   -1.9691   -7.0350 C   0  0  0  0  0  0  0  0  0  0  0  0
   48.9452   -2.8431   -6.2647 C   0  0  0  0  0  0  0  0  0  0  0  0
   48.7690   -2.5590   -4.8987 N   0  0  0  0  0  0  0  0  0  0  0  0
   49.3171   -1.8868   -4.3371 H   0  0  0  0  0  0  0  0  0  0  0  0
   48.1094   -4.4957   -3.4964 N   0  0  0  0  0  0  0  0  0  0  0  0
   47.7697   -3.2575   -4.1008 C   0  0  0  0  0  0  0  0  0  0  0  0
   46.5938   -2.7617   -3.9429 N   0  0  0  0  0  0  0  0  0  0  0  0
   47.3971   -5.1894   -3.1979 H   0  0  0  0  0  0  0  0  0  0  0  0
   49.1105   -4.7210   -3.3449 H   0  0  0  0  0  0  0  0  0  0  0  0
   45.8835   -3.2600   -3.3738 H   0  0  0  0  0  0  0  0  0  0  0  0
   52.7651   -6.3649   -2.7994 C   0  0  0  0  0  0  0  0  0  0  0  0
   53.8630   -6.1761   -1.8601 C   0  0  0  0  0  0  0  0  0  0  0  0
   54.1848   -4.9188   -1.4057 C   0  0  0  0  0  0  0  0  0  0  0  0
   55.2677   -4.7296   -0.5331 C   0  0  0  0  0  0  0  0  0  0  0  0
   56.0192   -5.7992   -0.1221 C   0  0  0  0  0  0  0  0  0  0  0  0
   55.7044   -7.0634   -0.5717 C   0  0  0  0  0  0  0  0  0  0  0  0
   54.6239   -7.2400   -1.4407 C   0  0  0  0  0  0  0  0  0  0  0  0
   57.3697   -5.2732   -3.7779 C   0  0  0  0  0  0  0  0  0  0  0  0
   57.9745   -6.4585   -3.0880 C   0  0  0  0  0  0  0  0  0  0  0  0
   57.6249   -7.7562   -3.3309 C   0  0  0  0  0  0  0  0  0  0  0  0
   58.2038   -8.8123   -2.6744 C   0  0  0  0  0  0  0  0  0  0  0  0
   59.1793   -8.6031   -1.7263 C   0  0  0  0  0  0  0  0  0  0  0  0
   59.5470   -7.2966   -1.4664 C   0  0  0  0  0  0  0  0  0  0  0  0
   58.9662   -6.2432   -2.1244 C   0  0  0  0  0  0  0  0  0  0  0  0
   55.0707   -4.6172  -10.9090 C   0  0  0  0  0  0  0  0  0  0  0  0
   56.3397   -4.3331  -11.5799 C   0  0  0  0  0  0  0  0  0  0  0  0
   56.3748   -3.5229  -12.7053 C   0  0  0  0  0  0  0  0  0  0  0  0
   57.5588   -3.2247  -13.3444 C   0  0  0  0  0  0  0  0  0  0  0  0
   58.7426   -3.7395  -12.8609 C   0  0  0  0  0  0  0  0  0  0  0  0
   58.7593   -4.5418  -11.7562 C   0  0  0  0  0  0  0  0  0  0  0  0
   57.5493   -4.8197  -11.1400 C   0  0  0  0  0  0  0  0  0  0  0  0
 40 41  1  0  0  0
 41 42  2  0  0  0
 41 38  1  0  0  0
 38 37  1  0  0  0
 37 36  1  0  0  0
 36 35  1  0  0  0
 35  1  1  0  0  0
  1  2  1  0  0  0
  2  3  1  0  0  0
  3  4  2  0  0  0
  3  5  1  0  0  0
  5  6  1  0  0  0
  6  7  1  0  0  0
  7  8  1  0  0  0
  8  9  1  0  0  0
  9 10  1  0  0  0
 10 11  2  0  0  0
 10 12  1  0  0  0
 12 46  1  0  0  0
 46 47  1  0  0  0
 47 48  2  0  0  0
 48 49  1  0  0  0
 49 50  2  0  0  0
 50 51  1  0  0  0
 51 52  2  0  0  0
 12 13  1  0  0  0
 13 14  1  0  0  0
 14 15  2  0  0  0
 14 16  1  0  0  0
 16 53  1  0  0  0
 53 54  1  0  0  0
 54 55  2  0  0  0
 55 56  1  0  0  0
 56 57  2  0  0  0
 57 58  1  0  0  0
 58 59  2  0  0  0
 16 17  1  0  0  0
 17 18  1  0  0  0
 18 19  2  0  0  0
 18 20  1  0  0  0
 20 21  1  0  0  0
 21 22  1  0  0  0
 22 23  1  0  0  0
 23 24  1  0  0  0
 24 25  1  0  0  0
 25 26  2  0  0  0
 25 27  1  0  0  0
 27 60  1  0  0  0
 60 61  1  0  0  0
 61 62  2  0  0  0
 62 63  1  0  0  0
 63 64  2  0  0  0
 64 65  1  0  0  0
 65 66  2  0  0  0
 27 28  1  0  0  0
 28 29  1  0  0  0
 29 30  2  0  0  0
 29  1  1  0  0  0
  9  5  1  0  0  0
 52 47  1  0  0  0
 59 54  1  0  0  0
 24 20  1  0  0  0
 66 61  1  0  0  0
 40 43  1  0  0  0
 40 44  1  0  0  0
 42 45  1  0  0  0
 38 39  1  0  0  0
  2 31  1  0  0  0
 13 32  1  0  0  0
 17 33  1  0  0  0
 28 34  1  0  0  0
M  END
> <minimizedAffinity>
7.40734

> <CNNscore>
0.3656901717

> <CNNaffinity>
7.6543874741

> <CNN_VS>
2.7991342545

> <CNNaffinity_variance>
1.0284765959

$$$$
[H]c1nc([C@]2(c3c([H])c([H])c([H])c([H])c3[H])C([H])([H])[C@@]2([H])C([H])([H])N([H])[H])c([H])c([H])c1[H]


 19 21  0  0  0  0  0  0  0  0999 V2000
   62.7127   -7.3410   -5.0118 C   0  0  0  0  0  0  0  0  0  0  0  0
   64.1123   -7.4688   -4.4251 C   0  0  0  0  0  0  0  0  0  0  0  0
   62.8863   -8.3083   -3.9588 C   0  0  0  0  0  0  0  0  0  0  0  0
   63.1109   -9.7439   -4.1314 C   0  0  0  0  0  0  0  0  0  0  0  0
   61.9669  -10.5227   -4.3512 C   0  0  0  0  0  0  0  0  0  0  0  0
   62.0550  -11.8673   -4.5262 C   0  0  0  0  0  0  0  0  0  0  0  0
   63.2861  -12.4882   -4.4890 C   0  0  0  0  0  0  0  0  0  0  0  0
   64.4016  -11.7318   -4.2751 C   0  0  0  0  0  0  0  0  0  0  0  0
   64.3276  -10.3675   -4.0961 C   0  0  0  0  0  0  0  0  0  0  0  0
   62.4088   -7.9560   -2.5724 C   0  0  0  0  0  0  0  0  0  0  0  0
   63.3142   -7.9783   -1.5410 C   0  0  0  0  0  0  0  0  0  0  0  0
   62.9303   -7.6659   -0.2615 C   0  0  0  0  0  0  0  0  0  0  0  0
   61.5980   -7.3248   -0.0329 C   0  0  0  0  0  0  0  0  0  0  0  0
   60.7526   -7.3263   -1.1222 C   0  0  0  0  0  0  0  0  0  0  0  0
   61.1346   -7.6320   -2.3665 N   0  0  0  0  0  0  0  0  0  0  0  0
   61.1039   -7.5193   -6.7551 N   0  0  0  0  0  0  0  0  0  0  0  0
   62.5426   -7.6346   -6.4683 C   0  0  0  0  0  0  0  0  0  0  0  0
   60.7327   -6.6652   -6.2740 H   0  0  0  0  0  0  0  0  0  0  0  0
   60.6095   -8.3817   -6.4117 H   0  0  0  0  0  0  0  0  0  0  0  0
 16 17  1  0  0  0
 17  1  1  0  0  0
  1  2  1  0  0  0
  2  3  1  0  0  0
  3  4  1  0  0  0
  4  5  2  0  0  0
  5  6  1  0  0  0
  6  7  2  0  0  0
  7  8  1  0  0  0
  8  9  2  0  0  0
  3 10  1  0  0  0
 10 11  2  0  0  0
 11 12  1  0  0  0
 12 13  2  0  0  0
 13 14  1  0  0  0
 14 15  2  0  0  0
  3  1  1  0  0  0
  9  4  1  0  0  0
 15 10  1  0  0  0
 16 18  1  0  0  0
 16 19  1  0  0  0
M  END
> <minimizedAffinity>
-2.34476

> <CNNscore>
0.5913988948

> <CNNaffinity>
3.9388918877

> <CNN_VS>
2.3294563293

> <CNNaffinity_variance>
0.3416244388

$$$$
[H]c1nc([C@]2(c3c([H])c([H])c([H])c([H])c3[H])C([H])([H])[C@@]2([H])C([H])([H])N([H])[H])c([H])c([H])c1[H]


 19 21  0  0  0  0  0  0  0  0999 V2000
   54.6296   -3.8542   -9.2973 C   0  0  0  0  0  0  0  0  0  0  0  0
   55.0861   -2.9701   -8.1442 C   0  0  0  0  0  0  0  0  0  0  0  0
   54.1140   -4.1772   -7.9918 C   0  0  0  0  0  0  0  0  0  0  0  0
   54.6430   -5.1916   -7.0795 C   0  0  0  0  0  0  0  0  0  0  0  0
   55.6725   -4.7734   -6.2258 C   0  0  0  0  0  0  0  0  0  0  0  0
   56.2389   -5.6296   -5.3357 C   0  0  0  0  0  0  0  0  0  0  0  0
   55.8019   -6.9358   -5.2616 C   0  0  0  0  0  0  0  0  0  0  0  0
   54.7994   -7.3454   -6.0920 C   0  0  0  0  0  0  0  0  0  0  0  0
   54.2156   -6.4884   -6.9994 C   0  0  0  0  0  0  0  0  0  0  0  0
   52.7007   -3.7722   -7.6560 C   0  0  0  0  0  0  0  0  0  0  0  0
   52.0514   -4.4333   -6.6434 C   0  0  0  0  0  0  0  0  0  0  0  0
   50.7652   -4.1027   -6.2992 C   0  0  0  0  0  0  0  0  0  0  0  0
   50.1322   -3.0788   -7.0023 C   0  0  0  0  0  0  0  0  0  0  0  0
   50.8532   -2.4652   -8.0047 C   0  0  0  0  0  0  0  0  0  0  0  0
   52.1069   -2.7933   -8.3343 N   0  0  0  0  0  0  0  0  0  0  0  0
   56.0881   -3.7521  -11.1738 N   0  0  0  0  0  0  0  0  0  0  0  0
   55.6792   -4.6086  -10.0492 C   0  0  0  0  0  0  0  0  0  0  0  0
   56.1976   -2.7696  -10.8254 H   0  0  0  0  0  0  0  0  0  0  0  0
   55.3586   -3.7972  -11.9301 H   0  0  0  0  0  0  0  0  0  0  0  0
 16 17  1  0  0  0
 17  1  1  0  0  0
  1  2  1  0  0  0
  2  3  1  0  0  0
  3  4  1  0  0  0
  4  5  2  0  0  0
  5  6  1  0  0  0
  6  7  2  0  0  0
  7  8  1  0  0  0
  8  9  2  0  0  0
  3 10  1  0  0  0
 10 11  2  0  0  0
 11 12  1  0  0  0
 12 13  2  0  0  0
 13 14  1  0  0  0
 14 15  2  0  0  0
  3  1  1  0  0  0
  9  4  1  0  0  0
 15 10  1  0  0  0
 16 18  1  0  0  0
 16 19  1  0  0  0
M  END
> <minimizedAffinity>
-7.29659

> <CNNscore>
0.5906711817

> <CNNaffinity>
5.9223074913

> <CNN_VS>
3.4981362820

> <CNNaffinity_variance>
0.2443312854

$$$$
[H]c1nc([C@]2(c3c([H])c([H])c([H])c([H])c3[H])C([H])([H])[C@@]2([H])C([H])([H])N([H])[H])c([H])c([H])c1[H]


 19 21  0  0  0  0  0  0  0  0999 V2000
   60.4646   -3.5945  -16.5457 C   0  0  0  0  0  0  0  0  0  0  0  0
   60.4801   -3.6727  -15.0248 C   0  0  0  0  0  0  0  0  0  0  0  0
   61.7388   -3.8496  -15.9245 C   0  0  0  0  0  0  0  0  0  0  0  0
   62.7688   -2.8549  -15.6231 C   0  0  0  0  0  0  0  0  0  0  0  0
   63.5830   -2.4689  -16.6963 C   0  0  0  0  0  0  0  0  0  0  0  0
   64.5717   -1.5511  -16.5338 C   0  0  0  0  0  0  0  0  0  0  0  0
   64.7877   -0.9822  -15.2959 C   0  0  0  0  0  0  0  0  0  0  0  0
   63.9961   -1.3565  -14.2493 C   0  0  0  0  0  0  0  0  0  0  0  0
   62.9897   -2.2859  -14.3992 C   0  0  0  0  0  0  0  0  0  0  0  0
   62.2758   -5.2587  -15.9366 C   0  0  0  0  0  0  0  0  0  0  0  0
   63.1296   -5.6444  -14.9334 C   0  0  0  0  0  0  0  0  0  0  0  0
   63.6455   -6.9151  -14.8990 C   0  0  0  0  0  0  0  0  0  0  0  0
   63.2824   -7.8065  -15.9074 C   0  0  0  0  0  0  0  0  0  0  0  0
   62.4206   -7.3410  -16.8780 C   0  0  0  0  0  0  0  0  0  0  0  0
   61.9219   -6.1006  -16.9045 N   0  0  0  0  0  0  0  0  0  0  0  0
   59.1561   -1.6410  -16.1841 N   0  0  0  0  0  0  0  0  0  0  0  0
   60.0218   -2.3092  -17.1688 C   0  0  0  0  0  0  0  0  0  0  0  0
   59.5999   -1.7205  -15.2379 H   0  0  0  0  0  0  0  0  0  0  0  0
   58.2079   -2.0961  -16.1875 H   0  0  0  0  0  0  0  0  0  0  0  0
 16 17  1  0  0  0
 17  1  1  0  0  0
  1  2  1  0  0  0
  2  3  1  0  0  0
  3  4  1  0  0  0
  4  5  2  0  0  0
  5  6  1  0  0  0
  6  7  2  0  0  0
  7  8  1  0  0  0
  8  9  2  0  0  0
  3 10  1  0  0  0
 10 11  2  0  0  0
 11 12  1  0  0  0
 12 13  2  0  0  0
 13 14  1  0  0  0
 14 15  2  0  0  0
  3  1  1  0  0  0
  9  4  1  0  0  0
 15 10  1  0  0  0
 16 18  1  0  0  0
 16 19  1  0  0  0
M  END
> <minimizedAffinity>
-2.21786

> <CNNscore>
0.5195579529

> <CNNaffinity>
3.6200401783

> <CNN_VS>
1.8808206320

> <CNNaffinity_variance>
0.0720611513

$$$$
[H]c1nc([C@]2(c3c([H])c([H])c([H])c([H])c3[H])C([H])([H])[C@@]2([H])C([H])([H])N([H])[H])c([H])c([H])c1[H]


 19 21  0  0  0  0  0  0  0  0999 V2000
   53.8519   -3.5826   -9.5062 C   0  0  0  0  0  0  0  0  0  0  0  0
   54.4191   -2.6109   -8.4798 C   0  0  0  0  0  0  0  0  0  0  0  0
   53.6007   -3.8863   -8.1208 C   0  0  0  0  0  0  0  0  0  0  0  0
   54.3685   -4.8097   -7.2847 C   0  0  0  0  0  0  0  0  0  0  0  0
   53.8760   -6.1190   -7.2031 C   0  0  0  0  0  0  0  0  0  0  0  0
   54.5080   -7.0624   -6.4568 C   0  0  0  0  0  0  0  0  0  0  0  0
   55.6551   -6.7380   -5.7628 C   0  0  0  0  0  0  0  0  0  0  0  0
   56.1365   -5.4635   -5.8408 C   0  0  0  0  0  0  0  0  0  0  0  0
   55.5064   -4.4965   -6.5935 C   0  0  0  0  0  0  0  0  0  0  0  0
   52.2359   -3.5851   -7.5543 C   0  0  0  0  0  0  0  0  0  0  0  0
   51.7351   -4.4077   -6.5763 C   0  0  0  0  0  0  0  0  0  0  0  0
   50.4988   -4.1768   -6.0284 C   0  0  0  0  0  0  0  0  0  0  0  0
   49.7622   -3.0862   -6.4882 C   0  0  0  0  0  0  0  0  0  0  0  0
   50.3363   -2.3094   -7.4722 C   0  0  0  0  0  0  0  0  0  0  0  0
   51.5422   -2.5411   -8.0013 N   0  0  0  0  0  0  0  0  0  0  0  0
   56.0868   -3.5386  -10.3199 N   0  0  0  0  0  0  0  0  0  0  0  0
   54.8194   -4.2813  -10.4073 C   0  0  0  0  0  0  0  0  0  0  0  0
   56.2721   -3.3073   -9.3145 H   0  0  0  0  0  0  0  0  0  0  0  0
   56.0171   -2.6607  -10.8948 H   0  0  0  0  0  0  0  0  0  0  0  0
 16 17  1  0  0  0
 17  1  1  0  0  0
  1  2  1  0  0  0
  2  3  1  0  0  0
  3  4  1  0  0  0
  4  5  2  0  0  0
  5  6  1  0  0  0
  6  7  2  0  0  0
  7  8  1  0  0  0
  8  9  2  0  0  0
  3 10  1  0  0  0
 10 11  2  0  0  0
 11 12  1  0  0  0
 12 13  2  0  0  0
 13 14  1  0  0  0
 14 15  2  0  0  0
  3  1  1  0  0  0
  9  4  1  0  0  0
 15 10  1  0  0  0
 16 18  1  0  0  0
 16 19  1  0  0  0
M  END
> <minimizedAffinity>
-7.54130

> <CNNscore>
0.4784741104

> <CNNaffinity>
5.9008765221

> <CNN_VS>
2.8234167099

> <CNNaffinity_variance>
0.3081510663

$$$$
[H]c1nc([C@]2(c3c([H])c([H])c([H])c([H])c3[H])C([H])([H])[C@@]2([H])C([H])([H])N([H])[H])c([H])c([H])c1[H]


 19 21  0  0  0  0  0  0  0  0999 V2000
   61.5204   -7.7151   -4.5500 C   0  0  0  0  0  0  0  0  0  0  0  0
   62.7321   -7.7076   -3.6274 C   0  0  0  0  0  0  0  0  0  0  0  0
   61.3422   -8.2963   -3.2442 C   0  0  0  0  0  0  0  0  0  0  0  0
   61.4253   -9.7190   -2.9120 C   0  0  0  0  0  0  0  0  0  0  0  0
   60.2588  -10.4674   -3.1185 C   0  0  0  0  0  0  0  0  0  0  0  0
   60.2199  -11.7980   -2.8458 C   0  0  0  0  0  0  0  0  0  0  0  0
   61.3416  -12.4346   -2.3568 C   0  0  0  0  0  0  0  0  0  0  0  0
   62.4788  -11.7078   -2.1549 C   0  0  0  0  0  0  0  0  0  0  0  0
   62.5330  -10.3580   -2.4269 C   0  0  0  0  0  0  0  0  0  0  0  0
   60.6187   -7.4939   -2.1921 C   0  0  0  0  0  0  0  0  0  0  0  0
   59.4502   -6.8618   -2.5369 C   0  0  0  0  0  0  0  0  0  0  0  0
   58.7542   -6.1197   -1.6167 C   0  0  0  0  0  0  0  0  0  0  0  0
   59.2616   -6.0223   -0.3219 C   0  0  0  0  0  0  0  0  0  0  0  0
   60.4403   -6.6868   -0.0568 C   0  0  0  0  0  0  0  0  0  0  0  0
   61.1130   -7.4082   -0.9595 N   0  0  0  0  0  0  0  0  0  0  0  0
   61.2080   -7.5280   -6.9008 N   0  0  0  0  0  0  0  0  0  0  0  0
   61.6391   -8.4562   -5.8434 C   0  0  0  0  0  0  0  0  0  0  0  0
   61.6304   -6.5870   -6.7145 H   0  0  0  0  0  0  0  0  0  0  0  0
   60.1581   -7.4680   -6.9057 H   0  0  0  0  0  0  0  0  0  0  0  0
 16 17  1  0  0  0
 17  1  1  0  0  0
  1  2  1  0  0  0
  2  3  1  0  0  0
  3  4  1  0  0  0
  4  5  2  0  0  0
  5  6  1  0  0  0
  6  7  2  0  0  0
  7  8  1  0  0  0
  8  9  2  0  0  0
  3 10  1  0  0  0
 10 11  2  0  0  0
 11 12  1  0  0  0
 12 13  2  0  0  0
 13 14  1  0  0  0
 14 15  2  0  0  0
  3  1  1  0  0  0
  9  4  1  0  0  0
 15 10  1  0  0  0
 16 18  1  0  0  0
 16 19  1  0  0  0
M  END
> <minimizedAffinity>
-2.90211

> <CNNscore>
0.4510420263

> <CNNaffinity>
3.9118285179

> <CNN_VS>
1.7643990517

> <CNNaffinity_variance>
0.3372165263

$$$$
[H]c1nc([C@]2(c3c([H])c([H])c([H])c([H])c3[H])C([H])([H])[C@@]2([H])C([H])([H])N([H])[H])c([H])c([H])c1[H]


 19 21  0  0  0  0  0  0  0  0999 V2000
   52.9067   -5.9987   -6.0682 C   0  0  0  0  0  0  0  0  0  0  0  0
   52.3589   -6.4385   -7.4195 C   0  0  0  0  0  0  0  0  0  0  0  0
   52.8780   -5.0035   -7.1090 C   0  0  0  0  0  0  0  0  0  0  0  0
   53.9942   -4.6275   -7.9773 C   0  0  0  0  0  0  0  0  0  0  0  0
   55.2396   -4.4861   -7.3506 C   0  0  0  0  0  0  0  0  0  0  0  0
   56.3472   -4.1411   -8.0581 C   0  0  0  0  0  0  0  0  0  0  0  0
   56.2573   -3.9237   -9.4172 C   0  0  0  0  0  0  0  0  0  0  0  0
   55.0456   -4.0609  -10.0297 C   0  0  0  0  0  0  0  0  0  0  0  0
   53.9139   -4.4102   -9.3253 C   0  0  0  0  0  0  0  0  0  0  0  0
   51.7870   -3.9628   -7.0796 C   0  0  0  0  0  0  0  0  0  0  0  0
   50.7679   -4.1058   -6.1713 C   0  0  0  0  0  0  0  0  0  0  0  0
   49.7517   -3.1866   -6.1041 C   0  0  0  0  0  0  0  0  0  0  0  0
   49.7780   -2.1029   -6.9806 C   0  0  0  0  0  0  0  0  0  0  0  0
   50.8360   -2.0324   -7.8620 C   0  0  0  0  0  0  0  0  0  0  0  0
   51.8229   -2.9326   -7.9212 N   0  0  0  0  0  0  0  0  0  0  0  0
   54.3889   -6.1483   -4.2136 N   0  0  0  0  0  0  0  0  0  0  0  0
   54.1176   -6.7055   -5.5483 C   0  0  0  0  0  0  0  0  0  0  0  0
   53.4823   -6.0629   -3.6945 H   0  0  0  0  0  0  0  0  0  0  0  0
   54.8472   -5.2071   -4.3150 H   0  0  0  0  0  0  0  0  0  0  0  0
 16 17  1  0  0  0
 17  1  1  0  0  0
  1  2  1  0  0  0
  2  3  1  0  0  0
  3  4  1  0  0  0
  4  5  2  0  0  0
  5  6  1  0  0  0
  6  7  2  0  0  0
  7  8  1  0  0  0
  8  9  2  0  0  0
  3 10  1  0  0  0
 10 11  2  0  0  0
 11 12  1  0  0  0
 12 13  2  0  0  0
 13 14  1  0  0  0
 14 15  2  0  0  0
  3  1  1  0  0  0
  9  4  1  0  0  0
 15 10  1  0  0  0
 16 18  1  0  0  0
 16 19  1  0  0  0
M  END
> <minimizedAffinity>
-8.01614

> <CNNscore>
0.4351805151

> <CNNaffinity>
5.6817731857

> <CNN_VS>
2.4725968838

> <CNNaffinity_variance>
0.1523316652

$$$$
[H]c1nc([C@]2(c3c([H])c([H])c([H])c([H])c3[H])C([H])([H])[C@@]2([H])C([H])([H])N([H])[H])c([H])c([H])c1[H]


 19 21  0  0  0  0  0  0  0  0999 V2000
   62.1111   -7.5394   -4.2573 C   0  0  0  0  0  0  0  0  0  0  0  0
   62.2913   -8.2538   -2.9244 C   0  0  0  0  0  0  0  0  0  0  0  0
   61.2491   -8.6657   -4.0059 C   0  0  0  0  0  0  0  0  0  0  0  0
   61.4594  -10.0368   -4.4717 C   0  0  0  0  0  0  0  0  0  0  0  0
   60.9719  -10.3325   -5.7518 C   0  0  0  0  0  0  0  0  0  0  0  0
   61.1117  -11.5732   -6.2879 C   0  0  0  0  0  0  0  0  0  0  0  0
   61.7426  -12.5675   -5.5696 C   0  0  0  0  0  0  0  0  0  0  0  0
   62.2182  -12.2819   -4.3229 C   0  0  0  0  0  0  0  0  0  0  0  0
   62.0837  -11.0285   -3.7664 C   0  0  0  0  0  0  0  0  0  0  0  0
   59.8219   -8.4021   -3.5965 C   0  0  0  0  0  0  0  0  0  0  0  0
   59.2688   -9.1772   -2.6079 C   0  0  0  0  0  0  0  0  0  0  0  0
   57.9745   -8.9775   -2.1993 C   0  0  0  0  0  0  0  0  0  0  0  0
   57.2332   -7.9683   -2.8119 C   0  0  0  0  0  0  0  0  0  0  0  0
   57.8620   -7.2350   -3.7958 C   0  0  0  0  0  0  0  0  0  0  0  0
   59.1243   -7.4358   -4.1886 N   0  0  0  0  0  0  0  0  0  0  0  0
   62.7439   -7.2035   -6.5258 N   0  0  0  0  0  0  0  0  0  0  0  0
   63.2801   -7.5064   -5.1892 C   0  0  0  0  0  0  0  0  0  0  0  0
   62.0331   -6.4383   -6.4371 H   0  0  0  0  0  0  0  0  0  0  0  0
   62.3063   -8.0699   -6.9307 H   0  0  0  0  0  0  0  0  0  0  0  0
 16 17  1  0  0  0
 17  1  1  0  0  0
  1  2  1  0  0  0
  2  3  1  0  0  0
  3  4  1  0  0  0
  4  5  2  0  0  0
  5  6  1  0  0  0
  6  7  2  0  0  0
  7  8  1  0  0  0
  8  9  2  0  0  0
  3 10  1  0  0  0
 10 11  2  0  0  0
 11 12  1  0  0  0
 12 13  2  0  0  0
 13 14  1  0  0  0
 14 15  2  0  0  0
  3  1  1  0  0  0
  9  4  1  0  0  0
 15 10  1  0  0  0
 16 18  1  0  0  0
 16 19  1  0  0  0
M  END
> <minimizedAffinity>
-2.93480

> <CNNscore>
0.4349460006

> <CNNaffinity>
3.7631294727

> <CNN_VS>
1.6367580891

> <CNNaffinity_variance>
0.0933327228

$$$$
[H]c1nc([C@]2(c3c([H])c([H])c([H])c([H])c3[H])C([H])([H])[C@@]2([H])C([H])([H])N([H])[H])c([H])c([H])c1[H]


 19 21  0  0  0  0  0  0  0  0999 V2000
   56.0796   -4.1821  -12.0981 C   0  0  0  0  0  0  0  0  0  0  0  0
   56.6392   -2.9244  -11.4466 C   0  0  0  0  0  0  0  0  0  0  0  0
   56.2437   -4.2135  -10.6674 C   0  0  0  0  0  0  0  0  0  0  0  0
   57.3792   -4.7806   -9.9392 C   0  0  0  0  0  0  0  0  0  0  0  0
   58.4254   -5.2812  -10.7257 C   0  0  0  0  0  0  0  0  0  0  0  0
   59.5311   -5.8300  -10.1578 C   0  0  0  0  0  0  0  0  0  0  0  0
   59.6375   -5.9014   -8.7844 C   0  0  0  0  0  0  0  0  0  0  0  0
   58.6200   -5.4146   -8.0165 C   0  0  0  0  0  0  0  0  0  0  0  0
   57.4928   -4.8554   -8.5783 C   0  0  0  0  0  0  0  0  0  0  0  0
   55.0228   -4.0404   -9.7993 C   0  0  0  0  0  0  0  0  0  0  0  0
   54.9582   -4.7277   -8.6129 C   0  0  0  0  0  0  0  0  0  0  0  0
   53.8695   -4.6047   -7.7874 C   0  0  0  0  0  0  0  0  0  0  0  0
   52.8292   -3.7645   -8.1816 C   0  0  0  0  0  0  0  0  0  0  0  0
   52.9715   -3.1103   -9.3870 C   0  0  0  0  0  0  0  0  0  0  0  0
   54.0362   -3.2356  -10.1862 N   0  0  0  0  0  0  0  0  0  0  0  0
   56.0771   -5.1568  -14.2681 N   0  0  0  0  0  0  0  0  0  0  0  0
   56.9362   -4.8800  -13.1058 C   0  0  0  0  0  0  0  0  0  0  0  0
   55.4979   -4.3064  -14.4679 H   0  0  0  0  0  0  0  0  0  0  0  0
   55.4611   -5.9829  -14.0578 H   0  0  0  0  0  0  0  0  0  0  0  0
 16 17  1  0  0  0
 17  1  1  0  0  0
  1  2  1  0  0  0
  2  3  1  0  0  0
  3  4  1  0  0  0
  4  5  2  0  0  0
  5  6  1  0  0  0
  6  7  2  0  0  0
  7  8  1  0  0  0
  8  9  2  0  0  0
  3 10  1  0  0  0
 10 11  2  0  0  0
 11 12  1  0  0  0
 12 13  2  0  0  0
 13 14  1  0  0  0
 14 15  2  0  0  0
  3  1  1  0  0  0
  9  4  1  0  0  0
 15 10  1  0  0  0
 16 18  1  0  0  0
 16 19  1  0  0  0
M  END
> <minimizedAffinity>
-5.95289

> <CNNscore>
0.3894814849

> <CNNaffinity>
4.9291124344

> <CNN_VS>
1.9197980165

> <CNNaffinity_variance>
0.1006100625

$$$$
[H]c1nc([C@]2(c3c([H])c([H])c([H])c([H])c3[H])C([H])([H])[C@@]2([H])C([H])([H])N([H])[H])c([H])c([H])c1[H]


 19 21  0  0  0  0  0  0  0  0999 V2000
   61.0656   -8.2773   -5.7053 C   0  0  0  0  0  0  0  0  0  0  0  0
   61.9029   -9.5123   -6.0106 C   0  0  0  0  0  0  0  0  0  0  0  0
   62.4078   -8.0483   -6.1752 C   0  0  0  0  0  0  0  0  0  0  0  0
   63.5814   -7.7794   -5.3436 C   0  0  0  0  0  0  0  0  0  0  0  0
   63.8719   -6.4287   -5.1092 C   0  0  0  0  0  0  0  0  0  0  0  0
   64.9370   -6.0604   -4.3502 C   0  0  0  0  0  0  0  0  0  0  0  0
   65.7541   -7.0233   -3.7953 C   0  0  0  0  0  0  0  0  0  0  0  0
   65.4732   -8.3392   -4.0222 C   0  0  0  0  0  0  0  0  0  0  0  0
   64.3966   -8.7276   -4.7896 C   0  0  0  0  0  0  0  0  0  0  0  0
   62.6066   -7.6391   -7.6130 C   0  0  0  0  0  0  0  0  0  0  0  0
   61.6614   -6.8385   -8.2043 C   0  0  0  0  0  0  0  0  0  0  0  0
   61.7957   -6.4385   -9.5096 C   0  0  0  0  0  0  0  0  0  0  0  0
   62.9156   -6.8642  -10.2224 C   0  0  0  0  0  0  0  0  0  0  0  0
   63.8178   -7.6661   -9.5559 C   0  0  0  0  0  0  0  0  0  0  0  0
   63.6797   -8.0518   -8.2831 N   0  0  0  0  0  0  0  0  0  0  0  0
   59.2243   -7.5236   -4.4012 N   0  0  0  0  0  0  0  0  0  0  0  0
   60.5735   -8.1032   -4.3039 C   0  0  0  0  0  0  0  0  0  0  0  0
   58.6980   -8.0227   -5.1579 H   0  0  0  0  0  0  0  0  0  0  0  0
   59.3002   -6.4974   -4.6183 H   0  0  0  0  0  0  0  0  0  0  0  0
 16 17  1  0  0  0
 17  1  1  0  0  0
  1  2  1  0  0  0
  2  3  1  0  0  0
  3  4  1  0  0  0
  4  5  2  0  0  0
  5  6  1  0  0  0
  6  7  2  0  0  0
  7  8  1  0  0  0
  8  9  2  0  0  0
  3 10  1  0  0  0
 10 11  2  0  0  0
 11 12  1  0  0  0
 12 13  2  0  0  0
 13 14  1  0  0  0
 14 15  2  0  0  0
  3  1  1  0  0  0
  9  4  1  0  0  0
 15 10  1  0  0  0
 16 18  1  0  0  0
 16 19  1  0  0  0
M  END
> <minimizedAffinity>
-2.76843

> <CNNscore>
0.3710067272

> <CNNaffinity>
3.6573748589

> <CNN_VS>
1.3569107056

> <CNNaffinity_variance>
0.1491540968

$$$$
[H]OC(C([H])([H])[H])(C([H])([H])[H])C([H])([H])C([H])([H])N([H])S(=O)(=O)c1c([H])c([H])c(C([H])([H])[H])c(-c2c([H])nc(N([H])[H])c(-c3onc(C([H])([H])[H])c3[H])c2[H])c1[H]


 34 36  0  0  0  0  0  0  0  0999 V2000
   55.1890   -4.0434   -9.4142 C   0  0  0  0  0  0  0  0  0  0  0  0
   55.4507   -3.9505  -10.7906 C   0  0  0  0  0  0  0  0  0  0  0  0
   56.6487   -4.3253  -11.3299 C   0  0  0  0  0  0  0  0  0  0  0  0
   57.6029   -4.8038  -10.4617 C   0  0  0  0  0  0  0  0  0  0  0  0
   57.3874   -4.9111   -9.1045 C   0  0  0  0  0  0  0  0  0  0  0  0
   56.1539   -4.5236   -8.5589 C   0  0  0  0  0  0  0  0  0  0  0  0
   55.9532   -4.6385   -7.0820 C   0  0  0  0  0  0  0  0  0  0  0  0
   52.1246   -4.0054   -7.2438 C   0  0  0  0  0  0  0  0  0  0  0  0
   53.3554   -4.3357   -7.8185 C   0  0  0  0  0  0  0  0  0  0  0  0
   53.8970   -3.6467   -8.8837 C   0  0  0  0  0  0  0  0  0  0  0  0
   53.1985   -2.5865   -9.4067 C   0  0  0  0  0  0  0  0  0  0  0  0
   52.0236   -2.2624   -8.8668 N   0  0  0  0  0  0  0  0  0  0  0  0
   51.4889   -2.9431   -7.8150 C   0  0  0  0  0  0  0  0  0  0  0  0
   50.2346   -2.5327   -7.3005 N   0  0  0  0  0  0  0  0  0  0  0  0
   50.1997   -1.8444   -6.5424 H   0  0  0  0  0  0  0  0  0  0  0  0
   49.3762   -2.9309   -7.6942 H   0  0  0  0  0  0  0  0  0  0  0  0
   51.5787   -6.8252   -3.0817 C   0  0  0  0  0  0  0  0  0  0  0  0
   51.2926   -6.0296   -4.2851 C   0  0  0  0  0  0  0  0  0  0  0  0
   52.2435   -5.4267   -5.1197 C   0  0  0  0  0  0  0  0  0  0  0  0
   51.6227   -4.7795   -6.1246 C   0  0  0  0  0  0  0  0  0  0  0  0
   50.3117   -4.9876   -5.9018 O   0  0  0  0  0  0  0  0  0  0  0  0
   50.1281   -5.7044   -4.8465 N   0  0  0  0  0  0  0  0  0  0  0  0
   56.9265   -4.1908  -13.0557 S   0  0  0  0  0  0  0  0  0  0  0  0
   56.0464   -3.1616  -13.6861 O   0  0  0  0  0  0  0  0  0  0  0  0
   56.7890   -5.5268  -13.7350 O   0  0  0  0  0  0  0  0  0  0  0  0
   58.5795   -3.6668  -13.3512 N   0  0  0  0  0  0  0  0  0  0  0  0
   59.1141   -4.5831  -13.2775 H   0  0  0  0  0  0  0  0  0  0  0  0
   58.7270   -3.2222  -14.6954 C   0  0  0  0  0  0  0  0  0  0  0  0
   59.9654   -3.5866  -15.4187 C   0  0  0  0  0  0  0  0  0  0  0  0
   61.2616   -3.1009  -14.8792 C   0  0  0  0  0  0  0  0  0  0  0  0
   61.8120   -4.2569  -14.0010 C   0  0  0  0  0  0  0  0  0  0  0  0
   62.3493   -2.8683  -15.8870 C   0  0  0  0  0  0  0  0  0  0  0  0
   61.0205   -1.9968  -14.0634 O   0  0  0  0  0  0  0  0  0  0  0  0
   61.7938   -1.8056  -13.4987 H   0  0  0  0  0  0  0  0  0  0  0  0
 17 18  1  0  0  0
 18 19  1  0  0  0
 19 20  2  0  0  0
 20 21  1  0  0  0
 21 22  1  0  0  0
 20  8  1  0  0  0
  8  9  2  0  0  0
  9 10  1  0  0  0
 10 11  2  0  0  0
 11 12  1  0  0  0
 12 13  2  0  0  0
 13 14  1  0  0  0
 10  1  1  0  0  0
  1  2  2  0  0  0
  2  3  1  0  0  0
  3  4  2  0  0  0
  4  5  1  0  0  0
  5  6  2  0  0  0
  6  7  1  0  0  0
  3 23  1  0  0  0
 23 24  2  0  0  0
 23 25  2  0  0  0
 23 26  1  0  0  0
 26 28  1  0  0  0
 28 29  1  0  0  0
 29 30  1  0  0  0
 30 31  1  0  0  0
 30 32  1  0  0  0
 30 33  1  0  0  0
 22 18  2  0  0  0
 13  8  1  0  0  0
  6  1  1  0  0  0
 14 15  1  0  0  0
 14 16  1  0  0  0
 26 27  1  0  0  0
 33 34  1  0  0  0
M  END
> <minimizedAffinity>
-9.46325

> <CNNscore>
0.9322481751

> <CNNaffinity>
7.3048219681

> <CNN_VS>
6.8099069595

> <CNNaffinity_variance>
0.0903969854

$$$$
[H]OC(C([H])([H])[H])(C([H])([H])[H])C([H])([H])C([H])([H])N([H])S(=O)(=O)c1c([H])c([H])c(C([H])([H])[H])c(-c2c([H])nc(N([H])[H])c(-c3onc(C([H])([H])[H])c3[H])c2[H])c1[H]


 34 36  0  0  0  0  0  0  0  0999 V2000
   55.5750   -4.3656   -8.8798 C   0  0  0  0  0  0  0  0  0  0  0  0
   56.1307   -4.1545  -10.1520 C   0  0  0  0  0  0  0  0  0  0  0  0
   57.4019   -4.5458  -10.4642 C   0  0  0  0  0  0  0  0  0  0  0  0
   58.1278   -5.1629   -9.4715 C   0  0  0  0  0  0  0  0  0  0  0  0
   57.6207   -5.3891   -8.2098 C   0  0  0  0  0  0  0  0  0  0  0  0
   56.3141   -4.9838   -7.8976 C   0  0  0  0  0  0  0  0  0  0  0  0
   55.7954   -5.2302   -6.5174 C   0  0  0  0  0  0  0  0  0  0  0  0
   52.2300   -4.1481   -7.1867 C   0  0  0  0  0  0  0  0  0  0  0  0
   53.5351   -4.5095   -7.5337 C   0  0  0  0  0  0  0  0  0  0  0  0
   54.2148   -3.9462   -8.5936 C   0  0  0  0  0  0  0  0  0  0  0  0
   53.5842   -2.9854   -9.3452 C   0  0  0  0  0  0  0  0  0  0  0  0
   52.3396   -2.6328   -9.0237 N   0  0  0  0  0  0  0  0  0  0  0  0
   51.6685   -3.1894   -7.9769 C   0  0  0  0  0  0  0  0  0  0  0  0
   50.3477   -2.7572   -7.7029 N   0  0  0  0  0  0  0  0  0  0  0  0
   50.1947   -1.9785   -7.0549 H   0  0  0  0  0  0  0  0  0  0  0  0
   49.5605   -3.2305   -8.1575 H   0  0  0  0  0  0  0  0  0  0  0  0
   51.1410   -6.5515   -2.8728 C   0  0  0  0  0  0  0  0  0  0  0  0
   51.0132   -5.8480   -4.1579 C   0  0  0  0  0  0  0  0  0  0  0  0
   52.0706   -5.3823   -4.9512 C   0  0  0  0  0  0  0  0  0  0  0  0
   51.5831   -4.7876   -6.0570 C   0  0  0  0  0  0  0  0  0  0  0  0
   50.2467   -4.8915   -5.9354 O   0  0  0  0  0  0  0  0  0  0  0  0
   49.9255   -5.4999   -4.8455 N   0  0  0  0  0  0  0  0  0  0  0  0
   58.0503   -4.2602  -12.0679 S   0  0  0  0  0  0  0  0  0  0  0  0
   59.4640   -4.7262  -12.1915 O   0  0  0  0  0  0  0  0  0  0  0  0
   57.9080   -2.8149  -12.4631 O   0  0  0  0  0  0  0  0  0  0  0  0
   57.1284   -5.1777  -13.2522 N   0  0  0  0  0  0  0  0  0  0  0  0
   56.5904   -5.8536  -12.6321 H   0  0  0  0  0  0  0  0  0  0  0  0
   56.1573   -4.3463  -13.8783 C   0  0  0  0  0  0  0  0  0  0  0  0
   55.9508   -4.4914  -15.3364 C   0  0  0  0  0  0  0  0  0  0  0  0
   56.7520   -3.6339  -16.2471 C   0  0  0  0  0  0  0  0  0  0  0  0
   57.5394   -4.6109  -17.1613 C   0  0  0  0  0  0  0  0  0  0  0  0
   55.9727   -2.7898  -17.2131 C   0  0  0  0  0  0  0  0  0  0  0  0
   57.6628   -2.9027  -15.4864 O   0  0  0  0  0  0  0  0  0  0  0  0
   58.3647   -2.5258  -16.0510 H   0  0  0  0  0  0  0  0  0  0  0  0
 17 18  1  0  0  0
 18 19  1  0  0  0
 19 20  2  0  0  0
 20 21  1  0  0  0
 21 22  1  0  0  0
 20  8  1  0  0  0
  8  9  2  0  0  0
  9 10  1  0  0  0
 10 11  2  0  0  0
 11 12  1  0  0  0
 12 13  2  0  0  0
 13 14  1  0  0  0
 10  1  1  0  0  0
  1  2  2  0  0  0
  2  3  1  0  0  0
  3  4  2  0  0  0
  4  5  1  0  0  0
  5  6  2  0  0  0
  6  7  1  0  0  0
  3 23  1  0  0  0
 23 24  2  0  0  0
 23 25  2  0  0  0
 23 26  1  0  0  0
 26 28  1  0  0  0
 28 29  1  0  0  0
 29 30  1  0  0  0
 30 31  1  0  0  0
 30 32  1  0  0  0
 30 33  1  0  0  0
 22 18  2  0  0  0
 13  8  1  0  0  0
  6  1  1  0  0  0
 14 15  1  0  0  0
 14 16  1  0  0  0
 26 27  1  0  0  0
 33 34  1  0  0  0
M  END
> <minimizedAffinity>
-9.81182

> <CNNscore>
0.8968643546

> <CNNaffinity>
7.4576406479

> <CNN_VS>
6.6884922981

> <CNNaffinity_variance>
0.0778064132

$$$$
[H]OC(C([H])([H])[H])(C([H])([H])[H])C([H])([H])C([H])([H])N([H])S(=O)(=O)c1c([H])c([H])c(C([H])([H])[H])c(-c2c([H])nc(N([H])[H])c(-c3onc(C([H])([H])[H])c3[H])c2[H])c1[H]


 34 36  0  0  0  0  0  0  0  0999 V2000
   55.1216   -4.3359   -8.4729 C   0  0  0  0  0  0  0  0  0  0  0  0
   55.7605   -4.2202   -9.7179 C   0  0  0  0  0  0  0  0  0  0  0  0
   57.0385   -4.6576   -9.9227 C   0  0  0  0  0  0  0  0  0  0  0  0
   57.6856   -5.2234   -8.8483 C   0  0  0  0  0  0  0  0  0  0  0  0
   57.0954   -5.3559   -7.6096 C   0  0  0  0  0  0  0  0  0  0  0  0
   55.7824   -4.9037   -7.4079 C   0  0  0  0  0  0  0  0  0  0  0  0
   55.1728   -5.0483   -6.0507 C   0  0  0  0  0  0  0  0  0  0  0  0
   51.7266   -3.8386   -6.9465 C   0  0  0  0  0  0  0  0  0  0  0  0
   53.0385   -4.2562   -7.1890 C   0  0  0  0  0  0  0  0  0  0  0  0
   53.7571   -3.8703   -8.3014 C   0  0  0  0  0  0  0  0  0  0  0  0
   53.1602   -3.0372   -9.2153 C   0  0  0  0  0  0  0  0  0  0  0  0
   51.9095   -2.6326   -8.9947 N   0  0  0  0  0  0  0  0  0  0  0  0
   51.1999   -3.0140   -7.8961 C   0  0  0  0  0  0  0  0  0  0  0  0
   49.8754   -2.5379   -7.7373 N   0  0  0  0  0  0  0  0  0  0  0  0
   49.7094   -1.6660   -7.2256 H   0  0  0  0  0  0  0  0  0  0  0  0
   49.0985   -3.0734   -8.1374 H   0  0  0  0  0  0  0  0  0  0  0  0
   50.3838   -6.0181   -2.5856 C   0  0  0  0  0  0  0  0  0  0  0  0
   50.3624   -5.2180   -3.8193 C   0  0  0  0  0  0  0  0  0  0  0  0
   51.4082   -5.1030   -4.7452 C   0  0  0  0  0  0  0  0  0  0  0  0
   51.0378   -4.2888   -5.7522 C   0  0  0  0  0  0  0  0  0  0  0  0
   49.7830   -3.9148   -5.4404 O   0  0  0  0  0  0  0  0  0  0  0  0
   49.4008   -4.4500   -4.3319 N   0  0  0  0  0  0  0  0  0  0  0  0
   57.7924   -4.4912  -11.4969 S   0  0  0  0  0  0  0  0  0  0  0  0
   57.7232   -3.0885  -12.0055 O   0  0  0  0  0  0  0  0  0  0  0  0
   57.2111   -5.4668  -12.4846 O   0  0  0  0  0  0  0  0  0  0  0  0
   59.5030   -4.8843  -11.3796 N   0  0  0  0  0  0  0  0  0  0  0  0
   59.9073   -3.9801  -10.9925 H   0  0  0  0  0  0  0  0  0  0  0  0
   59.7171   -5.8792  -10.3844 C   0  0  0  0  0  0  0  0  0  0  0  0
   61.0979   -6.3663  -10.1709 C   0  0  0  0  0  0  0  0  0  0  0  0
   61.4908   -6.7826   -8.8000 C   0  0  0  0  0  0  0  0  0  0  0  0
   61.5788   -8.3321   -8.8392 C   0  0  0  0  0  0  0  0  0  0  0  0
   62.8580   -6.3581   -8.3488 C   0  0  0  0  0  0  0  0  0  0  0  0
   60.4792   -6.4153   -7.9143 O   0  0  0  0  0  0  0  0  0  0  0  0
   60.5750   -6.8836   -7.0628 H   0  0  0  0  0  0  0  0  0  0  0  0
 17 18  1  0  0  0
 18 19  1  0  0  0
 19 20  2  0  0  0
 20 21  1  0  0  0
 21 22  1  0  0  0
 20  8  1  0  0  0
  8  9  2  0  0  0
  9 10  1  0  0  0
 10 11  2  0  0  0
 11 12  1  0  0  0
 12 13  2  0  0  0
 13 14  1  0  0  0
 10  1  1  0  0  0
  1  2  2  0  0  0
  2  3  1  0  0  0
  3  4  2  0  0  0
  4  5  1  0  0  0
  5  6  2  0  0  0
  6  7  1  0  0  0
  3 23  1  0  0  0
 23 24  2  0  0  0
 23 25  2  0  0  0
 23 26  1  0  0  0
 26 28  1  0  0  0
 28 29  1  0  0  0
 29 30  1  0  0  0
 30 31  1  0  0  0
 30 32  1  0  0  0
 30 33  1  0  0  0
 22 18  2  0  0  0
 13  8  1  0  0  0
  6  1  1  0  0  0
 14 15  1  0  0  0
 14 16  1  0  0  0
 26 27  1  0  0  0
 33 34  1  0  0  0
M  END
> <minimizedAffinity>
-8.90035

> <CNNscore>
0.8348160982

> <CNNaffinity>
7.4276909828

> <CNN_VS>
6.2007560730

> <CNNaffinity_variance>
0.2193845809

$$$$
[H]OC(C([H])([H])[H])(C([H])([H])[H])C([H])([H])C([H])([H])N([H])S(=O)(=O)c1c([H])c([H])c(C([H])([H])[H])c(-c2c([H])nc(N([H])[H])c(-c3onc(C([H])([H])[H])c3[H])c2[H])c1[H]


 34 36  0  0  0  0  0  0  0  0999 V2000
   55.9325   -6.3154   -5.3312 C   0  0  0  0  0  0  0  0  0  0  0  0
   57.2681   -6.6497   -5.0555 C   0  0  0  0  0  0  0  0  0  0  0  0
   57.6283   -7.3376   -3.9315 C   0  0  0  0  0  0  0  0  0  0  0  0
   56.6193   -7.6957   -3.0673 C   0  0  0  0  0  0  0  0  0  0  0  0
   55.2960   -7.3874   -3.2997 C   0  0  0  0  0  0  0  0  0  0  0  0
   54.9348   -6.6803   -4.4567 C   0  0  0  0  0  0  0  0  0  0  0  0
   53.4939   -6.3483   -4.6759 C   0  0  0  0  0  0  0  0  0  0  0  0
   53.9938   -4.1995   -7.7536 C   0  0  0  0  0  0  0  0  0  0  0  0
   54.3872   -4.9264   -6.6261 C   0  0  0  0  0  0  0  0  0  0  0  0
   55.5910   -5.5948   -6.5446 C   0  0  0  0  0  0  0  0  0  0  0  0
   56.4458   -5.5464   -7.6182 C   0  0  0  0  0  0  0  0  0  0  0  0
   56.0814   -4.8564   -8.6988 N   0  0  0  0  0  0  0  0  0  0  0  0
   54.8923   -4.1965   -8.7791 C   0  0  0  0  0  0  0  0  0  0  0  0
   54.5823   -3.4860   -9.9646 N   0  0  0  0  0  0  0  0  0  0  0  0
   54.8435   -2.4986  -10.0453 H   0  0  0  0  0  0  0  0  0  0  0  0
   54.0995   -3.9702  -10.7280 H   0  0  0  0  0  0  0  0  0  0  0  0
   49.2261   -2.7152   -6.9550 C   0  0  0  0  0  0  0  0  0  0  0  0
   50.6033   -2.7980   -7.4643 C   0  0  0  0  0  0  0  0  0  0  0  0
   51.5619   -3.7520   -7.0966 C   0  0  0  0  0  0  0  0  0  0  0  0
   52.7107   -3.5234   -7.7616 C   0  0  0  0  0  0  0  0  0  0  0  0
   52.4516   -2.4442   -8.5230 O   0  0  0  0  0  0  0  0  0  0  0  0
   51.2426   -2.0325   -8.3488 N   0  0  0  0  0  0  0  0  0  0  0  0
   59.3103   -7.7320   -3.6326 S   0  0  0  0  0  0  0  0  0  0  0  0
   59.4640   -9.0585   -2.9635 O   0  0  0  0  0  0  0  0  0  0  0  0
   59.9962   -6.6391   -2.8578 O   0  0  0  0  0  0  0  0  0  0  0  0
   60.1716   -7.8537   -5.1615 N   0  0  0  0  0  0  0  0  0  0  0  0
   60.1694   -6.8432   -5.4929 H   0  0  0  0  0  0  0  0  0  0  0  0
   61.5339   -8.2006   -4.9380 C   0  0  0  0  0  0  0  0  0  0  0  0
   62.5366   -7.7687   -5.9369 C   0  0  0  0  0  0  0  0  0  0  0  0
   62.3239   -8.1533   -7.3559 C   0  0  0  0  0  0  0  0  0  0  0  0
   61.8530   -6.8613   -8.0765 C   0  0  0  0  0  0  0  0  0  0  0  0
   63.5502   -8.5616   -8.1190 C   0  0  0  0  0  0  0  0  0  0  0  0
   61.2987   -9.0958   -7.4146 O   0  0  0  0  0  0  0  0  0  0  0  0
   60.9598   -9.1854   -8.3260 H   0  0  0  0  0  0  0  0  0  0  0  0
 17 18  1  0  0  0
 18 19  1  0  0  0
 19 20  2  0  0  0
 20 21  1  0  0  0
 21 22  1  0  0  0
 20  8  1  0  0  0
  8  9  2  0  0  0
  9 10  1  0  0  0
 10 11  2  0  0  0
 11 12  1  0  0  0
 12 13  2  0  0  0
 13 14  1  0  0  0
 10  1  1  0  0  0
  1  2  2  0  0  0
  2  3  1  0  0  0
  3  4  2  0  0  0
  4  5  1  0  0  0
  5  6  2  0  0  0
  6  7  1  0  0  0
  3 23  1  0  0  0
 23 24  2  0  0  0
 23 25  2  0  0  0
 23 26  1  0  0  0
 26 28  1  0  0  0
 28 29  1  0  0  0
 29 30  1  0  0  0
 30 31  1  0  0  0
 30 32  1  0  0  0
 30 33  1  0  0  0
 22 18  2  0  0  0
 13  8  1  0  0  0
  6  1  1  0  0  0
 14 15  1  0  0  0
 14 16  1  0  0  0
 26 27  1  0  0  0
 33 34  1  0  0  0
M  END
> <minimizedAffinity>
-8.00729

> <CNNscore>
0.5821282268

> <CNNaffinity>
6.8369112015

> <CNN_VS>
3.9799590111

> <CNNaffinity_variance>
0.2804620564

$$$$
[H]OC(C([H])([H])[H])(C([H])([H])[H])C([H])([H])C([H])([H])N([H])S(=O)(=O)c1c([H])c([H])c(C([H])([H])[H])c(-c2c([H])nc(N([H])[H])c(-c3onc(C([H])([H])[H])c3[H])c2[H])c1[H]


 34 36  0  0  0  0  0  0  0  0999 V2000
   55.8924   -6.3964   -4.9524 C   0  0  0  0  0  0  0  0  0  0  0  0
   57.1222   -6.9692   -4.5901 C   0  0  0  0  0  0  0  0  0  0  0  0
   57.2886   -7.6541   -3.4198 C   0  0  0  0  0  0  0  0  0  0  0  0
   56.1908   -7.7632   -2.5976 C   0  0  0  0  0  0  0  0  0  0  0  0
   54.9660   -7.2160   -2.9149 C   0  0  0  0  0  0  0  0  0  0  0  0
   54.8040   -6.5138   -4.1190 C   0  0  0  0  0  0  0  0  0  0  0  0
   53.4681   -5.9198   -4.4306 C   0  0  0  0  0  0  0  0  0  0  0  0
   54.3905   -4.2800   -7.6668 C   0  0  0  0  0  0  0  0  0  0  0  0
   54.5922   -4.9972   -6.4839 C   0  0  0  0  0  0  0  0  0  0  0  0
   55.7549   -5.6878   -6.2123 C   0  0  0  0  0  0  0  0  0  0  0  0
   56.7636   -5.6727   -7.1438 C   0  0  0  0  0  0  0  0  0  0  0  0
   56.5825   -4.9921   -8.2755 N   0  0  0  0  0  0  0  0  0  0  0  0
   55.4341   -4.3103   -8.5437 C   0  0  0  0  0  0  0  0  0  0  0  0
   55.3232   -3.6120   -9.7711 N   0  0  0  0  0  0  0  0  0  0  0  0
   55.6150   -2.6313   -9.8231 H   0  0  0  0  0  0  0  0  0  0  0  0
   54.9514   -4.0982  -10.5931 H   0  0  0  0  0  0  0  0  0  0  0  0
   49.6237   -2.5988   -7.5155 C   0  0  0  0  0  0  0  0  0  0  0  0
   51.0392   -2.7736   -7.8742 C   0  0  0  0  0  0  0  0  0  0  0  0
   51.9245   -3.7007   -7.3076 C   0  0  0  0  0  0  0  0  0  0  0  0
   53.1385   -3.5790   -7.8781 C   0  0  0  0  0  0  0  0  0  0  0  0
   52.9908   -2.5903   -8.7794 O   0  0  0  0  0  0  0  0  0  0  0  0
   51.7861   -2.1323   -8.7731 N   0  0  0  0  0  0  0  0  0  0  0  0
   58.8447   -8.3520   -3.0129 S   0  0  0  0  0  0  0  0  0  0  0  0
   59.8518   -8.1449   -4.0963 O   0  0  0  0  0  0  0  0  0  0  0  0
   58.7112   -9.8072   -2.6528 O   0  0  0  0  0  0  0  0  0  0  0  0
   59.4948   -7.5587   -1.5838 N   0  0  0  0  0  0  0  0  0  0  0  0
   59.3416   -8.2990   -0.8359 H   0  0  0  0  0  0  0  0  0  0  0  0
   60.9037   -7.3945   -1.7044 C   0  0  0  0  0  0  0  0  0  0  0  0
   61.7725   -8.0826   -0.7239 C   0  0  0  0  0  0  0  0  0  0  0  0
   63.2443   -7.9675   -0.8887 C   0  0  0  0  0  0  0  0  0  0  0  0
   63.8276   -9.3309   -0.4292 C   0  0  0  0  0  0  0  0  0  0  0  0
   63.7404   -7.8231   -2.2979 C   0  0  0  0  0  0  0  0  0  0  0  0
   63.7131   -6.9709   -0.0344 O   0  0  0  0  0  0  0  0  0  0  0  0
   64.6814   -7.0336    0.0755 H   0  0  0  0  0  0  0  0  0  0  0  0
 17 18  1  0  0  0
 18 19  1  0  0  0
 19 20  2  0  0  0
 20 21  1  0  0  0
 21 22  1  0  0  0
 20  8  1  0  0  0
  8  9  2  0  0  0
  9 10  1  0  0  0
 10 11  2  0  0  0
 11 12  1  0  0  0
 12 13  2  0  0  0
 13 14  1  0  0  0
 10  1  1  0  0  0
  1  2  2  0  0  0
  2  3  1  0  0  0
  3  4  2  0  0  0
  4  5  1  0  0  0
  5  6  2  0  0  0
  6  7  1  0  0  0
  3 23  1  0  0  0
 23 24  2  0  0  0
 23 25  2  0  0  0
 23 26  1  0  0  0
 26 28  1  0  0  0
 28 29  1  0  0  0
 29 30  1  0  0  0
 30 31  1  0  0  0
 30 32  1  0  0  0
 30 33  1  0  0  0
 22 18  2  0  0  0
 13  8  1  0  0  0
  6  1  1  0  0  0
 14 15  1  0  0  0
 14 16  1  0  0  0
 26 27  1  0  0  0
 33 34  1  0  0  0
M  END
> <minimizedAffinity>
-7.03306

> <CNNscore>
0.5434534550

> <CNNaffinity>
6.5379166603

> <CNN_VS>
3.5530533791

> <CNNaffinity_variance>
0.4276551306

$$$$
[H]OC(C([H])([H])[H])(C([H])([H])[H])C([H])([H])C([H])([H])N([H])S(=O)(=O)c1c([H])c([H])c(C([H])([H])[H])c(-c2c([H])nc(N([H])[H])c(-c3onc(C([H])([H])[H])c3[H])c2[H])c1[H]


 34 36  0  0  0  0  0  0  0  0999 V2000
   51.0166   -4.2865   -5.6367 C   0  0  0  0  0  0  0  0  0  0  0  0
   51.4688   -5.1606   -4.6351 C   0  0  0  0  0  0  0  0  0  0  0  0
   50.7202   -5.4485   -3.5291 C   0  0  0  0  0  0  0  0  0  0  0  0
   49.4893   -4.8413   -3.4317 C   0  0  0  0  0  0  0  0  0  0  0  0
   49.0078   -3.9771   -4.3915 C   0  0  0  0  0  0  0  0  0  0  0  0
   49.7834   -3.6867   -5.5244 C   0  0  0  0  0  0  0  0  0  0  0  0
   49.2412   -2.7356   -6.5423 C   0  0  0  0  0  0  0  0  0  0  0  0
   54.0003   -4.2327   -7.9165 C   0  0  0  0  0  0  0  0  0  0  0  0
   53.1512   -4.4408   -6.8257 C   0  0  0  0  0  0  0  0  0  0  0  0
   51.8384   -4.0180   -6.8032 C   0  0  0  0  0  0  0  0  0  0  0  0
   51.3382   -3.3622   -7.9011 C   0  0  0  0  0  0  0  0  0  0  0  0
   52.1386   -3.1581   -8.9472 N   0  0  0  0  0  0  0  0  0  0  0  0
   53.4351   -3.5756   -8.9691 C   0  0  0  0  0  0  0  0  0  0  0  0
   54.2178   -3.3186  -10.1214 N   0  0  0  0  0  0  0  0  0  0  0  0
   54.2500   -4.0113  -10.8756 H   0  0  0  0  0  0  0  0  0  0  0  0
   54.7429   -2.4409  -10.1856 H   0  0  0  0  0  0  0  0  0  0  0  0
   58.7967   -5.4953   -8.9023 C   0  0  0  0  0  0  0  0  0  0  0  0
   57.5092   -5.3001   -8.2189 C   0  0  0  0  0  0  0  0  0  0  0  0
   56.3592   -4.7248   -8.7764 C   0  0  0  0  0  0  0  0  0  0  0  0
   55.3694   -4.7082   -7.8630 C   0  0  0  0  0  0  0  0  0  0  0  0
   55.9129   -5.2665   -6.7655 O   0  0  0  0  0  0  0  0  0  0  0  0
   57.1391   -5.6039   -6.9748 N   0  0  0  0  0  0  0  0  0  0  0  0
   51.3291   -6.5476   -2.3063 S   0  0  0  0  0  0  0  0  0  0  0  0
   52.1253   -7.6623   -2.9018 O   0  0  0  0  0  0  0  0  0  0  0  0
   50.2150   -7.0665   -1.4376 O   0  0  0  0  0  0  0  0  0  0  0  0
   52.4219   -5.6887   -1.2282 N   0  0  0  0  0  0  0  0  0  0  0  0
   52.1762   -6.1149   -0.2855 H   0  0  0  0  0  0  0  0  0  0  0  0
   53.7717   -6.0537   -1.4951 C   0  0  0  0  0  0  0  0  0  0  0  0
   54.6279   -5.0830   -2.2122 C   0  0  0  0  0  0  0  0  0  0  0  0
   55.6492   -5.6100   -3.1536 C   0  0  0  0  0  0  0  0  0  0  0  0
   56.9343   -5.8181   -2.3078 C   0  0  0  0  0  0  0  0  0  0  0  0
   55.3760   -6.9691   -3.7292 C   0  0  0  0  0  0  0  0  0  0  0  0
   55.9050   -4.6419   -4.1231 O   0  0  0  0  0  0  0  0  0  0  0  0
   56.7332   -4.8387   -4.6016 H   0  0  0  0  0  0  0  0  0  0  0  0
 17 18  1  0  0  0
 18 19  1  0  0  0
 19 20  2  0  0  0
 20 21  1  0  0  0
 21 22  1  0  0  0
 20  8  1  0  0  0
  8  9  2  0  0  0
  9 10  1  0  0  0
 10 11  2  0  0  0
 11 12  1  0  0  0
 12 13  2  0  0  0
 13 14  1  0  0  0
 10  1  1  0  0  0
  1  2  2  0  0  0
  2  3  1  0  0  0
  3  4  2  0  0  0
  4  5  1  0  0  0
  5  6  2  0  0  0
  6  7  1  0  0  0
  3 23  1  0  0  0
 23 24  2  0  0  0
 23 25  2  0  0  0
 23 26  1  0  0  0
 26 28  1  0  0  0
 28 29  1  0  0  0
 29 30  1  0  0  0
 30 31  1  0  0  0
 30 32  1  0  0  0
 30 33  1  0  0  0
 22 18  2  0  0  0
 13  8  1  0  0  0
  6  1  1  0  0  0
 14 15  1  0  0  0
 14 16  1  0  0  0
 26 27  1  0  0  0
 33 34  1  0  0  0
M  END
> <minimizedAffinity>
-9.60921

> <CNNscore>
0.4860046804

> <CNNaffinity>
7.2670364380

> <CNN_VS>
3.5318136215

> <CNNaffinity_variance>
0.0746977776

$$$$
[H]OC(C([H])([H])[H])(C([H])([H])[H])C([H])([H])C([H])([H])N([H])S(=O)(=O)c1c([H])c([H])c(C([H])([H])[H])c(-c2c([H])nc(N([H])[H])c(-c3onc(C([H])([H])[H])c3[H])c2[H])c1[H]


 34 36  0  0  0  0  0  0  0  0999 V2000
   56.3325   -4.3680  -10.5134 C   0  0  0  0  0  0  0  0  0  0  0  0
   56.1306   -4.0869  -11.8743 C   0  0  0  0  0  0  0  0  0  0  0  0
   57.1506   -4.1193  -12.7825 C   0  0  0  0  0  0  0  0  0  0  0  0
   58.4009   -4.4421  -12.3074 C   0  0  0  0  0  0  0  0  0  0  0  0
   58.6426   -4.7245  -10.9800 C   0  0  0  0  0  0  0  0  0  0  0  0
   57.5890   -4.6887  -10.0537 C   0  0  0  0  0  0  0  0  0  0  0  0
   57.8831   -4.9863   -8.6187 C   0  0  0  0  0  0  0  0  0  0  0  0
   54.3042   -4.9729   -7.4113 C   0  0  0  0  0  0  0  0  0  0  0  0
   55.3269   -4.9716   -8.3644 C   0  0  0  0  0  0  0  0  0  0  0  0
   55.2179   -4.3355   -9.5835 C   0  0  0  0  0  0  0  0  0  0  0  0
   54.0529   -3.6712   -9.8786 C   0  0  0  0  0  0  0  0  0  0  0  0
   53.0707   -3.6657   -8.9774 N   0  0  0  0  0  0  0  0  0  0  0  0
   53.1785   -4.2942   -7.7736 C   0  0  0  0  0  0  0  0  0  0  0  0
   52.0871   -4.2393   -6.8724 N   0  0  0  0  0  0  0  0  0  0  0  0
   52.0374   -3.4822   -6.1840 H   0  0  0  0  0  0  0  0  0  0  0  0
   51.3597   -4.9596   -6.9210 H   0  0  0  0  0  0  0  0  0  0  0  0
   55.1091   -8.3734   -3.7561 C   0  0  0  0  0  0  0  0  0  0  0  0
   54.8458   -7.1132   -4.4669 C   0  0  0  0  0  0  0  0  0  0  0  0
   54.7424   -6.9564   -5.8558 C   0  0  0  0  0  0  0  0  0  0  0  0
   54.4961   -5.6657   -6.1516 C   0  0  0  0  0  0  0  0  0  0  0  0
   54.4508   -5.0477   -4.9568 O   0  0  0  0  0  0  0  0  0  0  0  0
   54.6518   -5.8817   -3.9948 N   0  0  0  0  0  0  0  0  0  0  0  0
   56.8472   -3.7612  -14.4718 S   0  0  0  0  0  0  0  0  0  0  0  0
   55.5698   -3.0113  -14.6645 O   0  0  0  0  0  0  0  0  0  0  0  0
   56.8861   -5.0114  -15.3088 O   0  0  0  0  0  0  0  0  0  0  0  0
   58.1222   -2.7224  -15.0960 N   0  0  0  0  0  0  0  0  0  0  0  0
   58.1865   -1.9787  -14.3386 H   0  0  0  0  0  0  0  0  0  0  0  0
   59.3690   -3.4091  -15.0922 C   0  0  0  0  0  0  0  0  0  0  0  0
   60.0647   -3.5988  -16.3844 C   0  0  0  0  0  0  0  0  0  0  0  0
   61.4634   -4.0988  -16.3612 C   0  0  0  0  0  0  0  0  0  0  0  0
   61.6305   -4.9427  -17.6536 C   0  0  0  0  0  0  0  0  0  0  0  0
   62.5377   -3.0566  -16.4733 C   0  0  0  0  0  0  0  0  0  0  0  0
   61.6205   -4.9361  -15.2581 O   0  0  0  0  0  0  0  0  0  0  0  0
   62.4298   -5.4759  -15.3431 H   0  0  0  0  0  0  0  0  0  0  0  0
 17 18  1  0  0  0
 18 19  1  0  0  0
 19 20  2  0  0  0
 20 21  1  0  0  0
 21 22  1  0  0  0
 20  8  1  0  0  0
  8  9  2  0  0  0
  9 10  1  0  0  0
 10 11  2  0  0  0
 11 12  1  0  0  0
 12 13  2  0  0  0
 13 14  1  0  0  0
 10  1  1  0  0  0
  1  2  2  0  0  0
  2  3  1  0  0  0
  3  4  2  0  0  0
  4  5  1  0  0  0
  5  6  2  0  0  0
  6  7  1  0  0  0
  3 23  1  0  0  0
 23 24  2  0  0  0
 23 25  2  0  0  0
 23 26  1  0  0  0
 26 28  1  0  0  0
 28 29  1  0  0  0
 29 30  1  0  0  0
 30 31  1  0  0  0
 30 32  1  0  0  0
 30 33  1  0  0  0
 22 18  2  0  0  0
 13  8  1  0  0  0
  6  1  1  0  0  0
 14 15  1  0  0  0
 14 16  1  0  0  0
 26 27  1  0  0  0
 33 34  1  0  0  0
M  END
> <minimizedAffinity>
-7.58752

> <CNNscore>
0.4533623457

> <CNNaffinity>
6.5424728394

> <CNN_VS>
2.9661109447

> <CNNaffinity_variance>
0.2616327703

$$$$
[H]OC(C([H])([H])[H])(C([H])([H])[H])C([H])([H])C([H])([H])N([H])S(=O)(=O)c1c([H])c([H])c(C([H])([H])[H])c(-c2c([H])nc(N([H])[H])c(-c3onc(C([H])([H])[H])c3[H])c2[H])c1[H]


 34 36  0  0  0  0  0  0  0  0999 V2000
   53.4392   -5.0939   -6.2752 C   0  0  0  0  0  0  0  0  0  0  0  0
   54.2527   -5.5281   -5.2163 C   0  0  0  0  0  0  0  0  0  0  0  0
   53.7332   -5.9385   -4.0213 C   0  0  0  0  0  0  0  0  0  0  0  0
   52.3636   -5.9100   -3.8920 C   0  0  0  0  0  0  0  0  0  0  0  0
   51.5290   -5.4908   -4.9059 C   0  0  0  0  0  0  0  0  0  0  0  0
   52.0711   -5.0707   -6.1301 C   0  0  0  0  0  0  0  0  0  0  0  0
   51.1427   -4.6089   -7.2068 C   0  0  0  0  0  0  0  0  0  0  0  0
   55.9564   -4.7082   -9.0352 C   0  0  0  0  0  0  0  0  0  0  0  0
   55.3228   -5.0563   -7.8387 C   0  0  0  0  0  0  0  0  0  0  0  0
   54.0316   -4.6785   -7.5341 C   0  0  0  0  0  0  0  0  0  0  0  0
   53.3325   -3.9260   -8.4454 C   0  0  0  0  0  0  0  0  0  0  0  0
   53.9265   -3.5880   -9.5898 N   0  0  0  0  0  0  0  0  0  0  0  0
   55.2018   -3.9610   -9.8904 C   0  0  0  0  0  0  0  0  0  0  0  0
   55.7584   -3.5598  -11.1296 N   0  0  0  0  0  0  0  0  0  0  0  0
   55.6601   -4.1676  -11.9485 H   0  0  0  0  0  0  0  0  0  0  0  0
   56.2535   -2.6646  -11.1907 H   0  0  0  0  0  0  0  0  0  0  0  0
   60.7781   -6.1854   -8.6594 C   0  0  0  0  0  0  0  0  0  0  0  0
   59.4646   -5.8073   -9.2023 C   0  0  0  0  0  0  0  0  0  0  0  0
   58.3449   -5.4182   -8.4546 C   0  0  0  0  0  0  0  0  0  0  0  0
   57.3175   -5.1445   -9.2815 C   0  0  0  0  0  0  0  0  0  0  0  0
   57.8085   -5.3651  -10.5151 O   0  0  0  0  0  0  0  0  0  0  0  0
   59.0391   -5.7447  -10.4641 N   0  0  0  0  0  0  0  0  0  0  0  0
   54.7914   -6.4727   -2.7295 S   0  0  0  0  0  0  0  0  0  0  0  0
   56.1700   -6.7699   -3.2217 O   0  0  0  0  0  0  0  0  0  0  0  0
   54.2023   -7.6458   -1.9933 O   0  0  0  0  0  0  0  0  0  0  0  0
   54.9645   -5.1916   -1.5366 N   0  0  0  0  0  0  0  0  0  0  0  0
   53.9610   -5.0636   -1.2085 H   0  0  0  0  0  0  0  0  0  0  0  0
   55.6996   -5.6575   -0.4102 C   0  0  0  0  0  0  0  0  0  0  0  0
   56.9665   -4.9719   -0.0720 C   0  0  0  0  0  0  0  0  0  0  0  0
   58.2164   -5.4491   -0.7176 C   0  0  0  0  0  0  0  0  0  0  0  0
   59.3699   -4.6713   -0.0286 C   0  0  0  0  0  0  0  0  0  0  0  0
   58.5688   -6.8898   -0.4870 C   0  0  0  0  0  0  0  0  0  0  0  0
   58.1849   -5.0984   -2.0662 O   0  0  0  0  0  0  0  0  0  0  0  0
   59.0743   -5.1642   -2.4640 H   0  0  0  0  0  0  0  0  0  0  0  0
 17 18  1  0  0  0
 18 19  1  0  0  0
 19 20  2  0  0  0
 20 21  1  0  0  0
 21 22  1  0  0  0
 20  8  1  0  0  0
  8  9  2  0  0  0
  9 10  1  0  0  0
 10 11  2  0  0  0
 11 12  1  0  0  0
 12 13  2  0  0  0
 13 14  1  0  0  0
 10  1  1  0  0  0
  1  2  2  0  0  0
  2  3  1  0  0  0
  3  4  2  0  0  0
  4  5  1  0  0  0
  5  6  2  0  0  0
  6  7  1  0  0  0
  3 23  1  0  0  0
 23 24  2  0  0  0
 23 25  2  0  0  0
 23 26  1  0  0  0
 26 28  1  0  0  0
 28 29  1  0  0  0
 29 30  1  0  0  0
 30 31  1  0  0  0
 30 32  1  0  0  0
 30 33  1  0  0  0
 22 18  2  0  0  0
 13  8  1  0  0  0
  6  1  1  0  0  0
 14 15  1  0  0  0
 14 16  1  0  0  0
 26 27  1  0  0  0
 33 34  1  0  0  0
M  END
> <minimizedAffinity>
-8.75347

> <CNNscore>
0.3518497646

> <CNNaffinity>
6.7634582520

> <CNN_VS>
2.3797211647

> <CNNaffinity_variance>
0.1454672813

$$$$
[H]OC(C([H])([H])[H])(C([H])([H])[H])C([H])([H])C([H])([H])N([H])S(=O)(=O)c1c([H])c([H])c(C([H])([H])[H])c(-c2c([H])nc(N([H])[H])c(-c3onc(C([H])([H])[H])c3[H])c2[H])c1[H]


 34 36  0  0  0  0  0  0  0  0999 V2000
   56.7703   -5.1796   -8.5642 C   0  0  0  0  0  0  0  0  0  0  0  0
   58.0420   -5.7732   -8.6092 C   0  0  0  0  0  0  0  0  0  0  0  0
   58.8670   -5.6436   -9.6905 C   0  0  0  0  0  0  0  0  0  0  0  0
   58.3986   -4.8994  -10.7488 C   0  0  0  0  0  0  0  0  0  0  0  0
   57.1571   -4.3004  -10.7456 C   0  0  0  0  0  0  0  0  0  0  0  0
   56.3160   -4.4388   -9.6309 C   0  0  0  0  0  0  0  0  0  0  0  0
   54.9700   -3.7892   -9.6609 C   0  0  0  0  0  0  0  0  0  0  0  0
   53.7037   -5.2046   -6.3965 C   0  0  0  0  0  0  0  0  0  0  0  0
   54.5790   -5.0683   -7.4780 C   0  0  0  0  0  0  0  0  0  0  0  0
   55.9302   -5.3310   -7.3897 C   0  0  0  0  0  0  0  0  0  0  0  0
   56.4436   -5.7461   -6.1857 C   0  0  0  0  0  0  0  0  0  0  0  0
   55.6186   -5.8796   -5.1473 N   0  0  0  0  0  0  0  0  0  0  0  0
   54.2841   -5.6200   -5.2348 C   0  0  0  0  0  0  0  0  0  0  0  0
   53.4770   -5.7877   -4.0829 N   0  0  0  0  0  0  0  0  0  0  0  0
   53.0291   -6.6921   -3.9067 H   0  0  0  0  0  0  0  0  0  0  0  0
   53.3514   -5.0000   -3.4394 H   0  0  0  0  0  0  0  0  0  0  0  0
   49.2146   -3.0358   -7.2427 C   0  0  0  0  0  0  0  0  0  0  0  0
   50.2599   -4.0222   -6.9309 C   0  0  0  0  0  0  0  0  0  0  0  0
   51.6390   -3.7761   -6.8887 C   0  0  0  0  0  0  0  0  0  0  0  0
   52.2945   -4.9088   -6.5702 C   0  0  0  0  0  0  0  0  0  0  0  0
   51.3246   -5.8301   -6.4213 O   0  0  0  0  0  0  0  0  0  0  0  0
   50.1607   -5.3169   -6.6290 N   0  0  0  0  0  0  0  0  0  0  0  0
   60.4469   -6.4037   -9.6981 S   0  0  0  0  0  0  0  0  0  0  0  0
   61.1858   -6.1724   -8.4208 O   0  0  0  0  0  0  0  0  0  0  0  0
   61.2548   -5.9680  -10.8909 O   0  0  0  0  0  0  0  0  0  0  0  0
   60.2656   -8.1469   -9.8485 N   0  0  0  0  0  0  0  0  0  0  0  0
   60.4427   -8.2948  -10.8866 H   0  0  0  0  0  0  0  0  0  0  0  0
   61.3171   -8.8168   -9.1617 C   0  0  0  0  0  0  0  0  0  0  0  0
   62.1388   -9.7863   -9.9198 C   0  0  0  0  0  0  0  0  0  0  0  0
   63.2474   -9.2619  -10.7581 C   0  0  0  0  0  0  0  0  0  0  0  0
   64.2556   -8.6181   -9.7685 C   0  0  0  0  0  0  0  0  0  0  0  0
   64.0660  -10.2883  -11.4855 C   0  0  0  0  0  0  0  0  0  0  0  0
   62.7437   -8.2658  -11.5929 O   0  0  0  0  0  0  0  0  0  0  0  0
   63.4670   -7.7295  -11.9708 H   0  0  0  0  0  0  0  0  0  0  0  0
 17 18  1  0  0  0
 18 19  1  0  0  0
 19 20  2  0  0  0
 20 21  1  0  0  0
 21 22  1  0  0  0
 20  8  1  0  0  0
  8  9  2  0  0  0
  9 10  1  0  0  0
 10 11  2  0  0  0
 11 12  1  0  0  0
 12 13  2  0  0  0
 13 14  1  0  0  0
 10  1  1  0  0  0
  1  2  2  0  0  0
  2  3  1  0  0  0
  3  4  2  0  0  0
  4  5  1  0  0  0
  5  6  2  0  0  0
  6  7  1  0  0  0
  3 23  1  0  0  0
 23 24  2  0  0  0
 23 25  2  0  0  0
 23 26  1  0  0  0
 26 28  1  0  0  0
 28 29  1  0  0  0
 29 30  1  0  0  0
 30 31  1  0  0  0
 30 32  1  0  0  0
 30 33  1  0  0  0
 22 18  2  0  0  0
 13  8  1  0  0  0
  6  1  1  0  0  0
 14 15  1  0  0  0
 14 16  1  0  0  0
 26 27  1  0  0  0
 33 34  1  0  0  0
M  END
> <minimizedAffinity>
-8.37335

> <CNNscore>
0.2833766043

> <CNNaffinity>
5.8963479996

> <CNN_VS>
1.6708871126

> <CNNaffinity_variance>
0.2557095885

$$$$
[H]OC(=O)[C@@]([H])(N([H])C(=O)[C@@]([H])(N([H])C(=O)[C@@]([H])(N([H])C(=O)[C@@]([H])(N([H])C(=O)[C@@]([H])(N([H])C(=O)c1c([H])c([H])c(S(=O)(=O)N([H])[H])c([H])c1[H])C([H])([H])c1c([H])c([H])c([H])c([H])c1[H])C([H])([H])c1c([H])c([H])c([H])c([H])c1[H])C([H])([H])c1c([H])c([H])c([H])c([H])c1[H])C([H])([H])c1c([H])c([H])c([H])c([H])c1[H])C([H])([H])c1c([H])c([H])c([H])c([H])c1[H]


 76 81  0  0  0  0  0  0  0  0999 V2000
   57.4518   -5.0370   -7.8357 C   0  0  0  0  0  0  0  0  0  0  0  0
   57.1931   -3.8253   -7.6209 O   0  0  0  0  0  0  0  0  0  0  0  0
   56.5117   -5.9696   -7.3416 N   0  0  0  0  0  0  0  0  0  0  0  0
   56.7042   -6.9838   -7.4869 H   0  0  0  0  0  0  0  0  0  0  0  0
   55.2949   -5.6214   -6.6442 C   0  0  0  0  0  0  0  0  0  0  0  0
   55.2396   -6.1111   -5.2480 C   0  0  0  0  0  0  0  0  0  0  0  0
   55.7168   -7.2523   -5.0209 O   0  0  0  0  0  0  0  0  0  0  0  0
   54.7014   -5.3889   -4.1774 N   0  0  0  0  0  0  0  0  0  0  0  0
   54.2834   -4.4505   -4.4149 H   0  0  0  0  0  0  0  0  0  0  0  0
   54.6464   -5.7756   -2.7962 C   0  0  0  0  0  0  0  0  0  0  0  0
   55.8254   -6.4801   -2.2639 C   0  0  0  0  0  0  0  0  0  0  0  0
   55.6037   -7.5637   -1.6461 O   0  0  0  0  0  0  0  0  0  0  0  0
   57.1445   -6.0308   -2.4077 N   0  0  0  0  0  0  0  0  0  0  0  0
   57.3596   -5.1506   -2.8879 H   0  0  0  0  0  0  0  0  0  0  0  0
   58.2399   -6.8593   -1.8449 C   0  0  0  0  0  0  0  0  0  0  0  0
   59.3124   -5.9850   -1.3538 C   0  0  0  0  0  0  0  0  0  0  0  0
   60.3625   -6.4744   -0.6081 O   0  0  0  0  0  0  0  0  0  0  0  0
   59.2878   -4.7616   -1.6044 O   0  0  0  0  0  0  0  0  0  0  0  0
   60.2559   -6.7890    0.3675 H   0  0  0  0  0  0  0  0  0  0  0  0
   58.7148   -7.6955   -3.0421 C   0  0  0  0  0  0  0  0  0  0  0  0
   59.3022   -8.9574   -2.6176 C   0  0  0  0  0  0  0  0  0  0  0  0
   58.6209   -9.6927   -1.6544 C   0  0  0  0  0  0  0  0  0  0  0  0
   59.1242  -10.8939   -1.2453 C   0  0  0  0  0  0  0  0  0  0  0  0
   60.3011  -11.3814   -1.7799 C   0  0  0  0  0  0  0  0  0  0  0  0
   60.9904  -10.6851   -2.7240 C   0  0  0  0  0  0  0  0  0  0  0  0
   60.4655   -9.4595   -3.1338 C   0  0  0  0  0  0  0  0  0  0  0  0
   53.3948   -6.5237   -2.4550 C   0  0  0  0  0  0  0  0  0  0  0  0
   52.1659   -6.0069   -3.0598 C   0  0  0  0  0  0  0  0  0  0  0  0
   51.3664   -5.1058   -2.4261 C   0  0  0  0  0  0  0  0  0  0  0  0
   50.1775   -4.6078   -2.9844 C   0  0  0  0  0  0  0  0  0  0  0  0
   49.8012   -5.0541   -4.2389 C   0  0  0  0  0  0  0  0  0  0  0  0
   50.6283   -5.9692   -4.8652 C   0  0  0  0  0  0  0  0  0  0  0  0
   51.7942   -6.4572   -4.3173 C   0  0  0  0  0  0  0  0  0  0  0  0
   54.0855   -5.7088   -7.4583 C   0  0  0  0  0  0  0  0  0  0  0  0
   53.3977   -4.4979   -7.8603 C   0  0  0  0  0  0  0  0  0  0  0  0
   52.1359   -4.2436   -7.3010 C   0  0  0  0  0  0  0  0  0  0  0  0
   51.4051   -3.1400   -7.6208 C   0  0  0  0  0  0  0  0  0  0  0  0
   51.8746   -2.2151   -8.5164 C   0  0  0  0  0  0  0  0  0  0  0  0
   53.1259   -2.4304   -9.0970 C   0  0  0  0  0  0  0  0  0  0  0  0
   53.8251   -3.5445   -8.7512 C   0  0  0  0  0  0  0  0  0  0  0  0
   58.6798   -5.3741   -8.5644 C   0  0  0  0  0  0  0  0  0  0  0  0
   60.9091   -6.5727   -8.3638 C   0  0  0  0  0  0  0  0  0  0  0  0
   61.1864   -6.1531   -9.5314 O   0  0  0  0  0  0  0  0  0  0  0  0
   59.6323   -6.1810   -7.8436 N   0  0  0  0  0  0  0  0  0  0  0  0
   59.3294   -6.4920   -6.8812 H   0  0  0  0  0  0  0  0  0  0  0  0
   61.8634   -7.3989   -7.6583 C   0  0  0  0  0  0  0  0  0  0  0  0
   61.7093   -9.8956   -7.9209 C   0  0  0  0  0  0  0  0  0  0  0  0
   61.2227   -9.9202   -6.7426 O   0  0  0  0  0  0  0  0  0  0  0  0
   62.0528   -8.6452   -8.4438 N   0  0  0  0  0  0  0  0  0  0  0  0
   62.4498   -8.5138   -9.3918 H   0  0  0  0  0  0  0  0  0  0  0  0
   62.1873  -13.6096   -9.9429 C   0  0  0  0  0  0  0  0  0  0  0  0
   62.5655  -12.4172  -10.5261 C   0  0  0  0  0  0  0  0  0  0  0  0
   62.4010  -11.2086   -9.8567 C   0  0  0  0  0  0  0  0  0  0  0  0
   61.8577  -11.1548   -8.5937 C   0  0  0  0  0  0  0  0  0  0  0  0
   61.4795  -12.3531   -8.0133 C   0  0  0  0  0  0  0  0  0  0  0  0
   61.6362  -13.5593   -8.6649 C   0  0  0  0  0  0  0  0  0  0  0  0
   63.3961  -16.1429   -9.7707 N   0  0  0  0  0  0  0  0  0  0  0  0
   62.4023  -15.1416  -10.7587 S   0  0  0  0  0  0  0  0  0  0  0  0
   63.0101  -14.9432  -12.1219 O   0  0  0  0  0  0  0  0  0  0  0  0
   61.0354  -15.7717  -10.8661 O   0  0  0  0  0  0  0  0  0  0  0  0
   63.2267  -15.8893   -8.7715 H   0  0  0  0  0  0  0  0  0  0  0  0
   63.0400  -17.1249   -9.8945 H   0  0  0  0  0  0  0  0  0  0  0  0
   63.2470   -6.8824   -7.4491 C   0  0  0  0  0  0  0  0  0  0  0  0
   63.7753   -6.8866   -6.0820 C   0  0  0  0  0  0  0  0  0  0  0  0
   64.8537   -6.0750   -5.7999 C   0  0  0  0  0  0  0  0  0  0  0  0
   65.3204   -6.0283   -4.5087 C   0  0  0  0  0  0  0  0  0  0  0  0
   64.7665   -6.7508   -3.4795 C   0  0  0  0  0  0  0  0  0  0  0  0
   63.6847   -7.5639   -3.7648 C   0  0  0  0  0  0  0  0  0  0  0  0
   63.2144   -7.6154   -5.0530 C   0  0  0  0  0  0  0  0  0  0  0  0
   58.4557   -6.0283   -9.9115 C   0  0  0  0  0  0  0  0  0  0  0  0
   57.9087   -5.0701  -10.8966 C   0  0  0  0  0  0  0  0  0  0  0  0
   56.5760   -4.7563  -10.8633 C   0  0  0  0  0  0  0  0  0  0  0  0
   56.0827   -3.8582  -11.7813 C   0  0  0  0  0  0  0  0  0  0  0  0
   56.9489   -3.2889  -12.7224 C   0  0  0  0  0  0  0  0  0  0  0  0
   58.2855   -3.6078  -12.7503 C   0  0  0  0  0  0  0  0  0  0  0  0
   58.7797   -4.5108  -11.8275 C   0  0  0  0  0  0  0  0  0  0  0  0
 57 58  1  0  0  0
 58 59  2  0  0  0
 58 60  2  0  0  0
 58 51  1  0  0  0
 51 52  2  0  0  0
 52 53  1  0  0  0
 53 54  2  0  0  0
 54 55  1  0  0  0
 55 56  2  0  0  0
 54 47  1  0  0  0
 47 48  2  0  0  0
 47 49  1  0  0  0
 49 46  1  0  0  0
 46 63  1  0  0  0
 63 64  1  0  0  0
 64 65  2  0  0  0
 65 66  1  0  0  0
 66 67  2  0  0  0
 67 68  1  0  0  0
 68 69  2  0  0  0
 46 42  1  0  0  0
 42 43  2  0  0  0
 42 44  1  0  0  0
 44 41  1  0  0  0
 41 70  1  0  0  0
 70 71  1  0  0  0
 71 72  2  0  0  0
 72 73  1  0  0  0
 73 74  2  0  0  0
 74 75  1  0  0  0
 75 76  2  0  0  0
 41  1  1  0  0  0
  1  2  2  0  0  0
  1  3  1  0  0  0
  3  5  1  0  0  0
  5 34  1  0  0  0
 34 35  1  0  0  0
 35 36  2  0  0  0
 36 37  1  0  0  0
 37 38  2  0  0  0
 38 39  1  0  0  0
 39 40  2  0  0  0
  5  6  1  0  0  0
  6  7  2  0  0  0
  6  8  1  0  0  0
  8 10  1  0  0  0
 10 27  1  0  0  0
 27 28  1  0  0  0
 28 29  2  0  0  0
 29 30  1  0  0  0
 30 31  2  0  0  0
 31 32  1  0  0  0
 32 33  2  0  0  0
 10 11  1  0  0  0
 11 12  2  0  0  0
 11 13  1  0  0  0
 13 15  1  0  0  0
 15 20  1  0  0  0
 20 21  1  0  0  0
 21 22  2  0  0  0
 22 23  1  0  0  0
 23 24  2  0  0  0
 24 25  1  0  0  0
 25 26  2  0  0  0
 15 16  1  0  0  0
 16 17  1  0  0  0
 16 18  2  0  0  0
 56 51  1  0  0  0
 69 64  1  0  0  0
 76 71  1  0  0  0
 40 35  1  0  0  0
 33 28  1  0  0  0
 26 21  1  0  0  0
 57 61  1  0  0  0
 57 62  1  0  0  0
 49 50  1  0  0  0
 44 45  1  0  0  0
  3  4  1  0  0  0
  8  9  1  0  0  0
 13 14  1  0  0  0
 17 19  1  0  0  0
M  END
> <minimizedAffinity>
-8.74004

> <CNNscore>
0.2415693253

> <CNNaffinity>
7.8562173843

> <CNN_VS>
1.8978211880

> <CNNaffinity_variance>
0.7626082301

$$$$
[H]OC(=O)[C@@]([H])(N([H])C(=O)[C@@]([H])(N([H])C(=O)[C@@]([H])(N([H])C(=O)[C@@]([H])(N([H])C(=O)[C@@]([H])(N([H])C(=O)c1c([H])c([H])c(S(=O)(=O)N([H])[H])c([H])c1[H])C([H])([H])c1c([H])c([H])c([H])c([H])c1[H])C([H])([H])c1c([H])c([H])c([H])c([H])c1[H])C([H])([H])c1c([H])c([H])c([H])c([H])c1[H])C([H])([H])c1c([H])c([H])c([H])c([H])c1[H])C([H])([H])c1c([H])c([H])c([H])c([H])c1[H]


 76 81  0  0  0  0  0  0  0  0999 V2000
   57.5054   -4.9953   -7.8311 C   0  0  0  0  0  0  0  0  0  0  0  0
   57.3235   -3.8040   -7.4723 O   0  0  0  0  0  0  0  0  0  0  0  0
   56.5825   -5.9421   -7.3314 N   0  0  0  0  0  0  0  0  0  0  0  0
   56.7146   -6.9420   -7.5951 H   0  0  0  0  0  0  0  0  0  0  0  0
   55.4616   -5.6269   -6.4757 C   0  0  0  0  0  0  0  0  0  0  0  0
   55.6346   -6.0628   -5.0713 C   0  0  0  0  0  0  0  0  0  0  0  0
   55.4024   -7.2716   -4.8130 O   0  0  0  0  0  0  0  0  0  0  0  0
   56.0417   -5.2248   -4.0275 N   0  0  0  0  0  0  0  0  0  0  0  0
   56.1957   -4.2126   -4.2791 H   0  0  0  0  0  0  0  0  0  0  0  0
   56.2694   -5.5782   -2.6550 C   0  0  0  0  0  0  0  0  0  0  0  0
   55.0761   -5.8953   -1.8519 C   0  0  0  0  0  0  0  0  0  0  0  0
   54.5554   -4.9341   -1.2115 O   0  0  0  0  0  0  0  0  0  0  0  0
   54.4976   -7.1683   -1.7671 N   0  0  0  0  0  0  0  0  0  0  0  0
   54.9014   -7.9724   -2.2593 H   0  0  0  0  0  0  0  0  0  0  0  0
   53.2759   -7.3373   -0.9413 C   0  0  0  0  0  0  0  0  0  0  0  0
   53.5548   -8.2653    0.1617 C   0  0  0  0  0  0  0  0  0  0  0  0
   53.3338   -9.6201    0.0431 O   0  0  0  0  0  0  0  0  0  0  0  0
   54.0003   -7.8341    1.2461 O   0  0  0  0  0  0  0  0  0  0  0  0
   52.3894  -10.0318    0.0168 H   0  0  0  0  0  0  0  0  0  0  0  0
   52.2553   -7.9355   -1.9205 C   0  0  0  0  0  0  0  0  0  0  0  0
   51.5600   -6.9009   -2.6714 C   0  0  0  0  0  0  0  0  0  0  0  0
   51.8396   -6.7930   -4.0289 C   0  0  0  0  0  0  0  0  0  0  0  0
   51.1915   -5.8519   -4.7759 C   0  0  0  0  0  0  0  0  0  0  0  0
   50.2638   -5.0098   -4.1940 C   0  0  0  0  0  0  0  0  0  0  0  0
   49.9688   -5.0911   -2.8683 C   0  0  0  0  0  0  0  0  0  0  0  0
   50.6373   -6.0570   -2.1162 C   0  0  0  0  0  0  0  0  0  0  0  0
   57.1308   -4.5850   -1.9380 C   0  0  0  0  0  0  0  0  0  0  0  0
   58.2242   -5.1527   -1.1471 C   0  0  0  0  0  0  0  0  0  0  0  0
   58.9123   -6.2576   -1.5452 C   0  0  0  0  0  0  0  0  0  0  0  0
   59.9558   -6.8243   -0.7947 C   0  0  0  0  0  0  0  0  0  0  0  0
   60.3011   -6.2307    0.4066 C   0  0  0  0  0  0  0  0  0  0  0  0
   59.5893   -5.1087    0.7917 C   0  0  0  0  0  0  0  0  0  0  0  0
   58.5662   -4.5534    0.0553 C   0  0  0  0  0  0  0  0  0  0  0  0
   54.1542   -5.8061   -7.1014 C   0  0  0  0  0  0  0  0  0  0  0  0
   53.4248   -4.6532   -7.5908 C   0  0  0  0  0  0  0  0  0  0  0  0
   54.0607   -3.8234   -8.5272 C   0  0  0  0  0  0  0  0  0  0  0  0
   53.4651   -2.7115   -9.0400 C   0  0  0  0  0  0  0  0  0  0  0  0
   52.2003   -2.3464   -8.6591 C   0  0  0  0  0  0  0  0  0  0  0  0
   51.5321   -3.1442   -7.7284 C   0  0  0  0  0  0  0  0  0  0  0  0
   52.1609   -4.2469   -7.2401 C   0  0  0  0  0  0  0  0  0  0  0  0
   58.6347   -5.2966   -8.7180 C   0  0  0  0  0  0  0  0  0  0  0  0
   60.8881   -6.4612   -8.8307 C   0  0  0  0  0  0  0  0  0  0  0  0
   60.9376   -6.1443  -10.0609 O   0  0  0  0  0  0  0  0  0  0  0  0
   59.7203   -6.0320   -8.1192 N   0  0  0  0  0  0  0  0  0  0  0  0
   59.6057   -6.2590   -7.0944 H   0  0  0  0  0  0  0  0  0  0  0  0
   61.9730   -7.2172   -8.2456 C   0  0  0  0  0  0  0  0  0  0  0  0
   61.9206   -9.7301   -8.1509 C   0  0  0  0  0  0  0  0  0  0  0  0
   61.8192   -9.6115   -6.8855 O   0  0  0  0  0  0  0  0  0  0  0  0
   62.0004   -8.5512   -8.8983 N   0  0  0  0  0  0  0  0  0  0  0  0
   62.0794   -8.5359   -9.9313 H   0  0  0  0  0  0  0  0  0  0  0  0
   62.0253  -13.6673   -9.7629 C   0  0  0  0  0  0  0  0  0  0  0  0
   62.3537  -12.5662  -10.5275 C   0  0  0  0  0  0  0  0  0  0  0  0
   62.3123  -11.2832   -9.9905 C   0  0  0  0  0  0  0  0  0  0  0  0
   61.9443  -11.0629   -8.6832 C   0  0  0  0  0  0  0  0  0  0  0  0
   61.6154  -12.1703   -7.9206 C   0  0  0  0  0  0  0  0  0  0  0  0
   61.6515  -13.4485   -8.4393 C   0  0  0  0  0  0  0  0  0  0  0  0
   60.5142  -15.7082  -10.9713 N   0  0  0  0  0  0  0  0  0  0  0  0
   62.0887  -15.2901  -10.4121 S   0  0  0  0  0  0  0  0  0  0  0  0
   62.5768  -16.2650   -9.3737 O   0  0  0  0  0  0  0  0  0  0  0  0
   63.0267  -15.2485  -11.5934 O   0  0  0  0  0  0  0  0  0  0  0  0
   60.0367  -14.8353  -11.2897 H   0  0  0  0  0  0  0  0  0  0  0  0
   60.6542  -16.3020  -11.8281 H   0  0  0  0  0  0  0  0  0  0  0  0
   63.3671   -6.7075   -8.3923 C   0  0  0  0  0  0  0  0  0  0  0  0
   63.9426   -5.9663   -7.2664 C   0  0  0  0  0  0  0  0  0  0  0  0
   64.4541   -4.7093   -7.5099 C   0  0  0  0  0  0  0  0  0  0  0  0
   64.9437   -3.9832   -6.4515 C   0  0  0  0  0  0  0  0  0  0  0  0
   64.9502   -4.4460   -5.1577 C   0  0  0  0  0  0  0  0  0  0  0  0
   64.4364   -5.7070   -4.9159 C   0  0  0  0  0  0  0  0  0  0  0  0
   63.9465   -6.4375   -5.9693 C   0  0  0  0  0  0  0  0  0  0  0  0
   58.2581   -6.0052  -10.0020 C   0  0  0  0  0  0  0  0  0  0  0  0
   57.7141   -5.0624  -11.0035 C   0  0  0  0  0  0  0  0  0  0  0  0
   56.3837   -4.7388  -10.9716 C   0  0  0  0  0  0  0  0  0  0  0  0
   55.8934   -3.8552  -11.9051 C   0  0  0  0  0  0  0  0  0  0  0  0
   56.7600   -3.3102  -12.8599 C   0  0  0  0  0  0  0  0  0  0  0  0
   58.0942   -3.6388  -12.8864 C   0  0  0  0  0  0  0  0  0  0  0  0
   58.5856   -4.5273  -11.9481 C   0  0  0  0  0  0  0  0  0  0  0  0
 57 58  1  0  0  0
 58 59  2  0  0  0
 58 60  2  0  0  0
 58 51  1  0  0  0
 51 52  2  0  0  0
 52 53  1  0  0  0
 53 54  2  0  0  0
 54 55  1  0  0  0
 55 56  2  0  0  0
 54 47  1  0  0  0
 47 48  2  0  0  0
 47 49  1  0  0  0
 49 46  1  0  0  0
 46 63  1  0  0  0
 63 64  1  0  0  0
 64 65  2  0  0  0
 65 66  1  0  0  0
 66 67  2  0  0  0
 67 68  1  0  0  0
 68 69  2  0  0  0
 46 42  1  0  0  0
 42 43  2  0  0  0
 42 44  1  0  0  0
 44 41  1  0  0  0
 41 70  1  0  0  0
 70 71  1  0  0  0
 71 72  2  0  0  0
 72 73  1  0  0  0
 73 74  2  0  0  0
 74 75  1  0  0  0
 75 76  2  0  0  0
 41  1  1  0  0  0
  1  2  2  0  0  0
  1  3  1  0  0  0
  3  5  1  0  0  0
  5 34  1  0  0  0
 34 35  1  0  0  0
 35 36  2  0  0  0
 36 37  1  0  0  0
 37 38  2  0  0  0
 38 39  1  0  0  0
 39 40  2  0  0  0
  5  6  1  0  0  0
  6  7  2  0  0  0
  6  8  1  0  0  0
  8 10  1  0  0  0
 10 27  1  0  0  0
 27 28  1  0  0  0
 28 29  2  0  0  0
 29 30  1  0  0  0
 30 31  2  0  0  0
 31 32  1  0  0  0
 32 33  2  0  0  0
 10 11  1  0  0  0
 11 12  2  0  0  0
 11 13  1  0  0  0
 13 15  1  0  0  0
 15 20  1  0  0  0
 20 21  1  0  0  0
 21 22  2  0  0  0
 22 23  1  0  0  0
 23 24  2  0  0  0
 24 25  1  0  0  0
 25 26  2  0  0  0
 15 16  1  0  0  0
 16 17  1  0  0  0
 16 18  2  0  0  0
 56 51  1  0  0  0
 69 64  1  0  0  0
 76 71  1  0  0  0
 40 35  1  0  0  0
 33 28  1  0  0  0
 26 21  1  0  0  0
 57 61  1  0  0  0
 57 62  1  0  0  0
 49 50  1  0  0  0
 44 45  1  0  0  0
  3  4  1  0  0  0
  8  9  1  0  0  0
 13 14  1  0  0  0
 17 19  1  0  0  0
M  END
> <minimizedAffinity>
-9.33079

> <CNNscore>
0.2115393728

> <CNNaffinity>
7.7987203598

> <CNN_VS>
1.6497364044

> <CNNaffinity_variance>
0.6805558801

$$$$
[H]OC(=O)[C@@]([H])(N([H])C(=O)[C@@]([H])(N([H])C(=O)[C@@]([H])(N([H])C(=O)[C@@]([H])(N([H])C(=O)[C@@]([H])(N([H])C(=O)c1c([H])c([H])c(S(=O)(=O)N([H])[H])c([H])c1[H])C([H])([H])c1c([H])c([H])c([H])c([H])c1[H])C([H])([H])c1c([H])c([H])c([H])c([H])c1[H])C([H])([H])c1c([H])c([H])c([H])c([H])c1[H])C([H])([H])c1c([H])c([H])c([H])c([H])c1[H])C([H])([H])c1c([H])c([H])c([H])c([H])c1[H]


 76 81  0  0  0  0  0  0  0  0999 V2000
   57.4271   -5.0170   -7.7491 C   0  0  0  0  0  0  0  0  0  0  0  0
   57.0249   -3.8327   -7.6199 O   0  0  0  0  0  0  0  0  0  0  0  0
   56.7419   -5.9919   -6.9890 N   0  0  0  0  0  0  0  0  0  0  0  0
   57.0612   -6.9818   -7.0590 H   0  0  0  0  0  0  0  0  0  0  0  0
   55.6242   -5.7184   -6.1149 C   0  0  0  0  0  0  0  0  0  0  0  0
   55.9549   -5.7909   -4.6735 C   0  0  0  0  0  0  0  0  0  0  0  0
   56.7710   -6.6785   -4.3161 O   0  0  0  0  0  0  0  0  0  0  0  0
   55.4268   -4.9393   -3.6972 N   0  0  0  0  0  0  0  0  0  0  0  0
   54.7227   -4.2298   -4.0328 H   0  0  0  0  0  0  0  0  0  0  0  0
   55.7256   -4.9201   -2.2933 C   0  0  0  0  0  0  0  0  0  0  0  0
   57.1518   -4.9316   -1.9253 C   0  0  0  0  0  0  0  0  0  0  0  0
   57.7393   -3.8092   -1.9093 O   0  0  0  0  0  0  0  0  0  0  0  0
   57.8717   -6.0866   -1.5933 N   0  0  0  0  0  0  0  0  0  0  0  0
   57.4325   -7.0132   -1.6110 H   0  0  0  0  0  0  0  0  0  0  0  0
   59.2994   -5.9461   -1.2125 C   0  0  0  0  0  0  0  0  0  0  0  0
   60.1192   -6.8296   -2.0511 C   0  0  0  0  0  0  0  0  0  0  0  0
   59.7609   -7.1391   -3.3449 O   0  0  0  0  0  0  0  0  0  0  0  0
   61.1706   -7.3273   -1.5961 O   0  0  0  0  0  0  0  0  0  0  0  0
   58.9697   -7.7592   -3.5722 H   0  0  0  0  0  0  0  0  0  0  0  0
   59.3297   -6.3951    0.2557 C   0  0  0  0  0  0  0  0  0  0  0  0
   59.2450   -5.2631    1.1662 C   0  0  0  0  0  0  0  0  0  0  0  0
   60.4134   -4.5550    1.4232 C   0  0  0  0  0  0  0  0  0  0  0  0
   60.3740   -3.4713    2.2524 C   0  0  0  0  0  0  0  0  0  0  0  0
   59.1857   -3.0755    2.8354 C   0  0  0  0  0  0  0  0  0  0  0  0
   58.0259   -3.7480    2.6032 C   0  0  0  0  0  0  0  0  0  0  0  0
   58.0794   -4.8531    1.7538 C   0  0  0  0  0  0  0  0  0  0  0  0
   54.9823   -5.9724   -1.5299 C   0  0  0  0  0  0  0  0  0  0  0  0
   53.5585   -6.0951   -1.8473 C   0  0  0  0  0  0  0  0  0  0  0  0
   52.9958   -7.2769   -2.2210 C   0  0  0  0  0  0  0  0  0  0  0  0
   51.6348   -7.4122   -2.5414 C   0  0  0  0  0  0  0  0  0  0  0  0
   50.8272   -6.2907   -2.4732 C   0  0  0  0  0  0  0  0  0  0  0  0
   51.4194   -5.1003   -2.0907 C   0  0  0  0  0  0  0  0  0  0  0  0
   52.7540   -4.9682   -1.7766 C   0  0  0  0  0  0  0  0  0  0  0  0
   54.3537   -6.2815   -6.5641 C   0  0  0  0  0  0  0  0  0  0  0  0
   53.1674   -5.4492   -6.5967 C   0  0  0  0  0  0  0  0  0  0  0  0
   53.0955   -4.4474   -7.5770 C   0  0  0  0  0  0  0  0  0  0  0  0
   52.0292   -3.6074   -7.6848 C   0  0  0  0  0  0  0  0  0  0  0  0
   50.9635   -3.7026   -6.8287 C   0  0  0  0  0  0  0  0  0  0  0  0
   50.9951   -4.6856   -5.8377 C   0  0  0  0  0  0  0  0  0  0  0  0
   52.0777   -5.5054   -5.7631 C   0  0  0  0  0  0  0  0  0  0  0  0
   58.5487   -5.2822   -8.6571 C   0  0  0  0  0  0  0  0  0  0  0  0
   60.8286   -6.3882   -8.8166 C   0  0  0  0  0  0  0  0  0  0  0  0
   60.8444   -6.0706  -10.0475 O   0  0  0  0  0  0  0  0  0  0  0  0
   59.6651   -5.9891   -8.0810 N   0  0  0  0  0  0  0  0  0  0  0  0
   59.5776   -6.2185   -7.0541 H   0  0  0  0  0  0  0  0  0  0  0  0
   61.9446   -7.1157   -8.2541 C   0  0  0  0  0  0  0  0  0  0  0  0
   61.8859   -9.6264   -8.1160 C   0  0  0  0  0  0  0  0  0  0  0  0
   61.7770   -9.4856   -6.8535 O   0  0  0  0  0  0  0  0  0  0  0  0
   61.9729   -8.4609   -8.8833 N   0  0  0  0  0  0  0  0  0  0  0  0
   62.0582   -8.4638   -9.9160 H   0  0  0  0  0  0  0  0  0  0  0  0
   61.9215  -13.6183   -9.5908 C   0  0  0  0  0  0  0  0  0  0  0  0
   61.5476  -13.3322   -8.2934 C   0  0  0  0  0  0  0  0  0  0  0  0
   61.5433  -12.0234   -7.8212 C   0  0  0  0  0  0  0  0  0  0  0  0
   61.9097  -10.9684   -8.6248 C   0  0  0  0  0  0  0  0  0  0  0  0
   62.2845  -11.2604   -9.9249 C   0  0  0  0  0  0  0  0  0  0  0  0
   62.2939  -12.5532  -10.4072 C   0  0  0  0  0  0  0  0  0  0  0  0
   61.7089  -16.3318   -8.8832 N   0  0  0  0  0  0  0  0  0  0  0  0
   61.9161  -15.2538  -10.2104 S   0  0  0  0  0  0  0  0  0  0  0  0
   63.1882  -15.5481  -10.9601 O   0  0  0  0  0  0  0  0  0  0  0  0
   60.7173  -15.3694  -11.1195 O   0  0  0  0  0  0  0  0  0  0  0  0
   61.1386  -15.8480   -8.1537 H   0  0  0  0  0  0  0  0  0  0  0  0
   61.1233  -17.1292   -9.2403 H   0  0  0  0  0  0  0  0  0  0  0  0
   63.3244   -6.5864   -8.4560 C   0  0  0  0  0  0  0  0  0  0  0  0
   63.9427   -5.8572   -7.3451 C   0  0  0  0  0  0  0  0  0  0  0  0
   63.9998   -6.4756   -6.1141 C   0  0  0  0  0  0  0  0  0  0  0  0
   64.6280   -5.8242   -5.0805 C   0  0  0  0  0  0  0  0  0  0  0  0
   65.2048   -4.5837   -5.2098 C   0  0  0  0  0  0  0  0  0  0  0  0
   65.1465   -3.9656   -6.4456 C   0  0  0  0  0  0  0  0  0  0  0  0
   64.5195   -4.6110   -7.4819 C   0  0  0  0  0  0  0  0  0  0  0  0
   58.1697   -5.9957   -9.9378 C   0  0  0  0  0  0  0  0  0  0  0  0
   57.6573   -5.0515  -10.9545 C   0  0  0  0  0  0  0  0  0  0  0  0
   58.5076   -4.5648  -11.9115 C   0  0  0  0  0  0  0  0  0  0  0  0
   58.0153   -3.6929  -12.8549 C   0  0  0  0  0  0  0  0  0  0  0  0
   56.6650   -3.3255  -12.8155 C   0  0  0  0  0  0  0  0  0  0  0  0
   55.8167   -3.8177  -11.8526 C   0  0  0  0  0  0  0  0  0  0  0  0
   56.3129   -4.6935  -10.9049 C   0  0  0  0  0  0  0  0  0  0  0  0
 57 58  1  0  0  0
 58 59  2  0  0  0
 58 60  2  0  0  0
 58 51  1  0  0  0
 51 52  2  0  0  0
 52 53  1  0  0  0
 53 54  2  0  0  0
 54 55  1  0  0  0
 55 56  2  0  0  0
 54 47  1  0  0  0
 47 48  2  0  0  0
 47 49  1  0  0  0
 49 46  1  0  0  0
 46 63  1  0  0  0
 63 64  1  0  0  0
 64 65  2  0  0  0
 65 66  1  0  0  0
 66 67  2  0  0  0
 67 68  1  0  0  0
 68 69  2  0  0  0
 46 42  1  0  0  0
 42 43  2  0  0  0
 42 44  1  0  0  0
 44 41  1  0  0  0
 41 70  1  0  0  0
 70 71  1  0  0  0
 71 72  2  0  0  0
 72 73  1  0  0  0
 73 74  2  0  0  0
 74 75  1  0  0  0
 75 76  2  0  0  0
 41  1  1  0  0  0
  1  2  2  0  0  0
  1  3  1  0  0  0
  3  5  1  0  0  0
  5 34  1  0  0  0
 34 35  1  0  0  0
 35 36  2  0  0  0
 36 37  1  0  0  0
 37 38  2  0  0  0
 38 39  1  0  0  0
 39 40  2  0  0  0
  5  6  1  0  0  0
  6  7  2  0  0  0
  6  8  1  0  0  0
  8 10  1  0  0  0
 10 27  1  0  0  0
 27 28  1  0  0  0
 28 29  2  0  0  0
 29 30  1  0  0  0
 30 31  2  0  0  0
 31 32  1  0  0  0
 32 33  2  0  0  0
 10 11  1  0  0  0
 11 12  2  0  0  0
 11 13  1  0  0  0
 13 15  1  0  0  0
 15 20  1  0  0  0
 20 21  1  0  0  0
 21 22  2  0  0  0
 22 23  1  0  0  0
 23 24  2  0  0  0
 24 25  1  0  0  0
 25 26  2  0  0  0
 15 16  1  0  0  0
 16 17  1  0  0  0
 16 18  2  0  0  0
 56 51  1  0  0  0
 69 64  1  0  0  0
 76 71  1  0  0  0
 40 35  1  0  0  0
 33 28  1  0  0  0
 26 21  1  0  0  0
 57 61  1  0  0  0
 57 62  1  0  0  0
 49 50  1  0  0  0
 44 45  1  0  0  0
  3  4  1  0  0  0
  8  9  1  0  0  0
 13 14  1  0  0  0
 17 19  1  0  0  0
M  END
> <minimizedAffinity>
-9.14021

> <CNNscore>
0.1871153861

> <CNNaffinity>
7.3227562904

> <CNN_VS>
1.3702003956

> <CNNaffinity_variance>
1.1130250692

$$$$
[H]OC(=O)[C@@]([H])(N([H])C(=O)[C@@]([H])(N([H])C(=O)[C@@]([H])(N([H])C(=O)[C@@]([H])(N([H])C(=O)[C@@]([H])(N([H])C(=O)c1c([H])c([H])c(S(=O)(=O)N([H])[H])c([H])c1[H])C([H])([H])c1c([H])c([H])c([H])c([H])c1[H])C([H])([H])c1c([H])c([H])c([H])c([H])c1[H])C([H])([H])c1c([H])c([H])c([H])c([H])c1[H])C([H])([H])c1c([H])c([H])c([H])c([H])c1[H])C([H])([H])c1c([H])c([H])c([H])c([H])c1[H]


 76 81  0  0  0  0  0  0  0  0999 V2000
   57.2742   -4.8561   -7.7670 C   0  0  0  0  0  0  0  0  0  0  0  0
   56.9923   -3.6737   -7.4451 O   0  0  0  0  0  0  0  0  0  0  0  0
   56.4624   -5.8644   -7.1995 N   0  0  0  0  0  0  0  0  0  0  0  0
   56.6797   -6.8573   -7.4314 H   0  0  0  0  0  0  0  0  0  0  0  0
   55.3458   -5.6217   -6.3150 C   0  0  0  0  0  0  0  0  0  0  0  0
   55.5829   -6.0440   -4.9158 C   0  0  0  0  0  0  0  0  0  0  0  0
   55.9698   -7.2262   -4.7310 O   0  0  0  0  0  0  0  0  0  0  0  0
   55.4112   -5.2171   -3.8004 N   0  0  0  0  0  0  0  0  0  0  0  0
   55.0557   -4.2438   -3.9953 H   0  0  0  0  0  0  0  0  0  0  0  0
   55.6564   -5.5379   -2.4229 C   0  0  0  0  0  0  0  0  0  0  0  0
   57.0599   -5.7742   -2.0434 C   0  0  0  0  0  0  0  0  0  0  0  0
   57.6713   -4.8014   -1.5095 O   0  0  0  0  0  0  0  0  0  0  0  0
   57.7340   -6.9880   -2.2299 N   0  0  0  0  0  0  0  0  0  0  0  0
   57.2753   -7.7911   -2.6729 H   0  0  0  0  0  0  0  0  0  0  0  0
   59.1418   -7.0937   -1.7716 C   0  0  0  0  0  0  0  0  0  0  0  0
   60.0231   -7.2683   -2.9329 C   0  0  0  0  0  0  0  0  0  0  0  0
   61.3953   -7.2669   -2.8086 O   0  0  0  0  0  0  0  0  0  0  0  0
   59.5352   -7.4189   -4.0729 O   0  0  0  0  0  0  0  0  0  0  0  0
   61.9366   -6.4144   -2.6032 H   0  0  0  0  0  0  0  0  0  0  0  0
   59.1422   -8.3479   -0.8855 C   0  0  0  0  0  0  0  0  0  0  0  0
   58.3524   -8.1542    0.3212 C   0  0  0  0  0  0  0  0  0  0  0  0
   58.6195   -7.0281    1.0914 C   0  0  0  0  0  0  0  0  0  0  0  0
   57.8854   -6.7951    2.2186 C   0  0  0  0  0  0  0  0  0  0  0  0
   56.8833   -7.6674    2.5972 C   0  0  0  0  0  0  0  0  0  0  0  0
   56.5983   -8.7777    1.8642 C   0  0  0  0  0  0  0  0  0  0  0  0
   57.3551   -9.0042    0.7146 C   0  0  0  0  0  0  0  0  0  0  0  0
   54.7879   -6.6519   -1.9256 C   0  0  0  0  0  0  0  0  0  0  0  0
   54.3549   -6.5405   -0.5316 C   0  0  0  0  0  0  0  0  0  0  0  0
   53.6370   -7.5174    0.0873 C   0  0  0  0  0  0  0  0  0  0  0  0
   53.2020   -7.4236    1.4198 C   0  0  0  0  0  0  0  0  0  0  0  0
   53.5188   -6.2840    2.1377 C   0  0  0  0  0  0  0  0  0  0  0  0
   54.2494   -5.3042    1.4896 C   0  0  0  0  0  0  0  0  0  0  0  0
   54.6758   -5.3966    0.1831 C   0  0  0  0  0  0  0  0  0  0  0  0
   54.0371   -5.8862   -6.9069 C   0  0  0  0  0  0  0  0  0  0  0  0
   53.2147   -4.7824   -7.3612 C   0  0  0  0  0  0  0  0  0  0  0  0
   51.9937   -4.5609   -6.7056 C   0  0  0  0  0  0  0  0  0  0  0  0
   51.1454   -3.5574   -7.0629 C   0  0  0  0  0  0  0  0  0  0  0  0
   51.4491   -2.7069   -8.0936 C   0  0  0  0  0  0  0  0  0  0  0  0
   52.6543   -2.8930   -8.7733 C   0  0  0  0  0  0  0  0  0  0  0  0
   53.4746   -3.9064   -8.3860 C   0  0  0  0  0  0  0  0  0  0  0  0
   58.3968   -5.0854   -8.6834 C   0  0  0  0  0  0  0  0  0  0  0  0
   60.6801   -6.1820   -8.8583 C   0  0  0  0  0  0  0  0  0  0  0  0
   60.6034   -6.0325  -10.1184 O   0  0  0  0  0  0  0  0  0  0  0  0
   59.5640   -5.6983   -8.1003 N   0  0  0  0  0  0  0  0  0  0  0  0
   59.5533   -5.7885   -7.0484 H   0  0  0  0  0  0  0  0  0  0  0  0
   61.8464   -6.8171   -8.2859 C   0  0  0  0  0  0  0  0  0  0  0  0
   61.7516   -8.6293   -6.5443 C   0  0  0  0  0  0  0  0  0  0  0  0
   62.3832   -7.8300   -5.7775 O   0  0  0  0  0  0  0  0  0  0  0  0
   61.4470   -8.1732   -7.8304 N   0  0  0  0  0  0  0  0  0  0  0  0
   60.9330   -8.7402   -8.5289 H   0  0  0  0  0  0  0  0  0  0  0  0
   60.7679  -12.4748   -5.0097 C   0  0  0  0  0  0  0  0  0  0  0  0
   60.6266  -12.1754   -6.3496 C   0  0  0  0  0  0  0  0  0  0  0  0
   60.9481  -10.9133   -6.8393 C   0  0  0  0  0  0  0  0  0  0  0  0
   61.4169   -9.9194   -6.0114 C   0  0  0  0  0  0  0  0  0  0  0  0
   61.5563  -10.2242   -4.6685 C   0  0  0  0  0  0  0  0  0  0  0  0
   61.2414  -11.4712   -4.1683 C   0  0  0  0  0  0  0  0  0  0  0  0
   60.6588  -14.0396   -2.6755 N   0  0  0  0  0  0  0  0  0  0  0  0
   60.3877  -14.0600   -4.3762 S   0  0  0  0  0  0  0  0  0  0  0  0
   61.2179  -15.1205   -5.0494 O   0  0  0  0  0  0  0  0  0  0  0  0
   58.9175  -14.2873   -4.6292 O   0  0  0  0  0  0  0  0  0  0  0  0
   60.4733  -13.0729   -2.3254 H   0  0  0  0  0  0  0  0  0  0  0  0
   59.9205  -14.6577   -2.2522 H   0  0  0  0  0  0  0  0  0  0  0  0
   63.0352   -7.0563   -9.1544 C   0  0  0  0  0  0  0  0  0  0  0  0
   64.2157   -6.2148   -8.9388 C   0  0  0  0  0  0  0  0  0  0  0  0
   64.2636   -5.4433   -7.7970 C   0  0  0  0  0  0  0  0  0  0  0  0
   65.3902   -4.6948   -7.5571 C   0  0  0  0  0  0  0  0  0  0  0  0
   66.4763   -4.6748   -8.3986 C   0  0  0  0  0  0  0  0  0  0  0  0
   66.4260   -5.4496   -9.5431 C   0  0  0  0  0  0  0  0  0  0  0  0
   65.3029   -6.1989   -9.7887 C   0  0  0  0  0  0  0  0  0  0  0  0
   58.0448   -5.8702   -9.9297 C   0  0  0  0  0  0  0  0  0  0  0  0
   57.4772   -4.9965  -10.9796 C   0  0  0  0  0  0  0  0  0  0  0  0
   56.1548   -4.6447  -10.9213 C   0  0  0  0  0  0  0  0  0  0  0  0
   55.6424   -3.8259  -11.9009 C   0  0  0  0  0  0  0  0  0  0  0  0
   56.4791   -3.3736  -12.9282 C   0  0  0  0  0  0  0  0  0  0  0  0
   57.8054   -3.7301  -12.9808 C   0  0  0  0  0  0  0  0  0  0  0  0
   58.3189   -4.5534  -11.9960 C   0  0  0  0  0  0  0  0  0  0  0  0
 57 58  1  0  0  0
 58 59  2  0  0  0
 58 60  2  0  0  0
 58 51  1  0  0  0
 51 52  2  0  0  0
 52 53  1  0  0  0
 53 54  2  0  0  0
 54 55  1  0  0  0
 55 56  2  0  0  0
 54 47  1  0  0  0
 47 48  2  0  0  0
 47 49  1  0  0  0
 49 46  1  0  0  0
 46 63  1  0  0  0
 63 64  1  0  0  0
 64 65  2  0  0  0
 65 66  1  0  0  0
 66 67  2  0  0  0
 67 68  1  0  0  0
 68 69  2  0  0  0
 46 42  1  0  0  0
 42 43  2  0  0  0
 42 44  1  0  0  0
 44 41  1  0  0  0
 41 70  1  0  0  0
 70 71  1  0  0  0
 71 72  2  0  0  0
 72 73  1  0  0  0
 73 74  2  0  0  0
 74 75  1  0  0  0
 75 76  2  0  0  0
 41  1  1  0  0  0
  1  2  2  0  0  0
  1  3  1  0  0  0
  3  5  1  0  0  0
  5 34  1  0  0  0
 34 35  1  0  0  0
 35 36  2  0  0  0
 36 37  1  0  0  0
 37 38  2  0  0  0
 38 39  1  0  0  0
 39 40  2  0  0  0
  5  6  1  0  0  0
  6  7  2  0  0  0
  6  8  1  0  0  0
  8 10  1  0  0  0
 10 27  1  0  0  0
 27 28  1  0  0  0
 28 29  2  0  0  0
 29 30  1  0  0  0
 30 31  2  0  0  0
 31 32  1  0  0  0
 32 33  2  0  0  0
 10 11  1  0  0  0
 11 12  2  0  0  0
 11 13  1  0  0  0
 13 15  1  0  0  0
 15 20  1  0  0  0
 20 21  1  0  0  0
 21 22  2  0  0  0
 22 23  1  0  0  0
 23 24  2  0  0  0
 24 25  1  0  0  0
 25 26  2  0  0  0
 15 16  1  0  0  0
 16 17  1  0  0  0
 16 18  2  0  0  0
 56 51  1  0  0  0
 69 64  1  0  0  0
 76 71  1  0  0  0
 40 35  1  0  0  0
 33 28  1  0  0  0
 26 21  1  0  0  0
 57 61  1  0  0  0
 57 62  1  0  0  0
 49 50  1  0  0  0
 44 45  1  0  0  0
  3  4  1  0  0  0
  8  9  1  0  0  0
 13 14  1  0  0  0
 17 19  1  0  0  0
M  END
> <minimizedAffinity>
-8.29660

> <CNNscore>
0.1367284805

> <CNNaffinity>
7.4411926270

> <CNN_VS>
1.0174229145

> <CNNaffinity_variance>
0.8720418215

$$$$
[H]OC(=O)[C@@]([H])(N([H])C(=O)[C@@]([H])(N([H])C(=O)[C@@]([H])(N([H])C(=O)[C@@]([H])(N([H])C(=O)[C@@]([H])(N([H])C(=O)c1c([H])c([H])c(S(=O)(=O)N([H])[H])c([H])c1[H])C([H])([H])c1c([H])c([H])c([H])c([H])c1[H])C([H])([H])c1c([H])c([H])c([H])c([H])c1[H])C([H])([H])c1c([H])c([H])c([H])c([H])c1[H])C([H])([H])c1c([H])c([H])c([H])c([H])c1[H])C([H])([H])c1c([H])c([H])c([H])c([H])c1[H]


 76 81  0  0  0  0  0  0  0  0999 V2000
   59.2525   -5.7048   -9.3017 C   0  0  0  0  0  0  0  0  0  0  0  0
   58.9254   -4.9900  -10.2831 O   0  0  0  0  0  0  0  0  0  0  0  0
   58.4496   -5.5770   -8.1454 N   0  0  0  0  0  0  0  0  0  0  0  0
   58.7036   -6.1424   -7.3072 H   0  0  0  0  0  0  0  0  0  0  0  0
   57.2951   -4.7150   -8.0360 C   0  0  0  0  0  0  0  0  0  0  0  0
   56.5782   -4.8294   -6.7456 C   0  0  0  0  0  0  0  0  0  0  0  0
   56.5611   -3.8120   -6.0065 O   0  0  0  0  0  0  0  0  0  0  0  0
   55.9210   -5.9835   -6.3056 N   0  0  0  0  0  0  0  0  0  0  0  0
   55.9855   -6.8237   -6.9394 H   0  0  0  0  0  0  0  0  0  0  0  0
   55.1745   -6.1610   -5.0925 C   0  0  0  0  0  0  0  0  0  0  0  0
   55.8916   -6.7802   -3.9646 C   0  0  0  0  0  0  0  0  0  0  0  0
   55.3890   -7.8427   -3.4918 O   0  0  0  0  0  0  0  0  0  0  0  0
   57.0727   -6.2737   -3.4071 N   0  0  0  0  0  0  0  0  0  0  0  0
   57.4987   -5.4079   -3.7542 H   0  0  0  0  0  0  0  0  0  0  0  0
   57.7049   -7.0192   -2.2902 C   0  0  0  0  0  0  0  0  0  0  0  0
   57.6056   -6.2298   -1.0562 C   0  0  0  0  0  0  0  0  0  0  0  0
   58.2437   -5.0165   -0.9183 O   0  0  0  0  0  0  0  0  0  0  0  0
   56.9334   -6.6545   -0.0929 O   0  0  0  0  0  0  0  0  0  0  0  0
   59.2658   -4.9312   -0.8179 H   0  0  0  0  0  0  0  0  0  0  0  0
   59.1676   -7.1672   -2.7340 C   0  0  0  0  0  0  0  0  0  0  0  0
   59.7677   -8.3854   -2.2113 C   0  0  0  0  0  0  0  0  0  0  0  0
   61.1199   -8.3503   -1.8902 C   0  0  0  0  0  0  0  0  0  0  0  0
   61.7173   -9.4639   -1.3740 C   0  0  0  0  0  0  0  0  0  0  0  0
   60.9901  -10.6206   -1.1695 C   0  0  0  0  0  0  0  0  0  0  0  0
   59.6655  -10.6858   -1.4738 C   0  0  0  0  0  0  0  0  0  0  0  0
   59.0668   -9.5413   -2.0001 C   0  0  0  0  0  0  0  0  0  0  0  0
   53.8632   -6.8487   -5.3163 C   0  0  0  0  0  0  0  0  0  0  0  0
   52.6922   -5.9719   -5.3729 C   0  0  0  0  0  0  0  0  0  0  0  0
   51.7623   -5.9354   -4.3795 C   0  0  0  0  0  0  0  0  0  0  0  0
   50.6261   -5.1103   -4.4211 C   0  0  0  0  0  0  0  0  0  0  0  0
   50.4437   -4.2953   -5.5243 C   0  0  0  0  0  0  0  0  0  0  0  0
   51.4009   -4.3478   -6.5216 C   0  0  0  0  0  0  0  0  0  0  0  0
   52.5150   -5.1569   -6.4804 C   0  0  0  0  0  0  0  0  0  0  0  0
   56.5063   -4.6027   -9.2600 C   0  0  0  0  0  0  0  0  0  0  0  0
   55.2447   -3.8893   -9.2420 C   0  0  0  0  0  0  0  0  0  0  0  0
   54.1449   -4.4853   -9.8783 C   0  0  0  0  0  0  0  0  0  0  0  0
   52.9200   -3.8922   -9.9258 C   0  0  0  0  0  0  0  0  0  0  0  0
   52.7027   -2.6692   -9.3473 C   0  0  0  0  0  0  0  0  0  0  0  0
   53.7710   -2.0408   -8.7043 C   0  0  0  0  0  0  0  0  0  0  0  0
   54.9785   -2.6660   -8.6782 C   0  0  0  0  0  0  0  0  0  0  0  0
   60.4138   -6.5915   -9.4353 C   0  0  0  0  0  0  0  0  0  0  0  0
   62.5898   -6.4027   -8.1406 C   0  0  0  0  0  0  0  0  0  0  0  0
   63.1092   -5.8881   -9.1806 O   0  0  0  0  0  0  0  0  0  0  0  0
   61.2071   -6.7656   -8.2443 N   0  0  0  0  0  0  0  0  0  0  0  0
   60.7059   -7.2005   -7.4231 H   0  0  0  0  0  0  0  0  0  0  0  0
   63.4005   -6.5919   -6.9582 C   0  0  0  0  0  0  0  0  0  0  0  0
   62.2706   -8.4325   -5.6693 C   0  0  0  0  0  0  0  0  0  0  0  0
   61.4620   -7.5436   -5.2429 O   0  0  0  0  0  0  0  0  0  0  0  0
   63.2762   -8.0133   -6.5454 N   0  0  0  0  0  0  0  0  0  0  0  0
   63.9800   -8.6549   -6.9536 H   0  0  0  0  0  0  0  0  0  0  0  0
   61.7119  -12.4107   -4.2647 C   0  0  0  0  0  0  0  0  0  0  0  0
   62.9427  -11.7895   -4.2003 C   0  0  0  0  0  0  0  0  0  0  0  0
   63.1142  -10.4896   -4.6660 C   0  0  0  0  0  0  0  0  0  0  0  0
   62.0691   -9.7762   -5.2062 C   0  0  0  0  0  0  0  0  0  0  0  0
   60.8369  -10.4036   -5.2691 C   0  0  0  0  0  0  0  0  0  0  0  0
   60.6517  -11.6922   -4.8115 C   0  0  0  0  0  0  0  0  0  0  0  0
   62.9196  -14.9286   -3.9317 N   0  0  0  0  0  0  0  0  0  0  0  0
   61.4699  -14.0368   -3.6680 S   0  0  0  0  0  0  0  0  0  0  0  0
   60.2955  -14.6890   -4.3481 O   0  0  0  0  0  0  0  0  0  0  0  0
   61.2352  -13.9232   -2.1817 O   0  0  0  0  0  0  0  0  0  0  0  0
   63.7261  -14.2666   -3.8789 H   0  0  0  0  0  0  0  0  0  0  0  0
   63.0157  -15.5829   -3.1138 H   0  0  0  0  0  0  0  0  0  0  0  0
   64.8716   -6.3630   -7.0497 C   0  0  0  0  0  0  0  0  0  0  0  0
   65.3674   -5.0095   -6.7841 C   0  0  0  0  0  0  0  0  0  0  0  0
   66.0294   -4.3497   -7.7977 C   0  0  0  0  0  0  0  0  0  0  0  0
   66.4477   -3.0598   -7.5781 C   0  0  0  0  0  0  0  0  0  0  0  0
   66.2399   -2.3900   -6.3964 C   0  0  0  0  0  0  0  0  0  0  0  0
   65.5754   -3.0537   -5.3813 C   0  0  0  0  0  0  0  0  0  0  0  0
   65.1558   -4.3428   -5.5944 C   0  0  0  0  0  0  0  0  0  0  0  0
   60.0975   -7.9696   -9.9772 C   0  0  0  0  0  0  0  0  0  0  0  0
   61.2768   -8.8604   -9.9183 C   0  0  0  0  0  0  0  0  0  0  0  0
   61.3561   -9.8092   -8.9338 C   0  0  0  0  0  0  0  0  0  0  0  0
   62.4556  -10.6352   -8.8956 C   0  0  0  0  0  0  0  0  0  0  0  0
   63.4616  -10.4882   -9.8580 C   0  0  0  0  0  0  0  0  0  0  0  0
   63.3759   -9.5342  -10.8437 C   0  0  0  0  0  0  0  0  0  0  0  0
   62.2706   -8.7045  -10.8805 C   0  0  0  0  0  0  0  0  0  0  0  0
 57 58  1  0  0  0
 58 59  2  0  0  0
 58 60  2  0  0  0
 58 51  1  0  0  0
 51 52  2  0  0  0
 52 53  1  0  0  0
 53 54  2  0  0  0
 54 55  1  0  0  0
 55 56  2  0  0  0
 54 47  1  0  0  0
 47 48  2  0  0  0
 47 49  1  0  0  0
 49 46  1  0  0  0
 46 63  1  0  0  0
 63 64  1  0  0  0
 64 65  2  0  0  0
 65 66  1  0  0  0
 66 67  2  0  0  0
 67 68  1  0  0  0
 68 69  2  0  0  0
 46 42  1  0  0  0
 42 43  2  0  0  0
 42 44  1  0  0  0
 44 41  1  0  0  0
 41 70  1  0  0  0
 70 71  1  0  0  0
 71 72  2  0  0  0
 72 73  1  0  0  0
 73 74  2  0  0  0
 74 75  1  0  0  0
 75 76  2  0  0  0
 41  1  1  0  0  0
  1  2  2  0  0  0
  1  3  1  0  0  0
  3  5  1  0  0  0
  5 34  1  0  0  0
 34 35  1  0  0  0
 35 36  2  0  0  0
 36 37  1  0  0  0
 37 38  2  0  0  0
 38 39  1  0  0  0
 39 40  2  0  0  0
  5  6  1  0  0  0
  6  7  2  0  0  0
  6  8  1  0  0  0
  8 10  1  0  0  0
 10 27  1  0  0  0
 27 28  1  0  0  0
 28 29  2  0  0  0
 29 30  1  0  0  0
 30 31  2  0  0  0
 31 32  1  0  0  0
 32 33  2  0  0  0
 10 11  1  0  0  0
 11 12  2  0  0  0
 11 13  1  0  0  0
 13 15  1  0  0  0
 15 20  1  0  0  0
 20 21  1  0  0  0
 21 22  2  0  0  0
 22 23  1  0  0  0
 23 24  2  0  0  0
 24 25  1  0  0  0
 25 26  2  0  0  0
 15 16  1  0  0  0
 16 17  1  0  0  0
 16 18  2  0  0  0
 56 51  1  0  0  0
 69 64  1  0  0  0
 76 71  1  0  0  0
 40 35  1  0  0  0
 33 28  1  0  0  0
 26 21  1  0  0  0
 57 61  1  0  0  0
 57 62  1  0  0  0
 49 50  1  0  0  0
 44 45  1  0  0  0
  3  4  1  0  0  0
  8  9  1  0  0  0
 13 14  1  0  0  0
 17 19  1  0  0  0
M  END
> <minimizedAffinity>
-7.56872

> <CNNscore>
0.1178756207

> <CNNaffinity>
7.6269979477

> <CNN_VS>
0.8990371227

> <CNNaffinity_variance>
0.4237705171

$$$$
[H]OC(=O)[C@@]([H])(N([H])C(=O)[C@@]([H])(N([H])C(=O)[C@@]([H])(N([H])C(=O)[C@@]([H])(N([H])C(=O)[C@@]([H])(N([H])C(=O)c1c([H])c([H])c(S(=O)(=O)N([H])[H])c([H])c1[H])C([H])([H])c1c([H])c([H])c([H])c([H])c1[H])C([H])([H])c1c([H])c([H])c([H])c([H])c1[H])C([H])([H])c1c([H])c([H])c([H])c([H])c1[H])C([H])([H])c1c([H])c([H])c([H])c([H])c1[H])C([H])([H])c1c([H])c([H])c([H])c([H])c1[H]


 76 81  0  0  0  0  0  0  0  0999 V2000
   55.6347   -5.9881   -5.4427 C   0  0  0  0  0  0  0  0  0  0  0  0
   55.3789   -7.2123   -5.3125 O   0  0  0  0  0  0  0  0  0  0  0  0
   55.7310   -5.2432   -4.2453 N   0  0  0  0  0  0  0  0  0  0  0  0
   55.9247   -4.2214   -4.3178 H   0  0  0  0  0  0  0  0  0  0  0  0
   55.5795   -5.7945   -2.9183 C   0  0  0  0  0  0  0  0  0  0  0  0
   54.1926   -5.7488   -2.4017 C   0  0  0  0  0  0  0  0  0  0  0  0
   54.0273   -5.2934   -1.2412 O   0  0  0  0  0  0  0  0  0  0  0  0
   53.0674   -6.1700   -3.1187 N   0  0  0  0  0  0  0  0  0  0  0  0
   53.2517   -6.5743   -4.0749 H   0  0  0  0  0  0  0  0  0  0  0  0
   51.6937   -6.1217   -2.7054 C   0  0  0  0  0  0  0  0  0  0  0  0
   51.3178   -6.9855   -1.5731 C   0  0  0  0  0  0  0  0  0  0  0  0
   50.1145   -6.9126   -1.1831 O   0  0  0  0  0  0  0  0  0  0  0  0
   52.1953   -7.8657   -0.9269 N   0  0  0  0  0  0  0  0  0  0  0  0
   53.1795   -7.9392   -1.2056 H   0  0  0  0  0  0  0  0  0  0  0  0
   51.6714   -8.6997    0.1835 C   0  0  0  0  0  0  0  0  0  0  0  0
   52.7796   -9.1030    1.0582 C   0  0  0  0  0  0  0  0  0  0  0  0
   54.0250   -9.4109    0.5556 O   0  0  0  0  0  0  0  0  0  0  0  0
   52.6075   -9.1795    2.2930 O   0  0  0  0  0  0  0  0  0  0  0  0
   54.2145  -10.2715    0.0213 H   0  0  0  0  0  0  0  0  0  0  0  0
   51.0625   -9.9150   -0.5310 C   0  0  0  0  0  0  0  0  0  0  0  0
   49.7561  -10.2583    0.0103 C   0  0  0  0  0  0  0  0  0  0  0  0
   49.7196  -10.9278    1.2281 C   0  0  0  0  0  0  0  0  0  0  0  0
   48.5143  -11.2474    1.7837 C   0  0  0  0  0  0  0  0  0  0  0  0
   47.3356  -10.9113    1.1462 C   0  0  0  0  0  0  0  0  0  0  0  0
   47.3388  -10.2561   -0.0462 C   0  0  0  0  0  0  0  0  0  0  0  0
   48.5766   -9.9349   -0.6031 C   0  0  0  0  0  0  0  0  0  0  0  0
   50.7405   -6.3123   -3.8446 C   0  0  0  0  0  0  0  0  0  0  0  0
   50.1772   -5.0843   -4.4084 C   0  0  0  0  0  0  0  0  0  0  0  0
   50.5950   -4.5719   -5.5983 C   0  0  0  0  0  0  0  0  0  0  0  0
   50.0758   -3.3888   -6.1496 C   0  0  0  0  0  0  0  0  0  0  0  0
   49.0923   -2.7121   -5.4502 C   0  0  0  0  0  0  0  0  0  0  0  0
   48.6822   -3.2506   -4.2437 C   0  0  0  0  0  0  0  0  0  0  0  0
   49.1915   -4.4109   -3.7034 C   0  0  0  0  0  0  0  0  0  0  0  0
   56.6715   -5.4749   -2.0026 C   0  0  0  0  0  0  0  0  0  0  0  0
   57.8820   -6.2719   -2.0178 C   0  0  0  0  0  0  0  0  0  0  0  0
   58.7482   -6.1705   -0.9183 C   0  0  0  0  0  0  0  0  0  0  0  0
   59.9143   -6.8695   -0.8412 C   0  0  0  0  0  0  0  0  0  0  0  0
   60.3010   -7.7147   -1.8481 C   0  0  0  0  0  0  0  0  0  0  0  0
   59.4682   -7.8442   -2.9613 C   0  0  0  0  0  0  0  0  0  0  0  0
   58.3118   -7.1295   -3.0003 C   0  0  0  0  0  0  0  0  0  0  0  0
   55.8078   -5.4472   -6.7955 C   0  0  0  0  0  0  0  0  0  0  0  0
   58.0523   -4.9929   -7.8922 C   0  0  0  0  0  0  0  0  0  0  0  0
   57.9011   -3.7683   -7.5859 O   0  0  0  0  0  0  0  0  0  0  0  0
   56.9955   -5.8745   -7.4918 N   0  0  0  0  0  0  0  0  0  0  0  0
   57.0479   -6.9057   -7.7121 H   0  0  0  0  0  0  0  0  0  0  0  0
   59.2379   -5.4069   -8.6091 C   0  0  0  0  0  0  0  0  0  0  0  0
   61.1679   -6.8797   -7.9518 C   0  0  0  0  0  0  0  0  0  0  0  0
   61.9120   -6.0816   -8.6114 O   0  0  0  0  0  0  0  0  0  0  0  0
   59.8006   -6.5907   -7.9104 N   0  0  0  0  0  0  0  0  0  0  0  0
   59.1110   -7.1707   -7.3989 H   0  0  0  0  0  0  0  0  0  0  0  0
   63.0278  -10.1947   -6.0381 C   0  0  0  0  0  0  0  0  0  0  0  0
   62.1991   -9.3347   -5.3463 C   0  0  0  0  0  0  0  0  0  0  0  0
   61.5993   -8.2520   -5.9819 C   0  0  0  0  0  0  0  0  0  0  0  0
   61.8077   -7.9974   -7.3179 C   0  0  0  0  0  0  0  0  0  0  0  0
   62.6400   -8.8623   -8.0072 C   0  0  0  0  0  0  0  0  0  0  0  0
   63.2419   -9.9400   -7.3904 C   0  0  0  0  0  0  0  0  0  0  0  0
   64.0640  -11.1720   -3.6131 N   0  0  0  0  0  0  0  0  0  0  0  0
   63.7768  -11.5723   -5.2635 S   0  0  0  0  0  0  0  0  0  0  0  0
   65.0541  -11.9532   -5.9638 O   0  0  0  0  0  0  0  0  0  0  0  0
   62.7755  -12.6998   -5.3208 O   0  0  0  0  0  0  0  0  0  0  0  0
   63.3254  -10.5002   -3.3053 H   0  0  0  0  0  0  0  0  0  0  0  0
   63.9111  -12.0564   -3.0647 H   0  0  0  0  0  0  0  0  0  0  0  0
   59.1045   -5.8466  -10.0282 C   0  0  0  0  0  0  0  0  0  0  0  0
   58.2618   -5.0387  -10.9144 C   0  0  0  0  0  0  0  0  0  0  0  0
   58.8515   -4.4508  -12.0133 C   0  0  0  0  0  0  0  0  0  0  0  0
   58.0596   -3.7390  -12.8813 C   0  0  0  0  0  0  0  0  0  0  0  0
   56.7052   -3.5818  -12.7111 C   0  0  0  0  0  0  0  0  0  0  0  0
   56.1159   -4.1727  -11.6082 C   0  0  0  0  0  0  0  0  0  0  0  0
   56.9019   -4.8844  -10.7370 C   0  0  0  0  0  0  0  0  0  0  0  0
   54.6311   -5.6728   -7.7214 C   0  0  0  0  0  0  0  0  0  0  0  0
   54.0253   -4.3938   -8.1514 C   0  0  0  0  0  0  0  0  0  0  0  0
   54.7972   -3.2633   -8.1948 C   0  0  0  0  0  0  0  0  0  0  0  0
   54.2218   -2.0824   -8.6033 C   0  0  0  0  0  0  0  0  0  0  0  0
   52.8690   -2.0634   -8.9635 C   0  0  0  0  0  0  0  0  0  0  0  0
   52.0999   -3.2014   -8.9181 C   0  0  0  0  0  0  0  0  0  0  0  0
   52.6793   -4.3874   -8.5068 C   0  0  0  0  0  0  0  0  0  0  0  0
 57 58  1  0  0  0
 58 59  2  0  0  0
 58 60  2  0  0  0
 58 51  1  0  0  0
 51 52  2  0  0  0
 52 53  1  0  0  0
 53 54  2  0  0  0
 54 55  1  0  0  0
 55 56  2  0  0  0
 54 47  1  0  0  0
 47 48  2  0  0  0
 47 49  1  0  0  0
 49 46  1  0  0  0
 46 63  1  0  0  0
 63 64  1  0  0  0
 64 65  2  0  0  0
 65 66  1  0  0  0
 66 67  2  0  0  0
 67 68  1  0  0  0
 68 69  2  0  0  0
 46 42  1  0  0  0
 42 43  2  0  0  0
 42 44  1  0  0  0
 44 41  1  0  0  0
 41 70  1  0  0  0
 70 71  1  0  0  0
 71 72  2  0  0  0
 72 73  1  0  0  0
 73 74  2  0  0  0
 74 75  1  0  0  0
 75 76  2  0  0  0
 41  1  1  0  0  0
  1  2  2  0  0  0
  1  3  1  0  0  0
  3  5  1  0  0  0
  5 34  1  0  0  0
 34 35  1  0  0  0
 35 36  2  0  0  0
 36 37  1  0  0  0
 37 38  2  0  0  0
 38 39  1  0  0  0
 39 40  2  0  0  0
  5  6  1  0  0  0
  6  7  2  0  0  0
  6  8  1  0  0  0
  8 10  1  0  0  0
 10 27  1  0  0  0
 27 28  1  0  0  0
 28 29  2  0  0  0
 29 30  1  0  0  0
 30 31  2  0  0  0
 31 32  1  0  0  0
 32 33  2  0  0  0
 10 11  1  0  0  0
 11 12  2  0  0  0
 11 13  1  0  0  0
 13 15  1  0  0  0
 15 20  1  0  0  0
 20 21  1  0  0  0
 21 22  2  0  0  0
 22 23  1  0  0  0
 23 24  2  0  0  0
 24 25  1  0  0  0
 25 26  2  0  0  0
 15 16  1  0  0  0
 16 17  1  0  0  0
 16 18  2  0  0  0
 56 51  1  0  0  0
 69 64  1  0  0  0
 76 71  1  0  0  0
 40 35  1  0  0  0
 33 28  1  0  0  0
 26 21  1  0  0  0
 57 61  1  0  0  0
 57 62  1  0  0  0
 49 50  1  0  0  0
 44 45  1  0  0  0
  3  4  1  0  0  0
  8  9  1  0  0  0
 13 14  1  0  0  0
 17 19  1  0  0  0
M  END
> <minimizedAffinity>
-9.16469

> <CNNscore>
0.1148793474

> <CNNaffinity>
7.5898427963

> <CNN_VS>
0.8719161749

> <CNNaffinity_variance>
0.7030578852

$$$$
[H]OC(=O)[C@@]([H])(N([H])C(=O)[C@@]([H])(N([H])C(=O)[C@@]([H])(N([H])C(=O)[C@@]([H])(N([H])C(=O)[C@@]([H])(N([H])C(=O)c1c([H])c([H])c(S(=O)(=O)N([H])[H])c([H])c1[H])C([H])([H])c1c([H])c([H])c([H])c([H])c1[H])C([H])([H])c1c([H])c([H])c([H])c([H])c1[H])C([H])([H])c1c([H])c([H])c([H])c([H])c1[H])C([H])([H])c1c([H])c([H])c([H])c([H])c1[H])C([H])([H])c1c([H])c([H])c([H])c([H])c1[H]


 76 81  0  0  0  0  0  0  0  0999 V2000
   56.9595   -4.6984   -7.7801 C   0  0  0  0  0  0  0  0  0  0  0  0
   56.9195   -3.6864   -7.0348 O   0  0  0  0  0  0  0  0  0  0  0  0
   55.9389   -5.6559   -7.5823 N   0  0  0  0  0  0  0  0  0  0  0  0
   55.9524   -6.5158   -8.1715 H   0  0  0  0  0  0  0  0  0  0  0  0
   54.8703   -5.5328   -6.6174 C   0  0  0  0  0  0  0  0  0  0  0  0
   55.2029   -6.0702   -5.2784 C   0  0  0  0  0  0  0  0  0  0  0  0
   55.9687   -7.0668   -5.2342 O   0  0  0  0  0  0  0  0  0  0  0  0
   54.7286   -5.5404   -4.0735 N   0  0  0  0  0  0  0  0  0  0  0  0
   54.0646   -4.7255   -4.1550 H   0  0  0  0  0  0  0  0  0  0  0  0
   55.0345   -5.9774   -2.7409 C   0  0  0  0  0  0  0  0  0  0  0  0
   56.4065   -5.7280   -2.2665 C   0  0  0  0  0  0  0  0  0  0  0  0
   56.8544   -4.5539   -2.4278 O   0  0  0  0  0  0  0  0  0  0  0  0
   57.2179   -6.6930   -1.6559 N   0  0  0  0  0  0  0  0  0  0  0  0
   56.8939   -7.6570   -1.5235 H   0  0  0  0  0  0  0  0  0  0  0  0
   58.5723   -6.2931   -1.1992 C   0  0  0  0  0  0  0  0  0  0  0  0
   59.5830   -7.0848   -1.9116 C   0  0  0  0  0  0  0  0  0  0  0  0
   60.1419   -6.6521   -3.0942 O   0  0  0  0  0  0  0  0  0  0  0  0
   59.9559   -8.1847   -1.4517 O   0  0  0  0  0  0  0  0  0  0  0  0
   59.6210   -6.6306   -3.9832 H   0  0  0  0  0  0  0  0  0  0  0  0
   58.5644   -6.6287    0.2992 C   0  0  0  0  0  0  0  0  0  0  0  0
   58.8134   -5.4503    1.1158 C   0  0  0  0  0  0  0  0  0  0  0  0
   60.1107   -4.9514    1.1470 C   0  0  0  0  0  0  0  0  0  0  0  0
   60.3832   -3.8331    1.8810 C   0  0  0  0  0  0  0  0  0  0  0  0
   59.3826   -3.1968    2.5900 C   0  0  0  0  0  0  0  0  0  0  0  0
   58.1037   -3.6610    2.5790 C   0  0  0  0  0  0  0  0  0  0  0  0
   57.8381   -4.8040    1.8249 C   0  0  0  0  0  0  0  0  0  0  0  0
   54.6512   -7.4047   -2.4985 C   0  0  0  0  0  0  0  0  0  0  0  0
   53.4520   -7.6065   -1.6835 C   0  0  0  0  0  0  0  0  0  0  0  0
   53.5135   -8.0306   -0.3915 C   0  0  0  0  0  0  0  0  0  0  0  0
   52.3742   -8.2419    0.4025 C   0  0  0  0  0  0  0  0  0  0  0  0
   51.1297   -8.0072   -0.1549 C   0  0  0  0  0  0  0  0  0  0  0  0
   51.0903   -7.5762   -1.4689 C   0  0  0  0  0  0  0  0  0  0  0  0
   52.2078   -7.3691   -2.2472 C   0  0  0  0  0  0  0  0  0  0  0  0
   53.5371   -5.7890   -7.1559 C   0  0  0  0  0  0  0  0  0  0  0  0
   52.5551   -4.7233   -7.1873 C   0  0  0  0  0  0  0  0  0  0  0  0
   51.5090   -4.7673   -6.2528 C   0  0  0  0  0  0  0  0  0  0  0  0
   50.5317   -3.8202   -6.2065 C   0  0  0  0  0  0  0  0  0  0  0  0
   50.5245   -2.7669   -7.0830 C   0  0  0  0  0  0  0  0  0  0  0  0
   51.5471   -2.6857   -8.0301 C   0  0  0  0  0  0  0  0  0  0  0  0
   52.5050   -3.6511   -8.0436 C   0  0  0  0  0  0  0  0  0  0  0  0
   58.0377   -4.7987   -8.7701 C   0  0  0  0  0  0  0  0  0  0  0  0
   60.0934   -6.2887   -8.7972 C   0  0  0  0  0  0  0  0  0  0  0  0
   59.5876   -6.8885   -9.7975 O   0  0  0  0  0  0  0  0  0  0  0  0
   59.3207   -5.2094   -8.2568 N   0  0  0  0  0  0  0  0  0  0  0  0
   59.6736   -4.6642   -7.4243 H   0  0  0  0  0  0  0  0  0  0  0  0
   61.3713   -6.7227   -8.2776 C   0  0  0  0  0  0  0  0  0  0  0  0
   61.4599   -8.2949   -6.3164 C   0  0  0  0  0  0  0  0  0  0  0  0
   61.8800   -7.3056   -5.6305 O   0  0  0  0  0  0  0  0  0  0  0  0
   61.1813   -8.0632   -7.6668 N   0  0  0  0  0  0  0  0  0  0  0  0
   60.8305   -8.7959   -8.3100 H   0  0  0  0  0  0  0  0  0  0  0  0
   61.0454  -12.0391   -4.3366 C   0  0  0  0  0  0  0  0  0  0  0  0
   60.8940  -11.9258   -5.7037 C   0  0  0  0  0  0  0  0  0  0  0  0
   61.0283  -10.6955   -6.3397 C   0  0  0  0  0  0  0  0  0  0  0  0
   61.3157   -9.5496   -5.6344 C   0  0  0  0  0  0  0  0  0  0  0  0
   61.4661   -9.6683   -4.2635 C   0  0  0  0  0  0  0  0  0  0  0  0
   61.3356  -10.8815   -3.6190 C   0  0  0  0  0  0  0  0  0  0  0  0
   59.8819  -14.5963   -4.4655 N   0  0  0  0  0  0  0  0  0  0  0  0
   60.8995  -13.5786   -3.5194 S   0  0  0  0  0  0  0  0  0  0  0  0
   60.3514  -13.3983   -2.1287 O   0  0  0  0  0  0  0  0  0  0  0  0
   62.2826  -14.1807   -3.4782 O   0  0  0  0  0  0  0  0  0  0  0  0
   59.9998  -14.3351   -5.4702 H   0  0  0  0  0  0  0  0  0  0  0  0
   60.2634  -15.5711   -4.3632 H   0  0  0  0  0  0  0  0  0  0  0  0
   62.5083   -6.9083   -9.2250 C   0  0  0  0  0  0  0  0  0  0  0  0
   63.7875   -6.2792   -8.8841 C   0  0  0  0  0  0  0  0  0  0  0  0
   64.8620   -6.4980   -9.7199 C   0  0  0  0  0  0  0  0  0  0  0  0
   66.0500   -5.8672   -9.4410 C   0  0  0  0  0  0  0  0  0  0  0  0
   66.2242   -5.0261   -8.3684 C   0  0  0  0  0  0  0  0  0  0  0  0
   65.1449   -4.8080   -7.5316 C   0  0  0  0  0  0  0  0  0  0  0  0
   63.9556   -5.4360   -7.8047 C   0  0  0  0  0  0  0  0  0  0  0  0
   57.7214   -5.6777   -9.9618 C   0  0  0  0  0  0  0  0  0  0  0  0
   57.5186   -4.8770  -11.1888 C   0  0  0  0  0  0  0  0  0  0  0  0
   58.6056   -4.4734  -11.9176 C   0  0  0  0  0  0  0  0  0  0  0  0
   58.4012   -3.7352  -13.0603 C   0  0  0  0  0  0  0  0  0  0  0  0
   57.0951   -3.4155  -13.4497 C   0  0  0  0  0  0  0  0  0  0  0  0
   56.0083   -3.8237  -12.7140 C   0  0  0  0  0  0  0  0  0  0  0  0
   56.2152   -4.5651  -11.5656 C   0  0  0  0  0  0  0  0  0  0  0  0
 57 58  1  0  0  0
 58 59  2  0  0  0
 58 60  2  0  0  0
 58 51  1  0  0  0
 51 52  2  0  0  0
 52 53  1  0  0  0
 53 54  2  0  0  0
 54 55  1  0  0  0
 55 56  2  0  0  0
 54 47  1  0  0  0
 47 48  2  0  0  0
 47 49  1  0  0  0
 49 46  1  0  0  0
 46 63  1  0  0  0
 63 64  1  0  0  0
 64 65  2  0  0  0
 65 66  1  0  0  0
 66 67  2  0  0  0
 67 68  1  0  0  0
 68 69  2  0  0  0
 46 42  1  0  0  0
 42 43  2  0  0  0
 42 44  1  0  0  0
 44 41  1  0  0  0
 41 70  1  0  0  0
 70 71  1  0  0  0
 71 72  2  0  0  0
 72 73  1  0  0  0
 73 74  2  0  0  0
 74 75  1  0  0  0
 75 76  2  0  0  0
 41  1  1  0  0  0
  1  2  2  0  0  0
  1  3  1  0  0  0
  3  5  1  0  0  0
  5 34  1  0  0  0
 34 35  1  0  0  0
 35 36  2  0  0  0
 36 37  1  0  0  0
 37 38  2  0  0  0
 38 39  1  0  0  0
 39 40  2  0  0  0
  5  6  1  0  0  0
  6  7  2  0  0  0
  6  8  1  0  0  0
  8 10  1  0  0  0
 10 27  1  0  0  0
 27 28  1  0  0  0
 28 29  2  0  0  0
 29 30  1  0  0  0
 30 31  2  0  0  0
 31 32  1  0  0  0
 32 33  2  0  0  0
 10 11  1  0  0  0
 11 12  2  0  0  0
 11 13  1  0  0  0
 13 15  1  0  0  0
 15 20  1  0  0  0
 20 21  1  0  0  0
 21 22  2  0  0  0
 22 23  1  0  0  0
 23 24  2  0  0  0
 24 25  1  0  0  0
 25 26  2  0  0  0
 15 16  1  0  0  0
 16 17  1  0  0  0
 16 18  2  0  0  0
 56 51  1  0  0  0
 69 64  1  0  0  0
 76 71  1  0  0  0
 40 35  1  0  0  0
 33 28  1  0  0  0
 26 21  1  0  0  0
 57 61  1  0  0  0
 57 62  1  0  0  0
 49 50  1  0  0  0
 44 45  1  0  0  0
  3  4  1  0  0  0
  8  9  1  0  0  0
 13 14  1  0  0  0
 17 19  1  0  0  0
M  END
> <minimizedAffinity>
-9.05298

> <CNNscore>
0.0959215462

> <CNNaffinity>
7.1522345543

> <CNN_VS>
0.6860533953

> <CNNaffinity_variance>
1.6431633234

$$$$
[H]OC(=O)[C@@]([H])(N([H])C(=O)[C@@]([H])(N([H])C(=O)[C@@]([H])(N([H])C(=O)[C@@]([H])(N([H])C(=O)[C@@]([H])(N([H])C(=O)c1c([H])c([H])c(S(=O)(=O)N([H])[H])c([H])c1[H])C([H])([H])c1c([H])c([H])c([H])c([H])c1[H])C([H])([H])c1c([H])c([H])c([H])c([H])c1[H])C([H])([H])c1c([H])c([H])c([H])c([H])c1[H])C([H])([H])c1c([H])c([H])c([H])c([H])c1[H])C([H])([H])c1c([H])c([H])c([H])c([H])c1[H]


 76 81  0  0  0  0  0  0  0  0999 V2000
   60.7119   -6.4654   -8.4504 C   0  0  0  0  0  0  0  0  0  0  0  0
   60.8185   -6.2964   -9.6919 O   0  0  0  0  0  0  0  0  0  0  0  0
   59.5262   -5.9760   -7.8568 N   0  0  0  0  0  0  0  0  0  0  0  0
   59.4132   -6.0838   -6.8260 H   0  0  0  0  0  0  0  0  0  0  0  0
   58.4507   -5.3320   -8.5755 C   0  0  0  0  0  0  0  0  0  0  0  0
   57.2513   -5.0626   -7.7503 C   0  0  0  0  0  0  0  0  0  0  0  0
   57.2194   -3.9732   -7.1228 O   0  0  0  0  0  0  0  0  0  0  0  0
   56.1614   -5.9318   -7.6318 N   0  0  0  0  0  0  0  0  0  0  0  0
   56.2407   -6.8477   -8.1480 H   0  0  0  0  0  0  0  0  0  0  0  0
   54.9512   -5.7270   -6.8875 C   0  0  0  0  0  0  0  0  0  0  0  0
   54.7886   -6.5310   -5.6640 C   0  0  0  0  0  0  0  0  0  0  0  0
   55.2875   -7.6954   -5.6839 O   0  0  0  0  0  0  0  0  0  0  0  0
   54.1355   -6.0849   -4.5078 N   0  0  0  0  0  0  0  0  0  0  0  0
   53.7064   -5.1546   -4.4619 H   0  0  0  0  0  0  0  0  0  0  0  0
   54.0719   -6.9931   -3.3355 C   0  0  0  0  0  0  0  0  0  0  0  0
   52.7151   -6.9748   -2.7747 C   0  0  0  0  0  0  0  0  0  0  0  0
   52.3994   -7.6531   -1.6178 O   0  0  0  0  0  0  0  0  0  0  0  0
   51.8080   -6.3367   -3.3495 O   0  0  0  0  0  0  0  0  0  0  0  0
   52.3383   -8.6809   -1.5720 H   0  0  0  0  0  0  0  0  0  0  0  0
   55.0835   -6.3876   -2.3516 C   0  0  0  0  0  0  0  0  0  0  0  0
   55.9249   -7.4099   -1.7480 C   0  0  0  0  0  0  0  0  0  0  0  0
   55.8177   -7.6041   -0.3756 C   0  0  0  0  0  0  0  0  0  0  0  0
   56.5711   -8.5696    0.2276 C   0  0  0  0  0  0  0  0  0  0  0  0
   57.4357   -9.3515   -0.5138 C   0  0  0  0  0  0  0  0  0  0  0  0
   57.5626   -9.1855   -1.8582 C   0  0  0  0  0  0  0  0  0  0  0  0
   56.7871   -8.1961   -2.4626 C   0  0  0  0  0  0  0  0  0  0  0  0
   53.7245   -5.8236   -7.7410 C   0  0  0  0  0  0  0  0  0  0  0  0
   52.8472   -4.6519   -7.7202 C   0  0  0  0  0  0  0  0  0  0  0  0
   51.8059   -4.5382   -6.8509 C   0  0  0  0  0  0  0  0  0  0  0  0
   50.9458   -3.4279   -6.8239 C   0  0  0  0  0  0  0  0  0  0  0  0
   51.1679   -2.4003   -7.7235 C   0  0  0  0  0  0  0  0  0  0  0  0
   52.2317   -2.5361   -8.5974 C   0  0  0  0  0  0  0  0  0  0  0  0
   53.0749   -3.6251   -8.6235 C   0  0  0  0  0  0  0  0  0  0  0  0
   58.2593   -5.8176   -9.9395 C   0  0  0  0  0  0  0  0  0  0  0  0
   57.6028   -4.9751  -10.9194 C   0  0  0  0  0  0  0  0  0  0  0  0
   58.3635   -4.5182  -12.0067 C   0  0  0  0  0  0  0  0  0  0  0  0
   57.8429   -3.7146  -12.9749 C   0  0  0  0  0  0  0  0  0  0  0  0
   56.5346   -3.3091  -12.9307 C   0  0  0  0  0  0  0  0  0  0  0  0
   55.7426   -3.7406  -11.8649 C   0  0  0  0  0  0  0  0  0  0  0  0
   56.2995   -4.5428  -10.9182 C   0  0  0  0  0  0  0  0  0  0  0  0
   61.8022   -7.1407   -7.7378 C   0  0  0  0  0  0  0  0  0  0  0  0
   61.8271   -7.8122   -5.2893 C   0  0  0  0  0  0  0  0  0  0  0  0
   62.5952   -6.8223   -5.0742 O   0  0  0  0  0  0  0  0  0  0  0  0
   61.4016   -7.9924   -6.6460 N   0  0  0  0  0  0  0  0  0  0  0  0
   60.7642   -8.7937   -6.9040 H   0  0  0  0  0  0  0  0  0  0  0  0
   61.4485   -8.6723   -4.1902 C   0  0  0  0  0  0  0  0  0  0  0  0
   60.9113   -7.7022   -1.9326 C   0  0  0  0  0  0  0  0  0  0  0  0
   61.9956   -8.2336   -1.5230 O   0  0  0  0  0  0  0  0  0  0  0  0
   60.5785   -7.8866   -3.2780 N   0  0  0  0  0  0  0  0  0  0  0  0
   59.7242   -7.4931   -3.7126 H   0  0  0  0  0  0  0  0  0  0  0  0
   58.5879   -5.5127    0.8813 C   0  0  0  0  0  0  0  0  0  0  0  0
   58.5783   -5.1974   -0.4623 C   0  0  0  0  0  0  0  0  0  0  0  0
   59.3449   -5.9182   -1.3726 C   0  0  0  0  0  0  0  0  0  0  0  0
   60.1386   -6.9680   -0.9713 C   0  0  0  0  0  0  0  0  0  0  0  0
   60.1453   -7.2800    0.3772 C   0  0  0  0  0  0  0  0  0  0  0  0
   59.3905   -6.5742    1.2917 C   0  0  0  0  0  0  0  0  0  0  0  0
   56.0350   -4.4463    1.3861 N   0  0  0  0  0  0  0  0  0  0  0  0
   57.6176   -4.6321    2.0398 S   0  0  0  0  0  0  0  0  0  0  0  0
   58.2386   -3.2974    2.3559 O   0  0  0  0  0  0  0  0  0  0  0  0
   57.5323   -5.4919    3.2769 O   0  0  0  0  0  0  0  0  0  0  0  0
   55.8350   -5.2680    0.7726 H   0  0  0  0  0  0  0  0  0  0  0  0
   55.3710   -4.5116    2.1992 H   0  0  0  0  0  0  0  0  0  0  0  0
   60.6599   -9.9050   -4.4791 C   0  0  0  0  0  0  0  0  0  0  0  0
   61.3507  -11.0148   -5.1418 C   0  0  0  0  0  0  0  0  0  0  0  0
   62.5233  -11.4767   -4.5824 C   0  0  0  0  0  0  0  0  0  0  0  0
   63.1484  -12.5533   -5.1631 C   0  0  0  0  0  0  0  0  0  0  0  0
   62.6642  -13.1967   -6.2766 C   0  0  0  0  0  0  0  0  0  0  0  0
   61.4878  -12.7318   -6.8357 C   0  0  0  0  0  0  0  0  0  0  0  0
   60.8591  -11.6561   -6.2606 C   0  0  0  0  0  0  0  0  0  0  0  0
   62.7341   -7.9420   -8.6223 C   0  0  0  0  0  0  0  0  0  0  0  0
   64.1114   -7.9615   -8.0834 C   0  0  0  0  0  0  0  0  0  0  0  0
   64.7103   -9.1620   -7.8076 C   0  0  0  0  0  0  0  0  0  0  0  0
   65.9941   -9.1649   -7.3134 C   0  0  0  0  0  0  0  0  0  0  0  0
   66.6551   -7.9485   -7.1052 C   0  0  0  0  0  0  0  0  0  0  0  0
   66.0486   -6.7471   -7.3842 C   0  0  0  0  0  0  0  0  0  0  0  0
   64.7582   -6.7457   -7.8804 C   0  0  0  0  0  0  0  0  0  0  0  0
 57 58  1  0  0  0
 58 59  2  0  0  0
 58 60  2  0  0  0
 58 51  1  0  0  0
 51 52  2  0  0  0
 52 53  1  0  0  0
 53 54  2  0  0  0
 54 55  1  0  0  0
 55 56  2  0  0  0
 54 47  1  0  0  0
 47 48  2  0  0  0
 47 49  1  0  0  0
 49 46  1  0  0  0
 46 63  1  0  0  0
 63 64  1  0  0  0
 64 65  2  0  0  0
 65 66  1  0  0  0
 66 67  2  0  0  0
 67 68  1  0  0  0
 68 69  2  0  0  0
 46 42  1  0  0  0
 42 43  2  0  0  0
 42 44  1  0  0  0
 44 41  1  0  0  0
 41 70  1  0  0  0
 70 71  1  0  0  0
 71 72  2  0  0  0
 72 73  1  0  0  0
 73 74  2  0  0  0
 74 75  1  0  0  0
 75 76  2  0  0  0
 41  1  1  0  0  0
  1  2  2  0  0  0
  1  3  1  0  0  0
  3  5  1  0  0  0
  5 34  1  0  0  0
 34 35  1  0  0  0
 35 36  2  0  0  0
 36 37  1  0  0  0
 37 38  2  0  0  0
 38 39  1  0  0  0
 39 40  2  0  0  0
  5  6  1  0  0  0
  6  7  2  0  0  0
  6  8  1  0  0  0
  8 10  1  0  0  0
 10 27  1  0  0  0
 27 28  1  0  0  0
 28 29  2  0  0  0
 29 30  1  0  0  0
 30 31  2  0  0  0
 31 32  1  0  0  0
 32 33  2  0  0  0
 10 11  1  0  0  0
 11 12  2  0  0  0
 11 13  1  0  0  0
 13 15  1  0  0  0
 15 20  1  0  0  0
 20 21  1  0  0  0
 21 22  2  0  0  0
 22 23  1  0  0  0
 23 24  2  0  0  0
 24 25  1  0  0  0
 25 26  2  0  0  0
 15 16  1  0  0  0
 16 17  1  0  0  0
 16 18  2  0  0  0
 56 51  1  0  0  0
 69 64  1  0  0  0
 76 71  1  0  0  0
 40 35  1  0  0  0
 33 28  1  0  0  0
 26 21  1  0  0  0
 57 61  1  0  0  0
 57 62  1  0  0  0
 49 50  1  0  0  0
 44 45  1  0  0  0
  3  4  1  0  0  0
  8  9  1  0  0  0
 13 14  1  0  0  0
 17 19  1  0  0  0
M  END
> <minimizedAffinity>
-8.03880

> <CNNscore>
0.0920433626

> <CNNaffinity>
7.5149431229

> <CNN_VS>
0.6917006373

> <CNNaffinity_variance>
0.8498878479

$$$$
[H]OC(=O)[C@@]([H])(N([H])C(=O)[C@@]([H])(N([H])C(=O)[C@@]([H])(N([H])C(=O)[C@@]([H])(N([H])C(=O)[C@@]([H])(N([H])C(=O)c1c([H])c([H])c(S(=O)(=O)N([H])[H])c([H])c1[H])C([H])([H])c1c([H])c([H])c([H])c([H])c1[H])C([H])([H])c1c([H])c([H])c([H])c([H])c1[H])C([H])([H])c1c([H])c([H])c([H])c([H])c1[H])C([H])([H])c1c([H])c([H])c([H])c([H])c1[H])C([H])([H])c1c([H])c([H])c([H])c([H])c1[H]


 76 81  0  0  0  0  0  0  0  0999 V2000
   56.0278   -5.7785   -5.2110 C   0  0  0  0  0  0  0  0  0  0  0  0
   56.1082   -7.0004   -4.9252 O   0  0  0  0  0  0  0  0  0  0  0  0
   55.9312   -4.8899   -4.1161 N   0  0  0  0  0  0  0  0  0  0  0  0
   55.8452   -3.8707   -4.3179 H   0  0  0  0  0  0  0  0  0  0  0  0
   55.9418   -5.2899   -2.7277 C   0  0  0  0  0  0  0  0  0  0  0  0
   54.5984   -5.5668   -2.1703 C   0  0  0  0  0  0  0  0  0  0  0  0
   54.4098   -5.2829   -0.9597 O   0  0  0  0  0  0  0  0  0  0  0  0
   53.5365   -6.1123   -2.8999 N   0  0  0  0  0  0  0  0  0  0  0  0
   53.7445   -6.3654   -3.9021 H   0  0  0  0  0  0  0  0  0  0  0  0
   52.2002   -6.3728   -2.4450 C   0  0  0  0  0  0  0  0  0  0  0  0
   52.0522   -7.3894   -1.3894 C   0  0  0  0  0  0  0  0  0  0  0  0
   52.2073   -8.5961   -1.7428 O   0  0  0  0  0  0  0  0  0  0  0  0
   51.7643   -7.0994   -0.0495 N   0  0  0  0  0  0  0  0  0  0  0  0
   51.6171   -6.1356    0.2687 H   0  0  0  0  0  0  0  0  0  0  0  0
   51.6727   -8.2242    0.9145 C   0  0  0  0  0  0  0  0  0  0  0  0
   50.2711   -8.4219    1.3048 C   0  0  0  0  0  0  0  0  0  0  0  0
   49.2355   -7.8347    0.6112 O   0  0  0  0  0  0  0  0  0  0  0  0
   49.9899   -9.1342    2.2916 O   0  0  0  0  0  0  0  0  0  0  0  0
   49.0397   -6.8236    0.6501 H   0  0  0  0  0  0  0  0  0  0  0  0
   52.5156   -7.7500    2.1073 C   0  0  0  0  0  0  0  0  0  0  0  0
   53.9326   -7.7028    1.7797 C   0  0  0  0  0  0  0  0  0  0  0  0
   54.6590   -6.6026    2.2209 C   0  0  0  0  0  0  0  0  0  0  0  0
   55.9963   -6.5300    1.9564 C   0  0  0  0  0  0  0  0  0  0  0  0
   56.6297   -7.5384    1.2560 C   0  0  0  0  0  0  0  0  0  0  0  0
   55.9460   -8.6274    0.8112 C   0  0  0  0  0  0  0  0  0  0  0  0
   54.5804   -8.6899    1.0883 C   0  0  0  0  0  0  0  0  0  0  0  0
   51.2503   -6.6476   -3.5696 C   0  0  0  0  0  0  0  0  0  0  0  0
   50.5900   -5.4720   -4.1397 C   0  0  0  0  0  0  0  0  0  0  0  0
   50.9155   -4.9780   -5.3656 C   0  0  0  0  0  0  0  0  0  0  0  0
   50.3024   -3.8443   -5.9243 C   0  0  0  0  0  0  0  0  0  0  0  0
   49.3201   -3.1992   -5.1939 C   0  0  0  0  0  0  0  0  0  0  0  0
   49.0046   -3.7183   -3.9510 C   0  0  0  0  0  0  0  0  0  0  0  0
   49.6061   -4.8301   -3.4036 C   0  0  0  0  0  0  0  0  0  0  0  0
   56.9015   -4.5668   -1.8976 C   0  0  0  0  0  0  0  0  0  0  0  0
   58.0162   -5.2751   -1.3003 C   0  0  0  0  0  0  0  0  0  0  0  0
   58.6290   -4.7040   -0.1743 C   0  0  0  0  0  0  0  0  0  0  0  0
   59.6885   -5.2852    0.4532 C   0  0  0  0  0  0  0  0  0  0  0  0
   60.2126   -6.4702    0.0070 C   0  0  0  0  0  0  0  0  0  0  0  0
   59.6329   -7.0720   -1.1115 C   0  0  0  0  0  0  0  0  0  0  0  0
   58.5758   -6.4602   -1.7099 C   0  0  0  0  0  0  0  0  0  0  0  0
   56.0405   -5.3860   -6.6247 C   0  0  0  0  0  0  0  0  0  0  0  0
   58.1779   -5.0222   -7.9461 C   0  0  0  0  0  0  0  0  0  0  0  0
   58.0589   -3.7794   -7.7064 O   0  0  0  0  0  0  0  0  0  0  0  0
   57.1590   -5.8671   -7.3965 N   0  0  0  0  0  0  0  0  0  0  0  0
   57.1879   -6.9107   -7.5542 H   0  0  0  0  0  0  0  0  0  0  0  0
   59.2924   -5.4914   -8.7391 C   0  0  0  0  0  0  0  0  0  0  0  0
   61.2728   -6.8759   -8.0411 C   0  0  0  0  0  0  0  0  0  0  0  0
   61.9952   -6.0359   -8.6722 O   0  0  0  0  0  0  0  0  0  0  0  0
   59.8924   -6.6538   -8.0356 N   0  0  0  0  0  0  0  0  0  0  0  0
   59.2179   -7.2718   -7.5490 H   0  0  0  0  0  0  0  0  0  0  0  0
   63.2733  -10.0887   -6.0951 C   0  0  0  0  0  0  0  0  0  0  0  0
   63.3296   -8.8004   -5.6029 C   0  0  0  0  0  0  0  0  0  0  0  0
   62.6743   -7.7573   -6.2499 C   0  0  0  0  0  0  0  0  0  0  0  0
   61.9484   -7.9678   -7.3995 C   0  0  0  0  0  0  0  0  0  0  0  0
   61.8954   -9.2613   -7.8895 C   0  0  0  0  0  0  0  0  0  0  0  0
   62.5402  -10.3058   -7.2590 C   0  0  0  0  0  0  0  0  0  0  0  0
   65.7733  -11.2252   -5.4888 N   0  0  0  0  0  0  0  0  0  0  0  0
   64.0737  -11.4177   -5.2875 S   0  0  0  0  0  0  0  0  0  0  0  0
   63.6046  -12.7394   -5.8353 O   0  0  0  0  0  0  0  0  0  0  0  0
   63.7432  -11.2962   -3.8202 O   0  0  0  0  0  0  0  0  0  0  0  0
   65.9826  -10.2034   -5.5505 H   0  0  0  0  0  0  0  0  0  0  0  0
   66.2159  -11.5678   -4.5983 H   0  0  0  0  0  0  0  0  0  0  0  0
   59.0334   -5.9914  -10.1204 C   0  0  0  0  0  0  0  0  0  0  0  0
   58.2422   -5.1411  -11.0145 C   0  0  0  0  0  0  0  0  0  0  0  0
   56.8998   -4.9841  -10.7420 C   0  0  0  0  0  0  0  0  0  0  0  0
   56.1617   -4.1442  -11.5400 C   0  0  0  0  0  0  0  0  0  0  0  0
   56.6933   -3.4495  -12.5997 C   0  0  0  0  0  0  0  0  0  0  0  0
   58.0401   -3.6084  -12.8709 C   0  0  0  0  0  0  0  0  0  0  0  0
   58.7826   -4.4468  -12.0777 C   0  0  0  0  0  0  0  0  0  0  0  0
   54.7788   -5.7309   -7.3875 C   0  0  0  0  0  0  0  0  0  0  0  0
   54.1552   -4.5269   -7.9786 C   0  0  0  0  0  0  0  0  0  0  0  0
   52.8472   -4.5745   -8.3818 C   0  0  0  0  0  0  0  0  0  0  0  0
   52.2785   -3.4449   -8.9234 C   0  0  0  0  0  0  0  0  0  0  0  0
   53.0448   -2.2801   -9.0490 C   0  0  0  0  0  0  0  0  0  0  0  0
   54.3569   -2.2388   -8.6422 C   0  0  0  0  0  0  0  0  0  0  0  0
   54.9273   -3.3748   -8.0985 C   0  0  0  0  0  0  0  0  0  0  0  0
 57 58  1  0  0  0
 58 59  2  0  0  0
 58 60  2  0  0  0
 58 51  1  0  0  0
 51 52  2  0  0  0
 52 53  1  0  0  0
 53 54  2  0  0  0
 54 55  1  0  0  0
 55 56  2  0  0  0
 54 47  1  0  0  0
 47 48  2  0  0  0
 47 49  1  0  0  0
 49 46  1  0  0  0
 46 63  1  0  0  0
 63 64  1  0  0  0
 64 65  2  0  0  0
 65 66  1  0  0  0
 66 67  2  0  0  0
 67 68  1  0  0  0
 68 69  2  0  0  0
 46 42  1  0  0  0
 42 43  2  0  0  0
 42 44  1  0  0  0
 44 41  1  0  0  0
 41 70  1  0  0  0
 70 71  1  0  0  0
 71 72  2  0  0  0
 72 73  1  0  0  0
 73 74  2  0  0  0
 74 75  1  0  0  0
 75 76  2  0  0  0
 41  1  1  0  0  0
  1  2  2  0  0  0
  1  3  1  0  0  0
  3  5  1  0  0  0
  5 34  1  0  0  0
 34 35  1  0  0  0
 35 36  2  0  0  0
 36 37  1  0  0  0
 37 38  2  0  0  0
 38 39  1  0  0  0
 39 40  2  0  0  0
  5  6  1  0  0  0
  6  7  2  0  0  0
  6  8  1  0  0  0
  8 10  1  0  0  0
 10 27  1  0  0  0
 27 28  1  0  0  0
 28 29  2  0  0  0
 29 30  1  0  0  0
 30 31  2  0  0  0
 31 32  1  0  0  0
 32 33  2  0  0  0
 10 11  1  0  0  0
 11 12  2  0  0  0
 11 13  1  0  0  0
 13 15  1  0  0  0
 15 20  1  0  0  0
 20 21  1  0  0  0
 21 22  2  0  0  0
 22 23  1  0  0  0
 23 24  2  0  0  0
 24 25  1  0  0  0
 25 26  2  0  0  0
 15 16  1  0  0  0
 16 17  1  0  0  0
 16 18  2  0  0  0
 56 51  1  0  0  0
 69 64  1  0  0  0
 76 71  1  0  0  0
 40 35  1  0  0  0
 33 28  1  0  0  0
 26 21  1  0  0  0
 57 61  1  0  0  0
 57 62  1  0  0  0
 49 50  1  0  0  0
 44 45  1  0  0  0
  3  4  1  0  0  0
  8  9  1  0  0  0
 13 14  1  0  0  0
 17 19  1  0  0  0
M  END
> <minimizedAffinity>
-8.94336

> <CNNscore>
0.0863544047

> <CNNaffinity>
7.3286232948

> <CNN_VS>
0.6328588724

> <CNNaffinity_variance>
1.2551695108

$$$$
[H]C([H])=C([H])C(=O)N([H])[C@]1([H])C([H])([H])C([H])([H])[C@]([H])(n2nc(-c3c([H])c([H])c(Oc4c([H])c([H])c([H])c([H])c4[H])c([H])c3[H])c3c(N([H])[H])nc([H])nc32)C([H])([H])C1([H])[H]


 37 41  0  0  0  0  0  0  0  0999 V2000
   54.8232   -2.5153  -10.0581 N   0  0  0  0  0  0  0  0  0  0  0  0
   53.7861   -2.8321   -9.1570 C   0  0  0  0  0  0  0  0  0  0  0  0
   52.6443   -2.1115   -9.1435 N   0  0  0  0  0  0  0  0  0  0  0  0
   51.6291   -2.4188   -8.3160 C   0  0  0  0  0  0  0  0  0  0  0  0
   51.7148   -3.4585   -7.4694 N   0  0  0  0  0  0  0  0  0  0  0  0
   52.8332   -4.2225   -7.4318 C   0  0  0  0  0  0  0  0  0  0  0  0
   53.1534   -5.3054   -6.6981 N   0  0  0  0  0  0  0  0  0  0  0  0
   54.3413   -5.6678   -7.0535 N   0  0  0  0  0  0  0  0  0  0  0  0
   54.8479   -4.8520   -8.0213 C   0  0  0  0  0  0  0  0  0  0  0  0
   53.8930   -3.9058   -8.2903 C   0  0  0  0  0  0  0  0  0  0  0  0
   55.3962   -1.6684   -9.9029 H   0  0  0  0  0  0  0  0  0  0  0  0
   55.0142   -3.1226  -10.8713 H   0  0  0  0  0  0  0  0  0  0  0  0
   56.1455   -5.0004   -8.6582 C   0  0  0  0  0  0  0  0  0  0  0  0
   56.3877   -4.9578  -10.0081 C   0  0  0  0  0  0  0  0  0  0  0  0
   57.6610   -5.1360  -10.5379 C   0  0  0  0  0  0  0  0  0  0  0  0
   58.7511   -5.3649   -9.7289 C   0  0  0  0  0  0  0  0  0  0  0  0
   58.5342   -5.4112   -8.3703 C   0  0  0  0  0  0  0  0  0  0  0  0
   57.2748   -5.2351   -7.8522 C   0  0  0  0  0  0  0  0  0  0  0  0
   60.0281   -5.5426  -10.2746 O   0  0  0  0  0  0  0  0  0  0  0  0
   60.9098   -6.3956   -9.6702 C   0  0  0  0  0  0  0  0  0  0  0  0
   60.9548   -6.5379   -8.2992 C   0  0  0  0  0  0  0  0  0  0  0  0
   61.8485   -7.4006   -7.7080 C   0  0  0  0  0  0  0  0  0  0  0  0
   62.6964   -8.1191   -8.5088 C   0  0  0  0  0  0  0  0  0  0  0  0
   62.6583   -7.9843   -9.8642 C   0  0  0  0  0  0  0  0  0  0  0  0
   61.7679   -7.1239  -10.4635 C   0  0  0  0  0  0  0  0  0  0  0  0
   52.2972   -5.9237   -5.7024 C   0  0  0  0  0  0  0  0  0  0  0  0
   51.5469   -4.8455   -5.0096 C   0  0  0  0  0  0  0  0  0  0  0  0
   50.7032   -5.2676   -3.8545 C   0  0  0  0  0  0  0  0  0  0  0  0
   51.2805   -6.3573   -3.0115 C   0  0  0  0  0  0  0  0  0  0  0  0
   52.0748   -7.3731   -3.7852 C   0  0  0  0  0  0  0  0  0  0  0  0
   53.1166   -6.6679   -4.6637 C   0  0  0  0  0  0  0  0  0  0  0  0
   52.1366   -5.8591   -1.9548 N   0  0  0  0  0  0  0  0  0  0  0  0
   52.8496   -6.6593   -1.0629 C   0  0  0  0  0  0  0  0  0  0  0  0
   52.7806   -7.9056   -1.1357 O   0  0  0  0  0  0  0  0  0  0  0  0
   52.1966   -4.8008   -1.8888 H   0  0  0  0  0  0  0  0  0  0  0  0
   53.6887   -6.0705   -0.0291 C   0  0  0  0  0  0  0  0  0  0  0  0
   54.4281   -5.0060   -0.2499 C   0  0  0  0  0  0  0  0  0  0  0  0
  1  2  1  0  0  0
  2  3  2  0  0  0
  3  4  1  0  0  0
  4  5  2  0  0  0
  5  6  1  0  0  0
  6  7  1  0  0  0
  7  8  1  0  0  0
  8  9  2  0  0  0
  9 13  1  0  0  0
 13 14  2  0  0  0
 14 15  1  0  0  0
 15 16  2  0  0  0
 16 19  1  0  0  0
 19 20  1  0  0  0
 20 21  2  0  0  0
 21 22  1  0  0  0
 22 23  2  0  0  0
 23 24  1  0  0  0
 24 25  2  0  0  0
 16 17  1  0  0  0
 17 18  2  0  0  0
  9 10  1  0  0  0
  7 26  1  0  0  0
 26 27  1  0  0  0
 27 28  1  0  0  0
 28 29  1  0  0  0
 29 30  1  0  0  0
 30 31  1  0  0  0
 29 32  1  0  0  0
 32 33  1  0  0  0
 33 34  2  0  0  0
 33 36  1  0  0  0
 36 37  2  0  0  0
 10  2  1  0  0  0
 31 26  1  0  0  0
 10  6  2  0  0  0
 18 13  1  0  0  0
 25 20  1  0  0  0
  1 11  1  0  0  0
  1 12  1  0  0  0
 32 35  1  0  0  0
M  END
> <minimizedAffinity>
-7.78179

> <CNNscore>
0.5204257965

> <CNNaffinity>
7.2381544113

> <CNN_VS>
3.7669222355

> <CNNaffinity_variance>
0.1931609809

$$$$
[H]C([H])=C([H])C(=O)N([H])[C@]1([H])C([H])([H])C([H])([H])[C@]([H])(n2nc(-c3c([H])c([H])c(Oc4c([H])c([H])c([H])c([H])c4[H])c([H])c3[H])c3c(N([H])[H])nc([H])nc32)C([H])([H])C1([H])[H]


 37 41  0  0  0  0  0  0  0  0999 V2000
   52.7728   -3.0262   -9.4034 N   0  0  0  0  0  0  0  0  0  0  0  0
   52.4744   -3.6176   -8.1588 C   0  0  0  0  0  0  0  0  0  0  0  0
   51.2760   -3.4133   -7.5712 N   0  0  0  0  0  0  0  0  0  0  0  0
   50.9585   -3.9963   -6.4011 C   0  0  0  0  0  0  0  0  0  0  0  0
   51.8259   -4.8067   -5.7722 N   0  0  0  0  0  0  0  0  0  0  0  0
   53.0460   -5.0538   -6.3072 C   0  0  0  0  0  0  0  0  0  0  0  0
   54.0680   -5.8241   -5.8882 N   0  0  0  0  0  0  0  0  0  0  0  0
   55.0055   -5.7253   -6.7714 N   0  0  0  0  0  0  0  0  0  0  0  0
   54.6480   -4.8982   -7.7945 C   0  0  0  0  0  0  0  0  0  0  0  0
   53.3815   -4.4483   -7.5243 C   0  0  0  0  0  0  0  0  0  0  0  0
   52.9548   -2.0095   -9.4572 H   0  0  0  0  0  0  0  0  0  0  0  0
   52.8107   -3.6008  -10.2607 H   0  0  0  0  0  0  0  0  0  0  0  0
   55.4610   -4.5949   -8.9601 C   0  0  0  0  0  0  0  0  0  0  0  0
   55.0150   -4.0197  -10.1233 C   0  0  0  0  0  0  0  0  0  0  0  0
   55.8577   -3.7872  -11.2049 C   0  0  0  0  0  0  0  0  0  0  0  0
   57.1919   -4.1239  -11.1625 C   0  0  0  0  0  0  0  0  0  0  0  0
   57.6640   -4.7017  -10.0057 C   0  0  0  0  0  0  0  0  0  0  0  0
   56.8276   -4.9297   -8.9407 C   0  0  0  0  0  0  0  0  0  0  0  0
   58.0300   -3.8844  -12.2581 O   0  0  0  0  0  0  0  0  0  0  0  0
   57.5273   -3.9717  -13.5269 C   0  0  0  0  0  0  0  0  0  0  0  0
   56.4437   -4.7721  -13.8225 C   0  0  0  0  0  0  0  0  0  0  0  0
   55.9511   -4.8479  -15.1047 C   0  0  0  0  0  0  0  0  0  0  0  0
   56.5585   -4.1112  -16.0868 C   0  0  0  0  0  0  0  0  0  0  0  0
   57.6296   -3.3181  -15.8031 C   0  0  0  0  0  0  0  0  0  0  0  0
   58.1285   -3.2363  -14.5238 C   0  0  0  0  0  0  0  0  0  0  0  0
   54.0786   -6.6069   -4.6660 C   0  0  0  0  0  0  0  0  0  0  0  0
   54.4283   -5.6996   -3.5434 C   0  0  0  0  0  0  0  0  0  0  0  0
   54.6196   -6.3430   -2.2117 C   0  0  0  0  0  0  0  0  0  0  0  0
   55.2748   -7.6850   -2.2433 C   0  0  0  0  0  0  0  0  0  0  0  0
   54.9119   -8.5144   -3.4440 C   0  0  0  0  0  0  0  0  0  0  0  0
   55.1271   -7.7027   -4.7283 C   0  0  0  0  0  0  0  0  0  0  0  0
   56.7204   -7.6080   -2.1974 N   0  0  0  0  0  0  0  0  0  0  0  0
   57.5255   -8.2813   -1.2795 C   0  0  0  0  0  0  0  0  0  0  0  0
   57.0137   -9.0193   -0.4097 O   0  0  0  0  0  0  0  0  0  0  0  0
   57.1588   -6.9808   -2.9339 H   0  0  0  0  0  0  0  0  0  0  0  0
   58.9747   -8.1451   -1.3079 C   0  0  0  0  0  0  0  0  0  0  0  0
   59.5686   -7.0880   -1.8164 C   0  0  0  0  0  0  0  0  0  0  0  0
  1  2  1  0  0  0
  2  3  2  0  0  0
  3  4  1  0  0  0
  4  5  2  0  0  0
  5  6  1  0  0  0
  6  7  1  0  0  0
  7  8  1  0  0  0
  8  9  2  0  0  0
  9 13  1  0  0  0
 13 14  2  0  0  0
 14 15  1  0  0  0
 15 16  2  0  0  0
 16 19  1  0  0  0
 19 20  1  0  0  0
 20 21  2  0  0  0
 21 22  1  0  0  0
 22 23  2  0  0  0
 23 24  1  0  0  0
 24 25  2  0  0  0
 16 17  1  0  0  0
 17 18  2  0  0  0
  9 10  1  0  0  0
  7 26  1  0  0  0
 26 27  1  0  0  0
 27 28  1  0  0  0
 28 29  1  0  0  0
 29 30  1  0  0  0
 30 31  1  0  0  0
 29 32  1  0  0  0
 32 33  1  0  0  0
 33 34  2  0  0  0
 33 36  1  0  0  0
 36 37  2  0  0  0
 10  2  1  0  0  0
 31 26  1  0  0  0
 10  6  2  0  0  0
 18 13  1  0  0  0
 25 20  1  0  0  0
  1 11  1  0  0  0
  1 12  1  0  0  0
 32 35  1  0  0  0
M  END
> <minimizedAffinity>
-9.52639

> <CNNscore>
0.4853987396

> <CNNaffinity>
7.3113508224

> <CNN_VS>
3.5489203930

> <CNNaffinity_variance>
0.1836644560

$$$$
[H]C([H])=C([H])C(=O)N([H])[C@]1([H])C([H])([H])C([H])([H])[C@]([H])(n2nc(-c3c([H])c([H])c(Oc4c([H])c([H])c([H])c([H])c4[H])c([H])c3[H])c3c(N([H])[H])nc([H])nc32)C([H])([H])C1([H])[H]


 37 41  0  0  0  0  0  0  0  0999 V2000
   54.1756   -3.5707  -10.1183 N   0  0  0  0  0  0  0  0  0  0  0  0
   53.6568   -3.9114   -8.8524 C   0  0  0  0  0  0  0  0  0  0  0  0
   52.3762   -3.6238   -8.5351 N   0  0  0  0  0  0  0  0  0  0  0  0
   51.8517   -3.9713   -7.3460 C   0  0  0  0  0  0  0  0  0  0  0  0
   52.5862   -4.6202   -6.4271 N   0  0  0  0  0  0  0  0  0  0  0  0
   53.8784   -4.9387   -6.6814 C   0  0  0  0  0  0  0  0  0  0  0  0
   54.8023   -5.5861   -5.9460 N   0  0  0  0  0  0  0  0  0  0  0  0
   55.8814   -5.6414   -6.6541 N   0  0  0  0  0  0  0  0  0  0  0  0
   55.7182   -5.0418   -7.8676 C   0  0  0  0  0  0  0  0  0  0  0  0
   54.4291   -4.5780   -7.9172 C   0  0  0  0  0  0  0  0  0  0  0  0
   54.3755   -2.5808  -10.3408 H   0  0  0  0  0  0  0  0  0  0  0  0
   54.3569   -4.3025  -10.8242 H   0  0  0  0  0  0  0  0  0  0  0  0
   56.7265   -4.9556   -8.9105 C   0  0  0  0  0  0  0  0  0  0  0  0
   56.5492   -4.4089  -10.1564 C   0  0  0  0  0  0  0  0  0  0  0  0
   57.5631   -4.3905  -11.1081 C   0  0  0  0  0  0  0  0  0  0  0  0
   58.8052   -4.9228  -10.8460 C   0  0  0  0  0  0  0  0  0  0  0  0
   59.0086   -5.4766   -9.6021 C   0  0  0  0  0  0  0  0  0  0  0  0
   58.0039   -5.4927   -8.6661 C   0  0  0  0  0  0  0  0  0  0  0  0
   59.8178   -4.8980  -11.8125 O   0  0  0  0  0  0  0  0  0  0  0  0
   61.0005   -5.5407  -11.5706 C   0  0  0  0  0  0  0  0  0  0  0  0
   62.0294   -5.5328  -12.4889 C   0  0  0  0  0  0  0  0  0  0  0  0
   63.2125   -6.1849  -12.2290 C   0  0  0  0  0  0  0  0  0  0  0  0
   63.3510   -6.8449  -11.0367 C   0  0  0  0  0  0  0  0  0  0  0  0
   62.3392   -6.8576  -10.1242 C   0  0  0  0  0  0  0  0  0  0  0  0
   61.1530   -6.2082  -10.3760 C   0  0  0  0  0  0  0  0  0  0  0  0
   54.5895   -6.1112   -4.6097 C   0  0  0  0  0  0  0  0  0  0  0  0
   55.5784   -5.4735   -3.7036 C   0  0  0  0  0  0  0  0  0  0  0  0
   55.6092   -5.9801   -2.3013 C   0  0  0  0  0  0  0  0  0  0  0  0
   55.3843   -7.4493   -2.1520 C   0  0  0  0  0  0  0  0  0  0  0  0
   54.4144   -8.0236   -3.1474 C   0  0  0  0  0  0  0  0  0  0  0  0
   54.8154   -7.6117   -4.5701 C   0  0  0  0  0  0  0  0  0  0  0  0
   56.6066   -8.2198   -2.2518 N   0  0  0  0  0  0  0  0  0  0  0  0
   57.2105   -8.8970   -1.1931 C   0  0  0  0  0  0  0  0  0  0  0  0
   56.7015   -8.8700   -0.0513 O   0  0  0  0  0  0  0  0  0  0  0  0
   57.0428   -8.2439   -3.2199 H   0  0  0  0  0  0  0  0  0  0  0  0
   58.4418   -9.6494   -1.3857 C   0  0  0  0  0  0  0  0  0  0  0  0
   58.8976  -10.4891   -0.4824 C   0  0  0  0  0  0  0  0  0  0  0  0
  1  2  1  0  0  0
  2  3  2  0  0  0
  3  4  1  0  0  0
  4  5  2  0  0  0
  5  6  1  0  0  0
  6  7  1  0  0  0
  7  8  1  0  0  0
  8  9  2  0  0  0
  9 13  1  0  0  0
 13 14  2  0  0  0
 14 15  1  0  0  0
 15 16  2  0  0  0
 16 19  1  0  0  0
 19 20  1  0  0  0
 20 21  2  0  0  0
 21 22  1  0  0  0
 22 23  2  0  0  0
 23 24  1  0  0  0
 24 25  2  0  0  0
 16 17  1  0  0  0
 17 18  2  0  0  0
  9 10  1  0  0  0
  7 26  1  0  0  0
 26 27  1  0  0  0
 27 28  1  0  0  0
 28 29  1  0  0  0
 29 30  1  0  0  0
 30 31  1  0  0  0
 29 32  1  0  0  0
 32 33  1  0  0  0
 33 34  2  0  0  0
 33 36  1  0  0  0
 36 37  2  0  0  0
 10  2  1  0  0  0
 31 26  1  0  0  0
 10  6  2  0  0  0
 18 13  1  0  0  0
 25 20  1  0  0  0
  1 11  1  0  0  0
  1 12  1  0  0  0
 32 35  1  0  0  0
M  END
> <minimizedAffinity>
-7.11049

> <CNNscore>
0.4517295063

> <CNNaffinity>
6.9252357483

> <CNN_VS>
3.1283333302

> <CNNaffinity_variance>
0.3932497501

$$$$
[H]C([H])=C([H])C(=O)N([H])[C@]1([H])C([H])([H])C([H])([H])[C@]([H])(n2nc(-c3c([H])c([H])c(Oc4c([H])c([H])c([H])c([H])c4[H])c([H])c3[H])c3c(N([H])[H])nc([H])nc32)C([H])([H])C1([H])[H]


 37 41  0  0  0  0  0  0  0  0999 V2000
   53.7719   -3.2210  -10.7011 N   0  0  0  0  0  0  0  0  0  0  0  0
   53.5201   -3.5852   -9.3625 C   0  0  0  0  0  0  0  0  0  0  0  0
   52.3080   -3.3686   -8.8084 N   0  0  0  0  0  0  0  0  0  0  0  0
   52.0365   -3.7404   -7.5443 C   0  0  0  0  0  0  0  0  0  0  0  0
   52.9656   -4.3436   -6.7841 N   0  0  0  0  0  0  0  0  0  0  0  0
   54.2027   -4.5902   -7.2788 C   0  0  0  0  0  0  0  0  0  0  0  0
   55.2830   -5.1818   -6.7345 N   0  0  0  0  0  0  0  0  0  0  0  0
   56.2111   -5.1794   -7.6330 N   0  0  0  0  0  0  0  0  0  0  0  0
   55.7897   -4.5946   -8.7901 C   0  0  0  0  0  0  0  0  0  0  0  0
   54.4903   -4.2039   -8.5936 C   0  0  0  0  0  0  0  0  0  0  0  0
   53.8710   -2.2222  -10.9504 H   0  0  0  0  0  0  0  0  0  0  0  0
   53.8579   -3.9441  -11.4334 H   0  0  0  0  0  0  0  0  0  0  0  0
   56.5776   -4.4560  -10.0032 C   0  0  0  0  0  0  0  0  0  0  0  0
   56.2110   -3.7541  -11.1237 C   0  0  0  0  0  0  0  0  0  0  0  0
   57.0160   -3.6939  -12.2561 C   0  0  0  0  0  0  0  0  0  0  0  0
   58.2306   -4.3395  -12.3102 C   0  0  0  0  0  0  0  0  0  0  0  0
   58.6215   -5.0500  -11.1978 C   0  0  0  0  0  0  0  0  0  0  0  0
   57.8227   -5.1067  -10.0823 C   0  0  0  0  0  0  0  0  0  0  0  0
   59.0320   -4.2711  -13.4562 O   0  0  0  0  0  0  0  0  0  0  0  0
   60.1271   -3.4520  -13.4686 C   0  0  0  0  0  0  0  0  0  0  0  0
   60.0928   -2.1897  -12.9142 C   0  0  0  0  0  0  0  0  0  0  0  0
   61.2040   -1.3789  -12.9357 C   0  0  0  0  0  0  0  0  0  0  0  0
   62.3500   -1.8498  -13.5200 C   0  0  0  0  0  0  0  0  0  0  0  0
   62.3920   -3.0957  -14.0700 C   0  0  0  0  0  0  0  0  0  0  0  0
   61.2856   -3.9129  -14.0528 C   0  0  0  0  0  0  0  0  0  0  0  0
   55.3547   -5.7129   -5.3855 C   0  0  0  0  0  0  0  0  0  0  0  0
   56.1735   -4.7811   -4.5689 C   0  0  0  0  0  0  0  0  0  0  0  0
   56.4762   -5.2185   -3.1756 C   0  0  0  0  0  0  0  0  0  0  0  0
   56.7253   -6.6820   -3.0097 C   0  0  0  0  0  0  0  0  0  0  0  0
   55.8976   -7.5498   -3.9169 C   0  0  0  0  0  0  0  0  0  0  0  0
   56.0317   -7.0714   -5.3686 C   0  0  0  0  0  0  0  0  0  0  0  0
   58.1119   -7.0451   -3.2180 N   0  0  0  0  0  0  0  0  0  0  0  0
   59.1011   -7.0100   -2.2360 C   0  0  0  0  0  0  0  0  0  0  0  0
   58.8256   -6.6455   -1.0722 O   0  0  0  0  0  0  0  0  0  0  0  0
   58.3501   -7.3539   -4.2059 H   0  0  0  0  0  0  0  0  0  0  0  0
   60.4729   -7.3943   -2.5359 C   0  0  0  0  0  0  0  0  0  0  0  0
   60.7987   -8.0155   -3.6479 C   0  0  0  0  0  0  0  0  0  0  0  0
  1  2  1  0  0  0
  2  3  2  0  0  0
  3  4  1  0  0  0
  4  5  2  0  0  0
  5  6  1  0  0  0
  6  7  1  0  0  0
  7  8  1  0  0  0
  8  9  2  0  0  0
  9 13  1  0  0  0
 13 14  2  0  0  0
 14 15  1  0  0  0
 15 16  2  0  0  0
 16 19  1  0  0  0
 19 20  1  0  0  0
 20 21  2  0  0  0
 21 22  1  0  0  0
 22 23  2  0  0  0
 23 24  1  0  0  0
 24 25  2  0  0  0
 16 17  1  0  0  0
 17 18  2  0  0  0
  9 10  1  0  0  0
  7 26  1  0  0  0
 26 27  1  0  0  0
 27 28  1  0  0  0
 28 29  1  0  0  0
 29 30  1  0  0  0
 30 31  1  0  0  0
 29 32  1  0  0  0
 32 33  1  0  0  0
 33 34  2  0  0  0
 33 36  1  0  0  0
 36 37  2  0  0  0
 10  2  1  0  0  0
 31 26  1  0  0  0
 10  6  2  0  0  0
 18 13  1  0  0  0
 25 20  1  0  0  0
  1 11  1  0  0  0
  1 12  1  0  0  0
 32 35  1  0  0  0
M  END
> <minimizedAffinity>
-5.96996

> <CNNscore>
0.4400997758

> <CNNaffinity>
6.7583532333

> <CNN_VS>
2.9743497372

> <CNNaffinity_variance>
0.2405534983

$$$$
[H]C([H])=C([H])C(=O)N([H])[C@]1([H])C([H])([H])C([H])([H])[C@]([H])(n2nc(-c3c([H])c([H])c(Oc4c([H])c([H])c([H])c([H])c4[H])c([H])c3[H])c3c(N([H])[H])nc([H])nc32)C([H])([H])C1([H])[H]


 37 41  0  0  0  0  0  0  0  0999 V2000
   52.5062   -2.7908   -9.4556 N   0  0  0  0  0  0  0  0  0  0  0  0
   52.3098   -3.4243   -8.2114 C   0  0  0  0  0  0  0  0  0  0  0  0
   51.1694   -3.2310   -7.5148 N   0  0  0  0  0  0  0  0  0  0  0  0
   50.9476   -3.8533   -6.3429 C   0  0  0  0  0  0  0  0  0  0  0  0
   51.8567   -4.6935   -5.8209 N   0  0  0  0  0  0  0  0  0  0  0  0
   53.0228   -4.9316   -6.4686 C   0  0  0  0  0  0  0  0  0  0  0  0
   54.0681   -5.7255   -6.1677 N   0  0  0  0  0  0  0  0  0  0  0  0
   54.9266   -5.6029   -7.1251 N   0  0  0  0  0  0  0  0  0  0  0  0
   54.4916   -4.7362   -8.0832 C   0  0  0  0  0  0  0  0  0  0  0  0
   53.2587   -4.2853   -7.6881 C   0  0  0  0  0  0  0  0  0  0  0  0
   52.6948   -1.7745   -9.4890 H   0  0  0  0  0  0  0  0  0  0  0  0
   52.4628   -3.3342  -10.3327 H   0  0  0  0  0  0  0  0  0  0  0  0
   55.2039   -4.3979   -9.3038 C   0  0  0  0  0  0  0  0  0  0  0  0
   56.4765   -3.8903   -9.3771 C   0  0  0  0  0  0  0  0  0  0  0  0
   57.0765   -3.5679  -10.5896 C   0  0  0  0  0  0  0  0  0  0  0  0
   56.4194   -3.7440  -11.7864 C   0  0  0  0  0  0  0  0  0  0  0  0
   55.1412   -4.2530  -11.7395 C   0  0  0  0  0  0  0  0  0  0  0  0
   54.5532   -4.5693  -10.5396 C   0  0  0  0  0  0  0  0  0  0  0  0
   57.0344   -3.4157  -13.0005 O   0  0  0  0  0  0  0  0  0  0  0  0
   58.3762   -3.6276  -13.1589 C   0  0  0  0  0  0  0  0  0  0  0  0
   59.1214   -4.2905  -12.2064 C   0  0  0  0  0  0  0  0  0  0  0  0
   60.4704   -4.4948  -12.3821 C   0  0  0  0  0  0  0  0  0  0  0  0
   61.0628   -4.0261  -13.5248 C   0  0  0  0  0  0  0  0  0  0  0  0
   60.3336   -3.3701  -14.4706 C   0  0  0  0  0  0  0  0  0  0  0  0
   58.9843   -3.1616  -14.3030 C   0  0  0  0  0  0  0  0  0  0  0  0
   54.1754   -6.5522   -4.9794 C   0  0  0  0  0  0  0  0  0  0  0  0
   54.4433   -5.6599   -3.8228 C   0  0  0  0  0  0  0  0  0  0  0  0
   54.7172   -6.3338   -2.5208 C   0  0  0  0  0  0  0  0  0  0  0  0
   55.5076   -7.5978   -2.6142 C   0  0  0  0  0  0  0  0  0  0  0  0
   55.2175   -8.4108   -3.8456 C   0  0  0  0  0  0  0  0  0  0  0  0
   55.3310   -7.5294   -5.0964 C   0  0  0  0  0  0  0  0  0  0  0  0
   56.9379   -7.3726   -2.5772 N   0  0  0  0  0  0  0  0  0  0  0  0
   57.8901   -8.3444   -2.2724 C   0  0  0  0  0  0  0  0  0  0  0  0
   57.5381   -9.5135   -2.0029 O   0  0  0  0  0  0  0  0  0  0  0  0
   57.2407   -6.3802   -2.8042 H   0  0  0  0  0  0  0  0  0  0  0  0
   59.3110   -8.0277   -2.2596 C   0  0  0  0  0  0  0  0  0  0  0  0
   59.9499   -7.6330   -3.3388 C   0  0  0  0  0  0  0  0  0  0  0  0
  1  2  1  0  0  0
  2  3  2  0  0  0
  3  4  1  0  0  0
  4  5  2  0  0  0
  5  6  1  0  0  0
  6  7  1  0  0  0
  7  8  1  0  0  0
  8  9  2  0  0  0
  9 13  1  0  0  0
 13 14  2  0  0  0
 14 15  1  0  0  0
 15 16  2  0  0  0
 16 19  1  0  0  0
 19 20  1  0  0  0
 20 21  2  0  0  0
 21 22  1  0  0  0
 22 23  2  0  0  0
 23 24  1  0  0  0
 24 25  2  0  0  0
 16 17  1  0  0  0
 17 18  2  0  0  0
  9 10  1  0  0  0
  7 26  1  0  0  0
 26 27  1  0  0  0
 27 28  1  0  0  0
 28 29  1  0  0  0
 29 30  1  0  0  0
 30 31  1  0  0  0
 29 32  1  0  0  0
 32 33  1  0  0  0
 33 34  2  0  0  0
 33 36  1  0  0  0
 36 37  2  0  0  0
 10  2  1  0  0  0
 31 26  1  0  0  0
 10  6  2  0  0  0
 18 13  1  0  0  0
 25 20  1  0  0  0
  1 11  1  0  0  0
  1 12  1  0  0  0
 32 35  1  0  0  0
M  END
> <minimizedAffinity>
-6.13800

> <CNNscore>
0.4138700366

> <CNNaffinity>
6.9846434593

> <CNN_VS>
2.8907346725

> <CNNaffinity_variance>
0.3871410787

$$$$
[H]C([H])=C([H])C(=O)N([H])[C@]1([H])C([H])([H])C([H])([H])[C@]([H])(n2nc(-c3c([H])c([H])c(Oc4c([H])c([H])c([H])c([H])c4[H])c([H])c3[H])c3c(N([H])[H])nc([H])nc32)C([H])([H])C1([H])[H]


 37 41  0  0  0  0  0  0  0  0999 V2000
   49.4647   -2.7730   -7.0584 N   0  0  0  0  0  0  0  0  0  0  0  0
   49.2981   -3.3674   -5.7908 C   0  0  0  0  0  0  0  0  0  0  0  0
   48.1650   -3.1701   -5.0834 N   0  0  0  0  0  0  0  0  0  0  0  0
   47.9718   -3.7560   -3.8879 C   0  0  0  0  0  0  0  0  0  0  0  0
   48.9032   -4.5624   -3.3522 N   0  0  0  0  0  0  0  0  0  0  0  0
   50.0635   -4.8024   -4.0096 C   0  0  0  0  0  0  0  0  0  0  0  0
   51.1270   -5.5676   -3.6985 N   0  0  0  0  0  0  0  0  0  0  0  0
   51.9688   -5.4629   -4.6727 N   0  0  0  0  0  0  0  0  0  0  0  0
   51.5043   -4.6367   -5.6526 C   0  0  0  0  0  0  0  0  0  0  0  0
   50.2697   -4.1938   -5.2536 C   0  0  0  0  0  0  0  0  0  0  0  0
   49.6348   -1.7554   -7.1290 H   0  0  0  0  0  0  0  0  0  0  0  0
   49.4178   -3.3466   -7.9160 H   0  0  0  0  0  0  0  0  0  0  0  0
   52.1922   -4.3278   -6.8947 C   0  0  0  0  0  0  0  0  0  0  0  0
   52.1169   -3.1426   -7.5818 C   0  0  0  0  0  0  0  0  0  0  0  0
   52.7893   -2.9383   -8.7819 C   0  0  0  0  0  0  0  0  0  0  0  0
   53.5710   -3.9218   -9.3447 C   0  0  0  0  0  0  0  0  0  0  0  0
   53.6635   -5.1203   -8.6738 C   0  0  0  0  0  0  0  0  0  0  0  0
   52.9971   -5.3171   -7.4894 C   0  0  0  0  0  0  0  0  0  0  0  0
   54.2431   -3.7037  -10.5534 O   0  0  0  0  0  0  0  0  0  0  0  0
   55.5503   -4.0851  -10.6794 C   0  0  0  0  0  0  0  0  0  0  0  0
   56.3056   -4.4526   -9.5856 C   0  0  0  0  0  0  0  0  0  0  0  0
   57.6195   -4.8334   -9.7308 C   0  0  0  0  0  0  0  0  0  0  0  0
   58.1666   -4.8412  -10.9866 C   0  0  0  0  0  0  0  0  0  0  0  0
   57.4272   -4.4795  -12.0724 C   0  0  0  0  0  0  0  0  0  0  0  0
   56.1128   -4.0974  -11.9362 C   0  0  0  0  0  0  0  0  0  0  0  0
   51.2666   -6.3516   -2.4849 C   0  0  0  0  0  0  0  0  0  0  0  0
   52.2875   -5.6946   -1.6295 C   0  0  0  0  0  0  0  0  0  0  0  0
   52.6720   -6.4226   -0.3860 C   0  0  0  0  0  0  0  0  0  0  0  0
   52.7333   -7.9096   -0.5141 C   0  0  0  0  0  0  0  0  0  0  0  0
   51.7030   -8.4859   -1.4455 C   0  0  0  0  0  0  0  0  0  0  0  0
   51.7480   -7.7574   -2.7952 C   0  0  0  0  0  0  0  0  0  0  0  0
   54.0269   -8.3842   -0.9604 N   0  0  0  0  0  0  0  0  0  0  0  0
   55.2419   -7.7534   -0.6958 C   0  0  0  0  0  0  0  0  0  0  0  0
   55.2748   -6.6964   -0.0288 O   0  0  0  0  0  0  0  0  0  0  0  0
   54.0029   -9.2811   -1.5286 H   0  0  0  0  0  0  0  0  0  0  0  0
   56.4977   -8.3038   -1.1852 C   0  0  0  0  0  0  0  0  0  0  0  0
   57.6319   -7.6443   -1.0988 C   0  0  0  0  0  0  0  0  0  0  0  0
  1  2  1  0  0  0
  2  3  2  0  0  0
  3  4  1  0  0  0
  4  5  2  0  0  0
  5  6  1  0  0  0
  6  7  1  0  0  0
  7  8  1  0  0  0
  8  9  2  0  0  0
  9 13  1  0  0  0
 13 14  2  0  0  0
 14 15  1  0  0  0
 15 16  2  0  0  0
 16 19  1  0  0  0
 19 20  1  0  0  0
 20 21  2  0  0  0
 21 22  1  0  0  0
 22 23  2  0  0  0
 23 24  1  0  0  0
 24 25  2  0  0  0
 16 17  1  0  0  0
 17 18  2  0  0  0
  9 10  1  0  0  0
  7 26  1  0  0  0
 26 27  1  0  0  0
 27 28  1  0  0  0
 28 29  1  0  0  0
 29 30  1  0  0  0
 30 31  1  0  0  0
 29 32  1  0  0  0
 32 33  1  0  0  0
 33 34  2  0  0  0
 33 36  1  0  0  0
 36 37  2  0  0  0
 10  2  1  0  0  0
 31 26  1  0  0  0
 10  6  2  0  0  0
 18 13  1  0  0  0
 25 20  1  0  0  0
  1 11  1  0  0  0
  1 12  1  0  0  0
 32 35  1  0  0  0
M  END
> <minimizedAffinity>
-9.43387

> <CNNscore>
0.4112359285

> <CNNaffinity>
7.5167031288

> <CNN_VS>
3.0911383629

> <CNNaffinity_variance>
0.2378931046

$$$$
[H]C([H])=C([H])C(=O)N([H])[C@]1([H])C([H])([H])C([H])([H])[C@]([H])(n2nc(-c3c([H])c([H])c(Oc4c([H])c([H])c([H])c([H])c4[H])c([H])c3[H])c3c(N([H])[H])nc([H])nc32)C([H])([H])C1([H])[H]


 37 41  0  0  0  0  0  0  0  0999 V2000
   54.0167   -3.1085  -10.2064 N   0  0  0  0  0  0  0  0  0  0  0  0
   53.6133   -3.6618   -8.9739 C   0  0  0  0  0  0  0  0  0  0  0  0
   52.3738   -3.4309   -8.4905 N   0  0  0  0  0  0  0  0  0  0  0  0
   51.9574   -3.9777   -7.3340 C   0  0  0  0  0  0  0  0  0  0  0  0
   52.7632   -4.7769   -6.6150 N   0  0  0  0  0  0  0  0  0  0  0  0
   54.0196   -5.0491   -7.0431 C   0  0  0  0  0  0  0  0  0  0  0  0
   54.9966   -5.8154   -6.5220 N   0  0  0  0  0  0  0  0  0  0  0  0
   56.0029   -5.7496   -7.3293 N   0  0  0  0  0  0  0  0  0  0  0  0
   55.7373   -4.9491   -8.4004 C   0  0  0  0  0  0  0  0  0  0  0  0
   54.4579   -4.4813   -8.2456 C   0  0  0  0  0  0  0  0  0  0  0  0
   54.2130   -2.0953  -10.2736 H   0  0  0  0  0  0  0  0  0  0  0  0
   54.1172   -3.7077  -11.0416 H   0  0  0  0  0  0  0  0  0  0  0  0
   56.6441   -4.6859   -9.5049 C   0  0  0  0  0  0  0  0  0  0  0  0
   57.8770   -5.2599   -9.6867 C   0  0  0  0  0  0  0  0  0  0  0  0
   58.6958   -4.9309  -10.7615 C   0  0  0  0  0  0  0  0  0  0  0  0
   58.3075   -4.0067  -11.7049 C   0  0  0  0  0  0  0  0  0  0  0  0
   57.0738   -3.4171  -11.5453 C   0  0  0  0  0  0  0  0  0  0  0  0
   56.2694   -3.7450  -10.4819 C   0  0  0  0  0  0  0  0  0  0  0  0
   59.1409   -3.6841  -12.7827 O   0  0  0  0  0  0  0  0  0  0  0  0
   60.3690   -4.2764  -12.8897 C   0  0  0  0  0  0  0  0  0  0  0  0
   60.8212   -5.1793  -11.9505 C   0  0  0  0  0  0  0  0  0  0  0  0
   62.0596   -5.7656  -12.0740 C   0  0  0  0  0  0  0  0  0  0  0  0
   62.8387   -5.4352  -13.1510 C   0  0  0  0  0  0  0  0  0  0  0  0
   62.3993   -4.5440  -14.0834 C   0  0  0  0  0  0  0  0  0  0  0  0
   61.1624   -3.9532  -13.9676 C   0  0  0  0  0  0  0  0  0  0  0  0
   54.9010   -6.5631   -5.2816 C   0  0  0  0  0  0  0  0  0  0  0  0
   54.3574   -5.6551   -4.2397 C   0  0  0  0  0  0  0  0  0  0  0  0
   54.3047   -6.2009   -2.8528 C   0  0  0  0  0  0  0  0  0  0  0  0
   55.4518   -7.0787   -2.4721 C   0  0  0  0  0  0  0  0  0  0  0  0
   55.9790   -7.9201   -3.6015 C   0  0  0  0  0  0  0  0  0  0  0  0
   56.2679   -7.0385   -4.8236 C   0  0  0  0  0  0  0  0  0  0  0  0
   56.5728   -6.3385   -1.9305 N   0  0  0  0  0  0  0  0  0  0  0  0
   56.7978   -4.9765   -2.1267 C   0  0  0  0  0  0  0  0  0  0  0  0
   56.0048   -4.2959   -2.8130 O   0  0  0  0  0  0  0  0  0  0  0  0
   57.2496   -6.9136   -1.3481 H   0  0  0  0  0  0  0  0  0  0  0  0
   57.9543   -4.3131   -1.5420 C   0  0  0  0  0  0  0  0  0  0  0  0
   58.9978   -4.9823   -1.1038 C   0  0  0  0  0  0  0  0  0  0  0  0
  1  2  1  0  0  0
  2  3  2  0  0  0
  3  4  1  0  0  0
  4  5  2  0  0  0
  5  6  1  0  0  0
  6  7  1  0  0  0
  7  8  1  0  0  0
  8  9  2  0  0  0
  9 13  1  0  0  0
 13 14  2  0  0  0
 14 15  1  0  0  0
 15 16  2  0  0  0
 16 19  1  0  0  0
 19 20  1  0  0  0
 20 21  2  0  0  0
 21 22  1  0  0  0
 22 23  2  0  0  0
 23 24  1  0  0  0
 24 25  2  0  0  0
 16 17  1  0  0  0
 17 18  2  0  0  0
  9 10  1  0  0  0
  7 26  1  0  0  0
 26 27  1  0  0  0
 27 28  1  0  0  0
 28 29  1  0  0  0
 29 30  1  0  0  0
 30 31  1  0  0  0
 29 32  1  0  0  0
 32 33  1  0  0  0
 33 34  2  0  0  0
 33 36  1  0  0  0
 36 37  2  0  0  0
 10  2  1  0  0  0
 31 26  1  0  0  0
 10  6  2  0  0  0
 18 13  1  0  0  0
 25 20  1  0  0  0
  1 11  1  0  0  0
  1 12  1  0  0  0
 32 35  1  0  0  0
M  END
> <minimizedAffinity>
-7.16777

> <CNNscore>
0.4078024328

> <CNNaffinity>
6.8392281532

> <CNN_VS>
2.7890539169

> <CNNaffinity_variance>
0.3364176452

$$$$
[H]C([H])=C([H])C(=O)N([H])[C@]1([H])C([H])([H])C([H])([H])[C@]([H])(n2nc(-c3c([H])c([H])c(Oc4c([H])c([H])c([H])c([H])c4[H])c([H])c3[H])c3c(N([H])[H])nc([H])nc32)C([H])([H])C1([H])[H]


 37 41  0  0  0  0  0  0  0  0999 V2000
   52.0777   -3.1522   -9.5563 N   0  0  0  0  0  0  0  0  0  0  0  0
   51.3699   -3.2762   -8.3432 C   0  0  0  0  0  0  0  0  0  0  0  0
   50.0774   -2.8942   -8.2603 N   0  0  0  0  0  0  0  0  0  0  0  0
   49.3742   -3.0365   -7.1223 C   0  0  0  0  0  0  0  0  0  0  0  0
   49.9348   -3.5663   -6.0223 N   0  0  0  0  0  0  0  0  0  0  0  0
   51.2282   -3.9696   -6.0374 C   0  0  0  0  0  0  0  0  0  0  0  0
   52.0015   -4.5331   -5.0898 N   0  0  0  0  0  0  0  0  0  0  0  0
   53.1625   -4.7372   -5.6181 N   0  0  0  0  0  0  0  0  0  0  0  0
   53.2044   -4.3231   -6.9163 C   0  0  0  0  0  0  0  0  0  0  0  0
   51.9646   -3.8224   -7.2192 C   0  0  0  0  0  0  0  0  0  0  0  0
   52.3655   -2.2160   -9.8883 H   0  0  0  0  0  0  0  0  0  0  0  0
   52.3104   -3.9892  -10.1148 H   0  0  0  0  0  0  0  0  0  0  0  0
   54.3501   -4.4354   -7.8031 C   0  0  0  0  0  0  0  0  0  0  0  0
   54.5936   -3.6539   -8.9042 C   0  0  0  0  0  0  0  0  0  0  0  0
   55.7052   -3.8461   -9.7175 C   0  0  0  0  0  0  0  0  0  0  0  0
   56.6247   -4.8369   -9.4564 C   0  0  0  0  0  0  0  0  0  0  0  0
   56.4031   -5.6341   -8.3562 C   0  0  0  0  0  0  0  0  0  0  0  0
   55.3036   -5.4405   -7.5567 C   0  0  0  0  0  0  0  0  0  0  0  0
   57.7399   -5.0202  -10.2828 O   0  0  0  0  0  0  0  0  0  0  0  0
   57.7108   -4.5614  -11.5708 C   0  0  0  0  0  0  0  0  0  0  0  0
   56.5561   -4.5927  -12.3242 C   0  0  0  0  0  0  0  0  0  0  0  0
   56.5451   -4.1269  -13.6186 C   0  0  0  0  0  0  0  0  0  0  0  0
   57.7063   -3.6292  -14.1480 C   0  0  0  0  0  0  0  0  0  0  0  0
   58.8513   -3.5948  -13.4102 C   0  0  0  0  0  0  0  0  0  0  0  0
   58.8712   -4.0584  -12.1152 C   0  0  0  0  0  0  0  0  0  0  0  0
   51.5754   -4.8405   -3.7367 C   0  0  0  0  0  0  0  0  0  0  0  0
   52.7901   -5.0845   -2.9178 C   0  0  0  0  0  0  0  0  0  0  0  0
   52.5592   -5.5462   -1.5186 C   0  0  0  0  0  0  0  0  0  0  0  0
   51.4082   -6.4815   -1.3405 C   0  0  0  0  0  0  0  0  0  0  0  0
   50.2447   -6.1994   -2.2505 C   0  0  0  0  0  0  0  0  0  0  0  0
   50.7263   -6.0983   -3.7039 C   0  0  0  0  0  0  0  0  0  0  0  0
   51.7748   -7.8696   -1.5322 N   0  0  0  0  0  0  0  0  0  0  0  0
   50.9844   -8.9598   -1.1705 C   0  0  0  0  0  0  0  0  0  0  0  0
   49.8675   -8.7832   -0.6370 O   0  0  0  0  0  0  0  0  0  0  0  0
   52.7236   -8.0237   -1.9839 H   0  0  0  0  0  0  0  0  0  0  0  0
   51.4341  -10.3249   -1.4021 C   0  0  0  0  0  0  0  0  0  0  0  0
   51.6962  -11.1526   -0.4147 C   0  0  0  0  0  0  0  0  0  0  0  0
  1  2  1  0  0  0
  2  3  2  0  0  0
  3  4  1  0  0  0
  4  5  2  0  0  0
  5  6  1  0  0  0
  6  7  1  0  0  0
  7  8  1  0  0  0
  8  9  2  0  0  0
  9 13  1  0  0  0
 13 14  2  0  0  0
 14 15  1  0  0  0
 15 16  2  0  0  0
 16 19  1  0  0  0
 19 20  1  0  0  0
 20 21  2  0  0  0
 21 22  1  0  0  0
 22 23  2  0  0  0
 23 24  1  0  0  0
 24 25  2  0  0  0
 16 17  1  0  0  0
 17 18  2  0  0  0
  9 10  1  0  0  0
  7 26  1  0  0  0
 26 27  1  0  0  0
 27 28  1  0  0  0
 28 29  1  0  0  0
 29 30  1  0  0  0
 30 31  1  0  0  0
 29 32  1  0  0  0
 32 33  1  0  0  0
 33 34  2  0  0  0
 33 36  1  0  0  0
 36 37  2  0  0  0
 10  2  1  0  0  0
 31 26  1  0  0  0
 10  6  2  0  0  0
 18 13  1  0  0  0
 25 20  1  0  0  0
  1 11  1  0  0  0
  1 12  1  0  0  0
 32 35  1  0  0  0
M  END
> <minimizedAffinity>
-4.64935

> <CNNscore>
0.3884143829

> <CNNaffinity>
7.1616125107

> <CNN_VS>
2.7816731930

> <CNNaffinity_variance>
0.4269507825

$$$$
[H]C([H])=C([H])C(=O)N([H])[C@]1([H])C([H])([H])C([H])([H])[C@]([H])(n2nc(-c3c([H])c([H])c(Oc4c([H])c([H])c([H])c([H])c4[H])c([H])c3[H])c3c(N([H])[H])nc([H])nc32)C([H])([H])C1([H])[H]


 37 41  0  0  0  0  0  0  0  0999 V2000
   54.5871   -2.7092  -10.1798 N   0  0  0  0  0  0  0  0  0  0  0  0
   54.3716   -3.4140   -8.9778 C   0  0  0  0  0  0  0  0  0  0  0  0
   53.3339   -3.0987   -8.1736 N   0  0  0  0  0  0  0  0  0  0  0  0
   53.0902   -3.7815   -7.0403 C   0  0  0  0  0  0  0  0  0  0  0  0
   53.8739   -4.8065   -6.6661 N   0  0  0  0  0  0  0  0  0  0  0  0
   54.9326   -5.1746   -7.4276 C   0  0  0  0  0  0  0  0  0  0  0  0
   55.8426   -6.1563   -7.2809 N   0  0  0  0  0  0  0  0  0  0  0  0
   56.6400   -6.0903   -8.2951 N   0  0  0  0  0  0  0  0  0  0  0  0
   56.2958   -5.0778   -9.1407 C   0  0  0  0  0  0  0  0  0  0  0  0
   55.1908   -4.4662   -8.6074 C   0  0  0  0  0  0  0  0  0  0  0  0
   54.9466   -1.7400  -10.1481 H   0  0  0  0  0  0  0  0  0  0  0  0
   54.3886   -3.1538  -11.0905 H   0  0  0  0  0  0  0  0  0  0  0  0
   56.9686   -4.7511  -10.3866 C   0  0  0  0  0  0  0  0  0  0  0  0
   58.2133   -4.1858  -10.5035 C   0  0  0  0  0  0  0  0  0  0  0  0
   58.7748   -3.8802  -11.7386 C   0  0  0  0  0  0  0  0  0  0  0  0
   58.1056   -4.1320  -12.9149 C   0  0  0  0  0  0  0  0  0  0  0  0
   56.8549   -4.7000  -12.8242 C   0  0  0  0  0  0  0  0  0  0  0  0
   56.3048   -4.9994  -11.6022 C   0  0  0  0  0  0  0  0  0  0  0  0
   58.6817   -3.8198  -14.1521 O   0  0  0  0  0  0  0  0  0  0  0  0
   57.8775   -3.5247  -15.2182 C   0  0  0  0  0  0  0  0  0  0  0  0
   58.3998   -3.1141  -16.4268 C   0  0  0  0  0  0  0  0  0  0  0  0
   57.5758   -2.8212  -17.4887 C   0  0  0  0  0  0  0  0  0  0  0  0
   56.2217   -2.9452  -17.3237 C   0  0  0  0  0  0  0  0  0  0  0  0
   55.6977   -3.3502  -16.1328 C   0  0  0  0  0  0  0  0  0  0  0  0
   56.5144   -3.6451  -15.0659 C   0  0  0  0  0  0  0  0  0  0  0  0
   55.8878   -7.0962   -6.1757 C   0  0  0  0  0  0  0  0  0  0  0  0
   54.6487   -6.9230   -5.3756 C   0  0  0  0  0  0  0  0  0  0  0  0
   54.5641   -7.7128   -4.1133 C   0  0  0  0  0  0  0  0  0  0  0  0
   55.8508   -7.8595   -3.3688 C   0  0  0  0  0  0  0  0  0  0  0  0
   57.0608   -7.9684   -4.2550 C   0  0  0  0  0  0  0  0  0  0  0  0
   57.0742   -6.8182   -5.2705 C   0  0  0  0  0  0  0  0  0  0  0  0
   56.0941   -6.7719   -2.4438 N   0  0  0  0  0  0  0  0  0  0  0  0
   55.1410   -6.2299   -1.5825 C   0  0  0  0  0  0  0  0  0  0  0  0
   53.9738   -6.6779   -1.5668 O   0  0  0  0  0  0  0  0  0  0  0  0
   57.0842   -6.3876   -2.4553 H   0  0  0  0  0  0  0  0  0  0  0  0
   55.4754   -5.1348   -0.6835 C   0  0  0  0  0  0  0  0  0  0  0  0
   56.2173   -4.1182   -1.0643 C   0  0  0  0  0  0  0  0  0  0  0  0
  1  2  1  0  0  0
  2  3  2  0  0  0
  3  4  1  0  0  0
  4  5  2  0  0  0
  5  6  1  0  0  0
  6  7  1  0  0  0
  7  8  1  0  0  0
  8  9  2  0  0  0
  9 13  1  0  0  0
 13 14  2  0  0  0
 14 15  1  0  0  0
 15 16  2  0  0  0
 16 19  1  0  0  0
 19 20  1  0  0  0
 20 21  2  0  0  0
 21 22  1  0  0  0
 22 23  2  0  0  0
 23 24  1  0  0  0
 24 25  2  0  0  0
 16 17  1  0  0  0
 17 18  2  0  0  0
  9 10  1  0  0  0
  7 26  1  0  0  0
 26 27  1  0  0  0
 27 28  1  0  0  0
 28 29  1  0  0  0
 29 30  1  0  0  0
 30 31  1  0  0  0
 29 32  1  0  0  0
 32 33  1  0  0  0
 33 34  2  0  0  0
 33 36  1  0  0  0
 36 37  2  0  0  0
 10  2  1  0  0  0
 31 26  1  0  0  0
 10  6  2  0  0  0
 18 13  1  0  0  0
 25 20  1  0  0  0
  1 11  1  0  0  0
  1 12  1  0  0  0
 32 35  1  0  0  0
M  END
> <minimizedAffinity>
-2.33739

> <CNNscore>
0.3688789010

> <CNNaffinity>
6.5336432457

> <CNN_VS>
2.4101231098

> <CNNaffinity_variance>
0.2788174152

$$$$
[H]Oc1c([H])c2c(c([H])c1O[H])[C@@]1([H])C([H])([H])C([H])([H])[C@]3(C([H])([H])[H])C(=O)C([H])([H])C([H])([H])[C@@]3([H])[C@]1([H])C([H])([H])C2([H])[H]


 23 26  0  0  0  0  0  0  0  0999 V2000
   49.7513   -5.0304   -7.3358 C   0  0  0  0  0  0  0  0  0  0  0  0
   50.5695   -4.0950   -6.4815 C   0  0  0  0  0  0  0  0  0  0  0  0
   51.0050   -2.8841   -7.2476 C   0  0  0  0  0  0  0  0  0  0  0  0
   52.0445   -3.3381   -8.2666 C   0  0  0  0  0  0  0  0  0  0  0  0
   53.1745   -3.9807   -7.5422 C   0  0  0  0  0  0  0  0  0  0  0  0
   52.6772   -5.2535   -6.8697 C   0  0  0  0  0  0  0  0  0  0  0  0
   53.8492   -6.0473   -6.3668 C   0  0  0  0  0  0  0  0  0  0  0  0
   55.1228   -5.1968   -6.2590 C   0  0  0  0  0  0  0  0  0  0  0  0
   55.4366   -4.8282   -7.6866 C   0  0  0  0  0  0  0  0  0  0  0  0
   56.6318   -5.0949   -8.2867 C   0  0  0  0  0  0  0  0  0  0  0  0
   56.7867   -4.7050   -9.5977 C   0  0  0  0  0  0  0  0  0  0  0  0
   57.9833   -4.9573  -10.2411 O   0  0  0  0  0  0  0  0  0  0  0  0
   55.7483   -4.0607  -10.2750 C   0  0  0  0  0  0  0  0  0  0  0  0
   55.9380   -3.6782  -11.6044 O   0  0  0  0  0  0  0  0  0  0  0  0
   54.5498   -3.8045   -9.6406 C   0  0  0  0  0  0  0  0  0  0  0  0
   54.3868   -4.1854   -8.3464 C   0  0  0  0  0  0  0  0  0  0  0  0
   51.7465   -4.7991   -5.8238 C   0  0  0  0  0  0  0  0  0  0  0  0
   51.0739   -5.7929   -4.9779 C   0  0  0  0  0  0  0  0  0  0  0  0
   49.9650   -4.9340   -4.3381 C   0  0  0  0  0  0  0  0  0  0  0  0
   49.7699   -3.7998   -5.2714 C   0  0  0  0  0  0  0  0  0  0  0  0
   49.0976   -2.8192   -5.1013 O   0  0  0  0  0  0  0  0  0  0  0  0
   58.7284   -5.4191   -9.7568 H   0  0  0  0  0  0  0  0  0  0  0  0
   55.1916   -3.2168  -12.0863 H   0  0  0  0  0  0  0  0  0  0  0  0
  2  1  1  0  0  0
  2  3  1  0  0  0
  3  4  1  0  0  0
  4  5  1  0  0  0
  5  6  1  0  0  0
  6  7  1  0  0  0
  7  8  1  0  0  0
  8  9  1  0  0  0
  9 10  2  0  0  0
 10 11  1  0  0  0
 11 12  1  0  0  0
 11 13  2  0  0  0
 13 14  1  0  0  0
 13 15  1  0  0  0
 15 16  2  0  0  0
  6 17  1  0  0  0
 17 18  1  0  0  0
 18 19  1  0  0  0
 19 20  1  0  0  0
 20 21  2  0  0  0
 17  2  1  0  0  0
 20  2  1  0  0  0
 16  5  1  0  0  0
 16  9  1  0  0  0
 12 22  1  0  0  0
 14 23  1  0  0  0
M  END
> <minimizedAffinity>
-11.41883

> <CNNscore>
0.6200759411

> <CNNaffinity>
6.6210312843

> <CNN_VS>
4.1055421829

> <CNNaffinity_variance>
0.2658973336

$$$$
[H]Oc1c([H])c2c(c([H])c1O[H])[C@@]1([H])C([H])([H])C([H])([H])[C@]3(C([H])([H])[H])C(=O)C([H])([H])C([H])([H])[C@@]3([H])[C@]1([H])C([H])([H])C2([H])[H]


 23 26  0  0  0  0  0  0  0  0999 V2000
   53.0606   -6.7662   -7.5305 C   0  0  0  0  0  0  0  0  0  0  0  0
   53.5184   -5.4600   -6.9316 C   0  0  0  0  0  0  0  0  0  0  0  0
   53.4617   -5.4873   -5.4353 C   0  0  0  0  0  0  0  0  0  0  0  0
   51.9906   -5.4961   -5.0343 C   0  0  0  0  0  0  0  0  0  0  0  0
   51.3346   -4.2856   -5.5991 C   0  0  0  0  0  0  0  0  0  0  0  0
   51.3451   -4.3754   -7.1194 C   0  0  0  0  0  0  0  0  0  0  0  0
   50.4579   -3.3071   -7.6923 C   0  0  0  0  0  0  0  0  0  0  0  0
   50.1646   -2.1914   -6.6793 C   0  0  0  0  0  0  0  0  0  0  0  0
   49.3656   -2.8787   -5.6016 C   0  0  0  0  0  0  0  0  0  0  0  0
   48.1296   -2.4637   -5.2015 C   0  0  0  0  0  0  0  0  0  0  0  0
   47.5079   -3.1834   -4.2063 C   0  0  0  0  0  0  0  0  0  0  0  0
   46.2546   -2.7947   -3.7732 O   0  0  0  0  0  0  0  0  0  0  0  0
   48.1331   -4.2957   -3.6371 C   0  0  0  0  0  0  0  0  0  0  0  0
   47.4750   -5.0038   -2.6295 O   0  0  0  0  0  0  0  0  0  0  0  0
   49.3847   -4.6913   -4.0631 C   0  0  0  0  0  0  0  0  0  0  0  0
   50.0070   -3.9875   -5.0450 C   0  0  0  0  0  0  0  0  0  0  0  0
   52.7624   -4.2700   -7.5024 C   0  0  0  0  0  0  0  0  0  0  0  0
   53.1302   -4.3275   -8.9227 C   0  0  0  0  0  0  0  0  0  0  0  0
   54.6501   -4.5662   -8.8247 C   0  0  0  0  0  0  0  0  0  0  0  0
   54.8591   -5.1724   -7.4889 C   0  0  0  0  0  0  0  0  0  0  0  0
   55.9048   -5.3971   -6.9426 O   0  0  0  0  0  0  0  0  0  0  0  0
   45.8053   -1.9976   -4.1805 H   0  0  0  0  0  0  0  0  0  0  0  0
   47.9263   -5.8002   -2.2240 H   0  0  0  0  0  0  0  0  0  0  0  0
  2  1  1  0  0  0
  2  3  1  0  0  0
  3  4  1  0  0  0
  4  5  1  0  0  0
  5  6  1  0  0  0
  6  7  1  0  0  0
  7  8  1  0  0  0
  8  9  1  0  0  0
  9 10  2  0  0  0
 10 11  1  0  0  0
 11 12  1  0  0  0
 11 13  2  0  0  0
 13 14  1  0  0  0
 13 15  1  0  0  0
 15 16  2  0  0  0
  6 17  1  0  0  0
 17 18  1  0  0  0
 18 19  1  0  0  0
 19 20  1  0  0  0
 20 21  2  0  0  0
 17  2  1  0  0  0
 20  2  1  0  0  0
 16  5  1  0  0  0
 16  9  1  0  0  0
 12 22  1  0  0  0
 14 23  1  0  0  0
M  END
> <minimizedAffinity>
-8.70713

> <CNNscore>
0.6077234149

> <CNNaffinity>
6.5714073181

> <CNN_VS>
3.9935979843

> <CNNaffinity_variance>
0.4293283522

$$$$
[H]Oc1c([H])c2c(c([H])c1O[H])[C@@]1([H])C([H])([H])C([H])([H])[C@]3(C([H])([H])[H])C(=O)C([H])([H])C([H])([H])[C@@]3([H])[C@]1([H])C([H])([H])C2([H])[H]


 23 26  0  0  0  0  0  0  0  0999 V2000
   63.2180   -8.9736   -6.1096 C   0  0  0  0  0  0  0  0  0  0  0  0
   62.7682  -10.0099   -5.1105 C   0  0  0  0  0  0  0  0  0  0  0  0
   61.2925  -10.2522   -5.1908 C   0  0  0  0  0  0  0  0  0  0  0  0
   60.5955   -9.0056   -4.6568 C   0  0  0  0  0  0  0  0  0  0  0  0
   61.0500   -8.7659   -3.2601 C   0  0  0  0  0  0  0  0  0  0  0  0
   62.5360   -8.4321   -3.2689 C   0  0  0  0  0  0  0  0  0  0  0  0
   62.9460   -7.9279   -1.9145 C   0  0  0  0  0  0  0  0  0  0  0  0
   61.9299   -8.2987   -0.8251 C   0  0  0  0  0  0  0  0  0  0  0  0
   60.6889   -7.5337   -1.2088 C   0  0  0  0  0  0  0  0  0  0  0  0
   60.0549   -6.6617   -0.3737 C   0  0  0  0  0  0  0  0  0  0  0  0
   58.9304   -6.0271   -0.8509 C   0  0  0  0  0  0  0  0  0  0  0  0
   58.2596   -5.1361   -0.0350 O   0  0  0  0  0  0  0  0  0  0  0  0
   58.4682   -6.2778   -2.1453 C   0  0  0  0  0  0  0  0  0  0  0  0
   57.3245   -5.6173   -2.5985 O   0  0  0  0  0  0  0  0  0  0  0  0
   59.1316   -7.1660   -2.9672 C   0  0  0  0  0  0  0  0  0  0  0  0
   60.2427   -7.7976   -2.5056 C   0  0  0  0  0  0  0  0  0  0  0  0
   63.2073   -9.6710   -3.6942 C   0  0  0  0  0  0  0  0  0  0  0  0
   64.6704   -9.6917   -3.8150 C   0  0  0  0  0  0  0  0  0  0  0  0
   64.8818  -10.9883   -4.6217 C   0  0  0  0  0  0  0  0  0  0  0  0
   63.5999  -11.2145   -5.3295 C   0  0  0  0  0  0  0  0  0  0  0  0
   63.2751  -12.1806   -5.9649 O   0  0  0  0  0  0  0  0  0  0  0  0
   58.5899   -4.9555    0.8931 H   0  0  0  0  0  0  0  0  0  0  0  0
   56.9964   -5.7996   -3.5267 H   0  0  0  0  0  0  0  0  0  0  0  0
  2  1  1  0  0  0
  2  3  1  0  0  0
  3  4  1  0  0  0
  4  5  1  0  0  0
  5  6  1  0  0  0
  6  7  1  0  0  0
  7  8  1  0  0  0
  8  9  1  0  0  0
  9 10  2  0  0  0
 10 11  1  0  0  0
 11 12  1  0  0  0
 11 13  2  0  0  0
 13 14  1  0  0  0
 13 15  1  0  0  0
 15 16  2  0  0  0
  6 17  1  0  0  0
 17 18  1  0  0  0
 18 19  1  0  0  0
 19 20  1  0  0  0
 20 21  2  0  0  0
 17  2  1  0  0  0
 20  2  1  0  0  0
 16  5  1  0  0  0
 16  9  1  0  0  0
 12 22  1  0  0  0
 14 23  1  0  0  0
M  END
> <minimizedAffinity>
-3.09454

> <CNNscore>
0.5961728096

> <CNNaffinity>
4.5232248306

> <CNN_VS>
2.6966235638

> <CNNaffinity_variance>
0.3296588063

$$$$
[H]Oc1c([H])c2c(c([H])c1O[H])[C@@]1([H])C([H])([H])C([H])([H])[C@]3(C([H])([H])[H])C(=O)C([H])([H])C([H])([H])[C@@]3([H])[C@]1([H])C([H])([H])C2([H])[H]


 23 26  0  0  0  0  0  0  0  0999 V2000
   56.2483   -6.1049  -15.4129 C   0  0  0  0  0  0  0  0  0  0  0  0
   56.5882   -4.6367  -15.4670 C   0  0  0  0  0  0  0  0  0  0  0  0
   57.4581   -4.3130  -16.6424 C   0  0  0  0  0  0  0  0  0  0  0  0
   58.8298   -4.9238  -16.3771 C   0  0  0  0  0  0  0  0  0  0  0  0
   59.3665   -4.3593  -15.1090 C   0  0  0  0  0  0  0  0  0  0  0  0
   58.4867   -4.8096  -13.9502 C   0  0  0  0  0  0  0  0  0  0  0  0
   59.1601   -4.4774  -12.6491 C   0  0  0  0  0  0  0  0  0  0  0  0
   60.2650   -3.4253  -12.8195 C   0  0  0  0  0  0  0  0  0  0  0  0
   61.2983   -4.1168  -13.6718 C   0  0  0  0  0  0  0  0  0  0  0  0
   62.6038   -4.2586  -13.3038 C   0  0  0  0  0  0  0  0  0  0  0  0
   63.4434   -4.9133  -14.1764 C   0  0  0  0  0  0  0  0  0  0  0  0
   64.7736   -5.0771  -13.8399 O   0  0  0  0  0  0  0  0  0  0  0  0
   62.9608   -5.4086  -15.3904 C   0  0  0  0  0  0  0  0  0  0  0  0
   63.8390   -6.0679  -16.2528 O   0  0  0  0  0  0  0  0  0  0  0  0
   61.6339   -5.2497  -15.7349 C   0  0  0  0  0  0  0  0  0  0  0  0
   60.7968   -4.6048  -14.8805 C   0  0  0  0  0  0  0  0  0  0  0  0
   57.1940   -4.1388  -14.1637 C   0  0  0  0  0  0  0  0  0  0  0  0
   56.0995   -4.3660  -13.2119 C   0  0  0  0  0  0  0  0  0  0  0  0
   54.8984   -3.8158  -14.0062 C   0  0  0  0  0  0  0  0  0  0  0  0
   55.3093   -3.8926  -15.4278 C   0  0  0  0  0  0  0  0  0  0  0  0
   54.7326   -3.4453  -16.3816 O   0  0  0  0  0  0  0  0  0  0  0  0
   65.1208   -4.7225  -12.9700 H   0  0  0  0  0  0  0  0  0  0  0  0
   63.4893   -6.4214  -17.1218 H   0  0  0  0  0  0  0  0  0  0  0  0
  2  1  1  0  0  0
  2  3  1  0  0  0
  3  4  1  0  0  0
  4  5  1  0  0  0
  5  6  1  0  0  0
  6  7  1  0  0  0
  7  8  1  0  0  0
  8  9  1  0  0  0
  9 10  2  0  0  0
 10 11  1  0  0  0
 11 12  1  0  0  0
 11 13  2  0  0  0
 13 14  1  0  0  0
 13 15  1  0  0  0
 15 16  2  0  0  0
  6 17  1  0  0  0
 17 18  1  0  0  0
 18 19  1  0  0  0
 19 20  1  0  0  0
 20 21  2  0  0  0
 17  2  1  0  0  0
 20  2  1  0  0  0
 16  5  1  0  0  0
 16  9  1  0  0  0
 12 22  1  0  0  0
 14 23  1  0  0  0
M  END
> <minimizedAffinity>
14.11900

> <CNNscore>
0.5753450990

> <CNNaffinity>
4.2553758621

> <CNN_VS>
2.4483096600

> <CNNaffinity_variance>
0.4213404059

$$$$
[H]Oc1c([H])c2c(c([H])c1O[H])[C@@]1([H])C([H])([H])C([H])([H])[C@]3(C([H])([H])[H])C(=O)C([H])([H])C([H])([H])[C@@]3([H])[C@]1([H])C([H])([H])C2([H])[H]


 23 26  0  0  0  0  0  0  0  0999 V2000
   60.9660   -8.4743   -9.7022 C   0  0  0  0  0  0  0  0  0  0  0  0
   62.3327   -9.0744   -9.4873 C   0  0  0  0  0  0  0  0  0  0  0  0
   62.2760  -10.2734   -8.5916 C   0  0  0  0  0  0  0  0  0  0  0  0
   61.9468   -9.7789   -7.1873 C   0  0  0  0  0  0  0  0  0  0  0  0
   62.9949   -8.8109   -6.7641 C   0  0  0  0  0  0  0  0  0  0  0  0
   62.9277   -7.5796   -7.6579 C   0  0  0  0  0  0  0  0  0  0  0  0
   63.7874   -6.4915   -7.0804 C   0  0  0  0  0  0  0  0  0  0  0  0
   64.8019   -7.0320   -6.0628 C   0  0  0  0  0  0  0  0  0  0  0  0
   63.9463   -7.5462   -4.9333 C   0  0  0  0  0  0  0  0  0  0  0  0
   64.0815   -7.1348   -3.6401 C   0  0  0  0  0  0  0  0  0  0  0  0
   63.2332   -7.6843   -2.7055 C   0  0  0  0  0  0  0  0  0  0  0  0
   63.3387   -7.2933   -1.3844 O   0  0  0  0  0  0  0  0  0  0  0  0
   62.2744   -8.6276   -3.0835 C   0  0  0  0  0  0  0  0  0  0  0  0
   61.4295   -9.1655   -2.1106 O   0  0  0  0  0  0  0  0  0  0  0  0
   62.1618   -9.0242   -4.4006 C   0  0  0  0  0  0  0  0  0  0  0  0
   62.9944   -8.4877   -5.3309 C   0  0  0  0  0  0  0  0  0  0  0  0
   63.3394   -8.0478   -8.9913 C   0  0  0  0  0  0  0  0  0  0  0  0
   63.3792   -7.0951  -10.1078 C   0  0  0  0  0  0  0  0  0  0  0  0
   63.4712   -8.0543  -11.3112 C   0  0  0  0  0  0  0  0  0  0  0  0
   62.9080   -9.3360  -10.8257 C   0  0  0  0  0  0  0  0  0  0  0  0
   62.9066  -10.3957  -11.3910 O   0  0  0  0  0  0  0  0  0  0  0  0
   64.0255   -6.6171   -1.1121 H   0  0  0  0  0  0  0  0  0  0  0  0
   60.7437   -9.8412   -2.3854 H   0  0  0  0  0  0  0  0  0  0  0  0
  2  1  1  0  0  0
  2  3  1  0  0  0
  3  4  1  0  0  0
  4  5  1  0  0  0
  5  6  1  0  0  0
  6  7  1  0  0  0
  7  8  1  0  0  0
  8  9  1  0  0  0
  9 10  2  0  0  0
 10 11  1  0  0  0
 11 12  1  0  0  0
 11 13  2  0  0  0
 13 14  1  0  0  0
 13 15  1  0  0  0
 15 16  2  0  0  0
  6 17  1  0  0  0
 17 18  1  0  0  0
 18 19  1  0  0  0
 19 20  1  0  0  0
 20 21  2  0  0  0
 17  2  1  0  0  0
 20  2  1  0  0  0
 16  5  1  0  0  0
 16  9  1  0  0  0
 12 22  1  0  0  0
 14 23  1  0  0  0
M  END
> <minimizedAffinity>
-3.24510

> <CNNscore>
0.5653897524

> <CNNaffinity>
4.5741372108

> <CNN_VS>
2.5861701965

> <CNNaffinity_variance>
0.2761858106

$$$$
[H]Oc1c([H])c2c(c([H])c1O[H])[C@@]1([H])C([H])([H])C([H])([H])[C@]3(C([H])([H])[H])C(=O)C([H])([H])C([H])([H])[C@@]3([H])[C@]1([H])C([H])([H])C2([H])[H]


 23 26  0  0  0  0  0  0  0  0999 V2000
   56.9739   -5.3611  -14.7271 C   0  0  0  0  0  0  0  0  0  0  0  0
   57.1694   -3.8714  -14.8569 C   0  0  0  0  0  0  0  0  0  0  0  0
   57.6482   -3.4932  -16.2246 C   0  0  0  0  0  0  0  0  0  0  0  0
   59.0828   -3.9919  -16.3601 C   0  0  0  0  0  0  0  0  0  0  0  0
   59.9066   -3.3737  -15.2859 C   0  0  0  0  0  0  0  0  0  0  0  0
   59.4236   -3.8791  -13.9329 C   0  0  0  0  0  0  0  0  0  0  0  0
   60.4056   -3.4815  -12.8679 C   0  0  0  0  0  0  0  0  0  0  0  0
   61.3332   -2.3480  -13.3278 C   0  0  0  0  0  0  0  0  0  0  0  0
   62.1380   -2.9657  -14.4428 C   0  0  0  0  0  0  0  0  0  0  0  0
   63.5012   -3.0009  -14.4559 C   0  0  0  0  0  0  0  0  0  0  0  0
   64.1120   -3.5971  -15.5359 C   0  0  0  0  0  0  0  0  0  0  0  0
   65.4918   -3.6528  -15.5863 O   0  0  0  0  0  0  0  0  0  0  0  0
   63.3497   -4.1416  -16.5724 C   0  0  0  0  0  0  0  0  0  0  0  0
   64.0006   -4.7393  -17.6535 O   0  0  0  0  0  0  0  0  0  0  0  0
   61.9712   -4.0906  -16.5307 C   0  0  0  0  0  0  0  0  0  0  0  0
   61.3585   -3.5041  -15.4690 C   0  0  0  0  0  0  0  0  0  0  0  0
   58.0744   -3.3138  -13.7690 C   0  0  0  0  0  0  0  0  0  0  0  0
   57.3107   -3.6159  -12.5520 C   0  0  0  0  0  0  0  0  0  0  0  0
   55.8963   -3.1697  -12.9727 C   0  0  0  0  0  0  0  0  0  0  0  0
   55.8984   -3.2293  -14.4532 C   0  0  0  0  0  0  0  0  0  0  0  0
   55.0451   -2.8386  -15.2027 O   0  0  0  0  0  0  0  0  0  0  0  0
   66.0395   -3.2630  -14.8439 H   0  0  0  0  0  0  0  0  0  0  0  0
   63.4508   -5.1283  -18.3943 H   0  0  0  0  0  0  0  0  0  0  0  0
  2  1  1  0  0  0
  2  3  1  0  0  0
  3  4  1  0  0  0
  4  5  1  0  0  0
  5  6  1  0  0  0
  6  7  1  0  0  0
  7  8  1  0  0  0
  8  9  1  0  0  0
  9 10  2  0  0  0
 10 11  1  0  0  0
 11 12  1  0  0  0
 11 13  2  0  0  0
 13 14  1  0  0  0
 13 15  1  0  0  0
 15 16  2  0  0  0
  6 17  1  0  0  0
 17 18  1  0  0  0
 18 19  1  0  0  0
 19 20  1  0  0  0
 20 21  2  0  0  0
 17  2  1  0  0  0
 20  2  1  0  0  0
 16  5  1  0  0  0
 16  9  1  0  0  0
 12 22  1  0  0  0
 14 23  1  0  0  0
M  END
> <minimizedAffinity>
1.25072

> <CNNscore>
0.5343374610

> <CNNaffinity>
4.3383698463

> <CNN_VS>
2.3181536198

> <CNNaffinity_variance>
0.3365536332

$$$$
[H]Oc1c([H])c2c(c([H])c1O[H])[C@@]1([H])C([H])([H])C([H])([H])[C@]3(C([H])([H])[H])C(=O)C([H])([H])C([H])([H])[C@@]3([H])[C@]1([H])C([H])([H])C2([H])[H]


 23 26  0  0  0  0  0  0  0  0999 V2000
   61.2506   -8.3044   -9.3707 C   0  0  0  0  0  0  0  0  0  0  0  0
   61.5378   -6.8312   -9.2245 C   0  0  0  0  0  0  0  0  0  0  0  0
   61.1768   -6.3297   -7.8602 C   0  0  0  0  0  0  0  0  0  0  0  0
   59.6556   -6.3455   -7.7559 C   0  0  0  0  0  0  0  0  0  0  0  0
   59.0941   -5.4891   -8.8357 C   0  0  0  0  0  0  0  0  0  0  0  0
   59.4183   -6.1126  -10.1869 C   0  0  0  0  0  0  0  0  0  0  0  0
   58.6364   -5.4148  -11.2632 C   0  0  0  0  0  0  0  0  0  0  0  0
   58.1095   -4.0478  -10.8042 C   0  0  0  0  0  0  0  0  0  0  0  0
   57.1271   -4.3843   -9.7114 C   0  0  0  0  0  0  0  0  0  0  0  0
   55.8239   -3.9827   -9.7221 C   0  0  0  0  0  0  0  0  0  0  0  0
   55.0329   -4.3605   -8.6608 C   0  0  0  0  0  0  0  0  0  0  0  0
   53.7066   -3.9733   -8.6347 O   0  0  0  0  0  0  0  0  0  0  0  0
   55.5604   -5.1272   -7.6187 C   0  0  0  0  0  0  0  0  0  0  0  0
   54.7309   -5.4936   -6.5569 O   0  0  0  0  0  0  0  0  0  0  0  0
   56.8837   -5.5185   -7.6361 C   0  0  0  0  0  0  0  0  0  0  0  0
   57.6730   -5.1507   -8.6793 C   0  0  0  0  0  0  0  0  0  0  0  0
   60.8803   -6.0062  -10.3202 C   0  0  0  0  0  0  0  0  0  0  0  0
   61.5326   -6.5275  -11.5279 C   0  0  0  0  0  0  0  0  0  0  0  0
   63.0065   -6.5591  -11.0771 C   0  0  0  0  0  0  0  0  0  0  0  0
   62.9552   -6.6254   -9.5977 C   0  0  0  0  0  0  0  0  0  0  0  0
   63.8730   -6.5328   -8.8286 O   0  0  0  0  0  0  0  0  0  0  0  0
   53.3272   -3.4238   -9.3811 H   0  0  0  0  0  0  0  0  0  0  0  0
   55.1126   -6.0430   -5.8120 H   0  0  0  0  0  0  0  0  0  0  0  0
  2  1  1  0  0  0
  2  3  1  0  0  0
  3  4  1  0  0  0
  4  5  1  0  0  0
  5  6  1  0  0  0
  6  7  1  0  0  0
  7  8  1  0  0  0
  8  9  1  0  0  0
  9 10  2  0  0  0
 10 11  1  0  0  0
 11 12  1  0  0  0
 11 13  2  0  0  0
 13 14  1  0  0  0
 13 15  1  0  0  0
 15 16  2  0  0  0
  6 17  1  0  0  0
 17 18  1  0  0  0
 18 19  1  0  0  0
 19 20  1  0  0  0
 20 21  2  0  0  0
 17  2  1  0  0  0
 20  2  1  0  0  0
 16  5  1  0  0  0
 16  9  1  0  0  0
 12 22  1  0  0  0
 14 23  1  0  0  0
M  END
> <minimizedAffinity>
-2.55763

> <CNNscore>
0.5265904069

> <CNNaffinity>
4.9323282242

> <CNN_VS>
2.5973167419

> <CNNaffinity_variance>
0.2528176904

$$$$
[H]Oc1c([H])c2c(c([H])c1O[H])[C@@]1([H])C([H])([H])C([H])([H])[C@]3(C([H])([H])[H])C(=O)C([H])([H])C([H])([H])[C@@]3([H])[C@]1([H])C([H])([H])C2([H])[H]


 23 26  0  0  0  0  0  0  0  0999 V2000
   51.0102   -5.7404   -7.7203 C   0  0  0  0  0  0  0  0  0  0  0  0
   51.7079   -4.6349   -6.9685 C   0  0  0  0  0  0  0  0  0  0  0  0
   52.0689   -3.4948   -7.8700 C   0  0  0  0  0  0  0  0  0  0  0  0
   53.1854   -3.9761   -8.7901 C   0  0  0  0  0  0  0  0  0  0  0  0
   54.3354   -4.4174   -7.9549 C   0  0  0  0  0  0  0  0  0  0  0  0
   53.9222   -5.6360   -7.1401 C   0  0  0  0  0  0  0  0  0  0  0  0
   55.1364   -6.2505   -6.5038 C   0  0  0  0  0  0  0  0  0  0  0  0
   56.3260   -5.2809   -6.4672 C   0  0  0  0  0  0  0  0  0  0  0  0
   56.6664   -5.0667   -7.9200 C   0  0  0  0  0  0  0  0  0  0  0  0
   57.9043   -5.2965   -8.4440 C   0  0  0  0  0  0  0  0  0  0  0  0
   58.0797   -5.0612   -9.7889 C   0  0  0  0  0  0  0  0  0  0  0  0
   59.3195   -5.2820  -10.3577 O   0  0  0  0  0  0  0  0  0  0  0  0
   57.0188   -4.6040  -10.5747 C   0  0  0  0  0  0  0  0  0  0  0  0
   57.2303   -4.3753  -11.9359 O   0  0  0  0  0  0  0  0  0  0  0  0
   55.7770   -4.3807  -10.0154 C   0  0  0  0  0  0  0  0  0  0  0  0
   55.5935   -4.6099   -8.6886 C   0  0  0  0  0  0  0  0  0  0  0  0
   52.9127   -5.1409   -6.1902 C   0  0  0  0  0  0  0  0  0  0  0  0
   52.2937   -6.0782   -5.2446 C   0  0  0  0  0  0  0  0  0  0  0  0
   51.0889   -5.2505   -4.7546 C   0  0  0  0  0  0  0  0  0  0  0  0
   50.8357   -4.2646   -5.8314 C   0  0  0  0  0  0  0  0  0  0  0  0
   50.0746   -3.3358   -5.8093 O   0  0  0  0  0  0  0  0  0  0  0  0
   60.0808   -5.6098   -9.7955 H   0  0  0  0  0  0  0  0  0  0  0  0
   56.4676   -4.0477  -12.4956 H   0  0  0  0  0  0  0  0  0  0  0  0
  2  1  1  0  0  0
  2  3  1  0  0  0
  3  4  1  0  0  0
  4  5  1  0  0  0
  5  6  1  0  0  0
  6  7  1  0  0  0
  7  8  1  0  0  0
  8  9  1  0  0  0
  9 10  2  0  0  0
 10 11  1  0  0  0
 11 12  1  0  0  0
 11 13  2  0  0  0
 13 14  1  0  0  0
 13 15  1  0  0  0
 15 16  2  0  0  0
  6 17  1  0  0  0
 17 18  1  0  0  0
 18 19  1  0  0  0
 19 20  1  0  0  0
 20 21  2  0  0  0
 17  2  1  0  0  0
 20  2  1  0  0  0
 16  5  1  0  0  0
 16  9  1  0  0  0
 12 22  1  0  0  0
 14 23  1  0  0  0
M  END
> <minimizedAffinity>
-10.31453

> <CNNscore>
0.5255070925

> <CNNaffinity>
6.3400955200

> <CNN_VS>
3.3317651749

> <CNNaffinity_variance>
0.2306667268

$$$$
[H]Oc1c([H])c2c(c([H])c1O[H])[C@@]1([H])C([H])([H])C([H])([H])[C@]3(C([H])([H])[H])C(=O)C([H])([H])C([H])([H])[C@@]3([H])[C@]1([H])C([H])([H])C2([H])[H]


 23 26  0  0  0  0  0  0  0  0999 V2000
   61.0747   -7.0144   -8.9718 C   0  0  0  0  0  0  0  0  0  0  0  0
   62.4643   -7.5047   -8.6515 C   0  0  0  0  0  0  0  0  0  0  0  0
   63.5124   -6.6864   -9.3405 C   0  0  0  0  0  0  0  0  0  0  0  0
   63.4266   -6.9961  -10.8310 C   0  0  0  0  0  0  0  0  0  0  0  0
   63.6350   -8.4564  -11.0280 C   0  0  0  0  0  0  0  0  0  0  0  0
   62.4825   -9.2164  -10.3849 C   0  0  0  0  0  0  0  0  0  0  0  0
   62.5352  -10.6582  -10.8037 C   0  0  0  0  0  0  0  0  0  0  0  0
   63.9123  -11.0519  -11.3565 C   0  0  0  0  0  0  0  0  0  0  0  0
   64.0461  -10.2352  -12.6164 C   0  0  0  0  0  0  0  0  0  0  0  0
   64.2920  -10.7793  -13.8425 C   0  0  0  0  0  0  0  0  0  0  0  0
   64.3899   -9.9188  -14.9125 C   0  0  0  0  0  0  0  0  0  0  0  0
   64.6384  -10.4313  -16.1715 O   0  0  0  0  0  0  0  0  0  0  0  0
   64.2404   -8.5413  -14.7328 C   0  0  0  0  0  0  0  0  0  0  0  0
   64.3456   -7.6961  -15.8392 O   0  0  0  0  0  0  0  0  0  0  0  0
   63.9921   -8.0204  -13.4792 C   0  0  0  0  0  0  0  0  0  0  0  0
   63.8937   -8.8614  -12.4163 C   0  0  0  0  0  0  0  0  0  0  0  0
   62.6300   -8.9893   -8.9381 C   0  0  0  0  0  0  0  0  0  0  0  0
   61.6603   -9.5889   -8.0130 C   0  0  0  0  0  0  0  0  0  0  0  0
   61.9588   -8.8020   -6.7214 C   0  0  0  0  0  0  0  0  0  0  0  0
   62.5844   -7.5382   -7.1766 C   0  0  0  0  0  0  0  0  0  0  0  0
   63.0965   -6.6893   -6.4987 O   0  0  0  0  0  0  0  0  0  0  0  0
   64.7457  -11.4185  -16.3017 H   0  0  0  0  0  0  0  0  0  0  0  0
   64.2378   -6.7096  -15.7063 H   0  0  0  0  0  0  0  0  0  0  0  0
  2  1  1  0  0  0
  2  3  1  0  0  0
  3  4  1  0  0  0
  4  5  1  0  0  0
  5  6  1  0  0  0
  6  7  1  0  0  0
  7  8  1  0  0  0
  8  9  1  0  0  0
  9 10  2  0  0  0
 10 11  1  0  0  0
 11 12  1  0  0  0
 11 13  2  0  0  0
 13 14  1  0  0  0
 13 15  1  0  0  0
 15 16  2  0  0  0
  6 17  1  0  0  0
 17 18  1  0  0  0
 18 19  1  0  0  0
 19 20  1  0  0  0
 20 21  2  0  0  0
 17  2  1  0  0  0
 20  2  1  0  0  0
 16  5  1  0  0  0
 16  9  1  0  0  0
 12 22  1  0  0  0
 14 23  1  0  0  0
M  END
> <minimizedAffinity>
-3.00378

> <CNNscore>
0.5222888589

> <CNNaffinity>
4.2584581375

> <CNN_VS>
2.2241451740

> <CNNaffinity_variance>
0.1498448253

$$$$
[H]OC(=O)C([H])([H])[C@@]([H])(C([H])=O)N([H])C(=O)[C@@]([H])(N([H])C(=O)[C@@]([H])(N([H])C(=O)OC([H])([H])c1c([H])c([H])c([H])c([H])c1[H])C([H])([H])c1c([H])c([H])c([H])c([H])c1[H])C([H])(C([H])([H])[H])C([H])([H])[H]


 40 41  0  0  0  0  0  0  0  0999 V2000
   59.7400   -6.5595   -8.5671 N   0  0  0  0  0  0  0  0  0  0  0  0
   58.6566   -5.8643   -9.1180 C   0  0  0  0  0  0  0  0  0  0  0  0
   58.4758   -5.6858  -10.3478 O   0  0  0  0  0  0  0  0  0  0  0  0
   59.8376   -6.6772   -7.5493 H   0  0  0  0  0  0  0  0  0  0  0  0
   60.8143   -7.1718   -9.3762 C   0  0  0  0  0  0  0  0  0  0  0  0
   61.3092   -8.2813   -8.5663 C   0  0  0  0  0  0  0  0  0  0  0  0
   61.2488   -8.0686   -7.2632 O   0  0  0  0  0  0  0  0  0  0  0  0
   61.8290   -9.5090   -8.9752 N   0  0  0  0  0  0  0  0  0  0  0  0
   61.9496   -9.7844   -9.9446 H   0  0  0  0  0  0  0  0  0  0  0  0
   62.2673  -10.5059   -7.9903 C   0  0  0  0  0  0  0  0  0  0  0  0
   63.6028  -11.0485   -8.4005 C   0  0  0  0  0  0  0  0  0  0  0  0
   64.1072  -10.5963   -9.4111 O   0  0  0  0  0  0  0  0  0  0  0  0
   61.3041  -11.6357   -7.9722 C   0  0  0  0  0  0  0  0  0  0  0  0
   60.8948  -12.0550   -6.6289 C   0  0  0  0  0  0  0  0  0  0  0  0
   61.8405  -12.4442   -5.6815 O   0  0  0  0  0  0  0  0  0  0  0  0
   59.6896  -12.0761   -6.2920 O   0  0  0  0  0  0  0  0  0  0  0  0
   62.7554  -12.7591   -5.9560 H   0  0  0  0  0  0  0  0  0  0  0  0
   62.2898   -6.3859  -11.2186 C   0  0  0  0  0  0  0  0  0  0  0  0
   61.7761   -6.1385   -9.8275 C   0  0  0  0  0  0  0  0  0  0  0  0
   62.9959   -6.0349   -8.9250 C   0  0  0  0  0  0  0  0  0  0  0  0
   57.6369   -5.2805   -8.2105 C   0  0  0  0  0  0  0  0  0  0  0  0
   56.3053   -5.3688   -8.7730 N   0  0  0  0  0  0  0  0  0  0  0  0
   55.5062   -4.2230   -8.8298 C   0  0  0  0  0  0  0  0  0  0  0  0
   55.9846   -3.1318   -8.3736 O   0  0  0  0  0  0  0  0  0  0  0  0
   55.9621   -6.2701   -9.1235 H   0  0  0  0  0  0  0  0  0  0  0  0
   54.2199   -4.1215   -9.3371 O   0  0  0  0  0  0  0  0  0  0  0  0
   53.4499   -2.9468   -9.1577 C   0  0  0  0  0  0  0  0  0  0  0  0
   52.3379   -3.1057   -8.2256 C   0  0  0  0  0  0  0  0  0  0  0  0
   51.2978   -2.2119   -8.1027 C   0  0  0  0  0  0  0  0  0  0  0  0
   50.2547   -2.3992   -7.1940 C   0  0  0  0  0  0  0  0  0  0  0  0
   50.2392   -3.5102   -6.3766 C   0  0  0  0  0  0  0  0  0  0  0  0
   51.2668   -4.4146   -6.4822 C   0  0  0  0  0  0  0  0  0  0  0  0
   52.2900   -4.2215   -7.3807 C   0  0  0  0  0  0  0  0  0  0  0  0
   57.7126   -5.9316   -6.8509 C   0  0  0  0  0  0  0  0  0  0  0  0
   56.4481   -5.9158   -6.0936 C   0  0  0  0  0  0  0  0  0  0  0  0
   56.1352   -4.9361   -5.1857 C   0  0  0  0  0  0  0  0  0  0  0  0
   54.9617   -4.8993   -4.4750 C   0  0  0  0  0  0  0  0  0  0  0  0
   54.0179   -5.8963   -4.6646 C   0  0  0  0  0  0  0  0  0  0  0  0
   54.2921   -6.8969   -5.5657 C   0  0  0  0  0  0  0  0  0  0  0  0
   55.4963   -6.9025   -6.2703 C   0  0  0  0  0  0  0  0  0  0  0  0
 18 19  1  0  0  0
 19 20  1  0  0  0
 19  5  1  0  0  0
  5  1  1  0  0  0
  1  2  1  0  0  0
  2  3  2  0  0  0
  2 21  1  0  0  0
 21 34  1  0  0  0
 34 35  1  0  0  0
 35 36  2  0  0  0
 36 37  1  0  0  0
 37 38  2  0  0  0
 38 39  1  0  0  0
 39 40  2  0  0  0
 21 22  1  0  0  0
 22 23  1  0  0  0
 23 24  2  0  0  0
 23 26  1  0  0  0
 26 27  1  0  0  0
 27 28  1  0  0  0
 28 29  2  0  0  0
 29 30  1  0  0  0
 30 31  2  0  0  0
 31 32  1  0  0  0
 32 33  2  0  0  0
  5  6  1  0  0  0
  6  7  2  0  0  0
  6  8  1  0  0  0
  8 10  1  0  0  0
 10 13  1  0  0  0
 13 14  1  0  0  0
 14 15  1  0  0  0
 14 16  2  0  0  0
 10 11  1  0  0  0
 11 12  2  0  0  0
 40 35  1  0  0  0
 33 28  1  0  0  0
  1  4  1  0  0  0
 22 25  1  0  0  0
  8  9  1  0  0  0
 15 17  1  0  0  0
M  END
> <minimizedAffinity>
-5.65780

> <CNNscore>
0.3819783926

> <CNNaffinity>
6.0442438126

> <CNN_VS>
2.3087704182

> <CNNaffinity_variance>
0.2333036959

$$$$
[H]OC(=O)C([H])([H])[C@@]([H])(C([H])=O)N([H])C(=O)[C@@]([H])(N([H])C(=O)[C@@]([H])(N([H])C(=O)OC([H])([H])c1c([H])c([H])c([H])c([H])c1[H])C([H])([H])c1c([H])c([H])c([H])c([H])c1[H])C([H])(C([H])([H])[H])C([H])([H])[H]


 40 41  0  0  0  0  0  0  0  0999 V2000
   53.9328   -5.6765   -5.5129 N   0  0  0  0  0  0  0  0  0  0  0  0
   53.1360   -5.6647   -6.6641 C   0  0  0  0  0  0  0  0  0  0  0  0
   52.6626   -6.6901   -7.2133 O   0  0  0  0  0  0  0  0  0  0  0  0
   54.2934   -4.8036   -5.1036 H   0  0  0  0  0  0  0  0  0  0  0  0
   54.3187   -6.9114   -4.7990 C   0  0  0  0  0  0  0  0  0  0  0  0
   53.9030   -6.6922   -3.4166 C   0  0  0  0  0  0  0  0  0  0  0  0
   53.8268   -5.4189   -3.0704 O   0  0  0  0  0  0  0  0  0  0  0  0
   53.5849   -7.6271   -2.4320 N   0  0  0  0  0  0  0  0  0  0  0  0
   53.6264   -8.6326   -2.5638 H   0  0  0  0  0  0  0  0  0  0  0  0
   53.1744   -7.1960   -1.0898 C   0  0  0  0  0  0  0  0  0  0  0  0
   54.3208   -7.3800   -0.1420 C   0  0  0  0  0  0  0  0  0  0  0  0
   55.1740   -6.5131   -0.1165 O   0  0  0  0  0  0  0  0  0  0  0  0
   52.0549   -8.0506   -0.6199 C   0  0  0  0  0  0  0  0  0  0  0  0
   50.7237   -7.5102   -0.9094 C   0  0  0  0  0  0  0  0  0  0  0  0
   49.6623   -7.7122   -0.0285 O   0  0  0  0  0  0  0  0  0  0  0  0
   50.4997   -6.8532   -1.9508 O   0  0  0  0  0  0  0  0  0  0  0  0
   49.6700   -8.4696    0.6333 H   0  0  0  0  0  0  0  0  0  0  0  0
   56.5577   -7.3675   -3.8151 C   0  0  0  0  0  0  0  0  0  0  0  0
   55.7373   -7.2443   -5.0689 C   0  0  0  0  0  0  0  0  0  0  0  0
   56.4294   -6.2092   -5.9421 C   0  0  0  0  0  0  0  0  0  0  0  0
   52.8158   -4.3654   -7.3072 C   0  0  0  0  0  0  0  0  0  0  0  0
   53.6088   -4.1475   -8.4992 N   0  0  0  0  0  0  0  0  0  0  0  0
   54.9301   -3.7077   -8.3745 C   0  0  0  0  0  0  0  0  0  0  0  0
   55.3902   -3.5079   -7.2015 O   0  0  0  0  0  0  0  0  0  0  0  0
   53.1935   -4.3175   -9.4221 H   0  0  0  0  0  0  0  0  0  0  0  0
   55.8305   -3.4555   -9.3981 O   0  0  0  0  0  0  0  0  0  0  0  0
   56.6078   -4.4943   -9.9654 C   0  0  0  0  0  0  0  0  0  0  0  0
   57.0744   -4.2113  -11.3193 C   0  0  0  0  0  0  0  0  0  0  0  0
   58.4006   -4.1684  -11.6872 C   0  0  0  0  0  0  0  0  0  0  0  0
   58.8050   -3.8891  -12.9938 C   0  0  0  0  0  0  0  0  0  0  0  0
   57.8646   -3.6428  -13.9724 C   0  0  0  0  0  0  0  0  0  0  0  0
   56.5362   -3.6802  -13.6274 C   0  0  0  0  0  0  0  0  0  0  0  0
   56.1474   -3.9566  -12.3375 C   0  0  0  0  0  0  0  0  0  0  0  0
   51.3372   -4.2752   -7.5963 C   0  0  0  0  0  0  0  0  0  0  0  0
   50.5011   -3.9741   -6.4203 C   0  0  0  0  0  0  0  0  0  0  0  0
   50.4712   -4.7702   -5.3034 C   0  0  0  0  0  0  0  0  0  0  0  0
   49.7051   -4.5050   -4.1960 C   0  0  0  0  0  0  0  0  0  0  0  0
   48.9048   -3.3738   -4.1753 C   0  0  0  0  0  0  0  0  0  0  0  0
   48.9055   -2.5490   -5.2744 C   0  0  0  0  0  0  0  0  0  0  0  0
   49.6970   -2.8503   -6.3832 C   0  0  0  0  0  0  0  0  0  0  0  0
 18 19  1  0  0  0
 19 20  1  0  0  0
 19  5  1  0  0  0
  5  1  1  0  0  0
  1  2  1  0  0  0
  2  3  2  0  0  0
  2 21  1  0  0  0
 21 34  1  0  0  0
 34 35  1  0  0  0
 35 36  2  0  0  0
 36 37  1  0  0  0
 37 38  2  0  0  0
 38 39  1  0  0  0
 39 40  2  0  0  0
 21 22  1  0  0  0
 22 23  1  0  0  0
 23 24  2  0  0  0
 23 26  1  0  0  0
 26 27  1  0  0  0
 27 28  1  0  0  0
 28 29  2  0  0  0
 29 30  1  0  0  0
 30 31  2  0  0  0
 31 32  1  0  0  0
 32 33  2  0  0  0
  5  6  1  0  0  0
  6  7  2  0  0  0
  6  8  1  0  0  0
  8 10  1  0  0  0
 10 13  1  0  0  0
 13 14  1  0  0  0
 14 15  1  0  0  0
 14 16  2  0  0  0
 10 11  1  0  0  0
 11 12  2  0  0  0
 40 35  1  0  0  0
 33 28  1  0  0  0
  1  4  1  0  0  0
 22 25  1  0  0  0
  8  9  1  0  0  0
 15 17  1  0  0  0
M  END
> <minimizedAffinity>
-8.71797

> <CNNscore>
0.3725266159

> <CNNaffinity>
6.9662284851

> <CNN_VS>
2.5951054096

> <CNNaffinity_variance>
0.0912233815

$$$$
[H]OC(=O)C([H])([H])[C@@]([H])(C([H])=O)N([H])C(=O)[C@@]([H])(N([H])C(=O)[C@@]([H])(N([H])C(=O)OC([H])([H])c1c([H])c([H])c([H])c([H])c1[H])C([H])([H])c1c([H])c([H])c([H])c([H])c1[H])C([H])(C([H])([H])[H])C([H])([H])[H]


 40 41  0  0  0  0  0  0  0  0999 V2000
   52.5844   -5.1689   -6.2714 N   0  0  0  0  0  0  0  0  0  0  0  0
   53.1732   -4.3799   -7.2670 C   0  0  0  0  0  0  0  0  0  0  0  0
   52.6210   -3.3933   -7.8136 O   0  0  0  0  0  0  0  0  0  0  0  0
   53.0849   -5.9667   -5.8561 H   0  0  0  0  0  0  0  0  0  0  0  0
   51.2258   -4.9340   -5.7398 C   0  0  0  0  0  0  0  0  0  0  0  0
   51.3197   -5.2454   -4.3164 C   0  0  0  0  0  0  0  0  0  0  0  0
   50.1638   -5.2054   -3.6768 O   0  0  0  0  0  0  0  0  0  0  0  0
   52.4430   -5.5700   -3.5565 N   0  0  0  0  0  0  0  0  0  0  0  0
   53.3886   -5.6114   -3.9230 H   0  0  0  0  0  0  0  0  0  0  0  0
   52.3223   -5.8631   -2.1228 C   0  0  0  0  0  0  0  0  0  0  0  0
   53.5114   -5.3011   -1.4041 C   0  0  0  0  0  0  0  0  0  0  0  0
   54.0088   -5.9786   -0.5246 O   0  0  0  0  0  0  0  0  0  0  0  0
   52.3224   -7.3340   -1.9200 C   0  0  0  0  0  0  0  0  0  0  0  0
   51.0818   -7.8614   -1.3450 C   0  0  0  0  0  0  0  0  0  0  0  0
   49.9939   -7.0246   -1.1008 O   0  0  0  0  0  0  0  0  0  0  0  0
   50.9609   -9.0734   -1.0573 O   0  0  0  0  0  0  0  0  0  0  0  0
   50.1123   -6.0312   -0.9971 H   0  0  0  0  0  0  0  0  0  0  0  0
   50.7966   -6.8189   -7.3058 C   0  0  0  0  0  0  0  0  0  0  0  0
   50.2184   -5.6500   -6.5577 C   0  0  0  0  0  0  0  0  0  0  0  0
   49.5564   -4.7546   -7.5935 C   0  0  0  0  0  0  0  0  0  0  0  0
   54.5429   -4.7110   -7.7345 C   0  0  0  0  0  0  0  0  0  0  0  0
   54.8911   -3.9791   -8.9347 N   0  0  0  0  0  0  0  0  0  0  0  0
   56.0631   -4.3064   -9.6232 C   0  0  0  0  0  0  0  0  0  0  0  0
   56.7920   -5.2451   -9.1593 O   0  0  0  0  0  0  0  0  0  0  0  0
   54.2753   -3.2286   -9.2670 H   0  0  0  0  0  0  0  0  0  0  0  0
   56.5456   -3.7211  -10.7837 O   0  0  0  0  0  0  0  0  0  0  0  0
   57.4758   -4.3929  -11.6135 C   0  0  0  0  0  0  0  0  0  0  0  0
   57.1779   -4.2904  -13.0388 C   0  0  0  0  0  0  0  0  0  0  0  0
   56.1404   -4.9475  -13.6614 C   0  0  0  0  0  0  0  0  0  0  0  0
   55.8926   -4.8259  -15.0298 C   0  0  0  0  0  0  0  0  0  0  0  0
   56.6998   -4.0259  -15.8115 C   0  0  0  0  0  0  0  0  0  0  0  0
   57.7407   -3.3615  -15.2113 C   0  0  0  0  0  0  0  0  0  0  0  0
   57.9767   -3.4875  -13.8623 C   0  0  0  0  0  0  0  0  0  0  0  0
   55.5436   -4.4784   -6.6288 C   0  0  0  0  0  0  0  0  0  0  0  0
   55.6197   -5.5636   -5.6342 C   0  0  0  0  0  0  0  0  0  0  0  0
   56.0526   -5.3662   -4.3474 C   0  0  0  0  0  0  0  0  0  0  0  0
   56.1254   -6.3608   -3.4045 C   0  0  0  0  0  0  0  0  0  0  0  0
   55.7456   -7.6501   -3.7424 C   0  0  0  0  0  0  0  0  0  0  0  0
   55.3055   -7.8907   -5.0218 C   0  0  0  0  0  0  0  0  0  0  0  0
   55.2452   -6.8550   -5.9545 C   0  0  0  0  0  0  0  0  0  0  0  0
 18 19  1  0  0  0
 19 20  1  0  0  0
 19  5  1  0  0  0
  5  1  1  0  0  0
  1  2  1  0  0  0
  2  3  2  0  0  0
  2 21  1  0  0  0
 21 34  1  0  0  0
 34 35  1  0  0  0
 35 36  2  0  0  0
 36 37  1  0  0  0
 37 38  2  0  0  0
 38 39  1  0  0  0
 39 40  2  0  0  0
 21 22  1  0  0  0
 22 23  1  0  0  0
 23 24  2  0  0  0
 23 26  1  0  0  0
 26 27  1  0  0  0
 27 28  1  0  0  0
 28 29  2  0  0  0
 29 30  1  0  0  0
 30 31  2  0  0  0
 31 32  1  0  0  0
 32 33  2  0  0  0
  5  6  1  0  0  0
  6  7  2  0  0  0
  6  8  1  0  0  0
  8 10  1  0  0  0
 10 13  1  0  0  0
 13 14  1  0  0  0
 14 15  1  0  0  0
 14 16  2  0  0  0
 10 11  1  0  0  0
 11 12  2  0  0  0
 40 35  1  0  0  0
 33 28  1  0  0  0
  1  4  1  0  0  0
 22 25  1  0  0  0
  8  9  1  0  0  0
 15 17  1  0  0  0
M  END
> <minimizedAffinity>
-7.23676

> <CNNscore>
0.3552279770

> <CNNaffinity>
6.6890969276

> <CNN_VS>
2.3761544228

> <CNNaffinity_variance>
0.0544977784

$$$$
[H]OC(=O)C([H])([H])[C@@]([H])(C([H])=O)N([H])C(=O)[C@@]([H])(N([H])C(=O)[C@@]([H])(N([H])C(=O)OC([H])([H])c1c([H])c([H])c([H])c([H])c1[H])C([H])([H])c1c([H])c([H])c([H])c([H])c1[H])C([H])(C([H])([H])[H])C([H])([H])[H]


 40 41  0  0  0  0  0  0  0  0999 V2000
   59.7859   -6.4434   -8.3129 N   0  0  0  0  0  0  0  0  0  0  0  0
   58.6757   -5.8809   -8.9544 C   0  0  0  0  0  0  0  0  0  0  0  0
   58.4870   -5.8959  -10.1959 O   0  0  0  0  0  0  0  0  0  0  0  0
   59.8889   -6.4034   -7.2896 H   0  0  0  0  0  0  0  0  0  0  0  0
   60.8826   -7.1283   -9.0284 C   0  0  0  0  0  0  0  0  0  0  0  0
   61.3574   -8.1499   -8.0995 C   0  0  0  0  0  0  0  0  0  0  0  0
   61.8518   -9.2262   -8.6861 O   0  0  0  0  0  0  0  0  0  0  0  0
   61.3565   -8.1435   -6.7051 N   0  0  0  0  0  0  0  0  0  0  0  0
   60.9847   -7.3889   -6.1371 H   0  0  0  0  0  0  0  0  0  0  0  0
   61.8960   -9.2795   -5.9472 C   0  0  0  0  0  0  0  0  0  0  0  0
   60.7876  -10.2436   -5.6502 C   0  0  0  0  0  0  0  0  0  0  0  0
   60.7878  -11.3025   -6.2491 O   0  0  0  0  0  0  0  0  0  0  0  0
   62.4355   -8.7945   -4.6517 C   0  0  0  0  0  0  0  0  0  0  0  0
   62.1387   -7.3880   -4.3658 C   0  0  0  0  0  0  0  0  0  0  0  0
   63.0296   -6.3801   -4.7316 O   0  0  0  0  0  0  0  0  0  0  0  0
   61.0814   -7.0497   -3.7880 O   0  0  0  0  0  0  0  0  0  0  0  0
   64.0029   -6.5766   -4.8925 H   0  0  0  0  0  0  0  0  0  0  0  0
   62.3875   -6.5101  -10.9106 C   0  0  0  0  0  0  0  0  0  0  0  0
   61.8545   -6.1407   -9.5542 C   0  0  0  0  0  0  0  0  0  0  0  0
   63.0614   -5.9611   -8.6463 C   0  0  0  0  0  0  0  0  0  0  0  0
   57.6347   -5.2074   -8.1378 C   0  0  0  0  0  0  0  0  0  0  0  0
   56.3175   -5.3539   -8.7216 N   0  0  0  0  0  0  0  0  0  0  0  0
   55.4802   -4.2383   -8.8166 C   0  0  0  0  0  0  0  0  0  0  0  0
   55.9120   -3.1218   -8.3753 O   0  0  0  0  0  0  0  0  0  0  0  0
   56.0123   -6.2737   -9.0589 H   0  0  0  0  0  0  0  0  0  0  0  0
   54.2006   -4.1925   -9.3483 O   0  0  0  0  0  0  0  0  0  0  0  0
   53.3849   -3.0443   -9.2023 C   0  0  0  0  0  0  0  0  0  0  0  0
   52.3158   -3.1999   -8.2207 C   0  0  0  0  0  0  0  0  0  0  0  0
   52.2050   -4.2694   -7.3606 C   0  0  0  0  0  0  0  0  0  0  0  0
   51.1627   -4.3824   -6.4388 C   0  0  0  0  0  0  0  0  0  0  0  0
   50.1944   -3.4028   -6.3646 C   0  0  0  0  0  0  0  0  0  0  0  0
   50.2853   -2.3273   -7.2133 C   0  0  0  0  0  0  0  0  0  0  0  0
   51.3160   -2.2248   -8.1180 C   0  0  0  0  0  0  0  0  0  0  0  0
   57.6751   -5.7149   -6.7169 C   0  0  0  0  0  0  0  0  0  0  0  0
   56.3530   -5.8620   -6.0819 C   0  0  0  0  0  0  0  0  0  0  0  0
   55.5000   -6.8978   -6.3676 C   0  0  0  0  0  0  0  0  0  0  0  0
   54.2682   -7.0566   -5.7837 C   0  0  0  0  0  0  0  0  0  0  0  0
   53.8333   -6.1329   -4.8465 C   0  0  0  0  0  0  0  0  0  0  0  0
   54.6578   -5.0797   -4.5314 C   0  0  0  0  0  0  0  0  0  0  0  0
   55.9038   -4.9497   -5.1456 C   0  0  0  0  0  0  0  0  0  0  0  0
 18 19  1  0  0  0
 19 20  1  0  0  0
 19  5  1  0  0  0
  5  1  1  0  0  0
  1  2  1  0  0  0
  2  3  2  0  0  0
  2 21  1  0  0  0
 21 34  1  0  0  0
 34 35  1  0  0  0
 35 36  2  0  0  0
 36 37  1  0  0  0
 37 38  2  0  0  0
 38 39  1  0  0  0
 39 40  2  0  0  0
 21 22  1  0  0  0
 22 23  1  0  0  0
 23 24  2  0  0  0
 23 26  1  0  0  0
 26 27  1  0  0  0
 27 28  1  0  0  0
 28 29  2  0  0  0
 29 30  1  0  0  0
 30 31  2  0  0  0
 31 32  1  0  0  0
 32 33  2  0  0  0
  5  6  1  0  0  0
  6  7  2  0  0  0
  6  8  1  0  0  0
  8 10  1  0  0  0
 10 13  1  0  0  0
 13 14  1  0  0  0
 14 15  1  0  0  0
 14 16  2  0  0  0
 10 11  1  0  0  0
 11 12  2  0  0  0
 40 35  1  0  0  0
 33 28  1  0  0  0
  1  4  1  0  0  0
 22 25  1  0  0  0
  8  9  1  0  0  0
 15 17  1  0  0  0
M  END
> <minimizedAffinity>
-6.34947

> <CNNscore>
0.3037554026

> <CNNaffinity>
6.0367040634

> <CNN_VS>
1.8336814642

> <CNNaffinity_variance>
0.1694218665

$$$$
[H]OC(=O)C([H])([H])[C@@]([H])(C([H])=O)N([H])C(=O)[C@@]([H])(N([H])C(=O)[C@@]([H])(N([H])C(=O)OC([H])([H])c1c([H])c([H])c([H])c([H])c1[H])C([H])([H])c1c([H])c([H])c([H])c([H])c1[H])C([H])(C([H])([H])[H])C([H])([H])[H]


 40 41  0  0  0  0  0  0  0  0999 V2000
   54.4873   -5.2509   -4.4405 N   0  0  0  0  0  0  0  0  0  0  0  0
   53.9201   -5.7649   -5.6129 C   0  0  0  0  0  0  0  0  0  0  0  0
   53.4795   -6.9342   -5.7379 O   0  0  0  0  0  0  0  0  0  0  0  0
   54.8315   -4.2820   -4.3935 H   0  0  0  0  0  0  0  0  0  0  0  0
   54.6393   -6.0326   -3.1957 C   0  0  0  0  0  0  0  0  0  0  0  0
   55.9146   -6.7283   -3.3418 C   0  0  0  0  0  0  0  0  0  0  0  0
   55.9089   -7.6810   -4.2580 O   0  0  0  0  0  0  0  0  0  0  0  0
   57.1124   -6.5283   -2.6564 N   0  0  0  0  0  0  0  0  0  0  0  0
   57.2403   -5.8460   -1.9159 H   0  0  0  0  0  0  0  0  0  0  0  0
   58.2990   -7.3368   -2.9635 C   0  0  0  0  0  0  0  0  0  0  0  0
   58.1279   -8.7047   -2.3754 C   0  0  0  0  0  0  0  0  0  0  0  0
   58.8387   -9.0055   -1.4350 O   0  0  0  0  0  0  0  0  0  0  0  0
   59.4924   -6.7176   -2.3335 C   0  0  0  0  0  0  0  0  0  0  0  0
   59.1841   -5.8107   -1.2243 C   0  0  0  0  0  0  0  0  0  0  0  0
   58.6227   -6.2911   -0.0421 O   0  0  0  0  0  0  0  0  0  0  0  0
   59.4145   -4.5831   -1.3032 O   0  0  0  0  0  0  0  0  0  0  0  0
   58.1236   -7.1641   -0.0182 H   0  0  0  0  0  0  0  0  0  0  0  0
   52.2149   -5.9845   -2.6394 C   0  0  0  0  0  0  0  0  0  0  0  0
   53.4200   -6.8336   -2.9346 C   0  0  0  0  0  0  0  0  0  0  0  0
   53.5808   -7.7850   -1.7590 C   0  0  0  0  0  0  0  0  0  0  0  0
   53.8242   -4.8930   -6.8107 C   0  0  0  0  0  0  0  0  0  0  0  0
   54.9182   -5.1244   -7.7310 N   0  0  0  0  0  0  0  0  0  0  0  0
   55.0147   -4.3512   -8.8919 C   0  0  0  0  0  0  0  0  0  0  0  0
   54.1216   -3.4644   -9.1008 O   0  0  0  0  0  0  0  0  0  0  0  0
   55.6103   -5.8527   -7.5224 H   0  0  0  0  0  0  0  0  0  0  0  0
   55.9907   -4.4295   -9.8733 O   0  0  0  0  0  0  0  0  0  0  0  0
   55.6792   -4.2155  -11.2380 C   0  0  0  0  0  0  0  0  0  0  0  0
   56.8506   -4.0379  -12.0907 C   0  0  0  0  0  0  0  0  0  0  0  0
   58.1510   -4.1206  -11.6457 C   0  0  0  0  0  0  0  0  0  0  0  0
   59.2444   -3.9394  -12.4946 C   0  0  0  0  0  0  0  0  0  0  0  0
   59.0453   -3.6660  -13.8318 C   0  0  0  0  0  0  0  0  0  0  0  0
   57.7565   -3.5788  -14.2970 C   0  0  0  0  0  0  0  0  0  0  0  0
   56.6856   -3.7592  -13.4531 C   0  0  0  0  0  0  0  0  0  0  0  0
   52.4837   -5.0709   -7.4812 C   0  0  0  0  0  0  0  0  0  0  0  0
   51.4015   -4.2465   -6.9138 C   0  0  0  0  0  0  0  0  0  0  0  0
   51.0050   -3.0547   -7.4656 C   0  0  0  0  0  0  0  0  0  0  0  0
   49.9964   -2.2751   -6.9571 C   0  0  0  0  0  0  0  0  0  0  0  0
   49.3202   -2.6902   -5.8209 C   0  0  0  0  0  0  0  0  0  0  0  0
   49.6863   -3.8790   -5.2367 C   0  0  0  0  0  0  0  0  0  0  0  0
   50.7171   -4.6456   -5.7811 C   0  0  0  0  0  0  0  0  0  0  0  0
 18 19  1  0  0  0
 19 20  1  0  0  0
 19  5  1  0  0  0
  5  1  1  0  0  0
  1  2  1  0  0  0
  2  3  2  0  0  0
  2 21  1  0  0  0
 21 34  1  0  0  0
 34 35  1  0  0  0
 35 36  2  0  0  0
 36 37  1  0  0  0
 37 38  2  0  0  0
 38 39  1  0  0  0
 39 40  2  0  0  0
 21 22  1  0  0  0
 22 23  1  0  0  0
 23 24  2  0  0  0
 23 26  1  0  0  0
 26 27  1  0  0  0
 27 28  1  0  0  0
 28 29  2  0  0  0
 29 30  1  0  0  0
 30 31  2  0  0  0
 31 32  1  0  0  0
 32 33  2  0  0  0
  5  6  1  0  0  0
  6  7  2  0  0  0
  6  8  1  0  0  0
  8 10  1  0  0  0
 10 13  1  0  0  0
 13 14  1  0  0  0
 14 15  1  0  0  0
 14 16  2  0  0  0
 10 11  1  0  0  0
 11 12  2  0  0  0
 40 35  1  0  0  0
 33 28  1  0  0  0
  1  4  1  0  0  0
 22 25  1  0  0  0
  8  9  1  0  0  0
 15 17  1  0  0  0
M  END
> <minimizedAffinity>
-7.79277

> <CNNscore>
0.2975406349

> <CNNaffinity>
6.6703758240

> <CNN_VS>
1.9847078323

> <CNNaffinity_variance>
0.2550582588

$$$$
[H]OC(=O)C([H])([H])[C@@]([H])(C([H])=O)N([H])C(=O)[C@@]([H])(N([H])C(=O)[C@@]([H])(N([H])C(=O)OC([H])([H])c1c([H])c([H])c([H])c([H])c1[H])C([H])([H])c1c([H])c([H])c([H])c([H])c1[H])C([H])(C([H])([H])[H])C([H])([H])[H]


 40 41  0  0  0  0  0  0  0  0999 V2000
   59.7153   -6.3705   -8.6738 N   0  0  0  0  0  0  0  0  0  0  0  0
   58.6356   -5.6278   -9.1667 C   0  0  0  0  0  0  0  0  0  0  0  0
   58.5051   -5.2684  -10.3629 O   0  0  0  0  0  0  0  0  0  0  0  0
   59.7704   -6.6397   -7.6818 H   0  0  0  0  0  0  0  0  0  0  0  0
   60.8451   -6.8241   -9.5114 C   0  0  0  0  0  0  0  0  0  0  0  0
   60.8675   -8.2760   -9.3587 C   0  0  0  0  0  0  0  0  0  0  0  0
   60.5184   -8.9395  -10.4473 O   0  0  0  0  0  0  0  0  0  0  0  0
   61.1983   -9.0406   -8.2405 N   0  0  0  0  0  0  0  0  0  0  0  0
   61.4599   -8.6527   -7.3398 H   0  0  0  0  0  0  0  0  0  0  0  0
   61.1676  -10.5075   -8.2964 C   0  0  0  0  0  0  0  0  0  0  0  0
   60.8039  -11.0438   -6.9450 C   0  0  0  0  0  0  0  0  0  0  0  0
   59.9207  -11.8787   -6.8903 O   0  0  0  0  0  0  0  0  0  0  0  0
   62.5207  -11.0150   -8.6373 C   0  0  0  0  0  0  0  0  0  0  0  0
   62.5544  -11.8982   -9.8064 C   0  0  0  0  0  0  0  0  0  0  0  0
   61.6970  -11.6898  -10.8856 O   0  0  0  0  0  0  0  0  0  0  0  0
   63.3504  -12.8618   -9.8720 O   0  0  0  0  0  0  0  0  0  0  0  0
   60.8429  -11.1690  -10.7809 H   0  0  0  0  0  0  0  0  0  0  0  0
   63.2486   -6.4514  -10.0347 C   0  0  0  0  0  0  0  0  0  0  0  0
   62.0713   -6.0576   -9.1866 C   0  0  0  0  0  0  0  0  0  0  0  0
   62.5034   -6.2236   -7.7380 C   0  0  0  0  0  0  0  0  0  0  0  0
   57.5568   -5.2161   -8.2335 C   0  0  0  0  0  0  0  0  0  0  0  0
   56.2542   -5.2661   -8.8645 N   0  0  0  0  0  0  0  0  0  0  0  0
   55.4082   -4.1560   -8.7830 C   0  0  0  0  0  0  0  0  0  0  0  0
   55.8192   -3.1313   -8.1437 O   0  0  0  0  0  0  0  0  0  0  0  0
   55.9656   -6.1147   -9.3641 H   0  0  0  0  0  0  0  0  0  0  0  0
   54.1403   -4.0256   -9.3284 O   0  0  0  0  0  0  0  0  0  0  0  0
   53.3378   -2.8905   -9.0589 C   0  0  0  0  0  0  0  0  0  0  0  0
   52.2646   -3.1394   -8.1013 C   0  0  0  0  0  0  0  0  0  0  0  0
   52.2052   -4.2388   -7.2745 C   0  0  0  0  0  0  0  0  0  0  0  0
   51.1572   -4.4418   -6.3748 C   0  0  0  0  0  0  0  0  0  0  0  0
   50.1303   -3.5249   -6.2894 C   0  0  0  0  0  0  0  0  0  0  0  0
   50.1692   -2.4210   -7.1050 C   0  0  0  0  0  0  0  0  0  0  0  0
   51.2061   -2.2296   -7.9880 C   0  0  0  0  0  0  0  0  0  0  0  0
   57.6019   -6.0545   -6.9793 C   0  0  0  0  0  0  0  0  0  0  0  0
   56.3893   -5.9735   -6.1452 C   0  0  0  0  0  0  0  0  0  0  0  0
   55.3504   -6.8631   -6.2520 C   0  0  0  0  0  0  0  0  0  0  0  0
   54.2159   -6.8093   -5.4815 C   0  0  0  0  0  0  0  0  0  0  0  0
   54.0836   -5.8095   -4.5310 C   0  0  0  0  0  0  0  0  0  0  0  0
   55.1022   -4.8976   -4.3915 C   0  0  0  0  0  0  0  0  0  0  0  0
   56.2412   -4.9827   -5.1928 C   0  0  0  0  0  0  0  0  0  0  0  0
 18 19  1  0  0  0
 19 20  1  0  0  0
 19  5  1  0  0  0
  5  1  1  0  0  0
  1  2  1  0  0  0
  2  3  2  0  0  0
  2 21  1  0  0  0
 21 34  1  0  0  0
 34 35  1  0  0  0
 35 36  2  0  0  0
 36 37  1  0  0  0
 37 38  2  0  0  0
 38 39  1  0  0  0
 39 40  2  0  0  0
 21 22  1  0  0  0
 22 23  1  0  0  0
 23 24  2  0  0  0
 23 26  1  0  0  0
 26 27  1  0  0  0
 27 28  1  0  0  0
 28 29  2  0  0  0
 29 30  1  0  0  0
 30 31  2  0  0  0
 31 32  1  0  0  0
 32 33  2  0  0  0
  5  6  1  0  0  0
  6  7  2  0  0  0
  6  8  1  0  0  0
  8 10  1  0  0  0
 10 13  1  0  0  0
 13 14  1  0  0  0
 14 15  1  0  0  0
 14 16  2  0  0  0
 10 11  1  0  0  0
 11 12  2  0  0  0
 40 35  1  0  0  0
 33 28  1  0  0  0
  1  4  1  0  0  0
 22 25  1  0  0  0
  8  9  1  0  0  0
 15 17  1  0  0  0
M  END
> <minimizedAffinity>
-6.67242

> <CNNscore>
0.2839383185

> <CNNaffinity>
6.0202260017

> <CNN_VS>
1.7093728781

> <CNNaffinity_variance>
0.1322673261

$$$$
[H]OC(=O)C([H])([H])[C@@]([H])(C([H])=O)N([H])C(=O)[C@@]([H])(N([H])C(=O)[C@@]([H])(N([H])C(=O)OC([H])([H])c1c([H])c([H])c([H])c([H])c1[H])C([H])([H])c1c([H])c([H])c([H])c([H])c1[H])C([H])(C([H])([H])[H])C([H])([H])[H]


 40 41  0  0  0  0  0  0  0  0999 V2000
   54.9987   -5.2926   -5.1926 N   0  0  0  0  0  0  0  0  0  0  0  0
   54.8229   -5.8719   -6.4550 C   0  0  0  0  0  0  0  0  0  0  0  0
   54.6519   -7.0994   -6.6580 O   0  0  0  0  0  0  0  0  0  0  0  0
   55.1335   -4.2779   -5.0843 H   0  0  0  0  0  0  0  0  0  0  0  0
   55.0066   -6.0653   -3.9330 C   0  0  0  0  0  0  0  0  0  0  0  0
   53.7537   -5.7161   -3.2696 C   0  0  0  0  0  0  0  0  0  0  0  0
   53.9046   -4.9811   -2.1815 O   0  0  0  0  0  0  0  0  0  0  0  0
   52.4462   -6.0497   -3.6215 N   0  0  0  0  0  0  0  0  0  0  0  0
   52.1983   -6.6265   -4.4190 H   0  0  0  0  0  0  0  0  0  0  0  0
   51.3089   -5.5847   -2.8176 C   0  0  0  0  0  0  0  0  0  0  0  0
   51.1368   -6.4925   -1.6375 C   0  0  0  0  0  0  0  0  0  0  0  0
   50.0707   -7.0667   -1.5205 O   0  0  0  0  0  0  0  0  0  0  0  0
   50.0691   -5.6577   -3.6314 C   0  0  0  0  0  0  0  0  0  0  0  0
   49.1463   -4.5384   -3.4224 C   0  0  0  0  0  0  0  0  0  0  0  0
   49.5198   -3.2338   -3.7418 O   0  0  0  0  0  0  0  0  0  0  0  0
   47.9999   -4.7182   -2.9536 O   0  0  0  0  0  0  0  0  0  0  0  0
   50.4879   -2.9693   -3.8080 H   0  0  0  0  0  0  0  0  0  0  0  0
   57.4676   -6.4300   -3.9206 C   0  0  0  0  0  0  0  0  0  0  0  0
   56.2789   -5.8534   -3.2030 C   0  0  0  0  0  0  0  0  0  0  0  0
   56.2695   -6.4685   -1.8122 C   0  0  0  0  0  0  0  0  0  0  0  0
   54.8408   -5.0015   -7.6576 C   0  0  0  0  0  0  0  0  0  0  0  0
   55.9793   -5.2841   -8.5068 N   0  0  0  0  0  0  0  0  0  0  0  0
   56.2817   -4.4173   -9.5614 C   0  0  0  0  0  0  0  0  0  0  0  0
   55.5309   -3.4015   -9.7403 O   0  0  0  0  0  0  0  0  0  0  0  0
   56.5516   -6.1165   -8.3266 H   0  0  0  0  0  0  0  0  0  0  0  0
   57.3287   -4.5269  -10.4635 O   0  0  0  0  0  0  0  0  0  0  0  0
   57.5500   -3.5410  -11.4556 C   0  0  0  0  0  0  0  0  0  0  0  0
   57.1294   -3.9445  -12.7938 C   0  0  0  0  0  0  0  0  0  0  0  0
   56.1822   -4.9108  -13.0485 C   0  0  0  0  0  0  0  0  0  0  0  0
   55.8115   -5.2707  -14.3454 C   0  0  0  0  0  0  0  0  0  0  0  0
   56.3987   -4.6534  -15.4302 C   0  0  0  0  0  0  0  0  0  0  0  0
   57.3461   -3.6868  -15.1993 C   0  0  0  0  0  0  0  0  0  0  0  0
   57.7045   -3.3389  -13.9179 C   0  0  0  0  0  0  0  0  0  0  0  0
   53.5386   -5.1233   -8.4110 C   0  0  0  0  0  0  0  0  0  0  0  0
   52.5057   -4.1519   -8.0084 C   0  0  0  0  0  0  0  0  0  0  0  0
   52.3930   -2.9067   -8.5730 C   0  0  0  0  0  0  0  0  0  0  0  0
   51.4355   -1.9900   -8.2174 C   0  0  0  0  0  0  0  0  0  0  0  0
   50.5142   -2.3128   -7.2336 C   0  0  0  0  0  0  0  0  0  0  0  0
   50.5920   -3.5508   -6.6423 C   0  0  0  0  0  0  0  0  0  0  0  0
   51.5794   -4.4575   -7.0289 C   0  0  0  0  0  0  0  0  0  0  0  0
 18 19  1  0  0  0
 19 20  1  0  0  0
 19  5  1  0  0  0
  5  1  1  0  0  0
  1  2  1  0  0  0
  2  3  2  0  0  0
  2 21  1  0  0  0
 21 34  1  0  0  0
 34 35  1  0  0  0
 35 36  2  0  0  0
 36 37  1  0  0  0
 37 38  2  0  0  0
 38 39  1  0  0  0
 39 40  2  0  0  0
 21 22  1  0  0  0
 22 23  1  0  0  0
 23 24  2  0  0  0
 23 26  1  0  0  0
 26 27  1  0  0  0
 27 28  1  0  0  0
 28 29  2  0  0  0
 29 30  1  0  0  0
 30 31  2  0  0  0
 31 32  1  0  0  0
 32 33  2  0  0  0
  5  6  1  0  0  0
  6  7  2  0  0  0
  6  8  1  0  0  0
  8 10  1  0  0  0
 10 13  1  0  0  0
 13 14  1  0  0  0
 14 15  1  0  0  0
 14 16  2  0  0  0
 10 11  1  0  0  0
 11 12  2  0  0  0
 40 35  1  0  0  0
 33 28  1  0  0  0
  1  4  1  0  0  0
 22 25  1  0  0  0
  8  9  1  0  0  0
 15 17  1  0  0  0
M  END
> <minimizedAffinity>
-7.86957

> <CNNscore>
0.2834127247

> <CNNaffinity>
6.6640462875

> <CNN_VS>
1.8886755705

> <CNNaffinity_variance>
0.0339429826

$$$$
[H]OC(=O)C([H])([H])[C@@]([H])(C([H])=O)N([H])C(=O)[C@@]([H])(N([H])C(=O)[C@@]([H])(N([H])C(=O)OC([H])([H])c1c([H])c([H])c([H])c([H])c1[H])C([H])([H])c1c([H])c([H])c([H])c([H])c1[H])C([H])(C([H])([H])[H])C([H])([H])[H]


 40 41  0  0  0  0  0  0  0  0999 V2000
   57.0767   -4.5461   -9.1537 N   0  0  0  0  0  0  0  0  0  0  0  0
   55.7029   -4.2798   -9.1989 C   0  0  0  0  0  0  0  0  0  0  0  0
   54.9442   -4.6088  -10.1441 O   0  0  0  0  0  0  0  0  0  0  0  0
   57.6515   -4.2541   -8.3513 H   0  0  0  0  0  0  0  0  0  0  0  0
   57.8078   -5.2525  -10.2261 C   0  0  0  0  0  0  0  0  0  0  0  0
   58.9780   -5.8268   -9.5684 C   0  0  0  0  0  0  0  0  0  0  0  0
   59.2847   -5.2566   -8.4161 O   0  0  0  0  0  0  0  0  0  0  0  0
   59.8001   -6.8729   -9.9859 N   0  0  0  0  0  0  0  0  0  0  0  0
   59.6855   -7.3762  -10.8599 H   0  0  0  0  0  0  0  0  0  0  0  0
   60.9348   -7.3119   -9.1640 C   0  0  0  0  0  0  0  0  0  0  0  0
   62.1557   -6.5361   -9.5564 C   0  0  0  0  0  0  0  0  0  0  0  0
   62.9572   -6.2684   -8.6812 O   0  0  0  0  0  0  0  0  0  0  0  0
   61.2056   -8.7480   -9.4265 C   0  0  0  0  0  0  0  0  0  0  0  0
   61.3844   -9.5566   -8.2173 C   0  0  0  0  0  0  0  0  0  0  0  0
   60.6076  -10.6926   -7.9946 O   0  0  0  0  0  0  0  0  0  0  0  0
   62.2362   -9.2544   -7.3516 O   0  0  0  0  0  0  0  0  0  0  0  0
   59.7197  -10.8155   -8.4510 H   0  0  0  0  0  0  0  0  0  0  0  0
   57.0908   -4.6621  -12.5341 C   0  0  0  0  0  0  0  0  0  0  0  0
   58.0154   -4.3569  -11.3885 C   0  0  0  0  0  0  0  0  0  0  0  0
   59.4307   -4.4270  -11.9408 C   0  0  0  0  0  0  0  0  0  0  0  0
   55.0706   -3.5541   -8.0685 C   0  0  0  0  0  0  0  0  0  0  0  0
   53.6791   -3.9216   -7.9069 N   0  0  0  0  0  0  0  0  0  0  0  0
   52.6822   -3.0599   -8.3744 C   0  0  0  0  0  0  0  0  0  0  0  0
   53.0410   -1.9676   -8.9274 O   0  0  0  0  0  0  0  0  0  0  0  0
   53.4392   -4.8092   -7.4513 H   0  0  0  0  0  0  0  0  0  0  0  0
   51.3106   -3.2514   -8.3114 O   0  0  0  0  0  0  0  0  0  0  0  0
   50.5039   -2.4996   -7.4230 C   0  0  0  0  0  0  0  0  0  0  0  0
   50.1148   -3.2270   -6.2188 C   0  0  0  0  0  0  0  0  0  0  0  0
   50.6857   -4.4124   -5.8127 C   0  0  0  0  0  0  0  0  0  0  0  0
   50.2804   -5.0792   -4.6552 C   0  0  0  0  0  0  0  0  0  0  0  0
   49.2740   -4.5557   -3.8706 C   0  0  0  0  0  0  0  0  0  0  0  0
   48.6904   -3.3745   -4.2570 C   0  0  0  0  0  0  0  0  0  0  0  0
   49.0967   -2.7247   -5.3990 C   0  0  0  0  0  0  0  0  0  0  0  0
   55.8573   -3.7753   -6.7996 C   0  0  0  0  0  0  0  0  0  0  0  0
   55.5092   -5.0085   -6.0709 C   0  0  0  0  0  0  0  0  0  0  0  0
   56.4006   -6.0314   -5.8685 C   0  0  0  0  0  0  0  0  0  0  0  0
   56.0990   -7.1846   -5.1882 C   0  0  0  0  0  0  0  0  0  0  0  0
   54.8278   -7.3540   -4.6628 C   0  0  0  0  0  0  0  0  0  0  0  0
   53.9043   -6.3524   -4.8431 C   0  0  0  0  0  0  0  0  0  0  0  0
   54.2461   -5.1936   -5.5409 C   0  0  0  0  0  0  0  0  0  0  0  0
 18 19  1  0  0  0
 19 20  1  0  0  0
 19  5  1  0  0  0
  5  1  1  0  0  0
  1  2  1  0  0  0
  2  3  2  0  0  0
  2 21  1  0  0  0
 21 34  1  0  0  0
 34 35  1  0  0  0
 35 36  2  0  0  0
 36 37  1  0  0  0
 37 38  2  0  0  0
 38 39  1  0  0  0
 39 40  2  0  0  0
 21 22  1  0  0  0
 22 23  1  0  0  0
 23 24  2  0  0  0
 23 26  1  0  0  0
 26 27  1  0  0  0
 27 28  1  0  0  0
 28 29  2  0  0  0
 29 30  1  0  0  0
 30 31  2  0  0  0
 31 32  1  0  0  0
 32 33  2  0  0  0
  5  6  1  0  0  0
  6  7  2  0  0  0
  6  8  1  0  0  0
  8 10  1  0  0  0
 10 13  1  0  0  0
 13 14  1  0  0  0
 14 15  1  0  0  0
 14 16  2  0  0  0
 10 11  1  0  0  0
 11 12  2  0  0  0
 40 35  1  0  0  0
 33 28  1  0  0  0
  1  4  1  0  0  0
 22 25  1  0  0  0
  8  9  1  0  0  0
 15 17  1  0  0  0
M  END
> <minimizedAffinity>
-8.22728

> <CNNscore>
0.2118965983

> <CNNaffinity>
6.3658666611

> <CNN_VS>
1.3489054441

> <CNNaffinity_variance>
0.0432827547

$$$$
[H]OC(=O)C([H])([H])[C@@]([H])(C([H])=O)N([H])C(=O)[C@@]([H])(N([H])C(=O)[C@@]([H])(N([H])C(=O)OC([H])([H])c1c([H])c([H])c([H])c([H])c1[H])C([H])([H])c1c([H])c([H])c([H])c([H])c1[H])C([H])(C([H])([H])[H])C([H])([H])[H]


 40 41  0  0  0  0  0  0  0  0999 V2000
   55.4275   -7.3288   -4.3523 N   0  0  0  0  0  0  0  0  0  0  0  0
   55.0853   -5.9801   -4.5081 C   0  0  0  0  0  0  0  0  0  0  0  0
   54.8292   -5.1961   -3.5610 O   0  0  0  0  0  0  0  0  0  0  0  0
   55.6295   -7.9263   -5.1658 H   0  0  0  0  0  0  0  0  0  0  0  0
   55.5274   -8.0000   -3.0396 C   0  0  0  0  0  0  0  0  0  0  0  0
   54.3123   -7.6157   -2.3272 C   0  0  0  0  0  0  0  0  0  0  0  0
   54.5247   -7.1463   -1.1101 O   0  0  0  0  0  0  0  0  0  0  0  0
   52.9847   -7.6789   -2.7493 N   0  0  0  0  0  0  0  0  0  0  0  0
   52.6878   -8.0402   -3.6502 H   0  0  0  0  0  0  0  0  0  0  0  0
   51.8950   -7.2277   -1.8747 C   0  0  0  0  0  0  0  0  0  0  0  0
   52.1433   -5.8052   -1.4734 C   0  0  0  0  0  0  0  0  0  0  0  0
   51.7636   -4.9326   -2.2313 O   0  0  0  0  0  0  0  0  0  0  0  0
   51.8819   -8.0523   -0.6400 C   0  0  0  0  0  0  0  0  0  0  0  0
   50.5599   -8.5709   -0.2777 C   0  0  0  0  0  0  0  0  0  0  0  0
   49.4950   -7.7059   -0.0304 O   0  0  0  0  0  0  0  0  0  0  0  0
   50.3468   -9.8003   -0.1801 O   0  0  0  0  0  0  0  0  0  0  0  0
   49.6509   -6.7459    0.2258 H   0  0  0  0  0  0  0  0  0  0  0  0
   57.8731   -7.2527   -3.3987 C   0  0  0  0  0  0  0  0  0  0  0  0
   56.8387   -7.7153   -2.4105 C   0  0  0  0  0  0  0  0  0  0  0  0
   57.4260   -8.9247   -1.6996 C   0  0  0  0  0  0  0  0  0  0  0  0
   55.0054   -5.4089   -5.8761 C   0  0  0  0  0  0  0  0  0  0  0  0
   56.2052   -5.6794   -6.6408 N   0  0  0  0  0  0  0  0  0  0  0  0
   56.9169   -4.6148   -7.2019 C   0  0  0  0  0  0  0  0  0  0  0  0
   56.4738   -3.4322   -7.0208 O   0  0  0  0  0  0  0  0  0  0  0  0
   56.5202   -6.6483   -6.7633 H   0  0  0  0  0  0  0  0  0  0  0  0
   58.0805   -4.6864   -7.9522 O   0  0  0  0  0  0  0  0  0  0  0  0
   58.1722   -5.5277   -9.0875 C   0  0  0  0  0  0  0  0  0  0  0  0
   57.6787   -4.9162  -10.3176 C   0  0  0  0  0  0  0  0  0  0  0  0
   58.4681   -4.6258  -11.4077 C   0  0  0  0  0  0  0  0  0  0  0  0
   57.9567   -4.0355  -12.5649 C   0  0  0  0  0  0  0  0  0  0  0  0
   56.6164   -3.7203  -12.6475 C   0  0  0  0  0  0  0  0  0  0  0  0
   55.8108   -4.0010  -11.5716 C   0  0  0  0  0  0  0  0  0  0  0  0
   56.3238   -4.5829  -10.4360 C   0  0  0  0  0  0  0  0  0  0  0  0
   53.7690   -5.9112   -6.5812 C   0  0  0  0  0  0  0  0  0  0  0  0
   52.8161   -4.8565   -6.9713 C   0  0  0  0  0  0  0  0  0  0  0  0
   51.6126   -4.6687   -6.3400 C   0  0  0  0  0  0  0  0  0  0  0  0
   50.7142   -3.6896   -6.6832 C   0  0  0  0  0  0  0  0  0  0  0  0
   51.0125   -2.8245   -7.7240 C   0  0  0  0  0  0  0  0  0  0  0  0
   52.2086   -2.9783   -8.3830 C   0  0  0  0  0  0  0  0  0  0  0  0
   53.0978   -3.9855   -8.0071 C   0  0  0  0  0  0  0  0  0  0  0  0
 18 19  1  0  0  0
 19 20  1  0  0  0
 19  5  1  0  0  0
  5  1  1  0  0  0
  1  2  1  0  0  0
  2  3  2  0  0  0
  2 21  1  0  0  0
 21 34  1  0  0  0
 34 35  1  0  0  0
 35 36  2  0  0  0
 36 37  1  0  0  0
 37 38  2  0  0  0
 38 39  1  0  0  0
 39 40  2  0  0  0
 21 22  1  0  0  0
 22 23  1  0  0  0
 23 24  2  0  0  0
 23 26  1  0  0  0
 26 27  1  0  0  0
 27 28  1  0  0  0
 28 29  2  0  0  0
 29 30  1  0  0  0
 30 31  2  0  0  0
 31 32  1  0  0  0
 32 33  2  0  0  0
  5  6  1  0  0  0
  6  7  2  0  0  0
  6  8  1  0  0  0
  8 10  1  0  0  0
 10 13  1  0  0  0
 13 14  1  0  0  0
 14 15  1  0  0  0
 14 16  2  0  0  0
 10 11  1  0  0  0
 11 12  2  0  0  0
 40 35  1  0  0  0
 33 28  1  0  0  0
  1  4  1  0  0  0
 22 25  1  0  0  0
  8  9  1  0  0  0
 15 17  1  0  0  0
M  END
> <minimizedAffinity>
-8.57503

> <CNNscore>
0.1962908208

> <CNNaffinity>
5.9939055443

> <CNN_VS>
1.1765486002

> <CNNaffinity_variance>
0.2756471634

$$$$
[H]OC(=O)c1[se]c(-c2c([H])c([H])c(C([H])([H])[H])c(C#N)c2[H])nc1C([H])([H])[H]


 19 20  0  0  0  0  0  0  0  0999 V2000
   54.8528   -4.1378   -8.7925 C   0  0  0  0  0  0  0  0  0  0  0  0
   55.9945   -4.5716   -8.4962 N   0  0  0  0  0  0  0  0  0  0  0  0
   57.0466   -4.8205   -9.1204 C   0  0  0  0  0  0  0  0  0  0  0  0
   58.3057   -5.3611   -8.4217 C   0  0  0  0  0  0  0  0  0  0  0  0
   57.2200   -4.6548  -10.4530 C   0  0  0  0  0  0  0  0  0  0  0  0
   55.3045   -3.9394  -10.8770 Se  0  0  0  0  0  0  0  0  0  0  0  0
   49.7324   -2.5477   -6.9674 C   0  0  0  0  0  0  0  0  0  0  0  0
   51.0758   -2.9808   -7.4346 C   0  0  0  0  0  0  0  0  0  0  0  0
   51.7589   -2.2432   -8.3698 C   0  0  0  0  0  0  0  0  0  0  0  0
   52.9941   -2.6565   -8.7884 C   0  0  0  0  0  0  0  0  0  0  0  0
   53.5548   -3.7853   -8.2930 C   0  0  0  0  0  0  0  0  0  0  0  0
   52.8640   -4.5177   -7.3570 C   0  0  0  0  0  0  0  0  0  0  0  0
   51.6178   -4.1344   -6.9102 C   0  0  0  0  0  0  0  0  0  0  0  0
   50.9179   -4.9071   -5.9398 C   0  0  0  0  0  0  0  0  0  0  0  0
   50.3481   -5.5231   -5.1424 N   0  0  0  0  0  0  0  0  0  0  0  0
   58.2529   -4.8389  -11.4241 C   0  0  0  0  0  0  0  0  0  0  0  0
   59.5674   -5.1796  -11.1022 O   0  0  0  0  0  0  0  0  0  0  0  0
   57.9948   -4.6935  -12.6397 O   0  0  0  0  0  0  0  0  0  0  0  0
   60.2265   -4.4076  -11.0068 H   0  0  0  0  0  0  0  0  0  0  0  0
  7  8  1  0  0  0
  8  9  2  0  0  0
  9 10  1  0  0  0
 10 11  2  0  0  0
 11 12  1  0  0  0
 12 13  2  0  0  0
 13 14  1  0  0  0
 14 15  3  0  0  0
 11  1  1  0  0  0
  1  2  2  0  0  0
  2  3  1  0  0  0
  3  4  1  0  0  0
  3  5  2  0  0  0
  5  6  1  0  0  0
  5 16  1  0  0  0
 16 17  1  0  0  0
 16 18  2  0  0  0
 13  8  1  0  0  0
  6  1  1  0  0  0
 17 19  1  0  0  0
M  END
> <minimizedAffinity>
-8.73959

> <CNNscore>
0.7079373598

> <CNNaffinity>
5.6077051163

> <CNN_VS>
3.9699039459

> <CNNaffinity_variance>
0.0686261728

$$$$
[H]OC(=O)c1[se]c(-c2c([H])c([H])c(C([H])([H])[H])c(C#N)c2[H])nc1C([H])([H])[H]


 19 20  0  0  0  0  0  0  0  0999 V2000
   54.9079   -4.3544   -9.4750 C   0  0  0  0  0  0  0  0  0  0  0  0
   55.1306   -4.1263  -10.6906 N   0  0  0  0  0  0  0  0  0  0  0  0
   56.1408   -4.0877  -11.4231 C   0  0  0  0  0  0  0  0  0  0  0  0
   56.0528   -3.7652  -12.9244 C   0  0  0  0  0  0  0  0  0  0  0  0
   57.4105   -4.3166  -11.0123 C   0  0  0  0  0  0  0  0  0  0  0  0
   56.9711   -4.6854   -9.0044 Se  0  0  0  0  0  0  0  0  0  0  0  0
   51.0630   -4.9456   -5.3585 C   0  0  0  0  0  0  0  0  0  0  0  0
   52.0626   -4.7746   -6.4457 C   0  0  0  0  0  0  0  0  0  0  0  0
   53.1184   -5.6443   -6.5639 C   0  0  0  0  0  0  0  0  0  0  0  0
   54.0290   -5.4720   -7.5704 C   0  0  0  0  0  0  0  0  0  0  0  0
   53.9042   -4.4537   -8.4545 C   0  0  0  0  0  0  0  0  0  0  0  0
   52.8441   -3.5877   -8.3289 C   0  0  0  0  0  0  0  0  0  0  0  0
   51.9063   -3.7280   -7.3288 C   0  0  0  0  0  0  0  0  0  0  0  0
   50.8148   -2.8199   -7.2154 C   0  0  0  0  0  0  0  0  0  0  0  0
   49.9184   -2.0933   -7.1248 N   0  0  0  0  0  0  0  0  0  0  0  0
   58.7237   -4.3473  -11.5765 C   0  0  0  0  0  0  0  0  0  0  0  0
   59.1580   -3.4764  -12.5768 O   0  0  0  0  0  0  0  0  0  0  0  0
   59.5537   -5.1913  -11.1712 O   0  0  0  0  0  0  0  0  0  0  0  0
   59.0774   -3.8107  -13.5367 H   0  0  0  0  0  0  0  0  0  0  0  0
  7  8  1  0  0  0
  8  9  2  0  0  0
  9 10  1  0  0  0
 10 11  2  0  0  0
 11 12  1  0  0  0
 12 13  2  0  0  0
 13 14  1  0  0  0
 14 15  3  0  0  0
 11  1  1  0  0  0
  1  2  2  0  0  0
  2  3  1  0  0  0
  3  4  1  0  0  0
  3  5  2  0  0  0
  5  6  1  0  0  0
  5 16  1  0  0  0
 16 17  1  0  0  0
 16 18  2  0  0  0
 13  8  1  0  0  0
  6  1  1  0  0  0
 17 19  1  0  0  0
M  END
> <minimizedAffinity>
-7.71577

> <CNNscore>
0.6710557938

> <CNNaffinity>
5.5281615257

> <CNN_VS>
3.7097048759

> <CNNaffinity_variance>
0.1548792124

$$$$
[H]OC(=O)c1[se]c(-c2c([H])c([H])c(C([H])([H])[H])c(C#N)c2[H])nc1C([H])([H])[H]


 19 20  0  0  0  0  0  0  0  0999 V2000
   53.4368   -4.0465   -8.0033 C   0  0  0  0  0  0  0  0  0  0  0  0
   52.4064   -3.3299   -7.9397 N   0  0  0  0  0  0  0  0  0  0  0  0
   51.3796   -3.3006   -7.2302 C   0  0  0  0  0  0  0  0  0  0  0  0
   50.2754   -2.2487   -7.4297 C   0  0  0  0  0  0  0  0  0  0  0  0
   51.1046   -4.1607   -6.2213 C   0  0  0  0  0  0  0  0  0  0  0  0
   52.8398   -5.3115   -6.3811 Se  0  0  0  0  0  0  0  0  0  0  0  0
   58.4411   -5.0199  -10.4706 C   0  0  0  0  0  0  0  0  0  0  0  0
   57.1204   -4.7581   -9.8401 C   0  0  0  0  0  0  0  0  0  0  0  0
   56.9244   -5.0090   -8.5045 C   0  0  0  0  0  0  0  0  0  0  0  0
   55.7024   -4.7622   -7.9408 C   0  0  0  0  0  0  0  0  0  0  0  0
   54.6803   -4.2729   -8.6824 C   0  0  0  0  0  0  0  0  0  0  0  0
   54.8852   -4.0246  -10.0188 C   0  0  0  0  0  0  0  0  0  0  0  0
   56.1013   -4.2600  -10.6231 C   0  0  0  0  0  0  0  0  0  0  0  0
   56.2936   -3.9962  -12.0095 C   0  0  0  0  0  0  0  0  0  0  0  0
   56.4375   -3.7737  -13.1363 N   0  0  0  0  0  0  0  0  0  0  0  0
   50.0658   -4.3839   -5.2649 C   0  0  0  0  0  0  0  0  0  0  0  0
   49.3028   -3.3628   -4.6968 O   0  0  0  0  0  0  0  0  0  0  0  0
   49.8018   -5.5501   -4.8962 O   0  0  0  0  0  0  0  0  0  0  0  0
   49.6231   -3.0022   -3.7985 H   0  0  0  0  0  0  0  0  0  0  0  0
  7  8  1  0  0  0
  8  9  2  0  0  0
  9 10  1  0  0  0
 10 11  2  0  0  0
 11 12  1  0  0  0
 12 13  2  0  0  0
 13 14  1  0  0  0
 14 15  3  0  0  0
 11  1  1  0  0  0
  1  2  2  0  0  0
  2  3  1  0  0  0
  3  4  1  0  0  0
  3  5  2  0  0  0
  5  6  1  0  0  0
  5 16  1  0  0  0
 16 17  1  0  0  0
 16 18  2  0  0  0
 13  8  1  0  0  0
  6  1  1  0  0  0
 17 19  1  0  0  0
M  END
> <minimizedAffinity>
-8.28403

> <CNNscore>
0.6256293058

> <CNNaffinity>
5.4090728760

> <CNN_VS>
3.3840744495

> <CNNaffinity_variance>
0.1227723360

$$$$
[H]OC(=O)c1[se]c(-c2c([H])c([H])c(C([H])([H])[H])c(C#N)c2[H])nc1C([H])([H])[H]


 19 20  0  0  0  0  0  0  0  0999 V2000
   56.8612   -4.0331  -12.1128 C   0  0  0  0  0  0  0  0  0  0  0  0
   56.3870   -3.9207  -13.2712 N   0  0  0  0  0  0  0  0  0  0  0  0
   56.8447   -3.6651  -14.4042 C   0  0  0  0  0  0  0  0  0  0  0  0
   55.9510   -3.6044  -15.6545 C   0  0  0  0  0  0  0  0  0  0  0  0
   58.1462   -3.4145  -14.6806 C   0  0  0  0  0  0  0  0  0  0  0  0
   58.8688   -3.6155  -12.7317 Se  0  0  0  0  0  0  0  0  0  0  0  0
   55.9287   -5.1776   -6.6448 C   0  0  0  0  0  0  0  0  0  0  0  0
   56.1549   -4.8708   -8.0818 C   0  0  0  0  0  0  0  0  0  0  0  0
   57.3781   -5.1055   -8.6597 C   0  0  0  0  0  0  0  0  0  0  0  0
   57.5687   -4.8173   -9.9835 C   0  0  0  0  0  0  0  0  0  0  0  0
   56.5662   -4.3026  -10.7347 C   0  0  0  0  0  0  0  0  0  0  0  0
   55.3448   -4.0709  -10.1481 C   0  0  0  0  0  0  0  0  0  0  0  0
   55.1136   -4.3479   -8.8180 C   0  0  0  0  0  0  0  0  0  0  0  0
   53.8408   -4.1005   -8.2287 C   0  0  0  0  0  0  0  0  0  0  0  0
   52.8007   -3.8970   -7.7632 N   0  0  0  0  0  0  0  0  0  0  0  0
   58.9528   -3.1028  -15.8190 C   0  0  0  0  0  0  0  0  0  0  0  0
   59.2872   -1.8024  -16.1992 O   0  0  0  0  0  0  0  0  0  0  0  0
   59.3994   -4.0268  -16.5349 O   0  0  0  0  0  0  0  0  0  0  0  0
   58.6863   -1.3642  -16.8967 H   0  0  0  0  0  0  0  0  0  0  0  0
  7  8  1  0  0  0
  8  9  2  0  0  0
  9 10  1  0  0  0
 10 11  2  0  0  0
 11 12  1  0  0  0
 12 13  2  0  0  0
 13 14  1  0  0  0
 14 15  3  0  0  0
 11  1  1  0  0  0
  1  2  2  0  0  0
  2  3  1  0  0  0
  3  4  1  0  0  0
  3  5  2  0  0  0
  5  6  1  0  0  0
  5 16  1  0  0  0
 16 17  1  0  0  0
 16 18  2  0  0  0
 13  8  1  0  0  0
  6  1  1  0  0  0
 17 19  1  0  0  0
M  END
> <minimizedAffinity>
-7.18966

> <CNNscore>
0.5311317444

> <CNNaffinity>
4.8428077698

> <CNN_VS>
2.5721688271

> <CNNaffinity_variance>
0.1572875082

$$$$
[H]OC(=O)c1[se]c(-c2c([H])c([H])c(C([H])([H])[H])c(C#N)c2[H])nc1C([H])([H])[H]


 19 20  0  0  0  0  0  0  0  0999 V2000
   54.5126   -4.0467   -8.7396 C   0  0  0  0  0  0  0  0  0  0  0  0
   55.2603   -3.9895   -9.7481 N   0  0  0  0  0  0  0  0  0  0  0  0
   56.4136   -4.3757  -10.0297 C   0  0  0  0  0  0  0  0  0  0  0  0
   57.0455   -4.1309  -11.4105 C   0  0  0  0  0  0  0  0  0  0  0  0
   57.2399   -5.0410   -9.1884 C   0  0  0  0  0  0  0  0  0  0  0  0
   55.9476   -5.1012   -7.5492 Se  0  0  0  0  0  0  0  0  0  0  0  0
   49.4448   -2.4909   -6.7460 C   0  0  0  0  0  0  0  0  0  0  0  0
   50.7749   -2.9148   -7.2573 C   0  0  0  0  0  0  0  0  0  0  0  0
   51.4162   -2.1796   -8.2234 C   0  0  0  0  0  0  0  0  0  0  0  0
   52.6398   -2.5844   -8.6825 C   0  0  0  0  0  0  0  0  0  0  0  0
   53.2297   -3.7025   -8.1969 C   0  0  0  0  0  0  0  0  0  0  0  0
   52.5808   -4.4327   -7.2297 C   0  0  0  0  0  0  0  0  0  0  0  0
   51.3476   -4.0576   -6.7419 C   0  0  0  0  0  0  0  0  0  0  0  0
   50.6912   -4.8279   -5.7396 C   0  0  0  0  0  0  0  0  0  0  0  0
   50.1706   -5.4608   -4.9222 N   0  0  0  0  0  0  0  0  0  0  0  0
   58.5574   -5.5955   -9.2062 C   0  0  0  0  0  0  0  0  0  0  0  0
   59.0063   -6.4959  -10.1733 O   0  0  0  0  0  0  0  0  0  0  0  0
   59.3778   -5.2744   -8.3177 O   0  0  0  0  0  0  0  0  0  0  0  0
   58.9312   -7.4861   -9.9419 H   0  0  0  0  0  0  0  0  0  0  0  0
  7  8  1  0  0  0
  8  9  2  0  0  0
  9 10  1  0  0  0
 10 11  2  0  0  0
 11 12  1  0  0  0
 12 13  2  0  0  0
 13 14  1  0  0  0
 14 15  3  0  0  0
 11  1  1  0  0  0
  1  2  2  0  0  0
  2  3  1  0  0  0
  3  4  1  0  0  0
  3  5  2  0  0  0
  5  6  1  0  0  0
  5 16  1  0  0  0
 16 17  1  0  0  0
 16 18  2  0  0  0
 13  8  1  0  0  0
  6  1  1  0  0  0
 17 19  1  0  0  0
M  END
> <minimizedAffinity>
-9.16564

> <CNNscore>
0.4430425167

> <CNNaffinity>
5.4526357651

> <CNN_VS>
2.4157495499

> <CNNaffinity_variance>
0.1070636362

$$$$
[H]OC(=O)c1[se]c(-c2c([H])c([H])c(C([H])([H])[H])c(C#N)c2[H])nc1C([H])([H])[H]


 19 20  0  0  0  0  0  0  0  0999 V2000
   55.8815   -5.5332   -5.4334 C   0  0  0  0  0  0  0  0  0  0  0  0
   56.1535   -5.2178   -4.2477 N   0  0  0  0  0  0  0  0  0  0  0  0
   56.0414   -5.7610   -3.1293 C   0  0  0  0  0  0  0  0  0  0  0  0
   56.4919   -5.0676   -1.8324 C   0  0  0  0  0  0  0  0  0  0  0  0
   55.5258   -6.9936   -2.9098 C   0  0  0  0  0  0  0  0  0  0  0  0
   55.0990   -7.4548   -4.9012 Se  0  0  0  0  0  0  0  0  0  0  0  0
   56.2276   -3.9635  -10.8643 C   0  0  0  0  0  0  0  0  0  0  0  0
   56.1183   -4.3688   -9.4380 C   0  0  0  0  0  0  0  0  0  0  0  0
   57.1760   -4.9706   -8.8021 C   0  0  0  0  0  0  0  0  0  0  0  0
   57.0580   -5.3370   -7.4892 C   0  0  0  0  0  0  0  0  0  0  0  0
   55.9104   -5.1143   -6.8054 C   0  0  0  0  0  0  0  0  0  0  0  0
   54.8565   -4.5112   -7.4497 C   0  0  0  0  0  0  0  0  0  0  0  0
   54.9365   -4.1277   -8.7710 C   0  0  0  0  0  0  0  0  0  0  0  0
   53.8331   -3.5041   -9.4209 C   0  0  0  0  0  0  0  0  0  0  0  0
   52.9397   -3.0046   -9.9614 N   0  0  0  0  0  0  0  0  0  0  0  0
   55.2708   -7.8600   -1.8016 C   0  0  0  0  0  0  0  0  0  0  0  0
   56.2455   -8.6591   -1.2023 O   0  0  0  0  0  0  0  0  0  0  0  0
   54.1184   -7.9277   -1.3191 O   0  0  0  0  0  0  0  0  0  0  0  0
   56.3132   -9.6202   -1.5358 H   0  0  0  0  0  0  0  0  0  0  0  0
  7  8  1  0  0  0
  8  9  2  0  0  0
  9 10  1  0  0  0
 10 11  2  0  0  0
 11 12  1  0  0  0
 12 13  2  0  0  0
 13 14  1  0  0  0
 14 15  3  0  0  0
 11  1  1  0  0  0
  1  2  2  0  0  0
  2  3  1  0  0  0
  3  4  1  0  0  0
  3  5  2  0  0  0
  5  6  1  0  0  0
  5 16  1  0  0  0
 16 17  1  0  0  0
 16 18  2  0  0  0
 13  8  1  0  0  0
  6  1  1  0  0  0
 17 19  1  0  0  0
M  END
> <minimizedAffinity>
-6.96114

> <CNNscore>
0.4393256009

> <CNNaffinity>
5.2565217018

> <CNN_VS>
2.3093245029

> <CNNaffinity_variance>
0.2723146081

$$$$
[H]OC(=O)c1[se]c(-c2c([H])c([H])c(C([H])([H])[H])c(C#N)c2[H])nc1C([H])([H])[H]


 19 20  0  0  0  0  0  0  0  0999 V2000
   54.5384   -4.7082   -7.9581 C   0  0  0  0  0  0  0  0  0  0  0  0
   55.7677   -4.9569   -8.0369 N   0  0  0  0  0  0  0  0  0  0  0  0
   56.6570   -4.8072   -8.9001 C   0  0  0  0  0  0  0  0  0  0  0  0
   58.1137   -5.2382   -8.6593 C   0  0  0  0  0  0  0  0  0  0  0  0
   56.4698   -4.2634  -10.1259 C   0  0  0  0  0  0  0  0  0  0  0  0
   54.4271   -3.8771   -9.9291 Se  0  0  0  0  0  0  0  0  0  0  0  0
   50.0273   -5.1647   -4.5640 C   0  0  0  0  0  0  0  0  0  0  0  0
   51.2022   -5.0307   -5.4650 C   0  0  0  0  0  0  0  0  0  0  0  0
   52.3117   -5.8192   -5.2844 C   0  0  0  0  0  0  0  0  0  0  0  0
   53.3840   -5.6825   -6.1230 C   0  0  0  0  0  0  0  0  0  0  0  0
   53.3677   -4.7787   -7.1314 C   0  0  0  0  0  0  0  0  0  0  0  0
   52.2529   -3.9934   -7.3051 C   0  0  0  0  0  0  0  0  0  0  0  0
   51.1531   -4.1012   -6.4815 C   0  0  0  0  0  0  0  0  0  0  0  0
   50.0074   -3.2781   -6.6779 C   0  0  0  0  0  0  0  0  0  0  0  0
   49.0851   -2.5974   -6.8389 N   0  0  0  0  0  0  0  0  0  0  0  0
   57.2456   -3.9652  -11.2890 C   0  0  0  0  0  0  0  0  0  0  0  0
   57.4637   -2.6713  -11.7644 O   0  0  0  0  0  0  0  0  0  0  0  0
   57.7722   -4.8957  -11.9391 O   0  0  0  0  0  0  0  0  0  0  0  0
   56.8263   -2.3397  -12.4879 H   0  0  0  0  0  0  0  0  0  0  0  0
  7  8  1  0  0  0
  8  9  2  0  0  0
  9 10  1  0  0  0
 10 11  2  0  0  0
 11 12  1  0  0  0
 12 13  2  0  0  0
 13 14  1  0  0  0
 14 15  3  0  0  0
 11  1  1  0  0  0
  1  2  2  0  0  0
  2  3  1  0  0  0
  3  4  1  0  0  0
  3  5  2  0  0  0
  5  6  1  0  0  0
  5 16  1  0  0  0
 16 17  1  0  0  0
 16 18  2  0  0  0
 13  8  1  0  0  0
  6  1  1  0  0  0
 17 19  1  0  0  0
M  END
> <minimizedAffinity>
-8.63478

> <CNNscore>
0.4166335166

> <CNNaffinity>
5.4572043419

> <CNN_VS>
2.2736542225

> <CNNaffinity_variance>
0.1858797818

$$$$
[H]OC(=O)c1[se]c(-c2c([H])c([H])c(C([H])([H])[H])c(C#N)c2[H])nc1C([H])([H])[H]


 19 20  0  0  0  0  0  0  0  0999 V2000
   54.5738   -4.8219   -7.8560 C   0  0  0  0  0  0  0  0  0  0  0  0
   55.0910   -4.5174   -8.9601 N   0  0  0  0  0  0  0  0  0  0  0  0
   56.2242   -4.6155   -9.4745 C   0  0  0  0  0  0  0  0  0  0  0  0
   56.5223   -4.1230  -10.9008 C   0  0  0  0  0  0  0  0  0  0  0  0
   57.3109   -5.1508   -8.8697 C   0  0  0  0  0  0  0  0  0  0  0  0
   56.3896   -5.6307   -7.0581 Se  0  0  0  0  0  0  0  0  0  0  0  0
   49.9344   -4.9716   -4.6107 C   0  0  0  0  0  0  0  0  0  0  0  0
   51.1440   -4.9182   -5.4735 C   0  0  0  0  0  0  0  0  0  0  0  0
   52.2141   -5.7415   -5.2241 C   0  0  0  0  0  0  0  0  0  0  0  0
   53.3191   -5.6790   -6.0283 C   0  0  0  0  0  0  0  0  0  0  0  0
   53.3736   -4.8149   -7.0696 C   0  0  0  0  0  0  0  0  0  0  0  0
   52.2978   -3.9943   -7.3123 C   0  0  0  0  0  0  0  0  0  0  0  0
   51.1670   -4.0275   -6.5251 C   0  0  0  0  0  0  0  0  0  0  0  0
   50.0626   -3.1689   -6.7928 C   0  0  0  0  0  0  0  0  0  0  0  0
   49.1625   -2.4784   -7.0231 N   0  0  0  0  0  0  0  0  0  0  0  0
   58.6857   -5.3984   -9.1737 C   0  0  0  0  0  0  0  0  0  0  0  0
   59.1660   -5.6202  -10.4651 O   0  0  0  0  0  0  0  0  0  0  0  0
   59.5305   -5.4238   -8.2511 O   0  0  0  0  0  0  0  0  0  0  0  0
   59.2505   -6.5933  -10.7576 H   0  0  0  0  0  0  0  0  0  0  0  0
  7  8  1  0  0  0
  8  9  2  0  0  0
  9 10  1  0  0  0
 10 11  2  0  0  0
 11 12  1  0  0  0
 12 13  2  0  0  0
 13 14  1  0  0  0
 14 15  3  0  0  0
 11  1  1  0  0  0
  1  2  2  0  0  0
  2  3  1  0  0  0
  3  4  1  0  0  0
  3  5  2  0  0  0
  5  6  1  0  0  0
  5 16  1  0  0  0
 16 17  1  0  0  0
 16 18  2  0  0  0
 13  8  1  0  0  0
  6  1  1  0  0  0
 17 19  1  0  0  0
M  END
> <minimizedAffinity>
-8.19987

> <CNNscore>
0.4114073813

> <CNNaffinity>
5.4763746262

> <CNN_VS>
2.2530210018

> <CNNaffinity_variance>
0.1713863313

$$$$
[H]OC(=O)c1[se]c(-c2c([H])c([H])c(C([H])([H])[H])c(C#N)c2[H])nc1C([H])([H])[H]


 19 20  0  0  0  0  0  0  0  0999 V2000
   53.5713   -4.2437   -8.0126 C   0  0  0  0  0  0  0  0  0  0  0  0
   52.7918   -4.6794   -7.1284 N   0  0  0  0  0  0  0  0  0  0  0  0
   51.6676   -4.3589   -6.6902 C   0  0  0  0  0  0  0  0  0  0  0  0
   50.9760   -5.1388   -5.5592 C   0  0  0  0  0  0  0  0  0  0  0  0
   50.9262   -3.3166   -7.1343 C   0  0  0  0  0  0  0  0  0  0  0  0
   52.2672   -2.6445   -8.5871 Se  0  0  0  0  0  0  0  0  0  0  0  0
   58.6561   -5.0275  -10.3810 C   0  0  0  0  0  0  0  0  0  0  0  0
   57.3144   -4.8153   -9.7766 C   0  0  0  0  0  0  0  0  0  0  0  0
   57.0936   -5.1042   -8.4526 C   0  0  0  0  0  0  0  0  0  0  0  0
   55.8527   -4.9028   -7.9128 C   0  0  0  0  0  0  0  0  0  0  0  0
   54.8360   -4.4214   -8.6668 C   0  0  0  0  0  0  0  0  0  0  0  0
   55.0657   -4.1347   -9.9914 C   0  0  0  0  0  0  0  0  0  0  0  0
   56.3014   -4.3240  -10.5716 C   0  0  0  0  0  0  0  0  0  0  0  0
   56.5194   -4.0209  -11.9462 C   0  0  0  0  0  0  0  0  0  0  0  0
   56.6834   -3.7678  -13.0637 N   0  0  0  0  0  0  0  0  0  0  0  0
   49.6605   -2.7137   -6.8545 C   0  0  0  0  0  0  0  0  0  0  0  0
   48.7103   -2.4171   -7.8326 O   0  0  0  0  0  0  0  0  0  0  0  0
   49.3582   -2.4239   -5.6755 O   0  0  0  0  0  0  0  0  0  0  0  0
   48.7261   -1.4696   -8.2089 H   0  0  0  0  0  0  0  0  0  0  0  0
  7  8  1  0  0  0
  8  9  2  0  0  0
  9 10  1  0  0  0
 10 11  2  0  0  0
 11 12  1  0  0  0
 12 13  2  0  0  0
 13 14  1  0  0  0
 14 15  3  0  0  0
 11  1  1  0  0  0
  1  2  2  0  0  0
  2  3  1  0  0  0
  3  4  1  0  0  0
  3  5  2  0  0  0
  5  6  1  0  0  0
  5 16  1  0  0  0
 16 17  1  0  0  0
 16 18  2  0  0  0
 13  8  1  0  0  0
  6  1  1  0  0  0
 17 19  1  0  0  0
M  END
> <minimizedAffinity>
-8.30556

> <CNNscore>
0.4041032791

> <CNNaffinity>
5.1797819138

> <CNN_VS>
2.0931668282

> <CNNaffinity_variance>
0.1454389244

$$$$
[H]N=C(N([H])[H])N([H])C([H])([H])C([H])([H])C([H])([H])[C@@]1([H])C(=O)N([H])[C@]([H])(C([H])([H])c2c([H])c([H])c([H])c([H])c2[H])C(=O)N2C([H])([H])C([H])([H])C([H])([H])[C@@]2([H])C(=O)N([H])[C@@]([H])(C([H])([H])c2c([H])c([H])c([H])c([H])c2[H])C(=O)N2C([H])([H])C([H])([H])C([H])([H])[C@@]2([H])C(=O)N1[H]


 54 58  0  0  0  0  0  0  0  0999 V2000
   60.5673   -7.2548   -8.4682 C   0  0  0  0  0  0  0  0  0  0  0  0
   61.6432   -6.8384   -7.6533 N   0  0  0  0  0  0  0  0  0  0  0  0
   62.1181   -7.5309   -6.4902 C   0  0  0  0  0  0  0  0  0  0  0  0
   63.3143   -7.2857   -6.1731 O   0  0  0  0  0  0  0  0  0  0  0  0
   61.2769   -8.4732   -5.7025 C   0  0  0  0  0  0  0  0  0  0  0  0
   60.0217   -7.8721   -5.1638 C   0  0  0  0  0  0  0  0  0  0  0  0
   60.2041   -7.7668   -3.6412 C   0  0  0  0  0  0  0  0  0  0  0  0
   61.7376   -7.6886   -3.6087 C   0  0  0  0  0  0  0  0  0  0  0  0
   62.0378   -8.8083   -4.5071 N   0  0  0  0  0  0  0  0  0  0  0  0
   62.8428   -9.9780   -4.3953 C   0  0  0  0  0  0  0  0  0  0  0  0
   63.7857   -9.9122   -3.5444 O   0  0  0  0  0  0  0  0  0  0  0  0
   62.7121  -11.2295   -5.1368 C   0  0  0  0  0  0  0  0  0  0  0  0
   63.9463  -11.7164   -5.7162 N   0  0  0  0  0  0  0  0  0  0  0  0
   64.5070  -11.3157   -6.9430 C   0  0  0  0  0  0  0  0  0  0  0  0
   65.7473  -11.1555   -6.9861 O   0  0  0  0  0  0  0  0  0  0  0  0
   63.7619  -11.0630   -8.2043 C   0  0  0  0  0  0  0  0  0  0  0  0
   63.4194  -12.3975   -8.8872 C   0  0  0  0  0  0  0  0  0  0  0  0
   64.7739  -12.8481   -9.3926 C   0  0  0  0  0  0  0  0  0  0  0  0
   65.4652  -11.5739   -9.7147 C   0  0  0  0  0  0  0  0  0  0  0  0
   64.6233  -10.4675   -9.2245 N   0  0  0  0  0  0  0  0  0  0  0  0
   64.5765   -9.0993   -9.5652 C   0  0  0  0  0  0  0  0  0  0  0  0
   65.7227   -8.5053   -9.5879 O   0  0  0  0  0  0  0  0  0  0  0  0
   63.4620   -8.2150   -9.9011 C   0  0  0  0  0  0  0  0  0  0  0  0
   62.1573   -8.7843   -9.8531 N   0  0  0  0  0  0  0  0  0  0  0  0
   60.9297   -8.1952   -9.5709 C   0  0  0  0  0  0  0  0  0  0  0  0
   59.9244   -8.4588  -10.3319 O   0  0  0  0  0  0  0  0  0  0  0  0
   62.1594   -5.9404   -7.9100 H   0  0  0  0  0  0  0  0  0  0  0  0
   64.4072  -12.4285   -5.1026 H   0  0  0  0  0  0  0  0  0  0  0  0
   62.1271   -9.8275  -10.0876 H   0  0  0  0  0  0  0  0  0  0  0  0
   59.9069   -6.0866   -9.1408 C   0  0  0  0  0  0  0  0  0  0  0  0
   60.3292   -5.7002  -10.4913 C   0  0  0  0  0  0  0  0  0  0  0  0
   59.3107   -5.1478  -11.4357 C   0  0  0  0  0  0  0  0  0  0  0  0
   59.8591   -3.9500  -12.1185 N   0  0  0  0  0  0  0  0  0  0  0  0
   60.4277   -3.2440  -11.6205 H   0  0  0  0  0  0  0  0  0  0  0  0
   60.7268   -3.5651  -14.3975 N   0  0  0  0  0  0  0  0  0  0  0  0
   59.6089   -3.7357  -13.5093 C   0  0  0  0  0  0  0  0  0  0  0  0
   58.4145   -3.6932  -13.9784 N   0  0  0  0  0  0  0  0  0  0  0  0
   61.3486   -4.3490  -14.6507 H   0  0  0  0  0  0  0  0  0  0  0  0
   60.9354   -2.6309  -14.8109 H   0  0  0  0  0  0  0  0  0  0  0  0
   58.2421   -3.5389  -14.9819 H   0  0  0  0  0  0  0  0  0  0  0  0
   62.0551  -12.2277   -4.2061 C   0  0  0  0  0  0  0  0  0  0  0  0
   62.8104  -12.6432   -3.0506 C   0  0  0  0  0  0  0  0  0  0  0  0
   64.0859  -13.1336   -3.1720 C   0  0  0  0  0  0  0  0  0  0  0  0
   64.8233  -13.5408   -2.0841 C   0  0  0  0  0  0  0  0  0  0  0  0
   64.2928  -13.4649   -0.8318 C   0  0  0  0  0  0  0  0  0  0  0  0
   63.0106  -12.9768   -0.6666 C   0  0  0  0  0  0  0  0  0  0  0  0
   62.2755  -12.5671   -1.7868 C   0  0  0  0  0  0  0  0  0  0  0  0
   63.7102   -7.6524  -11.3134 C   0  0  0  0  0  0  0  0  0  0  0  0
   64.1231   -8.6675  -12.2843 C   0  0  0  0  0  0  0  0  0  0  0  0
   65.0786   -8.3404  -13.2490 C   0  0  0  0  0  0  0  0  0  0  0  0
   65.5094   -9.2631  -14.1700 C   0  0  0  0  0  0  0  0  0  0  0  0
   65.0080  -10.5534  -14.1719 C   0  0  0  0  0  0  0  0  0  0  0  0
   64.0683  -10.8957  -13.2317 C   0  0  0  0  0  0  0  0  0  0  0  0
   63.6546   -9.9513  -12.3203 C   0  0  0  0  0  0  0  0  0  0  0  0
 35 36  1  0  0  0
 36 37  2  0  0  0
 36 33  1  0  0  0
 33 32  1  0  0  0
 32 31  1  0  0  0
 31 30  1  0  0  0
 30  1  1  0  0  0
  1  2  1  0  0  0
  2  3  1  0  0  0
  3  4  2  0  0  0
  3  5  1  0  0  0
  5  6  1  0  0  0
  6  7  1  0  0  0
  7  8  1  0  0  0
  8  9  1  0  0  0
  9 10  1  0  0  0
 10 11  2  0  0  0
 10 12  1  0  0  0
 12 41  1  0  0  0
 41 42  1  0  0  0
 42 43  2  0  0  0
 43 44  1  0  0  0
 44 45  2  0  0  0
 45 46  1  0  0  0
 46 47  2  0  0  0
 12 13  1  0  0  0
 13 14  1  0  0  0
 14 15  2  0  0  0
 14 16  1  0  0  0
 16 17  1  0  0  0
 17 18  1  0  0  0
 18 19  1  0  0  0
 19 20  1  0  0  0
 20 21  1  0  0  0
 21 22  2  0  0  0
 21 23  1  0  0  0
 23 48  1  0  0  0
 48 49  1  0  0  0
 49 50  2  0  0  0
 50 51  1  0  0  0
 51 52  2  0  0  0
 52 53  1  0  0  0
 53 54  2  0  0  0
 23 24  1  0  0  0
 24 25  1  0  0  0
 25 26  2  0  0  0
 25  1  1  0  0  0
  9  5  1  0  0  0
 47 42  1  0  0  0
 20 16  1  0  0  0
 54 49  1  0  0  0
 35 38  1  0  0  0
 35 39  1  0  0  0
 37 40  1  0  0  0
 33 34  1  0  0  0
  2 27  1  0  0  0
 13 28  1  0  0  0
 24 29  1  0  0  0
M  END
> <minimizedAffinity>
-1.57639

> <CNNscore>
0.4333489537

> <CNNaffinity>
6.1326241493

> <CNN_VS>
2.6575663090

> <CNNaffinity_variance>
0.9897338152

$$$$
[H]N=C(N([H])[H])N([H])C([H])([H])C([H])([H])C([H])([H])[C@@]1([H])C(=O)N([H])[C@]([H])(C([H])([H])c2c([H])c([H])c([H])c([H])c2[H])C(=O)N2C([H])([H])C([H])([H])C([H])([H])[C@@]2([H])C(=O)N([H])[C@@]([H])(C([H])([H])c2c([H])c([H])c([H])c([H])c2[H])C(=O)N2C([H])([H])C([H])([H])C([H])([H])[C@@]2([H])C(=O)N1[H]


 54 58  0  0  0  0  0  0  0  0999 V2000
   62.2882   -7.9835   -7.7355 C   0  0  0  0  0  0  0  0  0  0  0  0
   61.2389   -8.3821   -8.5928 N   0  0  0  0  0  0  0  0  0  0  0  0
   60.6713   -7.5786   -9.6369 C   0  0  0  0  0  0  0  0  0  0  0  0
   60.0980   -8.2241  -10.5568 O   0  0  0  0  0  0  0  0  0  0  0  0
   60.7432   -6.0917   -9.6515 C   0  0  0  0  0  0  0  0  0  0  0  0
   60.1443   -5.4364   -8.4520 C   0  0  0  0  0  0  0  0  0  0  0  0
   58.8580   -4.7422   -8.9277 C   0  0  0  0  0  0  0  0  0  0  0  0
   58.5589   -5.6396  -10.1377 C   0  0  0  0  0  0  0  0  0  0  0  0
   59.8931   -5.6462  -10.7465 N   0  0  0  0  0  0  0  0  0  0  0  0
   60.3892   -5.3379  -12.0456 C   0  0  0  0  0  0  0  0  0  0  0  0
   59.5421   -5.4306  -12.9896 O   0  0  0  0  0  0  0  0  0  0  0  0
   61.7432   -4.9327  -12.4145 C   0  0  0  0  0  0  0  0  0  0  0  0
   62.3084   -5.6677  -13.5263 N   0  0  0  0  0  0  0  0  0  0  0  0
   62.9485   -6.9191  -13.4600 C   0  0  0  0  0  0  0  0  0  0  0  0
   62.7027   -7.7423  -14.3698 O   0  0  0  0  0  0  0  0  0  0  0  0
   63.8974   -7.3615  -12.4047 C   0  0  0  0  0  0  0  0  0  0  0  0
   65.2865   -6.7534  -12.6605 C   0  0  0  0  0  0  0  0  0  0  0  0
   65.7540   -7.5364  -13.8693 C   0  0  0  0  0  0  0  0  0  0  0  0
   65.1391   -8.8741  -13.6750 C   0  0  0  0  0  0  0  0  0  0  0  0
   64.2135   -8.7833  -12.5312 N   0  0  0  0  0  0  0  0  0  0  0  0
   63.6659   -9.7695  -11.6842 C   0  0  0  0  0  0  0  0  0  0  0  0
   63.1573  -10.7880  -12.2936 O   0  0  0  0  0  0  0  0  0  0  0  0
   63.5630   -9.8581  -10.2287 C   0  0  0  0  0  0  0  0  0  0  0  0
   64.0602   -8.7504   -9.4840 N   0  0  0  0  0  0  0  0  0  0  0  0
   63.6659   -8.2484   -8.2486 C   0  0  0  0  0  0  0  0  0  0  0  0
   64.5708   -7.9510   -7.3814 O   0  0  0  0  0  0  0  0  0  0  0  0
   60.8246   -9.3581   -8.4719 H   0  0  0  0  0  0  0  0  0  0  0  0
   62.1863   -5.1551  -14.4310 H   0  0  0  0  0  0  0  0  0  0  0  0
   64.8758   -8.2404   -9.9520 H   0  0  0  0  0  0  0  0  0  0  0  0
   62.2121   -8.6899   -6.4132 C   0  0  0  0  0  0  0  0  0  0  0  0
   61.3675   -8.1368   -5.3491 C   0  0  0  0  0  0  0  0  0  0  0  0
   62.0184   -7.4218   -4.2091 C   0  0  0  0  0  0  0  0  0  0  0  0
   63.4098   -7.0586   -4.5753 N   0  0  0  0  0  0  0  0  0  0  0  0
   63.6224   -6.3763   -5.3229 H   0  0  0  0  0  0  0  0  0  0  0  0
   64.2817   -8.2991   -2.6270 N   0  0  0  0  0  0  0  0  0  0  0  0
   64.5139   -7.6558   -3.8919 C   0  0  0  0  0  0  0  0  0  0  0  0
   65.7006   -7.6302   -4.3814 N   0  0  0  0  0  0  0  0  0  0  0  0
   63.7772   -9.1966   -2.5545 H   0  0  0  0  0  0  0  0  0  0  0  0
   64.6238   -7.8653   -1.7428 H   0  0  0  0  0  0  0  0  0  0  0  0
   66.4911   -8.0632   -3.8833 H   0  0  0  0  0  0  0  0  0  0  0  0
   61.7091   -3.4360  -12.6440 C   0  0  0  0  0  0  0  0  0  0  0  0
   62.2332   -2.9521  -13.8968 C   0  0  0  0  0  0  0  0  0  0  0  0
   63.4460   -2.3144  -13.9628 C   0  0  0  0  0  0  0  0  0  0  0  0
   63.9634   -1.8398  -15.1461 C   0  0  0  0  0  0  0  0  0  0  0  0
   63.2682   -1.9956  -16.3070 C   0  0  0  0  0  0  0  0  0  0  0  0
   62.0420   -2.6325  -16.2835 C   0  0  0  0  0  0  0  0  0  0  0  0
   61.5319   -3.1087  -15.0685 C   0  0  0  0  0  0  0  0  0  0  0  0
   64.2975  -11.1344   -9.7767 C   0  0  0  0  0  0  0  0  0  0  0  0
   63.5796  -11.8908   -8.7491 C   0  0  0  0  0  0  0  0  0  0  0  0
   62.1833  -11.9114   -8.7675 C   0  0  0  0  0  0  0  0  0  0  0  0
   61.4665  -12.6198   -7.8349 C   0  0  0  0  0  0  0  0  0  0  0  0
   62.1081  -13.3396   -6.8417 C   0  0  0  0  0  0  0  0  0  0  0  0
   63.4802  -13.3330   -6.8060 C   0  0  0  0  0  0  0  0  0  0  0  0
   64.1736  -12.6148   -7.7531 C   0  0  0  0  0  0  0  0  0  0  0  0
 35 36  1  0  0  0
 36 37  2  0  0  0
 36 33  1  0  0  0
 33 32  1  0  0  0
 32 31  1  0  0  0
 31 30  1  0  0  0
 30  1  1  0  0  0
  1  2  1  0  0  0
  2  3  1  0  0  0
  3  4  2  0  0  0
  3  5  1  0  0  0
  5  6  1  0  0  0
  6  7  1  0  0  0
  7  8  1  0  0  0
  8  9  1  0  0  0
  9 10  1  0  0  0
 10 11  2  0  0  0
 10 12  1  0  0  0
 12 41  1  0  0  0
 41 42  1  0  0  0
 42 43  2  0  0  0
 43 44  1  0  0  0
 44 45  2  0  0  0
 45 46  1  0  0  0
 46 47  2  0  0  0
 12 13  1  0  0  0
 13 14  1  0  0  0
 14 15  2  0  0  0
 14 16  1  0  0  0
 16 17  1  0  0  0
 17 18  1  0  0  0
 18 19  1  0  0  0
 19 20  1  0  0  0
 20 21  1  0  0  0
 21 22  2  0  0  0
 21 23  1  0  0  0
 23 48  1  0  0  0
 48 49  1  0  0  0
 49 50  2  0  0  0
 50 51  1  0  0  0
 51 52  2  0  0  0
 52 53  1  0  0  0
 53 54  2  0  0  0
 23 24  1  0  0  0
 24 25  1  0  0  0
 25 26  2  0  0  0
 25  1  1  0  0  0
  9  5  1  0  0  0
 47 42  1  0  0  0
 20 16  1  0  0  0
 54 49  1  0  0  0
 35 38  1  0  0  0
 35 39  1  0  0  0
 37 40  1  0  0  0
 33 34  1  0  0  0
  2 27  1  0  0  0
 13 28  1  0  0  0
 24 29  1  0  0  0
M  END
> <minimizedAffinity>
3.88546

> <CNNscore>
0.4281514287

> <CNNaffinity>
5.6033444405

> <CNN_VS>
2.3990800381

> <CNNaffinity_variance>
0.4387755394

$$$$
[H]N=C(N([H])[H])N([H])C([H])([H])C([H])([H])C([H])([H])[C@@]1([H])C(=O)N([H])[C@]([H])(C([H])([H])c2c([H])c([H])c([H])c([H])c2[H])C(=O)N2C([H])([H])C([H])([H])C([H])([H])[C@@]2([H])C(=O)N([H])[C@@]([H])(C([H])([H])c2c([H])c([H])c([H])c([H])c2[H])C(=O)N2C([H])([H])C([H])([H])C([H])([H])[C@@]2([H])C(=O)N1[H]


 54 58  0  0  0  0  0  0  0  0999 V2000
   51.7223   -6.8756   -4.7416 C   0  0  0  0  0  0  0  0  0  0  0  0
   52.2816   -5.7162   -4.1604 N   0  0  0  0  0  0  0  0  0  0  0  0
   53.6340   -5.2709   -4.3364 C   0  0  0  0  0  0  0  0  0  0  0  0
   53.8212   -4.0389   -4.1395 O   0  0  0  0  0  0  0  0  0  0  0  0
   54.7477   -6.1801   -4.7225 C   0  0  0  0  0  0  0  0  0  0  0  0
   54.9603   -7.3224   -3.7860 C   0  0  0  0  0  0  0  0  0  0  0  0
   56.2854   -7.0504   -3.0560 C   0  0  0  0  0  0  0  0  0  0  0  0
   56.2921   -5.5193   -3.1765 C   0  0  0  0  0  0  0  0  0  0  0  0
   55.9751   -5.4058   -4.6039 N   0  0  0  0  0  0  0  0  0  0  0  0
   56.5926   -4.7461   -5.7050 C   0  0  0  0  0  0  0  0  0  0  0  0
   57.3364   -3.7598   -5.4029 O   0  0  0  0  0  0  0  0  0  0  0  0
   56.4711   -5.0678   -7.1245 C   0  0  0  0  0  0  0  0  0  0  0  0
   56.1718   -3.9343   -7.9740 N   0  0  0  0  0  0  0  0  0  0  0  0
   54.8974   -3.3924   -8.2237 C   0  0  0  0  0  0  0  0  0  0  0  0
   54.7980   -2.1457   -8.2647 O   0  0  0  0  0  0  0  0  0  0  0  0
   53.6467   -4.1646   -8.4463 C   0  0  0  0  0  0  0  0  0  0  0  0
   53.6126   -4.7033   -9.8861 C   0  0  0  0  0  0  0  0  0  0  0  0
   53.3650   -3.4424  -10.6872 C   0  0  0  0  0  0  0  0  0  0  0  0
   52.5240   -2.6170   -9.7834 C   0  0  0  0  0  0  0  0  0  0  0  0
   52.4755   -3.2900   -8.4727 N   0  0  0  0  0  0  0  0  0  0  0  0
   51.5712   -3.1856   -7.3950 C   0  0  0  0  0  0  0  0  0  0  0  0
   51.3000   -1.9777   -7.0281 O   0  0  0  0  0  0  0  0  0  0  0  0
   50.8745   -4.1985   -6.6042 C   0  0  0  0  0  0  0  0  0  0  0  0
   51.1563   -5.5592   -6.9170 N   0  0  0  0  0  0  0  0  0  0  0  0
   51.1437   -6.6889   -6.1061 C   0  0  0  0  0  0  0  0  0  0  0  0
   50.5666   -7.7567   -6.5373 O   0  0  0  0  0  0  0  0  0  0  0  0
   51.6625   -5.1073   -3.5402 H   0  0  0  0  0  0  0  0  0  0  0  0
   57.0382   -3.5336   -8.4039 H   0  0  0  0  0  0  0  0  0  0  0  0
   51.4007   -5.7295   -7.9443 H   0  0  0  0  0  0  0  0  0  0  0  0
   50.6022   -7.4209   -3.9044 C   0  0  0  0  0  0  0  0  0  0  0  0
   50.8909   -7.9321   -2.5601 C   0  0  0  0  0  0  0  0  0  0  0  0
   50.7272   -7.0172   -1.3894 C   0  0  0  0  0  0  0  0  0  0  0  0
   51.9927   -6.9619   -0.6167 N   0  0  0  0  0  0  0  0  0  0  0  0
   52.2870   -7.7270    0.0139 H   0  0  0  0  0  0  0  0  0  0  0  0
   54.2102   -5.9368   -0.2603 N   0  0  0  0  0  0  0  0  0  0  0  0
   52.8538   -5.8262   -0.7247 C   0  0  0  0  0  0  0  0  0  0  0  0
   52.4436   -4.7170   -1.2248 N   0  0  0  0  0  0  0  0  0  0  0  0
   54.9168   -6.4953   -0.7643 H   0  0  0  0  0  0  0  0  0  0  0  0
   54.5127   -5.4470    0.6090 H   0  0  0  0  0  0  0  0  0  0  0  0
   53.0701   -3.9032   -1.2998 H   0  0  0  0  0  0  0  0  0  0  0  0
   57.7392   -5.7939   -7.5229 C   0  0  0  0  0  0  0  0  0  0  0  0
   58.2454   -5.5502   -8.8506 C   0  0  0  0  0  0  0  0  0  0  0  0
   59.5386   -5.8597   -9.1878 C   0  0  0  0  0  0  0  0  0  0  0  0
   60.0447   -5.6312  -10.4467 C   0  0  0  0  0  0  0  0  0  0  0  0
   59.2557   -5.0800  -11.4106 C   0  0  0  0  0  0  0  0  0  0  0  0
   57.9468   -4.7534  -11.1113 C   0  0  0  0  0  0  0  0  0  0  0  0
   57.4498   -4.9937   -9.8235 C   0  0  0  0  0  0  0  0  0  0  0  0
   49.3602   -3.9559   -6.7484 C   0  0  0  0  0  0  0  0  0  0  0  0
   48.6575   -3.8601   -5.4675 C   0  0  0  0  0  0  0  0  0  0  0  0
   49.0316   -4.7037   -4.4192 C   0  0  0  0  0  0  0  0  0  0  0  0
   48.4134   -4.6398   -3.1949 C   0  0  0  0  0  0  0  0  0  0  0  0
   47.3946   -3.7328   -2.9593 C   0  0  0  0  0  0  0  0  0  0  0  0
   47.0119   -2.8940   -3.9762 C   0  0  0  0  0  0  0  0  0  0  0  0
   47.6487   -2.9793   -5.1931 C   0  0  0  0  0  0  0  0  0  0  0  0
 35 36  1  0  0  0
 36 37  2  0  0  0
 36 33  1  0  0  0
 33 32  1  0  0  0
 32 31  1  0  0  0
 31 30  1  0  0  0
 30  1  1  0  0  0
  1  2  1  0  0  0
  2  3  1  0  0  0
  3  4  2  0  0  0
  3  5  1  0  0  0
  5  6  1  0  0  0
  6  7  1  0  0  0
  7  8  1  0  0  0
  8  9  1  0  0  0
  9 10  1  0  0  0
 10 11  2  0  0  0
 10 12  1  0  0  0
 12 41  1  0  0  0
 41 42  1  0  0  0
 42 43  2  0  0  0
 43 44  1  0  0  0
 44 45  2  0  0  0
 45 46  1  0  0  0
 46 47  2  0  0  0
 12 13  1  0  0  0
 13 14  1  0  0  0
 14 15  2  0  0  0
 14 16  1  0  0  0
 16 17  1  0  0  0
 17 18  1  0  0  0
 18 19  1  0  0  0
 19 20  1  0  0  0
 20 21  1  0  0  0
 21 22  2  0  0  0
 21 23  1  0  0  0
 23 48  1  0  0  0
 48 49  1  0  0  0
 49 50  2  0  0  0
 50 51  1  0  0  0
 51 52  2  0  0  0
 52 53  1  0  0  0
 53 54  2  0  0  0
 23 24  1  0  0  0
 24 25  1  0  0  0
 25 26  2  0  0  0
 25  1  1  0  0  0
  9  5  1  0  0  0
 47 42  1  0  0  0
 20 16  1  0  0  0
 54 49  1  0  0  0
 35 38  1  0  0  0
 35 39  1  0  0  0
 37 40  1  0  0  0
 33 34  1  0  0  0
  2 27  1  0  0  0
 13 28  1  0  0  0
 24 29  1  0  0  0
M  END
> <minimizedAffinity>
2.98564

> <CNNscore>
0.4236633778

> <CNNaffinity>
7.4353852272

> <CNN_VS>
3.1501004696

> <CNNaffinity_variance>
0.4241181016

$$$$
[H]N=C(N([H])[H])N([H])C([H])([H])C([H])([H])C([H])([H])[C@@]1([H])C(=O)N([H])[C@]([H])(C([H])([H])c2c([H])c([H])c([H])c([H])c2[H])C(=O)N2C([H])([H])C([H])([H])C([H])([H])[C@@]2([H])C(=O)N([H])[C@@]([H])(C([H])([H])c2c([H])c([H])c([H])c([H])c2[H])C(=O)N2C([H])([H])C([H])([H])C([H])([H])[C@@]2([H])C(=O)N1[H]


 54 58  0  0  0  0  0  0  0  0999 V2000
   56.3267   -5.1388   -5.0273 C   0  0  0  0  0  0  0  0  0  0  0  0
   55.7107   -6.3060   -5.5304 N   0  0  0  0  0  0  0  0  0  0  0  0
   54.3831   -6.7458   -5.2111 C   0  0  0  0  0  0  0  0  0  0  0  0
   53.8536   -7.5105   -6.0635 O   0  0  0  0  0  0  0  0  0  0  0  0
   53.6665   -6.3406   -3.9708 C   0  0  0  0  0  0  0  0  0  0  0  0
   54.3780   -6.6941   -2.7075 C   0  0  0  0  0  0  0  0  0  0  0  0
   53.5654   -7.8190   -2.0464 C   0  0  0  0  0  0  0  0  0  0  0  0
   52.9148   -8.3936   -3.3134 C   0  0  0  0  0  0  0  0  0  0  0  0
   52.4503   -7.1393   -3.9149 N   0  0  0  0  0  0  0  0  0  0  0  0
   51.1877   -6.6744   -4.3825 C   0  0  0  0  0  0  0  0  0  0  0  0
   50.3603   -7.5818   -4.7133 O   0  0  0  0  0  0  0  0  0  0  0  0
   50.7390   -5.2917   -4.5248 C   0  0  0  0  0  0  0  0  0  0  0  0
   50.1407   -4.9830   -5.8065 N   0  0  0  0  0  0  0  0  0  0  0  0
   50.8264   -4.6396   -6.9862 C   0  0  0  0  0  0  0  0  0  0  0  0
   50.4067   -5.1255   -8.0603 O   0  0  0  0  0  0  0  0  0  0  0  0
   52.0113   -3.7468   -7.0810 C   0  0  0  0  0  0  0  0  0  0  0  0
   51.5671   -2.2766   -7.0054 C   0  0  0  0  0  0  0  0  0  0  0  0
   50.9016   -2.0802   -8.3513 C   0  0  0  0  0  0  0  0  0  0  0  0
   51.6777   -2.9673   -9.2547 C   0  0  0  0  0  0  0  0  0  0  0  0
   52.5925   -3.7696   -8.4223 N   0  0  0  0  0  0  0  0  0  0  0  0
   53.7780   -4.4682   -8.7333 C   0  0  0  0  0  0  0  0  0  0  0  0
   53.7018   -5.2335   -9.7704 O   0  0  0  0  0  0  0  0  0  0  0  0
   55.0931   -4.4908   -8.0954 C   0  0  0  0  0  0  0  0  0  0  0  0
   55.2450   -3.7072   -6.9157 N   0  0  0  0  0  0  0  0  0  0  0  0
   56.0713   -3.8942   -5.8130 C   0  0  0  0  0  0  0  0  0  0  0  0
   56.7368   -2.8896   -5.3579 O   0  0  0  0  0  0  0  0  0  0  0  0
   56.2604   -6.9213   -6.2072 H   0  0  0  0  0  0  0  0  0  0  0  0
   49.0963   -5.0463   -5.7711 H   0  0  0  0  0  0  0  0  0  0  0  0
   54.6324   -2.8306   -6.8918 H   0  0  0  0  0  0  0  0  0  0  0  0
   57.8200   -5.2840   -4.9838 C   0  0  0  0  0  0  0  0  0  0  0  0
   58.4106   -6.4567   -4.3300 C   0  0  0  0  0  0  0  0  0  0  0  0
   58.8543   -6.3428   -2.9071 C   0  0  0  0  0  0  0  0  0  0  0  0
   57.6688   -6.2800   -2.0169 N   0  0  0  0  0  0  0  0  0  0  0  0
   57.0127   -7.0731   -1.9164 H   0  0  0  0  0  0  0  0  0  0  0  0
   57.5837   -3.8161   -1.8871 N   0  0  0  0  0  0  0  0  0  0  0  0
   57.3967   -5.0973   -1.2617 C   0  0  0  0  0  0  0  0  0  0  0  0
   56.9910   -5.1555   -0.0450 N   0  0  0  0  0  0  0  0  0  0  0  0
   56.9483   -3.4686   -2.6225 H   0  0  0  0  0  0  0  0  0  0  0  0
   58.3777   -3.2016   -1.6058 H   0  0  0  0  0  0  0  0  0  0  0  0
   56.7965   -4.2989    0.4926 H   0  0  0  0  0  0  0  0  0  0  0  0
   49.8237   -5.0017   -3.3534 C   0  0  0  0  0  0  0  0  0  0  0  0
   48.6582   -4.1947   -3.6154 C   0  0  0  0  0  0  0  0  0  0  0  0
   47.4267   -4.5397   -3.1192 C   0  0  0  0  0  0  0  0  0  0  0  0
   46.3000   -3.7877   -3.3607 C   0  0  0  0  0  0  0  0  0  0  0  0
   46.3823   -2.6566   -4.1152 C   0  0  0  0  0  0  0  0  0  0  0  0
   47.6047   -2.2744   -4.6339 C   0  0  0  0  0  0  0  0  0  0  0  0
   48.7405   -3.0534   -4.3770 C   0  0  0  0  0  0  0  0  0  0  0  0
   56.1340   -4.0353   -9.1354 C   0  0  0  0  0  0  0  0  0  0  0  0
   57.3388   -4.8668   -9.1615 C   0  0  0  0  0  0  0  0  0  0  0  0
   57.8538   -5.2836  -10.3910 C   0  0  0  0  0  0  0  0  0  0  0  0
   58.9902   -6.0505  -10.4670 C   0  0  0  0  0  0  0  0  0  0  0  0
   59.6651   -6.4370   -9.3219 C   0  0  0  0  0  0  0  0  0  0  0  0
   59.1759   -6.0374   -8.1032 C   0  0  0  0  0  0  0  0  0  0  0  0
   58.0352   -5.2691   -8.0561 C   0  0  0  0  0  0  0  0  0  0  0  0
 35 36  1  0  0  0
 36 37  2  0  0  0
 36 33  1  0  0  0
 33 32  1  0  0  0
 32 31  1  0  0  0
 31 30  1  0  0  0
 30  1  1  0  0  0
  1  2  1  0  0  0
  2  3  1  0  0  0
  3  4  2  0  0  0
  3  5  1  0  0  0
  5  6  1  0  0  0
  6  7  1  0  0  0
  7  8  1  0  0  0
  8  9  1  0  0  0
  9 10  1  0  0  0
 10 11  2  0  0  0
 10 12  1  0  0  0
 12 41  1  0  0  0
 41 42  1  0  0  0
 42 43  2  0  0  0
 43 44  1  0  0  0
 44 45  2  0  0  0
 45 46  1  0  0  0
 46 47  2  0  0  0
 12 13  1  0  0  0
 13 14  1  0  0  0
 14 15  2  0  0  0
 14 16  1  0  0  0
 16 17  1  0  0  0
 17 18  1  0  0  0
 18 19  1  0  0  0
 19 20  1  0  0  0
 20 21  1  0  0  0
 21 22  2  0  0  0
 21 23  1  0  0  0
 23 48  1  0  0  0
 48 49  1  0  0  0
 49 50  2  0  0  0
 50 51  1  0  0  0
 51 52  2  0  0  0
 52 53  1  0  0  0
 53 54  2  0  0  0
 23 24  1  0  0  0
 24 25  1  0  0  0
 25 26  2  0  0  0
 25  1  1  0  0  0
  9  5  1  0  0  0
 47 42  1  0  0  0
 20 16  1  0  0  0
 54 49  1  0  0  0
 35 38  1  0  0  0
 35 39  1  0  0  0
 37 40  1  0  0  0
 33 34  1  0  0  0
  2 27  1  0  0  0
 13 28  1  0  0  0
 24 29  1  0  0  0
M  END
> <minimizedAffinity>
3.43561

> <CNNscore>
0.4231618345

> <CNNaffinity>
7.3355970383

> <CNN_VS>
3.1041448116

> <CNNaffinity_variance>
0.4605383277

$$$$
[H]N=C(N([H])[H])N([H])C([H])([H])C([H])([H])C([H])([H])[C@@]1([H])C(=O)N([H])[C@]([H])(C([H])([H])c2c([H])c([H])c([H])c([H])c2[H])C(=O)N2C([H])([H])C([H])([H])C([H])([H])[C@@]2([H])C(=O)N([H])[C@@]([H])(C([H])([H])c2c([H])c([H])c([H])c([H])c2[H])C(=O)N2C([H])([H])C([H])([H])C([H])([H])[C@@]2([H])C(=O)N1[H]


 54 58  0  0  0  0  0  0  0  0999 V2000
   61.0251   -7.3019   -8.3713 C   0  0  0  0  0  0  0  0  0  0  0  0
   62.2486   -7.0173   -7.7254 N   0  0  0  0  0  0  0  0  0  0  0  0
   62.7726   -7.7262   -6.5937 C   0  0  0  0  0  0  0  0  0  0  0  0
   64.0231   -7.6480   -6.4460 O   0  0  0  0  0  0  0  0  0  0  0  0
   61.9201   -8.5023   -5.6519 C   0  0  0  0  0  0  0  0  0  0  0  0
   60.8462   -7.7018   -4.9941 C   0  0  0  0  0  0  0  0  0  0  0  0
   61.2443   -7.5648   -3.5157 C   0  0  0  0  0  0  0  0  0  0  0  0
   62.7638   -7.7127   -3.6830 C   0  0  0  0  0  0  0  0  0  0  0  0
   62.7795   -8.8988   -4.5454 N   0  0  0  0  0  0  0  0  0  0  0  0
   63.4190  -10.1693   -4.4687 C   0  0  0  0  0  0  0  0  0  0  0  0
   64.4673  -10.2101   -3.7499 O   0  0  0  0  0  0  0  0  0  0  0  0
   63.0145  -11.4160   -5.1133 C   0  0  0  0  0  0  0  0  0  0  0  0
   64.0786  -12.1021   -5.8154 N   0  0  0  0  0  0  0  0  0  0  0  0
   64.5206  -11.8371   -7.1249 C   0  0  0  0  0  0  0  0  0  0  0  0
   65.7539  -11.8635   -7.3345 O   0  0  0  0  0  0  0  0  0  0  0  0
   63.6562  -11.5268   -8.2938 C   0  0  0  0  0  0  0  0  0  0  0  0
   63.0402  -12.8219   -8.8487 C   0  0  0  0  0  0  0  0  0  0  0  0
   64.2372  -13.4870   -9.4949 C   0  0  0  0  0  0  0  0  0  0  0  0
   65.0521  -12.3425   -9.9761 C   0  0  0  0  0  0  0  0  0  0  0  0
   64.4483  -11.1055   -9.4482 N   0  0  0  0  0  0  0  0  0  0  0  0
   64.5499   -9.7599   -9.8594 C   0  0  0  0  0  0  0  0  0  0  0  0
   65.7550   -9.3429  -10.0622 O   0  0  0  0  0  0  0  0  0  0  0  0
   63.5366   -8.7346  -10.1019 C   0  0  0  0  0  0  0  0  0  0  0  0
   62.1829   -9.1026   -9.8554 N   0  0  0  0  0  0  0  0  0  0  0  0
   61.0998   -8.3281   -9.4544 C   0  0  0  0  0  0  0  0  0  0  0  0
   59.9745   -8.4701  -10.0649 O   0  0  0  0  0  0  0  0  0  0  0  0
   62.8472   -6.2162   -8.0975 H   0  0  0  0  0  0  0  0  0  0  0  0
   64.5125  -12.8498   -5.2250 H   0  0  0  0  0  0  0  0  0  0  0  0
   61.9745  -10.1383  -10.0229 H   0  0  0  0  0  0  0  0  0  0  0  0
   60.4521   -6.0764   -9.0215 C   0  0  0  0  0  0  0  0  0  0  0  0
   59.0874   -5.6553   -8.6871 C   0  0  0  0  0  0  0  0  0  0  0  0
   58.2691   -4.9648   -9.7302 C   0  0  0  0  0  0  0  0  0  0  0  0
   56.8275   -5.2117   -9.4800 N   0  0  0  0  0  0  0  0  0  0  0  0
   56.4410   -6.1660   -9.3817 H   0  0  0  0  0  0  0  0  0  0  0  0
   55.7821   -3.4522   -8.0994 N   0  0  0  0  0  0  0  0  0  0  0  0
   55.9175   -4.1153   -9.3681 C   0  0  0  0  0  0  0  0  0  0  0  0
   55.2236   -3.7129  -10.3707 N   0  0  0  0  0  0  0  0  0  0  0  0
   56.5259   -2.8480   -7.7161 H   0  0  0  0  0  0  0  0  0  0  0  0
   54.9156   -3.5700   -7.5314 H   0  0  0  0  0  0  0  0  0  0  0  0
   54.5703   -2.9218  -10.2825 H   0  0  0  0  0  0  0  0  0  0  0  0
   62.3541  -12.2689   -4.0501 C   0  0  0  0  0  0  0  0  0  0  0  0
   61.5175  -11.5912   -3.0913 C   0  0  0  0  0  0  0  0  0  0  0  0
   61.9544  -11.3427   -1.8149 C   0  0  0  0  0  0  0  0  0  0  0  0
   61.1717  -10.7024   -0.8818 C   0  0  0  0  0  0  0  0  0  0  0  0
   59.9157  -10.2901   -1.2107 C   0  0  0  0  0  0  0  0  0  0  0  0
   59.4379  -10.5216   -2.4865 C   0  0  0  0  0  0  0  0  0  0  0  0
   60.2500  -11.1753   -3.4225 C   0  0  0  0  0  0  0  0  0  0  0  0
   63.6700   -8.2706  -11.5647 C   0  0  0  0  0  0  0  0  0  0  0  0
   63.9694   -9.3573  -12.4991 C   0  0  0  0  0  0  0  0  0  0  0  0
   64.9660   -9.1756  -13.4604 C   0  0  0  0  0  0  0  0  0  0  0  0
   65.2936  -10.1711  -14.3475 C   0  0  0  0  0  0  0  0  0  0  0  0
   64.6433  -11.3927  -14.3172 C   0  0  0  0  0  0  0  0  0  0  0  0
   63.6607  -11.5922  -13.3796 C   0  0  0  0  0  0  0  0  0  0  0  0
   63.3528  -10.5775  -12.5027 C   0  0  0  0  0  0  0  0  0  0  0  0
 35 36  1  0  0  0
 36 37  2  0  0  0
 36 33  1  0  0  0
 33 32  1  0  0  0
 32 31  1  0  0  0
 31 30  1  0  0  0
 30  1  1  0  0  0
  1  2  1  0  0  0
  2  3  1  0  0  0
  3  4  2  0  0  0
  3  5  1  0  0  0
  5  6  1  0  0  0
  6  7  1  0  0  0
  7  8  1  0  0  0
  8  9  1  0  0  0
  9 10  1  0  0  0
 10 11  2  0  0  0
 10 12  1  0  0  0
 12 41  1  0  0  0
 41 42  1  0  0  0
 42 43  2  0  0  0
 43 44  1  0  0  0
 44 45  2  0  0  0
 45 46  1  0  0  0
 46 47  2  0  0  0
 12 13  1  0  0  0
 13 14  1  0  0  0
 14 15  2  0  0  0
 14 16  1  0  0  0
 16 17  1  0  0  0
 17 18  1  0  0  0
 18 19  1  0  0  0
 19 20  1  0  0  0
 20 21  1  0  0  0
 21 22  2  0  0  0
 21 23  1  0  0  0
 23 48  1  0  0  0
 48 49  1  0  0  0
 49 50  2  0  0  0
 50 51  1  0  0  0
 51 52  2  0  0  0
 52 53  1  0  0  0
 53 54  2  0  0  0
 23 24  1  0  0  0
 24 25  1  0  0  0
 25 26  2  0  0  0
 25  1  1  0  0  0
  9  5  1  0  0  0
 47 42  1  0  0  0
 20 16  1  0  0  0
 54 49  1  0  0  0
 35 38  1  0  0  0
 35 39  1  0  0  0
 37 40  1  0  0  0
 33 34  1  0  0  0
  2 27  1  0  0  0
 13 28  1  0  0  0
 24 29  1  0  0  0
M  END
> <minimizedAffinity>
-4.20327

> <CNNscore>
0.4220762551

> <CNNaffinity>
6.5168175697

> <CNN_VS>
2.7505939007

> <CNNaffinity_variance>
1.1543002129

$$$$
[H]N=C(N([H])[H])N([H])C([H])([H])C([H])([H])C([H])([H])[C@@]1([H])C(=O)N([H])[C@]([H])(C([H])([H])c2c([H])c([H])c([H])c([H])c2[H])C(=O)N2C([H])([H])C([H])([H])C([H])([H])[C@@]2([H])C(=O)N([H])[C@@]([H])(C([H])([H])c2c([H])c([H])c([H])c([H])c2[H])C(=O)N2C([H])([H])C([H])([H])C([H])([H])[C@@]2([H])C(=O)N1[H]


 54 58  0  0  0  0  0  0  0  0999 V2000
   53.1797   -6.2239   -6.3034 C   0  0  0  0  0  0  0  0  0  0  0  0
   54.0606   -5.2021   -5.8851 N   0  0  0  0  0  0  0  0  0  0  0  0
   55.4712   -5.1669   -6.1438 C   0  0  0  0  0  0  0  0  0  0  0  0
   55.9928   -4.0187   -6.1082 O   0  0  0  0  0  0  0  0  0  0  0  0
   56.2771   -6.3842   -6.4347 C   0  0  0  0  0  0  0  0  0  0  0  0
   56.2256   -7.4244   -5.3658 C   0  0  0  0  0  0  0  0  0  0  0  0
   57.6127   -7.4419   -4.7036 C   0  0  0  0  0  0  0  0  0  0  0  0
   58.0237   -5.9957   -5.0168 C   0  0  0  0  0  0  0  0  0  0  0  0
   57.6720   -5.9664   -6.4403 N   0  0  0  0  0  0  0  0  0  0  0  0
   58.3833   -5.6330   -7.6284 C   0  0  0  0  0  0  0  0  0  0  0  0
   59.3800   -4.8593   -7.4690 O   0  0  0  0  0  0  0  0  0  0  0  0
   58.1031   -6.0718   -8.9931 C   0  0  0  0  0  0  0  0  0  0  0  0
   58.0736   -5.0063   -9.9728 N   0  0  0  0  0  0  0  0  0  0  0  0
   56.9800   -4.1696  -10.2627 C   0  0  0  0  0  0  0  0  0  0  0  0
   57.2171   -2.9567  -10.4590 O   0  0  0  0  0  0  0  0  0  0  0  0
   55.5578   -4.5911  -10.3600 C   0  0  0  0  0  0  0  0  0  0  0  0
   55.3021   -5.2634  -11.7192 C   0  0  0  0  0  0  0  0  0  0  0  0
   55.3592   -4.0847  -12.6680 C   0  0  0  0  0  0  0  0  0  0  0  0
   54.8211   -2.9617  -11.8588 C   0  0  0  0  0  0  0  0  0  0  0  0
   54.6648   -3.4390  -10.4728 N   0  0  0  0  0  0  0  0  0  0  0  0
   53.8816   -2.9671   -9.3985 C   0  0  0  0  0  0  0  0  0  0  0  0
   53.9651   -1.6969   -9.1818 O   0  0  0  0  0  0  0  0  0  0  0  0
   52.9823   -3.6522   -8.4718 C   0  0  0  0  0  0  0  0  0  0  0  0
   52.8710   -5.0648   -8.6156 N   0  0  0  0  0  0  0  0  0  0  0  0
   52.5994   -6.0460   -7.6684 C   0  0  0  0  0  0  0  0  0  0  0  0
   51.7342   -6.9580   -7.9491 O   0  0  0  0  0  0  0  0  0  0  0  0
   53.6623   -4.3795   -5.3343 H   0  0  0  0  0  0  0  0  0  0  0  0
   58.9912   -4.9103  -10.4676 H   0  0  0  0  0  0  0  0  0  0  0  0
   53.0046   -5.4135   -9.6180 H   0  0  0  0  0  0  0  0  0  0  0  0
   52.0014   -6.3414   -5.3810 C   0  0  0  0  0  0  0  0  0  0  0  0
   52.1834   -6.0990   -3.9458 C   0  0  0  0  0  0  0  0  0  0  0  0
   52.8953   -7.1256   -3.1250 C   0  0  0  0  0  0  0  0  0  0  0  0
   53.8371   -6.4566   -2.1938 N   0  0  0  0  0  0  0  0  0  0  0  0
   54.8631   -6.5245   -2.3048 H   0  0  0  0  0  0  0  0  0  0  0  0
   52.5607   -6.3460   -0.0834 N   0  0  0  0  0  0  0  0  0  0  0  0
   53.3406   -5.6873   -1.0962 C   0  0  0  0  0  0  0  0  0  0  0  0
   53.5756   -4.4290   -0.9967 N   0  0  0  0  0  0  0  0  0  0  0  0
   52.9838   -7.0008    0.5929 H   0  0  0  0  0  0  0  0  0  0  0  0
   51.5352   -6.1726   -0.0102 H   0  0  0  0  0  0  0  0  0  0  0  0
   53.2149   -3.8815   -0.2026 H   0  0  0  0  0  0  0  0  0  0  0  0
   59.1060   -7.1579   -9.3225 C   0  0  0  0  0  0  0  0  0  0  0  0
   60.4951   -6.8673   -9.0688 C   0  0  0  0  0  0  0  0  0  0  0  0
   61.0693   -7.1397   -7.8531 C   0  0  0  0  0  0  0  0  0  0  0  0
   62.3912   -6.8661   -7.5868 C   0  0  0  0  0  0  0  0  0  0  0  0
   63.1796   -6.3057   -8.5459 C   0  0  0  0  0  0  0  0  0  0  0  0
   62.6393   -6.0156   -9.7843 C   0  0  0  0  0  0  0  0  0  0  0  0
   61.2910   -6.3015  -10.0361 C   0  0  0  0  0  0  0  0  0  0  0  0
   51.5834   -3.0235   -8.6143 C   0  0  0  0  0  0  0  0  0  0  0  0
   50.8000   -3.0507   -7.3777 C   0  0  0  0  0  0  0  0  0  0  0  0
   50.0051   -1.9504   -7.0491 C   0  0  0  0  0  0  0  0  0  0  0  0
   49.2404   -1.9361   -5.9087 C   0  0  0  0  0  0  0  0  0  0  0  0
   49.2328   -3.0172   -5.0441 C   0  0  0  0  0  0  0  0  0  0  0  0
   50.0068   -4.1091   -5.3489 C   0  0  0  0  0  0  0  0  0  0  0  0
   50.7633   -4.0968   -6.4983 C   0  0  0  0  0  0  0  0  0  0  0  0
 35 36  1  0  0  0
 36 37  2  0  0  0
 36 33  1  0  0  0
 33 32  1  0  0  0
 32 31  1  0  0  0
 31 30  1  0  0  0
 30  1  1  0  0  0
  1  2  1  0  0  0
  2  3  1  0  0  0
  3  4  2  0  0  0
  3  5  1  0  0  0
  5  6  1  0  0  0
  6  7  1  0  0  0
  7  8  1  0  0  0
  8  9  1  0  0  0
  9 10  1  0  0  0
 10 11  2  0  0  0
 10 12  1  0  0  0
 12 41  1  0  0  0
 41 42  1  0  0  0
 42 43  2  0  0  0
 43 44  1  0  0  0
 44 45  2  0  0  0
 45 46  1  0  0  0
 46 47  2  0  0  0
 12 13  1  0  0  0
 13 14  1  0  0  0
 14 15  2  0  0  0
 14 16  1  0  0  0
 16 17  1  0  0  0
 17 18  1  0  0  0
 18 19  1  0  0  0
 19 20  1  0  0  0
 20 21  1  0  0  0
 21 22  2  0  0  0
 21 23  1  0  0  0
 23 48  1  0  0  0
 48 49  1  0  0  0
 49 50  2  0  0  0
 50 51  1  0  0  0
 51 52  2  0  0  0
 52 53  1  0  0  0
 53 54  2  0  0  0
 23 24  1  0  0  0
 24 25  1  0  0  0
 25 26  2  0  0  0
 25  1  1  0  0  0
  9  5  1  0  0  0
 47 42  1  0  0  0
 20 16  1  0  0  0
 54 49  1  0  0  0
 35 38  1  0  0  0
 35 39  1  0  0  0
 37 40  1  0  0  0
 33 34  1  0  0  0
  2 27  1  0  0  0
 13 28  1  0  0  0
 24 29  1  0  0  0
M  END
> <minimizedAffinity>
2.62496

> <CNNscore>
0.4199383855

> <CNNaffinity>
7.1264257431

> <CNN_VS>
2.9926598072

> <CNNaffinity_variance>
0.9260311127

$$$$
[H]N=C(N([H])[H])N([H])C([H])([H])C([H])([H])C([H])([H])[C@@]1([H])C(=O)N([H])[C@]([H])(C([H])([H])c2c([H])c([H])c([H])c([H])c2[H])C(=O)N2C([H])([H])C([H])([H])C([H])([H])[C@@]2([H])C(=O)N([H])[C@@]([H])(C([H])([H])c2c([H])c([H])c([H])c([H])c2[H])C(=O)N2C([H])([H])C([H])([H])C([H])([H])[C@@]2([H])C(=O)N1[H]


 54 58  0  0  0  0  0  0  0  0999 V2000
   58.1231   -6.5324   -2.5247 C   0  0  0  0  0  0  0  0  0  0  0  0
   57.4178   -7.4056   -3.3821 N   0  0  0  0  0  0  0  0  0  0  0  0
   57.0822   -7.1320   -4.7497 C   0  0  0  0  0  0  0  0  0  0  0  0
   56.8766   -8.1513   -5.4641 O   0  0  0  0  0  0  0  0  0  0  0  0
   56.9793   -5.7541   -5.3037 C   0  0  0  0  0  0  0  0  0  0  0  0
   55.9891   -4.8837   -4.6044 C   0  0  0  0  0  0  0  0  0  0  0  0
   54.8202   -4.6766   -5.5811 C   0  0  0  0  0  0  0  0  0  0  0  0
   54.9881   -5.9647   -6.4005 C   0  0  0  0  0  0  0  0  0  0  0  0
   56.4318   -5.8868   -6.6464 N   0  0  0  0  0  0  0  0  0  0  0  0
   57.2391   -5.9257   -7.8193 C   0  0  0  0  0  0  0  0  0  0  0  0
   56.7147   -6.5030   -8.8239 O   0  0  0  0  0  0  0  0  0  0  0  0
   58.5842   -5.3857   -7.9992 C   0  0  0  0  0  0  0  0  0  0  0  0
   59.5268   -6.3076   -8.5973 N   0  0  0  0  0  0  0  0  0  0  0  0
   60.2640   -7.3000   -7.9253 C   0  0  0  0  0  0  0  0  0  0  0  0
   60.3880   -8.4094   -8.4906 O   0  0  0  0  0  0  0  0  0  0  0  0
   60.9164   -7.1563   -6.5972 C   0  0  0  0  0  0  0  0  0  0  0  0
   62.2387   -6.3850   -6.7435 C   0  0  0  0  0  0  0  0  0  0  0  0
   63.1217   -7.4039   -7.4328 C   0  0  0  0  0  0  0  0  0  0  0  0
   62.6393   -8.7013   -6.8949 C   0  0  0  0  0  0  0  0  0  0  0  0
   61.4211   -8.4381   -6.1075 N   0  0  0  0  0  0  0  0  0  0  0  0
   60.7742   -9.1828   -5.0990 C   0  0  0  0  0  0  0  0  0  0  0  0
   60.5853  -10.4288   -5.3798 O   0  0  0  0  0  0  0  0  0  0  0  0
   60.2702   -8.8063   -3.7795 C   0  0  0  0  0  0  0  0  0  0  0  0
   60.3990   -7.4360   -3.4129 N   0  0  0  0  0  0  0  0  0  0  0  0
   59.6112   -6.6512   -2.5780 C   0  0  0  0  0  0  0  0  0  0  0  0
   60.1882   -5.8987   -1.7062 O   0  0  0  0  0  0  0  0  0  0  0  0
   57.1044   -8.3517   -3.0007 H   0  0  0  0  0  0  0  0  0  0  0  0
   59.6091   -6.1605   -9.6306 H   0  0  0  0  0  0  0  0  0  0  0  0
   61.2483   -6.9473   -3.8420 H   0  0  0  0  0  0  0  0  0  0  0  0
   57.7555   -6.7623   -1.0876 C   0  0  0  0  0  0  0  0  0  0  0  0
   56.7572   -7.7840   -0.7544 C   0  0  0  0  0  0  0  0  0  0  0  0
   55.5172   -7.3717   -0.0284 C   0  0  0  0  0  0  0  0  0  0  0  0
   54.4939   -6.9191   -1.0030 N   0  0  0  0  0  0  0  0  0  0  0  0
   54.1579   -5.9414   -1.0348 H   0  0  0  0  0  0  0  0  0  0  0  0
   53.0792   -8.8912   -1.4548 N   0  0  0  0  0  0  0  0  0  0  0  0
   53.9336   -7.8414   -1.9401 C   0  0  0  0  0  0  0  0  0  0  0  0
   54.1757   -7.7518   -3.1978 N   0  0  0  0  0  0  0  0  0  0  0  0
   52.1277   -8.7026   -1.1019 H   0  0  0  0  0  0  0  0  0  0  0  0
   53.4084   -9.8805   -1.4494 H   0  0  0  0  0  0  0  0  0  0  0  0
   53.7679   -8.4199   -3.8671 H   0  0  0  0  0  0  0  0  0  0  0  0
   58.4409   -4.0922   -8.7739 C   0  0  0  0  0  0  0  0  0  0  0  0
   57.7399   -4.1551  -10.0321 C   0  0  0  0  0  0  0  0  0  0  0  0
   58.3838   -4.5135  -11.1891 C   0  0  0  0  0  0  0  0  0  0  0  0
   57.7364   -4.5753  -12.4017 C   0  0  0  0  0  0  0  0  0  0  0  0
   56.4102   -4.2754  -12.4842 C   0  0  0  0  0  0  0  0  0  0  0  0
   55.7249   -3.9095  -11.3414 C   0  0  0  0  0  0  0  0  0  0  0  0
   56.4017   -3.8523  -10.1160 C   0  0  0  0  0  0  0  0  0  0  0  0
   60.9898   -9.6743   -2.7300 C   0  0  0  0  0  0  0  0  0  0  0  0
   62.2186   -9.0694   -2.2124 C   0  0  0  0  0  0  0  0  0  0  0  0
   63.3436   -8.9975   -3.0368 C   0  0  0  0  0  0  0  0  0  0  0  0
   64.5132   -8.4248   -2.6018 C   0  0  0  0  0  0  0  0  0  0  0  0
   64.6152   -7.8978   -1.3258 C   0  0  0  0  0  0  0  0  0  0  0  0
   63.5207   -7.9577   -0.4995 C   0  0  0  0  0  0  0  0  0  0  0  0
   62.3611   -8.5371   -0.9613 C   0  0  0  0  0  0  0  0  0  0  0  0
 35 36  1  0  0  0
 36 37  2  0  0  0
 36 33  1  0  0  0
 33 32  1  0  0  0
 32 31  1  0  0  0
 31 30  1  0  0  0
 30  1  1  0  0  0
  1  2  1  0  0  0
  2  3  1  0  0  0
  3  4  2  0  0  0
  3  5  1  0  0  0
  5  6  1  0  0  0
  6  7  1  0  0  0
  7  8  1  0  0  0
  8  9  1  0  0  0
  9 10  1  0  0  0
 10 11  2  0  0  0
 10 12  1  0  0  0
 12 41  1  0  0  0
 41 42  1  0  0  0
 42 43  2  0  0  0
 43 44  1  0  0  0
 44 45  2  0  0  0
 45 46  1  0  0  0
 46 47  2  0  0  0
 12 13  1  0  0  0
 13 14  1  0  0  0
 14 15  2  0  0  0
 14 16  1  0  0  0
 16 17  1  0  0  0
 17 18  1  0  0  0
 18 19  1  0  0  0
 19 20  1  0  0  0
 20 21  1  0  0  0
 21 22  2  0  0  0
 21 23  1  0  0  0
 23 48  1  0  0  0
 48 49  1  0  0  0
 49 50  2  0  0  0
 50 51  1  0  0  0
 51 52  2  0  0  0
 52 53  1  0  0  0
 53 54  2  0  0  0
 23 24  1  0  0  0
 24 25  1  0  0  0
 25 26  2  0  0  0
 25  1  1  0  0  0
  9  5  1  0  0  0
 47 42  1  0  0  0
 20 16  1  0  0  0
 54 49  1  0  0  0
 35 38  1  0  0  0
 35 39  1  0  0  0
 37 40  1  0  0  0
 33 34  1  0  0  0
  2 27  1  0  0  0
 13 28  1  0  0  0
 24 29  1  0  0  0
M  END
> <minimizedAffinity>
3.40429

> <CNNscore>
0.4153040051

> <CNNaffinity>
6.5912985802

> <CNN_VS>
2.7373926640

> <CNNaffinity_variance>
0.4006033838

$$$$
[H]N=C(N([H])[H])N([H])C([H])([H])C([H])([H])C([H])([H])[C@@]1([H])C(=O)N([H])[C@]([H])(C([H])([H])c2c([H])c([H])c([H])c([H])c2[H])C(=O)N2C([H])([H])C([H])([H])C([H])([H])[C@@]2([H])C(=O)N([H])[C@@]([H])(C([H])([H])c2c([H])c([H])c([H])c([H])c2[H])C(=O)N2C([H])([H])C([H])([H])C([H])([H])[C@@]2([H])C(=O)N1[H]


 54 58  0  0  0  0  0  0  0  0999 V2000
   56.4747   -8.0219   -3.9477 C   0  0  0  0  0  0  0  0  0  0  0  0
   57.4975   -7.1297   -3.5567 N   0  0  0  0  0  0  0  0  0  0  0  0
   58.8595   -7.1832   -4.0040 C   0  0  0  0  0  0  0  0  0  0  0  0
   59.4905   -6.0934   -3.9277 O   0  0  0  0  0  0  0  0  0  0  0  0
   59.4988   -8.4233   -4.5230 C   0  0  0  0  0  0  0  0  0  0  0  0
   59.4850   -9.5680   -3.5656 C   0  0  0  0  0  0  0  0  0  0  0  0
   60.9376   -9.7742   -3.1073 C   0  0  0  0  0  0  0  0  0  0  0  0
   61.4435   -8.3413   -3.3299 C   0  0  0  0  0  0  0  0  0  0  0  0
   60.9152   -8.1248   -4.6808 N   0  0  0  0  0  0  0  0  0  0  0  0
   61.4960   -7.7216   -5.9173 C   0  0  0  0  0  0  0  0  0  0  0  0
   62.5754   -7.0559   -5.8220 O   0  0  0  0  0  0  0  0  0  0  0  0
   61.0004   -7.9812   -7.2665 C   0  0  0  0  0  0  0  0  0  0  0  0
   60.9483   -6.8146   -8.1223 N   0  0  0  0  0  0  0  0  0  0  0  0
   59.9130   -5.8629   -8.1733 C   0  0  0  0  0  0  0  0  0  0  0  0
   60.2395   -4.6596   -8.2796 O   0  0  0  0  0  0  0  0  0  0  0  0
   58.4559   -6.1514   -8.1135 C   0  0  0  0  0  0  0  0  0  0  0  0
   57.9626   -6.6448   -9.4838 C   0  0  0  0  0  0  0  0  0  0  0  0
   58.0109   -5.3767  -10.3099 C   0  0  0  0  0  0  0  0  0  0  0  0
   57.6937   -4.3099   -9.3267 C   0  0  0  0  0  0  0  0  0  0  0  0
   57.6722   -4.9237   -7.9865 N   0  0  0  0  0  0  0  0  0  0  0  0
   57.0841   -4.5107   -6.7726 C   0  0  0  0  0  0  0  0  0  0  0  0
   57.3181   -3.2839   -6.4449 O   0  0  0  0  0  0  0  0  0  0  0  0
   56.2499   -5.2176   -5.8024 C   0  0  0  0  0  0  0  0  0  0  0  0
   55.9840   -6.5913   -6.0685 N   0  0  0  0  0  0  0  0  0  0  0  0
   55.7430   -7.6457   -5.1945 C   0  0  0  0  0  0  0  0  0  0  0  0
   54.7642   -8.4459   -5.4413 O   0  0  0  0  0  0  0  0  0  0  0  0
   57.2557   -6.3432   -2.8773 H   0  0  0  0  0  0  0  0  0  0  0  0
   61.7991   -6.7407   -8.7278 H   0  0  0  0  0  0  0  0  0  0  0  0
   55.9523   -6.8363   -7.1093 H   0  0  0  0  0  0  0  0  0  0  0  0
   55.4197   -8.1430   -2.8869 C   0  0  0  0  0  0  0  0  0  0  0  0
   55.0885   -6.9746   -2.0642 C   0  0  0  0  0  0  0  0  0  0  0  0
   53.6521   -6.6798   -1.7742 C   0  0  0  0  0  0  0  0  0  0  0  0
   53.3186   -7.1218   -0.3976 N   0  0  0  0  0  0  0  0  0  0  0  0
   53.7874   -6.7283    0.4361 H   0  0  0  0  0  0  0  0  0  0  0  0
   52.7248   -9.5039   -0.1370 N   0  0  0  0  0  0  0  0  0  0  0  0
   52.3223   -8.1242   -0.1841 C   0  0  0  0  0  0  0  0  0  0  0  0
   51.0841   -7.8198   -0.0341 N   0  0  0  0  0  0  0  0  0  0  0  0
   53.2565   -9.8916    0.6581 H   0  0  0  0  0  0  0  0  0  0  0  0
   52.4836  -10.1516   -0.9177 H   0  0  0  0  0  0  0  0  0  0  0  0
   50.3720   -8.5476    0.1198 H   0  0  0  0  0  0  0  0  0  0  0  0
   61.8419   -9.1034   -7.8378 C   0  0  0  0  0  0  0  0  0  0  0  0
   62.6626   -8.7915   -8.9813 C   0  0  0  0  0  0  0  0  0  0  0  0
   62.1967   -8.9620  -10.2603 C   0  0  0  0  0  0  0  0  0  0  0  0
   62.9638   -8.6760  -11.3661 C   0  0  0  0  0  0  0  0  0  0  0  0
   64.2331   -8.2057  -11.2142 C   0  0  0  0  0  0  0  0  0  0  0  0
   64.7402   -8.0201   -9.9422 C   0  0  0  0  0  0  0  0  0  0  0  0
   63.9436   -8.3172   -8.8285 C   0  0  0  0  0  0  0  0  0  0  0  0
   54.9121   -4.4629   -5.6863 C   0  0  0  0  0  0  0  0  0  0  0  0
   53.7715   -5.2060   -6.2253 C   0  0  0  0  0  0  0  0  0  0  0  0
   52.7328   -5.5775   -5.3687 C   0  0  0  0  0  0  0  0  0  0  0  0
   51.6351   -6.2607   -5.8307 C   0  0  0  0  0  0  0  0  0  0  0  0
   51.5221   -6.6048   -7.1668 C   0  0  0  0  0  0  0  0  0  0  0  0
   52.5318   -6.2485   -8.0258 C   0  0  0  0  0  0  0  0  0  0  0  0
   53.6205   -5.5640   -7.5360 C   0  0  0  0  0  0  0  0  0  0  0  0
 35 36  1  0  0  0
 36 37  2  0  0  0
 36 33  1  0  0  0
 33 32  1  0  0  0
 32 31  1  0  0  0
 31 30  1  0  0  0
 30  1  1  0  0  0
  1  2  1  0  0  0
  2  3  1  0  0  0
  3  4  2  0  0  0
  3  5  1  0  0  0
  5  6  1  0  0  0
  6  7  1  0  0  0
  7  8  1  0  0  0
  8  9  1  0  0  0
  9 10  1  0  0  0
 10 11  2  0  0  0
 10 12  1  0  0  0
 12 41  1  0  0  0
 41 42  1  0  0  0
 42 43  2  0  0  0
 43 44  1  0  0  0
 44 45  2  0  0  0
 45 46  1  0  0  0
 46 47  2  0  0  0
 12 13  1  0  0  0
 13 14  1  0  0  0
 14 15  2  0  0  0
 14 16  1  0  0  0
 16 17  1  0  0  0
 17 18  1  0  0  0
 18 19  1  0  0  0
 19 20  1  0  0  0
 20 21  1  0  0  0
 21 22  2  0  0  0
 21 23  1  0  0  0
 23 48  1  0  0  0
 48 49  1  0  0  0
 49 50  2  0  0  0
 50 51  1  0  0  0
 51 52  2  0  0  0
 52 53  1  0  0  0
 53 54  2  0  0  0
 23 24  1  0  0  0
 24 25  1  0  0  0
 25 26  2  0  0  0
 25  1  1  0  0  0
  9  5  1  0  0  0
 47 42  1  0  0  0
 20 16  1  0  0  0
 54 49  1  0  0  0
 35 38  1  0  0  0
 35 39  1  0  0  0
 37 40  1  0  0  0
 33 34  1  0  0  0
  2 27  1  0  0  0
 13 28  1  0  0  0
 24 29  1  0  0  0
M  END
> <minimizedAffinity>
0.74858

> <CNNscore>
0.4089059234

> <CNNaffinity>
6.6816711426

> <CNN_VS>
2.7321748734

> <CNNaffinity_variance>
0.2778325975

$$$$
[H]N=C(N([H])[H])N([H])C([H])([H])C([H])([H])C([H])([H])[C@@]1([H])C(=O)N([H])[C@]([H])(C([H])([H])c2c([H])c([H])c([H])c([H])c2[H])C(=O)N2C([H])([H])C([H])([H])C([H])([H])[C@@]2([H])C(=O)N([H])[C@@]([H])(C([H])([H])c2c([H])c([H])c([H])c([H])c2[H])C(=O)N2C([H])([H])C([H])([H])C([H])([H])[C@@]2([H])C(=O)N1[H]


 54 58  0  0  0  0  0  0  0  0999 V2000
   58.8803   -5.8380   -8.2994 C   0  0  0  0  0  0  0  0  0  0  0  0
   59.2666   -7.1910   -8.1756 N   0  0  0  0  0  0  0  0  0  0  0  0
   60.4908   -7.6527   -7.5873 C   0  0  0  0  0  0  0  0  0  0  0  0
   60.4639   -8.8389   -7.1585 O   0  0  0  0  0  0  0  0  0  0  0  0
   61.7130   -6.8094   -7.4813 C   0  0  0  0  0  0  0  0  0  0  0  0
   62.2195   -6.2957   -8.7877 C   0  0  0  0  0  0  0  0  0  0  0  0
   63.5331   -7.0413   -9.0727 C   0  0  0  0  0  0  0  0  0  0  0  0
   63.2448   -8.3123   -8.2603 C   0  0  0  0  0  0  0  0  0  0  0  0
   62.7813   -7.6841   -7.0188 N   0  0  0  0  0  0  0  0  0  0  0  0
   63.1612   -7.7980   -5.6508 C   0  0  0  0  0  0  0  0  0  0  0  0
   63.7341   -8.8879   -5.3324 O   0  0  0  0  0  0  0  0  0  0  0  0
   62.9703   -6.8191   -4.5837 C   0  0  0  0  0  0  0  0  0  0  0  0
   62.3888   -7.3570   -3.3718 N   0  0  0  0  0  0  0  0  0  0  0  0
   61.0185   -7.5555   -3.1209 C   0  0  0  0  0  0  0  0  0  0  0  0
   60.6865   -8.6056   -2.5268 O   0  0  0  0  0  0  0  0  0  0  0  0
   59.9174   -6.6298   -3.4958 C   0  0  0  0  0  0  0  0  0  0  0  0
   59.8504   -5.4631   -2.4962 C   0  0  0  0  0  0  0  0  0  0  0  0
   59.3003   -6.1410   -1.2590 C   0  0  0  0  0  0  0  0  0  0  0  0
   58.4083   -7.1939   -1.8081 C   0  0  0  0  0  0  0  0  0  0  0  0
   58.6071   -7.2370   -3.2682 N   0  0  0  0  0  0  0  0  0  0  0  0
   57.8029   -7.7407   -4.3121 C   0  0  0  0  0  0  0  0  0  0  0  0
   57.3479   -8.9338   -4.1204 O   0  0  0  0  0  0  0  0  0  0  0  0
   57.3823   -7.1610   -5.5864 C   0  0  0  0  0  0  0  0  0  0  0  0
   57.8812   -5.8628   -5.8939 N   0  0  0  0  0  0  0  0  0  0  0  0
   58.1532   -5.2726   -7.1233 C   0  0  0  0  0  0  0  0  0  0  0  0
   57.7465   -4.0695   -7.3385 O   0  0  0  0  0  0  0  0  0  0  0  0
   58.6056   -7.9453   -8.5399 H   0  0  0  0  0  0  0  0  0  0  0  0
   63.1223   -7.5999   -2.6655 H   0  0  0  0  0  0  0  0  0  0  0  0
   58.0566   -5.2480   -5.0363 H   0  0  0  0  0  0  0  0  0  0  0  0
   57.9631   -5.6363   -9.4703 C   0  0  0  0  0  0  0  0  0  0  0  0
   58.1939   -4.5088  -10.3799 C   0  0  0  0  0  0  0  0  0  0  0  0
   57.0186   -3.7308  -10.8777 C   0  0  0  0  0  0  0  0  0  0  0  0
   55.7622   -4.3815  -10.4310 N   0  0  0  0  0  0  0  0  0  0  0  0
   55.3808   -5.2218  -10.8981 H   0  0  0  0  0  0  0  0  0  0  0  0
   54.7692   -4.7029   -8.1936 N   0  0  0  0  0  0  0  0  0  0  0  0
   55.0310   -3.8521   -9.3229 C   0  0  0  0  0  0  0  0  0  0  0  0
   54.6065   -2.6403   -9.3152 N   0  0  0  0  0  0  0  0  0  0  0  0
   55.5149   -4.9883   -7.5395 H   0  0  0  0  0  0  0  0  0  0  0  0
   53.8052   -5.0547   -8.0093 H   0  0  0  0  0  0  0  0  0  0  0  0
   54.0808   -2.2657   -8.5129 H   0  0  0  0  0  0  0  0  0  0  0  0
   64.3085   -6.1471   -4.3563 C   0  0  0  0  0  0  0  0  0  0  0  0
   64.7553   -5.2172   -5.3632 C   0  0  0  0  0  0  0  0  0  0  0  0
   64.6212   -3.8627   -5.1916 C   0  0  0  0  0  0  0  0  0  0  0  0
   65.0356   -2.9570   -6.1409 C   0  0  0  0  0  0  0  0  0  0  0  0
   65.6020   -3.3933   -7.3003 C   0  0  0  0  0  0  0  0  0  0  0  0
   65.7549   -4.7503   -7.5121 C   0  0  0  0  0  0  0  0  0  0  0  0
   65.3266   -5.6569   -6.5335 C   0  0  0  0  0  0  0  0  0  0  0  0
   55.8425   -7.1223   -5.6061 C   0  0  0  0  0  0  0  0  0  0  0  0
   55.2548   -6.5637   -4.3871 C   0  0  0  0  0  0  0  0  0  0  0  0
   54.3155   -7.3142   -3.6764 C   0  0  0  0  0  0  0  0  0  0  0  0
   53.7489   -6.8396   -2.5192 C   0  0  0  0  0  0  0  0  0  0  0  0
   54.0923   -5.5960   -2.0175 C   0  0  0  0  0  0  0  0  0  0  0  0
   55.0142   -4.8424   -2.7005 C   0  0  0  0  0  0  0  0  0  0  0  0
   55.5663   -5.3425   -3.8575 C   0  0  0  0  0  0  0  0  0  0  0  0
 35 36  1  0  0  0
 36 37  2  0  0  0
 36 33  1  0  0  0
 33 32  1  0  0  0
 32 31  1  0  0  0
 31 30  1  0  0  0
 30  1  1  0  0  0
  1  2  1  0  0  0
  2  3  1  0  0  0
  3  4  2  0  0  0
  3  5  1  0  0  0
  5  6  1  0  0  0
  6  7  1  0  0  0
  7  8  1  0  0  0
  8  9  1  0  0  0
  9 10  1  0  0  0
 10 11  2  0  0  0
 10 12  1  0  0  0
 12 41  1  0  0  0
 41 42  1  0  0  0
 42 43  2  0  0  0
 43 44  1  0  0  0
 44 45  2  0  0  0
 45 46  1  0  0  0
 46 47  2  0  0  0
 12 13  1  0  0  0
 13 14  1  0  0  0
 14 15  2  0  0  0
 14 16  1  0  0  0
 16 17  1  0  0  0
 17 18  1  0  0  0
 18 19  1  0  0  0
 19 20  1  0  0  0
 20 21  1  0  0  0
 21 22  2  0  0  0
 21 23  1  0  0  0
 23 48  1  0  0  0
 48 49  1  0  0  0
 49 50  2  0  0  0
 50 51  1  0  0  0
 51 52  2  0  0  0
 52 53  1  0  0  0
 53 54  2  0  0  0
 23 24  1  0  0  0
 24 25  1  0  0  0
 25 26  2  0  0  0
 25  1  1  0  0  0
  9  5  1  0  0  0
 47 42  1  0  0  0
 20 16  1  0  0  0
 54 49  1  0  0  0
 35 38  1  0  0  0
 35 39  1  0  0  0
 37 40  1  0  0  0
 33 34  1  0  0  0
  2 27  1  0  0  0
 13 28  1  0  0  0
 24 29  1  0  0  0
M  END
> <minimizedAffinity>
3.16460

> <CNNscore>
0.3955119550

> <CNNaffinity>
6.5998849869

> <CNN_VS>
2.6103334427

> <CNNaffinity_variance>
0.2946879268

$$$$
[H]c1c([H])c(N2C([H])([H])C([H])([H])N(c3c([H])c([H])c(C#N)c([H])c3[H])[C@]([H])(C([H])([H])[H])C2([H])[H])c([H])c([H])c1F


 22 24  0  0  0  0  0  0  0  0999 V2000
   62.3227   -6.6460  -16.1091 C   0  0  0  0  0  0  0  0  0  0  0  0
   63.2007   -5.8510  -15.1862 C   0  0  0  0  0  0  0  0  0  0  0  0
   63.5438   -4.5196  -15.8618 C   0  0  0  0  0  0  0  0  0  0  0  0
   64.3718   -3.8063  -14.9085 N   0  0  0  0  0  0  0  0  0  0  0  0
   65.6907   -4.3651  -14.6990 C   0  0  0  0  0  0  0  0  0  0  0  0
   65.7323   -5.8418  -15.0347 C   0  0  0  0  0  0  0  0  0  0  0  0
   64.4710   -6.4863  -14.8958 N   0  0  0  0  0  0  0  0  0  0  0  0
   63.9759   -2.6539  -14.1992 C   0  0  0  0  0  0  0  0  0  0  0  0
   62.6426   -2.4020  -14.0225 C   0  0  0  0  0  0  0  0  0  0  0  0
   62.2441   -1.2652  -13.3335 C   0  0  0  0  0  0  0  0  0  0  0  0
   63.1572   -0.3785  -12.8195 C   0  0  0  0  0  0  0  0  0  0  0  0
   62.7595    0.7355  -12.1442 F   0  0  0  0  0  0  0  0  0  0  0  0
   64.4949   -0.6680  -13.0187 C   0  0  0  0  0  0  0  0  0  0  0  0
   64.9407   -1.7782  -13.6928 C   0  0  0  0  0  0  0  0  0  0  0  0
   64.4408   -7.8281  -14.4277 C   0  0  0  0  0  0  0  0  0  0  0  0
   64.9240   -8.8089  -15.2651 C   0  0  0  0  0  0  0  0  0  0  0  0
   64.9229  -10.1141  -14.8390 C   0  0  0  0  0  0  0  0  0  0  0  0
   64.4461  -10.4608  -13.5865 C   0  0  0  0  0  0  0  0  0  0  0  0
   63.9678   -9.4531  -12.7700 C   0  0  0  0  0  0  0  0  0  0  0  0
   63.9525   -8.1342  -13.1605 C   0  0  0  0  0  0  0  0  0  0  0  0
   64.4636  -11.8448  -13.1797 C   0  0  0  0  0  0  0  0  0  0  0  0
   64.4661  -12.9507  -12.8489 N   0  0  0  0  0  0  0  0  0  0  0  0
  1  2  1  0  0  0
  2  3  1  0  0  0
  3  4  1  0  0  0
  4  5  1  0  0  0
  5  6  1  0  0  0
  6  7  1  0  0  0
  7 15  1  0  0  0
 15 16  2  0  0  0
 16 17  1  0  0  0
 17 18  2  0  0  0
 18 19  1  0  0  0
 19 20  2  0  0  0
 18 21  1  0  0  0
 21 22  3  0  0  0
  4  8  1  0  0  0
  8  9  2  0  0  0
  9 10  1  0  0  0
 10 11  2  0  0  0
 11 12  1  0  0  0
 11 13  1  0  0  0
 13 14  2  0  0  0
  7  2  1  0  0  0
 20 15  1  0  0  0
 14  8  1  0  0  0
M  END
> <minimizedAffinity>
-1.72570

> <CNNscore>
0.6921289563

> <CNNaffinity>
3.7674674988

> <CNN_VS>
2.6075732708

> <CNNaffinity_variance>
0.0038091405

$$$$
[H]c1c([H])c(N2C([H])([H])C([H])([H])N(c3c([H])c([H])c(C#N)c([H])c3[H])[C@]([H])(C([H])([H])[H])C2([H])[H])c([H])c([H])c1F


 22 24  0  0  0  0  0  0  0  0999 V2000
   56.9866   -5.1537  -11.2260 C   0  0  0  0  0  0  0  0  0  0  0  0
   58.3162   -5.2164  -11.9210 C   0  0  0  0  0  0  0  0  0  0  0  0
   59.4244   -5.1682  -10.8645 C   0  0  0  0  0  0  0  0  0  0  0  0
   60.6676   -5.2513  -11.6066 N   0  0  0  0  0  0  0  0  0  0  0  0
   60.9874   -4.0869  -12.4050 C   0  0  0  0  0  0  0  0  0  0  0  0
   59.7449   -3.3009  -12.7703 C   0  0  0  0  0  0  0  0  0  0  0  0
   58.5659   -4.0972  -12.8078 N   0  0  0  0  0  0  0  0  0  0  0  0
   61.5389   -6.3599  -11.5999 C   0  0  0  0  0  0  0  0  0  0  0  0
   61.5656   -7.1833  -10.5075 C   0  0  0  0  0  0  0  0  0  0  0  0
   62.4269   -8.2714  -10.4888 C   0  0  0  0  0  0  0  0  0  0  0  0
   63.2598   -8.5476  -11.5443 C   0  0  0  0  0  0  0  0  0  0  0  0
   64.1028   -9.6172  -11.5198 F   0  0  0  0  0  0  0  0  0  0  0  0
   63.2033   -7.6924  -12.6297 C   0  0  0  0  0  0  0  0  0  0  0  0
   62.3699   -6.6032  -12.6975 C   0  0  0  0  0  0  0  0  0  0  0  0
   57.5739   -3.7981  -13.7809 C   0  0  0  0  0  0  0  0  0  0  0  0
   56.3115   -3.4807  -13.3311 C   0  0  0  0  0  0  0  0  0  0  0  0
   55.3329   -3.1725  -14.2435 C   0  0  0  0  0  0  0  0  0  0  0  0
   55.5916   -3.1752  -15.6034 C   0  0  0  0  0  0  0  0  0  0  0  0
   56.8687   -3.4982  -16.0226 C   0  0  0  0  0  0  0  0  0  0  0  0
   57.8758   -3.8123  -15.1398 C   0  0  0  0  0  0  0  0  0  0  0  0
   54.5335   -2.8452  -16.5268 C   0  0  0  0  0  0  0  0  0  0  0  0
   53.6872   -2.5690  -17.2617 N   0  0  0  0  0  0  0  0  0  0  0  0
  1  2  1  0  0  0
  2  3  1  0  0  0
  3  4  1  0  0  0
  4  5  1  0  0  0
  5  6  1  0  0  0
  6  7  1  0  0  0
  7 15  1  0  0  0
 15 16  2  0  0  0
 16 17  1  0  0  0
 17 18  2  0  0  0
 18 19  1  0  0  0
 19 20  2  0  0  0
 18 21  1  0  0  0
 21 22  3  0  0  0
  4  8  1  0  0  0
  8  9  2  0  0  0
  9 10  1  0  0  0
 10 11  2  0  0  0
 11 12  1  0  0  0
 11 13  1  0  0  0
 13 14  2  0  0  0
  7  2  1  0  0  0
 20 15  1  0  0  0
 14  8  1  0  0  0
M  END
> <minimizedAffinity>
5.66560

> <CNNscore>
0.4850184619

> <CNNaffinity>
4.0924916267

> <CNN_VS>
1.9849339724

> <CNNaffinity_variance>
0.1418809444

$$$$
[H]c1c([H])c(N2C([H])([H])C([H])([H])N(c3c([H])c([H])c(C#N)c([H])c3[H])[C@]([H])(C([H])([H])[H])C2([H])[H])c([H])c([H])c1F


 22 24  0  0  0  0  0  0  0  0999 V2000
   64.0864   -8.5737   -6.7441 C   0  0  0  0  0  0  0  0  0  0  0  0
   62.8287   -9.2760   -6.3205 C   0  0  0  0  0  0  0  0  0  0  0  0
   62.8190   -9.3853   -4.7925 C   0  0  0  0  0  0  0  0  0  0  0  0
   61.5746  -10.0528   -4.4621 N   0  0  0  0  0  0  0  0  0  0  0  0
   61.5028  -11.4468   -4.8456 C   0  0  0  0  0  0  0  0  0  0  0  0
   62.4431  -11.7610   -5.9911 C   0  0  0  0  0  0  0  0  0  0  0  0
   62.7225  -10.6346   -6.8150 N   0  0  0  0  0  0  0  0  0  0  0  0
   60.4759   -9.4419   -3.8238 C   0  0  0  0  0  0  0  0  0  0  0  0
   60.0562   -8.2102   -4.2469 C   0  0  0  0  0  0  0  0  0  0  0  0
   58.9813   -7.5977   -3.6181 C   0  0  0  0  0  0  0  0  0  0  0  0
   58.3212   -8.1975   -2.5748 C   0  0  0  0  0  0  0  0  0  0  0  0
   57.2669   -7.5910   -1.9617 F   0  0  0  0  0  0  0  0  0  0  0  0
   58.7751   -9.4418   -2.1764 C   0  0  0  0  0  0  0  0  0  0  0  0
   59.8331  -10.0898   -2.7648 C   0  0  0  0  0  0  0  0  0  0  0  0
   62.8920  -10.8388   -8.2114 C   0  0  0  0  0  0  0  0  0  0  0  0
   63.8932  -11.6935   -8.6163 C   0  0  0  0  0  0  0  0  0  0  0  0
   64.0753  -11.9246   -9.9574 C   0  0  0  0  0  0  0  0  0  0  0  0
   63.2732  -11.3156  -10.9070 C   0  0  0  0  0  0  0  0  0  0  0  0
   62.2774  -10.4630  -10.4683 C   0  0  0  0  0  0  0  0  0  0  0  0
   62.0633  -10.2063   -9.1340 C   0  0  0  0  0  0  0  0  0  0  0  0
   63.5000  -11.5869  -12.3057 C   0  0  0  0  0  0  0  0  0  0  0  0
   63.6911  -11.7957  -13.4248 N   0  0  0  0  0  0  0  0  0  0  0  0
  1  2  1  0  0  0
  2  3  1  0  0  0
  3  4  1  0  0  0
  4  5  1  0  0  0
  5  6  1  0  0  0
  6  7  1  0  0  0
  7 15  1  0  0  0
 15 16  2  0  0  0
 16 17  1  0  0  0
 17 18  2  0  0  0
 18 19  1  0  0  0
 19 20  2  0  0  0
 18 21  1  0  0  0
 21 22  3  0  0  0
  4  8  1  0  0  0
  8  9  2  0  0  0
  9 10  1  0  0  0
 10 11  2  0  0  0
 11 12  1  0  0  0
 11 13  1  0  0  0
 13 14  2  0  0  0
  7  2  1  0  0  0
 20 15  1  0  0  0
 14  8  1  0  0  0
M  END
> <minimizedAffinity>
-2.86441

> <CNNscore>
0.4821018875

> <CNNaffinity>
4.1754846573

> <CNN_VS>
2.0130090714

> <CNNaffinity_variance>
0.0972328037

$$$$
[H]c1c([H])c(N2C([H])([H])C([H])([H])N(c3c([H])c([H])c(C#N)c([H])c3[H])[C@]([H])(C([H])([H])[H])C2([H])[H])c([H])c([H])c1F


 22 24  0  0  0  0  0  0  0  0999 V2000
   54.8722   -2.2809   -8.7331 C   0  0  0  0  0  0  0  0  0  0  0  0
   54.5184   -3.7297   -8.5581 C   0  0  0  0  0  0  0  0  0  0  0  0
   53.8115   -3.9024   -7.2100 C   0  0  0  0  0  0  0  0  0  0  0  0
   53.4875   -5.3133   -7.1232 N   0  0  0  0  0  0  0  0  0  0  0  0
   54.6226   -6.1971   -6.9624 C   0  0  0  0  0  0  0  0  0  0  0  0
   55.8968   -5.5735   -7.4940 C   0  0  0  0  0  0  0  0  0  0  0  0
   55.6681   -4.6118   -8.5178 N   0  0  0  0  0  0  0  0  0  0  0  0
   52.1847   -5.8479   -7.1929 C   0  0  0  0  0  0  0  0  0  0  0  0
   51.9822   -7.0343   -7.8437 C   0  0  0  0  0  0  0  0  0  0  0  0
   50.7015   -7.5630   -7.9249 C   0  0  0  0  0  0  0  0  0  0  0  0
   49.6229   -6.9241   -7.3660 C   0  0  0  0  0  0  0  0  0  0  0  0
   48.3684   -7.4482   -7.4492 F   0  0  0  0  0  0  0  0  0  0  0  0
   49.8683   -5.7277   -6.7168 C   0  0  0  0  0  0  0  0  0  0  0  0
   51.1152   -5.1627   -6.6089 C   0  0  0  0  0  0  0  0  0  0  0  0
   56.6073   -4.5130   -9.5802 C   0  0  0  0  0  0  0  0  0  0  0  0
   56.2412   -3.7884  -10.6927 C   0  0  0  0  0  0  0  0  0  0  0  0
   57.1299   -3.6607  -11.7315 C   0  0  0  0  0  0  0  0  0  0  0  0
   58.3835   -4.2456  -11.6808 C   0  0  0  0  0  0  0  0  0  0  0  0
   58.7205   -4.9664  -10.5503 C   0  0  0  0  0  0  0  0  0  0  0  0
   57.8583   -5.1168   -9.4891 C   0  0  0  0  0  0  0  0  0  0  0  0
   59.2857   -4.0859  -12.7951 C   0  0  0  0  0  0  0  0  0  0  0  0
   60.0063   -3.9705  -13.6895 N   0  0  0  0  0  0  0  0  0  0  0  0
  1  2  1  0  0  0
  2  3  1  0  0  0
  3  4  1  0  0  0
  4  5  1  0  0  0
  5  6  1  0  0  0
  6  7  1  0  0  0
  7 15  1  0  0  0
 15 16  2  0  0  0
 16 17  1  0  0  0
 17 18  2  0  0  0
 18 19  1  0  0  0
 19 20  2  0  0  0
 18 21  1  0  0  0
 21 22  3  0  0  0
  4  8  1  0  0  0
  8  9  2  0  0  0
  9 10  1  0  0  0
 10 11  2  0  0  0
 11 12  1  0  0  0
 11 13  1  0  0  0
 13 14  2  0  0  0
  7  2  1  0  0  0
 20 15  1  0  0  0
 14  8  1  0  0  0
M  END
> <minimizedAffinity>
-5.35025

> <CNNscore>
0.4433594644

> <CNNaffinity>
5.8227238655

> <CNN_VS>
2.5815596581

> <CNNaffinity_variance>
0.4494736195

$$$$
[H]c1c([H])c(N2C([H])([H])C([H])([H])N(c3c([H])c([H])c(C#N)c([H])c3[H])[C@]([H])(C([H])([H])[H])C2([H])[H])c([H])c([H])c1F


 22 24  0  0  0  0  0  0  0  0999 V2000
   56.4272   -4.5519   -5.2778 C   0  0  0  0  0  0  0  0  0  0  0  0
   55.2840   -4.8815   -6.1937 C   0  0  0  0  0  0  0  0  0  0  0  0
   54.1047   -5.3733   -5.3486 C   0  0  0  0  0  0  0  0  0  0  0  0
   53.0421   -5.6516   -6.2956 N   0  0  0  0  0  0  0  0  0  0  0  0
   53.2679   -6.7929   -7.1569 C   0  0  0  0  0  0  0  0  0  0  0  0
   54.7447   -7.0930   -7.3120 C   0  0  0  0  0  0  0  0  0  0  0  0
   55.5735   -5.9505   -7.1292 N   0  0  0  0  0  0  0  0  0  0  0  0
   51.8570   -4.8983   -6.4230 C   0  0  0  0  0  0  0  0  0  0  0  0
   50.9626   -5.2194   -7.4074 C   0  0  0  0  0  0  0  0  0  0  0  0
   49.7981   -4.4773   -7.5457 C   0  0  0  0  0  0  0  0  0  0  0  0
   49.5153   -3.4213   -6.7157 C   0  0  0  0  0  0  0  0  0  0  0  0
   48.3705   -2.6968   -6.8566 F   0  0  0  0  0  0  0  0  0  0  0  0
   50.4437   -3.1282   -5.7332 C   0  0  0  0  0  0  0  0  0  0  0  0
   51.6100   -3.8307   -5.5549 C   0  0  0  0  0  0  0  0  0  0  0  0
   56.7495   -5.8301   -7.9183 C   0  0  0  0  0  0  0  0  0  0  0  0
   57.4585   -4.6524   -7.8346 C   0  0  0  0  0  0  0  0  0  0  0  0
   58.6073   -4.5079   -8.5726 C   0  0  0  0  0  0  0  0  0  0  0  0
   59.0641   -5.5217   -9.3970 C   0  0  0  0  0  0  0  0  0  0  0  0
   58.3298   -6.6913   -9.4589 C   0  0  0  0  0  0  0  0  0  0  0  0
   57.1745   -6.8743   -8.7351 C   0  0  0  0  0  0  0  0  0  0  0  0
   60.2761   -5.3270  -10.1548 C   0  0  0  0  0  0  0  0  0  0  0  0
   61.2455   -5.1587  -10.7586 N   0  0  0  0  0  0  0  0  0  0  0  0
  1  2  1  0  0  0
  2  3  1  0  0  0
  3  4  1  0  0  0
  4  5  1  0  0  0
  5  6  1  0  0  0
  6  7  1  0  0  0
  7 15  1  0  0  0
 15 16  2  0  0  0
 16 17  1  0  0  0
 17 18  2  0  0  0
 18 19  1  0  0  0
 19 20  2  0  0  0
 18 21  1  0  0  0
 21 22  3  0  0  0
  4  8  1  0  0  0
  8  9  2  0  0  0
  9 10  1  0  0  0
 10 11  2  0  0  0
 11 12  1  0  0  0
 11 13  1  0  0  0
 13 14  2  0  0  0
  7  2  1  0  0  0
 20 15  1  0  0  0
 14  8  1  0  0  0
M  END
> <minimizedAffinity>
9.49609

> <CNNscore>
0.4161535800

> <CNNaffinity>
5.3761491776

> <CNN_VS>
2.2373037338

> <CNNaffinity_variance>
0.8561469316

$$$$
[H]c1c([H])c(N2C([H])([H])C([H])([H])N(c3c([H])c([H])c(C#N)c([H])c3[H])[C@]([H])(C([H])([H])[H])C2([H])[H])c([H])c([H])c1F


 22 24  0  0  0  0  0  0  0  0999 V2000
   59.5868   -8.7369   -9.8643 C   0  0  0  0  0  0  0  0  0  0  0  0
   60.5873   -7.7177  -10.3279 C   0  0  0  0  0  0  0  0  0  0  0  0
   61.9917   -8.3159  -10.2001 C   0  0  0  0  0  0  0  0  0  0  0  0
   62.8937   -7.2868  -10.6805 N   0  0  0  0  0  0  0  0  0  0  0  0
   63.0051   -6.1200   -9.8311 C   0  0  0  0  0  0  0  0  0  0  0  0
   61.7752   -5.9389   -8.9653 C   0  0  0  0  0  0  0  0  0  0  0  0
   60.5994   -6.5060   -9.5322 N   0  0  0  0  0  0  0  0  0  0  0  0
   63.6287   -7.3546  -11.8818 C   0  0  0  0  0  0  0  0  0  0  0  0
   63.0067   -7.7806  -13.0237 C   0  0  0  0  0  0  0  0  0  0  0  0
   63.7252   -7.8590  -14.2085 C   0  0  0  0  0  0  0  0  0  0  0  0
   65.0535   -7.5183  -14.2680 C   0  0  0  0  0  0  0  0  0  0  0  0
   65.7531   -7.5975  -15.4340 F   0  0  0  0  0  0  0  0  0  0  0  0
   65.6462   -7.0925  -13.0932 C   0  0  0  0  0  0  0  0  0  0  0  0
   64.9802   -6.9974  -11.8961 C   0  0  0  0  0  0  0  0  0  0  0  0
   59.3584   -5.8437   -9.3279 C   0  0  0  0  0  0  0  0  0  0  0  0
   58.8522   -5.8138   -8.0474 C   0  0  0  0  0  0  0  0  0  0  0  0
   57.6625   -5.1700   -7.8121 C   0  0  0  0  0  0  0  0  0  0  0  0
   56.9647   -4.5525   -8.8358 C   0  0  0  0  0  0  0  0  0  0  0  0
   57.4994   -4.6005  -10.1097 C   0  0  0  0  0  0  0  0  0  0  0  0
   58.6882   -5.2351  -10.3855 C   0  0  0  0  0  0  0  0  0  0  0  0
   55.7183   -3.8876   -8.5435 C   0  0  0  0  0  0  0  0  0  0  0  0
   54.7152   -3.3624   -8.3188 N   0  0  0  0  0  0  0  0  0  0  0  0
  1  2  1  0  0  0
  2  3  1  0  0  0
  3  4  1  0  0  0
  4  5  1  0  0  0
  5  6  1  0  0  0
  6  7  1  0  0  0
  7 15  1  0  0  0
 15 16  2  0  0  0
 16 17  1  0  0  0
 17 18  2  0  0  0
 18 19  1  0  0  0
 19 20  2  0  0  0
 18 21  1  0  0  0
 21 22  3  0  0  0
  4  8  1  0  0  0
  8  9  2  0  0  0
  9 10  1  0  0  0
 10 11  2  0  0  0
 11 12  1  0  0  0
 11 13  1  0  0  0
 13 14  2  0  0  0
  7  2  1  0  0  0
 20 15  1  0  0  0
 14  8  1  0  0  0
M  END
> <minimizedAffinity>
-0.06104

> <CNNscore>
0.4008926749

> <CNNaffinity>
4.1673870087

> <CNN_VS>
1.6706749201

> <CNNaffinity_variance>
0.1168942600

$$$$
[H]c1c([H])c(N2C([H])([H])C([H])([H])N(c3c([H])c([H])c(C#N)c([H])c3[H])[C@]([H])(C([H])([H])[H])C2([H])[H])c([H])c([H])c1F


 22 24  0  0  0  0  0  0  0  0999 V2000
   64.7015   -8.2614   -6.8433 C   0  0  0  0  0  0  0  0  0  0  0  0
   63.4415   -9.0762   -6.7895 C   0  0  0  0  0  0  0  0  0  0  0  0
   63.6825  -10.2930   -5.8906 C   0  0  0  0  0  0  0  0  0  0  0  0
   62.4246  -11.0146   -5.8739 N   0  0  0  0  0  0  0  0  0  0  0  0
   62.0640  -11.6525   -7.1223 C   0  0  0  0  0  0  0  0  0  0  0  0
   62.7260  -10.9785   -8.3066 C   0  0  0  0  0  0  0  0  0  0  0  0
   63.0337   -9.6084   -8.0748 N   0  0  0  0  0  0  0  0  0  0  0  0
   61.5674  -11.1164   -4.7591 C   0  0  0  0  0  0  0  0  0  0  0  0
   61.2175   -9.9823   -4.0783 C   0  0  0  0  0  0  0  0  0  0  0  0
   60.3815  -10.0746   -2.9744 C   0  0  0  0  0  0  0  0  0  0  0  0
   59.8912  -11.2816   -2.5424 C   0  0  0  0  0  0  0  0  0  0  0  0
   59.0711  -11.3655   -1.4581 F   0  0  0  0  0  0  0  0  0  0  0  0
   60.2675  -12.4046   -3.2567 C   0  0  0  0  0  0  0  0  0  0  0  0
   61.0915  -12.3671   -4.3545 C   0  0  0  0  0  0  0  0  0  0  0  0
   62.9206   -8.6935   -9.1568 C   0  0  0  0  0  0  0  0  0  0  0  0
   63.6465   -8.9580  -10.2969 C   0  0  0  0  0  0  0  0  0  0  0  0
   63.5496   -8.1026  -11.3665 C   0  0  0  0  0  0  0  0  0  0  0  0
   62.7379   -6.9823  -11.3194 C   0  0  0  0  0  0  0  0  0  0  0  0
   62.0224   -6.7448  -10.1607 C   0  0  0  0  0  0  0  0  0  0  0  0
   62.0925   -7.5780   -9.0685 C   0  0  0  0  0  0  0  0  0  0  0  0
   62.6662   -6.1104  -12.4666 C   0  0  0  0  0  0  0  0  0  0  0  0
   62.6199   -5.4072  -13.3809 N   0  0  0  0  0  0  0  0  0  0  0  0
  1  2  1  0  0  0
  2  3  1  0  0  0
  3  4  1  0  0  0
  4  5  1  0  0  0
  5  6  1  0  0  0
  6  7  1  0  0  0
  7 15  1  0  0  0
 15 16  2  0  0  0
 16 17  1  0  0  0
 17 18  2  0  0  0
 18 19  1  0  0  0
 19 20  2  0  0  0
 18 21  1  0  0  0
 21 22  3  0  0  0
  4  8  1  0  0  0
  8  9  2  0  0  0
  9 10  1  0  0  0
 10 11  2  0  0  0
 11 12  1  0  0  0
 11 13  1  0  0  0
 13 14  2  0  0  0
  7  2  1  0  0  0
 20 15  1  0  0  0
 14  8  1  0  0  0
M  END
> <minimizedAffinity>
-2.94264

> <CNNscore>
0.3791403174

> <CNNaffinity>
3.9559528828

> <CNN_VS>
1.4998612404

> <CNNaffinity_variance>
0.0590481050

$$$$
[H]c1c([H])c(N2C([H])([H])C([H])([H])N(c3c([H])c([H])c(C#N)c([H])c3[H])[C@]([H])(C([H])([H])[H])C2([H])[H])c([H])c([H])c1F


 22 24  0  0  0  0  0  0  0  0999 V2000
   53.2191   -5.5380  -10.8755 C   0  0  0  0  0  0  0  0  0  0  0  0
   53.5870   -5.0852   -9.4919 C   0  0  0  0  0  0  0  0  0  0  0  0
   52.3135   -4.6377   -8.7677 C   0  0  0  0  0  0  0  0  0  0  0  0
   52.7451   -4.2357   -7.4428 N   0  0  0  0  0  0  0  0  0  0  0  0
   53.5381   -3.0256   -7.3941 C   0  0  0  0  0  0  0  0  0  0  0  0
   54.2359   -2.7608   -8.7124 C   0  0  0  0  0  0  0  0  0  0  0  0
   54.4782   -3.9421   -9.4683 N   0  0  0  0  0  0  0  0  0  0  0  0
   52.4546   -4.9341   -6.2529 C   0  0  0  0  0  0  0  0  0  0  0  0
   51.2010   -4.8423   -5.7122 C   0  0  0  0  0  0  0  0  0  0  0  0
   50.9093   -5.5191   -4.5363 C   0  0  0  0  0  0  0  0  0  0  0  0
   51.8505   -6.2848   -3.8946 C   0  0  0  0  0  0  0  0  0  0  0  0
   51.5579   -6.9467   -2.7407 F   0  0  0  0  0  0  0  0  0  0  0  0
   53.1054   -6.3526   -4.4722 C   0  0  0  0  0  0  0  0  0  0  0  0
   53.4445   -5.7025   -5.6333 C   0  0  0  0  0  0  0  0  0  0  0  0
   55.6713   -4.0254  -10.2363 C   0  0  0  0  0  0  0  0  0  0  0  0
   56.7364   -4.7080   -9.6919 C   0  0  0  0  0  0  0  0  0  0  0  0
   57.8996   -4.8200  -10.4128 C   0  0  0  0  0  0  0  0  0  0  0  0
   58.0206   -4.2605  -11.6732 C   0  0  0  0  0  0  0  0  0  0  0  0
   56.9335   -3.5817  -12.1914 C   0  0  0  0  0  0  0  0  0  0  0  0
   55.7516   -3.4482  -11.5006 C   0  0  0  0  0  0  0  0  0  0  0  0
   59.2614   -4.4024  -12.3954 C   0  0  0  0  0  0  0  0  0  0  0  0
   60.2511   -4.5057  -12.9804 N   0  0  0  0  0  0  0  0  0  0  0  0
  1  2  1  0  0  0
  2  3  1  0  0  0
  3  4  1  0  0  0
  4  5  1  0  0  0
  5  6  1  0  0  0
  6  7  1  0  0  0
  7 15  1  0  0  0
 15 16  2  0  0  0
 16 17  1  0  0  0
 17 18  2  0  0  0
 18 19  1  0  0  0
 19 20  2  0  0  0
 18 21  1  0  0  0
 21 22  3  0  0  0
  4  8  1  0  0  0
  8  9  2  0  0  0
  9 10  1  0  0  0
 10 11  2  0  0  0
 11 12  1  0  0  0
 11 13  1  0  0  0
 13 14  2  0  0  0
  7  2  1  0  0  0
 20 15  1  0  0  0
 14  8  1  0  0  0
M  END
> <minimizedAffinity>
-0.48240

> <CNNscore>
0.3679560721

> <CNNaffinity>
5.5514822006

> <CNN_VS>
2.0427014828

> <CNNaffinity_variance>
0.5028777719

$$$$
[H]c1c([H])c(N2C([H])([H])C([H])([H])N(c3c([H])c([H])c(C#N)c([H])c3[H])[C@]([H])(C([H])([H])[H])C2([H])[H])c([H])c([H])c1F


 22 24  0  0  0  0  0  0  0  0999 V2000
   61.4370   -7.8259   -9.2822 C   0  0  0  0  0  0  0  0  0  0  0  0
   61.6873   -8.7917   -8.1601 C   0  0  0  0  0  0  0  0  0  0  0  0
   61.9485   -7.9960   -6.8774 C   0  0  0  0  0  0  0  0  0  0  0  0
   62.1612   -8.9908   -5.8438 N   0  0  0  0  0  0  0  0  0  0  0  0
   63.3891   -9.7484   -5.9614 C   0  0  0  0  0  0  0  0  0  0  0  0
   63.8928   -9.7789   -7.3899 C   0  0  0  0  0  0  0  0  0  0  0  0
   62.8582   -9.6239   -8.3549 N   0  0  0  0  0  0  0  0  0  0  0  0
   61.2715   -9.2546   -4.7823 C   0  0  0  0  0  0  0  0  0  0  0  0
   61.2237  -10.5125   -4.2461 C   0  0  0  0  0  0  0  0  0  0  0  0
   60.3442  -10.7831   -3.2072 C   0  0  0  0  0  0  0  0  0  0  0  0
   59.5138   -9.8163   -2.6976 C   0  0  0  0  0  0  0  0  0  0  0  0
   58.6528  -10.0882   -1.6778 F   0  0  0  0  0  0  0  0  0  0  0  0
   59.5918   -8.5577   -3.2658 C   0  0  0  0  0  0  0  0  0  0  0  0
   60.4439   -8.2390   -4.2944 C   0  0  0  0  0  0  0  0  0  0  0  0
   62.9589  -10.3369   -9.5804 C   0  0  0  0  0  0  0  0  0  0  0  0
   62.1575  -11.4450   -9.7437 C   0  0  0  0  0  0  0  0  0  0  0  0
   62.2190  -12.1487  -10.9210 C   0  0  0  0  0  0  0  0  0  0  0  0
   63.0697  -11.7657  -11.9437 C   0  0  0  0  0  0  0  0  0  0  0  0
   63.8612  -10.6492  -11.7485 C   0  0  0  0  0  0  0  0  0  0  0  0
   63.8281   -9.9180  -10.5839 C   0  0  0  0  0  0  0  0  0  0  0  0
   63.1021  -12.5345  -13.1640 C   0  0  0  0  0  0  0  0  0  0  0  0
   63.1180  -13.1565  -14.1363 N   0  0  0  0  0  0  0  0  0  0  0  0
  1  2  1  0  0  0
  2  3  1  0  0  0
  3  4  1  0  0  0
  4  5  1  0  0  0
  5  6  1  0  0  0
  6  7  1  0  0  0
  7 15  1  0  0  0
 15 16  2  0  0  0
 16 17  1  0  0  0
 17 18  2  0  0  0
 18 19  1  0  0  0
 19 20  2  0  0  0
 18 21  1  0  0  0
 21 22  3  0  0  0
  4  8  1  0  0  0
  8  9  2  0  0  0
  9 10  1  0  0  0
 10 11  2  0  0  0
 11 12  1  0  0  0
 11 13  1  0  0  0
 13 14  2  0  0  0
  7  2  1  0  0  0
 20 15  1  0  0  0
 14  8  1  0  0  0
M  END
> <minimizedAffinity>
-3.08660

> <CNNscore>
0.3658432961

> <CNNaffinity>
4.0892672539

> <CNN_VS>
1.4960310459

> <CNNaffinity_variance>
0.2228239328

$$$$
[H]Oc1c([H])c([H])c(C([H])([H])[C@@]([H])(C(=O)N([H])[H])N([H])C(=O)[C@@]([H])(N([H])[H])C([H])([H])C([H])([H])C([H])([H])N=C(N([H])[H])N([H])[H])c([H])c1[H]


 34 34  0  0  0  0  0  0  0  0999 V2000
   52.4319   -5.6796   -6.6620 C   0  0  0  0  0  0  0  0  0  0  0  0
   52.5896   -5.9554   -7.8773 O   0  0  0  0  0  0  0  0  0  0  0  0
   53.5604   -5.6386   -5.8196 N   0  0  0  0  0  0  0  0  0  0  0  0
   53.4240   -5.4084   -4.8163 H   0  0  0  0  0  0  0  0  0  0  0  0
   50.9512   -6.0146   -4.8649 N   0  0  0  0  0  0  0  0  0  0  0  0
   51.0457   -5.4082   -6.1898 C   0  0  0  0  0  0  0  0  0  0  0  0
   50.0406   -6.4566   -4.6964 H   0  0  0  0  0  0  0  0  0  0  0  0
   51.3376   -5.4310   -4.1043 H   0  0  0  0  0  0  0  0  0  0  0  0
   50.8003   -3.9137   -6.0709 C   0  0  0  0  0  0  0  0  0  0  0  0
   49.7968   -3.5092   -7.1417 C   0  0  0  0  0  0  0  0  0  0  0  0
   50.1121   -2.1398   -7.6794 C   0  0  0  0  0  0  0  0  0  0  0  0
   51.4884   -1.9059   -7.9083 N   0  0  0  0  0  0  0  0  0  0  0  0
   52.2618   -2.4155   -8.7509 C   0  0  0  0  0  0  0  0  0  0  0  0
   51.9124   -3.3978   -9.7242 N   0  0  0  0  0  0  0  0  0  0  0  0
   53.6421   -1.9841   -8.7557 N   0  0  0  0  0  0  0  0  0  0  0  0
   51.2741   -3.1843  -10.5093 H   0  0  0  0  0  0  0  0  0  0  0  0
   52.3096   -4.3864   -9.6541 H   0  0  0  0  0  0  0  0  0  0  0  0
   54.2184   -2.0524   -7.9162 H   0  0  0  0  0  0  0  0  0  0  0  0
   54.0519   -1.5989   -9.6287 H   0  0  0  0  0  0  0  0  0  0  0  0
   54.8671   -5.9049   -6.3198 C   0  0  0  0  0  0  0  0  0  0  0  0
   55.6630   -6.7922   -5.4388 C   0  0  0  0  0  0  0  0  0  0  0  0
   55.2026   -8.0460   -4.9832 N   0  0  0  0  0  0  0  0  0  0  0  0
   56.8066   -6.4177   -5.0718 O   0  0  0  0  0  0  0  0  0  0  0  0
   54.3461   -8.4590   -5.3948 H   0  0  0  0  0  0  0  0  0  0  0  0
   55.6925   -8.5789   -4.2420 H   0  0  0  0  0  0  0  0  0  0  0  0
   55.6001   -4.6594   -6.7540 C   0  0  0  0  0  0  0  0  0  0  0  0
   56.3019   -4.7389   -8.0204 C   0  0  0  0  0  0  0  0  0  0  0  0
   55.7092   -4.3541   -9.1917 C   0  0  0  0  0  0  0  0  0  0  0  0
   56.3407   -4.4120  -10.4235 C   0  0  0  0  0  0  0  0  0  0  0  0
   57.6276   -4.8752  -10.5033 C   0  0  0  0  0  0  0  0  0  0  0  0
   58.2705   -4.9355  -11.7470 O   0  0  0  0  0  0  0  0  0  0  0  0
   58.2556   -5.2735   -9.3322 C   0  0  0  0  0  0  0  0  0  0  0  0
   57.5979   -5.2036   -8.1129 C   0  0  0  0  0  0  0  0  0  0  0  0
   58.7910   -4.0895  -12.0126 H   0  0  0  0  0  0  0  0  0  0  0  0
  5  6  1  0  0  0
  6  9  1  0  0  0
  9 10  1  0  0  0
 10 11  1  0  0  0
 11 12  1  0  0  0
 12 13  2  0  0  0
 13 14  1  0  0  0
 13 15  1  0  0  0
  6  1  1  0  0  0
  1  2  2  0  0  0
  1  3  1  0  0  0
  3 20  1  0  0  0
 20 26  1  0  0  0
 26 27  1  0  0  0
 27 28  2  0  0  0
 28 29  1  0  0  0
 29 30  2  0  0  0
 30 31  1  0  0  0
 30 32  1  0  0  0
 32 33  2  0  0  0
 20 21  1  0  0  0
 21 22  1  0  0  0
 21 23  2  0  0  0
 33 27  1  0  0  0
  5  7  1  0  0  0
  5  8  1  0  0  0
 14 16  1  0  0  0
 14 17  1  0  0  0
 15 18  1  0  0  0
 15 19  1  0  0  0
  3  4  1  0  0  0
 31 34  1  0  0  0
 22 24  1  0  0  0
 22 25  1  0  0  0
M  END
> <minimizedAffinity>
-7.05760

> <CNNscore>
0.4418647587

> <CNNaffinity>
6.0097579956

> <CNN_VS>
2.6555001736

> <CNNaffinity_variance>
0.0914153010

$$$$
[H]Oc1c([H])c([H])c(C([H])([H])[C@@]([H])(C(=O)N([H])[H])N([H])C(=O)[C@@]([H])(N([H])[H])C([H])([H])C([H])([H])C([H])([H])N=C(N([H])[H])N([H])[H])c([H])c1[H]


 34 34  0  0  0  0  0  0  0  0999 V2000
   54.3434   -6.0592   -3.8109 C   0  0  0  0  0  0  0  0  0  0  0  0
   54.5817   -4.9833   -3.2079 O   0  0  0  0  0  0  0  0  0  0  0  0
   53.0038   -6.4432   -4.0177 N   0  0  0  0  0  0  0  0  0  0  0  0
   52.8130   -7.3327   -4.5184 H   0  0  0  0  0  0  0  0  0  0  0  0
   54.9431   -8.0256   -4.9546 N   0  0  0  0  0  0  0  0  0  0  0  0
   55.5080   -6.8635   -4.2747 C   0  0  0  0  0  0  0  0  0  0  0  0
   55.4710   -8.8862   -4.7713 H   0  0  0  0  0  0  0  0  0  0  0  0
   54.6611   -7.8472   -5.9329 H   0  0  0  0  0  0  0  0  0  0  0  0
   56.3506   -6.0720   -5.2603 C   0  0  0  0  0  0  0  0  0  0  0  0
   55.5115   -5.8134   -6.5039 C   0  0  0  0  0  0  0  0  0  0  0  0
   55.8605   -4.4845   -7.1171 C   0  0  0  0  0  0  0  0  0  0  0  0
   55.9108   -4.4901   -8.5310 N   0  0  0  0  0  0  0  0  0  0  0  0
   55.4524   -3.6667   -9.3554 C   0  0  0  0  0  0  0  0  0  0  0  0
   54.7396   -2.4722   -9.0404 N   0  0  0  0  0  0  0  0  0  0  0  0
   55.6512   -3.9315  -10.7633 N   0  0  0  0  0  0  0  0  0  0  0  0
   55.1963   -1.6734   -8.5683 H   0  0  0  0  0  0  0  0  0  0  0  0
   53.7051   -2.3842   -9.2894 H   0  0  0  0  0  0  0  0  0  0  0  0
   55.3349   -4.8054  -11.1848 H   0  0  0  0  0  0  0  0  0  0  0  0
   56.1236   -3.2192  -11.3532 H   0  0  0  0  0  0  0  0  0  0  0  0
   51.9236   -5.6381   -3.5556 C   0  0  0  0  0  0  0  0  0  0  0  0
   51.5068   -5.9554   -2.1690 C   0  0  0  0  0  0  0  0  0  0  0  0
   52.2959   -5.6605   -1.0368 N   0  0  0  0  0  0  0  0  0  0  0  0
   50.3968   -6.5169   -1.9812 O   0  0  0  0  0  0  0  0  0  0  0  0
   53.1301   -5.0540   -1.1361 H   0  0  0  0  0  0  0  0  0  0  0  0
   52.0730   -6.0316   -0.0955 H   0  0  0  0  0  0  0  0  0  0  0  0
   50.7782   -5.5650   -4.5352 C   0  0  0  0  0  0  0  0  0  0  0  0
   50.9444   -4.6484   -5.6465 C   0  0  0  0  0  0  0  0  0  0  0  0
   51.9730   -4.7847   -6.5380 C   0  0  0  0  0  0  0  0  0  0  0  0
   52.1706   -3.9341   -7.6136 C   0  0  0  0  0  0  0  0  0  0  0  0
   51.3055   -2.8920   -7.8202 C   0  0  0  0  0  0  0  0  0  0  0  0
   51.5012   -2.0290   -8.9069 O   0  0  0  0  0  0  0  0  0  0  0  0
   50.2524   -2.7272   -6.9324 C   0  0  0  0  0  0  0  0  0  0  0  0
   50.0796   -3.5954   -5.8645 C   0  0  0  0  0  0  0  0  0  0  0  0
   51.0291   -2.3063   -9.7772 H   0  0  0  0  0  0  0  0  0  0  0  0
  5  6  1  0  0  0
  6  9  1  0  0  0
  9 10  1  0  0  0
 10 11  1  0  0  0
 11 12  1  0  0  0
 12 13  2  0  0  0
 13 14  1  0  0  0
 13 15  1  0  0  0
  6  1  1  0  0  0
  1  2  2  0  0  0
  1  3  1  0  0  0
  3 20  1  0  0  0
 20 26  1  0  0  0
 26 27  1  0  0  0
 27 28  2  0  0  0
 28 29  1  0  0  0
 29 30  2  0  0  0
 30 31  1  0  0  0
 30 32  1  0  0  0
 32 33  2  0  0  0
 20 21  1  0  0  0
 21 22  1  0  0  0
 21 23  2  0  0  0
 33 27  1  0  0  0
  5  7  1  0  0  0
  5  8  1  0  0  0
 14 16  1  0  0  0
 14 17  1  0  0  0
 15 18  1  0  0  0
 15 19  1  0  0  0
  3  4  1  0  0  0
 31 34  1  0  0  0
 22 24  1  0  0  0
 22 25  1  0  0  0
M  END
> <minimizedAffinity>
-8.13129

> <CNNscore>
0.3906928003

> <CNNaffinity>
6.2963590622

> <CNN_VS>
2.4599421024

> <CNNaffinity_variance>
0.2182488739

$$$$
[H]Oc1c([H])c([H])c(C([H])([H])[C@@]([H])(C(=O)N([H])[H])N([H])C(=O)[C@@]([H])(N([H])[H])C([H])([H])C([H])([H])C([H])([H])N=C(N([H])[H])N([H])[H])c([H])c1[H]


 34 34  0  0  0  0  0  0  0  0999 V2000
   52.5892   -5.2766   -6.5629 C   0  0  0  0  0  0  0  0  0  0  0  0
   52.4927   -5.8387   -7.6822 O   0  0  0  0  0  0  0  0  0  0  0  0
   53.8613   -5.1479   -5.9715 N   0  0  0  0  0  0  0  0  0  0  0  0
   53.9350   -4.6808   -5.0470 H   0  0  0  0  0  0  0  0  0  0  0  0
   50.4149   -4.5109   -7.0326 N   0  0  0  0  0  0  0  0  0  0  0  0
   51.3367   -4.7756   -5.9316 C   0  0  0  0  0  0  0  0  0  0  0  0
   49.8528   -3.6656   -6.8831 H   0  0  0  0  0  0  0  0  0  0  0  0
   49.9192   -5.3489   -7.3797 H   0  0  0  0  0  0  0  0  0  0  0  0
   50.7332   -5.8313   -5.0211 C   0  0  0  0  0  0  0  0  0  0  0  0
   51.0399   -5.4489   -3.5799 C   0  0  0  0  0  0  0  0  0  0  0  0
   52.0825   -6.3626   -2.9950 C   0  0  0  0  0  0  0  0  0  0  0  0
   53.4039   -5.8629   -3.0702 N   0  0  0  0  0  0  0  0  0  0  0  0
   54.0372   -5.1393   -2.2684 C   0  0  0  0  0  0  0  0  0  0  0  0
   53.5454   -4.6286   -1.0307 N   0  0  0  0  0  0  0  0  0  0  0  0
   55.3945   -4.7735   -2.6083 N   0  0  0  0  0  0  0  0  0  0  0  0
   53.3343   -5.2488   -0.2306 H   0  0  0  0  0  0  0  0  0  0  0  0
   53.3825   -3.5803   -0.9107 H   0  0  0  0  0  0  0  0  0  0  0  0
   55.6084   -4.3007   -3.4870 H   0  0  0  0  0  0  0  0  0  0  0  0
   56.1625   -4.9964   -1.9459 H   0  0  0  0  0  0  0  0  0  0  0  0
   55.0306   -5.6431   -6.6165 C   0  0  0  0  0  0  0  0  0  0  0  0
   55.6731   -6.7625   -5.8878 C   0  0  0  0  0  0  0  0  0  0  0  0
   56.9629   -6.6785   -5.3212 N   0  0  0  0  0  0  0  0  0  0  0  0
   55.0467   -7.8464   -5.7638 O   0  0  0  0  0  0  0  0  0  0  0  0
   57.4366   -5.7592   -5.2569 H   0  0  0  0  0  0  0  0  0  0  0  0
   57.4644   -7.5108   -4.9620 H   0  0  0  0  0  0  0  0  0  0  0  0
   55.9888   -4.5513   -7.0250 C   0  0  0  0  0  0  0  0  0  0  0  0
   56.5326   -4.6460   -8.3658 C   0  0  0  0  0  0  0  0  0  0  0  0
   55.8463   -4.1735   -9.4507 C   0  0  0  0  0  0  0  0  0  0  0  0
   56.3262   -4.2421  -10.7486 C   0  0  0  0  0  0  0  0  0  0  0  0
   57.5506   -4.8081  -10.9884 C   0  0  0  0  0  0  0  0  0  0  0  0
   58.0404   -4.8797  -12.2995 O   0  0  0  0  0  0  0  0  0  0  0  0
   58.2707   -5.2971   -9.9082 C   0  0  0  0  0  0  0  0  0  0  0  0
   57.7644   -5.2140   -8.6194 C   0  0  0  0  0  0  0  0  0  0  0  0
   58.5988   -4.0716  -12.6033 H   0  0  0  0  0  0  0  0  0  0  0  0
  5  6  1  0  0  0
  6  9  1  0  0  0
  9 10  1  0  0  0
 10 11  1  0  0  0
 11 12  1  0  0  0
 12 13  2  0  0  0
 13 14  1  0  0  0
 13 15  1  0  0  0
  6  1  1  0  0  0
  1  2  2  0  0  0
  1  3  1  0  0  0
  3 20  1  0  0  0
 20 26  1  0  0  0
 26 27  1  0  0  0
 27 28  2  0  0  0
 28 29  1  0  0  0
 29 30  2  0  0  0
 30 31  1  0  0  0
 30 32  1  0  0  0
 32 33  2  0  0  0
 20 21  1  0  0  0
 21 22  1  0  0  0
 21 23  2  0  0  0
 33 27  1  0  0  0
  5  7  1  0  0  0
  5  8  1  0  0  0
 14 16  1  0  0  0
 14 17  1  0  0  0
 15 18  1  0  0  0
 15 19  1  0  0  0
  3  4  1  0  0  0
 31 34  1  0  0  0
 22 24  1  0  0  0
 22 25  1  0  0  0
M  END
> <minimizedAffinity>
-7.91376

> <CNNscore>
0.3097016215

> <CNNaffinity>
5.4277501106

> <CNN_VS>
1.6809830666

> <CNNaffinity_variance>
0.2904173732

$$$$
[H]Oc1c([H])c([H])c(C([H])([H])[C@@]([H])(C(=O)N([H])[H])N([H])C(=O)[C@@]([H])(N([H])[H])C([H])([H])C([H])([H])C([H])([H])N=C(N([H])[H])N([H])[H])c([H])c1[H]


 34 34  0  0  0  0  0  0  0  0999 V2000
   52.9330   -4.1316   -7.8992 C   0  0  0  0  0  0  0  0  0  0  0  0
   52.5729   -5.2166   -8.4197 O   0  0  0  0  0  0  0  0  0  0  0  0
   54.2639   -3.9950   -7.4578 N   0  0  0  0  0  0  0  0  0  0  0  0
   54.5561   -3.0951   -7.0300 H   0  0  0  0  0  0  0  0  0  0  0  0
   51.9137   -2.3696   -9.0786 N   0  0  0  0  0  0  0  0  0  0  0  0
   51.9162   -3.0491   -7.7862 C   0  0  0  0  0  0  0  0  0  0  0  0
   51.8038   -1.3532   -8.9906 H   0  0  0  0  0  0  0  0  0  0  0  0
   51.3481   -2.8419   -9.8034 H   0  0  0  0  0  0  0  0  0  0  0  0
   50.5369   -3.6310   -7.5280 C   0  0  0  0  0  0  0  0  0  0  0  0
   50.3738   -3.8215   -6.0265 C   0  0  0  0  0  0  0  0  0  0  0  0
   50.3401   -5.2838   -5.6740 C   0  0  0  0  0  0  0  0  0  0  0  0
   51.3841   -5.7007   -4.8150 N   0  0  0  0  0  0  0  0  0  0  0  0
   51.4096   -5.7949   -3.5668 C   0  0  0  0  0  0  0  0  0  0  0  0
   50.3349   -5.4891   -2.6802 N   0  0  0  0  0  0  0  0  0  0  0  0
   52.6318   -6.2530   -2.9440 N   0  0  0  0  0  0  0  0  0  0  0  0
   49.4692   -6.0544   -2.6578 H   0  0  0  0  0  0  0  0  0  0  0  0
   50.4084   -4.6560   -2.0166 H   0  0  0  0  0  0  0  0  0  0  0  0
   53.5181   -5.7742   -3.1078 H   0  0  0  0  0  0  0  0  0  0  0  0
   52.6050   -7.0827   -2.3201 H   0  0  0  0  0  0  0  0  0  0  0  0
   55.1999   -5.0604   -7.5893 C   0  0  0  0  0  0  0  0  0  0  0  0
   55.1935   -5.9926   -6.4370 C   0  0  0  0  0  0  0  0  0  0  0  0
   54.0754   -6.7771   -6.0822 N   0  0  0  0  0  0  0  0  0  0  0  0
   56.2308   -6.0961   -5.7328 O   0  0  0  0  0  0  0  0  0  0  0  0
   53.2692   -6.8447   -6.7296 H   0  0  0  0  0  0  0  0  0  0  0  0
   54.0256   -7.2960   -5.1868 H   0  0  0  0  0  0  0  0  0  0  0  0
   56.5781   -4.5919   -7.9873 C   0  0  0  0  0  0  0  0  0  0  0  0
   56.8568   -4.5597   -9.4099 C   0  0  0  0  0  0  0  0  0  0  0  0
   55.9334   -4.1016  -10.3092 C   0  0  0  0  0  0  0  0  0  0  0  0
   56.1558   -4.0521  -11.6758 C   0  0  0  0  0  0  0  0  0  0  0  0
   57.3554   -4.4784  -12.1821 C   0  0  0  0  0  0  0  0  0  0  0  0
   57.5851   -4.4301  -13.5637 O   0  0  0  0  0  0  0  0  0  0  0  0
   58.3123   -4.9492  -11.2950 C   0  0  0  0  0  0  0  0  0  0  0  0
   58.0611   -4.9863   -9.9313 C   0  0  0  0  0  0  0  0  0  0  0  0
   57.9999   -3.5549  -13.9087 H   0  0  0  0  0  0  0  0  0  0  0  0
  5  6  1  0  0  0
  6  9  1  0  0  0
  9 10  1  0  0  0
 10 11  1  0  0  0
 11 12  1  0  0  0
 12 13  2  0  0  0
 13 14  1  0  0  0
 13 15  1  0  0  0
  6  1  1  0  0  0
  1  2  2  0  0  0
  1  3  1  0  0  0
  3 20  1  0  0  0
 20 26  1  0  0  0
 26 27  1  0  0  0
 27 28  2  0  0  0
 28 29  1  0  0  0
 29 30  2  0  0  0
 30 31  1  0  0  0
 30 32  1  0  0  0
 32 33  2  0  0  0
 20 21  1  0  0  0
 21 22  1  0  0  0
 21 23  2  0  0  0
 33 27  1  0  0  0
  5  7  1  0  0  0
  5  8  1  0  0  0
 14 16  1  0  0  0
 14 17  1  0  0  0
 15 18  1  0  0  0
 15 19  1  0  0  0
  3  4  1  0  0  0
 31 34  1  0  0  0
 22 24  1  0  0  0
 22 25  1  0  0  0
M  END
> <minimizedAffinity>
-7.36427

> <CNNscore>
0.2780169547

> <CNNaffinity>
5.8987116814

> <CNN_VS>
1.6399418116

> <CNNaffinity_variance>
0.0167493671

$$$$
[H]Oc1c([H])c([H])c(C([H])([H])[C@@]([H])(C(=O)N([H])[H])N([H])C(=O)[C@@]([H])(N([H])[H])C([H])([H])C([H])([H])C([H])([H])N=C(N([H])[H])N([H])[H])c([H])c1[H]


 34 34  0  0  0  0  0  0  0  0999 V2000
   53.0608   -5.9907   -3.9270 C   0  0  0  0  0  0  0  0  0  0  0  0
   53.9165   -5.4263   -3.2010 O   0  0  0  0  0  0  0  0  0  0  0  0
   53.4725   -6.5671   -5.1448 N   0  0  0  0  0  0  0  0  0  0  0  0
   52.7610   -7.0338   -5.7398 H   0  0  0  0  0  0  0  0  0  0  0  0
   51.6465   -5.2506   -2.1988 N   0  0  0  0  0  0  0  0  0  0  0  0
   51.6525   -6.0153   -3.4427 C   0  0  0  0  0  0  0  0  0  0  0  0
   51.0308   -5.6590   -1.4867 H   0  0  0  0  0  0  0  0  0  0  0  0
   51.5958   -4.2269   -2.3322 H   0  0  0  0  0  0  0  0  0  0  0  0
   50.7274   -5.3437   -4.4433 C   0  0  0  0  0  0  0  0  0  0  0  0
   49.9447   -4.2599   -3.7152 C   0  0  0  0  0  0  0  0  0  0  0  0
   48.8667   -3.6941   -4.5993 C   0  0  0  0  0  0  0  0  0  0  0  0
   49.3222   -2.7322   -5.5313 N   0  0  0  0  0  0  0  0  0  0  0  0
   49.6810   -2.8733   -6.7225 C   0  0  0  0  0  0  0  0  0  0  0  0
   49.7120   -4.0998   -7.4499 N   0  0  0  0  0  0  0  0  0  0  0  0
   50.1088   -1.6975   -7.4478 N   0  0  0  0  0  0  0  0  0  0  0  0
   48.8463   -4.6071   -7.7002 H   0  0  0  0  0  0  0  0  0  0  0  0
   50.6460   -4.5213   -7.7497 H   0  0  0  0  0  0  0  0  0  0  0  0
   50.8666   -1.1098   -7.0986 H   0  0  0  0  0  0  0  0  0  0  0  0
   49.6361   -1.4490   -8.3384 H   0  0  0  0  0  0  0  0  0  0  0  0
   54.8329   -6.5183   -5.5638 C   0  0  0  0  0  0  0  0  0  0  0  0
   55.7439   -7.2963   -4.6909 C   0  0  0  0  0  0  0  0  0  0  0  0
   55.2980   -8.3035   -3.8087 N   0  0  0  0  0  0  0  0  0  0  0  0
   56.9776   -7.0536   -4.7297 O   0  0  0  0  0  0  0  0  0  0  0  0
   54.3215   -8.6445   -3.8702 H   0  0  0  0  0  0  0  0  0  0  0  0
   55.9157   -8.7223   -3.0901 H   0  0  0  0  0  0  0  0  0  0  0  0
   55.3136   -5.1174   -5.8527 C   0  0  0  0  0  0  0  0  0  0  0  0
   55.4681   -4.7699   -7.2520 C   0  0  0  0  0  0  0  0  0  0  0  0
   54.4298   -4.2568   -7.9801 C   0  0  0  0  0  0  0  0  0  0  0  0
   54.5314   -3.9104   -9.3177 C   0  0  0  0  0  0  0  0  0  0  0  0
   55.7230   -4.0800   -9.9722 C   0  0  0  0  0  0  0  0  0  0  0  0
   55.8306   -3.7310  -11.3252 O   0  0  0  0  0  0  0  0  0  0  0  0
   56.7947   -4.5991   -9.2606 C   0  0  0  0  0  0  0  0  0  0  0  0
   56.6631   -4.9364   -7.9216 C   0  0  0  0  0  0  0  0  0  0  0  0
   56.1205   -2.7613  -11.5058 H   0  0  0  0  0  0  0  0  0  0  0  0
  5  6  1  0  0  0
  6  9  1  0  0  0
  9 10  1  0  0  0
 10 11  1  0  0  0
 11 12  1  0  0  0
 12 13  2  0  0  0
 13 14  1  0  0  0
 13 15  1  0  0  0
  6  1  1  0  0  0
  1  2  2  0  0  0
  1  3  1  0  0  0
  3 20  1  0  0  0
 20 26  1  0  0  0
 26 27  1  0  0  0
 27 28  2  0  0  0
 28 29  1  0  0  0
 29 30  2  0  0  0
 30 31  1  0  0  0
 30 32  1  0  0  0
 32 33  2  0  0  0
 20 21  1  0  0  0
 21 22  1  0  0  0
 21 23  2  0  0  0
 33 27  1  0  0  0
  5  7  1  0  0  0
  5  8  1  0  0  0
 14 16  1  0  0  0
 14 17  1  0  0  0
 15 18  1  0  0  0
 15 19  1  0  0  0
  3  4  1  0  0  0
 31 34  1  0  0  0
 22 24  1  0  0  0
 22 25  1  0  0  0
M  END
> <minimizedAffinity>
-7.31408

> <CNNscore>
0.2663742006

> <CNNaffinity>
5.9757614136

> <CNN_VS>
1.5917886496

> <CNNaffinity_variance>
0.0462604538

$$$$
[H]Oc1c([H])c([H])c(C([H])([H])[C@@]([H])(C(=O)N([H])[H])N([H])C(=O)[C@@]([H])(N([H])[H])C([H])([H])C([H])([H])C([H])([H])N=C(N([H])[H])N([H])[H])c([H])c1[H]


 34 34  0  0  0  0  0  0  0  0999 V2000
   52.1911   -5.4896   -7.0899 C   0  0  0  0  0  0  0  0  0  0  0  0
   52.3493   -6.5956   -7.6640 O   0  0  0  0  0  0  0  0  0  0  0  0
   53.3276   -4.7407   -6.7263 N   0  0  0  0  0  0  0  0  0  0  0  0
   53.1904   -3.8264   -6.2536 H   0  0  0  0  0  0  0  0  0  0  0  0
   50.3292   -5.8189   -5.6901 N   0  0  0  0  0  0  0  0  0  0  0  0
   50.7950   -5.0385   -6.8329 C   0  0  0  0  0  0  0  0  0  0  0  0
   49.3465   -6.1010   -5.7782 H   0  0  0  0  0  0  0  0  0  0  0  0
   50.6308   -5.4478   -4.7737 H   0  0  0  0  0  0  0  0  0  0  0  0
   50.7637   -3.5629   -6.4730 C   0  0  0  0  0  0  0  0  0  0  0  0
   49.3127   -3.1025   -6.4771 C   0  0  0  0  0  0  0  0  0  0  0  0
   48.9753   -2.3878   -5.1968 C   0  0  0  0  0  0  0  0  0  0  0  0
   47.8372   -2.8962   -4.5278 N   0  0  0  0  0  0  0  0  0  0  0  0
   47.7292   -3.8746   -3.7540 C   0  0  0  0  0  0  0  0  0  0  0  0
   48.7847   -4.7439   -3.3481 N   0  0  0  0  0  0  0  0  0  0  0  0
   46.4223   -4.1706   -3.2100 N   0  0  0  0  0  0  0  0  0  0  0  0
   49.5608   -4.4158   -2.7485 H   0  0  0  0  0  0  0  0  0  0  0  0
   48.7908   -5.7634   -3.6649 H   0  0  0  0  0  0  0  0  0  0  0  0
   45.6217   -4.3338   -3.8215 H   0  0  0  0  0  0  0  0  0  0  0  0
   46.2986   -4.2175   -2.1800 H   0  0  0  0  0  0  0  0  0  0  0  0
   54.6433   -5.2152   -6.9952 C   0  0  0  0  0  0  0  0  0  0  0  0
   55.1850   -6.0824   -5.9221 C   0  0  0  0  0  0  0  0  0  0  0  0
   54.8769   -7.4547   -5.8063 N   0  0  0  0  0  0  0  0  0  0  0  0
   55.9576   -5.5797   -5.0660 O   0  0  0  0  0  0  0  0  0  0  0  0
   54.3848   -7.9376   -6.5798 H   0  0  0  0  0  0  0  0  0  0  0  0
   55.1253   -8.0082   -4.9665 H   0  0  0  0  0  0  0  0  0  0  0  0
   55.5886   -4.1234   -7.4326 C   0  0  0  0  0  0  0  0  0  0  0  0
   56.2632   -4.3307   -8.6993 C   0  0  0  0  0  0  0  0  0  0  0  0
   55.7025   -3.9320   -9.8817 C   0  0  0  0  0  0  0  0  0  0  0  0
   56.3100   -4.1089  -11.1142 C   0  0  0  0  0  0  0  0  0  0  0  0
   57.5379   -4.7125  -11.1832 C   0  0  0  0  0  0  0  0  0  0  0  0
   58.1564   -4.8935  -12.4277 O   0  0  0  0  0  0  0  0  0  0  0  0
   58.1322   -5.1286  -10.0008 C   0  0  0  0  0  0  0  0  0  0  0  0
   57.4999   -4.9374   -8.7811 C   0  0  0  0  0  0  0  0  0  0  0  0
   58.7627   -4.1210  -12.7322 H   0  0  0  0  0  0  0  0  0  0  0  0
  5  6  1  0  0  0
  6  9  1  0  0  0
  9 10  1  0  0  0
 10 11  1  0  0  0
 11 12  1  0  0  0
 12 13  2  0  0  0
 13 14  1  0  0  0
 13 15  1  0  0  0
  6  1  1  0  0  0
  1  2  2  0  0  0
  1  3  1  0  0  0
  3 20  1  0  0  0
 20 26  1  0  0  0
 26 27  1  0  0  0
 27 28  2  0  0  0
 28 29  1  0  0  0
 29 30  2  0  0  0
 30 31  1  0  0  0
 30 32  1  0  0  0
 32 33  2  0  0  0
 20 21  1  0  0  0
 21 22  1  0  0  0
 21 23  2  0  0  0
 33 27  1  0  0  0
  5  7  1  0  0  0
  5  8  1  0  0  0
 14 16  1  0  0  0
 14 17  1  0  0  0
 15 18  1  0  0  0
 15 19  1  0  0  0
  3  4  1  0  0  0
 31 34  1  0  0  0
 22 24  1  0  0  0
 22 25  1  0  0  0
M  END
> <minimizedAffinity>
-7.79803

> <CNNscore>
0.2595556974

> <CNNaffinity>
5.5706624985

> <CNN_VS>
1.4458972216

> <CNNaffinity_variance>
0.2134700269

$$$$
[H]Oc1c([H])c([H])c(C([H])([H])[C@@]([H])(C(=O)N([H])[H])N([H])C(=O)[C@@]([H])(N([H])[H])C([H])([H])C([H])([H])C([H])([H])N=C(N([H])[H])N([H])[H])c([H])c1[H]


 34 34  0  0  0  0  0  0  0  0999 V2000
   54.4903   -6.4220   -4.1915 C   0  0  0  0  0  0  0  0  0  0  0  0
   54.7911   -5.2313   -4.4555 O   0  0  0  0  0  0  0  0  0  0  0  0
   53.1649   -6.7253   -3.8227 N   0  0  0  0  0  0  0  0  0  0  0  0
   52.9219   -7.7116   -3.6073 H   0  0  0  0  0  0  0  0  0  0  0  0
   56.4977   -6.9458   -5.3008 N   0  0  0  0  0  0  0  0  0  0  0  0
   55.5684   -7.4448   -4.2911 C   0  0  0  0  0  0  0  0  0  0  0  0
   56.8681   -7.6917   -5.9002 H   0  0  0  0  0  0  0  0  0  0  0  0
   57.1741   -6.2497   -4.9454 H   0  0  0  0  0  0  0  0  0  0  0  0
   56.3010   -7.5854   -2.9677 C   0  0  0  0  0  0  0  0  0  0  0  0
   57.4523   -6.5896   -2.9525 C   0  0  0  0  0  0  0  0  0  0  0  0
   58.7713   -7.2998   -2.8130 C   0  0  0  0  0  0  0  0  0  0  0  0
   59.4517   -7.5114   -4.0352 N   0  0  0  0  0  0  0  0  0  0  0  0
   60.2893   -8.3878   -4.3483 C   0  0  0  0  0  0  0  0  0  0  0  0
   60.7722   -9.4279   -3.5003 N   0  0  0  0  0  0  0  0  0  0  0  0
   60.8320   -8.3618   -5.6886 N   0  0  0  0  0  0  0  0  0  0  0  0
   60.1599  -10.1961   -3.1772 H   0  0  0  0  0  0  0  0  0  0  0  0
   61.7903   -9.4276   -3.1787 H   0  0  0  0  0  0  0  0  0  0  0  0
   61.2959   -7.5292   -6.0532 H   0  0  0  0  0  0  0  0  0  0  0  0
   60.7475   -9.2055   -6.2882 H   0  0  0  0  0  0  0  0  0  0  0  0
   52.1686   -5.7106   -3.7428 C   0  0  0  0  0  0  0  0  0  0  0  0
   51.5748   -5.5765   -2.3914 C   0  0  0  0  0  0  0  0  0  0  0  0
   52.2248   -4.9252   -1.3214 N   0  0  0  0  0  0  0  0  0  0  0  0
   50.4358   -6.0654   -2.1764 O   0  0  0  0  0  0  0  0  0  0  0  0
   53.0805   -4.3696   -1.5021 H   0  0  0  0  0  0  0  0  0  0  0  0
   51.8772   -4.9809   -0.3470 H   0  0  0  0  0  0  0  0  0  0  0  0
   51.1486   -5.7938   -4.8518 C   0  0  0  0  0  0  0  0  0  0  0  0
   51.2540   -4.7917   -5.8944 C   0  0  0  0  0  0  0  0  0  0  0  0
   52.2833   -4.8030   -6.7955 C   0  0  0  0  0  0  0  0  0  0  0  0
   52.4242   -3.8672   -7.8075 C   0  0  0  0  0  0  0  0  0  0  0  0
   51.4985   -2.8656   -7.9367 C   0  0  0  0  0  0  0  0  0  0  0  0
   51.6366   -1.9168   -8.9588 O   0  0  0  0  0  0  0  0  0  0  0  0
   50.4430   -2.8270   -7.0372 C   0  0  0  0  0  0  0  0  0  0  0  0
   50.3279   -3.7783   -6.0343 C   0  0  0  0  0  0  0  0  0  0  0  0
   51.1762   -2.1581   -9.8458 H   0  0  0  0  0  0  0  0  0  0  0  0
  5  6  1  0  0  0
  6  9  1  0  0  0
  9 10  1  0  0  0
 10 11  1  0  0  0
 11 12  1  0  0  0
 12 13  2  0  0  0
 13 14  1  0  0  0
 13 15  1  0  0  0
  6  1  1  0  0  0
  1  2  2  0  0  0
  1  3  1  0  0  0
  3 20  1  0  0  0
 20 26  1  0  0  0
 26 27  1  0  0  0
 27 28  2  0  0  0
 28 29  1  0  0  0
 29 30  2  0  0  0
 30 31  1  0  0  0
 30 32  1  0  0  0
 32 33  2  0  0  0
 20 21  1  0  0  0
 21 22  1  0  0  0
 21 23  2  0  0  0
 33 27  1  0  0  0
  5  7  1  0  0  0
  5  8  1  0  0  0
 14 16  1  0  0  0
 14 17  1  0  0  0
 15 18  1  0  0  0
 15 19  1  0  0  0
  3  4  1  0  0  0
 31 34  1  0  0  0
 22 24  1  0  0  0
 22 25  1  0  0  0
M  END
> <minimizedAffinity>
-7.43276

> <CNNscore>
0.2374642789

> <CNNaffinity>
5.3105707169

> <CNN_VS>
1.2610708475

> <CNNaffinity_variance>
0.1492231488

$$$$
[H]Oc1c([H])c([H])c(C([H])([H])[C@@]([H])(C(=O)N([H])[H])N([H])C(=O)[C@@]([H])(N([H])[H])C([H])([H])C([H])([H])C([H])([H])N=C(N([H])[H])N([H])[H])c([H])c1[H]


 34 34  0  0  0  0  0  0  0  0999 V2000
   56.5876   -4.7618   -7.5203 C   0  0  0  0  0  0  0  0  0  0  0  0
   56.2554   -3.6893   -6.9571 O   0  0  0  0  0  0  0  0  0  0  0  0
   55.8244   -5.9220   -7.2831 N   0  0  0  0  0  0  0  0  0  0  0  0
   56.1029   -6.8052   -7.7529 H   0  0  0  0  0  0  0  0  0  0  0  0
   58.6807   -5.7630   -7.9088 N   0  0  0  0  0  0  0  0  0  0  0  0
   57.7786   -4.7321   -8.4142 C   0  0  0  0  0  0  0  0  0  0  0  0
   59.6666   -5.4819   -7.9530 H   0  0  0  0  0  0  0  0  0  0  0  0
   58.4505   -6.7192   -8.2270 H   0  0  0  0  0  0  0  0  0  0  0  0
   57.3880   -5.0704   -9.8428 C   0  0  0  0  0  0  0  0  0  0  0  0
   56.5713   -3.9129  -10.4000 C   0  0  0  0  0  0  0  0  0  0  0  0
   57.1420   -3.4374  -11.7084 C   0  0  0  0  0  0  0  0  0  0  0  0
   56.5080   -3.9778  -12.8518 N   0  0  0  0  0  0  0  0  0  0  0  0
   56.8316   -3.9086  -14.0594 C   0  0  0  0  0  0  0  0  0  0  0  0
   57.9742   -3.2354  -14.5845 N   0  0  0  0  0  0  0  0  0  0  0  0
   55.9825   -4.5634  -15.0298 N   0  0  0  0  0  0  0  0  0  0  0  0
   58.9359   -3.5647  -14.3946 H   0  0  0  0  0  0  0  0  0  0  0  0
   57.8515   -2.3646  -15.1900 H   0  0  0  0  0  0  0  0  0  0  0  0
   54.9887   -4.3410  -15.0954 H   0  0  0  0  0  0  0  0  0  0  0  0
   56.3928   -5.2711  -15.6695 H   0  0  0  0  0  0  0  0  0  0  0  0
   54.6920   -5.8989   -6.4196 C   0  0  0  0  0  0  0  0  0  0  0  0
   54.8340   -6.7875   -5.2419 C   0  0  0  0  0  0  0  0  0  0  0  0
   54.5134   -6.3875   -3.9271 N   0  0  0  0  0  0  0  0  0  0  0  0
   55.2623   -7.9582   -5.4116 O   0  0  0  0  0  0  0  0  0  0  0  0
   54.0048   -5.4984   -3.7704 H   0  0  0  0  0  0  0  0  0  0  0  0
   54.7700   -6.9541   -3.0986 H   0  0  0  0  0  0  0  0  0  0  0  0
   53.3841   -6.0635   -7.1539 C   0  0  0  0  0  0  0  0  0  0  0  0
   52.5798   -4.8664   -7.3045 C   0  0  0  0  0  0  0  0  0  0  0  0
   52.8623   -3.9312   -8.2621 C   0  0  0  0  0  0  0  0  0  0  0  0
   52.1221   -2.7740   -8.4428 C   0  0  0  0  0  0  0  0  0  0  0  0
   51.0445   -2.5266   -7.6339 C   0  0  0  0  0  0  0  0  0  0  0  0
   50.2927   -1.3575   -7.8129 O   0  0  0  0  0  0  0  0  0  0  0  0
   50.7330   -3.4564   -6.6526 C   0  0  0  0  0  0  0  0  0  0  0  0
   51.4924   -4.6066   -6.4958 C   0  0  0  0  0  0  0  0  0  0  0  0
   49.5045   -1.4394   -8.4680 H   0  0  0  0  0  0  0  0  0  0  0  0
  5  6  1  0  0  0
  6  9  1  0  0  0
  9 10  1  0  0  0
 10 11  1  0  0  0
 11 12  1  0  0  0
 12 13  2  0  0  0
 13 14  1  0  0  0
 13 15  1  0  0  0
  6  1  1  0  0  0
  1  2  2  0  0  0
  1  3  1  0  0  0
  3 20  1  0  0  0
 20 26  1  0  0  0
 26 27  1  0  0  0
 27 28  2  0  0  0
 28 29  1  0  0  0
 29 30  2  0  0  0
 30 31  1  0  0  0
 30 32  1  0  0  0
 32 33  2  0  0  0
 20 21  1  0  0  0
 21 22  1  0  0  0
 21 23  2  0  0  0
 33 27  1  0  0  0
  5  7  1  0  0  0
  5  8  1  0  0  0
 14 16  1  0  0  0
 14 17  1  0  0  0
 15 18  1  0  0  0
 15 19  1  0  0  0
  3  4  1  0  0  0
 31 34  1  0  0  0
 22 24  1  0  0  0
 22 25  1  0  0  0
M  END
> <minimizedAffinity>
-8.28761

> <CNNscore>
0.2307289541

> <CNNaffinity>
5.4957647324

> <CNN_VS>
1.2680320740

> <CNNaffinity_variance>
0.1884836555

$$$$
[H]Oc1c([H])c([H])c(C([H])([H])[C@@]([H])(C(=O)N([H])[H])N([H])C(=O)[C@@]([H])(N([H])[H])C([H])([H])C([H])([H])C([H])([H])N=C(N([H])[H])N([H])[H])c([H])c1[H]


 34 34  0  0  0  0  0  0  0  0999 V2000
   55.9156   -4.5609   -7.1311 C   0  0  0  0  0  0  0  0  0  0  0  0
   56.0612   -3.8932   -6.0771 O   0  0  0  0  0  0  0  0  0  0  0  0
   54.7892   -5.3972   -7.2591 N   0  0  0  0  0  0  0  0  0  0  0  0
   54.6733   -5.9453   -8.1333 H   0  0  0  0  0  0  0  0  0  0  0  0
   57.9076   -5.5009   -7.9575 N   0  0  0  0  0  0  0  0  0  0  0  0
   56.9554   -4.4182   -8.1879 C   0  0  0  0  0  0  0  0  0  0  0  0
   58.8794   -5.2137   -8.1188 H   0  0  0  0  0  0  0  0  0  0  0  0
   57.6157   -6.4113   -8.3504 H   0  0  0  0  0  0  0  0  0  0  0  0
   56.3445   -4.5794   -9.5695 C   0  0  0  0  0  0  0  0  0  0  0  0
   57.4765   -4.6648  -10.5837 C   0  0  0  0  0  0  0  0  0  0  0  0
   57.2650   -3.6834  -11.7044 C   0  0  0  0  0  0  0  0  0  0  0  0
   56.5992   -4.2200  -12.8314 N   0  0  0  0  0  0  0  0  0  0  0  0
   56.8122   -4.0411  -14.0522 C   0  0  0  0  0  0  0  0  0  0  0  0
   57.8291   -3.2137  -14.6140 N   0  0  0  0  0  0  0  0  0  0  0  0
   55.9598   -4.7258  -14.9988 N   0  0  0  0  0  0  0  0  0  0  0  0
   58.8329   -3.4447  -14.5212 H   0  0  0  0  0  0  0  0  0  0  0  0
   57.5647   -2.3265  -15.1460 H   0  0  0  0  0  0  0  0  0  0  0  0
   54.9460   -4.6120  -14.9732 H   0  0  0  0  0  0  0  0  0  0  0  0
   56.3884   -5.3427  -15.7159 H   0  0  0  0  0  0  0  0  0  0  0  0
   53.8211   -5.4985   -6.2193 C   0  0  0  0  0  0  0  0  0  0  0  0
   54.2268   -6.4150   -5.1273 C   0  0  0  0  0  0  0  0  0  0  0  0
   54.0165   -6.1319   -3.7608 N   0  0  0  0  0  0  0  0  0  0  0  0
   54.7887   -7.5012   -5.4223 O   0  0  0  0  0  0  0  0  0  0  0  0
   53.4130   -5.3348   -3.4885 H   0  0  0  0  0  0  0  0  0  0  0  0
   54.4479   -6.6960   -3.0065 H   0  0  0  0  0  0  0  0  0  0  0  0
   52.4236   -5.7430   -6.7332 C   0  0  0  0  0  0  0  0  0  0  0  0
   51.3816   -4.9007   -6.1789 C   0  0  0  0  0  0  0  0  0  0  0  0
   50.9365   -3.7871   -6.8373 C   0  0  0  0  0  0  0  0  0  0  0  0
   49.9441   -2.9541   -6.3468 C   0  0  0  0  0  0  0  0  0  0  0  0
   49.3592   -3.2358   -5.1403 C   0  0  0  0  0  0  0  0  0  0  0  0
   48.3548   -2.3962   -4.6400 O   0  0  0  0  0  0  0  0  0  0  0  0
   49.7897   -4.3583   -4.4482 C   0  0  0  0  0  0  0  0  0  0  0  0
   50.7853   -5.1743   -4.9650 C   0  0  0  0  0  0  0  0  0  0  0  0
   47.3965   -2.6472   -4.9152 H   0  0  0  0  0  0  0  0  0  0  0  0
  5  6  1  0  0  0
  6  9  1  0  0  0
  9 10  1  0  0  0
 10 11  1  0  0  0
 11 12  1  0  0  0
 12 13  2  0  0  0
 13 14  1  0  0  0
 13 15  1  0  0  0
  6  1  1  0  0  0
  1  2  2  0  0  0
  1  3  1  0  0  0
  3 20  1  0  0  0
 20 26  1  0  0  0
 26 27  1  0  0  0
 27 28  2  0  0  0
 28 29  1  0  0  0
 29 30  2  0  0  0
 30 31  1  0  0  0
 30 32  1  0  0  0
 32 33  2  0  0  0
 20 21  1  0  0  0
 21 22  1  0  0  0
 21 23  2  0  0  0
 33 27  1  0  0  0
  5  7  1  0  0  0
  5  8  1  0  0  0
 14 16  1  0  0  0
 14 17  1  0  0  0
 15 18  1  0  0  0
 15 19  1  0  0  0
  3  4  1  0  0  0
 31 34  1  0  0  0
 22 24  1  0  0  0
 22 25  1  0  0  0
M  END
> <minimizedAffinity>
-8.30947

> <CNNscore>
0.2095366120

> <CNNaffinity>
5.6645317078

> <CNN_VS>
1.1869268417

> <CNNaffinity_variance>
0.0690591708

$$$$
[H]c1nc(N([H])c2c([H])c([H])c(N3C([H])([H])C([H])([H])C([H])(N4C([H])([H])C([H])([H])N(C([H])([H])[H])C([H])([H])C4([H])[H])C([H])([H])C3([H])[H])c([H])c2OC([H])([H])[H])nc(N([H])c2c([H])c([H])c([H])c([H])c2S(=O)(=O)C([H])(C([H])([H])[H])C([H])([H])[H])c1Cl


 44 48  0  0  0  0  0  0  0  0999 V2000
   55.0020   -3.4106   -9.9583 N   0  0  0  0  0  0  0  0  0  0  0  0
   55.0092   -2.8479  -10.8827 H   0  0  0  0  0  0  0  0  0  0  0  0
   53.8207   -3.3136   -9.1762 C   0  0  0  0  0  0  0  0  0  0  0  0
   52.9464   -2.3043   -9.1894 N   0  0  0  0  0  0  0  0  0  0  0  0
   51.8480   -2.2774   -8.4242 C   0  0  0  0  0  0  0  0  0  0  0  0
   51.5798   -3.3244   -7.5739 C   0  0  0  0  0  0  0  0  0  0  0  0
   50.1400   -3.3066   -6.5603 Cl  0  0  0  0  0  0  0  0  0  0  0  0
   52.4877   -4.4030   -7.5410 C   0  0  0  0  0  0  0  0  0  0  0  0
   53.5533   -4.3364   -8.3417 N   0  0  0  0  0  0  0  0  0  0  0  0
   52.1897   -5.4593   -6.6665 N   0  0  0  0  0  0  0  0  0  0  0  0
   52.0630   -6.4101   -7.1469 H   0  0  0  0  0  0  0  0  0  0  0  0
   52.0275   -5.4979   -5.2734 C   0  0  0  0  0  0  0  0  0  0  0  0
   50.7983   -5.2200   -4.7140 C   0  0  0  0  0  0  0  0  0  0  0  0
   50.6204   -5.2525   -3.3248 C   0  0  0  0  0  0  0  0  0  0  0  0
   51.6817   -5.5635   -2.5288 C   0  0  0  0  0  0  0  0  0  0  0  0
   52.9076   -5.8407   -3.0902 C   0  0  0  0  0  0  0  0  0  0  0  0
   53.1096   -5.8162   -4.4454 C   0  0  0  0  0  0  0  0  0  0  0  0
   54.6429   -6.1652   -5.1292 S   0  0  0  0  0  0  0  0  0  0  0  0
   55.3487   -4.8818   -5.4884 O   0  0  0  0  0  0  0  0  0  0  0  0
   54.6000   -7.0267   -6.3602 O   0  0  0  0  0  0  0  0  0  0  0  0
   55.7240   -7.0072   -3.9888 C   0  0  0  0  0  0  0  0  0  0  0  0
   55.1904   -8.3614   -3.6511 C   0  0  0  0  0  0  0  0  0  0  0  0
   57.1605   -6.9669   -4.3913 C   0  0  0  0  0  0  0  0  0  0  0  0
   56.9437   -4.5494  -10.7979 C   0  0  0  0  0  0  0  0  0  0  0  0
   58.1093   -5.2735  -10.6270 C   0  0  0  0  0  0  0  0  0  0  0  0
   58.5674   -5.6287   -9.3778 C   0  0  0  0  0  0  0  0  0  0  0  0
   57.8020   -5.2233   -8.3116 C   0  0  0  0  0  0  0  0  0  0  0  0
   56.6189   -4.4907   -8.4490 C   0  0  0  0  0  0  0  0  0  0  0  0
   56.1673   -4.1397   -9.6964 C   0  0  0  0  0  0  0  0  0  0  0  0
   59.7788   -6.3716   -9.2167 N   0  0  0  0  0  0  0  0  0  0  0  0
   60.7010   -5.9530   -8.2173 C   0  0  0  0  0  0  0  0  0  0  0  0
   61.7672   -6.9456   -7.8477 C   0  0  0  0  0  0  0  0  0  0  0  0
   62.3767   -7.6572   -9.0084 C   0  0  0  0  0  0  0  0  0  0  0  0
   61.5584   -7.5289  -10.2777 C   0  0  0  0  0  0  0  0  0  0  0  0
   60.0869   -7.5181  -10.0374 C   0  0  0  0  0  0  0  0  0  0  0  0
   62.7384   -9.0064   -8.8281 N   0  0  0  0  0  0  0  0  0  0  0  0
   63.0808   -9.7853   -9.9441 C   0  0  0  0  0  0  0  0  0  0  0  0
   63.0538  -11.2681   -9.5630 C   0  0  0  0  0  0  0  0  0  0  0  0
   63.7207  -11.4077   -8.2830 N   0  0  0  0  0  0  0  0  0  0  0  0
   65.1349  -11.2163   -8.3344 C   0  0  0  0  0  0  0  0  0  0  0  0
   63.0447  -10.7402   -7.2178 C   0  0  0  0  0  0  0  0  0  0  0  0
   62.0566   -9.7362   -7.8078 C   0  0  0  0  0  0  0  0  0  0  0  0
   57.5167   -3.8640  -13.0339 C   0  0  0  0  0  0  0  0  0  0  0  0
   56.5404   -4.2255  -12.0841 O   0  0  0  0  0  0  0  0  0  0  0  0
 43 44  1  0  0  0
 44 24  1  0  0  0
 24 25  2  0  0  0
 25 26  1  0  0  0
 26 27  2  0  0  0
 27 28  1  0  0  0
 28 29  2  0  0  0
 29  1  1  0  0  0
  1  3  1  0  0  0
  3  4  2  0  0  0
  4  5  1  0  0  0
  5  6  2  0  0  0
  6  7  1  0  0  0
  6  8  1  0  0  0
  8 10  1  0  0  0
 10 12  1  0  0  0
 12 13  2  0  0  0
 13 14  1  0  0  0
 14 15  2  0  0  0
 15 16  1  0  0  0
 16 17  2  0  0  0
 17 18  1  0  0  0
 18 19  2  0  0  0
 18 20  2  0  0  0
 18 21  1  0  0  0
 21 22  1  0  0  0
 21 23  1  0  0  0
  8  9  2  0  0  0
 26 30  1  0  0  0
 30 31  1  0  0  0
 31 32  1  0  0  0
 32 33  1  0  0  0
 33 34  1  0  0  0
 34 35  1  0  0  0
 33 36  1  0  0  0
 36 37  1  0  0  0
 37 38  1  0  0  0
 38 39  1  0  0  0
 39 40  1  0  0  0
 39 41  1  0  0  0
 41 42  1  0  0  0
 29 24  1  0  0  0
  9  3  1  0  0  0
 35 30  1  0  0  0
 42 36  1  0  0  0
 17 12  1  0  0  0
  1  2  1  0  0  0
 10 11  1  0  0  0
M  END
> <minimizedAffinity>
-9.50101

> <CNNscore>
0.9266451001

> <CNNaffinity>
8.1607112885

> <CNN_VS>
7.5620832443

> <CNNaffinity_variance>
0.0884491652

$$$$
[H]c1nc(N([H])c2c([H])c([H])c(N3C([H])([H])C([H])([H])C([H])(N4C([H])([H])C([H])([H])N(C([H])([H])[H])C([H])([H])C4([H])[H])C([H])([H])C3([H])[H])c([H])c2OC([H])([H])[H])nc(N([H])c2c([H])c([H])c([H])c([H])c2S(=O)(=O)C([H])(C([H])([H])[H])C([H])([H])[H])c1Cl


 44 48  0  0  0  0  0  0  0  0999 V2000
   54.7512   -3.6890  -10.1841 N   0  0  0  0  0  0  0  0  0  0  0  0
   54.6142   -3.3520  -11.2033 H   0  0  0  0  0  0  0  0  0  0  0  0
   53.6496   -3.4977   -9.3087 C   0  0  0  0  0  0  0  0  0  0  0  0
   52.8686   -2.4162   -9.2479 N   0  0  0  0  0  0  0  0  0  0  0  0
   51.8418   -2.3019   -8.3963 C   0  0  0  0  0  0  0  0  0  0  0  0
   51.5523   -3.3302   -7.5304 C   0  0  0  0  0  0  0  0  0  0  0  0
   50.2057   -3.1977   -6.4035 Cl  0  0  0  0  0  0  0  0  0  0  0  0
   52.3621   -4.4839   -7.5744 C   0  0  0  0  0  0  0  0  0  0  0  0
   53.3617   -4.5019   -8.4584 N   0  0  0  0  0  0  0  0  0  0  0  0
   52.0443   -5.5191   -6.6819 N   0  0  0  0  0  0  0  0  0  0  0  0
   51.8719   -6.4695   -7.1488 H   0  0  0  0  0  0  0  0  0  0  0  0
   51.9111   -5.5371   -5.2853 C   0  0  0  0  0  0  0  0  0  0  0  0
   50.6896   -5.2675   -4.7052 C   0  0  0  0  0  0  0  0  0  0  0  0
   50.5406   -5.2798   -3.3124 C   0  0  0  0  0  0  0  0  0  0  0  0
   51.6223   -5.5625   -2.5335 C   0  0  0  0  0  0  0  0  0  0  0  0
   52.8404   -5.8314   -3.1155 C   0  0  0  0  0  0  0  0  0  0  0  0
   53.0144   -5.8263   -4.4748 C   0  0  0  0  0  0  0  0  0  0  0  0
   54.5383   -6.1646   -5.1843 S   0  0  0  0  0  0  0  0  0  0  0  0
   55.2191   -4.8773   -5.5762 O   0  0  0  0  0  0  0  0  0  0  0  0
   54.4827   -7.0446   -6.4016 O   0  0  0  0  0  0  0  0  0  0  0  0
   55.6536   -6.9751   -4.0540 C   0  0  0  0  0  0  0  0  0  0  0  0
   55.1634   -8.3450   -3.7135 C   0  0  0  0  0  0  0  0  0  0  0  0
   57.0848   -6.8915   -4.4683 C   0  0  0  0  0  0  0  0  0  0  0  0
   56.8555   -4.5158  -10.9967 C   0  0  0  0  0  0  0  0  0  0  0  0
   58.1059   -5.0767  -10.8115 C   0  0  0  0  0  0  0  0  0  0  0  0
   58.5747   -5.4097   -9.5602 C   0  0  0  0  0  0  0  0  0  0  0  0
   57.7311   -5.1534   -8.5067 C   0  0  0  0  0  0  0  0  0  0  0  0
   56.4613   -4.5878   -8.6588 C   0  0  0  0  0  0  0  0  0  0  0  0
   55.9995   -4.2581   -9.9082 C   0  0  0  0  0  0  0  0  0  0  0  0
   59.8733   -5.9823   -9.3839 N   0  0  0  0  0  0  0  0  0  0  0  0
   60.6818   -6.1926  -10.5356 C   0  0  0  0  0  0  0  0  0  0  0  0
   62.1388   -6.4566  -10.2782 C   0  0  0  0  0  0  0  0  0  0  0  0
   62.4061   -7.3864   -9.1429 C   0  0  0  0  0  0  0  0  0  0  0  0
   61.2033   -7.5818   -8.2417 C   0  0  0  0  0  0  0  0  0  0  0  0
   60.3746   -6.3526   -8.0821 C   0  0  0  0  0  0  0  0  0  0  0  0
   63.5411   -7.1341   -8.3479 N   0  0  0  0  0  0  0  0  0  0  0  0
   64.4921   -6.1964   -8.7787 C   0  0  0  0  0  0  0  0  0  0  0  0
   65.7860   -6.3732   -7.9791 C   0  0  0  0  0  0  0  0  0  0  0  0
   65.4252   -6.5300   -6.5835 N   0  0  0  0  0  0  0  0  0  0  0  0
   64.9419   -5.3371   -5.9649 C   0  0  0  0  0  0  0  0  0  0  0  0
   64.6671   -7.7114   -6.3251 C   0  0  0  0  0  0  0  0  0  0  0  0
   64.1057   -8.2402   -7.6433 C   0  0  0  0  0  0  0  0  0  0  0  0
   57.4158   -3.8293  -13.2355 C   0  0  0  0  0  0  0  0  0  0  0  0
   56.4463   -4.2048  -12.2842 O   0  0  0  0  0  0  0  0  0  0  0  0
 43 44  1  0  0  0
 44 24  1  0  0  0
 24 25  2  0  0  0
 25 26  1  0  0  0
 26 27  2  0  0  0
 27 28  1  0  0  0
 28 29  2  0  0  0
 29  1  1  0  0  0
  1  3  1  0  0  0
  3  4  2  0  0  0
  4  5  1  0  0  0
  5  6  2  0  0  0
  6  7  1  0  0  0
  6  8  1  0  0  0
  8 10  1  0  0  0
 10 12  1  0  0  0
 12 13  2  0  0  0
 13 14  1  0  0  0
 14 15  2  0  0  0
 15 16  1  0  0  0
 16 17  2  0  0  0
 17 18  1  0  0  0
 18 19  2  0  0  0
 18 20  2  0  0  0
 18 21  1  0  0  0
 21 22  1  0  0  0
 21 23  1  0  0  0
  8  9  2  0  0  0
 26 30  1  0  0  0
 30 31  1  0  0  0
 31 32  1  0  0  0
 32 33  1  0  0  0
 33 34  1  0  0  0
 34 35  1  0  0  0
 33 36  1  0  0  0
 36 37  1  0  0  0
 37 38  1  0  0  0
 38 39  1  0  0  0
 39 40  1  0  0  0
 39 41  1  0  0  0
 41 42  1  0  0  0
 29 24  1  0  0  0
  9  3  1  0  0  0
 35 30  1  0  0  0
 42 36  1  0  0  0
 17 12  1  0  0  0
  1  2  1  0  0  0
 10 11  1  0  0  0
M  END
> <minimizedAffinity>
-9.58954

> <CNNscore>
0.9050758481

> <CNNaffinity>
8.1857051849

> <CNN_VS>
7.4086842537

> <CNNaffinity_variance>
0.0465758257

$$$$
[H]c1nc(N([H])c2c([H])c([H])c(N3C([H])([H])C([H])([H])C([H])(N4C([H])([H])C([H])([H])N(C([H])([H])[H])C([H])([H])C4([H])[H])C([H])([H])C3([H])[H])c([H])c2OC([H])([H])[H])nc(N([H])c2c([H])c([H])c([H])c([H])c2S(=O)(=O)C([H])(C([H])([H])[H])C([H])([H])[H])c1Cl


 44 48  0  0  0  0  0  0  0  0999 V2000
   55.4251   -3.5014   -9.9730 N   0  0  0  0  0  0  0  0  0  0  0  0
   55.4514   -2.8756  -10.8555 H   0  0  0  0  0  0  0  0  0  0  0  0
   54.2256   -3.4623   -9.2139 C   0  0  0  0  0  0  0  0  0  0  0  0
   53.2108   -2.6114   -9.3854 N   0  0  0  0  0  0  0  0  0  0  0  0
   52.1041   -2.6309   -8.6321 C   0  0  0  0  0  0  0  0  0  0  0  0
   51.9766   -3.5597   -7.6260 C   0  0  0  0  0  0  0  0  0  0  0  0
   50.5283   -3.6005   -6.6253 Cl  0  0  0  0  0  0  0  0  0  0  0  0
   53.0346   -4.4701   -7.4241 C   0  0  0  0  0  0  0  0  0  0  0  0
   54.0957   -4.3699   -8.2272 N   0  0  0  0  0  0  0  0  0  0  0  0
   52.8786   -5.4086   -6.3925 N   0  0  0  0  0  0  0  0  0  0  0  0
   51.8587   -5.6510   -6.1643 H   0  0  0  0  0  0  0  0  0  0  0  0
   53.8172   -6.0900   -5.6031 C   0  0  0  0  0  0  0  0  0  0  0  0
   55.1176   -6.2265   -6.0408 C   0  0  0  0  0  0  0  0  0  0  0  0
   56.0661   -6.9055   -5.2652 C   0  0  0  0  0  0  0  0  0  0  0  0
   55.6869   -7.4325   -4.0672 C   0  0  0  0  0  0  0  0  0  0  0  0
   54.3880   -7.2945   -3.6329 C   0  0  0  0  0  0  0  0  0  0  0  0
   53.4400   -6.6353   -4.3709 C   0  0  0  0  0  0  0  0  0  0  0  0
   51.8262   -6.4711   -3.8151 S   0  0  0  0  0  0  0  0  0  0  0  0
   51.5178   -7.5506   -2.8082 O   0  0  0  0  0  0  0  0  0  0  0  0
   50.7811   -6.5358   -4.8934 O   0  0  0  0  0  0  0  0  0  0  0  0
   51.5492   -4.9275   -2.9672 C   0  0  0  0  0  0  0  0  0  0  0  0
   50.1013   -4.5593   -2.9918 C   0  0  0  0  0  0  0  0  0  0  0  0
   52.2050   -4.8583   -1.6285 C   0  0  0  0  0  0  0  0  0  0  0  0
   57.3260   -4.6778  -10.8532 C   0  0  0  0  0  0  0  0  0  0  0  0
   58.4858   -5.4164  -10.7065 C   0  0  0  0  0  0  0  0  0  0  0  0
   58.9744   -5.7630   -9.4665 C   0  0  0  0  0  0  0  0  0  0  0  0
   58.2456   -5.3340   -8.3841 C   0  0  0  0  0  0  0  0  0  0  0  0
   57.0693   -4.5862   -8.4969 C   0  0  0  0  0  0  0  0  0  0  0  0
   56.5872   -4.2439   -9.7352 C   0  0  0  0  0  0  0  0  0  0  0  0
   60.1796   -6.5211   -9.3306 N   0  0  0  0  0  0  0  0  0  0  0  0
   61.2212   -5.9951   -8.5166 C   0  0  0  0  0  0  0  0  0  0  0  0
   62.3009   -6.9631   -8.1216 C   0  0  0  0  0  0  0  0  0  0  0  0
   62.7546   -7.8635   -9.2210 C   0  0  0  0  0  0  0  0  0  0  0  0
   61.7968   -7.8934  -10.3951 C   0  0  0  0  0  0  0  0  0  0  0  0
   60.3640   -7.7885   -9.9959 C   0  0  0  0  0  0  0  0  0  0  0  0
   63.1048   -9.1840   -8.8785 N   0  0  0  0  0  0  0  0  0  0  0  0
   63.3414   -9.5098   -7.5342 C   0  0  0  0  0  0  0  0  0  0  0  0
   64.0669  -10.8559   -7.4523 C   0  0  0  0  0  0  0  0  0  0  0  0
   63.4117  -11.7677   -8.3698 N   0  0  0  0  0  0  0  0  0  0  0  0
   62.1128  -12.1884   -7.9512 C   0  0  0  0  0  0  0  0  0  0  0  0
   63.5226  -11.3709   -9.7364 C   0  0  0  0  0  0  0  0  0  0  0  0
   63.9317   -9.9007   -9.7956 C   0  0  0  0  0  0  0  0  0  0  0  0
   57.8329   -3.9282  -13.0846 C   0  0  0  0  0  0  0  0  0  0  0  0
   56.8907   -4.3637  -12.1313 O   0  0  0  0  0  0  0  0  0  0  0  0
 43 44  1  0  0  0
 44 24  1  0  0  0
 24 25  2  0  0  0
 25 26  1  0  0  0
 26 27  2  0  0  0
 27 28  1  0  0  0
 28 29  2  0  0  0
 29  1  1  0  0  0
  1  3  1  0  0  0
  3  4  2  0  0  0
  4  5  1  0  0  0
  5  6  2  0  0  0
  6  7  1  0  0  0
  6  8  1  0  0  0
  8 10  1  0  0  0
 10 12  1  0  0  0
 12 13  2  0  0  0
 13 14  1  0  0  0
 14 15  2  0  0  0
 15 16  1  0  0  0
 16 17  2  0  0  0
 17 18  1  0  0  0
 18 19  2  0  0  0
 18 20  2  0  0  0
 18 21  1  0  0  0
 21 22  1  0  0  0
 21 23  1  0  0  0
  8  9  2  0  0  0
 26 30  1  0  0  0
 30 31  1  0  0  0
 31 32  1  0  0  0
 32 33  1  0  0  0
 33 34  1  0  0  0
 34 35  1  0  0  0
 33 36  1  0  0  0
 36 37  1  0  0  0
 37 38  1  0  0  0
 38 39  1  0  0  0
 39 40  1  0  0  0
 39 41  1  0  0  0
 41 42  1  0  0  0
 29 24  1  0  0  0
  9  3  1  0  0  0
 35 30  1  0  0  0
 42 36  1  0  0  0
 17 12  1  0  0  0
  1  2  1  0  0  0
 10 11  1  0  0  0
M  END
> <minimizedAffinity>
-8.66592

> <CNNscore>
0.8474518657

> <CNNaffinity>
8.0202560425

> <CNN_VS>
6.7967810631

> <CNNaffinity_variance>
0.0223492254

$$$$
[H]c1nc(N([H])c2c([H])c([H])c(N3C([H])([H])C([H])([H])C([H])(N4C([H])([H])C([H])([H])N(C([H])([H])[H])C([H])([H])C4([H])[H])C([H])([H])C3([H])[H])c([H])c2OC([H])([H])[H])nc(N([H])c2c([H])c([H])c([H])c([H])c2S(=O)(=O)C([H])(C([H])([H])[H])C([H])([H])[H])c1Cl


 44 48  0  0  0  0  0  0  0  0999 V2000
   55.3047   -3.6498  -10.1447 N   0  0  0  0  0  0  0  0  0  0  0  0
   55.2302   -3.1627  -11.1082 H   0  0  0  0  0  0  0  0  0  0  0  0
   54.1556   -3.5720   -9.3140 C   0  0  0  0  0  0  0  0  0  0  0  0
   53.1400   -2.7157   -9.4503 N   0  0  0  0  0  0  0  0  0  0  0  0
   52.0827   -2.6977   -8.6292 C   0  0  0  0  0  0  0  0  0  0  0  0
   52.0100   -3.5912   -7.5863 C   0  0  0  0  0  0  0  0  0  0  0  0
   50.6270   -3.5824   -6.4963 Cl  0  0  0  0  0  0  0  0  0  0  0  0
   53.0700   -4.5064   -7.4203 C   0  0  0  0  0  0  0  0  0  0  0  0
   54.0794   -4.4449   -8.2911 N   0  0  0  0  0  0  0  0  0  0  0  0
   52.9703   -5.4084   -6.3499 N   0  0  0  0  0  0  0  0  0  0  0  0
   51.9643   -5.6511   -6.0670 H   0  0  0  0  0  0  0  0  0  0  0  0
   53.9506   -6.0530   -5.5804 C   0  0  0  0  0  0  0  0  0  0  0  0
   55.2459   -6.1396   -6.0450 C   0  0  0  0  0  0  0  0  0  0  0  0
   56.2356   -6.7815   -5.2896 C   0  0  0  0  0  0  0  0  0  0  0  0
   55.9018   -7.3221   -4.0842 C   0  0  0  0  0  0  0  0  0  0  0  0
   54.6078   -7.2339   -3.6229 C   0  0  0  0  0  0  0  0  0  0  0  0
   53.6201   -6.6118   -4.3409 C   0  0  0  0  0  0  0  0  0  0  0  0
   52.0132   -6.5094   -3.7517 S   0  0  0  0  0  0  0  0  0  0  0  0
   51.7610   -7.6119   -2.7540 O   0  0  0  0  0  0  0  0  0  0  0  0
   50.9496   -6.5951   -4.8104 O   0  0  0  0  0  0  0  0  0  0  0  0
   51.7016   -4.9874   -2.8773 C   0  0  0  0  0  0  0  0  0  0  0  0
   50.2562   -4.6163   -2.9535 C   0  0  0  0  0  0  0  0  0  0  0  0
   52.3005   -4.9531   -1.5109 C   0  0  0  0  0  0  0  0  0  0  0  0
   57.3333   -4.6190  -10.9917 C   0  0  0  0  0  0  0  0  0  0  0  0
   58.5579   -5.2395  -10.8251 C   0  0  0  0  0  0  0  0  0  0  0  0
   59.0510   -5.5506   -9.5775 C   0  0  0  0  0  0  0  0  0  0  0  0
   58.2587   -5.2100   -8.5083 C   0  0  0  0  0  0  0  0  0  0  0  0
   57.0161   -4.5825   -8.6413 C   0  0  0  0  0  0  0  0  0  0  0  0
   56.5299   -4.2750   -9.8871 C   0  0  0  0  0  0  0  0  0  0  0  0
   60.3228   -6.1857   -9.4209 N   0  0  0  0  0  0  0  0  0  0  0  0
   61.1557   -6.3234  -10.5661 C   0  0  0  0  0  0  0  0  0  0  0  0
   62.5944   -6.6645  -10.2971 C   0  0  0  0  0  0  0  0  0  0  0  0
   62.7960   -7.7012   -9.2436 C   0  0  0  0  0  0  0  0  0  0  0  0
   61.5618   -7.9300   -8.3942 C   0  0  0  0  0  0  0  0  0  0  0  0
   60.7733   -6.6892   -8.1455 C   0  0  0  0  0  0  0  0  0  0  0  0
   63.9162   -7.5641   -8.4010 N   0  0  0  0  0  0  0  0  0  0  0  0
   65.1633   -7.2393   -8.9564 C   0  0  0  0  0  0  0  0  0  0  0  0
   66.2693   -7.5237   -7.9362 C   0  0  0  0  0  0  0  0  0  0  0  0
   65.8310   -7.0081   -6.6538 N   0  0  0  0  0  0  0  0  0  0  0  0
   65.8116   -5.5826   -6.5703 C   0  0  0  0  0  0  0  0  0  0  0  0
   64.6765   -7.6732   -6.1419 C   0  0  0  0  0  0  0  0  0  0  0  0
   64.0006   -8.4401   -7.2767 C   0  0  0  0  0  0  0  0  0  0  0  0
   57.8096   -3.7863  -13.2002 C   0  0  0  0  0  0  0  0  0  0  0  0
   56.8973   -4.3346  -12.2765 O   0  0  0  0  0  0  0  0  0  0  0  0
 43 44  1  0  0  0
 44 24  1  0  0  0
 24 25  2  0  0  0
 25 26  1  0  0  0
 26 27  2  0  0  0
 27 28  1  0  0  0
 28 29  2  0  0  0
 29  1  1  0  0  0
  1  3  1  0  0  0
  3  4  2  0  0  0
  4  5  1  0  0  0
  5  6  2  0  0  0
  6  7  1  0  0  0
  6  8  1  0  0  0
  8 10  1  0  0  0
 10 12  1  0  0  0
 12 13  2  0  0  0
 13 14  1  0  0  0
 14 15  2  0  0  0
 15 16  1  0  0  0
 16 17  2  0  0  0
 17 18  1  0  0  0
 18 19  2  0  0  0
 18 20  2  0  0  0
 18 21  1  0  0  0
 21 22  1  0  0  0
 21 23  1  0  0  0
  8  9  2  0  0  0
 26 30  1  0  0  0
 30 31  1  0  0  0
 31 32  1  0  0  0
 32 33  1  0  0  0
 33 34  1  0  0  0
 34 35  1  0  0  0
 33 36  1  0  0  0
 36 37  1  0  0  0
 37 38  1  0  0  0
 38 39  1  0  0  0
 39 40  1  0  0  0
 39 41  1  0  0  0
 41 42  1  0  0  0
 29 24  1  0  0  0
  9  3  1  0  0  0
 35 30  1  0  0  0
 42 36  1  0  0  0
 17 12  1  0  0  0
  1  2  1  0  0  0
 10 11  1  0  0  0
M  END
> <minimizedAffinity>
-8.62103

> <CNNscore>
0.8268525004

> <CNNaffinity>
8.0621051788

> <CNN_VS>
6.6661720276

> <CNNaffinity_variance>
0.0038069424

$$$$
[H]c1nc(N([H])c2c([H])c([H])c(N3C([H])([H])C([H])([H])C([H])(N4C([H])([H])C([H])([H])N(C([H])([H])[H])C([H])([H])C4([H])[H])C([H])([H])C3([H])[H])c([H])c2OC([H])([H])[H])nc(N([H])c2c([H])c([H])c([H])c([H])c2S(=O)(=O)C([H])(C([H])([H])[H])C([H])([H])[H])c1Cl


 44 48  0  0  0  0  0  0  0  0999 V2000
   54.4368   -3.1895   -9.7109 N   0  0  0  0  0  0  0  0  0  0  0  0
   54.3212   -2.4714  -10.5123 H   0  0  0  0  0  0  0  0  0  0  0  0
   53.3430   -3.3062   -8.8129 C   0  0  0  0  0  0  0  0  0  0  0  0
   52.2727   -2.5091   -8.7654 N   0  0  0  0  0  0  0  0  0  0  0  0
   51.2730   -2.6773   -7.8908 C   0  0  0  0  0  0  0  0  0  0  0  0
   51.3217   -3.7114   -6.9855 C   0  0  0  0  0  0  0  0  0  0  0  0
   50.0162   -3.9483   -5.8279 Cl  0  0  0  0  0  0  0  0  0  0  0  0
   52.4417   -4.5679   -7.0147 C   0  0  0  0  0  0  0  0  0  0  0  0
   53.3857   -4.3173   -7.9241 N   0  0  0  0  0  0  0  0  0  0  0  0
   52.4659   -5.6160   -6.0819 N   0  0  0  0  0  0  0  0  0  0  0  0
   51.4973   -5.9824   -5.8017 H   0  0  0  0  0  0  0  0  0  0  0  0
   53.5302   -6.2742   -5.4475 C   0  0  0  0  0  0  0  0  0  0  0  0
   54.6607   -6.6069   -6.1634 C   0  0  0  0  0  0  0  0  0  0  0  0
   55.7312   -7.2658   -5.5451 C   0  0  0  0  0  0  0  0  0  0  0  0
   55.6418   -7.5758   -4.2212 C   0  0  0  0  0  0  0  0  0  0  0  0
   54.5120   -7.2422   -3.5091 C   0  0  0  0  0  0  0  0  0  0  0  0
   53.4505   -6.5977   -4.0885 C   0  0  0  0  0  0  0  0  0  0  0  0
   52.0505   -6.1880   -3.1872 S   0  0  0  0  0  0  0  0  0  0  0  0
   50.8141   -6.6211   -3.9342 O   0  0  0  0  0  0  0  0  0  0  0  0
   51.9105   -4.7242   -2.8755 O   0  0  0  0  0  0  0  0  0  0  0  0
   51.9813   -7.0245   -1.6144 C   0  0  0  0  0  0  0  0  0  0  0  0
   52.7471   -6.2703   -0.5764 C   0  0  0  0  0  0  0  0  0  0  0  0
   50.6023   -7.4362   -1.2199 C   0  0  0  0  0  0  0  0  0  0  0  0
   56.3088   -4.0361   -8.4653 C   0  0  0  0  0  0  0  0  0  0  0  0
   57.5148   -4.7058   -8.3691 C   0  0  0  0  0  0  0  0  0  0  0  0
   58.1325   -5.2520   -9.4720 C   0  0  0  0  0  0  0  0  0  0  0  0
   57.4838   -5.0945  -10.6726 C   0  0  0  0  0  0  0  0  0  0  0  0
   56.2642   -4.4233  -10.8051 C   0  0  0  0  0  0  0  0  0  0  0  0
   55.6534   -3.8809   -9.7025 C   0  0  0  0  0  0  0  0  0  0  0  0
   59.3763   -5.9483   -9.3555 N   0  0  0  0  0  0  0  0  0  0  0  0
   60.1153   -5.8153   -8.1470 C   0  0  0  0  0  0  0  0  0  0  0  0
   61.2116   -6.8204   -7.9312 C   0  0  0  0  0  0  0  0  0  0  0  0
   62.0327   -7.1073   -9.1430 C   0  0  0  0  0  0  0  0  0  0  0  0
   61.3807   -6.6324  -10.4261 C   0  0  0  0  0  0  0  0  0  0  0  0
   59.8958   -6.7681  -10.4237 C   0  0  0  0  0  0  0  0  0  0  0  0
   62.4922   -8.4267   -9.3209 N   0  0  0  0  0  0  0  0  0  0  0  0
   61.8068   -9.4860   -8.7066 C   0  0  0  0  0  0  0  0  0  0  0  0
   62.6861  -10.7397   -8.7147 C   0  0  0  0  0  0  0  0  0  0  0  0
   63.2770  -10.8566  -10.0337 N   0  0  0  0  0  0  0  0  0  0  0  0
   62.3541  -11.2248  -11.0593 C   0  0  0  0  0  0  0  0  0  0  0  0
   64.1615   -9.7831  -10.3539 C   0  0  0  0  0  0  0  0  0  0  0  0
   63.9045   -8.6238   -9.3934 C   0  0  0  0  0  0  0  0  0  0  0  0
   56.5121   -3.4656   -6.1349 C   0  0  0  0  0  0  0  0  0  0  0  0
   55.7422   -3.5105   -7.3145 O   0  0  0  0  0  0  0  0  0  0  0  0
 43 44  1  0  0  0
 44 24  1  0  0  0
 24 25  2  0  0  0
 25 26  1  0  0  0
 26 27  2  0  0  0
 27 28  1  0  0  0
 28 29  2  0  0  0
 29  1  1  0  0  0
  1  3  1  0  0  0
  3  4  2  0  0  0
  4  5  1  0  0  0
  5  6  2  0  0  0
  6  7  1  0  0  0
  6  8  1  0  0  0
  8 10  1  0  0  0
 10 12  1  0  0  0
 12 13  2  0  0  0
 13 14  1  0  0  0
 14 15  2  0  0  0
 15 16  1  0  0  0
 16 17  2  0  0  0
 17 18  1  0  0  0
 18 19  2  0  0  0
 18 20  2  0  0  0
 18 21  1  0  0  0
 21 22  1  0  0  0
 21 23  1  0  0  0
  8  9  2  0  0  0
 26 30  1  0  0  0
 30 31  1  0  0  0
 31 32  1  0  0  0
 32 33  1  0  0  0
 33 34  1  0  0  0
 34 35  1  0  0  0
 33 36  1  0  0  0
 36 37  1  0  0  0
 37 38  1  0  0  0
 38 39  1  0  0  0
 39 40  1  0  0  0
 39 41  1  0  0  0
 41 42  1  0  0  0
 29 24  1  0  0  0
  9  3  1  0  0  0
 35 30  1  0  0  0
 42 36  1  0  0  0
 17 12  1  0  0  0
  1  2  1  0  0  0
 10 11  1  0  0  0
M  END
> <minimizedAffinity>
-7.68089

> <CNNscore>
0.8006752729

> <CNNaffinity>
8.0626792908

> <CNN_VS>
6.4555878639

> <CNNaffinity_variance>
0.0378356501

$$$$
[H]c1nc(N([H])c2c([H])c([H])c(N3C([H])([H])C([H])([H])C([H])(N4C([H])([H])C([H])([H])N(C([H])([H])[H])C([H])([H])C4([H])[H])C([H])([H])C3([H])[H])c([H])c2OC([H])([H])[H])nc(N([H])c2c([H])c([H])c([H])c([H])c2S(=O)(=O)C([H])(C([H])([H])[H])C([H])([H])[H])c1Cl


 44 48  0  0  0  0  0  0  0  0999 V2000
   55.1061   -3.4214   -9.6413 N   0  0  0  0  0  0  0  0  0  0  0  0
   55.0960   -2.7409  -10.4827 H   0  0  0  0  0  0  0  0  0  0  0  0
   53.9253   -3.4594   -8.8534 C   0  0  0  0  0  0  0  0  0  0  0  0
   52.8344   -2.7097   -9.0300 N   0  0  0  0  0  0  0  0  0  0  0  0
   51.7513   -2.7979   -8.2480 C   0  0  0  0  0  0  0  0  0  0  0  0
   51.7305   -3.6939   -7.2050 C   0  0  0  0  0  0  0  0  0  0  0  0
   50.3147   -3.8241   -6.1662 Cl  0  0  0  0  0  0  0  0  0  0  0  0
   52.8704   -4.4978   -6.9969 C   0  0  0  0  0  0  0  0  0  0  0  0
   53.8998   -4.3353   -7.8304 N   0  0  0  0  0  0  0  0  0  0  0  0
   52.8227   -5.4050   -5.9273 N   0  0  0  0  0  0  0  0  0  0  0  0
   51.8407   -5.5670   -5.5269 H   0  0  0  0  0  0  0  0  0  0  0  0
   53.8293   -6.1414   -5.2847 C   0  0  0  0  0  0  0  0  0  0  0  0
   55.0008   -6.4352   -5.9500 C   0  0  0  0  0  0  0  0  0  0  0  0
   56.0146   -7.1710   -5.3230 C   0  0  0  0  0  0  0  0  0  0  0  0
   55.8287   -7.5954   -4.0415 C   0  0  0  0  0  0  0  0  0  0  0  0
   54.6582   -7.3004   -3.3799 C   0  0  0  0  0  0  0  0  0  0  0  0
   53.6503   -6.5825   -3.9689 C   0  0  0  0  0  0  0  0  0  0  0  0
   52.1986   -6.2224   -3.1306 S   0  0  0  0  0  0  0  0  0  0  0  0
   51.0109   -6.6692   -3.9455 O   0  0  0  0  0  0  0  0  0  0  0  0
   52.0087   -4.7685   -2.7998 O   0  0  0  0  0  0  0  0  0  0  0  0
   52.0724   -7.0905   -1.5785 C   0  0  0  0  0  0  0  0  0  0  0  0
   52.8439   -6.3857   -0.5105 C   0  0  0  0  0  0  0  0  0  0  0  0
   50.6732   -7.4634   -1.2178 C   0  0  0  0  0  0  0  0  0  0  0  0
   56.9685   -4.5629  -10.6416 C   0  0  0  0  0  0  0  0  0  0  0  0
   58.1451   -5.2858  -10.5695 C   0  0  0  0  0  0  0  0  0  0  0  0
   58.7103   -5.6353   -9.3633 C   0  0  0  0  0  0  0  0  0  0  0  0
   58.0401   -5.2256   -8.2363 C   0  0  0  0  0  0  0  0  0  0  0  0
   56.8489   -4.4942   -8.2736 C   0  0  0  0  0  0  0  0  0  0  0  0
   56.2904   -4.1489   -9.4785 C   0  0  0  0  0  0  0  0  0  0  0  0
   59.9318   -6.3768   -9.3048 N   0  0  0  0  0  0  0  0  0  0  0  0
   59.9913   -7.6355   -9.9656 C   0  0  0  0  0  0  0  0  0  0  0  0
   61.3664   -8.2037  -10.1778 C   0  0  0  0  0  0  0  0  0  0  0  0
   62.2792   -8.0637   -9.0064 C   0  0  0  0  0  0  0  0  0  0  0  0
   61.7839   -7.0579   -7.9866 C   0  0  0  0  0  0  0  0  0  0  0  0
   61.0895   -5.8873   -8.5954 C   0  0  0  0  0  0  0  0  0  0  0  0
   63.6418   -7.8216   -9.2679 N   0  0  0  0  0  0  0  0  0  0  0  0
   64.2738   -8.4972  -10.3231 C   0  0  0  0  0  0  0  0  0  0  0  0
   65.7930   -8.3776  -10.1725 C   0  0  0  0  0  0  0  0  0  0  0  0
   66.0969   -6.9997   -9.8384 N   0  0  0  0  0  0  0  0  0  0  0  0
   65.9061   -6.0796  -10.9137 C   0  0  0  0  0  0  0  0  0  0  0  0
   65.5676   -6.5943   -8.5764 C   0  0  0  0  0  0  0  0  0  0  0  0
   64.4927   -7.5898   -8.1451 C   0  0  0  0  0  0  0  0  0  0  0  0
   57.3440   -3.8810  -12.9201 C   0  0  0  0  0  0  0  0  0  0  0  0
   56.4546   -4.2449  -11.8892 O   0  0  0  0  0  0  0  0  0  0  0  0
 43 44  1  0  0  0
 44 24  1  0  0  0
 24 25  2  0  0  0
 25 26  1  0  0  0
 26 27  2  0  0  0
 27 28  1  0  0  0
 28 29  2  0  0  0
 29  1  1  0  0  0
  1  3  1  0  0  0
  3  4  2  0  0  0
  4  5  1  0  0  0
  5  6  2  0  0  0
  6  7  1  0  0  0
  6  8  1  0  0  0
  8 10  1  0  0  0
 10 12  1  0  0  0
 12 13  2  0  0  0
 13 14  1  0  0  0
 14 15  2  0  0  0
 15 16  1  0  0  0
 16 17  2  0  0  0
 17 18  1  0  0  0
 18 19  2  0  0  0
 18 20  2  0  0  0
 18 21  1  0  0  0
 21 22  1  0  0  0
 21 23  1  0  0  0
  8  9  2  0  0  0
 26 30  1  0  0  0
 30 31  1  0  0  0
 31 32  1  0  0  0
 32 33  1  0  0  0
 33 34  1  0  0  0
 34 35  1  0  0  0
 33 36  1  0  0  0
 36 37  1  0  0  0
 37 38  1  0  0  0
 38 39  1  0  0  0
 39 40  1  0  0  0
 39 41  1  0  0  0
 41 42  1  0  0  0
 29 24  1  0  0  0
  9  3  1  0  0  0
 35 30  1  0  0  0
 42 36  1  0  0  0
 17 12  1  0  0  0
  1  2  1  0  0  0
 10 11  1  0  0  0
M  END
> <minimizedAffinity>
-8.42219

> <CNNscore>
0.7948920727

> <CNNaffinity>
8.0311450958

> <CNN_VS>
6.3838934898

> <CNNaffinity_variance>
0.0111624869

$$$$
[H]c1nc(N([H])c2c([H])c([H])c(N3C([H])([H])C([H])([H])C([H])(N4C([H])([H])C([H])([H])N(C([H])([H])[H])C([H])([H])C4([H])[H])C([H])([H])C3([H])[H])c([H])c2OC([H])([H])[H])nc(N([H])c2c([H])c([H])c([H])c([H])c2S(=O)(=O)C([H])(C([H])([H])[H])C([H])([H])[H])c1Cl


 44 48  0  0  0  0  0  0  0  0999 V2000
   55.3316   -3.2442   -9.5536 N   0  0  0  0  0  0  0  0  0  0  0  0
   55.4410   -2.3081  -10.0856 H   0  0  0  0  0  0  0  0  0  0  0  0
   54.0651   -3.4799   -8.9563 C   0  0  0  0  0  0  0  0  0  0  0  0
   52.9382   -2.8078   -9.2049 N   0  0  0  0  0  0  0  0  0  0  0  0
   51.7737   -3.0843   -8.6049 C   0  0  0  0  0  0  0  0  0  0  0  0
   51.7025   -4.1033   -7.6841 C   0  0  0  0  0  0  0  0  0  0  0  0
   50.1795   -4.4814   -6.8852 Cl  0  0  0  0  0  0  0  0  0  0  0  0
   52.8788   -4.8287   -7.4036 C   0  0  0  0  0  0  0  0  0  0  0  0
   53.9898   -4.4768   -8.0537 N   0  0  0  0  0  0  0  0  0  0  0  0
   52.7786   -5.8644   -6.4619 N   0  0  0  0  0  0  0  0  0  0  0  0
   52.9718   -6.8429   -6.8570 H   0  0  0  0  0  0  0  0  0  0  0  0
   52.4710   -5.8524   -5.0931 C   0  0  0  0  0  0  0  0  0  0  0  0
   51.3074   -5.2582   -4.6525 C   0  0  0  0  0  0  0  0  0  0  0  0
   50.9868   -5.2363   -3.2890 C   0  0  0  0  0  0  0  0  0  0  0  0
   51.8427   -5.8119   -2.3986 C   0  0  0  0  0  0  0  0  0  0  0  0
   53.0035   -6.4046   -2.8414 C   0  0  0  0  0  0  0  0  0  0  0  0
   53.3417   -6.4405   -4.1689 C   0  0  0  0  0  0  0  0  0  0  0  0
   54.7911   -7.1838   -4.7045 S   0  0  0  0  0  0  0  0  0  0  0  0
   54.7320   -7.4095   -6.1944 O   0  0  0  0  0  0  0  0  0  0  0  0
   55.0990   -8.5022   -4.0515 O   0  0  0  0  0  0  0  0  0  0  0  0
   56.2257   -6.1621   -4.4281 C   0  0  0  0  0  0  0  0  0  0  0  0
   55.9469   -5.1228   -3.3914 C   0  0  0  0  0  0  0  0  0  0  0  0
   57.4824   -6.9423   -4.2312 C   0  0  0  0  0  0  0  0  0  0  0  0
   56.9150   -4.5524   -8.3070 C   0  0  0  0  0  0  0  0  0  0  0  0
   58.0287   -5.3667   -8.2143 C   0  0  0  0  0  0  0  0  0  0  0  0
   58.7521   -5.7377   -9.3259 C   0  0  0  0  0  0  0  0  0  0  0  0
   58.3053   -5.2538  -10.5314 C   0  0  0  0  0  0  0  0  0  0  0  0
   57.1837   -4.4287  -10.6605 C   0  0  0  0  0  0  0  0  0  0  0  0
   56.4669   -4.0623   -9.5493 C   0  0  0  0  0  0  0  0  0  0  0  0
   59.8977   -6.5867   -9.2148 N   0  0  0  0  0  0  0  0  0  0  0  0
   60.9638   -6.1765   -8.3666 C   0  0  0  0  0  0  0  0  0  0  0  0
   61.9658   -7.2377   -8.0080 C   0  0  0  0  0  0  0  0  0  0  0  0
   62.3678   -8.1160   -9.1448 C   0  0  0  0  0  0  0  0  0  0  0  0
   61.4256   -8.0211  -10.3282 C   0  0  0  0  0  0  0  0  0  0  0  0
   59.9990   -7.8314   -9.9382 C   0  0  0  0  0  0  0  0  0  0  0  0
   62.6175   -9.4730   -8.8625 N   0  0  0  0  0  0  0  0  0  0  0  0
   62.4879   -9.9404   -7.5457 C   0  0  0  0  0  0  0  0  0  0  0  0
   63.1689  -11.3058   -7.4162 C   0  0  0  0  0  0  0  0  0  0  0  0
   62.7846  -12.1021   -8.5654 N   0  0  0  0  0  0  0  0  0  0  0  0
   61.4223  -12.5302   -8.5534 C   0  0  0  0  0  0  0  0  0  0  0  0
   63.2550  -11.5708   -9.8038 C   0  0  0  0  0  0  0  0  0  0  0  0
   63.6611  -10.1131   -9.5973 C   0  0  0  0  0  0  0  0  0  0  0  0
   56.6727   -3.1113   -6.3934 C   0  0  0  0  0  0  0  0  0  0  0  0
   56.2330   -4.2178   -7.1474 O   0  0  0  0  0  0  0  0  0  0  0  0
 43 44  1  0  0  0
 44 24  1  0  0  0
 24 25  2  0  0  0
 25 26  1  0  0  0
 26 27  2  0  0  0
 27 28  1  0  0  0
 28 29  2  0  0  0
 29  1  1  0  0  0
  1  3  1  0  0  0
  3  4  2  0  0  0
  4  5  1  0  0  0
  5  6  2  0  0  0
  6  7  1  0  0  0
  6  8  1  0  0  0
  8 10  1  0  0  0
 10 12  1  0  0  0
 12 13  2  0  0  0
 13 14  1  0  0  0
 14 15  2  0  0  0
 15 16  1  0  0  0
 16 17  2  0  0  0
 17 18  1  0  0  0
 18 19  2  0  0  0
 18 20  2  0  0  0
 18 21  1  0  0  0
 21 22  1  0  0  0
 21 23  1  0  0  0
  8  9  2  0  0  0
 26 30  1  0  0  0
 30 31  1  0  0  0
 31 32  1  0  0  0
 32 33  1  0  0  0
 33 34  1  0  0  0
 34 35  1  0  0  0
 33 36  1  0  0  0
 36 37  1  0  0  0
 37 38  1  0  0  0
 38 39  1  0  0  0
 39 40  1  0  0  0
 39 41  1  0  0  0
 41 42  1  0  0  0
 29 24  1  0  0  0
  9  3  1  0  0  0
 35 30  1  0  0  0
 42 36  1  0  0  0
 17 12  1  0  0  0
  1  2  1  0  0  0
 10 11  1  0  0  0
M  END
> <minimizedAffinity>
-8.22236

> <CNNscore>
0.7682594061

> <CNNaffinity>
7.9026174545

> <CNN_VS>
6.0712599754

> <CNNaffinity_variance>
0.0818732232

$$$$
[H]c1nc(N([H])c2c([H])c([H])c(N3C([H])([H])C([H])([H])C([H])(N4C([H])([H])C([H])([H])N(C([H])([H])[H])C([H])([H])C4([H])[H])C([H])([H])C3([H])[H])c([H])c2OC([H])([H])[H])nc(N([H])c2c([H])c([H])c([H])c([H])c2S(=O)(=O)C([H])(C([H])([H])[H])C([H])([H])[H])c1Cl


 44 48  0  0  0  0  0  0  0  0999 V2000
   54.4406   -3.2901   -9.9103 N   0  0  0  0  0  0  0  0  0  0  0  0
   54.2791   -2.6669  -10.7802 H   0  0  0  0  0  0  0  0  0  0  0  0
   53.3703   -3.3537   -8.9791 C   0  0  0  0  0  0  0  0  0  0  0  0
   52.3526   -2.4941   -8.8869 N   0  0  0  0  0  0  0  0  0  0  0  0
   51.3725   -2.6145   -7.9828 C   0  0  0  0  0  0  0  0  0  0  0  0
   51.3865   -3.6629   -7.0929 C   0  0  0  0  0  0  0  0  0  0  0  0
   50.1059   -3.8376   -5.8971 Cl  0  0  0  0  0  0  0  0  0  0  0  0
   52.4507   -4.5851   -7.1693 C   0  0  0  0  0  0  0  0  0  0  0  0
   53.3793   -4.3786   -8.1052 N   0  0  0  0  0  0  0  0  0  0  0  0
   52.4403   -5.6465   -6.2513 N   0  0  0  0  0  0  0  0  0  0  0  0
   51.4668   -6.0515   -6.0532 H   0  0  0  0  0  0  0  0  0  0  0  0
   53.4751   -6.2764   -5.5436 C   0  0  0  0  0  0  0  0  0  0  0  0
   54.6417   -6.6241   -6.1912 C   0  0  0  0  0  0  0  0  0  0  0  0
   55.6834   -7.2552   -5.4992 C   0  0  0  0  0  0  0  0  0  0  0  0
   55.5297   -7.5230   -4.1720 C   0  0  0  0  0  0  0  0  0  0  0  0
   54.3639   -7.1745   -3.5283 C   0  0  0  0  0  0  0  0  0  0  0  0
   53.3292   -6.5564   -4.1805 C   0  0  0  0  0  0  0  0  0  0  0  0
   51.8838   -6.1278   -3.3637 S   0  0  0  0  0  0  0  0  0  0  0  0
   50.6884   -6.5776   -4.1656 O   0  0  0  0  0  0  0  0  0  0  0  0
   51.7285   -4.6576   -3.0920 O   0  0  0  0  0  0  0  0  0  0  0  0
   51.7308   -6.9298   -1.7789 C   0  0  0  0  0  0  0  0  0  0  0  0
   51.6014   -8.4094   -1.9417 C   0  0  0  0  0  0  0  0  0  0  0  0
   52.7493   -6.4814   -0.7847 C   0  0  0  0  0  0  0  0  0  0  0  0
   56.3487   -3.9651   -8.6158 C   0  0  0  0  0  0  0  0  0  0  0  0
   57.5820   -4.5750   -8.4772 C   0  0  0  0  0  0  0  0  0  0  0  0
   58.2201   -5.1735   -9.5407 C   0  0  0  0  0  0  0  0  0  0  0  0
   57.5631   -5.1308  -10.7464 C   0  0  0  0  0  0  0  0  0  0  0  0
   56.3162   -4.5225  -10.9212 C   0  0  0  0  0  0  0  0  0  0  0  0
   55.6852   -3.9276   -9.8577 C   0  0  0  0  0  0  0  0  0  0  0  0
   59.4923   -5.8070   -9.3801 N   0  0  0  0  0  0  0  0  0  0  0  0
   60.2774   -6.0517  -10.5411 C   0  0  0  0  0  0  0  0  0  0  0  0
   61.7231   -6.3845  -10.3005 C   0  0  0  0  0  0  0  0  0  0  0  0
   61.9588   -7.3292   -9.1704 C   0  0  0  0  0  0  0  0  0  0  0  0
   60.7581   -7.4704   -8.2564 C   0  0  0  0  0  0  0  0  0  0  0  0
   59.9898   -6.2041   -8.0848 C   0  0  0  0  0  0  0  0  0  0  0  0
   63.1130   -7.1327   -8.3875 N   0  0  0  0  0  0  0  0  0  0  0  0
   63.6999   -5.8593   -8.3287 C   0  0  0  0  0  0  0  0  0  0  0  0
   65.1161   -5.9727   -7.7574 C   0  0  0  0  0  0  0  0  0  0  0  0
   65.0602   -6.8570   -6.6096 N   0  0  0  0  0  0  0  0  0  0  0  0
   64.4040   -6.2990   -5.4705 C   0  0  0  0  0  0  0  0  0  0  0  0
   64.6887   -8.1940   -6.9438 C   0  0  0  0  0  0  0  0  0  0  0  0
   64.0579   -8.2018   -8.3347 C   0  0  0  0  0  0  0  0  0  0  0  0
   56.3888   -3.5250   -6.2489 C   0  0  0  0  0  0  0  0  0  0  0  0
   55.7626   -3.3816   -7.5033 O   0  0  0  0  0  0  0  0  0  0  0  0
 43 44  1  0  0  0
 44 24  1  0  0  0
 24 25  2  0  0  0
 25 26  1  0  0  0
 26 27  2  0  0  0
 27 28  1  0  0  0
 28 29  2  0  0  0
 29  1  1  0  0  0
  1  3  1  0  0  0
  3  4  2  0  0  0
  4  5  1  0  0  0
  5  6  2  0  0  0
  6  7  1  0  0  0
  6  8  1  0  0  0
  8 10  1  0  0  0
 10 12  1  0  0  0
 12 13  2  0  0  0
 13 14  1  0  0  0
 14 15  2  0  0  0
 15 16  1  0  0  0
 16 17  2  0  0  0
 17 18  1  0  0  0
 18 19  2  0  0  0
 18 20  2  0  0  0
 18 21  1  0  0  0
 21 22  1  0  0  0
 21 23  1  0  0  0
  8  9  2  0  0  0
 26 30  1  0  0  0
 30 31  1  0  0  0
 31 32  1  0  0  0
 32 33  1  0  0  0
 33 34  1  0  0  0
 34 35  1  0  0  0
 33 36  1  0  0  0
 36 37  1  0  0  0
 37 38  1  0  0  0
 38 39  1  0  0  0
 39 40  1  0  0  0
 39 41  1  0  0  0
 41 42  1  0  0  0
 29 24  1  0  0  0
  9  3  1  0  0  0
 35 30  1  0  0  0
 42 36  1  0  0  0
 17 12  1  0  0  0
  1  2  1  0  0  0
 10 11  1  0  0  0
M  END
> <minimizedAffinity>
-7.66586

> <CNNscore>
0.7144402862

> <CNNaffinity>
7.9639549255

> <CNN_VS>
5.6897702217

> <CNNaffinity_variance>
0.0261221416

$$$$
[H]c1nc(N([H])c2c([H])c([H])c(N3C([H])([H])C([H])([H])C([H])(N4C([H])([H])C([H])([H])N(C([H])([H])[H])C([H])([H])C4([H])[H])C([H])([H])C3([H])[H])c([H])c2OC([H])([H])[H])nc(N([H])c2c([H])c([H])c([H])c([H])c2S(=O)(=O)C([H])(C([H])([H])[H])C([H])([H])[H])c1Cl


 44 48  0  0  0  0  0  0  0  0999 V2000
   54.9516   -3.6523   -9.2162 N   0  0  0  0  0  0  0  0  0  0  0  0
   54.8182   -2.9220  -10.0037 H   0  0  0  0  0  0  0  0  0  0  0  0
   53.8340   -3.8676   -8.3669 C   0  0  0  0  0  0  0  0  0  0  0  0
   52.6512   -3.2532   -8.4484 N   0  0  0  0  0  0  0  0  0  0  0  0
   51.6361   -3.5058   -7.6128 C   0  0  0  0  0  0  0  0  0  0  0  0
   51.7879   -4.4373   -6.6125 C   0  0  0  0  0  0  0  0  0  0  0  0
   50.4639   -4.7829   -5.5043 Cl  0  0  0  0  0  0  0  0  0  0  0  0
   53.0278   -5.1006   -6.5048 C   0  0  0  0  0  0  0  0  0  0  0  0
   53.9774   -4.7789   -7.3856 N   0  0  0  0  0  0  0  0  0  0  0  0
   53.1559   -6.0476   -5.4771 N   0  0  0  0  0  0  0  0  0  0  0  0
   52.2329   -6.5068   -5.1801 H   0  0  0  0  0  0  0  0  0  0  0  0
   54.2754   -6.5046   -4.7657 C   0  0  0  0  0  0  0  0  0  0  0  0
   55.4681   -6.7232   -5.4222 C   0  0  0  0  0  0  0  0  0  0  0  0
   56.5944   -7.1811   -4.7264 C   0  0  0  0  0  0  0  0  0  0  0  0
   56.4972   -7.4094   -3.3866 C   0  0  0  0  0  0  0  0  0  0  0  0
   55.3052   -7.1901   -2.7339 C   0  0  0  0  0  0  0  0  0  0  0  0
   54.1882   -6.7424   -3.3895 C   0  0  0  0  0  0  0  0  0  0  0  0
   52.7110   -6.4730   -2.5616 S   0  0  0  0  0  0  0  0  0  0  0  0
   51.5846   -7.1713   -3.2812 O   0  0  0  0  0  0  0  0  0  0  0  0
   52.3320   -5.0266   -2.4080 O   0  0  0  0  0  0  0  0  0  0  0  0
   52.7199   -7.1469   -0.9111 C   0  0  0  0  0  0  0  0  0  0  0  0
   53.2649   -6.1558    0.0653 C   0  0  0  0  0  0  0  0  0  0  0  0
   51.4282   -7.7852   -0.5224 C   0  0  0  0  0  0  0  0  0  0  0  0
   56.8232   -4.5804  -10.4028 C   0  0  0  0  0  0  0  0  0  0  0  0
   58.0673   -5.1821  -10.4512 C   0  0  0  0  0  0  0  0  0  0  0  0
   58.7673   -5.4964   -9.3077 C   0  0  0  0  0  0  0  0  0  0  0  0
   58.1609   -5.1786   -8.1167 C   0  0  0  0  0  0  0  0  0  0  0  0
   56.9045   -4.5704   -8.0321 C   0  0  0  0  0  0  0  0  0  0  0  0
   56.2116   -4.2597   -9.1751 C   0  0  0  0  0  0  0  0  0  0  0  0
   60.0566   -6.1120   -9.3740 N   0  0  0  0  0  0  0  0  0  0  0  0
   60.7150   -6.1686  -10.6339 C   0  0  0  0  0  0  0  0  0  0  0  0
   62.1820   -6.4934  -10.5965 C   0  0  0  0  0  0  0  0  0  0  0  0
   62.5487   -7.5819   -9.6449 C   0  0  0  0  0  0  0  0  0  0  0  0
   61.4549   -7.8833   -8.6399 C   0  0  0  0  0  0  0  0  0  0  0  0
   60.6950   -6.6752   -8.2085 C   0  0  0  0  0  0  0  0  0  0  0  0
   63.7780   -7.4676   -8.9671 N   0  0  0  0  0  0  0  0  0  0  0  0
   64.3169   -6.1951   -8.7228 C   0  0  0  0  0  0  0  0  0  0  0  0
   65.7937   -6.3278   -8.3402 C   0  0  0  0  0  0  0  0  0  0  0  0
   65.9078   -7.4164   -7.3892 N   0  0  0  0  0  0  0  0  0  0  0  0
   65.3682   -7.1272   -6.0990 C   0  0  0  0  0  0  0  0  0  0  0  0
   65.5529   -8.6854   -7.9376 C   0  0  0  0  0  0  0  0  0  0  0  0
   64.7642   -8.4668   -9.2270 C   0  0  0  0  0  0  0  0  0  0  0  0
   56.9410   -3.9265  -12.7171 C   0  0  0  0  0  0  0  0  0  0  0  0
   56.1736   -4.2914  -11.5928 O   0  0  0  0  0  0  0  0  0  0  0  0
 43 44  1  0  0  0
 44 24  1  0  0  0
 24 25  2  0  0  0
 25 26  1  0  0  0
 26 27  2  0  0  0
 27 28  1  0  0  0
 28 29  2  0  0  0
 29  1  1  0  0  0
  1  3  1  0  0  0
  3  4  2  0  0  0
  4  5  1  0  0  0
  5  6  2  0  0  0
  6  7  1  0  0  0
  6  8  1  0  0  0
  8 10  1  0  0  0
 10 12  1  0  0  0
 12 13  2  0  0  0
 13 14  1  0  0  0
 14 15  2  0  0  0
 15 16  1  0  0  0
 16 17  2  0  0  0
 17 18  1  0  0  0
 18 19  2  0  0  0
 18 20  2  0  0  0
 18 21  1  0  0  0
 21 22  1  0  0  0
 21 23  1  0  0  0
  8  9  2  0  0  0
 26 30  1  0  0  0
 30 31  1  0  0  0
 31 32  1  0  0  0
 32 33  1  0  0  0
 33 34  1  0  0  0
 34 35  1  0  0  0
 33 36  1  0  0  0
 36 37  1  0  0  0
 37 38  1  0  0  0
 38 39  1  0  0  0
 39 40  1  0  0  0
 39 41  1  0  0  0
 41 42  1  0  0  0
 29 24  1  0  0  0
  9  3  1  0  0  0
 35 30  1  0  0  0
 42 36  1  0  0  0
 17 12  1  0  0  0
  1  2  1  0  0  0
 10 11  1  0  0  0
M  END
> <minimizedAffinity>
-8.00919

> <CNNscore>
0.5147708654

> <CNNaffinity>
7.7299895287

> <CNN_VS>
3.9791734219

> <CNNaffinity_variance>
0.0744245499

$$$$
[H]c1c([H])c([C@]2([H])C([H])([H])N(S(=O)(=O)C([H])([H])[H])C([H])([H])[C@@]2([H])N([H])C(=O)c2c([H])c(OC([H])([H])[H])c(OC([H])([H])[H])c(OC([H])([H])[H])c2[H])c([H])c(F)c1F


 33 35  0  0  0  0  0  0  0  0999 V2000
   61.7538   -4.9732  -12.7597 C   0  0  0  0  0  0  0  0  0  0  0  0
   60.4588   -4.8098  -11.9686 C   0  0  0  0  0  0  0  0  0  0  0  0
   59.8168   -3.6378  -12.4818 N   0  0  0  0  0  0  0  0  0  0  0  0
   60.5129   -3.2222  -13.6599 C   0  0  0  0  0  0  0  0  0  0  0  0
   61.3207   -4.4266  -14.1001 C   0  0  0  0  0  0  0  0  0  0  0  0
   62.4544   -3.9263  -14.9023 C   0  0  0  0  0  0  0  0  0  0  0  0
   63.0801   -4.6464  -15.8795 C   0  0  0  0  0  0  0  0  0  0  0  0
   64.1478   -4.1140  -16.6020 C   0  0  0  0  0  0  0  0  0  0  0  0
   64.5844   -2.8373  -16.3295 C   0  0  0  0  0  0  0  0  0  0  0  0
   65.6283   -2.2728  -17.0126 F   0  0  0  0  0  0  0  0  0  0  0  0
   63.9712   -2.0886  -15.3488 C   0  0  0  0  0  0  0  0  0  0  0  0
   64.3501   -0.8234  -15.0280 F   0  0  0  0  0  0  0  0  0  0  0  0
   62.9033   -2.6493  -14.6413 C   0  0  0  0  0  0  0  0  0  0  0  0
   62.9441   -6.9117  -11.8228 C   0  0  0  0  0  0  0  0  0  0  0  0
   63.4480   -6.1169  -10.9540 O   0  0  0  0  0  0  0  0  0  0  0  0
   62.0496   -6.3733  -12.7956 N   0  0  0  0  0  0  0  0  0  0  0  0
   61.6356   -7.0212  -13.5083 H   0  0  0  0  0  0  0  0  0  0  0  0
   63.4489  -10.3986  -10.5922 C   0  0  0  0  0  0  0  0  0  0  0  0
   63.0754   -9.0509  -10.6353 C   0  0  0  0  0  0  0  0  0  0  0  0
   63.3169   -8.2919  -11.7549 C   0  0  0  0  0  0  0  0  0  0  0  0
   63.9330   -8.9029  -12.8183 C   0  0  0  0  0  0  0  0  0  0  0  0
   64.3105  -10.2349  -12.7961 C   0  0  0  0  0  0  0  0  0  0  0  0
   64.0668  -10.9931  -11.6715 C   0  0  0  0  0  0  0  0  0  0  0  0
   61.9233  -11.7619   -9.2781 C   0  0  0  0  0  0  0  0  0  0  0  0
   63.1907  -11.1522   -9.4354 O   0  0  0  0  0  0  0  0  0  0  0  0
   64.9348  -10.8527  -13.8747 O   0  0  0  0  0  0  0  0  0  0  0  0
   64.1872  -11.4687  -14.9129 C   0  0  0  0  0  0  0  0  0  0  0  0
   64.4365  -12.3469  -11.6148 O   0  0  0  0  0  0  0  0  0  0  0  0
   65.6988  -12.6738  -11.0460 C   0  0  0  0  0  0  0  0  0  0  0  0
   58.1564   -3.9078  -12.8920 S   0  0  0  0  0  0  0  0  0  0  0  0
   57.0780   -2.9297  -11.8801 C   0  0  0  0  0  0  0  0  0  0  0  0
   57.8810   -5.3685  -12.6782 O   0  0  0  0  0  0  0  0  0  0  0  0
   57.9283   -3.5220  -14.3208 O   0  0  0  0  0  0  0  0  0  0  0  0
 24 25  1  0  0  0
 25 18  1  0  0  0
 18 19  2  0  0  0
 19 20  1  0  0  0
 20 21  2  0  0  0
 21 22  1  0  0  0
 22 26  1  0  0  0
 26 27  1  0  0  0
 22 23  2  0  0  0
 23 28  1  0  0  0
 28 29  1  0  0  0
 20 14  1  0  0  0
 14 15  2  0  0  0
 14 16  1  0  0  0
 16  1  1  0  0  0
  1  2  1  0  0  0
  2  3  1  0  0  0
  3  4  1  0  0  0
  4  5  1  0  0  0
  5  6  1  0  0  0
  6  7  2  0  0  0
  7  8  1  0  0  0
  8  9  2  0  0  0
  9 10  1  0  0  0
  9 11  1  0  0  0
 11 12  1  0  0  0
 11 13  2  0  0  0
  3 30  1  0  0  0
 30 31  1  0  0  0
 30 32  2  0  0  0
 30 33  2  0  0  0
 23 18  1  0  0  0
  5  1  1  0  0  0
 13  6  1  0  0  0
 16 17  1  0  0  0
M  END
> <minimizedAffinity>
-0.50661

> <CNNscore>
0.4727931619

> <CNNaffinity>
4.9374451637

> <CNN_VS>
2.3343904018

> <CNNaffinity_variance>
0.6159589887

$$$$
[H]c1c([H])c([C@]2([H])C([H])([H])N(S(=O)(=O)C([H])([H])[H])C([H])([H])[C@@]2([H])N([H])C(=O)c2c([H])c(OC([H])([H])[H])c(OC([H])([H])[H])c(OC([H])([H])[H])c2[H])c([H])c(F)c1F


 33 35  0  0  0  0  0  0  0  0999 V2000
   59.3433   -8.3108   -3.4312 C   0  0  0  0  0  0  0  0  0  0  0  0
   58.4032   -7.1095   -3.4804 C   0  0  0  0  0  0  0  0  0  0  0  0
   57.7078   -7.0891   -2.2294 N   0  0  0  0  0  0  0  0  0  0  0  0
   58.3192   -8.0446   -1.3586 C   0  0  0  0  0  0  0  0  0  0  0  0
   59.6818   -8.3272   -1.9588 C   0  0  0  0  0  0  0  0  0  0  0  0
   60.1016   -9.6617   -1.4877 C   0  0  0  0  0  0  0  0  0  0  0  0
   59.2553  -10.7221   -1.3321 C   0  0  0  0  0  0  0  0  0  0  0  0
   59.7171  -11.9589   -0.8820 C   0  0  0  0  0  0  0  0  0  0  0  0
   61.0518  -12.1204   -0.5870 C   0  0  0  0  0  0  0  0  0  0  0  0
   61.5508  -13.3156   -0.1423 F   0  0  0  0  0  0  0  0  0  0  0  0
   61.9278  -11.0673   -0.7350 C   0  0  0  0  0  0  0  0  0  0  0  0
   63.2563  -11.1565   -0.4625 F   0  0  0  0  0  0  0  0  0  0  0  0
   61.4355   -9.8395   -1.1881 C   0  0  0  0  0  0  0  0  0  0  0  0
   61.0761   -9.0438   -5.0165 C   0  0  0  0  0  0  0  0  0  0  0  0
   60.5897  -10.2249   -4.9220 O   0  0  0  0  0  0  0  0  0  0  0  0
   60.4676   -7.9978   -4.2602 N   0  0  0  0  0  0  0  0  0  0  0  0
   60.8636   -7.0299   -4.3353 H   0  0  0  0  0  0  0  0  0  0  0  0
   63.9557   -9.7131   -7.2942 C   0  0  0  0  0  0  0  0  0  0  0  0
   62.8567   -9.9204   -6.4535 C   0  0  0  0  0  0  0  0  0  0  0  0
   62.2024   -8.8570   -5.8797 C   0  0  0  0  0  0  0  0  0  0  0  0
   62.6656   -7.5963   -6.1618 C   0  0  0  0  0  0  0  0  0  0  0  0
   63.7512   -7.3694   -6.9910 C   0  0  0  0  0  0  0  0  0  0  0  0
   64.4050   -8.4383   -7.5646 C   0  0  0  0  0  0  0  0  0  0  0  0
   64.3235  -12.1152   -7.3797 C   0  0  0  0  0  0  0  0  0  0  0  0
   64.6069  -10.8174   -7.8678 O   0  0  0  0  0  0  0  0  0  0  0  0
   64.2194   -6.0909   -7.2759 O   0  0  0  0  0  0  0  0  0  0  0  0
   65.3637   -5.5568   -6.6267 C   0  0  0  0  0  0  0  0  0  0  0  0
   65.5094   -8.2444   -8.4104 O   0  0  0  0  0  0  0  0  0  0  0  0
   65.2845   -8.2346   -9.8150 C   0  0  0  0  0  0  0  0  0  0  0  0
   57.7547   -5.5379   -1.4613 S   0  0  0  0  0  0  0  0  0  0  0  0
   56.6409   -4.4010   -2.2425 C   0  0  0  0  0  0  0  0  0  0  0  0
   59.1656   -5.0347   -1.5689 O   0  0  0  0  0  0  0  0  0  0  0  0
   57.3431   -5.6800   -0.0285 O   0  0  0  0  0  0  0  0  0  0  0  0
 24 25  1  0  0  0
 25 18  1  0  0  0
 18 19  2  0  0  0
 19 20  1  0  0  0
 20 21  2  0  0  0
 21 22  1  0  0  0
 22 26  1  0  0  0
 26 27  1  0  0  0
 22 23  2  0  0  0
 23 28  1  0  0  0
 28 29  1  0  0  0
 20 14  1  0  0  0
 14 15  2  0  0  0
 14 16  1  0  0  0
 16  1  1  0  0  0
  1  2  1  0  0  0
  2  3  1  0  0  0
  3  4  1  0  0  0
  4  5  1  0  0  0
  5  6  1  0  0  0
  6  7  2  0  0  0
  7  8  1  0  0  0
  8  9  2  0  0  0
  9 10  1  0  0  0
  9 11  1  0  0  0
 11 12  1  0  0  0
 11 13  2  0  0  0
  3 30  1  0  0  0
 30 31  1  0  0  0
 30 32  2  0  0  0
 30 33  2  0  0  0
 23 18  1  0  0  0
  5  1  1  0  0  0
 13  6  1  0  0  0
 16 17  1  0  0  0
M  END
> <minimizedAffinity>
-3.35561

> <CNNscore>
0.4248043299

> <CNNaffinity>
5.4156842232

> <CNN_VS>
2.3006060123

> <CNNaffinity_variance>
0.9045156240

$$$$
[H]c1c([H])c([C@]2([H])C([H])([H])N(S(=O)(=O)C([H])([H])[H])C([H])([H])[C@@]2([H])N([H])C(=O)c2c([H])c(OC([H])([H])[H])c(OC([H])([H])[H])c(OC([H])([H])[H])c2[H])c([H])c(F)c1F


 33 35  0  0  0  0  0  0  0  0999 V2000
   58.0178   -3.6473  -10.2682 C   0  0  0  0  0  0  0  0  0  0  0  0
   57.3755   -3.5958   -8.8846 C   0  0  0  0  0  0  0  0  0  0  0  0
   55.9935   -3.2860   -9.0919 N   0  0  0  0  0  0  0  0  0  0  0  0
   55.7180   -3.3708  -10.4926 C   0  0  0  0  0  0  0  0  0  0  0  0
   56.8595   -4.1743  -11.0828 C   0  0  0  0  0  0  0  0  0  0  0  0
   56.9591   -3.8134  -12.5107 C   0  0  0  0  0  0  0  0  0  0  0  0
   55.8884   -3.7046  -13.3513 C   0  0  0  0  0  0  0  0  0  0  0  0
   56.0516   -3.3593  -14.6929 C   0  0  0  0  0  0  0  0  0  0  0  0
   57.3147   -3.1220  -15.1856 C   0  0  0  0  0  0  0  0  0  0  0  0
   57.5237   -2.7803  -16.4950 F   0  0  0  0  0  0  0  0  0  0  0  0
   58.4126   -3.2248  -14.3595 C   0  0  0  0  0  0  0  0  0  0  0  0
   59.6865   -3.0046  -14.7789 F   0  0  0  0  0  0  0  0  0  0  0  0
   58.2176   -3.5727  -13.0193 C   0  0  0  0  0  0  0  0  0  0  0  0
   59.1019   -5.5589   -9.1623 C   0  0  0  0  0  0  0  0  0  0  0  0
   58.1122   -5.5838   -8.3497 O   0  0  0  0  0  0  0  0  0  0  0  0
   59.1110   -4.5681  -10.1892 N   0  0  0  0  0  0  0  0  0  0  0  0
   59.9198   -4.5449  -10.8558 H   0  0  0  0  0  0  0  0  0  0  0  0
   61.2174   -8.2621   -7.6976 C   0  0  0  0  0  0  0  0  0  0  0  0
   60.1986   -7.3159   -7.8530 C   0  0  0  0  0  0  0  0  0  0  0  0
   60.1345   -6.5333   -8.9806 C   0  0  0  0  0  0  0  0  0  0  0  0
   61.1003   -6.7156   -9.9385 C   0  0  0  0  0  0  0  0  0  0  0  0
   62.1168   -7.6462   -9.8043 C   0  0  0  0  0  0  0  0  0  0  0  0
   62.1780   -8.4292   -8.6720 C   0  0  0  0  0  0  0  0  0  0  0  0
   62.2851   -8.8221   -5.5859 C   0  0  0  0  0  0  0  0  0  0  0  0
   61.2602   -9.0491   -6.5351 O   0  0  0  0  0  0  0  0  0  0  0  0
   63.0950   -7.8297  -10.7761 O   0  0  0  0  0  0  0  0  0  0  0  0
   63.0618   -7.1220  -12.0067 C   0  0  0  0  0  0  0  0  0  0  0  0
   63.1953   -9.3827   -8.5032 O   0  0  0  0  0  0  0  0  0  0  0  0
   62.8763  -10.7505   -8.7293 C   0  0  0  0  0  0  0  0  0  0  0  0
   54.9310   -4.3688   -8.2572 S   0  0  0  0  0  0  0  0  0  0  0  0
   54.1693   -5.5119   -9.3781 C   0  0  0  0  0  0  0  0  0  0  0  0
   53.8831   -3.5284   -7.5855 O   0  0  0  0  0  0  0  0  0  0  0  0
   55.7132   -5.1562   -7.2519 O   0  0  0  0  0  0  0  0  0  0  0  0
 24 25  1  0  0  0
 25 18  1  0  0  0
 18 19  2  0  0  0
 19 20  1  0  0  0
 20 21  2  0  0  0
 21 22  1  0  0  0
 22 26  1  0  0  0
 26 27  1  0  0  0
 22 23  2  0  0  0
 23 28  1  0  0  0
 28 29  1  0  0  0
 20 14  1  0  0  0
 14 15  2  0  0  0
 14 16  1  0  0  0
 16  1  1  0  0  0
  1  2  1  0  0  0
  2  3  1  0  0  0
  3  4  1  0  0  0
  4  5  1  0  0  0
  5  6  1  0  0  0
  6  7  2  0  0  0
  7  8  1  0  0  0
  8  9  2  0  0  0
  9 10  1  0  0  0
  9 11  1  0  0  0
 11 12  1  0  0  0
 11 13  2  0  0  0
  3 30  1  0  0  0
 30 31  1  0  0  0
 30 32  2  0  0  0
 30 33  2  0  0  0
 23 18  1  0  0  0
  5  1  1  0  0  0
 13  6  1  0  0  0
 16 17  1  0  0  0
M  END
> <minimizedAffinity>
2.14470

> <CNNscore>
0.4223257601

> <CNNaffinity>
5.4405126572

> <CNN_VS>
2.2976686954

> <CNNaffinity_variance>
0.7107204199

$$$$
[H]c1c([H])c([C@]2([H])C([H])([H])N(S(=O)(=O)C([H])([H])[H])C([H])([H])[C@@]2([H])N([H])C(=O)c2c([H])c(OC([H])([H])[H])c(OC([H])([H])[H])c(OC([H])([H])[H])c2[H])c([H])c(F)c1F


 33 35  0  0  0  0  0  0  0  0999 V2000
   61.7158   -7.5850   -8.5280 C   0  0  0  0  0  0  0  0  0  0  0  0
   61.4377   -8.9517   -9.1479 C   0  0  0  0  0  0  0  0  0  0  0  0
   62.4938   -9.8148   -8.7136 N   0  0  0  0  0  0  0  0  0  0  0  0
   63.2492   -9.1322   -7.7094 C   0  0  0  0  0  0  0  0  0  0  0  0
   62.3578   -8.0057   -7.2266 C   0  0  0  0  0  0  0  0  0  0  0  0
   63.2355   -6.9611   -6.6629 C   0  0  0  0  0  0  0  0  0  0  0  0
   63.4742   -6.7972   -5.3284 C   0  0  0  0  0  0  0  0  0  0  0  0
   64.3158   -5.7881   -4.8606 C   0  0  0  0  0  0  0  0  0  0  0  0
   64.9212   -4.9370   -5.7571 C   0  0  0  0  0  0  0  0  0  0  0  0
   65.7550   -3.9322   -5.3446 F   0  0  0  0  0  0  0  0  0  0  0  0
   64.6978   -5.0797   -7.1092 C   0  0  0  0  0  0  0  0  0  0  0  0
   65.2620   -4.2759   -8.0487 F   0  0  0  0  0  0  0  0  0  0  0  0
   63.8491   -6.1007   -7.5480 C   0  0  0  0  0  0  0  0  0  0  0  0
   59.9142   -6.1631   -9.4142 C   0  0  0  0  0  0  0  0  0  0  0  0
   60.5907   -6.0705  -10.4978 O   0  0  0  0  0  0  0  0  0  0  0  0
   60.4500   -6.9419   -8.3452 N   0  0  0  0  0  0  0  0  0  0  0  0
   59.8987   -7.0195   -7.4568 H   0  0  0  0  0  0  0  0  0  0  0  0
   56.8366   -4.4955   -8.1199 C   0  0  0  0  0  0  0  0  0  0  0  0
   58.0619   -5.1700   -8.1546 C   0  0  0  0  0  0  0  0  0  0  0  0
   58.6611   -5.4740   -9.3531 C   0  0  0  0  0  0  0  0  0  0  0  0
   58.0159   -5.0932  -10.5030 C   0  0  0  0  0  0  0  0  0  0  0  0
   56.8031   -4.4251  -10.4906 C   0  0  0  0  0  0  0  0  0  0  0  0
   56.2050   -4.1219   -9.2868 C   0  0  0  0  0  0  0  0  0  0  0  0
   55.9418   -5.2531   -5.9896 C   0  0  0  0  0  0  0  0  0  0  0  0
   56.2452   -4.1970   -6.8814 O   0  0  0  0  0  0  0  0  0  0  0  0
   56.1504   -4.0397  -11.6570 O   0  0  0  0  0  0  0  0  0  0  0  0
   56.8464   -3.9007  -12.8868 C   0  0  0  0  0  0  0  0  0  0  0  0
   54.9752   -3.4453   -9.2375 O   0  0  0  0  0  0  0  0  0  0  0  0
   53.7867   -4.2210   -9.1393 C   0  0  0  0  0  0  0  0  0  0  0  0
   61.9121  -11.3028   -8.0460 S   0  0  0  0  0  0  0  0  0  0  0  0
   61.8226  -12.5698   -9.2830 C   0  0  0  0  0  0  0  0  0  0  0  0
   60.5456  -11.0308   -7.4859 O   0  0  0  0  0  0  0  0  0  0  0  0
   62.8492  -11.7666   -6.9739 O   0  0  0  0  0  0  0  0  0  0  0  0
 24 25  1  0  0  0
 25 18  1  0  0  0
 18 19  2  0  0  0
 19 20  1  0  0  0
 20 21  2  0  0  0
 21 22  1  0  0  0
 22 26  1  0  0  0
 26 27  1  0  0  0
 22 23  2  0  0  0
 23 28  1  0  0  0
 28 29  1  0  0  0
 20 14  1  0  0  0
 14 15  2  0  0  0
 14 16  1  0  0  0
 16  1  1  0  0  0
  1  2  1  0  0  0
  2  3  1  0  0  0
  3  4  1  0  0  0
  4  5  1  0  0  0
  5  6  1  0  0  0
  6  7  2  0  0  0
  7  8  1  0  0  0
  8  9  2  0  0  0
  9 10  1  0  0  0
  9 11  1  0  0  0
 11 12  1  0  0  0
 11 13  2  0  0  0
  3 30  1  0  0  0
 30 31  1  0  0  0
 30 32  2  0  0  0
 30 33  2  0  0  0
 23 18  1  0  0  0
  5  1  1  0  0  0
 13  6  1  0  0  0
 16 17  1  0  0  0
M  END
> <minimizedAffinity>
-7.07428

> <CNNscore>
0.4139195979

> <CNNaffinity>
5.3780722618

> <CNN_VS>
2.2260894775

> <CNNaffinity_variance>
0.2137938291

$$$$
[H]c1c([H])c([C@]2([H])C([H])([H])N(S(=O)(=O)C([H])([H])[H])C([H])([H])[C@@]2([H])N([H])C(=O)c2c([H])c(OC([H])([H])[H])c(OC([H])([H])[H])c(OC([H])([H])[H])c2[H])c([H])c(F)c1F


 33 35  0  0  0  0  0  0  0  0999 V2000
   61.8389   -7.2301   -8.1421 C   0  0  0  0  0  0  0  0  0  0  0  0
   62.6407   -6.3528   -9.0997 C   0  0  0  0  0  0  0  0  0  0  0  0
   63.6090   -7.2079   -9.7164 N   0  0  0  0  0  0  0  0  0  0  0  0
   63.3007   -8.5607   -9.3703 C   0  0  0  0  0  0  0  0  0  0  0  0
   61.8619   -8.5401   -8.8945 C   0  0  0  0  0  0  0  0  0  0  0  0
   61.6746   -9.7065   -8.0093 C   0  0  0  0  0  0  0  0  0  0  0  0
   61.6369   -9.6372   -6.6460 C   0  0  0  0  0  0  0  0  0  0  0  0
   61.4566  -10.7796   -5.8663 C   0  0  0  0  0  0  0  0  0  0  0  0
   61.3131  -12.0046   -6.4772 C   0  0  0  0  0  0  0  0  0  0  0  0
   61.1338  -13.1530   -5.7533 F   0  0  0  0  0  0  0  0  0  0  0  0
   61.3472  -12.1034   -7.8511 C   0  0  0  0  0  0  0  0  0  0  0  0
   61.2123  -13.2791   -8.5193 F   0  0  0  0  0  0  0  0  0  0  0  0
   61.5294  -10.9407   -8.6061 C   0  0  0  0  0  0  0  0  0  0  0  0
   59.9068   -6.1707   -9.2363 C   0  0  0  0  0  0  0  0  0  0  0  0
   60.5492   -6.2597  -10.3408 O   0  0  0  0  0  0  0  0  0  0  0  0
   60.5287   -6.6611   -8.0493 N   0  0  0  0  0  0  0  0  0  0  0  0
   60.0056   -6.5895   -7.1435 H   0  0  0  0  0  0  0  0  0  0  0  0
   56.7527   -4.5967  -10.4618 C   0  0  0  0  0  0  0  0  0  0  0  0
   58.0291   -5.1696  -10.4511 C   0  0  0  0  0  0  0  0  0  0  0  0
   58.6028   -5.5818   -9.2726 C   0  0  0  0  0  0  0  0  0  0  0  0
   57.8806   -5.4106   -8.1181 C   0  0  0  0  0  0  0  0  0  0  0  0
   56.6163   -4.8459   -8.1068 C   0  0  0  0  0  0  0  0  0  0  0  0
   56.0441   -4.4336   -9.2907 C   0  0  0  0  0  0  0  0  0  0  0  0
   57.0235   -3.6006  -12.6634 C   0  0  0  0  0  0  0  0  0  0  0  0
   56.1892   -4.1835  -11.6801 O   0  0  0  0  0  0  0  0  0  0  0  0
   55.8856   -4.6731   -6.9359 O   0  0  0  0  0  0  0  0  0  0  0  0
   55.1387   -5.7358   -6.3623 C   0  0  0  0  0  0  0  0  0  0  0  0
   54.7637   -3.8569   -9.3156 O   0  0  0  0  0  0  0  0  0  0  0  0
   54.6178   -2.5274   -8.8308 C   0  0  0  0  0  0  0  0  0  0  0  0
   63.6208   -7.0722  -11.4426 S   0  0  0  0  0  0  0  0  0  0  0  0
   65.1064   -7.7534  -12.1298 C   0  0  0  0  0  0  0  0  0  0  0  0
   63.5233   -5.6100  -11.7709 O   0  0  0  0  0  0  0  0  0  0  0  0
   62.4586   -7.8282  -12.0086 O   0  0  0  0  0  0  0  0  0  0  0  0
 24 25  1  0  0  0
 25 18  1  0  0  0
 18 19  2  0  0  0
 19 20  1  0  0  0
 20 21  2  0  0  0
 21 22  1  0  0  0
 22 26  1  0  0  0
 26 27  1  0  0  0
 22 23  2  0  0  0
 23 28  1  0  0  0
 28 29  1  0  0  0
 20 14  1  0  0  0
 14 15  2  0  0  0
 14 16  1  0  0  0
 16  1  1  0  0  0
  1  2  1  0  0  0
  2  3  1  0  0  0
  3  4  1  0  0  0
  4  5  1  0  0  0
  5  6  1  0  0  0
  6  7  2  0  0  0
  7  8  1  0  0  0
  8  9  2  0  0  0
  9 10  1  0  0  0
  9 11  1  0  0  0
 11 12  1  0  0  0
 11 13  2  0  0  0
  3 30  1  0  0  0
 30 31  1  0  0  0
 30 32  2  0  0  0
 30 33  2  0  0  0
 23 18  1  0  0  0
  5  1  1  0  0  0
 13  6  1  0  0  0
 16 17  1  0  0  0
M  END
> <minimizedAffinity>
-6.77936

> <CNNscore>
0.4076217413

> <CNNaffinity>
5.3411283493

> <CNN_VS>
2.1771600246

> <CNNaffinity_variance>
0.1532676816

$$$$
[H]c1c([H])c([C@]2([H])C([H])([H])N(S(=O)(=O)C([H])([H])[H])C([H])([H])[C@@]2([H])N([H])C(=O)c2c([H])c(OC([H])([H])[H])c(OC([H])([H])[H])c(OC([H])([H])[H])c2[H])c([H])c(F)c1F


 33 35  0  0  0  0  0  0  0  0999 V2000
   61.7038   -7.5901   -8.5255 C   0  0  0  0  0  0  0  0  0  0  0  0
   61.4243   -8.9504   -9.1587 C   0  0  0  0  0  0  0  0  0  0  0  0
   62.4701   -9.8233   -8.7190 N   0  0  0  0  0  0  0  0  0  0  0  0
   63.2184   -9.1530   -7.7013 C   0  0  0  0  0  0  0  0  0  0  0  0
   62.3286   -8.0244   -7.2202 C   0  0  0  0  0  0  0  0  0  0  0  0
   63.2063   -6.9896   -6.6389 C   0  0  0  0  0  0  0  0  0  0  0  0
   63.4453   -6.8485   -5.3018 C   0  0  0  0  0  0  0  0  0  0  0  0
   64.2870   -5.8475   -4.8169 C   0  0  0  0  0  0  0  0  0  0  0  0
   64.8922   -4.9812   -5.6989 C   0  0  0  0  0  0  0  0  0  0  0  0
   65.7261   -3.9835   -5.2695 F   0  0  0  0  0  0  0  0  0  0  0  0
   64.6686   -5.1009   -7.0532 C   0  0  0  0  0  0  0  0  0  0  0  0
   65.2326   -4.2812   -7.9790 F   0  0  0  0  0  0  0  0  0  0  0  0
   63.8199   -6.1142   -7.5093 C   0  0  0  0  0  0  0  0  0  0  0  0
   59.9079   -6.1736   -9.4314 C   0  0  0  0  0  0  0  0  0  0  0  0
   60.5856   -6.0971  -10.5155 O   0  0  0  0  0  0  0  0  0  0  0  0
   60.4401   -6.9405   -8.3521 N   0  0  0  0  0  0  0  0  0  0  0  0
   59.8878   -7.0048   -7.4632 H   0  0  0  0  0  0  0  0  0  0  0  0
   56.7598   -4.4460  -10.4476 C   0  0  0  0  0  0  0  0  0  0  0  0
   57.9813   -5.1241  -10.5225 C   0  0  0  0  0  0  0  0  0  0  0  0
   58.6571   -5.4795   -9.3802 C   0  0  0  0  0  0  0  0  0  0  0  0
   58.0913   -5.1461   -8.1751 C   0  0  0  0  0  0  0  0  0  0  0  0
   56.8837   -4.4754   -8.0790 C   0  0  0  0  0  0  0  0  0  0  0  0
   56.2087   -4.1204   -9.2267 C   0  0  0  0  0  0  0  0  0  0  0  0
   56.8409   -3.6384  -12.7397 C   0  0  0  0  0  0  0  0  0  0  0  0
   56.0893   -4.0939  -11.6304 O   0  0  0  0  0  0  0  0  0  0  0  0
   56.3115   -4.1381   -6.8567 O   0  0  0  0  0  0  0  0  0  0  0  0
   55.8530   -5.1314   -5.9516 C   0  0  0  0  0  0  0  0  0  0  0  0
   54.9818   -3.4394   -9.1658 O   0  0  0  0  0  0  0  0  0  0  0  0
   53.7941   -4.2095   -9.0234 C   0  0  0  0  0  0  0  0  0  0  0  0
   61.8717  -11.3126   -8.0691 S   0  0  0  0  0  0  0  0  0  0  0  0
   62.9382  -11.9315   -6.7952 C   0  0  0  0  0  0  0  0  0  0  0  0
   61.8010  -12.2928   -9.2047 O   0  0  0  0  0  0  0  0  0  0  0  0
   60.5178  -11.0854   -7.4709 O   0  0  0  0  0  0  0  0  0  0  0  0
 24 25  1  0  0  0
 25 18  1  0  0  0
 18 19  2  0  0  0
 19 20  1  0  0  0
 20 21  2  0  0  0
 21 22  1  0  0  0
 22 26  1  0  0  0
 26 27  1  0  0  0
 22 23  2  0  0  0
 23 28  1  0  0  0
 28 29  1  0  0  0
 20 14  1  0  0  0
 14 15  2  0  0  0
 14 16  1  0  0  0
 16  1  1  0  0  0
  1  2  1  0  0  0
  2  3  1  0  0  0
  3  4  1  0  0  0
  4  5  1  0  0  0
  5  6  1  0  0  0
  6  7  2  0  0  0
  7  8  1  0  0  0
  8  9  2  0  0  0
  9 10  1  0  0  0
  9 11  1  0  0  0
 11 12  1  0  0  0
 11 13  2  0  0  0
  3 30  1  0  0  0
 30 31  1  0  0  0
 30 32  2  0  0  0
 30 33  2  0  0  0
 23 18  1  0  0  0
  5  1  1  0  0  0
 13  6  1  0  0  0
 16 17  1  0  0  0
M  END
> <minimizedAffinity>
-7.15661

> <CNNscore>
0.3997953832

> <CNNaffinity>
5.3320360184

> <CNN_VS>
2.1317234039

> <CNNaffinity_variance>
0.2294355184

$$$$
[H]c1c([H])c([C@]2([H])C([H])([H])N(S(=O)(=O)C([H])([H])[H])C([H])([H])[C@@]2([H])N([H])C(=O)c2c([H])c(OC([H])([H])[H])c(OC([H])([H])[H])c(OC([H])([H])[H])c2[H])c([H])c(F)c1F


 33 35  0  0  0  0  0  0  0  0999 V2000
   55.0257   -6.4082   -5.7192 C   0  0  0  0  0  0  0  0  0  0  0  0
   55.4561   -7.2514   -4.5220 C   0  0  0  0  0  0  0  0  0  0  0  0
   56.8558   -7.5018   -4.6864 N   0  0  0  0  0  0  0  0  0  0  0  0
   57.3352   -6.6906   -5.7621 C   0  0  0  0  0  0  0  0  0  0  0  0
   56.2880   -5.6122   -5.9551 C   0  0  0  0  0  0  0  0  0  0  0  0
   56.4038   -5.1306   -7.3458 C   0  0  0  0  0  0  0  0  0  0  0  0
   57.5083   -5.3062   -8.1293 C   0  0  0  0  0  0  0  0  0  0  0  0
   57.5534   -4.8255   -9.4379 C   0  0  0  0  0  0  0  0  0  0  0  0
   56.4657   -4.1597   -9.9559 C   0  0  0  0  0  0  0  0  0  0  0  0
   56.4639   -3.6702  -11.2348 F   0  0  0  0  0  0  0  0  0  0  0  0
   55.3383   -3.9684   -9.1873 C   0  0  0  0  0  0  0  0  0  0  0  0
   54.2301   -3.3209   -9.6343 F   0  0  0  0  0  0  0  0  0  0  0  0
   55.3227   -4.4618   -7.8790 C   0  0  0  0  0  0  0  0  0  0  0  0
   52.7017   -5.6585   -6.0192 C   0  0  0  0  0  0  0  0  0  0  0  0
   52.6364   -6.4364   -7.0346 O   0  0  0  0  0  0  0  0  0  0  0  0
   53.9262   -5.5990   -5.2887 N   0  0  0  0  0  0  0  0  0  0  0  0
   53.9829   -4.9629   -4.4572 H   0  0  0  0  0  0  0  0  0  0  0  0
   49.6837   -4.3806   -4.2343 C   0  0  0  0  0  0  0  0  0  0  0  0
   50.8222   -5.1354   -4.5368 C   0  0  0  0  0  0  0  0  0  0  0  0
   51.5341   -4.8998   -5.6882 C   0  0  0  0  0  0  0  0  0  0  0  0
   51.0879   -3.9042   -6.5209 C   0  0  0  0  0  0  0  0  0  0  0  0
   49.9639   -3.1458   -6.2401 C   0  0  0  0  0  0  0  0  0  0  0  0
   49.2523   -3.3850   -5.0845 C   0  0  0  0  0  0  0  0  0  0  0  0
   49.4781   -5.6022   -2.1419 C   0  0  0  0  0  0  0  0  0  0  0  0
   48.9738   -4.6419   -3.0509 O   0  0  0  0  0  0  0  0  0  0  0  0
   49.5130   -2.1370   -7.0851 O   0  0  0  0  0  0  0  0  0  0  0  0
   50.4036   -1.4180   -7.9254 C   0  0  0  0  0  0  0  0  0  0  0  0
   48.1077   -2.6348   -4.7687 O   0  0  0  0  0  0  0  0  0  0  0  0
   47.0058   -3.3109   -4.1750 C   0  0  0  0  0  0  0  0  0  0  0  0
   57.7749   -7.1300   -3.2669 S   0  0  0  0  0  0  0  0  0  0  0  0
   57.5820   -8.3856   -2.0301 C   0  0  0  0  0  0  0  0  0  0  0  0
   57.2726   -5.8132   -2.7484 O   0  0  0  0  0  0  0  0  0  0  0  0
   59.2273   -7.0483   -3.6223 O   0  0  0  0  0  0  0  0  0  0  0  0
 24 25  1  0  0  0
 25 18  1  0  0  0
 18 19  2  0  0  0
 19 20  1  0  0  0
 20 21  2  0  0  0
 21 22  1  0  0  0
 22 26  1  0  0  0
 26 27  1  0  0  0
 22 23  2  0  0  0
 23 28  1  0  0  0
 28 29  1  0  0  0
 20 14  1  0  0  0
 14 15  2  0  0  0
 14 16  1  0  0  0
 16  1  1  0  0  0
  1  2  1  0  0  0
  2  3  1  0  0  0
  3  4  1  0  0  0
  4  5  1  0  0  0
  5  6  1  0  0  0
  6  7  2  0  0  0
  7  8  1  0  0  0
  8  9  2  0  0  0
  9 10  1  0  0  0
  9 11  1  0  0  0
 11 12  1  0  0  0
 11 13  2  0  0  0
  3 30  1  0  0  0
 30 31  1  0  0  0
 30 32  2  0  0  0
 30 33  2  0  0  0
 23 18  1  0  0  0
  5  1  1  0  0  0
 13  6  1  0  0  0
 16 17  1  0  0  0
M  END
> <minimizedAffinity>
-7.26636

> <CNNscore>
0.3784597516

> <CNNaffinity>
6.9163980484

> <CNN_VS>
2.6175782681

> <CNNaffinity_variance>
0.3779172301

$$$$
[H]c1c([H])c([C@]2([H])C([H])([H])N(S(=O)(=O)C([H])([H])[H])C([H])([H])[C@@]2([H])N([H])C(=O)c2c([H])c(OC([H])([H])[H])c(OC([H])([H])[H])c(OC([H])([H])[H])c2[H])c([H])c(F)c1F


 33 35  0  0  0  0  0  0  0  0999 V2000
   62.5319   -7.6815   -8.5776 C   0  0  0  0  0  0  0  0  0  0  0  0
   63.0926   -6.9504   -7.3608 C   0  0  0  0  0  0  0  0  0  0  0  0
   64.4558   -6.6404   -7.6683 N   0  0  0  0  0  0  0  0  0  0  0  0
   64.6825   -6.9285   -9.0505 C   0  0  0  0  0  0  0  0  0  0  0  0
   63.3063   -6.9996   -9.6813 C   0  0  0  0  0  0  0  0  0  0  0  0
   63.4207   -7.8340  -10.8936 C   0  0  0  0  0  0  0  0  0  0  0  0
   63.3269   -7.3529  -12.1682 C   0  0  0  0  0  0  0  0  0  0  0  0
   63.4443   -8.1967  -13.2726 C   0  0  0  0  0  0  0  0  0  0  0  0
   63.6592   -9.5426  -13.0806 C   0  0  0  0  0  0  0  0  0  0  0  0
   63.7810  -10.4091  -14.1339 F   0  0  0  0  0  0  0  0  0  0  0  0
   63.7580  -10.0549  -11.8054 C   0  0  0  0  0  0  0  0  0  0  0  0
   63.9693  -11.3716  -11.5433 F   0  0  0  0  0  0  0  0  0  0  0  0
   63.6361   -9.1842  -10.7180 C   0  0  0  0  0  0  0  0  0  0  0  0
   60.6962   -6.1295   -9.1013 C   0  0  0  0  0  0  0  0  0  0  0  0
   61.5850   -5.2839   -9.4691 O   0  0  0  0  0  0  0  0  0  0  0  0
   61.1286   -7.4031   -8.6243 N   0  0  0  0  0  0  0  0  0  0  0  0
   60.4034   -8.0974   -8.3222 H   0  0  0  0  0  0  0  0  0  0  0  0
   57.1397   -5.4062   -8.2316 C   0  0  0  0  0  0  0  0  0  0  0  0
   58.4775   -5.7991   -8.1153 C   0  0  0  0  0  0  0  0  0  0  0  0
   59.3240   -5.7334   -9.1956 C   0  0  0  0  0  0  0  0  0  0  0  0
   58.8096   -5.2715  -10.3812 C   0  0  0  0  0  0  0  0  0  0  0  0
   57.4890   -4.8778  -10.5175 C   0  0  0  0  0  0  0  0  0  0  0  0
   56.6429   -4.9451   -9.4319 C   0  0  0  0  0  0  0  0  0  0  0  0
   56.0389   -4.3127   -6.3595 C   0  0  0  0  0  0  0  0  0  0  0  0
   56.2953   -5.4835   -7.1120 O   0  0  0  0  0  0  0  0  0  0  0  0
   56.9692   -4.4097  -11.7199 O   0  0  0  0  0  0  0  0  0  0  0  0
   57.8136   -3.9749  -12.7754 C   0  0  0  0  0  0  0  0  0  0  0  0
   55.2979   -4.5539   -9.5348 O   0  0  0  0  0  0  0  0  0  0  0  0
   54.9850   -3.1771   -9.3609 C   0  0  0  0  0  0  0  0  0  0  0  0
   64.8463   -4.9778   -7.3830 S   0  0  0  0  0  0  0  0  0  0  0  0
   65.6810   -4.7714   -5.8325 C   0  0  0  0  0  0  0  0  0  0  0  0
   63.5527   -4.2152   -7.3784 O   0  0  0  0  0  0  0  0  0  0  0  0
   65.7548   -4.4874   -8.4678 O   0  0  0  0  0  0  0  0  0  0  0  0
 24 25  1  0  0  0
 25 18  1  0  0  0
 18 19  2  0  0  0
 19 20  1  0  0  0
 20 21  2  0  0  0
 21 22  1  0  0  0
 22 26  1  0  0  0
 26 27  1  0  0  0
 22 23  2  0  0  0
 23 28  1  0  0  0
 28 29  1  0  0  0
 20 14  1  0  0  0
 14 15  2  0  0  0
 14 16  1  0  0  0
 16  1  1  0  0  0
  1  2  1  0  0  0
  2  3  1  0  0  0
  3  4  1  0  0  0
  4  5  1  0  0  0
  5  6  1  0  0  0
  6  7  2  0  0  0
  7  8  1  0  0  0
  8  9  2  0  0  0
  9 10  1  0  0  0
  9 11  1  0  0  0
 11 12  1  0  0  0
 11 13  2  0  0  0
  3 30  1  0  0  0
 30 31  1  0  0  0
 30 32  2  0  0  0
 30 33  2  0  0  0
 23 18  1  0  0  0
  5  1  1  0  0  0
 13  6  1  0  0  0
 16 17  1  0  0  0
M  END
> <minimizedAffinity>
-3.44295

> <CNNscore>
0.3776045442

> <CNNaffinity>
5.2772302628

> <CNN_VS>
1.9927061796

> <CNNaffinity_variance>
0.1783666909

$$$$
[H]c1c([H])c([C@]2([H])C([H])([H])N(S(=O)(=O)C([H])([H])[H])C([H])([H])[C@@]2([H])N([H])C(=O)c2c([H])c(OC([H])([H])[H])c(OC([H])([H])[H])c(OC([H])([H])[H])c2[H])c([H])c(F)c1F


 33 35  0  0  0  0  0  0  0  0999 V2000
   60.9752   -4.8355  -12.0190 C   0  0  0  0  0  0  0  0  0  0  0  0
   59.5013   -4.7043  -11.6449 C   0  0  0  0  0  0  0  0  0  0  0  0
   58.9792   -3.6279  -12.4310 N   0  0  0  0  0  0  0  0  0  0  0  0
   59.9640   -3.2590  -13.4001 C   0  0  0  0  0  0  0  0  0  0  0  0
   60.9202   -4.4325  -13.4741 C   0  0  0  0  0  0  0  0  0  0  0  0
   62.2117   -3.9168  -13.9695 C   0  0  0  0  0  0  0  0  0  0  0  0
   63.2088   -4.7016  -14.4741 C   0  0  0  0  0  0  0  0  0  0  0  0
   64.4075   -4.1502  -14.9264 C   0  0  0  0  0  0  0  0  0  0  0  0
   64.5954   -2.7880  -14.8656 C   0  0  0  0  0  0  0  0  0  0  0  0
   65.7550   -2.2017  -15.2977 F   0  0  0  0  0  0  0  0  0  0  0  0
   63.6060   -1.9726  -14.3610 C   0  0  0  0  0  0  0  0  0  0  0  0
   63.7242   -0.6216  -14.2718 F   0  0  0  0  0  0  0  0  0  0  0  0
   62.4152   -2.5544  -13.9153 C   0  0  0  0  0  0  0  0  0  0  0  0
   61.5557   -6.6864  -10.5056 C   0  0  0  0  0  0  0  0  0  0  0  0
   61.4231   -5.8639   -9.5327 O   0  0  0  0  0  0  0  0  0  0  0  0
   61.3348   -6.2084  -11.8319 N   0  0  0  0  0  0  0  0  0  0  0  0
   61.4428   -6.8791  -12.6305 H   0  0  0  0  0  0  0  0  0  0  0  0
   63.1444  -10.0608  -10.6360 C   0  0  0  0  0  0  0  0  0  0  0  0
   62.8049   -8.7438  -10.9642 C   0  0  0  0  0  0  0  0  0  0  0  0
   61.9183   -8.0346  -10.1902 C   0  0  0  0  0  0  0  0  0  0  0  0
   61.3849   -8.6638   -9.0933 C   0  0  0  0  0  0  0  0  0  0  0  0
   61.7075   -9.9661   -8.7510 C   0  0  0  0  0  0  0  0  0  0  0  0
   62.5969  -10.6744   -9.5297 C   0  0  0  0  0  0  0  0  0  0  0  0
   64.4914  -10.1808  -12.6568 C   0  0  0  0  0  0  0  0  0  0  0  0
   64.0530  -10.7637  -11.4440 O   0  0  0  0  0  0  0  0  0  0  0  0
   61.1660  -10.6024   -7.6389 O   0  0  0  0  0  0  0  0  0  0  0  0
   61.6473  -10.3455   -6.3280 C   0  0  0  0  0  0  0  0  0  0  0  0
   62.9464  -11.9970   -9.2116 O   0  0  0  0  0  0  0  0  0  0  0  0
   62.1322  -13.0465   -9.7210 C   0  0  0  0  0  0  0  0  0  0  0  0
   57.5214   -4.0514  -13.2638 S   0  0  0  0  0  0  0  0  0  0  0  0
   56.1110   -3.2695  -12.5271 C   0  0  0  0  0  0  0  0  0  0  0  0
   57.3849   -5.5447  -13.1828 O   0  0  0  0  0  0  0  0  0  0  0  0
   57.6126   -3.5971  -14.6879 O   0  0  0  0  0  0  0  0  0  0  0  0
 24 25  1  0  0  0
 25 18  1  0  0  0
 18 19  2  0  0  0
 19 20  1  0  0  0
 20 21  2  0  0  0
 21 22  1  0  0  0
 22 26  1  0  0  0
 26 27  1  0  0  0
 22 23  2  0  0  0
 23 28  1  0  0  0
 28 29  1  0  0  0
 20 14  1  0  0  0
 14 15  2  0  0  0
 14 16  1  0  0  0
 16  1  1  0  0  0
  1  2  1  0  0  0
  2  3  1  0  0  0
  3  4  1  0  0  0
  4  5  1  0  0  0
  5  6  1  0  0  0
  6  7  2  0  0  0
  7  8  1  0  0  0
  8  9  2  0  0  0
  9 10  1  0  0  0
  9 11  1  0  0  0
 11 12  1  0  0  0
 11 13  2  0  0  0
  3 30  1  0  0  0
 30 31  1  0  0  0
 30 32  2  0  0  0
 30 33  2  0  0  0
 23 18  1  0  0  0
  5  1  1  0  0  0
 13  6  1  0  0  0
 16 17  1  0  0  0
M  END
> <minimizedAffinity>
-0.36450

> <CNNscore>
0.3763997853

> <CNNaffinity>
4.7277426720

> <CNN_VS>
1.7795213461

> <CNNaffinity_variance>
0.2269196808

$$$$
[H]OC(=O)C([H])([H])[C@@]([H])(C(=O)O[H])N([H])C(=O)[C@@]1([H])N(C(=O)[C@@]([H])(N([H])C(=O)[C@@]([H])(N([H])C(=O)[C@@]([H])(N([H])C(=O)[C@@]([H])(N([H])C(=O)OC([H])([H])c2c([H])c([H])c([H])c([H])c2[H])C([H])(C([H])([H])[H])C([H])([H])[H])C([H])([H])C([H])(C([H])([H])[H])C([H])([H])[H])C([H])([H])C([H])(C([H])([H])[H])C([H])([H])[H])C([H])([H])C([H])(C([H])([H])[H])C([H])([H])[H])C([H])([H])C([H])([H])C1([H])[H]


 64 65  0  0  0  0  0  0  0  0999 V2000
   58.7444   -5.1212  -10.0708 C   0  0  0  0  0  0  0  0  0  0  0  0
   60.0079   -5.8439   -9.7914 C   0  0  0  0  0  0  0  0  0  0  0  0
   60.7439   -6.0466  -10.8597 O   0  0  0  0  0  0  0  0  0  0  0  0
   60.4430   -6.2881   -8.5870 N   0  0  0  0  0  0  0  0  0  0  0  0
   59.8693   -6.1668   -7.7065 H   0  0  0  0  0  0  0  0  0  0  0  0
   61.6862   -6.9994   -8.3761 C   0  0  0  0  0  0  0  0  0  0  0  0
   61.5429   -7.9806   -7.2885 C   0  0  0  0  0  0  0  0  0  0  0  0
   61.3448   -7.4204   -6.1146 O   0  0  0  0  0  0  0  0  0  0  0  0
   61.5851   -9.3697   -7.3734 N   0  0  0  0  0  0  0  0  0  0  0  0
   61.7607  -10.1319   -8.5623 C   0  0  0  0  0  0  0  0  0  0  0  0
   62.7323  -11.2150   -8.0953 C   0  0  0  0  0  0  0  0  0  0  0  0
   62.5469  -11.3163   -6.6113 C   0  0  0  0  0  0  0  0  0  0  0  0
   61.4228  -10.3408   -6.3154 C   0  0  0  0  0  0  0  0  0  0  0  0
   61.6480   -9.7278   -4.9614 C   0  0  0  0  0  0  0  0  0  0  0  0
   62.8586   -9.6265   -4.6374 O   0  0  0  0  0  0  0  0  0  0  0  0
   60.5894   -9.3346   -4.2030 N   0  0  0  0  0  0  0  0  0  0  0  0
   61.4323   -8.5869   -3.4289 H   0  0  0  0  0  0  0  0  0  0  0  0
   59.5188   -8.9352   -3.4325 C   0  0  0  0  0  0  0  0  0  0  0  0
   59.3307   -7.4682   -3.4906 C   0  0  0  0  0  0  0  0  0  0  0  0
   60.4138   -6.6261   -3.1223 O   0  0  0  0  0  0  0  0  0  0  0  0
   58.2316   -7.0224   -3.8564 O   0  0  0  0  0  0  0  0  0  0  0  0
   60.1731   -5.7464   -2.6220 H   0  0  0  0  0  0  0  0  0  0  0  0
   59.7315   -9.2692   -1.9095 C   0  0  0  0  0  0  0  0  0  0  0  0
   58.3959   -9.7483   -1.3950 C   0  0  0  0  0  0  0  0  0  0  0  0
   57.1969   -9.3688   -1.9533 O   0  0  0  0  0  0  0  0  0  0  0  0
   58.3628  -10.5349   -0.3997 O   0  0  0  0  0  0  0  0  0  0  0  0
   56.5229   -8.8968   -1.3024 H   0  0  0  0  0  0  0  0  0  0  0  0
   62.8194   -6.0561   -8.2643 C   0  0  0  0  0  0  0  0  0  0  0  0
   64.1696   -6.5205   -7.9013 C   0  0  0  0  0  0  0  0  0  0  0  0
   64.7327   -5.9688   -6.6289 C   0  0  0  0  0  0  0  0  0  0  0  0
   65.1118   -5.9905   -9.0093 C   0  0  0  0  0  0  0  0  0  0  0  0
   58.3638   -5.0930  -11.4474 N   0  0  0  0  0  0  0  0  0  0  0  0
   57.9961   -3.8384  -12.0547 C   0  0  0  0  0  0  0  0  0  0  0  0
   58.0395   -2.8351  -11.3026 O   0  0  0  0  0  0  0  0  0  0  0  0
   58.3572   -5.9234  -12.0610 H   0  0  0  0  0  0  0  0  0  0  0  0
   57.5931   -3.6890  -13.4447 C   0  0  0  0  0  0  0  0  0  0  0  0
   58.6640   -3.0613  -14.2047 N   0  0  0  0  0  0  0  0  0  0  0  0
   60.0031   -3.4601  -14.1316 C   0  0  0  0  0  0  0  0  0  0  0  0
   60.2800   -4.4060  -13.3650 O   0  0  0  0  0  0  0  0  0  0  0  0
   58.3915   -2.2814  -14.8306 H   0  0  0  0  0  0  0  0  0  0  0  0
   61.0589   -2.8049  -14.9154 C   0  0  0  0  0  0  0  0  0  0  0  0
   62.3367   -2.7351  -14.2058 N   0  0  0  0  0  0  0  0  0  0  0  0
   62.6020   -1.5320  -13.4337 C   0  0  0  0  0  0  0  0  0  0  0  0
   61.7062   -0.6871  -13.4111 O   0  0  0  0  0  0  0  0  0  0  0  0
   63.0080   -3.4996  -14.2505 H   0  0  0  0  0  0  0  0  0  0  0  0
   63.7894   -1.3399  -12.7611 O   0  0  0  0  0  0  0  0  0  0  0  0
   64.2821   -0.1285  -12.2826 C   0  0  0  0  0  0  0  0  0  0  0  0
   64.0240    0.1468  -10.8477 C   0  0  0  0  0  0  0  0  0  0  0  0
   64.9590   -0.1247   -9.9136 C   0  0  0  0  0  0  0  0  0  0  0  0
   64.7584    0.1117   -8.5538 C   0  0  0  0  0  0  0  0  0  0  0  0
   63.5759    0.6355   -8.1571 C   0  0  0  0  0  0  0  0  0  0  0  0
   62.5923    0.9196   -9.1205 C   0  0  0  0  0  0  0  0  0  0  0  0
   62.7883    0.6871  -10.4608 C   0  0  0  0  0  0  0  0  0  0  0  0
   61.2734   -3.4947  -16.2532 C   0  0  0  0  0  0  0  0  0  0  0  0
   62.6175   -3.0711  -16.8305 C   0  0  0  0  0  0  0  0  0  0  0  0
   60.2388   -3.0790  -17.2781 C   0  0  0  0  0  0  0  0  0  0  0  0
   57.0349   -4.8940  -14.1189 C   0  0  0  0  0  0  0  0  0  0  0  0
   56.2019   -4.6815  -15.3303 C   0  0  0  0  0  0  0  0  0  0  0  0
   55.5843   -3.3532  -15.5140 C   0  0  0  0  0  0  0  0  0  0  0  0
   57.1007   -4.9427  -16.5421 C   0  0  0  0  0  0  0  0  0  0  0  0
   57.6786   -5.6721   -9.1245 C   0  0  0  0  0  0  0  0  0  0  0  0
   55.6719   -4.2983   -9.1230 C   0  0  0  0  0  0  0  0  0  0  0  0
   56.9303   -4.6880   -8.3331 C   0  0  0  0  0  0  0  0  0  0  0  0
   56.4224   -5.1357   -6.9864 C   0  0  0  0  0  0  0  0  0  0  0  0
 62 63  1  0  0  0
 63 64  1  0  0  0
 63 61  1  0  0  0
 61  1  1  0  0  0
  1 32  1  0  0  0
 32 33  1  0  0  0
 33 34  2  0  0  0
 33 36  1  0  0  0
 36 57  1  0  0  0
 57 58  1  0  0  0
 58 59  1  0  0  0
 58 60  1  0  0  0
 36 37  1  0  0  0
 37 38  1  0  0  0
 38 39  2  0  0  0
 38 41  1  0  0  0
 41 42  1  0  0  0
 42 43  1  0  0  0
 43 44  2  0  0  0
 43 46  1  0  0  0
 46 47  1  0  0  0
 47 48  1  0  0  0
 48 49  2  0  0  0
 49 50  1  0  0  0
 50 51  2  0  0  0
 51 52  1  0  0  0
 52 53  2  0  0  0
 41 54  1  0  0  0
 54 55  1  0  0  0
 54 56  1  0  0  0
  1  2  1  0  0  0
  2  3  2  0  0  0
  2  4  1  0  0  0
  4  6  1  0  0  0
  6 28  1  0  0  0
 28 29  1  0  0  0
 29 30  1  0  0  0
 29 31  1  0  0  0
  6  7  1  0  0  0
  7  8  2  0  0  0
  7  9  1  0  0  0
  9 10  1  0  0  0
 10 11  1  0  0  0
 11 12  1  0  0  0
 12 13  1  0  0  0
 13 14  1  0  0  0
 14 15  2  0  0  0
 14 16  1  0  0  0
 16 18  1  0  0  0
 18 23  1  0  0  0
 23 24  1  0  0  0
 24 25  1  0  0  0
 24 26  2  0  0  0
 18 19  1  0  0  0
 19 20  1  0  0  0
 19 21  2  0  0  0
 53 48  1  0  0  0
 13  9  1  0  0  0
 32 35  1  0  0  0
 37 40  1  0  0  0
 42 45  1  0  0  0
  4  5  1  0  0  0
 16 17  1  0  0  0
 25 27  1  0  0  0
 20 22  1  0  0  0
M  END
> <minimizedAffinity>
-6.41336

> <CNNscore>
0.3997054100

> <CNNaffinity>
6.7848196030

> <CNN_VS>
2.7119290829

> <CNNaffinity_variance>
0.7444955111

$$$$
[H]OC(=O)C([H])([H])[C@@]([H])(C(=O)O[H])N([H])C(=O)[C@@]1([H])N(C(=O)[C@@]([H])(N([H])C(=O)[C@@]([H])(N([H])C(=O)[C@@]([H])(N([H])C(=O)[C@@]([H])(N([H])C(=O)OC([H])([H])c2c([H])c([H])c([H])c([H])c2[H])C([H])(C([H])([H])[H])C([H])([H])[H])C([H])([H])C([H])(C([H])([H])[H])C([H])([H])[H])C([H])([H])C([H])(C([H])([H])[H])C([H])([H])[H])C([H])([H])C([H])(C([H])([H])[H])C([H])([H])[H])C([H])([H])C([H])([H])C1([H])[H]


 64 65  0  0  0  0  0  0  0  0999 V2000
   58.1485   -5.0167   -8.5554 C   0  0  0  0  0  0  0  0  0  0  0  0
   57.0665   -4.9815   -7.5432 C   0  0  0  0  0  0  0  0  0  0  0  0
   56.6989   -3.7658   -7.2100 O   0  0  0  0  0  0  0  0  0  0  0  0
   56.4571   -6.0452   -6.9648 N   0  0  0  0  0  0  0  0  0  0  0  0
   56.7403   -7.0399   -7.1873 H   0  0  0  0  0  0  0  0  0  0  0  0
   55.4089   -5.9487   -5.9710 C   0  0  0  0  0  0  0  0  0  0  0  0
   55.8119   -6.6235   -4.7266 C   0  0  0  0  0  0  0  0  0  0  0  0
   55.4726   -7.8943   -4.6988 O   0  0  0  0  0  0  0  0  0  0  0  0
   56.4884   -6.0830   -3.6364 N   0  0  0  0  0  0  0  0  0  0  0  0
   56.9509   -4.7423   -3.5175 C   0  0  0  0  0  0  0  0  0  0  0  0
   56.5836   -4.4150   -2.0707 C   0  0  0  0  0  0  0  0  0  0  0  0
   56.5051   -5.7335   -1.3619 C   0  0  0  0  0  0  0  0  0  0  0  0
   56.9082   -6.7429   -2.4210 C   0  0  0  0  0  0  0  0  0  0  0  0
   56.1504   -8.0214   -2.1947 C   0  0  0  0  0  0  0  0  0  0  0  0
   56.8507   -9.0601   -2.3002 O   0  0  0  0  0  0  0  0  0  0  0  0
   54.8225   -7.9876   -1.9012 N   0  0  0  0  0  0  0  0  0  0  0  0
   54.8954   -9.2797   -1.4610 H   0  0  0  0  0  0  0  0  0  0  0  0
   53.4773   -7.9564   -1.6035 C   0  0  0  0  0  0  0  0  0  0  0  0
   52.7885   -6.8699   -2.3355 C   0  0  0  0  0  0  0  0  0  0  0  0
   53.2661   -5.5399   -2.1907 O   0  0  0  0  0  0  0  0  0  0  0  0
   51.8144   -7.1565   -3.0493 O   0  0  0  0  0  0  0  0  0  0  0  0
   52.5508   -4.7845   -2.1817 H   0  0  0  0  0  0  0  0  0  0  0  0
   53.2175   -7.6635   -0.0793 C   0  0  0  0  0  0  0  0  0  0  0  0
   52.2802   -8.7445    0.4013 C   0  0  0  0  0  0  0  0  0  0  0  0
   52.4109  -10.0659    0.0404 O   0  0  0  0  0  0  0  0  0  0  0  0
   51.3207   -8.4334    1.1714 O   0  0  0  0  0  0  0  0  0  0  0  0
   51.5785  -10.4899   -0.4373 H   0  0  0  0  0  0  0  0  0  0  0  0
   54.1046   -6.3481   -6.5418 C   0  0  0  0  0  0  0  0  0  0  0  0
   52.9415   -5.4447   -6.5002 C   0  0  0  0  0  0  0  0  0  0  0  0
   51.6130   -6.0729   -6.7845 C   0  0  0  0  0  0  0  0  0  0  0  0
   53.1507   -4.4319   -7.6521 C   0  0  0  0  0  0  0  0  0  0  0  0
   59.2732   -5.8229   -8.2006 N   0  0  0  0  0  0  0  0  0  0  0  0
   60.2612   -6.1394   -9.2013 C   0  0  0  0  0  0  0  0  0  0  0  0
   60.0501   -5.6675  -10.3446 O   0  0  0  0  0  0  0  0  0  0  0  0
   59.4469   -6.1833   -7.2487 H   0  0  0  0  0  0  0  0  0  0  0  0
   61.4449   -6.9490   -8.9555 C   0  0  0  0  0  0  0  0  0  0  0  0
   61.1007   -8.3615   -9.0260 N   0  0  0  0  0  0  0  0  0  0  0  0
   61.4964   -9.3042   -8.0709 C   0  0  0  0  0  0  0  0  0  0  0  0
   62.1854   -8.8971   -7.1126 O   0  0  0  0  0  0  0  0  0  0  0  0
   60.5261   -8.6578   -9.8361 H   0  0  0  0  0  0  0  0  0  0  0  0
   61.1287  -10.7230   -8.1725 C   0  0  0  0  0  0  0  0  0  0  0  0
   61.5146  -11.3225   -9.4504 N   0  0  0  0  0  0  0  0  0  0  0  0
   62.8957  -11.1541   -9.8722 C   0  0  0  0  0  0  0  0  0  0  0  0
   63.6364  -10.5517   -9.0942 O   0  0  0  0  0  0  0  0  0  0  0  0
   60.8425  -11.8377  -10.0162 H   0  0  0  0  0  0  0  0  0  0  0  0
   63.3585  -11.6391  -11.0763 O   0  0  0  0  0  0  0  0  0  0  0  0
   63.4893  -12.9790  -11.4328 C   0  0  0  0  0  0  0  0  0  0  0  0
   62.3977  -13.5281  -12.2744 C   0  0  0  0  0  0  0  0  0  0  0  0
   62.4176  -13.3780  -13.6151 C   0  0  0  0  0  0  0  0  0  0  0  0
   61.4113  -13.8717  -14.4449 C   0  0  0  0  0  0  0  0  0  0  0  0
   60.3725  -14.5286  -13.8795 C   0  0  0  0  0  0  0  0  0  0  0  0
   60.3387  -14.6886  -12.4832 C   0  0  0  0  0  0  0  0  0  0  0  0
   61.3294  -14.2025  -11.6641 C   0  0  0  0  0  0  0  0  0  0  0  0
   61.7312  -11.5404   -7.0410 C   0  0  0  0  0  0  0  0  0  0  0  0
   61.7058  -13.0165   -7.4147 C   0  0  0  0  0  0  0  0  0  0  0  0
   60.9216  -11.4273   -5.7661 C   0  0  0  0  0  0  0  0  0  0  0  0
   62.6673   -6.6119   -9.7368 C   0  0  0  0  0  0  0  0  0  0  0  0
   62.8471   -7.2745  -11.0540 C   0  0  0  0  0  0  0  0  0  0  0  0
   62.7963   -6.4265  -12.2614 C   0  0  0  0  0  0  0  0  0  0  0  0
   64.2179   -7.9563  -11.0278 C   0  0  0  0  0  0  0  0  0  0  0  0
   57.5116   -5.3651   -9.9000 C   0  0  0  0  0  0  0  0  0  0  0  0
   57.2673   -4.4495  -12.1397 C   0  0  0  0  0  0  0  0  0  0  0  0
   56.9222   -4.2532  -10.6558 C   0  0  0  0  0  0  0  0  0  0  0  0
   55.4213   -4.1196  -10.6188 C   0  0  0  0  0  0  0  0  0  0  0  0
 62 63  1  0  0  0
 63 64  1  0  0  0
 63 61  1  0  0  0
 61  1  1  0  0  0
  1 32  1  0  0  0
 32 33  1  0  0  0
 33 34  2  0  0  0
 33 36  1  0  0  0
 36 57  1  0  0  0
 57 58  1  0  0  0
 58 59  1  0  0  0
 58 60  1  0  0  0
 36 37  1  0  0  0
 37 38  1  0  0  0
 38 39  2  0  0  0
 38 41  1  0  0  0
 41 42  1  0  0  0
 42 43  1  0  0  0
 43 44  2  0  0  0
 43 46  1  0  0  0
 46 47  1  0  0  0
 47 48  1  0  0  0
 48 49  2  0  0  0
 49 50  1  0  0  0
 50 51  2  0  0  0
 51 52  1  0  0  0
 52 53  2  0  0  0
 41 54  1  0  0  0
 54 55  1  0  0  0
 54 56  1  0  0  0
  1  2  1  0  0  0
  2  3  2  0  0  0
  2  4  1  0  0  0
  4  6  1  0  0  0
  6 28  1  0  0  0
 28 29  1  0  0  0
 29 30  1  0  0  0
 29 31  1  0  0  0
  6  7  1  0  0  0
  7  8  2  0  0  0
  7  9  1  0  0  0
  9 10  1  0  0  0
 10 11  1  0  0  0
 11 12  1  0  0  0
 12 13  1  0  0  0
 13 14  1  0  0  0
 14 15  2  0  0  0
 14 16  1  0  0  0
 16 18  1  0  0  0
 18 23  1  0  0  0
 23 24  1  0  0  0
 24 25  1  0  0  0
 24 26  2  0  0  0
 18 19  1  0  0  0
 19 20  1  0  0  0
 19 21  2  0  0  0
 53 48  1  0  0  0
 13  9  1  0  0  0
 32 35  1  0  0  0
 37 40  1  0  0  0
 42 45  1  0  0  0
  4  5  1  0  0  0
 16 17  1  0  0  0
 25 27  1  0  0  0
 20 22  1  0  0  0
M  END
> <minimizedAffinity>
-7.17491

> <CNNscore>
0.3547069728

> <CNNaffinity>
7.0547394753

> <CNN_VS>
2.5023653507

> <CNNaffinity_variance>
0.5015355349

$$$$
[H]OC(=O)C([H])([H])[C@@]([H])(C(=O)O[H])N([H])C(=O)[C@@]1([H])N(C(=O)[C@@]([H])(N([H])C(=O)[C@@]([H])(N([H])C(=O)[C@@]([H])(N([H])C(=O)[C@@]([H])(N([H])C(=O)OC([H])([H])c2c([H])c([H])c([H])c([H])c2[H])C([H])(C([H])([H])[H])C([H])([H])[H])C([H])([H])C([H])(C([H])([H])[H])C([H])([H])[H])C([H])([H])C([H])(C([H])([H])[H])C([H])([H])[H])C([H])([H])C([H])(C([H])([H])[H])C([H])([H])[H])C([H])([H])C([H])([H])C1([H])[H]


 64 65  0  0  0  0  0  0  0  0999 V2000
   58.2431   -5.1147   -8.6448 C   0  0  0  0  0  0  0  0  0  0  0  0
   57.2472   -5.1132   -7.5472 C   0  0  0  0  0  0  0  0  0  0  0  0
   56.9286   -3.9099   -7.1293 O   0  0  0  0  0  0  0  0  0  0  0  0
   56.6684   -6.1949   -6.9708 N   0  0  0  0  0  0  0  0  0  0  0  0
   56.9156   -7.1817   -7.2613 H   0  0  0  0  0  0  0  0  0  0  0  0
   55.7057   -6.1317   -5.8914 C   0  0  0  0  0  0  0  0  0  0  0  0
   56.3077   -6.6011   -4.6330 C   0  0  0  0  0  0  0  0  0  0  0  0
   57.1134   -7.6277   -4.8010 O   0  0  0  0  0  0  0  0  0  0  0  0
   56.1269   -6.0897   -3.3507 N   0  0  0  0  0  0  0  0  0  0  0  0
   55.3182   -4.9723   -3.0003 C   0  0  0  0  0  0  0  0  0  0  0  0
   54.6405   -5.4685   -1.7237 C   0  0  0  0  0  0  0  0  0  0  0  0
   55.5438   -6.5280   -1.1682 C   0  0  0  0  0  0  0  0  0  0  0  0
   56.7310   -6.5293   -2.1135 C   0  0  0  0  0  0  0  0  0  0  0  0
   57.2678   -7.9290   -2.2259 C   0  0  0  0  0  0  0  0  0  0  0  0
   56.3808   -8.8195   -2.2553 O   0  0  0  0  0  0  0  0  0  0  0  0
   58.6094   -8.1448   -2.2894 N   0  0  0  0  0  0  0  0  0  0  0  0
   58.3757   -9.4092   -2.7536 H   0  0  0  0  0  0  0  0  0  0  0  0
   59.9681   -8.3664   -2.3541 C   0  0  0  0  0  0  0  0  0  0  0  0
   60.6213   -8.0915   -1.0548 C   0  0  0  0  0  0  0  0  0  0  0  0
   61.6959   -7.1633   -1.0140 O   0  0  0  0  0  0  0  0  0  0  0  0
   60.2105   -8.6835   -0.0441 O   0  0  0  0  0  0  0  0  0  0  0  0
   62.4714   -7.3744   -0.3535 H   0  0  0  0  0  0  0  0  0  0  0  0
   60.6728   -7.4105   -3.3866 C   0  0  0  0  0  0  0  0  0  0  0  0
   60.6935   -8.1543   -4.6998 C   0  0  0  0  0  0  0  0  0  0  0  0
   60.6097   -7.5244   -5.9203 O   0  0  0  0  0  0  0  0  0  0  0  0
   60.7884   -9.4198   -4.6921 O   0  0  0  0  0  0  0  0  0  0  0  0
   59.8114   -7.8243   -6.5314 H   0  0  0  0  0  0  0  0  0  0  0  0
   54.4304   -6.7672   -6.2863 C   0  0  0  0  0  0  0  0  0  0  0  0
   53.2631   -5.9603   -6.6825 C   0  0  0  0  0  0  0  0  0  0  0  0
   53.5632   -4.6103   -7.2552 C   0  0  0  0  0  0  0  0  0  0  0  0
   52.4871   -5.6679   -5.3753 C   0  0  0  0  0  0  0  0  0  0  0  0
   59.3540   -5.9898   -8.4429 N   0  0  0  0  0  0  0  0  0  0  0  0
   60.3063   -6.1824   -9.5078 C   0  0  0  0  0  0  0  0  0  0  0  0
   60.0782   -5.5461  -10.5649 O   0  0  0  0  0  0  0  0  0  0  0  0
   59.5428   -6.4873   -7.5580 H   0  0  0  0  0  0  0  0  0  0  0  0
   61.4732   -7.0464   -9.4160 C   0  0  0  0  0  0  0  0  0  0  0  0
   62.3312   -6.6038   -8.3266 N   0  0  0  0  0  0  0  0  0  0  0  0
   63.5851   -6.0134   -8.5185 C   0  0  0  0  0  0  0  0  0  0  0  0
   63.9779   -5.8680   -9.6947 O   0  0  0  0  0  0  0  0  0  0  0  0
   61.9671   -6.7408   -7.3660 H   0  0  0  0  0  0  0  0  0  0  0  0
   64.4243   -5.5759   -7.3948 C   0  0  0  0  0  0  0  0  0  0  0  0
   64.2306   -4.1664   -7.0527 N   0  0  0  0  0  0  0  0  0  0  0  0
   65.1879   -3.2148   -7.5931 C   0  0  0  0  0  0  0  0  0  0  0  0
   66.0616   -3.6749   -8.3292 O   0  0  0  0  0  0  0  0  0  0  0  0
   63.4556   -3.8678   -6.4633 H   0  0  0  0  0  0  0  0  0  0  0  0
   65.1277   -1.8692   -7.3017 O   0  0  0  0  0  0  0  0  0  0  0  0
   65.5561   -0.8262   -8.1190 C   0  0  0  0  0  0  0  0  0  0  0  0
   64.5085   -0.2019   -8.9640 C   0  0  0  0  0  0  0  0  0  0  0  0
   64.6583   -0.1215  -10.3024 C   0  0  0  0  0  0  0  0  0  0  0  0
   63.7034    0.4614  -11.1352 C   0  0  0  0  0  0  0  0  0  0  0  0
   62.5805    0.9668  -10.5751 C   0  0  0  0  0  0  0  0  0  0  0  0
   62.4142    0.8922   -9.1812 C   0  0  0  0  0  0  0  0  0  0  0  0
   63.3542    0.3182   -8.3591 C   0  0  0  0  0  0  0  0  0  0  0  0
   64.1865   -6.4228   -6.1549 C   0  0  0  0  0  0  0  0  0  0  0  0
   64.5341   -5.6111   -4.9141 C   0  0  0  0  0  0  0  0  0  0  0  0
   65.0903   -7.6373   -6.1155 C   0  0  0  0  0  0  0  0  0  0  0  0
   61.2258   -8.5150   -9.3971 C   0  0  0  0  0  0  0  0  0  0  0  0
   62.1748   -9.3827  -10.1408 C   0  0  0  0  0  0  0  0  0  0  0  0
   62.9380   -8.7738  -11.2481 C   0  0  0  0  0  0  0  0  0  0  0  0
   63.1868   -9.9142   -9.1219 C   0  0  0  0  0  0  0  0  0  0  0  0
   57.4866   -5.3345   -9.9541 C   0  0  0  0  0  0  0  0  0  0  0  0
   57.2432   -4.1106  -12.0415 C   0  0  0  0  0  0  0  0  0  0  0  0
   56.8566   -4.1527  -10.5555 C   0  0  0  0  0  0  0  0  0  0  0  0
   55.3504   -4.0985  -10.5427 C   0  0  0  0  0  0  0  0  0  0  0  0
 62 63  1  0  0  0
 63 64  1  0  0  0
 63 61  1  0  0  0
 61  1  1  0  0  0
  1 32  1  0  0  0
 32 33  1  0  0  0
 33 34  2  0  0  0
 33 36  1  0  0  0
 36 57  1  0  0  0
 57 58  1  0  0  0
 58 59  1  0  0  0
 58 60  1  0  0  0
 36 37  1  0  0  0
 37 38  1  0  0  0
 38 39  2  0  0  0
 38 41  1  0  0  0
 41 42  1  0  0  0
 42 43  1  0  0  0
 43 44  2  0  0  0
 43 46  1  0  0  0
 46 47  1  0  0  0
 47 48  1  0  0  0
 48 49  2  0  0  0
 49 50  1  0  0  0
 50 51  2  0  0  0
 51 52  1  0  0  0
 52 53  2  0  0  0
 41 54  1  0  0  0
 54 55  1  0  0  0
 54 56  1  0  0  0
  1  2  1  0  0  0
  2  3  2  0  0  0
  2  4  1  0  0  0
  4  6  1  0  0  0
  6 28  1  0  0  0
 28 29  1  0  0  0
 29 30  1  0  0  0
 29 31  1  0  0  0
  6  7  1  0  0  0
  7  8  2  0  0  0
  7  9  1  0  0  0
  9 10  1  0  0  0
 10 11  1  0  0  0
 11 12  1  0  0  0
 12 13  1  0  0  0
 13 14  1  0  0  0
 14 15  2  0  0  0
 14 16  1  0  0  0
 16 18  1  0  0  0
 18 23  1  0  0  0
 23 24  1  0  0  0
 24 25  1  0  0  0
 24 26  2  0  0  0
 18 19  1  0  0  0
 19 20  1  0  0  0
 19 21  2  0  0  0
 53 48  1  0  0  0
 13  9  1  0  0  0
 32 35  1  0  0  0
 37 40  1  0  0  0
 42 45  1  0  0  0
  4  5  1  0  0  0
 16 17  1  0  0  0
 25 27  1  0  0  0
 20 22  1  0  0  0
M  END
> <minimizedAffinity>
-7.78737

> <CNNscore>
0.2370945662

> <CNNaffinity>
6.9496412277

> <CNN_VS>
1.6477221251

> <CNNaffinity_variance>
0.6490325928

$$$$
[H]OC(=O)C([H])([H])[C@@]([H])(C(=O)O[H])N([H])C(=O)[C@@]1([H])N(C(=O)[C@@]([H])(N([H])C(=O)[C@@]([H])(N([H])C(=O)[C@@]([H])(N([H])C(=O)[C@@]([H])(N([H])C(=O)OC([H])([H])c2c([H])c([H])c([H])c([H])c2[H])C([H])(C([H])([H])[H])C([H])([H])[H])C([H])([H])C([H])(C([H])([H])[H])C([H])([H])[H])C([H])([H])C([H])(C([H])([H])[H])C([H])([H])[H])C([H])([H])C([H])(C([H])([H])[H])C([H])([H])[H])C([H])([H])C([H])([H])C1([H])[H]


 64 65  0  0  0  0  0  0  0  0999 V2000
   55.6640   -5.7476   -6.1959 C   0  0  0  0  0  0  0  0  0  0  0  0
   55.7462   -6.4454   -4.8909 C   0  0  0  0  0  0  0  0  0  0  0  0
   55.9066   -7.7441   -4.9995 O   0  0  0  0  0  0  0  0  0  0  0  0
   55.6743   -5.8824   -3.6600 N   0  0  0  0  0  0  0  0  0  0  0  0
   55.5212   -4.8438   -3.5292 H   0  0  0  0  0  0  0  0  0  0  0  0
   55.7514   -6.6189   -2.4161 C   0  0  0  0  0  0  0  0  0  0  0  0
   57.1548   -6.8292   -2.0254 C   0  0  0  0  0  0  0  0  0  0  0  0
   57.6108   -8.0148   -2.3681 O   0  0  0  0  0  0  0  0  0  0  0  0
   58.0067   -5.9431   -1.3716 N   0  0  0  0  0  0  0  0  0  0  0  0
   57.6839   -4.6197   -0.9595 C   0  0  0  0  0  0  0  0  0  0  0  0
   58.3273   -4.5607    0.4253 C   0  0  0  0  0  0  0  0  0  0  0  0
   59.4163   -5.5908    0.4129 C   0  0  0  0  0  0  0  0  0  0  0  0
   59.3918   -6.1323   -1.0045 C   0  0  0  0  0  0  0  0  0  0  0  0
   59.7646   -7.5884   -0.9805 C   0  0  0  0  0  0  0  0  0  0  0  0
   59.3786   -8.2015    0.0470 O   0  0  0  0  0  0  0  0  0  0  0  0
   60.4580   -8.1349   -2.0154 N   0  0  0  0  0  0  0  0  0  0  0  0
   60.1069   -9.3826   -1.5809 H   0  0  0  0  0  0  0  0  0  0  0  0
   61.1603   -8.6913   -3.0625 C   0  0  0  0  0  0  0  0  0  0  0  0
   61.2933   -7.7395   -4.1882 C   0  0  0  0  0  0  0  0  0  0  0  0
   60.4387   -7.8890   -5.3129 O   0  0  0  0  0  0  0  0  0  0  0  0
   62.1495   -6.8439   -4.1134 O   0  0  0  0  0  0  0  0  0  0  0  0
   60.8496   -7.6751   -6.2443 H   0  0  0  0  0  0  0  0  0  0  0  0
   60.4272   -9.9480   -3.6622 C   0  0  0  0  0  0  0  0  0  0  0  0
   60.2497  -10.9155   -2.5175 C   0  0  0  0  0  0  0  0  0  0  0  0
   61.3064  -11.5097   -1.8665 O   0  0  0  0  0  0  0  0  0  0  0  0
   59.0767  -11.2061   -2.1298 O   0  0  0  0  0  0  0  0  0  0  0  0
   61.3098  -12.5588   -1.8714 H   0  0  0  0  0  0  0  0  0  0  0  0
   54.8956   -7.8237   -2.4643 C   0  0  0  0  0  0  0  0  0  0  0  0
   53.6472   -7.9080   -1.6866 C   0  0  0  0  0  0  0  0  0  0  0  0
   52.4236   -7.3563   -2.3491 C   0  0  0  0  0  0  0  0  0  0  0  0
   53.8602   -7.0083   -0.4451 C   0  0  0  0  0  0  0  0  0  0  0  0
   56.7533   -6.0079   -7.0827 N   0  0  0  0  0  0  0  0  0  0  0  0
   57.2417   -4.9515   -7.9332 C   0  0  0  0  0  0  0  0  0  0  0  0
   56.6528   -3.8488   -7.8260 O   0  0  0  0  0  0  0  0  0  0  0  0
   57.2449   -6.9140   -7.1417 H   0  0  0  0  0  0  0  0  0  0  0  0
   58.3427   -5.1002   -8.8727 C   0  0  0  0  0  0  0  0  0  0  0  0
   59.2982   -6.0732   -8.3640 N   0  0  0  0  0  0  0  0  0  0  0  0
   60.3742   -6.5662   -9.1103 C   0  0  0  0  0  0  0  0  0  0  0  0
   60.5072   -6.1412  -10.2767 O   0  0  0  0  0  0  0  0  0  0  0  0
   59.1533   -6.3988   -7.3907 H   0  0  0  0  0  0  0  0  0  0  0  0
   61.3216   -7.5470   -8.5638 C   0  0  0  0  0  0  0  0  0  0  0  0
   61.1298   -8.8912   -9.1096 N   0  0  0  0  0  0  0  0  0  0  0  0
   61.4977  -10.0114   -8.2590 C   0  0  0  0  0  0  0  0  0  0  0  0
   61.9043   -9.7319   -7.1305 O   0  0  0  0  0  0  0  0  0  0  0  0
   60.7518   -9.0324  -10.0447 H   0  0  0  0  0  0  0  0  0  0  0  0
   61.4000  -11.3183   -8.6853 O   0  0  0  0  0  0  0  0  0  0  0  0
   62.1274  -11.9087   -9.7157 C   0  0  0  0  0  0  0  0  0  0  0  0
   61.6610  -13.2509  -10.1425 C   0  0  0  0  0  0  0  0  0  0  0  0
   61.1326  -13.4403  -11.3694 C   0  0  0  0  0  0  0  0  0  0  0  0
   60.6760  -14.6818  -11.8113 C   0  0  0  0  0  0  0  0  0  0  0  0
   60.7680  -15.7394  -10.9727 C   0  0  0  0  0  0  0  0  0  0  0  0
   61.3137  -15.5542   -9.6904 C   0  0  0  0  0  0  0  0  0  0  0  0
   61.7639  -14.3314   -9.2533 C   0  0  0  0  0  0  0  0  0  0  0  0
   62.7630   -7.1216   -8.7927 C   0  0  0  0  0  0  0  0  0  0  0  0
   62.9974   -5.7623   -8.1472 C   0  0  0  0  0  0  0  0  0  0  0  0
   63.0725   -6.9347  -10.2633 C   0  0  0  0  0  0  0  0  0  0  0  0
   57.9855   -5.3320  -10.2999 C   0  0  0  0  0  0  0  0  0  0  0  0
   57.5966   -4.1512  -11.1129 C   0  0  0  0  0  0  0  0  0  0  0  0
   58.2532   -3.9741  -12.4233 C   0  0  0  0  0  0  0  0  0  0  0  0
   56.0898   -4.2580  -11.3638 C   0  0  0  0  0  0  0  0  0  0  0  0
   54.2814   -6.0281   -6.7829 C   0  0  0  0  0  0  0  0  0  0  0  0
   52.6096   -4.4771   -7.6279 C   0  0  0  0  0  0  0  0  0  0  0  0
   53.1966   -5.1304   -6.3677 C   0  0  0  0  0  0  0  0  0  0  0  0
   52.0180   -5.7582   -5.6686 C   0  0  0  0  0  0  0  0  0  0  0  0
 62 63  1  0  0  0
 63 64  1  0  0  0
 63 61  1  0  0  0
 61  1  1  0  0  0
  1 32  1  0  0  0
 32 33  1  0  0  0
 33 34  2  0  0  0
 33 36  1  0  0  0
 36 57  1  0  0  0
 57 58  1  0  0  0
 58 59  1  0  0  0
 58 60  1  0  0  0
 36 37  1  0  0  0
 37 38  1  0  0  0
 38 39  2  0  0  0
 38 41  1  0  0  0
 41 42  1  0  0  0
 42 43  1  0  0  0
 43 44  2  0  0  0
 43 46  1  0  0  0
 46 47  1  0  0  0
 47 48  1  0  0  0
 48 49  2  0  0  0
 49 50  1  0  0  0
 50 51  2  0  0  0
 51 52  1  0  0  0
 52 53  2  0  0  0
 41 54  1  0  0  0
 54 55  1  0  0  0
 54 56  1  0  0  0
  1  2  1  0  0  0
  2  3  2  0  0  0
  2  4  1  0  0  0
  4  6  1  0  0  0
  6 28  1  0  0  0
 28 29  1  0  0  0
 29 30  1  0  0  0
 29 31  1  0  0  0
  6  7  1  0  0  0
  7  8  2  0  0  0
  7  9  1  0  0  0
  9 10  1  0  0  0
 10 11  1  0  0  0
 11 12  1  0  0  0
 12 13  1  0  0  0
 13 14  1  0  0  0
 14 15  2  0  0  0
 14 16  1  0  0  0
 16 18  1  0  0  0
 18 23  1  0  0  0
 23 24  1  0  0  0
 24 25  1  0  0  0
 24 26  2  0  0  0
 18 19  1  0  0  0
 19 20  1  0  0  0
 19 21  2  0  0  0
 53 48  1  0  0  0
 13  9  1  0  0  0
 32 35  1  0  0  0
 37 40  1  0  0  0
 42 45  1  0  0  0
  4  5  1  0  0  0
 16 17  1  0  0  0
 25 27  1  0  0  0
 20 22  1  0  0  0
M  END
> <minimizedAffinity>
-7.57738

> <CNNscore>
0.2305753827

> <CNNaffinity>
6.7665848732

> <CNN_VS>
1.5602078438

> <CNNaffinity_variance>
0.6571475863

$$$$
[H]OC(=O)C([H])([H])[C@@]([H])(C(=O)O[H])N([H])C(=O)[C@@]1([H])N(C(=O)[C@@]([H])(N([H])C(=O)[C@@]([H])(N([H])C(=O)[C@@]([H])(N([H])C(=O)[C@@]([H])(N([H])C(=O)OC([H])([H])c2c([H])c([H])c([H])c([H])c2[H])C([H])(C([H])([H])[H])C([H])([H])[H])C([H])([H])C([H])(C([H])([H])[H])C([H])([H])[H])C([H])([H])C([H])(C([H])([H])[H])C([H])([H])[H])C([H])([H])C([H])(C([H])([H])[H])C([H])([H])[H])C([H])([H])C([H])([H])C1([H])[H]


 64 65  0  0  0  0  0  0  0  0999 V2000
   57.7695   -5.0003   -8.2531 C   0  0  0  0  0  0  0  0  0  0  0  0
   56.7794   -4.9783   -7.1505 C   0  0  0  0  0  0  0  0  0  0  0  0
   56.3970   -3.7685   -6.8125 O   0  0  0  0  0  0  0  0  0  0  0  0
   56.2629   -6.0482   -6.4979 N   0  0  0  0  0  0  0  0  0  0  0  0
   56.5625   -7.0375   -6.7229 H   0  0  0  0  0  0  0  0  0  0  0  0
   55.3025   -5.9642   -5.4179 C   0  0  0  0  0  0  0  0  0  0  0  0
   55.8218   -6.6270   -4.2108 C   0  0  0  0  0  0  0  0  0  0  0  0
   55.4057   -7.8691   -4.0880 O   0  0  0  0  0  0  0  0  0  0  0  0
   56.6717   -6.1025   -3.2408 N   0  0  0  0  0  0  0  0  0  0  0  0
   57.2337   -4.7950   -3.2371 C   0  0  0  0  0  0  0  0  0  0  0  0
   57.0847   -4.3978   -1.7690 C   0  0  0  0  0  0  0  0  0  0  0  0
   57.0140   -5.6849   -1.0038 C   0  0  0  0  0  0  0  0  0  0  0  0
   57.2048   -6.7526   -2.0651 C   0  0  0  0  0  0  0  0  0  0  0  0
   56.4007   -7.9664   -1.6908 C   0  0  0  0  0  0  0  0  0  0  0  0
   56.8822   -9.0508   -2.1069 O   0  0  0  0  0  0  0  0  0  0  0  0
   55.2609   -7.8343   -0.9602 N   0  0  0  0  0  0  0  0  0  0  0  0
   55.3020   -9.1695   -0.6700 H   0  0  0  0  0  0  0  0  0  0  0  0
   54.1059   -7.7034   -0.2199 C   0  0  0  0  0  0  0  0  0  0  0  0
   53.7182   -8.9877    0.4053 C   0  0  0  0  0  0  0  0  0  0  0  0
   52.8845   -9.8774   -0.3235 O   0  0  0  0  0  0  0  0  0  0  0  0
   54.1320   -9.2435    1.5473 O   0  0  0  0  0  0  0  0  0  0  0  0
   52.1837  -10.4165    0.2246 H   0  0  0  0  0  0  0  0  0  0  0  0
   52.8785   -7.2854   -1.1117 C   0  0  0  0  0  0  0  0  0  0  0  0
   52.9952   -5.7942   -1.3130 C   0  0  0  0  0  0  0  0  0  0  0  0
   52.7947   -4.8826   -0.3020 O   0  0  0  0  0  0  0  0  0  0  0  0
   53.2877   -5.3468   -2.4641 O   0  0  0  0  0  0  0  0  0  0  0  0
   52.0439   -4.1707   -0.4758 H   0  0  0  0  0  0  0  0  0  0  0  0
   53.9607   -6.3868   -5.8733 C   0  0  0  0  0  0  0  0  0  0  0  0
   52.9648   -5.4051   -6.3371 C   0  0  0  0  0  0  0  0  0  0  0  0
   51.7260   -5.2850   -5.5056 C   0  0  0  0  0  0  0  0  0  0  0  0
   52.4677   -5.9222   -7.7089 C   0  0  0  0  0  0  0  0  0  0  0  0
   58.8722   -5.8851   -8.0488 N   0  0  0  0  0  0  0  0  0  0  0  0
   59.8016   -6.1185   -9.1256 C   0  0  0  0  0  0  0  0  0  0  0  0
   59.5623   -5.5069  -10.1947 O   0  0  0  0  0  0  0  0  0  0  0  0
   59.0709   -6.3620   -7.1547 H   0  0  0  0  0  0  0  0  0  0  0  0
   60.9585   -6.9960   -9.0327 C   0  0  0  0  0  0  0  0  0  0  0  0
   61.2407   -7.2950   -7.6364 N   0  0  0  0  0  0  0  0  0  0  0  0
   62.4859   -7.0830   -7.0348 C   0  0  0  0  0  0  0  0  0  0  0  0
   63.3967   -6.6141   -7.7485 O   0  0  0  0  0  0  0  0  0  0  0  0
   60.4572   -7.6809   -7.0784 H   0  0  0  0  0  0  0  0  0  0  0  0
   62.7352   -7.3945   -5.6208 C   0  0  0  0  0  0  0  0  0  0  0  0
   61.8912   -8.4790   -5.1178 N   0  0  0  0  0  0  0  0  0  0  0  0
   60.9449   -8.1493   -4.0644 C   0  0  0  0  0  0  0  0  0  0  0  0
   60.9071   -6.9700   -3.7115 O   0  0  0  0  0  0  0  0  0  0  0  0
   61.9641   -9.4226   -5.4940 H   0  0  0  0  0  0  0  0  0  0  0  0
   60.1311   -9.0997   -3.4867 O   0  0  0  0  0  0  0  0  0  0  0  0
   60.5203  -10.0782   -2.5755 C   0  0  0  0  0  0  0  0  0  0  0  0
   60.4839  -11.4736   -3.0784 C   0  0  0  0  0  0  0  0  0  0  0  0
   60.4164  -11.7290   -4.4015 C   0  0  0  0  0  0  0  0  0  0  0  0
   60.3742  -13.0233   -4.9192 C   0  0  0  0  0  0  0  0  0  0  0  0
   60.4024  -14.0650   -4.0566 C   0  0  0  0  0  0  0  0  0  0  0  0
   60.4694  -13.8119   -2.6754 C   0  0  0  0  0  0  0  0  0  0  0  0
   60.5108  -12.5371   -2.1635 C   0  0  0  0  0  0  0  0  0  0  0  0
   64.1931   -7.7472   -5.3733 C   0  0  0  0  0  0  0  0  0  0  0  0
   64.2913   -9.1948   -4.9105 C   0  0  0  0  0  0  0  0  0  0  0  0
   64.7954   -6.9194   -4.2573 C   0  0  0  0  0  0  0  0  0  0  0  0
   60.9555   -8.2103   -9.8950 C   0  0  0  0  0  0  0  0  0  0  0  0
   62.1195   -8.4193  -10.7940 C   0  0  0  0  0  0  0  0  0  0  0  0
   62.8649   -7.2256  -11.2402 C   0  0  0  0  0  0  0  0  0  0  0  0
   63.1037   -9.3241  -10.0475 C   0  0  0  0  0  0  0  0  0  0  0  0
   57.0040   -5.2240   -9.5565 C   0  0  0  0  0  0  0  0  0  0  0  0
   56.5759   -4.0988  -11.6695 C   0  0  0  0  0  0  0  0  0  0  0  0
   56.3583   -4.0467  -10.1499 C   0  0  0  0  0  0  0  0  0  0  0  0
   54.8666   -3.9221   -9.9735 C   0  0  0  0  0  0  0  0  0  0  0  0
 62 63  1  0  0  0
 63 64  1  0  0  0
 63 61  1  0  0  0
 61  1  1  0  0  0
  1 32  1  0  0  0
 32 33  1  0  0  0
 33 34  2  0  0  0
 33 36  1  0  0  0
 36 57  1  0  0  0
 57 58  1  0  0  0
 58 59  1  0  0  0
 58 60  1  0  0  0
 36 37  1  0  0  0
 37 38  1  0  0  0
 38 39  2  0  0  0
 38 41  1  0  0  0
 41 42  1  0  0  0
 42 43  1  0  0  0
 43 44  2  0  0  0
 43 46  1  0  0  0
 46 47  1  0  0  0
 47 48  1  0  0  0
 48 49  2  0  0  0
 49 50  1  0  0  0
 50 51  2  0  0  0
 51 52  1  0  0  0
 52 53  2  0  0  0
 41 54  1  0  0  0
 54 55  1  0  0  0
 54 56  1  0  0  0
  1  2  1  0  0  0
  2  3  2  0  0  0
  2  4  1  0  0  0
  4  6  1  0  0  0
  6 28  1  0  0  0
 28 29  1  0  0  0
 29 30  1  0  0  0
 29 31  1  0  0  0
  6  7  1  0  0  0
  7  8  2  0  0  0
  7  9  1  0  0  0
  9 10  1  0  0  0
 10 11  1  0  0  0
 11 12  1  0  0  0
 12 13  1  0  0  0
 13 14  1  0  0  0
 14 15  2  0  0  0
 14 16  1  0  0  0
 16 18  1  0  0  0
 18 23  1  0  0  0
 23 24  1  0  0  0
 24 25  1  0  0  0
 24 26  2  0  0  0
 18 19  1  0  0  0
 19 20  1  0  0  0
 19 21  2  0  0  0
 53 48  1  0  0  0
 13  9  1  0  0  0
 32 35  1  0  0  0
 37 40  1  0  0  0
 42 45  1  0  0  0
  4  5  1  0  0  0
 16 17  1  0  0  0
 25 27  1  0  0  0
 20 22  1  0  0  0
M  END
> <minimizedAffinity>
-7.41071

> <CNNscore>
0.2255812734

> <CNNaffinity>
6.8556656837

> <CNN_VS>
1.5465097427

> <CNNaffinity_variance>
1.1884683371

$$$$
[H]OC(=O)C([H])([H])[C@@]([H])(C(=O)O[H])N([H])C(=O)[C@@]1([H])N(C(=O)[C@@]([H])(N([H])C(=O)[C@@]([H])(N([H])C(=O)[C@@]([H])(N([H])C(=O)[C@@]([H])(N([H])C(=O)OC([H])([H])c2c([H])c([H])c([H])c([H])c2[H])C([H])(C([H])([H])[H])C([H])([H])[H])C([H])([H])C([H])(C([H])([H])[H])C([H])([H])[H])C([H])([H])C([H])(C([H])([H])[H])C([H])([H])[H])C([H])([H])C([H])(C([H])([H])[H])C([H])([H])[H])C([H])([H])C([H])([H])C1([H])[H]


 64 65  0  0  0  0  0  0  0  0999 V2000
   55.0844   -5.8398   -6.7192 C   0  0  0  0  0  0  0  0  0  0  0  0
   55.2130   -6.5266   -5.4122 C   0  0  0  0  0  0  0  0  0  0  0  0
   55.4397   -7.8157   -5.5169 O   0  0  0  0  0  0  0  0  0  0  0  0
   55.1217   -5.9627   -4.1830 N   0  0  0  0  0  0  0  0  0  0  0  0
   54.9160   -4.9329   -4.0550 H   0  0  0  0  0  0  0  0  0  0  0  0
   55.2468   -6.6887   -2.9368 C   0  0  0  0  0  0  0  0  0  0  0  0
   56.6638   -6.9164   -2.6105 C   0  0  0  0  0  0  0  0  0  0  0  0
   57.0368   -8.1657   -2.7867 O   0  0  0  0  0  0  0  0  0  0  0  0
   57.6027   -5.9896   -2.1656 N   0  0  0  0  0  0  0  0  0  0  0  0
   57.3741   -4.6012   -1.9520 C   0  0  0  0  0  0  0  0  0  0  0  0
   58.1205   -4.3625   -0.6401 C   0  0  0  0  0  0  0  0  0  0  0  0
   59.1559   -5.4434   -0.5579 C   0  0  0  0  0  0  0  0  0  0  0  0
   59.0007   -6.1990   -1.8647 C   0  0  0  0  0  0  0  0  0  0  0  0
   59.3053   -7.6525   -1.6308 C   0  0  0  0  0  0  0  0  0  0  0  0
   58.9087   -8.0890   -0.5205 O   0  0  0  0  0  0  0  0  0  0  0  0
   59.9545   -8.3777   -2.5812 N   0  0  0  0  0  0  0  0  0  0  0  0
   59.5530   -9.5297   -1.9645 H   0  0  0  0  0  0  0  0  0  0  0  0
   60.6119   -9.1149   -3.5422 C   0  0  0  0  0  0  0  0  0  0  0  0
   60.2675  -10.5513   -3.4487 C   0  0  0  0  0  0  0  0  0  0  0  0
   59.2801  -10.9567   -2.5113 O   0  0  0  0  0  0  0  0  0  0  0  0
   60.8550  -11.3545   -4.1904 O   0  0  0  0  0  0  0  0  0  0  0  0
   59.4305  -11.8719   -2.0400 H   0  0  0  0  0  0  0  0  0  0  0  0
   62.1747   -9.0478   -3.3698 C   0  0  0  0  0  0  0  0  0  0  0  0
   62.5966   -7.6972   -3.8950 C   0  0  0  0  0  0  0  0  0  0  0  0
   62.1764   -7.1985   -5.1066 O   0  0  0  0  0  0  0  0  0  0  0  0
   63.3779   -6.9796   -3.1984 O   0  0  0  0  0  0  0  0  0  0  0  0
   62.9384   -6.9533   -5.7848 H   0  0  0  0  0  0  0  0  0  0  0  0
   54.3723   -7.8810   -2.9327 C   0  0  0  0  0  0  0  0  0  0  0  0
   53.0995   -7.8948   -2.1908 C   0  0  0  0  0  0  0  0  0  0  0  0
   52.0609   -6.9208   -2.6526 C   0  0  0  0  0  0  0  0  0  0  0  0
   53.4444   -7.4463   -0.7499 C   0  0  0  0  0  0  0  0  0  0  0  0
   56.1733   -6.0564   -7.6181 N   0  0  0  0  0  0  0  0  0  0  0  0
   57.0905   -4.9787   -7.8919 C   0  0  0  0  0  0  0  0  0  0  0  0
   56.8538   -3.8976   -7.3007 O   0  0  0  0  0  0  0  0  0  0  0  0
   56.3704   -6.9597   -8.0780 H   0  0  0  0  0  0  0  0  0  0  0  0
   58.2328   -5.0835   -8.7870 C   0  0  0  0  0  0  0  0  0  0  0  0
   59.1841   -6.0522   -8.2624 N   0  0  0  0  0  0  0  0  0  0  0  0
   60.2755   -6.5389   -8.9901 C   0  0  0  0  0  0  0  0  0  0  0  0
   60.4269   -6.1121  -10.1536 O   0  0  0  0  0  0  0  0  0  0  0  0
   59.0237   -6.3795   -7.2922 H   0  0  0  0  0  0  0  0  0  0  0  0
   61.2181   -7.5156   -8.4279 C   0  0  0  0  0  0  0  0  0  0  0  0
   60.9416   -8.8874   -8.8558 N   0  0  0  0  0  0  0  0  0  0  0  0
   61.3332   -9.9562   -7.9514 C   0  0  0  0  0  0  0  0  0  0  0  0
   61.8310   -9.6114   -6.8789 O   0  0  0  0  0  0  0  0  0  0  0  0
   60.4911   -9.0814   -9.7483 H   0  0  0  0  0  0  0  0  0  0  0  0
   61.1604  -11.2859   -8.2699 O   0  0  0  0  0  0  0  0  0  0  0  0
   62.1256  -12.1435   -8.7915 C   0  0  0  0  0  0  0  0  0  0  0  0
   63.0938  -11.5243   -9.7298 C   0  0  0  0  0  0  0  0  0  0  0  0
   64.3289  -11.1735   -9.3154 C   0  0  0  0  0  0  0  0  0  0  0  0
   65.2693  -10.5838  -10.1598 C   0  0  0  0  0  0  0  0  0  0  0  0
   64.9264  -10.3550  -11.4483 C   0  0  0  0  0  0  0  0  0  0  0  0
   63.6412  -10.7130  -11.8914 C   0  0  0  0  0  0  0  0  0  0  0  0
   62.7133  -11.2940  -11.0606 C   0  0  0  0  0  0  0  0  0  0  0  0
   62.6571   -7.1699   -8.7758 C   0  0  0  0  0  0  0  0  0  0  0  0
   62.9644   -5.7540   -8.3068 C   0  0  0  0  0  0  0  0  0  0  0  0
   62.8937   -7.1655  -10.2717 C   0  0  0  0  0  0  0  0  0  0  0  0
   57.9405   -5.2848  -10.2334 C   0  0  0  0  0  0  0  0  0  0  0  0
   57.4481   -4.1153  -11.0057 C   0  0  0  0  0  0  0  0  0  0  0  0
   57.9224   -3.9616  -12.3953 C   0  0  0  0  0  0  0  0  0  0  0  0
   55.9211   -4.2196  -11.0495 C   0  0  0  0  0  0  0  0  0  0  0  0
   53.7085   -6.1837   -7.2879 C   0  0  0  0  0  0  0  0  0  0  0  0
   52.0015   -4.6664   -6.4521 C   0  0  0  0  0  0  0  0  0  0  0  0
   52.8539   -5.0530   -7.6701 C   0  0  0  0  0  0  0  0  0  0  0  0
   53.5470   -3.7792   -8.0812 C   0  0  0  0  0  0  0  0  0  0  0  0
 62 63  1  0  0  0
 63 64  1  0  0  0
 63 61  1  0  0  0
 61  1  1  0  0  0
  1 32  1  0  0  0
 32 33  1  0  0  0
 33 34  2  0  0  0
 33 36  1  0  0  0
 36 57  1  0  0  0
 57 58  1  0  0  0
 58 59  1  0  0  0
 58 60  1  0  0  0
 36 37  1  0  0  0
 37 38  1  0  0  0
 38 39  2  0  0  0
 38 41  1  0  0  0
 41 42  1  0  0  0
 42 43  1  0  0  0
 43 44  2  0  0  0
 43 46  1  0  0  0
 46 47  1  0  0  0
 47 48  1  0  0  0
 48 49  2  0  0  0
 49 50  1  0  0  0
 50 51  2  0  0  0
 51 52  1  0  0  0
 52 53  2  0  0  0
 41 54  1  0  0  0
 54 55  1  0  0  0
 54 56  1  0  0  0
  1  2  1  0  0  0
  2  3  2  0  0  0
  2  4  1  0  0  0
  4  6  1  0  0  0
  6 28  1  0  0  0
 28 29  1  0  0  0
 29 30  1  0  0  0
 29 31  1  0  0  0
  6  7  1  0  0  0
  7  8  2  0  0  0
  7  9  1  0  0  0
  9 10  1  0  0  0
 10 11  1  0  0  0
 11 12  1  0  0  0
 12 13  1  0  0  0
 13 14  1  0  0  0
 14 15  2  0  0  0
 14 16  1  0  0  0
 16 18  1  0  0  0
 18 23  1  0  0  0
 23 24  1  0  0  0
 24 25  1  0  0  0
 24 26  2  0  0  0
 18 19  1  0  0  0
 19 20  1  0  0  0
 19 21  2  0  0  0
 53 48  1  0  0  0
 13  9  1  0  0  0
 32 35  1  0  0  0
 37 40  1  0  0  0
 42 45  1  0  0  0
  4  5  1  0  0  0
 16 17  1  0  0  0
 25 27  1  0  0  0
 20 22  1  0  0  0
M  END
> <minimizedAffinity>
-7.03948

> <CNNscore>
0.2133007646

> <CNNaffinity>
6.7686243057

> <CNN_VS>
1.4437527657

> <CNNaffinity_variance>
0.9481153488

$$$$
[H]OC(=O)C([H])([H])[C@@]([H])(C(=O)O[H])N([H])C(=O)[C@@]1([H])N(C(=O)[C@@]([H])(N([H])C(=O)[C@@]([H])(N([H])C(=O)[C@@]([H])(N([H])C(=O)[C@@]([H])(N([H])C(=O)OC([H])([H])c2c([H])c([H])c([H])c([H])c2[H])C([H])(C([H])([H])[H])C([H])([H])[H])C([H])([H])C([H])(C([H])([H])[H])C([H])([H])[H])C([H])([H])C([H])(C([H])([H])[H])C([H])([H])[H])C([H])([H])C([H])(C([H])([H])[H])C([H])([H])[H])C([H])([H])C([H])([H])C1([H])[H]


 64 65  0  0  0  0  0  0  0  0999 V2000
   61.5912   -7.1704   -7.8076 C   0  0  0  0  0  0  0  0  0  0  0  0
   61.5737   -7.6023   -6.3899 C   0  0  0  0  0  0  0  0  0  0  0  0
   62.4146   -6.9402   -5.6292 O   0  0  0  0  0  0  0  0  0  0  0  0
   60.8009   -8.5725   -5.8433 N   0  0  0  0  0  0  0  0  0  0  0  0
   60.1288   -9.1454   -6.4258 H   0  0  0  0  0  0  0  0  0  0  0  0
   60.8346   -8.9585   -4.4485 C   0  0  0  0  0  0  0  0  0  0  0  0
   61.4563  -10.2836   -4.2932 C   0  0  0  0  0  0  0  0  0  0  0  0
   60.5794  -11.2643   -4.2859 O   0  0  0  0  0  0  0  0  0  0  0  0
   62.8090  -10.5887   -4.1686 N   0  0  0  0  0  0  0  0  0  0  0  0
   63.8838   -9.6560   -4.1863 C   0  0  0  0  0  0  0  0  0  0  0  0
   64.7737  -10.1873   -3.0633 C   0  0  0  0  0  0  0  0  0  0  0  0
   64.4384  -11.6425   -2.9316 C   0  0  0  0  0  0  0  0  0  0  0  0
   63.4299  -11.8874   -4.0387 C   0  0  0  0  0  0  0  0  0  0  0  0
   62.4457  -12.9291   -3.5849 C   0  0  0  0  0  0  0  0  0  0  0  0
   61.9882  -13.6435   -4.5128 O   0  0  0  0  0  0  0  0  0  0  0  0
   62.1232  -13.0390   -2.2680 N   0  0  0  0  0  0  0  0  0  0  0  0
   61.6032  -14.2803   -2.5074 H   0  0  0  0  0  0  0  0  0  0  0  0
   61.7947  -13.1526   -0.9344 C   0  0  0  0  0  0  0  0  0  0  0  0
   62.6356  -14.1647   -0.2567 C   0  0  0  0  0  0  0  0  0  0  0  0
   63.9724  -14.3491   -0.7003 O   0  0  0  0  0  0  0  0  0  0  0  0
   62.1438  -14.8209    0.6751 O   0  0  0  0  0  0  0  0  0  0  0  0
   64.3413  -15.3216   -0.6821 H   0  0  0  0  0  0  0  0  0  0  0  0
   60.3115  -13.6383   -0.7320 C   0  0  0  0  0  0  0  0  0  0  0  0
   59.4672  -12.3891   -0.6633 C   0  0  0  0  0  0  0  0  0  0  0  0
   59.1676  -11.6243   -1.7673 O   0  0  0  0  0  0  0  0  0  0  0  0
   59.0092  -12.0135    0.4590 O   0  0  0  0  0  0  0  0  0  0  0  0
   59.4640  -10.6192   -1.7165 H   0  0  0  0  0  0  0  0  0  0  0  0
   59.5082   -8.7780   -3.8205 C   0  0  0  0  0  0  0  0  0  0  0  0
   59.3743   -8.2477   -2.4525 C   0  0  0  0  0  0  0  0  0  0  0  0
   58.0148   -8.3597   -1.8361 C   0  0  0  0  0  0  0  0  0  0  0  0
   59.6310   -6.7251   -2.5616 C   0  0  0  0  0  0  0  0  0  0  0  0
   60.4502   -6.4144   -8.2165 N   0  0  0  0  0  0  0  0  0  0  0  0
   59.7305   -6.8044   -9.4029 C   0  0  0  0  0  0  0  0  0  0  0  0
   60.1766   -7.8106  -10.0053 O   0  0  0  0  0  0  0  0  0  0  0  0
   60.0793   -5.6033   -7.6961 H   0  0  0  0  0  0  0  0  0  0  0  0
   58.5570   -6.1120   -9.9131 C   0  0  0  0  0  0  0  0  0  0  0  0
   57.5106   -6.1018   -8.9014 N   0  0  0  0  0  0  0  0  0  0  0  0
   57.4342   -5.1541   -7.8749 C   0  0  0  0  0  0  0  0  0  0  0  0
   58.3216   -4.2767   -7.8356 O   0  0  0  0  0  0  0  0  0  0  0  0
   56.7925   -6.8459   -8.9711 H   0  0  0  0  0  0  0  0  0  0  0  0
   56.3617   -5.1725   -6.8710 C   0  0  0  0  0  0  0  0  0  0  0  0
   55.0274   -5.2752   -7.4630 N   0  0  0  0  0  0  0  0  0  0  0  0
   54.4697   -4.0701   -8.0550 C   0  0  0  0  0  0  0  0  0  0  0  0
   55.1889   -3.0703   -8.0426 O   0  0  0  0  0  0  0  0  0  0  0  0
   54.5153   -6.1554   -7.4612 H   0  0  0  0  0  0  0  0  0  0  0  0
   53.2052   -4.0400   -8.6022 O   0  0  0  0  0  0  0  0  0  0  0  0
   52.2442   -3.0507   -8.4098 C   0  0  0  0  0  0  0  0  0  0  0  0
   51.2857   -3.2943   -7.3037 C   0  0  0  0  0  0  0  0  0  0  0  0
   51.4150   -4.3725   -6.5031 C   0  0  0  0  0  0  0  0  0  0  0  0
   50.5352   -4.6448   -5.4558 C   0  0  0  0  0  0  0  0  0  0  0  0
   49.5099   -3.7904   -5.2351 C   0  0  0  0  0  0  0  0  0  0  0  0
   49.3624   -2.6650   -6.0647 C   0  0  0  0  0  0  0  0  0  0  0  0
   50.2284   -2.3953   -7.0973 C   0  0  0  0  0  0  0  0  0  0  0  0
   56.5480   -6.3040   -5.8728 C   0  0  0  0  0  0  0  0  0  0  0  0
   55.3345   -7.2230   -5.9182 C   0  0  0  0  0  0  0  0  0  0  0  0
   56.6236   -5.7966   -4.4479 C   0  0  0  0  0  0  0  0  0  0  0  0
   58.7777   -4.7745  -10.5302 C   0  0  0  0  0  0  0  0  0  0  0  0
   58.0378   -4.4622  -11.7799 C   0  0  0  0  0  0  0  0  0  0  0  0
   56.8164   -3.6407  -11.6670 C   0  0  0  0  0  0  0  0  0  0  0  0
   59.0094   -3.7182  -12.7003 C   0  0  0  0  0  0  0  0  0  0  0  0
   62.9346   -6.4897   -8.0662 C   0  0  0  0  0  0  0  0  0  0  0  0
   63.5090   -8.5537   -9.2169 C   0  0  0  0  0  0  0  0  0  0  0  0
   63.7501   -7.0379   -9.1567 C   0  0  0  0  0  0  0  0  0  0  0  0
   63.4555   -6.5406  -10.5488 C   0  0  0  0  0  0  0  0  0  0  0  0
 62 63  1  0  0  0
 63 64  1  0  0  0
 63 61  1  0  0  0
 61  1  1  0  0  0
  1 32  1  0  0  0
 32 33  1  0  0  0
 33 34  2  0  0  0
 33 36  1  0  0  0
 36 57  1  0  0  0
 57 58  1  0  0  0
 58 59  1  0  0  0
 58 60  1  0  0  0
 36 37  1  0  0  0
 37 38  1  0  0  0
 38 39  2  0  0  0
 38 41  1  0  0  0
 41 42  1  0  0  0
 42 43  1  0  0  0
 43 44  2  0  0  0
 43 46  1  0  0  0
 46 47  1  0  0  0
 47 48  1  0  0  0
 48 49  2  0  0  0
 49 50  1  0  0  0
 50 51  2  0  0  0
 51 52  1  0  0  0
 52 53  2  0  0  0
 41 54  1  0  0  0
 54 55  1  0  0  0
 54 56  1  0  0  0
  1  2  1  0  0  0
  2  3  2  0  0  0
  2  4  1  0  0  0
  4  6  1  0  0  0
  6 28  1  0  0  0
 28 29  1  0  0  0
 29 30  1  0  0  0
 29 31  1  0  0  0
  6  7  1  0  0  0
  7  8  2  0  0  0
  7  9  1  0  0  0
  9 10  1  0  0  0
 10 11  1  0  0  0
 11 12  1  0  0  0
 12 13  1  0  0  0
 13 14  1  0  0  0
 14 15  2  0  0  0
 14 16  1  0  0  0
 16 18  1  0  0  0
 18 23  1  0  0  0
 23 24  1  0  0  0
 24 25  1  0  0  0
 24 26  2  0  0  0
 18 19  1  0  0  0
 19 20  1  0  0  0
 19 21  2  0  0  0
 53 48  1  0  0  0
 13  9  1  0  0  0
 32 35  1  0  0  0
 37 40  1  0  0  0
 42 45  1  0  0  0
  4  5  1  0  0  0
 16 17  1  0  0  0
 25 27  1  0  0  0
 20 22  1  0  0  0
M  END
> <minimizedAffinity>
-6.42756

> <CNNscore>
0.1961027533

> <CNNaffinity>
6.7882795334

> <CNN_VS>
1.3312003613

> <CNNaffinity_variance>
0.1226726025

$$$$
[H]OC(=O)C([H])([H])[C@@]([H])(C(=O)O[H])N([H])C(=O)[C@@]1([H])N(C(=O)[C@@]([H])(N([H])C(=O)[C@@]([H])(N([H])C(=O)[C@@]([H])(N([H])C(=O)[C@@]([H])(N([H])C(=O)OC([H])([H])c2c([H])c([H])c([H])c([H])c2[H])C([H])(C([H])([H])[H])C([H])([H])[H])C([H])([H])C([H])(C([H])([H])[H])C([H])([H])[H])C([H])([H])C([H])(C([H])([H])[H])C([H])([H])[H])C([H])([H])C([H])(C([H])([H])[H])C([H])([H])[H])C([H])([H])C([H])([H])C1([H])[H]


 64 65  0  0  0  0  0  0  0  0999 V2000
   55.3441   -5.6150   -6.2456 C   0  0  0  0  0  0  0  0  0  0  0  0
   55.4068   -6.3928   -4.9856 C   0  0  0  0  0  0  0  0  0  0  0  0
   55.8145   -7.6298   -5.1522 O   0  0  0  0  0  0  0  0  0  0  0  0
   55.0952   -5.9546   -3.7413 N   0  0  0  0  0  0  0  0  0  0  0  0
   54.7399   -4.9734   -3.5675 H   0  0  0  0  0  0  0  0  0  0  0  0
   55.1668   -6.7663   -2.5447 C   0  0  0  0  0  0  0  0  0  0  0  0
   56.5653   -7.0972   -2.2268 C   0  0  0  0  0  0  0  0  0  0  0  0
   56.8158   -8.3870   -2.2949 O   0  0  0  0  0  0  0  0  0  0  0  0
   57.5982   -6.2275   -1.8874 N   0  0  0  0  0  0  0  0  0  0  0  0
   57.5053   -4.8102   -1.7977 C   0  0  0  0  0  0  0  0  0  0  0  0
   58.3073   -4.5268   -0.5282 C   0  0  0  0  0  0  0  0  0  0  0  0
   59.2401   -5.6892   -0.3675 C   0  0  0  0  0  0  0  0  0  0  0  0
   58.9787   -6.5407   -1.5961 C   0  0  0  0  0  0  0  0  0  0  0  0
   59.1539   -7.9897   -1.2358 C   0  0  0  0  0  0  0  0  0  0  0  0
   58.8728   -8.2602   -0.0406 O   0  0  0  0  0  0  0  0  0  0  0  0
   59.5800   -8.8811   -2.1708 N   0  0  0  0  0  0  0  0  0  0  0  0
   59.1469   -9.9071   -1.3780 H   0  0  0  0  0  0  0  0  0  0  0  0
   60.0116   -9.7865   -3.1159 C   0  0  0  0  0  0  0  0  0  0  0  0
   60.2989  -11.1049   -2.5075 C   0  0  0  0  0  0  0  0  0  0  0  0
   59.8772  -12.2776   -3.1893 O   0  0  0  0  0  0  0  0  0  0  0  0
   60.8962  -11.1420   -1.4201 O   0  0  0  0  0  0  0  0  0  0  0  0
   59.5474  -13.0685   -2.5993 H   0  0  0  0  0  0  0  0  0  0  0  0
   61.3592   -9.3357   -3.7920 C   0  0  0  0  0  0  0  0  0  0  0  0
   61.1236   -7.9353   -4.3033 C   0  0  0  0  0  0  0  0  0  0  0  0
   60.1529   -7.6278   -5.2288 O   0  0  0  0  0  0  0  0  0  0  0  0
   61.8498   -6.9888   -3.8704 O   0  0  0  0  0  0  0  0  0  0  0  0
   60.4946   -7.1715   -6.1096 H   0  0  0  0  0  0  0  0  0  0  0  0
   54.2247   -7.9032   -2.6232 C   0  0  0  0  0  0  0  0  0  0  0  0
   52.8580   -7.8041   -2.0817 C   0  0  0  0  0  0  0  0  0  0  0  0
   51.8973   -6.9741   -2.8744 C   0  0  0  0  0  0  0  0  0  0  0  0
   52.9914   -7.0643   -0.7285 C   0  0  0  0  0  0  0  0  0  0  0  0
   56.4024   -5.8830   -7.1669 N   0  0  0  0  0  0  0  0  0  0  0  0
   57.0143   -4.7897   -7.8798 C   0  0  0  0  0  0  0  0  0  0  0  0
   56.5547   -3.6496   -7.6285 O   0  0  0  0  0  0  0  0  0  0  0  0
   56.7876   -6.8244   -7.3447 H   0  0  0  0  0  0  0  0  0  0  0  0
   58.0974   -4.9424   -8.8393 C   0  0  0  0  0  0  0  0  0  0  0  0
   59.1175   -5.8272   -8.2960 N   0  0  0  0  0  0  0  0  0  0  0  0
   60.2422   -6.2468   -9.0148 C   0  0  0  0  0  0  0  0  0  0  0  0
   60.3620   -5.8339  -10.1870 O   0  0  0  0  0  0  0  0  0  0  0  0
   58.9813   -6.1455   -7.3191 H   0  0  0  0  0  0  0  0  0  0  0  0
   61.2541   -7.1394   -8.4337 C   0  0  0  0  0  0  0  0  0  0  0  0
   61.4648   -8.3536   -9.2228 N   0  0  0  0  0  0  0  0  0  0  0  0
   61.5021   -9.6155   -8.5015 C   0  0  0  0  0  0  0  0  0  0  0  0
   61.3123   -9.5574   -7.2860 O   0  0  0  0  0  0  0  0  0  0  0  0
   61.5773   -8.3132  -10.2342 H   0  0  0  0  0  0  0  0  0  0  0  0
   61.7369  -10.8158   -9.1366 O   0  0  0  0  0  0  0  0  0  0  0  0
   62.8208  -11.6645   -8.9263 C   0  0  0  0  0  0  0  0  0  0  0  0
   62.5144  -12.9331   -8.2204 C   0  0  0  0  0  0  0  0  0  0  0  0
   62.5452  -14.1123   -8.8752 C   0  0  0  0  0  0  0  0  0  0  0  0
   62.2589  -15.3280   -8.2547 C   0  0  0  0  0  0  0  0  0  0  0  0
   61.9371  -15.3222   -6.9407 C   0  0  0  0  0  0  0  0  0  0  0  0
   61.8983  -14.0995   -6.2480 C   0  0  0  0  0  0  0  0  0  0  0  0
   62.1800  -12.9006   -6.8581 C   0  0  0  0  0  0  0  0  0  0  0  0
   62.5870   -6.4314   -8.2506 C   0  0  0  0  0  0  0  0  0  0  0  0
   63.5121   -6.7886   -9.4064 C   0  0  0  0  0  0  0  0  0  0  0  0
   63.3039   -6.8873   -6.9970 C   0  0  0  0  0  0  0  0  0  0  0  0
   57.7170   -5.2879  -10.2372 C   0  0  0  0  0  0  0  0  0  0  0  0
   57.3050   -4.1771  -11.1333 C   0  0  0  0  0  0  0  0  0  0  0  0
   57.8635   -4.1546  -12.4997 C   0  0  0  0  0  0  0  0  0  0  0  0
   55.7807   -4.2472  -11.2602 C   0  0  0  0  0  0  0  0  0  0  0  0
   53.9385   -5.7815   -6.8213 C   0  0  0  0  0  0  0  0  0  0  0  0
   53.1915   -4.1917   -8.5032 C   0  0  0  0  0  0  0  0  0  0  0  0
   53.1562   -4.5539   -7.0109 C   0  0  0  0  0  0  0  0  0  0  0  0
   51.6919   -4.6138   -6.6586 C   0  0  0  0  0  0  0  0  0  0  0  0
 62 63  1  0  0  0
 63 64  1  0  0  0
 63 61  1  0  0  0
 61  1  1  0  0  0
  1 32  1  0  0  0
 32 33  1  0  0  0
 33 34  2  0  0  0
 33 36  1  0  0  0
 36 57  1  0  0  0
 57 58  1  0  0  0
 58 59  1  0  0  0
 58 60  1  0  0  0
 36 37  1  0  0  0
 37 38  1  0  0  0
 38 39  2  0  0  0
 38 41  1  0  0  0
 41 42  1  0  0  0
 42 43  1  0  0  0
 43 44  2  0  0  0
 43 46  1  0  0  0
 46 47  1  0  0  0
 47 48  1  0  0  0
 48 49  2  0  0  0
 49 50  1  0  0  0
 50 51  2  0  0  0
 51 52  1  0  0  0
 52 53  2  0  0  0
 41 54  1  0  0  0
 54 55  1  0  0  0
 54 56  1  0  0  0
  1  2  1  0  0  0
  2  3  2  0  0  0
  2  4  1  0  0  0
  4  6  1  0  0  0
  6 28  1  0  0  0
 28 29  1  0  0  0
 29 30  1  0  0  0
 29 31  1  0  0  0
  6  7  1  0  0  0
  7  8  2  0  0  0
  7  9  1  0  0  0
  9 10  1  0  0  0
 10 11  1  0  0  0
 11 12  1  0  0  0
 12 13  1  0  0  0
 13 14  1  0  0  0
 14 15  2  0  0  0
 14 16  1  0  0  0
 16 18  1  0  0  0
 18 23  1  0  0  0
 23 24  1  0  0  0
 24 25  1  0  0  0
 24 26  2  0  0  0
 18 19  1  0  0  0
 19 20  1  0  0  0
 19 21  2  0  0  0
 53 48  1  0  0  0
 13  9  1  0  0  0
 32 35  1  0  0  0
 37 40  1  0  0  0
 42 45  1  0  0  0
  4  5  1  0  0  0
 16 17  1  0  0  0
 25 27  1  0  0  0
 20 22  1  0  0  0
M  END
> <minimizedAffinity>
-7.35795

> <CNNscore>
0.1899725050

> <CNNaffinity>
6.8184714317

> <CNN_VS>
1.2953220606

> <CNNaffinity_variance>
0.7696347237

$$$$
[H]OC(=O)C([H])([H])[C@@]([H])(C(=O)O[H])N([H])C(=O)[C@@]1([H])N(C(=O)[C@@]([H])(N([H])C(=O)[C@@]([H])(N([H])C(=O)[C@@]([H])(N([H])C(=O)[C@@]([H])(N([H])C(=O)OC([H])([H])c2c([H])c([H])c([H])c([H])c2[H])C([H])(C([H])([H])[H])C([H])([H])[H])C([H])([H])C([H])(C([H])([H])[H])C([H])([H])[H])C([H])([H])C([H])(C([H])([H])[H])C([H])([H])[H])C([H])([H])C([H])(C([H])([H])[H])C([H])([H])[H])C([H])([H])C([H])([H])C1([H])[H]


 64 65  0  0  0  0  0  0  0  0999 V2000
   55.5103   -5.8357   -6.2966 C   0  0  0  0  0  0  0  0  0  0  0  0
   55.5510   -6.6973   -5.0914 C   0  0  0  0  0  0  0  0  0  0  0  0
   55.4645   -7.9797   -5.3599 O   0  0  0  0  0  0  0  0  0  0  0  0
   55.6653   -6.2913   -3.8032 N   0  0  0  0  0  0  0  0  0  0  0  0
   55.7131   -5.2671   -3.5427 H   0  0  0  0  0  0  0  0  0  0  0  0
   55.6898   -7.1820   -2.6623 C   0  0  0  0  0  0  0  0  0  0  0  0
   57.0349   -7.7505   -2.4785 C   0  0  0  0  0  0  0  0  0  0  0  0
   57.0712   -9.0528   -2.6620 O   0  0  0  0  0  0  0  0  0  0  0  0
   58.2132   -7.0828   -2.1553 N   0  0  0  0  0  0  0  0  0  0  0  0
   58.3539   -5.6811   -1.9529 C   0  0  0  0  0  0  0  0  0  0  0  0
   59.2706   -5.6350   -0.7312 C   0  0  0  0  0  0  0  0  0  0  0  0
   60.0140   -6.9367   -0.7301 C   0  0  0  0  0  0  0  0  0  0  0  0
   59.5417   -7.6289   -1.9953 C   0  0  0  0  0  0  0  0  0  0  0  0
   59.5058   -9.1131   -1.7590 C   0  0  0  0  0  0  0  0  0  0  0  0
   58.9458   -9.4497   -0.6849 O   0  0  0  0  0  0  0  0  0  0  0  0
   60.0478   -9.9650   -2.6706 N   0  0  0  0  0  0  0  0  0  0  0  0
   59.3627  -11.0002   -2.0983 H   0  0  0  0  0  0  0  0  0  0  0  0
   60.5961  -10.8304   -3.5924 C   0  0  0  0  0  0  0  0  0  0  0  0
   60.1577  -12.2233   -3.3510 C   0  0  0  0  0  0  0  0  0  0  0  0
   60.3163  -12.7731   -2.0509 O   0  0  0  0  0  0  0  0  0  0  0  0
   59.6686  -12.8659   -4.2936 O   0  0  0  0  0  0  0  0  0  0  0  0
   60.5679  -13.7812   -1.9969 H   0  0  0  0  0  0  0  0  0  0  0  0
   62.1670  -10.8658   -3.5060 C   0  0  0  0  0  0  0  0  0  0  0  0
   62.6565  -11.1748   -4.8999 C   0  0  0  0  0  0  0  0  0  0  0  0
   62.1439  -12.1965   -5.6659 O   0  0  0  0  0  0  0  0  0  0  0  0
   63.5861  -10.4698   -5.3991 O   0  0  0  0  0  0  0  0  0  0  0  0
   62.8380  -12.9149   -5.9867 H   0  0  0  0  0  0  0  0  0  0  0  0
   54.5718   -8.1477   -2.7247 C   0  0  0  0  0  0  0  0  0  0  0  0
   53.2563   -7.8351   -2.1396 C   0  0  0  0  0  0  0  0  0  0  0  0
   52.4102   -6.8682   -2.9076 C   0  0  0  0  0  0  0  0  0  0  0  0
   53.5486   -7.1205   -0.7979 C   0  0  0  0  0  0  0  0  0  0  0  0
   56.5509   -6.0828   -7.2437 N   0  0  0  0  0  0  0  0  0  0  0  0
   57.2066   -4.9690   -7.8817 C   0  0  0  0  0  0  0  0  0  0  0  0
   56.7991   -3.8308   -7.5457 O   0  0  0  0  0  0  0  0  0  0  0  0
   56.8932   -7.0250   -7.4915 H   0  0  0  0  0  0  0  0  0  0  0  0
   58.2769   -5.0995   -8.8587 C   0  0  0  0  0  0  0  0  0  0  0  0
   59.2548   -6.0719   -8.3931 N   0  0  0  0  0  0  0  0  0  0  0  0
   60.3652   -6.4743   -9.1432 C   0  0  0  0  0  0  0  0  0  0  0  0
   60.5102   -5.9651  -10.2739 O   0  0  0  0  0  0  0  0  0  0  0  0
   59.0989   -6.4690   -7.4486 H   0  0  0  0  0  0  0  0  0  0  0  0
   61.3344   -7.4575   -8.6407 C   0  0  0  0  0  0  0  0  0  0  0  0
   61.3127   -7.5869   -7.1833 N   0  0  0  0  0  0  0  0  0  0  0  0
   62.5327   -7.2480   -6.4688 C   0  0  0  0  0  0  0  0  0  0  0  0
   63.4727   -6.8407   -7.1525 O   0  0  0  0  0  0  0  0  0  0  0  0
   60.4761   -7.8986   -6.6933 H   0  0  0  0  0  0  0  0  0  0  0  0
   62.6396   -7.3734   -5.1005 O   0  0  0  0  0  0  0  0  0  0  0  0
   63.6469   -6.8440   -4.2977 C   0  0  0  0  0  0  0  0  0  0  0  0
   64.0492   -7.6794   -3.1394 C   0  0  0  0  0  0  0  0  0  0  0  0
   63.2744   -7.7503   -2.0372 C   0  0  0  0  0  0  0  0  0  0  0  0
   63.6151   -8.5171   -0.9232 C   0  0  0  0  0  0  0  0  0  0  0  0
   64.7714   -9.2186   -0.9513 C   0  0  0  0  0  0  0  0  0  0  0  0
   65.5891   -9.1503   -2.0928 C   0  0  0  0  0  0  0  0  0  0  0  0
   65.2550   -8.3950   -3.1914 C   0  0  0  0  0  0  0  0  0  0  0  0
   61.1160   -8.8277   -9.2620 C   0  0  0  0  0  0  0  0  0  0  0  0
   61.4766   -9.9056   -8.2484 C   0  0  0  0  0  0  0  0  0  0  0  0
   62.0249   -9.0632  -10.4502 C   0  0  0  0  0  0  0  0  0  0  0  0
   57.8741   -5.3173  -10.2759 C   0  0  0  0  0  0  0  0  0  0  0  0
   57.3871   -4.1415  -11.0419 C   0  0  0  0  0  0  0  0  0  0  0  0
   57.8046   -4.0208  -12.4528 C   0  0  0  0  0  0  0  0  0  0  0  0
   55.8569   -4.1951  -11.0178 C   0  0  0  0  0  0  0  0  0  0  0  0
   54.0953   -5.9090   -6.8688 C   0  0  0  0  0  0  0  0  0  0  0  0
   53.3000   -4.1140   -8.3039 C   0  0  0  0  0  0  0  0  0  0  0  0
   53.3210   -4.6618   -6.8691 C   0  0  0  0  0  0  0  0  0  0  0  0
   51.8716   -4.7556   -6.4661 C   0  0  0  0  0  0  0  0  0  0  0  0
 62 63  1  0  0  0
 63 64  1  0  0  0
 63 61  1  0  0  0
 61  1  1  0  0  0
  1 32  1  0  0  0
 32 33  1  0  0  0
 33 34  2  0  0  0
 33 36  1  0  0  0
 36 57  1  0  0  0
 57 58  1  0  0  0
 58 59  1  0  0  0
 58 60  1  0  0  0
 36 37  1  0  0  0
 37 38  1  0  0  0
 38 39  2  0  0  0
 38 41  1  0  0  0
 41 42  1  0  0  0
 42 43  1  0  0  0
 43 44  2  0  0  0
 43 46  1  0  0  0
 46 47  1  0  0  0
 47 48  1  0  0  0
 48 49  2  0  0  0
 49 50  1  0  0  0
 50 51  2  0  0  0
 51 52  1  0  0  0
 52 53  2  0  0  0
 41 54  1  0  0  0
 54 55  1  0  0  0
 54 56  1  0  0  0
  1  2  1  0  0  0
  2  3  2  0  0  0
  2  4  1  0  0  0
  4  6  1  0  0  0
  6 28  1  0  0  0
 28 29  1  0  0  0
 29 30  1  0  0  0
 29 31  1  0  0  0
  6  7  1  0  0  0
  7  8  2  0  0  0
  7  9  1  0  0  0
  9 10  1  0  0  0
 10 11  1  0  0  0
 11 12  1  0  0  0
 12 13  1  0  0  0
 13 14  1  0  0  0
 14 15  2  0  0  0
 14 16  1  0  0  0
 16 18  1  0  0  0
 18 23  1  0  0  0
 23 24  1  0  0  0
 24 25  1  0  0  0
 24 26  2  0  0  0
 18 19  1  0  0  0
 19 20  1  0  0  0
 19 21  2  0  0  0
 53 48  1  0  0  0
 13  9  1  0  0  0
 32 35  1  0  0  0
 37 40  1  0  0  0
 42 45  1  0  0  0
  4  5  1  0  0  0
 16 17  1  0  0  0
 25 27  1  0  0  0
 20 22  1  0  0  0
M  END
> <minimizedAffinity>
-6.77779

> <CNNscore>
0.1706404537

> <CNNaffinity>
6.8323845863

> <CNN_VS>
1.1658811569

> <CNNaffinity_variance>
0.5178445578

$$$$
[H]OC(=O)[C@@]([H])(N([H])C(=O)[C@@]([H])(N([H])C(=O)[C@@]([H])(N([H])C(=O)[C@@]([H])(N([H])C(=O)[C@@]1([H])N(C(=O)[C@@]([H])(N([H])C(=O)OC([H])([H])c2c([H])c([H])c([H])c([H])c2[H])[C@@]([H])(C([H])([H])[H])C([H])([H])C([H])([H])[H])C([H])([H])C([H])([H])C1([H])[H])C([H])([H])C([H])(C([H])([H])[H])C([H])([H])[H])C([H])([H])C([H])(C([H])([H])[H])C([H])([H])[H])C([H])([H])O[H])C([H])([H])O[H]


 62 63  0  0  0  0  0  0  0  0999 V2000
   57.1823   -5.5206   -8.1407 C   0  0  0  0  0  0  0  0  0  0  0  0
   56.6196   -6.2274   -5.7645 C   0  0  0  0  0  0  0  0  0  0  0  0
   55.5778   -6.8185   -6.1143 O   0  0  0  0  0  0  0  0  0  0  0  0
   57.4234   -5.5959   -6.7356 N   0  0  0  0  0  0  0  0  0  0  0  0
   58.3104   -5.1263   -6.3553 H   0  0  0  0  0  0  0  0  0  0  0  0
   55.3021   -6.9613   -2.5756 C   0  0  0  0  0  0  0  0  0  0  0  0
   54.7917   -8.0624   -2.0968 O   0  0  0  0  0  0  0  0  0  0  0  0
   56.2875   -7.1355   -3.5306 N   0  0  0  0  0  0  0  0  0  0  0  0
   56.8302   -8.4367   -3.9435 C   0  0  0  0  0  0  0  0  0  0  0  0
   58.3287   -8.1059   -3.8186 C   0  0  0  0  0  0  0  0  0  0  0  0
   58.4292   -6.6052   -4.0698 C   0  0  0  0  0  0  0  0  0  0  0  0
   56.9917   -6.1960   -4.3381 C   0  0  0  0  0  0  0  0  0  0  0  0
   54.7384   -5.7291   -2.0104 C   0  0  0  0  0  0  0  0  0  0  0  0
   53.3327   -5.5727   -2.3423 N   0  0  0  0  0  0  0  0  0  0  0  0
   52.6880   -5.6417   -3.5478 C   0  0  0  0  0  0  0  0  0  0  0  0
   53.2940   -5.8765   -4.6164 O   0  0  0  0  0  0  0  0  0  0  0  0
   52.7483   -5.3761   -1.4606 H   0  0  0  0  0  0  0  0  0  0  0  0
   51.3237   -5.4476   -3.6208 O   0  0  0  0  0  0  0  0  0  0  0  0
   50.6328   -5.8072   -4.7973 C   0  0  0  0  0  0  0  0  0  0  0  0
   50.3643   -4.5523   -5.5305 C   0  0  0  0  0  0  0  0  0  0  0  0
   51.0634   -4.2689   -6.6679 C   0  0  0  0  0  0  0  0  0  0  0  0
   50.8253   -3.1055   -7.3760 C   0  0  0  0  0  0  0  0  0  0  0  0
   49.8646   -2.2550   -6.8917 C   0  0  0  0  0  0  0  0  0  0  0  0
   49.1519   -2.5212   -5.7513 C   0  0  0  0  0  0  0  0  0  0  0  0
   49.4124   -3.6915   -5.0656 C   0  0  0  0  0  0  0  0  0  0  0  0
   54.8794   -5.8174   -0.4991 C   0  0  0  0  0  0  0  0  0  0  0  0
   55.8762   -4.8267    0.0391 C   0  0  0  0  0  0  0  0  0  0  0  0
   53.1762   -6.9610    0.9251 C   0  0  0  0  0  0  0  0  0  0  0  0
   53.5178   -5.6799    0.1730 C   0  0  0  0  0  0  0  0  0  0  0  0
   58.4505   -5.8412   -8.8907 C   0  0  0  0  0  0  0  0  0  0  0  0
   58.5157   -5.7782  -10.1335 O   0  0  0  0  0  0  0  0  0  0  0  0
   59.6403   -6.2311   -8.1947 N   0  0  0  0  0  0  0  0  0  0  0  0
   59.6362   -6.2996   -7.1529 H   0  0  0  0  0  0  0  0  0  0  0  0
   60.8863   -6.5506   -8.8450 C   0  0  0  0  0  0  0  0  0  0  0  0
   60.9013   -8.0318   -9.0777 C   0  0  0  0  0  0  0  0  0  0  0  0
   60.5252   -8.4592  -10.1874 O   0  0  0  0  0  0  0  0  0  0  0  0
   61.3214   -8.9265   -8.0877 N   0  0  0  0  0  0  0  0  0  0  0  0
   61.6408   -8.5242   -7.1564 H   0  0  0  0  0  0  0  0  0  0  0  0
   61.3638  -10.3517   -8.2089 C   0  0  0  0  0  0  0  0  0  0  0  0
   61.6854  -10.9675   -6.9071 C   0  0  0  0  0  0  0  0  0  0  0  0
   62.4200  -11.9884   -6.8431 O   0  0  0  0  0  0  0  0  0  0  0  0
   61.1758  -10.4230   -5.7233 N   0  0  0  0  0  0  0  0  0  0  0  0
   60.5629   -9.5652   -5.7727 H   0  0  0  0  0  0  0  0  0  0  0  0
   61.4158  -10.9406   -4.3984 C   0  0  0  0  0  0  0  0  0  0  0  0
   60.2470  -11.6828   -3.8778 C   0  0  0  0  0  0  0  0  0  0  0  0
   59.5684  -11.2289   -2.7803 O   0  0  0  0  0  0  0  0  0  0  0  0
   59.8769  -12.7365   -4.4483 O   0  0  0  0  0  0  0  0  0  0  0  0
   59.2650  -11.8029   -2.0175 H   0  0  0  0  0  0  0  0  0  0  0  0
   61.8987   -9.8927   -3.4178 C   0  0  0  0  0  0  0  0  0  0  0  0
   61.8581   -8.6147   -3.9144 O   0  0  0  0  0  0  0  0  0  0  0  0
   61.5999   -7.9150   -3.2734 H   0  0  0  0  0  0  0  0  0  0  0  0
   62.3303  -10.7983   -9.2949 C   0  0  0  0  0  0  0  0  0  0  0  0
   61.7260  -11.2047  -10.4554 O   0  0  0  0  0  0  0  0  0  0  0  0
   62.3958  -11.6274  -11.0271 H   0  0  0  0  0  0  0  0  0  0  0  0
   62.1163   -6.2161   -8.0777 C   0  0  0  0  0  0  0  0  0  0  0  0
   63.4003   -6.1565   -8.8106 C   0  0  0  0  0  0  0  0  0  0  0  0
   63.3915   -6.4893  -10.2547 C   0  0  0  0  0  0  0  0  0  0  0  0
   64.4247   -6.9662   -8.0283 C   0  0  0  0  0  0  0  0  0  0  0  0
   56.6568   -4.2508   -8.6785 C   0  0  0  0  0  0  0  0  0  0  0  0
   55.3505   -4.2731   -9.3827 C   0  0  0  0  0  0  0  0  0  0  0  0
   55.5851   -4.0249  -10.8917 C   0  0  0  0  0  0  0  0  0  0  0  0
   54.3481   -3.2566   -8.9667 C   0  0  0  0  0  0  0  0  0  0  0  0
 28 29  1  0  0  0
 29 26  1  0  0  0
 26 27  1  0  0  0
 26 13  1  0  0  0
 13 14  1  0  0  0
 14 15  1  0  0  0
 15 16  2  0  0  0
 15 18  1  0  0  0
 18 19  1  0  0  0
 19 20  1  0  0  0
 20 21  2  0  0  0
 21 22  1  0  0  0
 22 23  2  0  0  0
 23 24  1  0  0  0
 24 25  2  0  0  0
 13  6  1  0  0  0
  6  7  2  0  0  0
  6  8  1  0  0  0
  8  9  1  0  0  0
  9 10  1  0  0  0
 10 11  1  0  0  0
 11 12  1  0  0  0
 12  2  1  0  0  0
  2  3  2  0  0  0
  2  4  1  0  0  0
  4  1  1  0  0  0
  1 59  1  0  0  0
 59 60  1  0  0  0
 60 61  1  0  0  0
 60 62  1  0  0  0
  1 30  1  0  0  0
 30 31  2  0  0  0
 30 32  1  0  0  0
 32 34  1  0  0  0
 34 55  1  0  0  0
 55 56  1  0  0  0
 56 57  1  0  0  0
 56 58  1  0  0  0
 34 35  1  0  0  0
 35 36  2  0  0  0
 35 37  1  0  0  0
 37 39  1  0  0  0
 39 52  1  0  0  0
 52 53  1  0  0  0
 39 40  1  0  0  0
 40 41  2  0  0  0
 40 42  1  0  0  0
 42 44  1  0  0  0
 44 49  1  0  0  0
 49 50  1  0  0  0
 44 45  1  0  0  0
 45 46  1  0  0  0
 45 47  2  0  0  0
 25 20  1  0  0  0
 12  8  1  0  0  0
 14 17  1  0  0  0
  4  5  1  0  0  0
 32 33  1  0  0  0
 37 38  1  0  0  0
 53 54  1  0  0  0
 42 43  1  0  0  0
 50 51  1  0  0  0
 46 48  1  0  0  0
M  END
> <minimizedAffinity>
-6.76506

> <CNNscore>
0.3258603215

> <CNNaffinity>
7.0592002869

> <CNN_VS>
2.3003132343

> <CNNaffinity_variance>
0.2710283399

$$$$
[H]OC(=O)[C@@]([H])(N([H])C(=O)[C@@]([H])(N([H])C(=O)[C@@]([H])(N([H])C(=O)[C@@]([H])(N([H])C(=O)[C@@]1([H])N(C(=O)[C@@]([H])(N([H])C(=O)OC([H])([H])c2c([H])c([H])c([H])c([H])c2[H])[C@@]([H])(C([H])([H])[H])C([H])([H])C([H])([H])[H])C([H])([H])C([H])([H])C1([H])[H])C([H])([H])C([H])(C([H])([H])[H])C([H])([H])[H])C([H])([H])C([H])(C([H])([H])[H])C([H])([H])[H])C([H])([H])O[H])C([H])([H])O[H]


 62 63  0  0  0  0  0  0  0  0999 V2000
   57.2993   -5.7408   -8.1512 C   0  0  0  0  0  0  0  0  0  0  0  0
   56.3000   -6.3242   -5.8878 C   0  0  0  0  0  0  0  0  0  0  0  0
   55.6157   -7.2577   -6.3542 O   0  0  0  0  0  0  0  0  0  0  0  0
   57.1360   -5.5769   -6.7424 N   0  0  0  0  0  0  0  0  0  0  0  0
   57.7044   -4.8047   -6.2603 H   0  0  0  0  0  0  0  0  0  0  0  0
   54.5082   -7.2344   -2.9886 C   0  0  0  0  0  0  0  0  0  0  0  0
   54.3248   -8.3992   -2.4303 O   0  0  0  0  0  0  0  0  0  0  0  0
   55.7135   -7.0814   -3.6499 N   0  0  0  0  0  0  0  0  0  0  0  0
   56.7874   -8.0837   -3.6723 C   0  0  0  0  0  0  0  0  0  0  0  0
   57.9611   -7.1653   -3.2859 C   0  0  0  0  0  0  0  0  0  0  0  0
   57.5707   -5.7819   -3.7948 C   0  0  0  0  0  0  0  0  0  0  0  0
   56.2200   -6.0153   -4.4483 C   0  0  0  0  0  0  0  0  0  0  0  0
   53.3985   -6.2895   -2.8118 C   0  0  0  0  0  0  0  0  0  0  0  0
   52.4059   -6.4143   -3.8653 N   0  0  0  0  0  0  0  0  0  0  0  0
   52.4030   -5.9386   -5.1488 C   0  0  0  0  0  0  0  0  0  0  0  0
   53.3545   -5.2757   -5.6171 O   0  0  0  0  0  0  0  0  0  0  0  0
   51.5580   -6.9855   -3.5299 H   0  0  0  0  0  0  0  0  0  0  0  0
   51.3271   -6.1791   -5.9788 O   0  0  0  0  0  0  0  0  0  0  0  0
   50.1329   -5.4500   -5.7972 C   0  0  0  0  0  0  0  0  0  0  0  0
   50.3136   -4.1611   -6.4978 C   0  0  0  0  0  0  0  0  0  0  0  0
   49.4900   -3.1117   -6.2093 C   0  0  0  0  0  0  0  0  0  0  0  0
   49.6434   -1.8936   -6.8451 C   0  0  0  0  0  0  0  0  0  0  0  0
   50.6500   -1.7846   -7.7702 C   0  0  0  0  0  0  0  0  0  0  0  0
   51.4874   -2.8266   -8.0742 C   0  0  0  0  0  0  0  0  0  0  0  0
   51.3092   -4.0312   -7.4224 C   0  0  0  0  0  0  0  0  0  0  0  0
   52.7415   -6.6060   -1.4777 C   0  0  0  0  0  0  0  0  0  0  0  0
   53.1497   -5.6403   -0.3981 C   0  0  0  0  0  0  0  0  0  0  0  0
   50.7006   -7.9623   -0.9959 C   0  0  0  0  0  0  0  0  0  0  0  0
   51.2267   -6.6815   -1.6333 C   0  0  0  0  0  0  0  0  0  0  0  0
   58.7681   -5.7698   -8.4914 C   0  0  0  0  0  0  0  0  0  0  0  0
   59.5244   -4.8144   -8.2309 O   0  0  0  0  0  0  0  0  0  0  0  0
   59.3545   -6.9098   -9.1306 N   0  0  0  0  0  0  0  0  0  0  0  0
   58.7621   -7.7354   -9.3704 H   0  0  0  0  0  0  0  0  0  0  0  0
   60.7485   -7.0073   -9.4838 C   0  0  0  0  0  0  0  0  0  0  0  0
   61.0852   -8.4658   -9.5731 C   0  0  0  0  0  0  0  0  0  0  0  0
   61.1484   -8.9892  -10.7035 O   0  0  0  0  0  0  0  0  0  0  0  0
   61.3240   -9.2357   -8.4299 N   0  0  0  0  0  0  0  0  0  0  0  0
   61.2671   -8.7529   -7.4838 H   0  0  0  0  0  0  0  0  0  0  0  0
   61.6424  -10.6307   -8.4098 C   0  0  0  0  0  0  0  0  0  0  0  0
   61.1153  -11.2593   -7.1833 C   0  0  0  0  0  0  0  0  0  0  0  0
   59.9404  -11.7113   -7.1469 O   0  0  0  0  0  0  0  0  0  0  0  0
   61.9170  -11.3608   -6.0412 N   0  0  0  0  0  0  0  0  0  0  0  0
   62.9035  -10.9864   -6.0691 H   0  0  0  0  0  0  0  0  0  0  0  0
   61.5094  -11.9468   -4.7877 C   0  0  0  0  0  0  0  0  0  0  0  0
   61.2575  -10.9176   -3.7555 C   0  0  0  0  0  0  0  0  0  0  0  0
   60.3306   -9.9342   -3.9667 O   0  0  0  0  0  0  0  0  0  0  0  0
   61.9001  -10.9484   -2.6790 O   0  0  0  0  0  0  0  0  0  0  0  0
   60.4686   -8.9640   -3.7594 H   0  0  0  0  0  0  0  0  0  0  0  0
   62.4494  -13.0243   -4.2896 C   0  0  0  0  0  0  0  0  0  0  0  0
   63.7664  -12.6414   -4.2749 O   0  0  0  0  0  0  0  0  0  0  0  0
   64.3001  -12.9744   -3.5190 H   0  0  0  0  0  0  0  0  0  0  0  0
   63.1358  -10.8720   -8.5667 C   0  0  0  0  0  0  0  0  0  0  0  0
   63.9250  -10.0001   -7.8638 O   0  0  0  0  0  0  0  0  0  0  0  0
   64.8521  -10.1154   -8.1493 H   0  0  0  0  0  0  0  0  0  0  0  0
   61.7009   -6.3972   -8.5172 C   0  0  0  0  0  0  0  0  0  0  0  0
   63.1494   -6.5284   -8.7889 C   0  0  0  0  0  0  0  0  0  0  0  0
   64.0847   -5.7154   -7.9762 C   0  0  0  0  0  0  0  0  0  0  0  0
   63.3639   -6.3487  -10.2851 C   0  0  0  0  0  0  0  0  0  0  0  0
   56.6579   -4.7482   -9.0352 C   0  0  0  0  0  0  0  0  0  0  0  0
   55.2656   -4.3335   -8.7322 C   0  0  0  0  0  0  0  0  0  0  0  0
   54.5264   -4.0363  -10.0585 C   0  0  0  0  0  0  0  0  0  0  0  0
   55.0965   -3.1104   -7.9036 C   0  0  0  0  0  0  0  0  0  0  0  0
 28 29  1  0  0  0
 29 26  1  0  0  0
 26 27  1  0  0  0
 26 13  1  0  0  0
 13 14  1  0  0  0
 14 15  1  0  0  0
 15 16  2  0  0  0
 15 18  1  0  0  0
 18 19  1  0  0  0
 19 20  1  0  0  0
 20 21  2  0  0  0
 21 22  1  0  0  0
 22 23  2  0  0  0
 23 24  1  0  0  0
 24 25  2  0  0  0
 13  6  1  0  0  0
  6  7  2  0  0  0
  6  8  1  0  0  0
  8  9  1  0  0  0
  9 10  1  0  0  0
 10 11  1  0  0  0
 11 12  1  0  0  0
 12  2  1  0  0  0
  2  3  2  0  0  0
  2  4  1  0  0  0
  4  1  1  0  0  0
  1 59  1  0  0  0
 59 60  1  0  0  0
 60 61  1  0  0  0
 60 62  1  0  0  0
  1 30  1  0  0  0
 30 31  2  0  0  0
 30 32  1  0  0  0
 32 34  1  0  0  0
 34 55  1  0  0  0
 55 56  1  0  0  0
 56 57  1  0  0  0
 56 58  1  0  0  0
 34 35  1  0  0  0
 35 36  2  0  0  0
 35 37  1  0  0  0
 37 39  1  0  0  0
 39 52  1  0  0  0
 52 53  1  0  0  0
 39 40  1  0  0  0
 40 41  2  0  0  0
 40 42  1  0  0  0
 42 44  1  0  0  0
 44 49  1  0  0  0
 49 50  1  0  0  0
 44 45  1  0  0  0
 45 46  1  0  0  0
 45 47  2  0  0  0
 25 20  1  0  0  0
 12  8  1  0  0  0
 14 17  1  0  0  0
  4  5  1  0  0  0
 32 33  1  0  0  0
 37 38  1  0  0  0
 53 54  1  0  0  0
 42 43  1  0  0  0
 50 51  1  0  0  0
 46 48  1  0  0  0
M  END
> <minimizedAffinity>
-6.39666

> <CNNscore>
0.2916471362

> <CNNaffinity>
7.0681357384

> <CNN_VS>
2.0614016056

> <CNNaffinity_variance>
0.1247025505

$$$$
[H]OC(=O)[C@@]([H])(N([H])C(=O)[C@@]([H])(N([H])C(=O)[C@@]([H])(N([H])C(=O)[C@@]([H])(N([H])C(=O)[C@@]1([H])N(C(=O)[C@@]([H])(N([H])C(=O)OC([H])([H])c2c([H])c([H])c([H])c([H])c2[H])[C@@]([H])(C([H])([H])[H])C([H])([H])C([H])([H])[H])C([H])([H])C([H])([H])C1([H])[H])C([H])([H])C([H])(C([H])([H])[H])C([H])([H])[H])C([H])([H])C([H])(C([H])([H])[H])C([H])([H])[H])C([H])([H])O[H])C([H])([H])O[H]


 62 63  0  0  0  0  0  0  0  0999 V2000
   58.5015   -5.1464   -9.0363 C   0  0  0  0  0  0  0  0  0  0  0  0
   60.5080   -6.7056   -9.1067 C   0  0  0  0  0  0  0  0  0  0  0  0
   60.8552   -6.3184  -10.2410 O   0  0  0  0  0  0  0  0  0  0  0  0
   59.3697   -6.1418   -8.4947 N   0  0  0  0  0  0  0  0  0  0  0  0
   59.1497   -6.5158   -7.5132 H   0  0  0  0  0  0  0  0  0  0  0  0
   62.8570   -9.2470   -9.7905 C   0  0  0  0  0  0  0  0  0  0  0  0
   64.0193   -9.1971  -10.3808 O   0  0  0  0  0  0  0  0  0  0  0  0
   62.4995   -8.1052   -9.0961 N   0  0  0  0  0  0  0  0  0  0  0  0
   63.3637   -6.9307   -8.9180 C   0  0  0  0  0  0  0  0  0  0  0  0
   63.2102   -6.7668   -7.3948 C   0  0  0  0  0  0  0  0  0  0  0  0
   61.8307   -7.3289   -7.0692 C   0  0  0  0  0  0  0  0  0  0  0  0
   61.2933   -7.7510   -8.4252 C   0  0  0  0  0  0  0  0  0  0  0  0
   62.1345  -10.5127   -9.9677 C   0  0  0  0  0  0  0  0  0  0  0  0
   62.6818  -11.3026  -11.0572 N   0  0  0  0  0  0  0  0  0  0  0  0
   62.2560  -12.4827  -11.6047 C   0  0  0  0  0  0  0  0  0  0  0  0
   61.2375  -13.0805  -11.1930 O   0  0  0  0  0  0  0  0  0  0  0  0
   63.5615  -10.8372  -11.4663 H   0  0  0  0  0  0  0  0  0  0  0  0
   62.9539  -13.0599  -12.6460 O   0  0  0  0  0  0  0  0  0  0  0  0
   62.3979  -14.1631  -13.3277 C   0  0  0  0  0  0  0  0  0  0  0  0
   61.9364  -13.6612  -14.6390 C   0  0  0  0  0  0  0  0  0  0  0  0
   62.6359  -12.6747  -15.2715 C   0  0  0  0  0  0  0  0  0  0  0  0
   62.2292  -12.1936  -16.5023 C   0  0  0  0  0  0  0  0  0  0  0  0
   61.1026  -12.7452  -17.0568 C   0  0  0  0  0  0  0  0  0  0  0  0
   60.3861  -13.7364  -16.4375 C   0  0  0  0  0  0  0  0  0  0  0  0
   60.8172  -14.1962  -15.2086 C   0  0  0  0  0  0  0  0  0  0  0  0
   62.2722  -11.2986   -8.6735 C   0  0  0  0  0  0  0  0  0  0  0  0
   63.5223  -10.9373   -7.9176 C   0  0  0  0  0  0  0  0  0  0  0  0
   60.9920  -12.2115   -6.7332 C   0  0  0  0  0  0  0  0  0  0  0  0
   61.0210  -11.1399   -7.8169 C   0  0  0  0  0  0  0  0  0  0  0  0
   57.3418   -4.9209   -8.0993 C   0  0  0  0  0  0  0  0  0  0  0  0
   56.5583   -3.9620   -8.2384 O   0  0  0  0  0  0  0  0  0  0  0  0
   57.0939   -5.8116   -7.0051 N   0  0  0  0  0  0  0  0  0  0  0  0
   57.7229   -6.6295   -6.8458 H   0  0  0  0  0  0  0  0  0  0  0  0
   56.0061   -5.6586   -6.0719 C   0  0  0  0  0  0  0  0  0  0  0  0
   56.5003   -6.1149   -4.7318 C   0  0  0  0  0  0  0  0  0  0  0  0
   57.1419   -7.1828   -4.6711 O   0  0  0  0  0  0  0  0  0  0  0  0
   56.2566   -5.3766   -3.5689 N   0  0  0  0  0  0  0  0  0  0  0  0
   55.7112   -4.4681   -3.6613 H   0  0  0  0  0  0  0  0  0  0  0  0
   56.6766   -5.7305   -2.2475 C   0  0  0  0  0  0  0  0  0  0  0  0
   55.5157   -5.7870   -1.3385 C   0  0  0  0  0  0  0  0  0  0  0  0
   55.4055   -4.9713   -0.3854 O   0  0  0  0  0  0  0  0  0  0  0  0
   54.5195   -6.7516   -1.5246 N   0  0  0  0  0  0  0  0  0  0  0  0
   54.6066   -7.4346   -2.3246 H   0  0  0  0  0  0  0  0  0  0  0  0
   53.3469   -6.9069   -0.6989 C   0  0  0  0  0  0  0  0  0  0  0  0
   52.2320   -6.0513   -1.1606 C   0  0  0  0  0  0  0  0  0  0  0  0
   52.3576   -4.6893   -1.1658 O   0  0  0  0  0  0  0  0  0  0  0  0
   51.1638   -6.5808   -1.5498 O   0  0  0  0  0  0  0  0  0  0  0  0
   51.6584   -4.0491   -0.8422 H   0  0  0  0  0  0  0  0  0  0  0  0
   53.6196   -6.7257    0.7794 C   0  0  0  0  0  0  0  0  0  0  0  0
   53.1807   -5.5250    1.2765 O   0  0  0  0  0  0  0  0  0  0  0  0
   52.8061   -5.5498    2.1854 H   0  0  0  0  0  0  0  0  0  0  0  0
   57.7527   -4.7909   -1.7257 C   0  0  0  0  0  0  0  0  0  0  0  0
   57.5796   -3.4802   -2.0848 O   0  0  0  0  0  0  0  0  0  0  0  0
   58.3888   -2.9825   -1.8573 H   0  0  0  0  0  0  0  0  0  0  0  0
   54.7813   -6.4460   -6.3776 C   0  0  0  0  0  0  0  0  0  0  0  0
   53.4675   -5.7914   -6.1912 C   0  0  0  0  0  0  0  0  0  0  0  0
   52.8430   -5.8577   -4.8488 C   0  0  0  0  0  0  0  0  0  0  0  0
   52.5396   -6.2798   -7.2945 C   0  0  0  0  0  0  0  0  0  0  0  0
   57.9454   -5.3816  -10.3830 C   0  0  0  0  0  0  0  0  0  0  0  0
   57.6780   -4.2057  -11.2480 C   0  0  0  0  0  0  0  0  0  0  0  0
   56.2718   -4.3496  -11.8768 C   0  0  0  0  0  0  0  0  0  0  0  0
   58.6024   -3.9926  -12.3931 C   0  0  0  0  0  0  0  0  0  0  0  0
 28 29  1  0  0  0
 29 26  1  0  0  0
 26 27  1  0  0  0
 26 13  1  0  0  0
 13 14  1  0  0  0
 14 15  1  0  0  0
 15 16  2  0  0  0
 15 18  1  0  0  0
 18 19  1  0  0  0
 19 20  1  0  0  0
 20 21  2  0  0  0
 21 22  1  0  0  0
 22 23  2  0  0  0
 23 24  1  0  0  0
 24 25  2  0  0  0
 13  6  1  0  0  0
  6  7  2  0  0  0
  6  8  1  0  0  0
  8  9  1  0  0  0
  9 10  1  0  0  0
 10 11  1  0  0  0
 11 12  1  0  0  0
 12  2  1  0  0  0
  2  3  2  0  0  0
  2  4  1  0  0  0
  4  1  1  0  0  0
  1 59  1  0  0  0
 59 60  1  0  0  0
 60 61  1  0  0  0
 60 62  1  0  0  0
  1 30  1  0  0  0
 30 31  2  0  0  0
 30 32  1  0  0  0
 32 34  1  0  0  0
 34 55  1  0  0  0
 55 56  1  0  0  0
 56 57  1  0  0  0
 56 58  1  0  0  0
 34 35  1  0  0  0
 35 36  2  0  0  0
 35 37  1  0  0  0
 37 39  1  0  0  0
 39 52  1  0  0  0
 52 53  1  0  0  0
 39 40  1  0  0  0
 40 41  2  0  0  0
 40 42  1  0  0  0
 42 44  1  0  0  0
 44 49  1  0  0  0
 49 50  1  0  0  0
 44 45  1  0  0  0
 45 46  1  0  0  0
 45 47  2  0  0  0
 25 20  1  0  0  0
 12  8  1  0  0  0
 14 17  1  0  0  0
  4  5  1  0  0  0
 32 33  1  0  0  0
 37 38  1  0  0  0
 53 54  1  0  0  0
 42 43  1  0  0  0
 50 51  1  0  0  0
 46 48  1  0  0  0
M  END
> <minimizedAffinity>
-7.37181

> <CNNscore>
0.2884536684

> <CNNaffinity>
6.5092506409

> <CNN_VS>
1.8776172400

> <CNNaffinity_variance>
0.2975040674

$$$$
[H]OC(=O)[C@@]([H])(N([H])C(=O)[C@@]([H])(N([H])C(=O)[C@@]([H])(N([H])C(=O)[C@@]([H])(N([H])C(=O)[C@@]1([H])N(C(=O)[C@@]([H])(N([H])C(=O)OC([H])([H])c2c([H])c([H])c([H])c([H])c2[H])[C@@]([H])(C([H])([H])[H])C([H])([H])C([H])([H])[H])C([H])([H])C([H])([H])C1([H])[H])C([H])([H])C([H])(C([H])([H])[H])C([H])([H])[H])C([H])([H])C([H])(C([H])([H])[H])C([H])([H])[H])C([H])([H])O[H])C([H])([H])O[H]


 62 63  0  0  0  0  0  0  0  0999 V2000
   58.3124   -5.0976   -8.8660 C   0  0  0  0  0  0  0  0  0  0  0  0
   60.3846   -6.4252   -9.5028 C   0  0  0  0  0  0  0  0  0  0  0  0
   60.5099   -5.8357  -10.5956 O   0  0  0  0  0  0  0  0  0  0  0  0
   59.3270   -6.0757   -8.6383 N   0  0  0  0  0  0  0  0  0  0  0  0
   59.3006   -6.6163   -7.7116 H   0  0  0  0  0  0  0  0  0  0  0  0
   63.7127   -7.4294  -10.1020 C   0  0  0  0  0  0  0  0  0  0  0  0
   64.8379   -6.7874   -9.9474 O   0  0  0  0  0  0  0  0  0  0  0  0
   62.7102   -7.0833   -9.2139 N   0  0  0  0  0  0  0  0  0  0  0  0
   62.8716   -6.1428   -8.0969 C   0  0  0  0  0  0  0  0  0  0  0  0
   62.2638   -7.0120   -6.9807 C   0  0  0  0  0  0  0  0  0  0  0  0
   61.2540   -7.9142   -7.6818 C   0  0  0  0  0  0  0  0  0  0  0  0
   61.3445   -7.4821   -9.1346 C   0  0  0  0  0  0  0  0  0  0  0  0
   63.7131   -8.4105  -11.1942 C   0  0  0  0  0  0  0  0  0  0  0  0
   62.8465   -9.5412  -10.9090 N   0  0  0  0  0  0  0  0  0  0  0  0
   63.0299  -10.8810  -11.1204 C   0  0  0  0  0  0  0  0  0  0  0  0
   64.0749  -11.3390  -11.6327 O   0  0  0  0  0  0  0  0  0  0  0  0
   61.9265   -9.2164  -10.4553 H   0  0  0  0  0  0  0  0  0  0  0  0
   62.0461  -11.7831  -10.7699 O   0  0  0  0  0  0  0  0  0  0  0  0
   62.3474  -12.8225   -9.8647 C   0  0  0  0  0  0  0  0  0  0  0  0
   62.1580  -12.2695   -8.5072 C   0  0  0  0  0  0  0  0  0  0  0  0
   60.8965  -12.0484   -8.0354 C   0  0  0  0  0  0  0  0  0  0  0  0
   60.6926  -11.5392   -6.7663 C   0  0  0  0  0  0  0  0  0  0  0  0
   61.8021  -11.2680   -6.0071 C   0  0  0  0  0  0  0  0  0  0  0  0
   63.0772  -11.4827   -6.4627 C   0  0  0  0  0  0  0  0  0  0  0  0
   63.2488  -11.9921   -7.7349 C   0  0  0  0  0  0  0  0  0  0  0  0
   63.2036   -7.7029  -12.4397 C   0  0  0  0  0  0  0  0  0  0  0  0
   63.3153   -6.2061  -12.3307 C   0  0  0  0  0  0  0  0  0  0  0  0
   65.3731   -8.5121  -13.3755 C   0  0  0  0  0  0  0  0  0  0  0  0
   63.9053   -8.2388  -13.6827 C   0  0  0  0  0  0  0  0  0  0  0  0
   57.4089   -5.0143   -7.6616 C   0  0  0  0  0  0  0  0  0  0  0  0
   56.8391   -3.9549   -7.3366 O   0  0  0  0  0  0  0  0  0  0  0  0
   57.1678   -6.1627   -6.8399 N   0  0  0  0  0  0  0  0  0  0  0  0
   57.6231   -7.0736   -7.0702 H   0  0  0  0  0  0  0  0  0  0  0  0
   56.3171   -6.1568   -5.6764 C   0  0  0  0  0  0  0  0  0  0  0  0
   57.1576   -6.5742   -4.5069 C   0  0  0  0  0  0  0  0  0  0  0  0
   58.3124   -6.9905   -4.7281 O   0  0  0  0  0  0  0  0  0  0  0  0
   56.6761   -6.5070   -3.1952 N   0  0  0  0  0  0  0  0  0  0  0  0
   55.6887   -6.1409   -3.0457 H   0  0  0  0  0  0  0  0  0  0  0  0
   57.3942   -6.8885   -2.0178 C   0  0  0  0  0  0  0  0  0  0  0  0
   57.9287   -8.2561   -2.1638 C   0  0  0  0  0  0  0  0  0  0  0  0
   57.1636   -9.2198   -2.4317 O   0  0  0  0  0  0  0  0  0  0  0  0
   59.2973   -8.5000   -2.0054 N   0  0  0  0  0  0  0  0  0  0  0  0
   59.9421   -7.6941   -1.7846 H   0  0  0  0  0  0  0  0  0  0  0  0
   59.9310   -9.7909   -2.1180 C   0  0  0  0  0  0  0  0  0  0  0  0
   59.8528  -10.5541   -0.8533 C   0  0  0  0  0  0  0  0  0  0  0  0
   58.6579  -11.0587   -0.4191 O   0  0  0  0  0  0  0  0  0  0  0  0
   60.8913  -10.7387   -0.1749 O   0  0  0  0  0  0  0  0  0  0  0  0
   58.3231  -11.0055    0.5235 H   0  0  0  0  0  0  0  0  0  0  0  0
   61.3478   -9.7252   -2.6483 C   0  0  0  0  0  0  0  0  0  0  0  0
   61.5400   -8.7396   -3.5827 O   0  0  0  0  0  0  0  0  0  0  0  0
   62.4064   -8.2762   -3.5432 H   0  0  0  0  0  0  0  0  0  0  0  0
   56.5418   -6.7499   -0.7659 C   0  0  0  0  0  0  0  0  0  0  0  0
   56.6430   -7.8029    0.1048 O   0  0  0  0  0  0  0  0  0  0  0  0
   55.9484   -7.7152    0.7861 H   0  0  0  0  0  0  0  0  0  0  0  0
   55.1508   -7.0791   -5.7279 C   0  0  0  0  0  0  0  0  0  0  0  0
   53.8190   -6.5029   -6.0171 C   0  0  0  0  0  0  0  0  0  0  0  0
   53.6790   -5.6467   -7.2186 C   0  0  0  0  0  0  0  0  0  0  0  0
   53.3170   -5.8235   -4.7509 C   0  0  0  0  0  0  0  0  0  0  0  0
   57.4539   -5.2651  -10.0547 C   0  0  0  0  0  0  0  0  0  0  0  0
   56.9770   -4.0462  -10.7543 C   0  0  0  0  0  0  0  0  0  0  0  0
   55.4353   -3.9718  -10.6469 C   0  0  0  0  0  0  0  0  0  0  0  0
   57.2765   -3.9477  -12.2075 C   0  0  0  0  0  0  0  0  0  0  0  0
 28 29  1  0  0  0
 29 26  1  0  0  0
 26 27  1  0  0  0
 26 13  1  0  0  0
 13 14  1  0  0  0
 14 15  1  0  0  0
 15 16  2  0  0  0
 15 18  1  0  0  0
 18 19  1  0  0  0
 19 20  1  0  0  0
 20 21  2  0  0  0
 21 22  1  0  0  0
 22 23  2  0  0  0
 23 24  1  0  0  0
 24 25  2  0  0  0
 13  6  1  0  0  0
  6  7  2  0  0  0
  6  8  1  0  0  0
  8  9  1  0  0  0
  9 10  1  0  0  0
 10 11  1  0  0  0
 11 12  1  0  0  0
 12  2  1  0  0  0
  2  3  2  0  0  0
  2  4  1  0  0  0
  4  1  1  0  0  0
  1 59  1  0  0  0
 59 60  1  0  0  0
 60 61  1  0  0  0
 60 62  1  0  0  0
  1 30  1  0  0  0
 30 31  2  0  0  0
 30 32  1  0  0  0
 32 34  1  0  0  0
 34 55  1  0  0  0
 55 56  1  0  0  0
 56 57  1  0  0  0
 56 58  1  0  0  0
 34 35  1  0  0  0
 35 36  2  0  0  0
 35 37  1  0  0  0
 37 39  1  0  0  0
 39 52  1  0  0  0
 52 53  1  0  0  0
 39 40  1  0  0  0
 40 41  2  0  0  0
 40 42  1  0  0  0
 42 44  1  0  0  0
 44 49  1  0  0  0
 49 50  1  0  0  0
 44 45  1  0  0  0
 45 46  1  0  0  0
 45 47  2  0  0  0
 25 20  1  0  0  0
 12  8  1  0  0  0
 14 17  1  0  0  0
  4  5  1  0  0  0
 32 33  1  0  0  0
 37 38  1  0  0  0
 53 54  1  0  0  0
 42 43  1  0  0  0
 50 51  1  0  0  0
 46 48  1  0  0  0
M  END
> <minimizedAffinity>
-5.88197

> <CNNscore>
0.2685663402

> <CNNaffinity>
6.1106195450

> <CNN_VS>
1.6411067247

> <CNNaffinity_variance>
1.0156990290

$$$$
[H]OC(=O)[C@@]([H])(N([H])C(=O)[C@@]([H])(N([H])C(=O)[C@@]([H])(N([H])C(=O)[C@@]([H])(N([H])C(=O)[C@@]1([H])N(C(=O)[C@@]([H])(N([H])C(=O)OC([H])([H])c2c([H])c([H])c([H])c([H])c2[H])[C@@]([H])(C([H])([H])[H])C([H])([H])C([H])([H])[H])C([H])([H])C([H])([H])C1([H])[H])C([H])([H])C([H])(C([H])([H])[H])C([H])([H])[H])C([H])([H])C([H])(C([H])([H])[H])C([H])([H])[H])C([H])([H])O[H])C([H])([H])O[H]


 62 63  0  0  0  0  0  0  0  0999 V2000
   58.3468   -5.0912   -8.8489 C   0  0  0  0  0  0  0  0  0  0  0  0
   60.4256   -6.4298   -9.4391 C   0  0  0  0  0  0  0  0  0  0  0  0
   60.5774   -5.8425  -10.5297 O   0  0  0  0  0  0  0  0  0  0  0  0
   59.3514   -6.0739   -8.5981 N   0  0  0  0  0  0  0  0  0  0  0  0
   59.3023   -6.6131   -7.6714 H   0  0  0  0  0  0  0  0  0  0  0  0
   63.7137   -7.5356  -10.0796 C   0  0  0  0  0  0  0  0  0  0  0  0
   64.8563   -6.9132   -9.9836 O   0  0  0  0  0  0  0  0  0  0  0  0
   62.7435   -7.1275   -9.1820 N   0  0  0  0  0  0  0  0  0  0  0  0
   62.9555   -6.1422   -8.1131 C   0  0  0  0  0  0  0  0  0  0  0  0
   62.3597   -6.9467   -6.9434 C   0  0  0  0  0  0  0  0  0  0  0  0
   61.3118   -7.8559   -7.5762 C   0  0  0  0  0  0  0  0  0  0  0  0
   61.3721   -7.4910   -9.0490 C   0  0  0  0  0  0  0  0  0  0  0  0
   63.6630   -8.5641  -11.1260 C   0  0  0  0  0  0  0  0  0  0  0  0
   62.7467   -9.6393  -10.7870 N   0  0  0  0  0  0  0  0  0  0  0  0
   62.9169  -10.9972  -10.8120 C   0  0  0  0  0  0  0  0  0  0  0  0
   63.9939  -11.5286  -11.1611 O   0  0  0  0  0  0  0  0  0  0  0  0
   61.7964   -9.2490  -10.4673 H   0  0  0  0  0  0  0  0  0  0  0  0
   61.8834  -11.8361  -10.4481 O   0  0  0  0  0  0  0  0  0  0  0  0
   62.1152  -12.8514   -9.4961 C   0  0  0  0  0  0  0  0  0  0  0  0
   62.0649  -12.2053   -8.1677 C   0  0  0  0  0  0  0  0  0  0  0  0
   60.8607  -11.8535   -7.6303 C   0  0  0  0  0  0  0  0  0  0  0  0
   60.7865  -11.2550   -6.3862 C   0  0  0  0  0  0  0  0  0  0  0  0
   61.9642  -11.0317   -5.7197 C   0  0  0  0  0  0  0  0  0  0  0  0
   63.1835  -11.3774   -6.2424 C   0  0  0  0  0  0  0  0  0  0  0  0
   63.2254  -11.9736   -7.4875 C   0  0  0  0  0  0  0  0  0  0  0  0
   63.1802   -7.8907  -12.4008 C   0  0  0  0  0  0  0  0  0  0  0  0
   63.3013   -6.3921  -12.3349 C   0  0  0  0  0  0  0  0  0  0  0  0
   65.3309   -8.8380  -13.2459 C   0  0  0  0  0  0  0  0  0  0  0  0
   63.8987   -8.4687  -13.6149 C   0  0  0  0  0  0  0  0  0  0  0  0
   57.3994   -5.0241   -7.6776 C   0  0  0  0  0  0  0  0  0  0  0  0
   56.9397   -3.9430   -7.2622 O   0  0  0  0  0  0  0  0  0  0  0  0
   56.9866   -6.2135   -6.9942 N   0  0  0  0  0  0  0  0  0  0  0  0
   57.3450   -7.1439   -7.3038 H   0  0  0  0  0  0  0  0  0  0  0  0
   56.0847   -6.2250   -5.8699 C   0  0  0  0  0  0  0  0  0  0  0  0
   56.7843   -6.9254   -4.7437 C   0  0  0  0  0  0  0  0  0  0  0  0
   56.0935   -7.3743   -3.8072 O   0  0  0  0  0  0  0  0  0  0  0  0
   58.1746   -7.0798   -4.7256 N   0  0  0  0  0  0  0  0  0  0  0  0
   58.7294   -6.6892   -5.5448 H   0  0  0  0  0  0  0  0  0  0  0  0
   58.9336   -7.7221   -3.6966 C   0  0  0  0  0  0  0  0  0  0  0  0
   58.9107   -6.9139   -2.4623 C   0  0  0  0  0  0  0  0  0  0  0  0
   59.5015   -5.8029   -2.4106 O   0  0  0  0  0  0  0  0  0  0  0  0
   58.2302   -7.3738   -1.3297 N   0  0  0  0  0  0  0  0  0  0  0  0
   57.7307   -8.3028   -1.3704 H   0  0  0  0  0  0  0  0  0  0  0  0
   58.1447   -6.6764   -0.0699 C   0  0  0  0  0  0  0  0  0  0  0  0
   59.2452   -7.0538    0.8435 C   0  0  0  0  0  0  0  0  0  0  0  0
   59.4063   -8.3537    1.2374 O   0  0  0  0  0  0  0  0  0  0  0  0
   60.0357   -6.1735    1.2594 O   0  0  0  0  0  0  0  0  0  0  0  0
   59.5967   -8.6478    2.1758 H   0  0  0  0  0  0  0  0  0  0  0  0
   56.7918   -6.7992    0.5990 C   0  0  0  0  0  0  0  0  0  0  0  0
   56.4118   -5.6723    1.2825 O   0  0  0  0  0  0  0  0  0  0  0  0
   55.4555   -5.4478    1.2386 H   0  0  0  0  0  0  0  0  0  0  0  0
   60.3557   -8.0205   -4.1456 C   0  0  0  0  0  0  0  0  0  0  0  0
   61.2749   -7.0755   -3.7728 O   0  0  0  0  0  0  0  0  0  0  0  0
   62.1153   -7.2538   -4.2379 H   0  0  0  0  0  0  0  0  0  0  0  0
   54.7934   -6.9308   -6.0887 C   0  0  0  0  0  0  0  0  0  0  0  0
   53.5848   -6.1129   -6.3328 C   0  0  0  0  0  0  0  0  0  0  0  0
   53.7173   -4.9208   -7.2032 C   0  0  0  0  0  0  0  0  0  0  0  0
   52.9585   -5.7876   -4.9841 C   0  0  0  0  0  0  0  0  0  0  0  0
   57.5328   -5.2400  -10.0709 C   0  0  0  0  0  0  0  0  0  0  0  0
   56.9836   -4.0146  -10.7027 C   0  0  0  0  0  0  0  0  0  0  0  0
   55.4405   -4.0362  -10.5916 C   0  0  0  0  0  0  0  0  0  0  0  0
   57.2724   -3.8195  -12.1483 C   0  0  0  0  0  0  0  0  0  0  0  0
 28 29  1  0  0  0
 29 26  1  0  0  0
 26 27  1  0  0  0
 26 13  1  0  0  0
 13 14  1  0  0  0
 14 15  1  0  0  0
 15 16  2  0  0  0
 15 18  1  0  0  0
 18 19  1  0  0  0
 19 20  1  0  0  0
 20 21  2  0  0  0
 21 22  1  0  0  0
 22 23  2  0  0  0
 23 24  1  0  0  0
 24 25  2  0  0  0
 13  6  1  0  0  0
  6  7  2  0  0  0
  6  8  1  0  0  0
  8  9  1  0  0  0
  9 10  1  0  0  0
 10 11  1  0  0  0
 11 12  1  0  0  0
 12  2  1  0  0  0
  2  3  2  0  0  0
  2  4  1  0  0  0
  4  1  1  0  0  0
  1 59  1  0  0  0
 59 60  1  0  0  0
 60 61  1  0  0  0
 60 62  1  0  0  0
  1 30  1  0  0  0
 30 31  2  0  0  0
 30 32  1  0  0  0
 32 34  1  0  0  0
 34 55  1  0  0  0
 55 56  1  0  0  0
 56 57  1  0  0  0
 56 58  1  0  0  0
 34 35  1  0  0  0
 35 36  2  0  0  0
 35 37  1  0  0  0
 37 39  1  0  0  0
 39 52  1  0  0  0
 52 53  1  0  0  0
 39 40  1  0  0  0
 40 41  2  0  0  0
 40 42  1  0  0  0
 42 44  1  0  0  0
 44 49  1  0  0  0
 49 50  1  0  0  0
 44 45  1  0  0  0
 45 46  1  0  0  0
 45 47  2  0  0  0
 25 20  1  0  0  0
 12  8  1  0  0  0
 14 17  1  0  0  0
  4  5  1  0  0  0
 32 33  1  0  0  0
 37 38  1  0  0  0
 53 54  1  0  0  0
 42 43  1  0  0  0
 50 51  1  0  0  0
 46 48  1  0  0  0
M  END
> <minimizedAffinity>
-6.18993

> <CNNscore>
0.2672483921

> <CNNaffinity>
6.2360162735

> <CNN_VS>
1.6665652990

> <CNNaffinity_variance>
0.8500896692

$$$$
[H]OC(=O)[C@@]([H])(N([H])C(=O)[C@@]([H])(N([H])C(=O)[C@@]([H])(N([H])C(=O)[C@@]([H])(N([H])C(=O)[C@@]1([H])N(C(=O)[C@@]([H])(N([H])C(=O)OC([H])([H])c2c([H])c([H])c([H])c([H])c2[H])[C@@]([H])(C([H])([H])[H])C([H])([H])C([H])([H])[H])C([H])([H])C([H])([H])C1([H])[H])C([H])([H])C([H])(C([H])([H])[H])C([H])([H])[H])C([H])([H])C([H])(C([H])([H])[H])C([H])([H])[H])C([H])([H])O[H])C([H])([H])O[H]


 62 63  0  0  0  0  0  0  0  0999 V2000
   58.7387   -5.2893   -9.1091 C   0  0  0  0  0  0  0  0  0  0  0  0
   60.8214   -6.7334   -9.3067 C   0  0  0  0  0  0  0  0  0  0  0  0
   61.2191   -6.1395  -10.3297 O   0  0  0  0  0  0  0  0  0  0  0  0
   59.6202   -6.3303   -8.6881 N   0  0  0  0  0  0  0  0  0  0  0  0
   59.3582   -6.8794   -7.8040 H   0  0  0  0  0  0  0  0  0  0  0  0
   64.1331   -7.9440   -9.2016 C   0  0  0  0  0  0  0  0  0  0  0  0
   65.2361   -7.3759   -8.7981 O   0  0  0  0  0  0  0  0  0  0  0  0
   62.9867   -7.5400   -8.5412 N   0  0  0  0  0  0  0  0  0  0  0  0
   62.9622   -6.6183   -7.3975 C   0  0  0  0  0  0  0  0  0  0  0  0
   62.0777   -7.4536   -6.4537 C   0  0  0  0  0  0  0  0  0  0  0  0
   61.1883   -8.2855   -7.3714 C   0  0  0  0  0  0  0  0  0  0  0  0
   61.6140   -7.8514   -8.7628 C   0  0  0  0  0  0  0  0  0  0  0  0
   64.3075   -8.9167  -10.2874 C   0  0  0  0  0  0  0  0  0  0  0  0
   63.1727   -9.8172  -10.3974 N   0  0  0  0  0  0  0  0  0  0  0  0
   63.1246  -11.1738  -10.5733 C   0  0  0  0  0  0  0  0  0  0  0  0
   64.1581  -11.8721  -10.6650 O   0  0  0  0  0  0  0  0  0  0  0  0
   62.2446   -9.2788  -10.3171 H   0  0  0  0  0  0  0  0  0  0  0  0
   61.9098  -11.8228  -10.6590 O   0  0  0  0  0  0  0  0  0  0  0  0
   61.7886  -13.1383  -10.1635 C   0  0  0  0  0  0  0  0  0  0  0  0
   61.5927  -13.0239   -8.7030 C   0  0  0  0  0  0  0  0  0  0  0  0
   60.8141  -12.0222   -8.2001 C   0  0  0  0  0  0  0  0  0  0  0  0
   60.6090  -11.8983   -6.8384 C   0  0  0  0  0  0  0  0  0  0  0  0
   61.2155  -12.8173   -6.0206 C   0  0  0  0  0  0  0  0  0  0  0  0
   62.0013  -13.8304   -6.5061 C   0  0  0  0  0  0  0  0  0  0  0  0
   62.1876  -13.9280   -7.8711 C   0  0  0  0  0  0  0  0  0  0  0  0
   64.4390   -8.1316  -11.5828 C   0  0  0  0  0  0  0  0  0  0  0  0
   65.5023   -8.6960  -12.4858 C   0  0  0  0  0  0  0  0  0  0  0  0
   63.0958   -6.8570  -13.2586 C   0  0  0  0  0  0  0  0  0  0  0  0
   63.0893   -8.0295  -12.2845 C   0  0  0  0  0  0  0  0  0  0  0  0
   57.7225   -5.0175   -8.0287 C   0  0  0  0  0  0  0  0  0  0  0  0
   57.8339   -4.0546   -7.2457 O   0  0  0  0  0  0  0  0  0  0  0  0
   56.5783   -5.8634   -7.8630 N   0  0  0  0  0  0  0  0  0  0  0  0
   56.4407   -6.6839   -8.4937 H   0  0  0  0  0  0  0  0  0  0  0  0
   55.5679   -5.6638   -6.8547 C   0  0  0  0  0  0  0  0  0  0  0  0
   55.8048   -6.6804   -5.7782 C   0  0  0  0  0  0  0  0  0  0  0  0
   55.3017   -7.8135   -5.9148 O   0  0  0  0  0  0  0  0  0  0  0  0
   56.5660   -6.3838   -4.6426 N   0  0  0  0  0  0  0  0  0  0  0  0
   56.9840   -5.4088   -4.5644 H   0  0  0  0  0  0  0  0  0  0  0  0
   56.8411   -7.2786   -3.5604 C   0  0  0  0  0  0  0  0  0  0  0  0
   56.2136   -6.7887   -2.3180 C   0  0  0  0  0  0  0  0  0  0  0  0
   56.8290   -5.9968   -1.5563 O   0  0  0  0  0  0  0  0  0  0  0  0
   54.9225   -7.1998   -1.9693 N   0  0  0  0  0  0  0  0  0  0  0  0
   54.4023   -7.8605   -2.6071 H   0  0  0  0  0  0  0  0  0  0  0  0
   54.2123   -6.7938   -0.7812 C   0  0  0  0  0  0  0  0  0  0  0  0
   53.4405   -7.9103   -0.1933 C   0  0  0  0  0  0  0  0  0  0  0  0
   54.0110   -9.1439   -0.0392 O   0  0  0  0  0  0  0  0  0  0  0  0
   52.2537   -7.7226    0.1659 O   0  0  0  0  0  0  0  0  0  0  0  0
   53.5669  -10.0122   -0.2679 H   0  0  0  0  0  0  0  0  0  0  0  0
   53.3554   -5.5613   -0.9801 C   0  0  0  0  0  0  0  0  0  0  0  0
   54.0783   -4.4006   -1.0883 O   0  0  0  0  0  0  0  0  0  0  0  0
   53.7332   -3.7404   -1.7302 H   0  0  0  0  0  0  0  0  0  0  0  0
   58.3339   -7.5084   -3.3822 C   0  0  0  0  0  0  0  0  0  0  0  0
   59.0526   -7.4766   -4.5482 O   0  0  0  0  0  0  0  0  0  0  0  0
   59.9580   -7.7960   -4.3681 H   0  0  0  0  0  0  0  0  0  0  0  0
   54.1618   -5.8303   -7.3116 C   0  0  0  0  0  0  0  0  0  0  0  0
   53.5093   -4.6882   -7.9891 C   0  0  0  0  0  0  0  0  0  0  0  0
   54.3116   -3.4620   -8.2110 C   0  0  0  0  0  0  0  0  0  0  0  0
   52.1949   -4.4078   -7.2744 C   0  0  0  0  0  0  0  0  0  0  0  0
   58.0021   -5.4846  -10.3730 C   0  0  0  0  0  0  0  0  0  0  0  0
   57.5355   -4.2823  -11.1073 C   0  0  0  0  0  0  0  0  0  0  0  0
   55.9967   -4.3454  -11.2551 C   0  0  0  0  0  0  0  0  0  0  0  0
   58.0572   -4.0961  -12.4873 C   0  0  0  0  0  0  0  0  0  0  0  0
 28 29  1  0  0  0
 29 26  1  0  0  0
 26 27  1  0  0  0
 26 13  1  0  0  0
 13 14  1  0  0  0
 14 15  1  0  0  0
 15 16  2  0  0  0
 15 18  1  0  0  0
 18 19  1  0  0  0
 19 20  1  0  0  0
 20 21  2  0  0  0
 21 22  1  0  0  0
 22 23  2  0  0  0
 23 24  1  0  0  0
 24 25  2  0  0  0
 13  6  1  0  0  0
  6  7  2  0  0  0
  6  8  1  0  0  0
  8  9  1  0  0  0
  9 10  1  0  0  0
 10 11  1  0  0  0
 11 12  1  0  0  0
 12  2  1  0  0  0
  2  3  2  0  0  0
  2  4  1  0  0  0
  4  1  1  0  0  0
  1 59  1  0  0  0
 59 60  1  0  0  0
 60 61  1  0  0  0
 60 62  1  0  0  0
  1 30  1  0  0  0
 30 31  2  0  0  0
 30 32  1  0  0  0
 32 34  1  0  0  0
 34 55  1  0  0  0
 55 56  1  0  0  0
 56 57  1  0  0  0
 56 58  1  0  0  0
 34 35  1  0  0  0
 35 36  2  0  0  0
 35 37  1  0  0  0
 37 39  1  0  0  0
 39 52  1  0  0  0
 52 53  1  0  0  0
 39 40  1  0  0  0
 40 41  2  0  0  0
 40 42  1  0  0  0
 42 44  1  0  0  0
 44 49  1  0  0  0
 49 50  1  0  0  0
 44 45  1  0  0  0
 45 46  1  0  0  0
 45 47  2  0  0  0
 25 20  1  0  0  0
 12  8  1  0  0  0
 14 17  1  0  0  0
  4  5  1  0  0  0
 32 33  1  0  0  0
 37 38  1  0  0  0
 53 54  1  0  0  0
 42 43  1  0  0  0
 50 51  1  0  0  0
 46 48  1  0  0  0
M  END
> <minimizedAffinity>
-6.46289

> <CNNscore>
0.2617604434

> <CNNaffinity>
6.6140489578

> <CNN_VS>
1.7312964201

> <CNNaffinity_variance>
0.2788176835

$$$$
[H]OC(=O)[C@@]([H])(N([H])C(=O)[C@@]([H])(N([H])C(=O)[C@@]([H])(N([H])C(=O)[C@@]([H])(N([H])C(=O)[C@@]1([H])N(C(=O)[C@@]([H])(N([H])C(=O)OC([H])([H])c2c([H])c([H])c([H])c([H])c2[H])[C@@]([H])(C([H])([H])[H])C([H])([H])C([H])([H])[H])C([H])([H])C([H])([H])C1([H])[H])C([H])([H])C([H])(C([H])([H])[H])C([H])([H])[H])C([H])([H])C([H])(C([H])([H])[H])C([H])([H])[H])C([H])([H])O[H])C([H])([H])O[H]


 62 63  0  0  0  0  0  0  0  0999 V2000
   57.6816   -5.6875   -8.4697 C   0  0  0  0  0  0  0  0  0  0  0  0
   56.3415   -5.8489   -6.3156 C   0  0  0  0  0  0  0  0  0  0  0  0
   55.2663   -6.0429   -6.9187 O   0  0  0  0  0  0  0  0  0  0  0  0
   57.5337   -5.6829   -7.0498 N   0  0  0  0  0  0  0  0  0  0  0  0
   58.4162   -5.5392   -6.4563 H   0  0  0  0  0  0  0  0  0  0  0  0
   54.4256   -6.8599   -3.5315 C   0  0  0  0  0  0  0  0  0  0  0  0
   53.9979   -8.0394   -3.1740 O   0  0  0  0  0  0  0  0  0  0  0  0
   55.6279   -6.8517   -4.2155 N   0  0  0  0  0  0  0  0  0  0  0  0
   56.4562   -8.0394   -4.4636 C   0  0  0  0  0  0  0  0  0  0  0  0
   57.8066   -7.4769   -3.9833 C   0  0  0  0  0  0  0  0  0  0  0  0
   57.7227   -5.9739   -4.2261 C   0  0  0  0  0  0  0  0  0  0  0  0
   56.3466   -5.7929   -4.8422 C   0  0  0  0  0  0  0  0  0  0  0  0
   53.5515   -5.7473   -3.1397 C   0  0  0  0  0  0  0  0  0  0  0  0
   52.3805   -5.6497   -3.9941 N   0  0  0  0  0  0  0  0  0  0  0  0
   52.1556   -6.1276   -5.2568 C   0  0  0  0  0  0  0  0  0  0  0  0
   53.0184   -6.7761   -5.8886 O   0  0  0  0  0  0  0  0  0  0  0  0
   51.5907   -5.1072   -3.5045 H   0  0  0  0  0  0  0  0  0  0  0  0
   50.9469   -5.9008   -5.8829 O   0  0  0  0  0  0  0  0  0  0  0  0
   50.2014   -4.7480   -5.5571 C   0  0  0  0  0  0  0  0  0  0  0  0
   50.5840   -3.7068   -6.5338 C   0  0  0  0  0  0  0  0  0  0  0  0
   51.6814   -3.8895   -7.3243 C   0  0  0  0  0  0  0  0  0  0  0  0
   52.0556   -2.9340   -8.2510 C   0  0  0  0  0  0  0  0  0  0  0  0
   51.2836   -1.8040   -8.3422 C   0  0  0  0  0  0  0  0  0  0  0  0
   50.1780   -1.6017   -7.5573 C   0  0  0  0  0  0  0  0  0  0  0  0
   49.8296   -2.5742   -6.6407 C   0  0  0  0  0  0  0  0  0  0  0  0
   53.0978   -6.0080   -1.7122 C   0  0  0  0  0  0  0  0  0  0  0  0
   53.6649   -5.0071   -0.7421 C   0  0  0  0  0  0  0  0  0  0  0  0
   51.1422   -7.3897   -1.0022 C   0  0  0  0  0  0  0  0  0  0  0  0
   51.5763   -6.0747   -1.6395 C   0  0  0  0  0  0  0  0  0  0  0  0
   59.0738   -6.1386   -8.8331 C   0  0  0  0  0  0  0  0  0  0  0  0
   59.4693   -6.1714  -10.0142 O   0  0  0  0  0  0  0  0  0  0  0  0
   60.0035   -6.5476   -7.8229 N   0  0  0  0  0  0  0  0  0  0  0  0
   59.7194   -6.5388   -6.8183 H   0  0  0  0  0  0  0  0  0  0  0  0
   61.3481   -6.9890   -8.0963 C   0  0  0  0  0  0  0  0  0  0  0  0
   61.7890   -7.8244   -6.9319 C   0  0  0  0  0  0  0  0  0  0  0  0
   61.8779   -7.2791   -5.8136 O   0  0  0  0  0  0  0  0  0  0  0  0
   62.0983   -9.1810   -7.0766 N   0  0  0  0  0  0  0  0  0  0  0  0
   62.0046   -9.6123   -8.0444 H   0  0  0  0  0  0  0  0  0  0  0  0
   62.5344  -10.0577   -6.0331 C   0  0  0  0  0  0  0  0  0  0  0  0
   61.3798  -10.5331   -5.2470 C   0  0  0  0  0  0  0  0  0  0  0  0
   60.2790   -9.9228   -5.2885 O   0  0  0  0  0  0  0  0  0  0  0  0
   61.4943  -11.6720   -4.4423 N   0  0  0  0  0  0  0  0  0  0  0  0
   62.4142  -12.1883   -4.4079 H   0  0  0  0  0  0  0  0  0  0  0  0
   60.4399  -12.2247   -3.6277 C   0  0  0  0  0  0  0  0  0  0  0  0
   60.2550  -11.4607   -2.3747 C   0  0  0  0  0  0  0  0  0  0  0  0
   61.3127  -10.8220   -1.7879 O   0  0  0  0  0  0  0  0  0  0  0  0
   59.1188  -11.3995   -1.8474 O   0  0  0  0  0  0  0  0  0  0  0  0
   61.5186  -10.8382   -0.8078 H   0  0  0  0  0  0  0  0  0  0  0  0
   60.5932  -13.7080   -3.3644 C   0  0  0  0  0  0  0  0  0  0  0  0
   60.2562  -14.4945   -4.4365 O   0  0  0  0  0  0  0  0  0  0  0  0
   60.8115  -15.2950   -4.5707 H   0  0  0  0  0  0  0  0  0  0  0  0
   63.5851   -9.4047   -5.1484 C   0  0  0  0  0  0  0  0  0  0  0  0
   63.1626   -9.1404   -3.8722 O   0  0  0  0  0  0  0  0  0  0  0  0
   63.8283   -8.5778   -3.4309 H   0  0  0  0  0  0  0  0  0  0  0  0
   62.3572   -5.9090   -8.2665 C   0  0  0  0  0  0  0  0  0  0  0  0
   63.7357   -6.2958   -8.6401 C   0  0  0  0  0  0  0  0  0  0  0  0
   64.8426   -5.3969   -8.2364 C   0  0  0  0  0  0  0  0  0  0  0  0
   63.7475   -6.6085  -10.1298 C   0  0  0  0  0  0  0  0  0  0  0  0
   57.4212   -4.4259   -9.1897 C   0  0  0  0  0  0  0  0  0  0  0  0
   56.5136   -4.4612  -10.3634 C   0  0  0  0  0  0  0  0  0  0  0  0
   57.1106   -3.5859  -11.4910 C   0  0  0  0  0  0  0  0  0  0  0  0
   55.1322   -3.9509  -10.1573 C   0  0  0  0  0  0  0  0  0  0  0  0
 28 29  1  0  0  0
 29 26  1  0  0  0
 26 27  1  0  0  0
 26 13  1  0  0  0
 13 14  1  0  0  0
 14 15  1  0  0  0
 15 16  2  0  0  0
 15 18  1  0  0  0
 18 19  1  0  0  0
 19 20  1  0  0  0
 20 21  2  0  0  0
 21 22  1  0  0  0
 22 23  2  0  0  0
 23 24  1  0  0  0
 24 25  2  0  0  0
 13  6  1  0  0  0
  6  7  2  0  0  0
  6  8  1  0  0  0
  8  9  1  0  0  0
  9 10  1  0  0  0
 10 11  1  0  0  0
 11 12  1  0  0  0
 12  2  1  0  0  0
  2  3  2  0  0  0
  2  4  1  0  0  0
  4  1  1  0  0  0
  1 59  1  0  0  0
 59 60  1  0  0  0
 60 61  1  0  0  0
 60 62  1  0  0  0
  1 30  1  0  0  0
 30 31  2  0  0  0
 30 32  1  0  0  0
 32 34  1  0  0  0
 34 55  1  0  0  0
 55 56  1  0  0  0
 56 57  1  0  0  0
 56 58  1  0  0  0
 34 35  1  0  0  0
 35 36  2  0  0  0
 35 37  1  0  0  0
 37 39  1  0  0  0
 39 52  1  0  0  0
 52 53  1  0  0  0
 39 40  1  0  0  0
 40 41  2  0  0  0
 40 42  1  0  0  0
 42 44  1  0  0  0
 44 49  1  0  0  0
 49 50  1  0  0  0
 44 45  1  0  0  0
 45 46  1  0  0  0
 45 47  2  0  0  0
 25 20  1  0  0  0
 12  8  1  0  0  0
 14 17  1  0  0  0
  4  5  1  0  0  0
 32 33  1  0  0  0
 37 38  1  0  0  0
 53 54  1  0  0  0
 42 43  1  0  0  0
 50 51  1  0  0  0
 46 48  1  0  0  0
M  END
> <minimizedAffinity>
-6.11128

> <CNNscore>
0.2567008734

> <CNNaffinity>
7.0027389526

> <CNN_VS>
1.7976092100

> <CNNaffinity_variance>
0.0947645307

$$$$
[H]OC(=O)[C@@]([H])(N([H])C(=O)[C@@]([H])(N([H])C(=O)[C@@]([H])(N([H])C(=O)[C@@]([H])(N([H])C(=O)[C@@]1([H])N(C(=O)[C@@]([H])(N([H])C(=O)OC([H])([H])c2c([H])c([H])c([H])c([H])c2[H])[C@@]([H])(C([H])([H])[H])C([H])([H])C([H])([H])[H])C([H])([H])C([H])([H])C1([H])[H])C([H])([H])C([H])(C([H])([H])[H])C([H])([H])[H])C([H])([H])C([H])(C([H])([H])[H])C([H])([H])[H])C([H])([H])O[H])C([H])([H])O[H]


 62 63  0  0  0  0  0  0  0  0999 V2000
   58.6101   -5.2797   -8.8994 C   0  0  0  0  0  0  0  0  0  0  0  0
   60.7423   -6.6161   -9.2599 C   0  0  0  0  0  0  0  0  0  0  0  0
   61.0414   -5.9887  -10.2963 O   0  0  0  0  0  0  0  0  0  0  0  0
   59.5672   -6.2818   -8.5561 N   0  0  0  0  0  0  0  0  0  0  0  0
   59.3918   -6.8559   -7.6664 H   0  0  0  0  0  0  0  0  0  0  0  0
   64.1450   -7.5436   -9.1889 C   0  0  0  0  0  0  0  0  0  0  0  0
   65.1900   -6.9164   -8.7232 O   0  0  0  0  0  0  0  0  0  0  0  0
   62.9606   -7.2919   -8.5200 N   0  0  0  0  0  0  0  0  0  0  0  0
   62.8435   -6.4679   -7.3094 C   0  0  0  0  0  0  0  0  0  0  0  0
   62.0242   -7.4470   -6.4487 C   0  0  0  0  0  0  0  0  0  0  0  0
   61.2206   -8.2777   -7.4434 C   0  0  0  0  0  0  0  0  0  0  0  0
   61.6226   -7.7014   -8.7895 C   0  0  0  0  0  0  0  0  0  0  0  0
   64.4152   -8.4099  -10.3430 C   0  0  0  0  0  0  0  0  0  0  0  0
   63.4012   -9.4385  -10.4992 N   0  0  0  0  0  0  0  0  0  0  0  0
   63.4922  -10.7134  -10.9891 C   0  0  0  0  0  0  0  0  0  0  0  0
   64.5711  -11.1958  -11.3983 O   0  0  0  0  0  0  0  0  0  0  0  0
   62.4431   -9.0901  -10.1553 H   0  0  0  0  0  0  0  0  0  0  0  0
   62.3730  -11.5184  -11.0495 O   0  0  0  0  0  0  0  0  0  0  0  0
   62.3204  -12.5652  -11.9941 C   0  0  0  0  0  0  0  0  0  0  0  0
   61.8741  -13.7709  -11.2650 C   0  0  0  0  0  0  0  0  0  0  0  0
   62.5206  -14.1516  -10.1249 C   0  0  0  0  0  0  0  0  0  0  0  0
   62.1175  -15.2709   -9.4205 C   0  0  0  0  0  0  0  0  0  0  0  0
   61.0490  -15.9770   -9.9113 C   0  0  0  0  0  0  0  0  0  0  0  0
   60.3866  -15.6113  -11.0545 C   0  0  0  0  0  0  0  0  0  0  0  0
   60.8128  -14.4883  -11.7364 C   0  0  0  0  0  0  0  0  0  0  0  0
   64.4157   -7.5283  -11.5816 C   0  0  0  0  0  0  0  0  0  0  0  0
   65.6101   -7.7819  -12.4613 C   0  0  0  0  0  0  0  0  0  0  0  0
   63.0569   -6.6858  -13.5003 C   0  0  0  0  0  0  0  0  0  0  0  0
   63.1035   -7.6775  -12.3436 C   0  0  0  0  0  0  0  0  0  0  0  0
   57.6047   -5.1357   -7.7848 C   0  0  0  0  0  0  0  0  0  0  0  0
   56.9392   -4.0941   -7.6275 O   0  0  0  0  0  0  0  0  0  0  0  0
   57.3734   -6.2032   -6.8580 N   0  0  0  0  0  0  0  0  0  0  0  0
   57.9071   -7.0961   -6.9472 H   0  0  0  0  0  0  0  0  0  0  0  0
   56.4291   -6.1363   -5.7711 C   0  0  0  0  0  0  0  0  0  0  0  0
   57.1751   -6.4603   -4.5114 C   0  0  0  0  0  0  0  0  0  0  0  0
   57.0063   -5.7240   -3.5189 O   0  0  0  0  0  0  0  0  0  0  0  0
   58.0429   -7.5547   -4.4327 N   0  0  0  0  0  0  0  0  0  0  0  0
   58.1563   -8.1631   -5.2977 H   0  0  0  0  0  0  0  0  0  0  0  0
   58.8038   -7.9406   -3.2838 C   0  0  0  0  0  0  0  0  0  0  0  0
   59.9948   -8.7100   -3.6925 C   0  0  0  0  0  0  0  0  0  0  0  0
   59.9535   -9.4755   -4.6916 O   0  0  0  0  0  0  0  0  0  0  0  0
   61.1889   -8.5985   -2.9720 N   0  0  0  0  0  0  0  0  0  0  0  0
   61.2283   -7.9550   -2.1363 H   0  0  0  0  0  0  0  0  0  0  0  0
   62.4109   -9.3036   -3.2724 C   0  0  0  0  0  0  0  0  0  0  0  0
   62.5856  -10.4931   -2.4106 C   0  0  0  0  0  0  0  0  0  0  0  0
   63.7109  -11.2643   -2.5106 O   0  0  0  0  0  0  0  0  0  0  0  0
   61.6936  -10.7955   -1.5825 O   0  0  0  0  0  0  0  0  0  0  0  0
   63.7183  -12.2658   -2.5278 H   0  0  0  0  0  0  0  0  0  0  0  0
   63.6387   -8.4174   -3.2630 C   0  0  0  0  0  0  0  0  0  0  0  0
   64.6499   -8.8702   -4.0717 O   0  0  0  0  0  0  0  0  0  0  0  0
   65.1606   -8.1768   -4.5465 H   0  0  0  0  0  0  0  0  0  0  0  0
   57.9591   -8.7064   -2.2774 C   0  0  0  0  0  0  0  0  0  0  0  0
   58.3382  -10.0109   -2.0996 O   0  0  0  0  0  0  0  0  0  0  0  0
   57.6525  -10.4689   -1.5758 H   0  0  0  0  0  0  0  0  0  0  0  0
   55.2830   -7.0811   -5.8559 C   0  0  0  0  0  0  0  0  0  0  0  0
   53.9383   -6.5235   -6.1203 C   0  0  0  0  0  0  0  0  0  0  0  0
   53.7814   -5.6061   -7.2736 C   0  0  0  0  0  0  0  0  0  0  0  0
   53.4141   -5.9277   -4.8214 C   0  0  0  0  0  0  0  0  0  0  0  0
   57.8575   -5.4533  -10.1570 C   0  0  0  0  0  0  0  0  0  0  0  0
   57.4639   -4.2387  -10.9136 C   0  0  0  0  0  0  0  0  0  0  0  0
   55.9208   -4.1805  -11.0096 C   0  0  0  0  0  0  0  0  0  0  0  0
   57.9506   -4.1357  -12.3149 C   0  0  0  0  0  0  0  0  0  0  0  0
 28 29  1  0  0  0
 29 26  1  0  0  0
 26 27  1  0  0  0
 26 13  1  0  0  0
 13 14  1  0  0  0
 14 15  1  0  0  0
 15 16  2  0  0  0
 15 18  1  0  0  0
 18 19  1  0  0  0
 19 20  1  0  0  0
 20 21  2  0  0  0
 21 22  1  0  0  0
 22 23  2  0  0  0
 23 24  1  0  0  0
 24 25  2  0  0  0
 13  6  1  0  0  0
  6  7  2  0  0  0
  6  8  1  0  0  0
  8  9  1  0  0  0
  9 10  1  0  0  0
 10 11  1  0  0  0
 11 12  1  0  0  0
 12  2  1  0  0  0
  2  3  2  0  0  0
  2  4  1  0  0  0
  4  1  1  0  0  0
  1 59  1  0  0  0
 59 60  1  0  0  0
 60 61  1  0  0  0
 60 62  1  0  0  0
  1 30  1  0  0  0
 30 31  2  0  0  0
 30 32  1  0  0  0
 32 34  1  0  0  0
 34 55  1  0  0  0
 55 56  1  0  0  0
 56 57  1  0  0  0
 56 58  1  0  0  0
 34 35  1  0  0  0
 35 36  2  0  0  0
 35 37  1  0  0  0
 37 39  1  0  0  0
 39 52  1  0  0  0
 52 53  1  0  0  0
 39 40  1  0  0  0
 40 41  2  0  0  0
 40 42  1  0  0  0
 42 44  1  0  0  0
 44 49  1  0  0  0
 49 50  1  0  0  0
 44 45  1  0  0  0
 45 46  1  0  0  0
 45 47  2  0  0  0
 25 20  1  0  0  0
 12  8  1  0  0  0
 14 17  1  0  0  0
  4  5  1  0  0  0
 32 33  1  0  0  0
 37 38  1  0  0  0
 53 54  1  0  0  0
 42 43  1  0  0  0
 50 51  1  0  0  0
 46 48  1  0  0  0
M  END
> <minimizedAffinity>
-5.31763

> <CNNscore>
0.1820828319

> <CNNaffinity>
6.1848526001

> <CNN_VS>
1.1261554956

> <CNNaffinity_variance>
0.2738732994

$$$$
[H]OC(=O)[C@@]([H])(N([H])C(=O)[C@@]([H])(N([H])C(=O)[C@@]([H])(N([H])C(=O)[C@@]([H])(N([H])C(=O)[C@@]1([H])N(C(=O)[C@@]([H])(N([H])C(=O)OC([H])([H])c2c([H])c([H])c([H])c([H])c2[H])[C@@]([H])(C([H])([H])[H])C([H])([H])C([H])([H])[H])C([H])([H])C([H])([H])C1([H])[H])C([H])([H])C([H])(C([H])([H])[H])C([H])([H])[H])C([H])([H])C([H])(C([H])([H])[H])C([H])([H])[H])C([H])([H])O[H])C([H])([H])O[H]


 62 63  0  0  0  0  0  0  0  0999 V2000
   58.5665   -5.2721   -8.9568 C   0  0  0  0  0  0  0  0  0  0  0  0
   60.6732   -6.6294   -9.3828 C   0  0  0  0  0  0  0  0  0  0  0  0
   60.9355   -6.0183  -10.4388 O   0  0  0  0  0  0  0  0  0  0  0  0
   59.5293   -6.2767   -8.6379 N   0  0  0  0  0  0  0  0  0  0  0  0
   59.3852   -6.8374   -7.7341 H   0  0  0  0  0  0  0  0  0  0  0  0
   64.0785   -7.5500   -9.3752 C   0  0  0  0  0  0  0  0  0  0  0  0
   65.1302   -6.9228   -8.9250 O   0  0  0  0  0  0  0  0  0  0  0  0
   62.9054   -7.3038   -8.6847 N   0  0  0  0  0  0  0  0  0  0  0  0
   62.8078   -6.4855   -7.4686 C   0  0  0  0  0  0  0  0  0  0  0  0
   62.0056   -7.4701   -6.5981 C   0  0  0  0  0  0  0  0  0  0  0  0
   61.1864   -8.2980   -7.5823 C   0  0  0  0  0  0  0  0  0  0  0  0
   61.5638   -7.7149   -8.9327 C   0  0  0  0  0  0  0  0  0  0  0  0
   64.3303   -8.4107  -10.5377 C   0  0  0  0  0  0  0  0  0  0  0  0
   63.2650   -9.3779  -10.7383 N   0  0  0  0  0  0  0  0  0  0  0  0
   63.3108  -10.7385  -10.8802 C   0  0  0  0  0  0  0  0  0  0  0  0
   64.3854  -11.3774  -10.8455 O   0  0  0  0  0  0  0  0  0  0  0  0
   62.3051   -8.8927  -10.7691 H   0  0  0  0  0  0  0  0  0  0  0  0
   62.1495  -11.4588  -11.0720 O   0  0  0  0  0  0  0  0  0  0  0  0
   62.1648  -12.8595  -10.9027 C   0  0  0  0  0  0  0  0  0  0  0  0
   61.6873  -13.4445  -12.1733 C   0  0  0  0  0  0  0  0  0  0  0  0
   60.5768  -14.2378  -12.1791 C   0  0  0  0  0  0  0  0  0  0  0  0
   60.1056  -14.7905  -13.3555 C   0  0  0  0  0  0  0  0  0  0  0  0
   60.7951  -14.5101  -14.5075 C   0  0  0  0  0  0  0  0  0  0  0  0
   61.9125  -13.7160  -14.5226 C   0  0  0  0  0  0  0  0  0  0  0  0
   62.3591  -13.1784  -13.3314 C   0  0  0  0  0  0  0  0  0  0  0  0
   64.4127   -7.5098  -11.7596 C   0  0  0  0  0  0  0  0  0  0  0  0
   65.5584   -7.8781  -12.6631 C   0  0  0  0  0  0  0  0  0  0  0  0
   63.1416   -6.5052  -13.6603 C   0  0  0  0  0  0  0  0  0  0  0  0
   63.0814   -7.4953  -12.5027 C   0  0  0  0  0  0  0  0  0  0  0  0
   57.5992   -5.1146   -7.8108 C   0  0  0  0  0  0  0  0  0  0  0  0
   57.0129   -4.0384   -7.5857 O   0  0  0  0  0  0  0  0  0  0  0  0
   57.3135   -6.2088   -6.9315 N   0  0  0  0  0  0  0  0  0  0  0  0
   57.7803   -7.1311   -7.0780 H   0  0  0  0  0  0  0  0  0  0  0  0
   56.4010   -6.1311   -5.8184 C   0  0  0  0  0  0  0  0  0  0  0  0
   57.1656   -6.5147   -4.5869 C   0  0  0  0  0  0  0  0  0  0  0  0
   58.2412   -7.1304   -4.7273 O   0  0  0  0  0  0  0  0  0  0  0  0
   56.7001   -6.2004   -3.3058 N   0  0  0  0  0  0  0  0  0  0  0  0
   55.7819   -5.6692   -3.2263 H   0  0  0  0  0  0  0  0  0  0  0  0
   57.3494   -6.5288   -2.0736 C   0  0  0  0  0  0  0  0  0  0  0  0
   56.3536   -6.9229   -1.0585 C   0  0  0  0  0  0  0  0  0  0  0  0
   56.7104   -7.2057    0.1156 O   0  0  0  0  0  0  0  0  0  0  0  0
   54.9958   -6.9880   -1.3894 N   0  0  0  0  0  0  0  0  0  0  0  0
   54.6926   -6.7481   -2.3716 H   0  0  0  0  0  0  0  0  0  0  0  0
   53.9363   -7.3655   -0.4861 C   0  0  0  0  0  0  0  0  0  0  0  0
   52.8607   -8.1073   -1.1794 C   0  0  0  0  0  0  0  0  0  0  0  0
   52.6565   -9.4354   -0.9237 O   0  0  0  0  0  0  0  0  0  0  0  0
   52.1314   -7.5123   -2.0082 O   0  0  0  0  0  0  0  0  0  0  0  0
   52.4941  -10.1342   -1.6228 H   0  0  0  0  0  0  0  0  0  0  0  0
   53.3898   -6.2079    0.3226 C   0  0  0  0  0  0  0  0  0  0  0  0
   52.8834   -5.1908   -0.4458 O   0  0  0  0  0  0  0  0  0  0  0  0
   52.0791   -4.7483   -0.0931 H   0  0  0  0  0  0  0  0  0  0  0  0
   58.2342   -5.3942   -1.5808 C   0  0  0  0  0  0  0  0  0  0  0  0
   59.5734   -5.6831   -1.5794 O   0  0  0  0  0  0  0  0  0  0  0  0
   60.0467   -4.9770   -1.0980 H   0  0  0  0  0  0  0  0  0  0  0  0
   55.2162   -7.0278   -5.8945 C   0  0  0  0  0  0  0  0  0  0  0  0
   53.9018   -6.4213   -6.2005 C   0  0  0  0  0  0  0  0  0  0  0  0
   53.8195   -5.4830   -7.3446 C   0  0  0  0  0  0  0  0  0  0  0  0
   53.3488   -5.8263   -4.9131 C   0  0  0  0  0  0  0  0  0  0  0  0
   57.7720   -5.4507  -10.1876 C   0  0  0  0  0  0  0  0  0  0  0  0
   57.3679   -4.2401  -10.9450 C   0  0  0  0  0  0  0  0  0  0  0  0
   55.8236   -4.1472  -10.9637 C   0  0  0  0  0  0  0  0  0  0  0  0
   57.7846   -4.1721  -12.3708 C   0  0  0  0  0  0  0  0  0  0  0  0
 28 29  1  0  0  0
 29 26  1  0  0  0
 26 27  1  0  0  0
 26 13  1  0  0  0
 13 14  1  0  0  0
 14 15  1  0  0  0
 15 16  2  0  0  0
 15 18  1  0  0  0
 18 19  1  0  0  0
 19 20  1  0  0  0
 20 21  2  0  0  0
 21 22  1  0  0  0
 22 23  2  0  0  0
 23 24  1  0  0  0
 24 25  2  0  0  0
 13  6  1  0  0  0
  6  7  2  0  0  0
  6  8  1  0  0  0
  8  9  1  0  0  0
  9 10  1  0  0  0
 10 11  1  0  0  0
 11 12  1  0  0  0
 12  2  1  0  0  0
  2  3  2  0  0  0
  2  4  1  0  0  0
  4  1  1  0  0  0
  1 59  1  0  0  0
 59 60  1  0  0  0
 60 61  1  0  0  0
 60 62  1  0  0  0
  1 30  1  0  0  0
 30 31  2  0  0  0
 30 32  1  0  0  0
 32 34  1  0  0  0
 34 55  1  0  0  0
 55 56  1  0  0  0
 56 57  1  0  0  0
 56 58  1  0  0  0
 34 35  1  0  0  0
 35 36  2  0  0  0
 35 37  1  0  0  0
 37 39  1  0  0  0
 39 52  1  0  0  0
 52 53  1  0  0  0
 39 40  1  0  0  0
 40 41  2  0  0  0
 40 42  1  0  0  0
 42 44  1  0  0  0
 44 49  1  0  0  0
 49 50  1  0  0  0
 44 45  1  0  0  0
 45 46  1  0  0  0
 45 47  2  0  0  0
 25 20  1  0  0  0
 12  8  1  0  0  0
 14 17  1  0  0  0
  4  5  1  0  0  0
 32 33  1  0  0  0
 37 38  1  0  0  0
 53 54  1  0  0  0
 42 43  1  0  0  0
 50 51  1  0  0  0
 46 48  1  0  0  0
M  END
> <minimizedAffinity>
-6.52971

> <CNNscore>
0.1667189598

> <CNNaffinity>
6.1284117699

> <CNN_VS>
1.0217224360

> <CNNaffinity_variance>
0.5005573630

$$$$
[H]N=C(c1c([H])c([H])c([H])c(C([H])([H])[C@@]([H])(C(=O)N2C([H])([H])C([H])([H])C([H])(C([H])([H])[H])C([H])([H])C2([H])[H])N([H])S(=O)(=O)c2c([H])c([H])c3c([H])c([H])c([H])c([H])c3c2[H])c1[H])N([H])[H]


 38 41  0  0  0  0  0  0  0  0999 V2000
   54.4610   -3.8400   -8.6222 C   0  0  0  0  0  0  0  0  0  0  0  0
   49.6776   -4.4685   -4.6359 C   0  0  0  0  0  0  0  0  0  0  0  0
   49.7483   -4.2314   -6.1297 C   0  0  0  0  0  0  0  0  0  0  0  0
   50.7268   -5.1848   -6.7778 C   0  0  0  0  0  0  0  0  0  0  0  0
   52.1022   -4.5696   -6.7590 C   0  0  0  0  0  0  0  0  0  0  0  0
   52.1117   -3.4396   -7.6534 N   0  0  0  0  0  0  0  0  0  0  0  0
   50.9177   -2.6116   -7.6390 C   0  0  0  0  0  0  0  0  0  0  0  0
   50.1291   -2.7908   -6.3599 C   0  0  0  0  0  0  0  0  0  0  0  0
   53.1709   -3.0959   -8.5158 C   0  0  0  0  0  0  0  0  0  0  0  0
   53.0292   -2.0747   -9.2703 O   0  0  0  0  0  0  0  0  0  0  0  0
   54.4152   -4.8285   -7.5497 N   0  0  0  0  0  0  0  0  0  0  0  0
   53.5302   -4.8596   -7.0417 H   0  0  0  0  0  0  0  0  0  0  0  0
   55.7958   -4.7437   -6.5277 S   0  0  0  0  0  0  0  0  0  0  0  0
   56.8120   -5.7904   -6.8854 O   0  0  0  0  0  0  0  0  0  0  0  0
   56.3931   -3.3715   -6.5044 O   0  0  0  0  0  0  0  0  0  0  0  0
   55.2617   -5.0982   -4.8966 C   0  0  0  0  0  0  0  0  0  0  0  0
   56.0166   -4.7974   -3.7903 C   0  0  0  0  0  0  0  0  0  0  0  0
   55.5705   -5.0840   -2.4990 C   0  0  0  0  0  0  0  0  0  0  0  0
   54.3472   -5.6840   -2.2859 C   0  0  0  0  0  0  0  0  0  0  0  0
   53.9004   -5.9699   -1.0107 C   0  0  0  0  0  0  0  0  0  0  0  0
   52.6749   -6.5691   -0.8184 C   0  0  0  0  0  0  0  0  0  0  0  0
   51.8983   -6.8796   -1.9384 C   0  0  0  0  0  0  0  0  0  0  0  0
   52.3628   -6.5859   -3.2010 C   0  0  0  0  0  0  0  0  0  0  0  0
   53.5895   -5.9854   -3.4074 C   0  0  0  0  0  0  0  0  0  0  0  0
   54.0264   -5.7039   -4.6851 C   0  0  0  0  0  0  0  0  0  0  0  0
   54.5579   -4.6466   -9.8942 C   0  0  0  0  0  0  0  0  0  0  0  0
   55.8219   -4.5102  -10.6336 C   0  0  0  0  0  0  0  0  0  0  0  0
   57.0219   -4.7333   -9.9478 C   0  0  0  0  0  0  0  0  0  0  0  0
   58.2358   -4.6090  -10.5941 C   0  0  0  0  0  0  0  0  0  0  0  0
   58.3082   -4.2654  -11.9207 C   0  0  0  0  0  0  0  0  0  0  0  0
   57.1264   -4.0394  -12.6209 C   0  0  0  0  0  0  0  0  0  0  0  0
   55.9201   -4.1662  -11.9657 C   0  0  0  0  0  0  0  0  0  0  0  0
   57.1967   -3.6740  -14.0265 C   0  0  0  0  0  0  0  0  0  0  0  0
   56.0365   -3.6684  -14.8387 N   0  0  0  0  0  0  0  0  0  0  0  0
   58.3195   -3.3483  -14.5594 N   0  0  0  0  0  0  0  0  0  0  0  0
   56.0084   -4.1802  -15.7587 H   0  0  0  0  0  0  0  0  0  0  0  0
   55.1925   -3.1594  -14.5414 H   0  0  0  0  0  0  0  0  0  0  0  0
   58.4758   -3.0769  -15.5327 H   0  0  0  0  0  0  0  0  0  0  0  0
  2  3  1  0  0  0
  3  4  1  0  0  0
  4  5  1  0  0  0
  5  6  1  0  0  0
  6  7  1  0  0  0
  7  8  1  0  0  0
  6  9  1  0  0  0
  9 10  2  0  0  0
  9  1  1  0  0  0
  1 26  1  0  0  0
 26 27  1  0  0  0
 27 28  2  0  0  0
 28 29  1  0  0  0
 29 30  2  0  0  0
 30 31  1  0  0  0
 31 32  2  0  0  0
 31 33  1  0  0  0
 33 34  1  0  0  0
 33 35  2  0  0  0
  1 11  1  0  0  0
 11 13  1  0  0  0
 13 14  2  0  0  0
 13 15  2  0  0  0
 13 16  1  0  0  0
 16 17  2  0  0  0
 17 18  1  0  0  0
 18 19  2  0  0  0
 19 20  1  0  0  0
 20 21  2  0  0  0
 21 22  1  0  0  0
 22 23  2  0  0  0
 23 24  1  0  0  0
 24 25  2  0  0  0
  8  3  1  0  0  0
 32 27  1  0  0  0
 25 16  1  0  0  0
 24 19  1  0  0  0
 34 36  1  0  0  0
 34 37  1  0  0  0
 35 38  1  0  0  0
 11 12  1  0  0  0
M  END
> <minimizedAffinity>
-10.75861

> <CNNscore>
0.4389246702

> <CNNaffinity>
7.2430024147

> <CNN_VS>
3.1791324615

> <CNNaffinity_variance>
0.0691514462

$$$$
[H]N=C(c1c([H])c([H])c([H])c(C([H])([H])[C@@]([H])(C(=O)N2C([H])([H])C([H])([H])C([H])(C([H])([H])[H])C([H])([H])C2([H])[H])N([H])S(=O)(=O)c2c([H])c([H])c3c([H])c([H])c([H])c([H])c3c2[H])c1[H])N([H])[H]


 38 41  0  0  0  0  0  0  0  0999 V2000
   55.1044   -5.1119   -7.8240 C   0  0  0  0  0  0  0  0  0  0  0  0
   55.5752   -5.1440   -1.5834 C   0  0  0  0  0  0  0  0  0  0  0  0
   55.5272   -6.2487   -2.6178 C   0  0  0  0  0  0  0  0  0  0  0  0
   56.4792   -5.9587   -3.7561 C   0  0  0  0  0  0  0  0  0  0  0  0
   55.7647   -5.1428   -4.8022 C   0  0  0  0  0  0  0  0  0  0  0  0
   54.7615   -5.9704   -5.4232 N   0  0  0  0  0  0  0  0  0  0  0  0
   54.0309   -6.8552   -4.5316 C   0  0  0  0  0  0  0  0  0  0  0  0
   54.1034   -6.3848   -3.0951 C   0  0  0  0  0  0  0  0  0  0  0  0
   54.4523   -5.9781   -6.7973 C   0  0  0  0  0  0  0  0  0  0  0  0
   53.5500   -6.7832   -7.2096 O   0  0  0  0  0  0  0  0  0  0  0  0
   54.5583   -3.7785   -7.5935 N   0  0  0  0  0  0  0  0  0  0  0  0
   54.4093   -3.5473   -6.6104 H   0  0  0  0  0  0  0  0  0  0  0  0
   53.1984   -3.4508   -8.5940 S   0  0  0  0  0  0  0  0  0  0  0  0
   53.3455   -2.1403   -9.3131 O   0  0  0  0  0  0  0  0  0  0  0  0
   52.9128   -4.5762   -9.5388 O   0  0  0  0  0  0  0  0  0  0  0  0
   51.8029   -3.2951   -7.5453 C   0  0  0  0  0  0  0  0  0  0  0  0
   50.8452   -2.3288   -7.7287 C   0  0  0  0  0  0  0  0  0  0  0  0
   49.7384   -2.2249   -6.8844 C   0  0  0  0  0  0  0  0  0  0  0  0
   49.5655   -3.0945   -5.8282 C   0  0  0  0  0  0  0  0  0  0  0  0
   48.4724   -2.9968   -4.9895 C   0  0  0  0  0  0  0  0  0  0  0  0
   48.3170   -3.8755   -3.9399 C   0  0  0  0  0  0  0  0  0  0  0  0
   49.2866   -4.8632   -3.7445 C   0  0  0  0  0  0  0  0  0  0  0  0
   50.3687   -4.9429   -4.5925 C   0  0  0  0  0  0  0  0  0  0  0  0
   50.5362   -4.0682   -5.6483 C   0  0  0  0  0  0  0  0  0  0  0  0
   51.6314   -4.1745   -6.4801 C   0  0  0  0  0  0  0  0  0  0  0  0
   56.5902   -4.9708   -7.5994 C   0  0  0  0  0  0  0  0  0  0  0  0
   57.4192   -5.0140   -8.8134 C   0  0  0  0  0  0  0  0  0  0  0  0
   58.6558   -5.6674   -8.7523 C   0  0  0  0  0  0  0  0  0  0  0  0
   59.4756   -5.7281   -9.8618 C   0  0  0  0  0  0  0  0  0  0  0  0
   59.1099   -5.1548  -11.0538 C   0  0  0  0  0  0  0  0  0  0  0  0
   57.8839   -4.5004  -11.1356 C   0  0  0  0  0  0  0  0  0  0  0  0
   57.0735   -4.4458  -10.0218 C   0  0  0  0  0  0  0  0  0  0  0  0
   57.4914   -3.8901  -12.3956 C   0  0  0  0  0  0  0  0  0  0  0  0
   56.1654   -3.4401  -12.6076 N   0  0  0  0  0  0  0  0  0  0  0  0
   58.3459   -3.7479  -13.3446 N   0  0  0  0  0  0  0  0  0  0  0  0
   55.6147   -3.7354  -13.4554 H   0  0  0  0  0  0  0  0  0  0  0  0
   55.7122   -2.8108  -11.9304 H   0  0  0  0  0  0  0  0  0  0  0  0
   58.1726   -3.3340  -14.2633 H   0  0  0  0  0  0  0  0  0  0  0  0
  2  3  1  0  0  0
  3  4  1  0  0  0
  4  5  1  0  0  0
  5  6  1  0  0  0
  6  7  1  0  0  0
  7  8  1  0  0  0
  6  9  1  0  0  0
  9 10  2  0  0  0
  9  1  1  0  0  0
  1 26  1  0  0  0
 26 27  1  0  0  0
 27 28  2  0  0  0
 28 29  1  0  0  0
 29 30  2  0  0  0
 30 31  1  0  0  0
 31 32  2  0  0  0
 31 33  1  0  0  0
 33 34  1  0  0  0
 33 35  2  0  0  0
  1 11  1  0  0  0
 11 13  1  0  0  0
 13 14  2  0  0  0
 13 15  2  0  0  0
 13 16  1  0  0  0
 16 17  2  0  0  0
 17 18  1  0  0  0
 18 19  2  0  0  0
 19 20  1  0  0  0
 20 21  2  0  0  0
 21 22  1  0  0  0
 22 23  2  0  0  0
 23 24  1  0  0  0
 24 25  2  0  0  0
  8  3  1  0  0  0
 32 27  1  0  0  0
 25 16  1  0  0  0
 24 19  1  0  0  0
 34 36  1  0  0  0
 34 37  1  0  0  0
 35 38  1  0  0  0
 11 12  1  0  0  0
M  END
> <minimizedAffinity>
-11.35901

> <CNNscore>
0.4238340557

> <CNNaffinity>
7.2391977310

> <CNN_VS>
3.0682184696

> <CNNaffinity_variance>
0.0519301593

$$$$
[H]N=C(c1c([H])c([H])c([H])c(C([H])([H])[C@@]([H])(C(=O)N2C([H])([H])C([H])([H])C([H])(C([H])([H])[H])C([H])([H])C2([H])[H])N([H])S(=O)(=O)c2c([H])c([H])c3c([H])c([H])c([H])c([H])c3c2[H])c1[H])N([H])[H]


 38 41  0  0  0  0  0  0  0  0999 V2000
   54.8743   -6.2087   -4.9412 C   0  0  0  0  0  0  0  0  0  0  0  0
   59.2099   -9.7417   -2.1327 C   0  0  0  0  0  0  0  0  0  0  0  0
   58.3218   -8.6178   -1.6418 C   0  0  0  0  0  0  0  0  0  0  0  0
   56.8910   -8.8353   -2.0796 C   0  0  0  0  0  0  0  0  0  0  0  0
   56.6890   -8.2111   -3.4361 C   0  0  0  0  0  0  0  0  0  0  0  0
   56.7705   -6.7788   -3.2989 N   0  0  0  0  0  0  0  0  0  0  0  0
   57.7927   -6.2878   -2.3902 C   0  0  0  0  0  0  0  0  0  0  0  0
   58.8786   -7.3168   -2.1623 C   0  0  0  0  0  0  0  0  0  0  0  0
   55.9482   -5.8511   -3.9674 C   0  0  0  0  0  0  0  0  0  0  0  0
   56.1223   -4.6079   -3.7303 O   0  0  0  0  0  0  0  0  0  0  0  0
   53.6542   -5.6336   -4.3843 N   0  0  0  0  0  0  0  0  0  0  0  0
   53.6613   -5.5307   -3.3686 H   0  0  0  0  0  0  0  0  0  0  0  0
   52.2387   -6.3985   -4.9915 S   0  0  0  0  0  0  0  0  0  0  0  0
   52.3916   -6.7738   -6.4378 O   0  0  0  0  0  0  0  0  0  0  0  0
   51.8291   -7.5682   -4.1522 O   0  0  0  0  0  0  0  0  0  0  0  0
   50.9364   -5.2284   -4.9107 C   0  0  0  0  0  0  0  0  0  0  0  0
   50.9522   -4.0551   -5.6231 C   0  0  0  0  0  0  0  0  0  0  0  0
   49.9021   -3.1384   -5.5482 C   0  0  0  0  0  0  0  0  0  0  0  0
   48.8033   -3.3793   -4.7506 C   0  0  0  0  0  0  0  0  0  0  0  0
   47.7612   -2.4762   -4.6724 C   0  0  0  0  0  0  0  0  0  0  0  0
   46.6716   -2.7352   -3.8701 C   0  0  0  0  0  0  0  0  0  0  0  0
   46.6456   -3.9272   -3.1405 C   0  0  0  0  0  0  0  0  0  0  0  0
   47.6952   -4.8139   -3.2329 C   0  0  0  0  0  0  0  0  0  0  0  0
   48.7933   -4.5661   -4.0335 C   0  0  0  0  0  0  0  0  0  0  0  0
   49.8287   -5.4746   -4.1045 C   0  0  0  0  0  0  0  0  0  0  0  0
   55.0554   -5.5264   -6.2752 C   0  0  0  0  0  0  0  0  0  0  0  0
   56.4178   -5.5708   -6.8273 C   0  0  0  0  0  0  0  0  0  0  0  0
   57.4982   -5.4626   -5.9435 C   0  0  0  0  0  0  0  0  0  0  0  0
   58.7967   -5.4895   -6.4124 C   0  0  0  0  0  0  0  0  0  0  0  0
   59.0718   -5.6222   -7.7503 C   0  0  0  0  0  0  0  0  0  0  0  0
   58.0115   -5.7315   -8.6458 C   0  0  0  0  0  0  0  0  0  0  0  0
   56.7191   -5.7034   -8.1668 C   0  0  0  0  0  0  0  0  0  0  0  0
   58.2966   -5.8714  -10.0647 C   0  0  0  0  0  0  0  0  0  0  0  0
   57.9439   -4.8538  -10.9844 N   0  0  0  0  0  0  0  0  0  0  0  0
   58.8766   -6.9272  -10.5115 N   0  0  0  0  0  0  0  0  0  0  0  0
   57.3883   -5.0679  -11.8531 H   0  0  0  0  0  0  0  0  0  0  0  0
   58.2269   -3.8780  -10.8184 H   0  0  0  0  0  0  0  0  0  0  0  0
   59.1203   -7.1225  -11.4851 H   0  0  0  0  0  0  0  0  0  0  0  0
  2  3  1  0  0  0
  3  4  1  0  0  0
  4  5  1  0  0  0
  5  6  1  0  0  0
  6  7  1  0  0  0
  7  8  1  0  0  0
  6  9  1  0  0  0
  9 10  2  0  0  0
  9  1  1  0  0  0
  1 26  1  0  0  0
 26 27  1  0  0  0
 27 28  2  0  0  0
 28 29  1  0  0  0
 29 30  2  0  0  0
 30 31  1  0  0  0
 31 32  2  0  0  0
 31 33  1  0  0  0
 33 34  1  0  0  0
 33 35  2  0  0  0
  1 11  1  0  0  0
 11 13  1  0  0  0
 13 14  2  0  0  0
 13 15  2  0  0  0
 13 16  1  0  0  0
 16 17  2  0  0  0
 17 18  1  0  0  0
 18 19  2  0  0  0
 19 20  1  0  0  0
 20 21  2  0  0  0
 21 22  1  0  0  0
 22 23  2  0  0  0
 23 24  1  0  0  0
 24 25  2  0  0  0
  8  3  1  0  0  0
 32 27  1  0  0  0
 25 16  1  0  0  0
 24 19  1  0  0  0
 34 36  1  0  0  0
 34 37  1  0  0  0
 35 38  1  0  0  0
 11 12  1  0  0  0
M  END
> <minimizedAffinity>
2.10032

> <CNNscore>
0.4205177724

> <CNNaffinity>
6.5071077347

> <CNN_VS>
2.7363543510

> <CNNaffinity_variance>
1.0984646082

$$$$
[H]N=C(c1c([H])c([H])c([H])c(C([H])([H])[C@@]([H])(C(=O)N2C([H])([H])C([H])([H])C([H])(C([H])([H])[H])C([H])([H])C2([H])[H])N([H])S(=O)(=O)c2c([H])c([H])c3c([H])c([H])c([H])c([H])c3c2[H])c1[H])N([H])[H]


 38 41  0  0  0  0  0  0  0  0999 V2000
   54.4294   -3.7466   -8.5272 C   0  0  0  0  0  0  0  0  0  0  0  0
   49.5972   -4.4697   -4.6164 C   0  0  0  0  0  0  0  0  0  0  0  0
   49.6871   -4.2474   -6.1114 C   0  0  0  0  0  0  0  0  0  0  0  0
   50.7040   -5.1789   -6.7315 C   0  0  0  0  0  0  0  0  0  0  0  0
   52.0605   -4.5238   -6.6963 C   0  0  0  0  0  0  0  0  0  0  0  0
   52.0529   -3.4041   -7.6036 N   0  0  0  0  0  0  0  0  0  0  0  0
   50.8354   -2.6110   -7.6192 C   0  0  0  0  0  0  0  0  0  0  0  0
   50.0301   -2.7989   -6.3518 C   0  0  0  0  0  0  0  0  0  0  0  0
   53.1166   -3.0392   -8.4516 C   0  0  0  0  0  0  0  0  0  0  0  0
   52.9587   -2.0310   -9.2202 O   0  0  0  0  0  0  0  0  0  0  0  0
   54.3495   -4.7976   -7.5180 N   0  0  0  0  0  0  0  0  0  0  0  0
   53.4595   -4.8376   -7.0196 H   0  0  0  0  0  0  0  0  0  0  0  0
   55.7225   -4.8107   -6.4826 S   0  0  0  0  0  0  0  0  0  0  0  0
   56.6750   -5.9148   -6.8432 O   0  0  0  0  0  0  0  0  0  0  0  0
   56.4041   -3.4788   -6.4378 O   0  0  0  0  0  0  0  0  0  0  0  0
   55.1513   -5.1492   -4.8607 C   0  0  0  0  0  0  0  0  0  0  0  0
   55.8820   -4.8397   -3.7406 C   0  0  0  0  0  0  0  0  0  0  0  0
   55.4064   -5.1137   -2.4570 C   0  0  0  0  0  0  0  0  0  0  0  0
   54.1774   -5.7093   -2.2659 C   0  0  0  0  0  0  0  0  0  0  0  0
   53.7015   -5.9827   -0.9985 C   0  0  0  0  0  0  0  0  0  0  0  0
   52.4707   -6.5777   -0.8282 C   0  0  0  0  0  0  0  0  0  0  0  0
   51.7187   -6.8969   -1.9624 C   0  0  0  0  0  0  0  0  0  0  0  0
   52.2120   -6.6157   -3.2170 C   0  0  0  0  0  0  0  0  0  0  0  0
   53.4443   -6.0195   -3.4013 C   0  0  0  0  0  0  0  0  0  0  0  0
   53.9103   -5.7506   -4.6714 C   0  0  0  0  0  0  0  0  0  0  0  0
   54.6175   -4.4740   -9.8362 C   0  0  0  0  0  0  0  0  0  0  0  0
   55.9987   -4.5219  -10.3391 C   0  0  0  0  0  0  0  0  0  0  0  0
   56.2712   -3.9588  -11.5916 C   0  0  0  0  0  0  0  0  0  0  0  0
   57.5497   -3.9859  -12.1126 C   0  0  0  0  0  0  0  0  0  0  0  0
   58.5898   -4.5611  -11.4267 C   0  0  0  0  0  0  0  0  0  0  0  0
   58.3399   -5.1265  -10.1793 C   0  0  0  0  0  0  0  0  0  0  0  0
   57.0598   -5.0939   -9.6688 C   0  0  0  0  0  0  0  0  0  0  0  0
   59.4378   -5.7384   -9.4482 C   0  0  0  0  0  0  0  0  0  0  0  0
   60.6097   -6.1698  -10.1161 N   0  0  0  0  0  0  0  0  0  0  0  0
   59.3631   -5.8996   -8.1756 N   0  0  0  0  0  0  0  0  0  0  0  0
   60.9869   -7.1447   -9.9880 H   0  0  0  0  0  0  0  0  0  0  0  0
   61.1182   -5.5322  -10.7444 H   0  0  0  0  0  0  0  0  0  0  0  0
   60.0751   -6.3163   -7.5716 H   0  0  0  0  0  0  0  0  0  0  0  0
  2  3  1  0  0  0
  3  4  1  0  0  0
  4  5  1  0  0  0
  5  6  1  0  0  0
  6  7  1  0  0  0
  7  8  1  0  0  0
  6  9  1  0  0  0
  9 10  2  0  0  0
  9  1  1  0  0  0
  1 26  1  0  0  0
 26 27  1  0  0  0
 27 28  2  0  0  0
 28 29  1  0  0  0
 29 30  2  0  0  0
 30 31  1  0  0  0
 31 32  2  0  0  0
 31 33  1  0  0  0
 33 34  1  0  0  0
 33 35  2  0  0  0
  1 11  1  0  0  0
 11 13  1  0  0  0
 13 14  2  0  0  0
 13 15  2  0  0  0
 13 16  1  0  0  0
 16 17  2  0  0  0
 17 18  1  0  0  0
 18 19  2  0  0  0
 19 20  1  0  0  0
 20 21  2  0  0  0
 21 22  1  0  0  0
 22 23  2  0  0  0
 23 24  1  0  0  0
 24 25  2  0  0  0
  8  3  1  0  0  0
 32 27  1  0  0  0
 25 16  1  0  0  0
 24 19  1  0  0  0
 34 36  1  0  0  0
 34 37  1  0  0  0
 35 38  1  0  0  0
 11 12  1  0  0  0
M  END
> <minimizedAffinity>
-10.89121

> <CNNscore>
0.4094292223

> <CNNaffinity>
7.2094612122

> <CNN_VS>
2.9517641068

> <CNNaffinity_variance>
0.1070827991

$$$$
[H]N=C(c1c([H])c([H])c([H])c(C([H])([H])[C@@]([H])(C(=O)N2C([H])([H])C([H])([H])C([H])(C([H])([H])[H])C([H])([H])C2([H])[H])N([H])S(=O)(=O)c2c([H])c([H])c3c([H])c([H])c([H])c([H])c3c2[H])c1[H])N([H])[H]


 38 41  0  0  0  0  0  0  0  0999 V2000
   55.5657   -4.9801   -8.9274 C   0  0  0  0  0  0  0  0  0  0  0  0
   54.7719   -8.4946   -3.8102 C   0  0  0  0  0  0  0  0  0  0  0  0
   55.0422   -7.0187   -4.0135 C   0  0  0  0  0  0  0  0  0  0  0  0
   54.1195   -6.4449   -5.0650 C   0  0  0  0  0  0  0  0  0  0  0  0
   54.7570   -6.6028   -6.4212 C   0  0  0  0  0  0  0  0  0  0  0  0
   55.9059   -5.7357   -6.4919 N   0  0  0  0  0  0  0  0  0  0  0  0
   56.7134   -5.6563   -5.2864 C   0  0  0  0  0  0  0  0  0  0  0  0
   56.4937   -6.8534   -4.3871 C   0  0  0  0  0  0  0  0  0  0  0  0
   56.2858   -4.9817   -7.6193 C   0  0  0  0  0  0  0  0  0  0  0  0
   57.3205   -4.2379   -7.5286 O   0  0  0  0  0  0  0  0  0  0  0  0
   54.1493   -4.9494   -8.5775 N   0  0  0  0  0  0  0  0  0  0  0  0
   53.6029   -5.7218   -8.9609 H   0  0  0  0  0  0  0  0  0  0  0  0
   53.4458   -3.4038   -8.8487 S   0  0  0  0  0  0  0  0  0  0  0  0
   54.3914   -2.2954   -8.4832 O   0  0  0  0  0  0  0  0  0  0  0  0
   52.9310   -3.2592  -10.2468 O   0  0  0  0  0  0  0  0  0  0  0  0
   52.0664   -3.2617   -7.7771 C   0  0  0  0  0  0  0  0  0  0  0  0
   51.1209   -2.2763   -7.9167 C   0  0  0  0  0  0  0  0  0  0  0  0
   50.0266   -2.1836   -7.0549 C   0  0  0  0  0  0  0  0  0  0  0  0
   49.8544   -3.0842   -6.0248 C   0  0  0  0  0  0  0  0  0  0  0  0
   48.7738   -2.9977   -5.1689 C   0  0  0  0  0  0  0  0  0  0  0  0
   48.6189   -3.9074   -4.1460 C   0  0  0  0  0  0  0  0  0  0  0  0
   49.5761   -4.9147   -3.9951 C   0  0  0  0  0  0  0  0  0  0  0  0
   50.6459   -4.9828   -4.8596 C   0  0  0  0  0  0  0  0  0  0  0  0
   50.8128   -4.0770   -5.8890 C   0  0  0  0  0  0  0  0  0  0  0  0
   51.8955   -4.1723   -6.7383 C   0  0  0  0  0  0  0  0  0  0  0  0
   55.8024   -3.7138   -9.7139 C   0  0  0  0  0  0  0  0  0  0  0  0
   56.3900   -3.9004  -11.0491 C   0  0  0  0  0  0  0  0  0  0  0  0
   55.5462   -4.2749  -12.1015 C   0  0  0  0  0  0  0  0  0  0  0  0
   56.0500   -4.4715  -13.3721 C   0  0  0  0  0  0  0  0  0  0  0  0
   57.3848   -4.3082  -13.6456 C   0  0  0  0  0  0  0  0  0  0  0  0
   58.2409   -3.9358  -12.6129 C   0  0  0  0  0  0  0  0  0  0  0  0
   57.7272   -3.7422  -11.3484 C   0  0  0  0  0  0  0  0  0  0  0  0
   59.6564   -3.7622  -12.8964 C   0  0  0  0  0  0  0  0  0  0  0  0
   60.6247   -4.6351  -12.3431 N   0  0  0  0  0  0  0  0  0  0  0  0
   60.0558   -2.8077  -13.6581 N   0  0  0  0  0  0  0  0  0  0  0  0
   61.4634   -4.2659  -11.8240 H   0  0  0  0  0  0  0  0  0  0  0  0
   60.5248   -5.6552  -12.4393 H   0  0  0  0  0  0  0  0  0  0  0  0
   61.0225   -2.6002  -13.9187 H   0  0  0  0  0  0  0  0  0  0  0  0
  2  3  1  0  0  0
  3  4  1  0  0  0
  4  5  1  0  0  0
  5  6  1  0  0  0
  6  7  1  0  0  0
  7  8  1  0  0  0
  6  9  1  0  0  0
  9 10  2  0  0  0
  9  1  1  0  0  0
  1 26  1  0  0  0
 26 27  1  0  0  0
 27 28  2  0  0  0
 28 29  1  0  0  0
 29 30  2  0  0  0
 30 31  1  0  0  0
 31 32  2  0  0  0
 31 33  1  0  0  0
 33 34  1  0  0  0
 33 35  2  0  0  0
  1 11  1  0  0  0
 11 13  1  0  0  0
 13 14  2  0  0  0
 13 15  2  0  0  0
 13 16  1  0  0  0
 16 17  2  0  0  0
 17 18  1  0  0  0
 18 19  2  0  0  0
 19 20  1  0  0  0
 20 21  2  0  0  0
 21 22  1  0  0  0
 22 23  2  0  0  0
 23 24  1  0  0  0
 24 25  2  0  0  0
  8  3  1  0  0  0
 32 27  1  0  0  0
 25 16  1  0  0  0
 24 19  1  0  0  0
 34 36  1  0  0  0
 34 37  1  0  0  0
 35 38  1  0  0  0
 11 12  1  0  0  0
M  END
> <minimizedAffinity>
-9.72353

> <CNNscore>
0.3487886190

> <CNNaffinity>
7.0591440201

> <CNN_VS>
2.4621491432

> <CNNaffinity_variance>
0.1016900167

$$$$
[H]N=C(c1c([H])c([H])c([H])c(C([H])([H])[C@@]([H])(C(=O)N2C([H])([H])C([H])([H])C([H])(C([H])([H])[H])C([H])([H])C2([H])[H])N([H])S(=O)(=O)c2c([H])c([H])c3c([H])c([H])c([H])c([H])c3c2[H])c1[H])N([H])[H]


 38 41  0  0  0  0  0  0  0  0999 V2000
   54.4743   -4.2077   -7.1898 C   0  0  0  0  0  0  0  0  0  0  0  0
   48.7332   -2.6645   -5.2339 C   0  0  0  0  0  0  0  0  0  0  0  0
   49.2627   -3.2092   -6.5437 C   0  0  0  0  0  0  0  0  0  0  0  0
   50.1921   -4.3771   -6.3017 C   0  0  0  0  0  0  0  0  0  0  0  0
   51.5953   -3.8612   -6.1133 C   0  0  0  0  0  0  0  0  0  0  0  0
   52.0621   -3.3319   -7.3698 N   0  0  0  0  0  0  0  0  0  0  0  0
   51.0846   -2.5859   -8.1441 C   0  0  0  0  0  0  0  0  0  0  0  0
   49.9497   -2.0852   -7.2773 C   0  0  0  0  0  0  0  0  0  0  0  0
   53.3651   -3.4864   -7.8818 C   0  0  0  0  0  0  0  0  0  0  0  0
   53.6303   -2.9783   -9.0236 O   0  0  0  0  0  0  0  0  0  0  0  0
   54.5435   -5.5097   -7.8452 N   0  0  0  0  0  0  0  0  0  0  0  0
   54.2128   -5.5143   -8.8110 H   0  0  0  0  0  0  0  0  0  0  0  0
   53.8688   -6.7613   -6.8778 S   0  0  0  0  0  0  0  0  0  0  0  0
   52.3889   -6.8924   -7.0987 O   0  0  0  0  0  0  0  0  0  0  0  0
   54.5791   -8.0646   -7.0713 O   0  0  0  0  0  0  0  0  0  0  0  0
   54.0881   -6.3019   -5.2008 C   0  0  0  0  0  0  0  0  0  0  0  0
   53.0344   -6.1342   -4.3370 C   0  0  0  0  0  0  0  0  0  0  0  0
   53.2311   -5.7725   -3.0031 C   0  0  0  0  0  0  0  0  0  0  0  0
   54.4993   -5.5687   -2.5011 C   0  0  0  0  0  0  0  0  0  0  0  0
   54.7003   -5.2108   -1.1823 C   0  0  0  0  0  0  0  0  0  0  0  0
   55.9751   -5.0123   -0.6993 C   0  0  0  0  0  0  0  0  0  0  0  0
   57.0550   -5.1805   -1.5707 C   0  0  0  0  0  0  0  0  0  0  0  0
   56.8323   -5.5376   -2.8820 C   0  0  0  0  0  0  0  0  0  0  0  0
   55.5593   -5.7396   -3.3786 C   0  0  0  0  0  0  0  0  0  0  0  0
   55.3695   -6.0970   -4.6972 C   0  0  0  0  0  0  0  0  0  0  0  0
   55.8199   -3.5714   -7.4400 C   0  0  0  0  0  0  0  0  0  0  0  0
   56.5849   -4.1331   -8.5634 C   0  0  0  0  0  0  0  0  0  0  0  0
   56.0698   -3.9901   -9.8573 C   0  0  0  0  0  0  0  0  0  0  0  0
   56.7450   -4.5075  -10.9450 C   0  0  0  0  0  0  0  0  0  0  0  0
   57.9351   -5.1747  -10.7972 C   0  0  0  0  0  0  0  0  0  0  0  0
   58.4645   -5.3275   -9.5188 C   0  0  0  0  0  0  0  0  0  0  0  0
   57.7820   -4.8071   -8.4401 C   0  0  0  0  0  0  0  0  0  0  0  0
   59.7247   -6.0343   -9.3558 C   0  0  0  0  0  0  0  0  0  0  0  0
   60.1312   -6.5202   -8.0891 N   0  0  0  0  0  0  0  0  0  0  0  0
   60.4963   -6.2312  -10.3641 N   0  0  0  0  0  0  0  0  0  0  0  0
   61.0818   -6.2965   -7.6949 H   0  0  0  0  0  0  0  0  0  0  0  0
   59.4987   -7.1059   -7.5262 H   0  0  0  0  0  0  0  0  0  0  0  0
   61.3977   -6.7137  -10.3563 H   0  0  0  0  0  0  0  0  0  0  0  0
  2  3  1  0  0  0
  3  4  1  0  0  0
  4  5  1  0  0  0
  5  6  1  0  0  0
  6  7  1  0  0  0
  7  8  1  0  0  0
  6  9  1  0  0  0
  9 10  2  0  0  0
  9  1  1  0  0  0
  1 26  1  0  0  0
 26 27  1  0  0  0
 27 28  2  0  0  0
 28 29  1  0  0  0
 29 30  2  0  0  0
 30 31  1  0  0  0
 31 32  2  0  0  0
 31 33  1  0  0  0
 33 34  1  0  0  0
 33 35  2  0  0  0
  1 11  1  0  0  0
 11 13  1  0  0  0
 13 14  2  0  0  0
 13 15  2  0  0  0
 13 16  1  0  0  0
 16 17  2  0  0  0
 17 18  1  0  0  0
 18 19  2  0  0  0
 19 20  1  0  0  0
 20 21  2  0  0  0
 21 22  1  0  0  0
 22 23  2  0  0  0
 23 24  1  0  0  0
 24 25  2  0  0  0
  8  3  1  0  0  0
 32 27  1  0  0  0
 25 16  1  0  0  0
 24 19  1  0  0  0
 34 36  1  0  0  0
 34 37  1  0  0  0
 35 38  1  0  0  0
 11 12  1  0  0  0
M  END
> <minimizedAffinity>
-8.58830

> <CNNscore>
0.3326925337

> <CNNaffinity>
6.9271230698

> <CNN_VS>
2.3046021461

> <CNNaffinity_variance>
0.2320890427

$$$$
[H]N=C(c1c([H])c([H])c([H])c(C([H])([H])[C@@]([H])(C(=O)N2C([H])([H])C([H])([H])C([H])(C([H])([H])[H])C([H])([H])C2([H])[H])N([H])S(=O)(=O)c2c([H])c([H])c3c([H])c([H])c([H])c([H])c3c2[H])c1[H])N([H])[H]


 38 41  0  0  0  0  0  0  0  0999 V2000
   54.6598   -4.5704   -6.6935 C   0  0  0  0  0  0  0  0  0  0  0  0
   48.8457   -2.8606   -5.1313 C   0  0  0  0  0  0  0  0  0  0  0  0
   49.3934   -3.8204   -6.1665 C   0  0  0  0  0  0  0  0  0  0  0  0
   50.4365   -4.7289   -5.5560 C   0  0  0  0  0  0  0  0  0  0  0  0
   51.7876   -4.0699   -5.6600 C   0  0  0  0  0  0  0  0  0  0  0  0
   52.1708   -4.0255   -7.0486 N   0  0  0  0  0  0  0  0  0  0  0  0
   51.1076   -3.7126   -7.9884 C   0  0  0  0  0  0  0  0  0  0  0  0
   49.9510   -3.0110   -7.3099 C   0  0  0  0  0  0  0  0  0  0  0  0
   53.4699   -4.2593   -7.5401 C   0  0  0  0  0  0  0  0  0  0  0  0
   53.6572   -4.2066   -8.8027 O   0  0  0  0  0  0  0  0  0  0  0  0
   55.0210   -5.9410   -7.0405 N   0  0  0  0  0  0  0  0  0  0  0  0
   54.6514   -6.2610   -7.9368 H   0  0  0  0  0  0  0  0  0  0  0  0
   54.7372   -7.0362   -5.7453 S   0  0  0  0  0  0  0  0  0  0  0  0
   53.4122   -6.7794   -5.0860 O   0  0  0  0  0  0  0  0  0  0  0  0
   54.8787   -8.4628   -6.1756 O   0  0  0  0  0  0  0  0  0  0  0  0
   55.9676   -6.7419   -4.5325 C   0  0  0  0  0  0  0  0  0  0  0  0
   57.2447   -7.2335   -4.6414 C   0  0  0  0  0  0  0  0  0  0  0  0
   58.2115   -6.9835   -3.6659 C   0  0  0  0  0  0  0  0  0  0  0  0
   57.9172   -6.2288   -2.5499 C   0  0  0  0  0  0  0  0  0  0  0  0
   58.8696   -5.9779   -1.5815 C   0  0  0  0  0  0  0  0  0  0  0  0
   58.5563   -5.2211   -0.4738 C   0  0  0  0  0  0  0  0  0  0  0  0
   57.2586   -4.7157   -0.3534 C   0  0  0  0  0  0  0  0  0  0  0  0
   56.3243   -4.9779   -1.3305 C   0  0  0  0  0  0  0  0  0  0  0  0
   56.6256   -5.7352   -2.4458 C   0  0  0  0  0  0  0  0  0  0  0  0
   55.6673   -5.9798   -3.4071 C   0  0  0  0  0  0  0  0  0  0  0  0
   55.8648   -3.7415   -7.0662 C   0  0  0  0  0  0  0  0  0  0  0  0
   56.6725   -4.2659   -8.1777 C   0  0  0  0  0  0  0  0  0  0  0  0
   57.6390   -5.2392   -7.8972 C   0  0  0  0  0  0  0  0  0  0  0  0
   58.4295   -5.7571   -8.9040 C   0  0  0  0  0  0  0  0  0  0  0  0
   58.2967   -5.3394  -10.2045 C   0  0  0  0  0  0  0  0  0  0  0  0
   57.3413   -4.3724  -10.5045 C   0  0  0  0  0  0  0  0  0  0  0  0
   56.5576   -3.8622   -9.4916 C   0  0  0  0  0  0  0  0  0  0  0  0
   57.1965   -3.9251  -11.8805 C   0  0  0  0  0  0  0  0  0  0  0  0
   58.2881   -3.9693  -12.7816 N   0  0  0  0  0  0  0  0  0  0  0  0
   56.0689   -3.4789  -12.3051 N   0  0  0  0  0  0  0  0  0  0  0  0
   58.5741   -3.1227  -13.3390 H   0  0  0  0  0  0  0  0  0  0  0  0
   58.8263   -4.8376  -12.9088 H   0  0  0  0  0  0  0  0  0  0  0  0
   55.8633   -3.1420  -13.2483 H   0  0  0  0  0  0  0  0  0  0  0  0
  2  3  1  0  0  0
  3  4  1  0  0  0
  4  5  1  0  0  0
  5  6  1  0  0  0
  6  7  1  0  0  0
  7  8  1  0  0  0
  6  9  1  0  0  0
  9 10  2  0  0  0
  9  1  1  0  0  0
  1 26  1  0  0  0
 26 27  1  0  0  0
 27 28  2  0  0  0
 28 29  1  0  0  0
 29 30  2  0  0  0
 30 31  1  0  0  0
 31 32  2  0  0  0
 31 33  1  0  0  0
 33 34  1  0  0  0
 33 35  2  0  0  0
  1 11  1  0  0  0
 11 13  1  0  0  0
 13 14  2  0  0  0
 13 15  2  0  0  0
 13 16  1  0  0  0
 16 17  2  0  0  0
 17 18  1  0  0  0
 18 19  2  0  0  0
 19 20  1  0  0  0
 20 21  2  0  0  0
 21 22  1  0  0  0
 22 23  2  0  0  0
 23 24  1  0  0  0
 24 25  2  0  0  0
  8  3  1  0  0  0
 32 27  1  0  0  0
 25 16  1  0  0  0
 24 19  1  0  0  0
 34 36  1  0  0  0
 34 37  1  0  0  0
 35 38  1  0  0  0
 11 12  1  0  0  0
M  END
> <minimizedAffinity>
-8.37125

> <CNNscore>
0.3144080639

> <CNNaffinity>
7.0065088272

> <CNN_VS>
2.2029027939

> <CNNaffinity_variance>
0.1530406773

$$$$
[H]N=C(c1c([H])c([H])c([H])c(C([H])([H])[C@@]([H])(C(=O)N2C([H])([H])C([H])([H])C([H])(C([H])([H])[H])C([H])([H])C2([H])[H])N([H])S(=O)(=O)c2c([H])c([H])c3c([H])c([H])c([H])c([H])c3c2[H])c1[H])N([H])[H]


 38 41  0  0  0  0  0  0  0  0999 V2000
   55.5988   -5.4915   -6.6901 C   0  0  0  0  0  0  0  0  0  0  0  0
   52.3464   -7.9907   -1.9632 C   0  0  0  0  0  0  0  0  0  0  0  0
   53.5806   -7.1149   -2.0138 C   0  0  0  0  0  0  0  0  0  0  0  0
   53.3706   -5.9468   -2.9507 C   0  0  0  0  0  0  0  0  0  0  0  0
   53.7753   -6.3522   -4.3444 C   0  0  0  0  0  0  0  0  0  0  0  0
   55.2045   -6.5356   -4.3721 N   0  0  0  0  0  0  0  0  0  0  0  0
   55.7823   -7.1792   -3.2045 C   0  0  0  0  0  0  0  0  0  0  0  0
   54.7482   -7.9713   -2.4343 C   0  0  0  0  0  0  0  0  0  0  0  0
   56.0530   -6.1427   -5.4254 C   0  0  0  0  0  0  0  0  0  0  0  0
   57.3073   -6.3512   -5.3013 O   0  0  0  0  0  0  0  0  0  0  0  0
   54.3851   -4.7677   -6.3261 N   0  0  0  0  0  0  0  0  0  0  0  0
   54.0656   -4.9326   -5.3706 H   0  0  0  0  0  0  0  0  0  0  0  0
   53.1472   -4.9384   -7.5076 S   0  0  0  0  0  0  0  0  0  0  0  0
   53.4798   -4.1906   -8.7671 O   0  0  0  0  0  0  0  0  0  0  0  0
   52.8259   -6.3747   -7.7802 O   0  0  0  0  0  0  0  0  0  0  0  0
   51.6963   -4.2034   -6.8549 C   0  0  0  0  0  0  0  0  0  0  0  0
   51.1170   -3.0906   -7.4121 C   0  0  0  0  0  0  0  0  0  0  0  0
   49.9581   -2.5233   -6.8792 C   0  0  0  0  0  0  0  0  0  0  0  0
   49.3489   -3.0634   -5.7661 C   0  0  0  0  0  0  0  0  0  0  0  0
   48.2022   -2.5067   -5.2343 C   0  0  0  0  0  0  0  0  0  0  0  0
   47.6080   -3.0613   -4.1220 C   0  0  0  0  0  0  0  0  0  0  0  0
   48.1899   -4.1946   -3.5469 C   0  0  0  0  0  0  0  0  0  0  0  0
   49.3334   -4.7336   -4.0930 C   0  0  0  0  0  0  0  0  0  0  0  0
   49.9389   -4.1873   -5.2079 C   0  0  0  0  0  0  0  0  0  0  0  0
   51.0839   -4.7510   -5.7311 C   0  0  0  0  0  0  0  0  0  0  0  0
   56.5591   -4.4300   -7.1688 C   0  0  0  0  0  0  0  0  0  0  0  0
   57.2636   -4.7354   -8.4231 C   0  0  0  0  0  0  0  0  0  0  0  0
   58.4766   -5.4309   -8.3532 C   0  0  0  0  0  0  0  0  0  0  0  0
   59.1815   -5.7341   -9.5012 C   0  0  0  0  0  0  0  0  0  0  0  0
   58.7217   -5.3673  -10.7410 C   0  0  0  0  0  0  0  0  0  0  0  0
   57.5174   -4.6751  -10.8324 C   0  0  0  0  0  0  0  0  0  0  0  0
   56.8219   -4.3776   -9.6799 C   0  0  0  0  0  0  0  0  0  0  0  0
   57.0255   -4.2829  -12.1433 C   0  0  0  0  0  0  0  0  0  0  0  0
   55.9762   -3.3412  -12.2781 N   0  0  0  0  0  0  0  0  0  0  0  0
   57.5370   -4.7872  -13.2086 N   0  0  0  0  0  0  0  0  0  0  0  0
   55.1252   -3.5481  -12.8629 H   0  0  0  0  0  0  0  0  0  0  0  0
   56.0274   -2.4297  -11.8023 H   0  0  0  0  0  0  0  0  0  0  0  0
   57.2650   -4.5797  -14.1721 H   0  0  0  0  0  0  0  0  0  0  0  0
  2  3  1  0  0  0
  3  4  1  0  0  0
  4  5  1  0  0  0
  5  6  1  0  0  0
  6  7  1  0  0  0
  7  8  1  0  0  0
  6  9  1  0  0  0
  9 10  2  0  0  0
  9  1  1  0  0  0
  1 26  1  0  0  0
 26 27  1  0  0  0
 27 28  2  0  0  0
 28 29  1  0  0  0
 29 30  2  0  0  0
 30 31  1  0  0  0
 31 32  2  0  0  0
 31 33  1  0  0  0
 33 34  1  0  0  0
 33 35  2  0  0  0
  1 11  1  0  0  0
 11 13  1  0  0  0
 13 14  2  0  0  0
 13 15  2  0  0  0
 13 16  1  0  0  0
 16 17  2  0  0  0
 17 18  1  0  0  0
 18 19  2  0  0  0
 19 20  1  0  0  0
 20 21  2  0  0  0
 21 22  1  0  0  0
 22 23  2  0  0  0
 23 24  1  0  0  0
 24 25  2  0  0  0
  8  3  1  0  0  0
 32 27  1  0  0  0
 25 16  1  0  0  0
 24 19  1  0  0  0
 34 36  1  0  0  0
 34 37  1  0  0  0
 35 38  1  0  0  0
 11 12  1  0  0  0
M  END
> <minimizedAffinity>
-11.23832

> <CNNscore>
0.2978602648

> <CNNaffinity>
7.0902376175

> <CNN_VS>
2.1119000912

> <CNNaffinity_variance>
0.0606693923

$$$$
[H]N=C(c1c([H])c([H])c([H])c(C([H])([H])[C@@]([H])(C(=O)N2C([H])([H])C([H])([H])C([H])(C([H])([H])[H])C([H])([H])C2([H])[H])N([H])S(=O)(=O)c2c([H])c([H])c3c([H])c([H])c([H])c([H])c3c2[H])c1[H])N([H])[H]


 38 41  0  0  0  0  0  0  0  0999 V2000
   55.1138   -4.7571   -7.6394 C   0  0  0  0  0  0  0  0  0  0  0  0
   57.0964   -3.3253  -13.4001 C   0  0  0  0  0  0  0  0  0  0  0  0
   57.2155   -4.5733  -12.5510 C   0  0  0  0  0  0  0  0  0  0  0  0
   55.8794   -4.9384  -11.9447 C   0  0  0  0  0  0  0  0  0  0  0  0
   55.7248   -4.2277  -10.6250 C   0  0  0  0  0  0  0  0  0  0  0  0
   56.6676   -4.7869   -9.6895 N   0  0  0  0  0  0  0  0  0  0  0  0
   57.9816   -5.0987  -10.2259 C   0  0  0  0  0  0  0  0  0  0  0  0
   58.2641   -4.3262  -11.4961 C   0  0  0  0  0  0  0  0  0  0  0  0
   56.4063   -5.0442   -8.3296 C   0  0  0  0  0  0  0  0  0  0  0  0
   57.3354   -5.5639   -7.6232 O   0  0  0  0  0  0  0  0  0  0  0  0
   54.1117   -4.7595   -8.7002 N   0  0  0  0  0  0  0  0  0  0  0  0
   54.4222   -5.1879   -9.5733 H   0  0  0  0  0  0  0  0  0  0  0  0
   53.3822   -3.2162   -8.9090 S   0  0  0  0  0  0  0  0  0  0  0  0
   54.3150   -2.1070   -8.5145 O   0  0  0  0  0  0  0  0  0  0  0  0
   52.8497   -3.0303  -10.2955 O   0  0  0  0  0  0  0  0  0  0  0  0
   52.0128   -3.1332   -7.8185 C   0  0  0  0  0  0  0  0  0  0  0  0
   51.0524   -2.1567   -7.9115 C   0  0  0  0  0  0  0  0  0  0  0  0
   49.9666   -2.1113   -7.0354 C   0  0  0  0  0  0  0  0  0  0  0  0
   49.8180   -3.0517   -6.0377 C   0  0  0  0  0  0  0  0  0  0  0  0
   48.7457   -3.0121   -5.1679 C   0  0  0  0  0  0  0  0  0  0  0  0
   48.6145   -3.9611   -4.1779 C   0  0  0  0  0  0  0  0  0  0  0  0
   49.5870   -4.9598   -4.0746 C   0  0  0  0  0  0  0  0  0  0  0  0
   50.6481   -4.9808   -4.9522 C   0  0  0  0  0  0  0  0  0  0  0  0
   50.7913   -4.0354   -5.9490 C   0  0  0  0  0  0  0  0  0  0  0  0
   51.8657   -4.0840   -6.8125 C   0  0  0  0  0  0  0  0  0  0  0  0
   54.6992   -5.8690   -6.7066 C   0  0  0  0  0  0  0  0  0  0  0  0
   54.7791   -5.5528   -5.2726 C   0  0  0  0  0  0  0  0  0  0  0  0
   55.9249   -4.9044   -4.7965 C   0  0  0  0  0  0  0  0  0  0  0  0
   56.0529   -4.5936   -3.4572 C   0  0  0  0  0  0  0  0  0  0  0  0
   55.0693   -4.9067   -2.5529 C   0  0  0  0  0  0  0  0  0  0  0  0
   53.9217   -5.5515   -3.0060 C   0  0  0  0  0  0  0  0  0  0  0  0
   53.8045   -5.8571   -4.3451 C   0  0  0  0  0  0  0  0  0  0  0  0
   52.8765   -5.8868   -2.0524 C   0  0  0  0  0  0  0  0  0  0  0  0
   52.6597   -5.0956   -0.8980 N   0  0  0  0  0  0  0  0  0  0  0  0
   52.1271   -6.9132   -2.2415 N   0  0  0  0  0  0  0  0  0  0  0  0
   52.6174   -5.5261    0.0622 H   0  0  0  0  0  0  0  0  0  0  0  0
   52.5385   -4.0763   -0.9778 H   0  0  0  0  0  0  0  0  0  0  0  0
   51.3687   -7.2337   -1.6354 H   0  0  0  0  0  0  0  0  0  0  0  0
  2  3  1  0  0  0
  3  4  1  0  0  0
  4  5  1  0  0  0
  5  6  1  0  0  0
  6  7  1  0  0  0
  7  8  1  0  0  0
  6  9  1  0  0  0
  9 10  2  0  0  0
  9  1  1  0  0  0
  1 26  1  0  0  0
 26 27  1  0  0  0
 27 28  2  0  0  0
 28 29  1  0  0  0
 29 30  2  0  0  0
 30 31  1  0  0  0
 31 32  2  0  0  0
 31 33  1  0  0  0
 33 34  1  0  0  0
 33 35  2  0  0  0
  1 11  1  0  0  0
 11 13  1  0  0  0
 13 14  2  0  0  0
 13 15  2  0  0  0
 13 16  1  0  0  0
 16 17  2  0  0  0
 17 18  1  0  0  0
 18 19  2  0  0  0
 19 20  1  0  0  0
 20 21  2  0  0  0
 21 22  1  0  0  0
 22 23  2  0  0  0
 23 24  1  0  0  0
 24 25  2  0  0  0
  8  3  1  0  0  0
 32 27  1  0  0  0
 25 16  1  0  0  0
 24 19  1  0  0  0
 34 36  1  0  0  0
 34 37  1  0  0  0
 35 38  1  0  0  0
 11 12  1  0  0  0
M  END
> <minimizedAffinity>
-11.05736

> <CNNscore>
0.2866144478

> <CNNaffinity>
7.3354887962

> <CNN_VS>
2.1024570465

> <CNNaffinity_variance>
0.1329372823

$$$$
[H]OC(=O)[C@@]([H])(N([H])C(=O)[C@@]([H])(N([H])C(=O)[C@@]([H])(N([H])C(=O)[C@@]([H])(N([H])C(=O)[C@@]([H])(N([H])C(=O)[C@@]([H])(N([H])C(=O)[C@@]([H])(N([H])C(=O)C([H])([H])[H])C([H])(C([H])([H])[H])C([H])([H])[H])C([H])([H])C([H])([H])C(=O)N([H])[H])C([H])([H])C([H])(C([H])([H])[H])C([H])([H])[H])C([H])([H])O[H])C([H])([H])O[H])C([H])([H])O[H])C([H])([H])O[H]


 66 65  0  0  0  0  0  0  0  0999 V2000
   53.3564   -5.1918   -7.1034 C   0  0  0  0  0  0  0  0  0  0  0  0
   52.1831   -5.2389   -7.5088 O   0  0  0  0  0  0  0  0  0  0  0  0
   54.4461   -4.6529   -7.8393 N   0  0  0  0  0  0  0  0  0  0  0  0
   55.3912   -4.6840   -7.3451 H   0  0  0  0  0  0  0  0  0  0  0  0
   53.6579   -5.7506   -5.7179 C   0  0  0  0  0  0  0  0  0  0  0  0
   52.4236   -5.9033   -4.9868 N   0  0  0  0  0  0  0  0  0  0  0  0
   52.3485   -5.7403   -3.5919 C   0  0  0  0  0  0  0  0  0  0  0  0
   53.3683   -5.4297   -2.9543 O   0  0  0  0  0  0  0  0  0  0  0  0
   51.5673   -6.1454   -5.5182 H   0  0  0  0  0  0  0  0  0  0  0  0
   51.0628   -5.9298   -2.7915 C   0  0  0  0  0  0  0  0  0  0  0  0
   51.4994   -6.2692   -1.4403 N   0  0  0  0  0  0  0  0  0  0  0  0
   51.3882   -7.5557   -0.9100 C   0  0  0  0  0  0  0  0  0  0  0  0
   50.8734   -8.4277   -1.7200 O   0  0  0  0  0  0  0  0  0  0  0  0
   51.9598   -5.5275   -0.8772 H   0  0  0  0  0  0  0  0  0  0  0  0
   51.7673   -8.0524    0.3985 C   0  0  0  0  0  0  0  0  0  0  0  0
   52.6410   -7.1109    1.1204 N   0  0  0  0  0  0  0  0  0  0  0  0
   54.0438   -7.0414    0.9535 C   0  0  0  0  0  0  0  0  0  0  0  0
   54.9055   -6.1015    1.6880 C   0  0  0  0  0  0  0  0  0  0  0  0
   54.6173   -7.8315    0.1249 O   0  0  0  0  0  0  0  0  0  0  0  0
   52.2181   -6.4306    1.8149 H   0  0  0  0  0  0  0  0  0  0  0  0
   50.7640   -8.5399    1.3593 C   0  0  0  0  0  0  0  0  0  0  0  0
   50.9603   -8.1613    2.8020 C   0  0  0  0  0  0  0  0  0  0  0  0
   50.5616  -10.0453    1.2837 C   0  0  0  0  0  0  0  0  0  0  0  0
   50.2643   -4.7079   -2.9802 C   0  0  0  0  0  0  0  0  0  0  0  0
   49.2744   -4.6038   -4.0320 C   0  0  0  0  0  0  0  0  0  0  0  0
   49.1494   -3.3955   -4.8302 C   0  0  0  0  0  0  0  0  0  0  0  0
   50.0429   -3.4247   -6.0126 N   0  0  0  0  0  0  0  0  0  0  0  0
   48.4462   -2.4107   -4.6647 O   0  0  0  0  0  0  0  0  0  0  0  0
   51.0166   -3.1959   -5.8220 H   0  0  0  0  0  0  0  0  0  0  0  0
   49.6387   -3.6637   -6.9060 H   0  0  0  0  0  0  0  0  0  0  0  0
   54.3549   -7.0382   -5.9728 C   0  0  0  0  0  0  0  0  0  0  0  0
   55.2277   -8.2354   -3.9179 C   0  0  0  0  0  0  0  0  0  0  0  0
   55.5048   -7.3964   -5.1206 C   0  0  0  0  0  0  0  0  0  0  0  0
   56.3366   -6.1934   -4.6839 C   0  0  0  0  0  0  0  0  0  0  0  0
   54.3446   -4.0996   -9.1768 C   0  0  0  0  0  0  0  0  0  0  0  0
   55.6314   -3.9755   -9.8454 C   0  0  0  0  0  0  0  0  0  0  0  0
   56.6887   -3.9631   -9.1117 O   0  0  0  0  0  0  0  0  0  0  0  0
   55.7522   -3.8673  -11.2437 N   0  0  0  0  0  0  0  0  0  0  0  0
   54.9098   -3.8967  -11.8381 H   0  0  0  0  0  0  0  0  0  0  0  0
   57.0449   -3.7213  -11.8900 C   0  0  0  0  0  0  0  0  0  0  0  0
   57.0439   -4.0241  -13.3284 C   0  0  0  0  0  0  0  0  0  0  0  0
   56.5753   -5.1851  -13.6386 O   0  0  0  0  0  0  0  0  0  0  0  0
   57.4875   -3.1888  -14.3548 N   0  0  0  0  0  0  0  0  0  0  0  0
   57.8605   -2.2468  -14.1096 H   0  0  0  0  0  0  0  0  0  0  0  0
   57.4431   -3.6002  -15.7257 C   0  0  0  0  0  0  0  0  0  0  0  0
   58.5194   -2.9206  -16.4656 C   0  0  0  0  0  0  0  0  0  0  0  0
   58.8999   -1.7759  -16.1588 O   0  0  0  0  0  0  0  0  0  0  0  0
   59.1378   -3.5851  -17.5548 N   0  0  0  0  0  0  0  0  0  0  0  0
   58.8256   -4.5544  -17.8082 H   0  0  0  0  0  0  0  0  0  0  0  0
   60.1904   -2.9368  -18.3104 C   0  0  0  0  0  0  0  0  0  0  0  0
   60.2502   -3.3655  -19.7173 C   0  0  0  0  0  0  0  0  0  0  0  0
   60.7900   -2.5465  -20.6729 O   0  0  0  0  0  0  0  0  0  0  0  0
   59.8003   -4.4915  -20.0354 O   0  0  0  0  0  0  0  0  0  0  0  0
   60.2342   -2.0760  -21.3845 H   0  0  0  0  0  0  0  0  0  0  0  0
   61.5110   -3.3074  -17.6030 C   0  0  0  0  0  0  0  0  0  0  0  0
   62.5283   -2.6547  -18.2994 O   0  0  0  0  0  0  0  0  0  0  0  0
   62.9779   -2.0021  -17.6853 H   0  0  0  0  0  0  0  0  0  0  0  0
   56.1230   -3.2180  -16.3967 C   0  0  0  0  0  0  0  0  0  0  0  0
   56.0479   -3.8465  -17.6206 O   0  0  0  0  0  0  0  0  0  0  0  0
   55.3711   -3.5107  -18.2323 H   0  0  0  0  0  0  0  0  0  0  0  0
   58.0510   -4.6984  -11.2673 C   0  0  0  0  0  0  0  0  0  0  0  0
   59.1531   -4.7157  -12.1219 O   0  0  0  0  0  0  0  0  0  0  0  0
   59.4374   -3.7494  -12.1881 H   0  0  0  0  0  0  0  0  0  0  0  0
   53.6435   -2.7229   -9.0955 C   0  0  0  0  0  0  0  0  0  0  0  0
   54.5346   -1.6933   -8.8977 O   0  0  0  0  0  0  0  0  0  0  0  0
   54.1663   -0.8288   -9.2264 H   0  0  0  0  0  0  0  0  0  0  0  0
 32 33  1  0  0  0
 33 34  1  0  0  0
 33 31  1  0  0  0
 31  5  1  0  0  0
  5  6  1  0  0  0
  6  7  1  0  0  0
  7  8  2  0  0  0
  7 10  1  0  0  0
 10 24  1  0  0  0
 24 25  1  0  0  0
 25 26  1  0  0  0
 26 27  1  0  0  0
 26 28  2  0  0  0
 10 11  1  0  0  0
 11 12  1  0  0  0
 12 13  2  0  0  0
 12 15  1  0  0  0
 15 16  1  0  0  0
 16 17  1  0  0  0
 17 18  1  0  0  0
 17 19  2  0  0  0
 15 21  1  0  0  0
 21 22  1  0  0  0
 21 23  1  0  0  0
  5  1  1  0  0  0
  1  2  2  0  0  0
  1  3  1  0  0  0
  3 35  1  0  0  0
 35 64  1  0  0  0
 64 65  1  0  0  0
 35 36  1  0  0  0
 36 37  2  0  0  0
 36 38  1  0  0  0
 38 40  1  0  0  0
 40 61  1  0  0  0
 61 62  1  0  0  0
 40 41  1  0  0  0
 41 42  2  0  0  0
 41 43  1  0  0  0
 43 45  1  0  0  0
 45 58  1  0  0  0
 58 59  1  0  0  0
 45 46  1  0  0  0
 46 47  2  0  0  0
 46 48  1  0  0  0
 48 50  1  0  0  0
 50 55  1  0  0  0
 55 56  1  0  0  0
 50 51  1  0  0  0
 51 52  1  0  0  0
 51 53  2  0  0  0
  6  9  1  0  0  0
 27 29  1  0  0  0
 27 30  1  0  0  0
 11 14  1  0  0  0
 16 20  1  0  0  0
  3  4  1  0  0  0
 65 66  1  0  0  0
 38 39  1  0  0  0
 62 63  1  0  0  0
 43 44  1  0  0  0
 59 60  1  0  0  0
 48 49  1  0  0  0
 56 57  1  0  0  0
 52 54  1  0  0  0
M  END
> <minimizedAffinity>
-7.88125

> <CNNscore>
0.4044873118

> <CNNaffinity>
6.6119842529

> <CNN_VS>
2.6744637489

> <CNNaffinity_variance>
0.0659106672

$$$$
[H]OC(=O)[C@@]([H])(N([H])C(=O)[C@@]([H])(N([H])C(=O)[C@@]([H])(N([H])C(=O)[C@@]([H])(N([H])C(=O)[C@@]([H])(N([H])C(=O)[C@@]([H])(N([H])C(=O)[C@@]([H])(N([H])C(=O)C([H])([H])[H])C([H])(C([H])([H])[H])C([H])([H])[H])C([H])([H])C([H])([H])C(=O)N([H])[H])C([H])([H])C([H])(C([H])([H])[H])C([H])([H])[H])C([H])([H])O[H])C([H])([H])O[H])C([H])([H])O[H])C([H])([H])O[H]


 66 65  0  0  0  0  0  0  0  0999 V2000
   51.5501   -5.5647   -6.9434 C   0  0  0  0  0  0  0  0  0  0  0  0
   51.7008   -6.6310   -7.5626 O   0  0  0  0  0  0  0  0  0  0  0  0
   52.1128   -4.3180   -7.3291 N   0  0  0  0  0  0  0  0  0  0  0  0
   51.8828   -3.4953   -6.6899 H   0  0  0  0  0  0  0  0  0  0  0  0
   50.7022   -5.5859   -5.6771 C   0  0  0  0  0  0  0  0  0  0  0  0
   51.3431   -6.4186   -4.6886 N   0  0  0  0  0  0  0  0  0  0  0  0
   51.0617   -6.3104   -3.3149 C   0  0  0  0  0  0  0  0  0  0  0  0
   50.2153   -5.4895   -2.9244 O   0  0  0  0  0  0  0  0  0  0  0  0
   52.0372   -7.1167   -5.0130 H   0  0  0  0  0  0  0  0  0  0  0  0
   51.7506   -7.1555   -2.2467 C   0  0  0  0  0  0  0  0  0  0  0  0
   52.6430   -6.2356   -1.5473 N   0  0  0  0  0  0  0  0  0  0  0  0
   53.8565   -6.6380   -0.9870 C   0  0  0  0  0  0  0  0  0  0  0  0
   54.1310   -7.8953   -1.1468 O   0  0  0  0  0  0  0  0  0  0  0  0
   52.3800   -5.2310   -1.5177 H   0  0  0  0  0  0  0  0  0  0  0  0
   54.8454   -5.8600   -0.2663 C   0  0  0  0  0  0  0  0  0  0  0  0
   55.5869   -4.9442   -1.1510 N   0  0  0  0  0  0  0  0  0  0  0  0
   56.9967   -4.9113   -1.2585 C   0  0  0  0  0  0  0  0  0  0  0  0
   57.7246   -3.9850   -2.1403 C   0  0  0  0  0  0  0  0  0  0  0  0
   57.6988   -5.7214   -0.5581 O   0  0  0  0  0  0  0  0  0  0  0  0
   55.0551   -4.2559   -1.7571 H   0  0  0  0  0  0  0  0  0  0  0  0
   54.4977   -5.1054    0.9490 C   0  0  0  0  0  0  0  0  0  0  0  0
   55.6224   -4.4074    1.6641 C   0  0  0  0  0  0  0  0  0  0  0  0
   53.7346   -5.9440    1.9625 C   0  0  0  0  0  0  0  0  0  0  0  0
   50.6833   -7.8132   -1.4757 C   0  0  0  0  0  0  0  0  0  0  0  0
   50.9641   -8.5238   -0.2456 C   0  0  0  0  0  0  0  0  0  0  0  0
   51.0892   -9.9719   -0.2253 C   0  0  0  0  0  0  0  0  0  0  0  0
   52.1386  -10.4446   -1.1594 N   0  0  0  0  0  0  0  0  0  0  0  0
   50.4765  -10.8069    0.4218 O   0  0  0  0  0  0  0  0  0  0  0  0
   51.8581  -10.4844   -2.1374 H   0  0  0  0  0  0  0  0  0  0  0  0
   53.0393  -10.6893   -0.7754 H   0  0  0  0  0  0  0  0  0  0  0  0
   50.5971   -4.1608   -5.2684 C   0  0  0  0  0  0  0  0  0  0  0  0
   49.6647   -2.3036   -6.7173 C   0  0  0  0  0  0  0  0  0  0  0  0
   49.4251   -3.3850   -5.7170 C   0  0  0  0  0  0  0  0  0  0  0  0
   48.6053   -2.8022   -4.5690 C   0  0  0  0  0  0  0  0  0  0  0  0
   52.9597   -4.1198   -8.4906 C   0  0  0  0  0  0  0  0  0  0  0  0
   54.2970   -4.6700   -8.3261 C   0  0  0  0  0  0  0  0  0  0  0  0
   55.0973   -4.6096   -9.3322 O   0  0  0  0  0  0  0  0  0  0  0  0
   54.7325   -5.2580   -7.1235 N   0  0  0  0  0  0  0  0  0  0  0  0
   54.1023   -5.2912   -6.3077 H   0  0  0  0  0  0  0  0  0  0  0  0
   56.0642   -5.8220   -6.9871 C   0  0  0  0  0  0  0  0  0  0  0  0
   56.5002   -6.0237   -5.5978 C   0  0  0  0  0  0  0  0  0  0  0  0
   55.9966   -5.1973   -4.7451 O   0  0  0  0  0  0  0  0  0  0  0  0
   57.3801   -7.0038   -5.1360 N   0  0  0  0  0  0  0  0  0  0  0  0
   57.7841   -7.6784   -5.8203 H   0  0  0  0  0  0  0  0  0  0  0  0
   57.7372   -7.0962   -3.7524 C   0  0  0  0  0  0  0  0  0  0  0  0
   59.1833   -7.3512   -3.6461 C   0  0  0  0  0  0  0  0  0  0  0  0
   59.9083   -6.6882   -2.8818 O   0  0  0  0  0  0  0  0  0  0  0  0
   59.7657   -8.3764   -4.4336 N   0  0  0  0  0  0  0  0  0  0  0  0
   59.1543   -8.9435   -5.0706 H   0  0  0  0  0  0  0  0  0  0  0  0
   61.1881   -8.6420   -4.3607 C   0  0  0  0  0  0  0  0  0  0  0  0
   61.9628   -7.9776   -5.4214 C   0  0  0  0  0  0  0  0  0  0  0  0
   61.3401   -7.4981   -6.5428 O   0  0  0  0  0  0  0  0  0  0  0  0
   63.2033   -7.8542   -5.2897 O   0  0  0  0  0  0  0  0  0  0  0  0
   61.4372   -7.9252   -7.4619 H   0  0  0  0  0  0  0  0  0  0  0  0
   61.3418  -10.1719   -4.4928 C   0  0  0  0  0  0  0  0  0  0  0  0
   62.6960  -10.4499   -4.3067 O   0  0  0  0  0  0  0  0  0  0  0  0
   62.8027  -11.0236   -3.4914 H   0  0  0  0  0  0  0  0  0  0  0  0
   57.0223   -8.2525   -3.0515 C   0  0  0  0  0  0  0  0  0  0  0  0
   57.7166   -8.5757   -1.9062 O   0  0  0  0  0  0  0  0  0  0  0  0
   57.4938   -9.4297   -1.4984 H   0  0  0  0  0  0  0  0  0  0  0  0
   57.0976   -4.8711   -7.6057 C   0  0  0  0  0  0  0  0  0  0  0  0
   58.2623   -5.6203   -7.7710 O   0  0  0  0  0  0  0  0  0  0  0  0
   57.9778   -6.4107   -8.3307 H   0  0  0  0  0  0  0  0  0  0  0  0
   53.0333   -2.6062   -8.8020 C   0  0  0  0  0  0  0  0  0  0  0  0
   51.8421   -2.1128   -9.2826 O   0  0  0  0  0  0  0  0  0  0  0  0
   51.7620   -1.1349   -9.1140 H   0  0  0  0  0  0  0  0  0  0  0  0
 32 33  1  0  0  0
 33 34  1  0  0  0
 33 31  1  0  0  0
 31  5  1  0  0  0
  5  6  1  0  0  0
  6  7  1  0  0  0
  7  8  2  0  0  0
  7 10  1  0  0  0
 10 24  1  0  0  0
 24 25  1  0  0  0
 25 26  1  0  0  0
 26 27  1  0  0  0
 26 28  2  0  0  0
 10 11  1  0  0  0
 11 12  1  0  0  0
 12 13  2  0  0  0
 12 15  1  0  0  0
 15 16  1  0  0  0
 16 17  1  0  0  0
 17 18  1  0  0  0
 17 19  2  0  0  0
 15 21  1  0  0  0
 21 22  1  0  0  0
 21 23  1  0  0  0
  5  1  1  0  0  0
  1  2  2  0  0  0
  1  3  1  0  0  0
  3 35  1  0  0  0
 35 64  1  0  0  0
 64 65  1  0  0  0
 35 36  1  0  0  0
 36 37  2  0  0  0
 36 38  1  0  0  0
 38 40  1  0  0  0
 40 61  1  0  0  0
 61 62  1  0  0  0
 40 41  1  0  0  0
 41 42  2  0  0  0
 41 43  1  0  0  0
 43 45  1  0  0  0
 45 58  1  0  0  0
 58 59  1  0  0  0
 45 46  1  0  0  0
 46 47  2  0  0  0
 46 48  1  0  0  0
 48 50  1  0  0  0
 50 55  1  0  0  0
 55 56  1  0  0  0
 50 51  1  0  0  0
 51 52  1  0  0  0
 51 53  2  0  0  0
  6  9  1  0  0  0
 27 29  1  0  0  0
 27 30  1  0  0  0
 11 14  1  0  0  0
 16 20  1  0  0  0
  3  4  1  0  0  0
 65 66  1  0  0  0
 38 39  1  0  0  0
 62 63  1  0  0  0
 43 44  1  0  0  0
 59 60  1  0  0  0
 48 49  1  0  0  0
 56 57  1  0  0  0
 52 54  1  0  0  0
M  END
> <minimizedAffinity>
-8.13862

> <CNNscore>
0.2871381044

> <CNNaffinity>
6.4480576515

> <CNN_VS>
1.8514831066

> <CNNaffinity_variance>
1.1712343693

$$$$
[H]OC(=O)[C@@]([H])(N([H])C(=O)[C@@]([H])(N([H])C(=O)[C@@]([H])(N([H])C(=O)[C@@]([H])(N([H])C(=O)[C@@]([H])(N([H])C(=O)[C@@]([H])(N([H])C(=O)[C@@]([H])(N([H])C(=O)C([H])([H])[H])C([H])(C([H])([H])[H])C([H])([H])[H])C([H])([H])C([H])([H])C(=O)N([H])[H])C([H])([H])C([H])(C([H])([H])[H])C([H])([H])[H])C([H])([H])O[H])C([H])([H])O[H])C([H])([H])O[H])C([H])([H])O[H]


 66 65  0  0  0  0  0  0  0  0999 V2000
   53.5190   -5.4889   -7.1075 C   0  0  0  0  0  0  0  0  0  0  0  0
   52.4695   -5.9079   -7.6234 O   0  0  0  0  0  0  0  0  0  0  0  0
   54.4606   -4.6464   -7.7580 N   0  0  0  0  0  0  0  0  0  0  0  0
   55.3093   -4.3719   -7.1726 H   0  0  0  0  0  0  0  0  0  0  0  0
   53.8272   -5.9039   -5.6738 C   0  0  0  0  0  0  0  0  0  0  0  0
   52.5899   -6.1176   -4.9633 N   0  0  0  0  0  0  0  0  0  0  0  0
   52.4615   -5.8763   -3.5837 C   0  0  0  0  0  0  0  0  0  0  0  0
   53.4326   -5.4401   -2.9438 O   0  0  0  0  0  0  0  0  0  0  0  0
   51.7728   -6.4651   -5.4980 H   0  0  0  0  0  0  0  0  0  0  0  0
   51.1741   -6.1268   -2.8029 C   0  0  0  0  0  0  0  0  0  0  0  0
   51.6079   -6.5820   -1.4853 N   0  0  0  0  0  0  0  0  0  0  0  0
   51.4319   -7.8940   -1.0423 C   0  0  0  0  0  0  0  0  0  0  0  0
   50.8595   -8.6786   -1.9015 O   0  0  0  0  0  0  0  0  0  0  0  0
   52.1157   -5.9072   -0.8804 H   0  0  0  0  0  0  0  0  0  0  0  0
   51.7989   -8.4999    0.2230 C   0  0  0  0  0  0  0  0  0  0  0  0
   50.9554   -9.6630    0.5494 N   0  0  0  0  0  0  0  0  0  0  0  0
   49.7745   -9.5955    1.3248 C   0  0  0  0  0  0  0  0  0  0  0  0
   48.9461  -10.7673    1.6505 C   0  0  0  0  0  0  0  0  0  0  0  0
   49.3867   -8.4633    1.7807 O   0  0  0  0  0  0  0  0  0  0  0  0
   51.2270  -10.6239    0.1931 H   0  0  0  0  0  0  0  0  0  0  0  0
   53.1907   -8.8724    0.5253 C   0  0  0  0  0  0  0  0  0  0  0  0
   53.5359   -9.1066    1.9708 C   0  0  0  0  0  0  0  0  0  0  0  0
   54.1997   -7.8932   -0.0542 C   0  0  0  0  0  0  0  0  0  0  0  0
   50.3818   -4.8893   -2.8874 C   0  0  0  0  0  0  0  0  0  0  0  0
   49.4010   -4.6868   -3.9333 C   0  0  0  0  0  0  0  0  0  0  0  0
   49.6848   -3.8335   -5.0754 C   0  0  0  0  0  0  0  0  0  0  0  0
   48.7987   -2.6456   -5.1058 N   0  0  0  0  0  0  0  0  0  0  0  0
   50.5097   -3.9588   -5.9672 O   0  0  0  0  0  0  0  0  0  0  0  0
   47.8624   -2.8162   -5.4681 H   0  0  0  0  0  0  0  0  0  0  0  0
   49.1710   -1.7683   -4.7737 H   0  0  0  0  0  0  0  0  0  0  0  0
   54.6514   -7.1338   -5.8049 C   0  0  0  0  0  0  0  0  0  0  0  0
   55.4892   -8.1119   -3.6233 C   0  0  0  0  0  0  0  0  0  0  0  0
   55.7711   -7.3336   -4.8651 C   0  0  0  0  0  0  0  0  0  0  0  0
   56.4716   -6.0367   -4.4687 C   0  0  0  0  0  0  0  0  0  0  0  0
   54.3378   -4.1731   -9.1241 C   0  0  0  0  0  0  0  0  0  0  0  0
   55.6215   -3.9894   -9.7851 C   0  0  0  0  0  0  0  0  0  0  0  0
   56.6612   -3.8372   -9.0421 O   0  0  0  0  0  0  0  0  0  0  0  0
   55.7572   -3.9703  -11.1861 N   0  0  0  0  0  0  0  0  0  0  0  0
   54.9306   -4.1116  -11.7864 H   0  0  0  0  0  0  0  0  0  0  0  0
   57.0446   -3.7628  -11.8262 C   0  0  0  0  0  0  0  0  0  0  0  0
   57.0437   -3.9817  -13.2798 C   0  0  0  0  0  0  0  0  0  0  0  0
   56.4210   -5.0421  -13.6690 O   0  0  0  0  0  0  0  0  0  0  0  0
   57.6354   -3.1649  -14.2445 N   0  0  0  0  0  0  0  0  0  0  0  0
   58.1337   -2.3030  -13.9354 H   0  0  0  0  0  0  0  0  0  0  0  0
   57.5738   -3.4884  -15.6381 C   0  0  0  0  0  0  0  0  0  0  0  0
   58.6295   -2.7486  -16.3494 C   0  0  0  0  0  0  0  0  0  0  0  0
   59.7300   -2.5104  -15.8188 O   0  0  0  0  0  0  0  0  0  0  0  0
   58.3876   -2.2953  -17.6709 N   0  0  0  0  0  0  0  0  0  0  0  0
   57.4643   -2.5043  -18.1237 H   0  0  0  0  0  0  0  0  0  0  0  0
   59.4020   -1.5532  -18.3915 C   0  0  0  0  0  0  0  0  0  0  0  0
   59.1129   -0.1135  -18.4930 C   0  0  0  0  0  0  0  0  0  0  0  0
   57.8202    0.3363  -18.5352 O   0  0  0  0  0  0  0  0  0  0  0  0
   60.0641    0.7016  -18.5414 O   0  0  0  0  0  0  0  0  0  0  0  0
   57.3901    0.7231  -19.3731 H   0  0  0  0  0  0  0  0  0  0  0  0
   59.4540   -2.1685  -19.8059 C   0  0  0  0  0  0  0  0  0  0  0  0
   59.4306   -1.0999  -20.7022 O   0  0  0  0  0  0  0  0  0  0  0  0
   60.2839   -1.0961  -21.2285 H   0  0  0  0  0  0  0  0  0  0  0  0
   56.2384   -3.0816  -16.2629 C   0  0  0  0  0  0  0  0  0  0  0  0
   55.9287   -3.9710  -17.2686 O   0  0  0  0  0  0  0  0  0  0  0  0
   55.2277   -3.6941  -17.8826 H   0  0  0  0  0  0  0  0  0  0  0  0
   58.0709   -4.7553  -11.2641 C   0  0  0  0  0  0  0  0  0  0  0  0
   59.1486   -4.7403  -12.1494 O   0  0  0  0  0  0  0  0  0  0  0  0
   59.4278   -3.7713  -12.1921 H   0  0  0  0  0  0  0  0  0  0  0  0
   53.5367   -2.8496   -9.1237 C   0  0  0  0  0  0  0  0  0  0  0  0
   54.3257   -1.7610   -8.8309 O   0  0  0  0  0  0  0  0  0  0  0  0
   53.9357   -0.9227   -9.2000 H   0  0  0  0  0  0  0  0  0  0  0  0
 32 33  1  0  0  0
 33 34  1  0  0  0
 33 31  1  0  0  0
 31  5  1  0  0  0
  5  6  1  0  0  0
  6  7  1  0  0  0
  7  8  2  0  0  0
  7 10  1  0  0  0
 10 24  1  0  0  0
 24 25  1  0  0  0
 25 26  1  0  0  0
 26 27  1  0  0  0
 26 28  2  0  0  0
 10 11  1  0  0  0
 11 12  1  0  0  0
 12 13  2  0  0  0
 12 15  1  0  0  0
 15 16  1  0  0  0
 16 17  1  0  0  0
 17 18  1  0  0  0
 17 19  2  0  0  0
 15 21  1  0  0  0
 21 22  1  0  0  0
 21 23  1  0  0  0
  5  1  1  0  0  0
  1  2  2  0  0  0
  1  3  1  0  0  0
  3 35  1  0  0  0
 35 64  1  0  0  0
 64 65  1  0  0  0
 35 36  1  0  0  0
 36 37  2  0  0  0
 36 38  1  0  0  0
 38 40  1  0  0  0
 40 61  1  0  0  0
 61 62  1  0  0  0
 40 41  1  0  0  0
 41 42  2  0  0  0
 41 43  1  0  0  0
 43 45  1  0  0  0
 45 58  1  0  0  0
 58 59  1  0  0  0
 45 46  1  0  0  0
 46 47  2  0  0  0
 46 48  1  0  0  0
 48 50  1  0  0  0
 50 55  1  0  0  0
 55 56  1  0  0  0
 50 51  1  0  0  0
 51 52  1  0  0  0
 51 53  2  0  0  0
  6  9  1  0  0  0
 27 29  1  0  0  0
 27 30  1  0  0  0
 11 14  1  0  0  0
 16 20  1  0  0  0
  3  4  1  0  0  0
 65 66  1  0  0  0
 38 39  1  0  0  0
 62 63  1  0  0  0
 43 44  1  0  0  0
 59 60  1  0  0  0
 48 49  1  0  0  0
 56 57  1  0  0  0
 52 54  1  0  0  0
M  END
> <minimizedAffinity>
-8.10793

> <CNNscore>
0.2826570868

> <CNNaffinity>
6.3880596161

> <CNN_VS>
1.8056303263

> <CNNaffinity_variance>
0.1162797362

$$$$
[H]OC(=O)[C@@]([H])(N([H])C(=O)[C@@]([H])(N([H])C(=O)[C@@]([H])(N([H])C(=O)[C@@]([H])(N([H])C(=O)[C@@]([H])(N([H])C(=O)[C@@]([H])(N([H])C(=O)[C@@]([H])(N([H])C(=O)C([H])([H])[H])C([H])(C([H])([H])[H])C([H])([H])[H])C([H])([H])C([H])([H])C(=O)N([H])[H])C([H])([H])C([H])(C([H])([H])[H])C([H])([H])[H])C([H])([H])O[H])C([H])([H])O[H])C([H])([H])O[H])C([H])([H])O[H]


 66 65  0  0  0  0  0  0  0  0999 V2000
   56.1482   -6.8795   -4.7626 C   0  0  0  0  0  0  0  0  0  0  0  0
   55.6610   -8.0212   -4.7132 O   0  0  0  0  0  0  0  0  0  0  0  0
   57.1109   -6.3700   -3.8499 N   0  0  0  0  0  0  0  0  0  0  0  0
   57.4316   -5.3694   -4.0350 H   0  0  0  0  0  0  0  0  0  0  0  0
   55.6852   -5.9514   -5.8793 C   0  0  0  0  0  0  0  0  0  0  0  0
   56.6819   -5.9265   -6.9221 N   0  0  0  0  0  0  0  0  0  0  0  0
   56.8362   -4.8318   -7.7913 C   0  0  0  0  0  0  0  0  0  0  0  0
   56.1120   -3.8320   -7.6542 O   0  0  0  0  0  0  0  0  0  0  0  0
   57.2994   -6.7522   -7.0280 H   0  0  0  0  0  0  0  0  0  0  0  0
   57.8594   -4.7952   -8.9234 C   0  0  0  0  0  0  0  0  0  0  0  0
   58.8924   -5.7518   -8.5370 N   0  0  0  0  0  0  0  0  0  0  0  0
   59.9322   -6.1278   -9.3890 C   0  0  0  0  0  0  0  0  0  0  0  0
   59.9108   -5.5501  -10.5497 O   0  0  0  0  0  0  0  0  0  0  0  0
   58.8742   -6.1217   -7.5664 H   0  0  0  0  0  0  0  0  0  0  0  0
   61.0235   -7.0555   -9.1627 C   0  0  0  0  0  0  0  0  0  0  0  0
   62.0066   -7.0379  -10.2601 N   0  0  0  0  0  0  0  0  0  0  0  0
   62.4011   -8.1821  -10.9919 C   0  0  0  0  0  0  0  0  0  0  0  0
   63.3911   -8.1511  -12.0802 C   0  0  0  0  0  0  0  0  0  0  0  0
   61.8831   -9.3182  -10.7079 O   0  0  0  0  0  0  0  0  0  0  0  0
   62.4628   -6.1228  -10.5404 H   0  0  0  0  0  0  0  0  0  0  0  0
   61.7802   -7.0637   -7.9000 C   0  0  0  0  0  0  0  0  0  0  0  0
   63.1388   -6.4177   -7.9143 C   0  0  0  0  0  0  0  0  0  0  0  0
   61.9202   -8.4577   -7.3085 C   0  0  0  0  0  0  0  0  0  0  0  0
   57.1170   -5.0363  -10.1711 C   0  0  0  0  0  0  0  0  0  0  0  0
   56.7521   -3.9514  -11.0582 C   0  0  0  0  0  0  0  0  0  0  0  0
   57.2091   -3.9218  -12.4377 C   0  0  0  0  0  0  0  0  0  0  0  0
   58.6434   -3.5595  -12.5323 N   0  0  0  0  0  0  0  0  0  0  0  0
   56.6016   -4.1411  -13.4742 O   0  0  0  0  0  0  0  0  0  0  0  0
   58.8425   -2.5646  -12.4468 H   0  0  0  0  0  0  0  0  0  0  0  0
   59.3116   -4.3030  -12.6712 H   0  0  0  0  0  0  0  0  0  0  0  0
   54.3826   -6.5133   -6.3225 C   0  0  0  0  0  0  0  0  0  0  0  0
   52.3968   -5.7153   -4.9669 C   0  0  0  0  0  0  0  0  0  0  0  0
   53.1822   -5.6601   -6.2348 C   0  0  0  0  0  0  0  0  0  0  0  0
   52.2179   -5.8442   -7.4036 C   0  0  0  0  0  0  0  0  0  0  0  0
   57.6457   -7.1058   -2.7194 C   0  0  0  0  0  0  0  0  0  0  0  0
   56.6769   -7.2985   -1.6504 C   0  0  0  0  0  0  0  0  0  0  0  0
   56.5983   -8.4671   -1.1170 O   0  0  0  0  0  0  0  0  0  0  0  0
   55.8370   -6.2656   -1.1929 N   0  0  0  0  0  0  0  0  0  0  0  0
   55.9095   -5.3220   -1.6028 H   0  0  0  0  0  0  0  0  0  0  0  0
   54.8606   -6.4847   -0.1399 C   0  0  0  0  0  0  0  0  0  0  0  0
   53.5598   -6.9823   -0.6101 C   0  0  0  0  0  0  0  0  0  0  0  0
   53.0352   -6.3045   -1.5740 O   0  0  0  0  0  0  0  0  0  0  0  0
   52.8679   -8.0920   -0.1224 N   0  0  0  0  0  0  0  0  0  0  0  0
   53.2912   -8.6471    0.6518 H   0  0  0  0  0  0  0  0  0  0  0  0
   51.5971   -8.4761   -0.6592 C   0  0  0  0  0  0  0  0  0  0  0  0
   50.7590   -9.0101    0.4272 C   0  0  0  0  0  0  0  0  0  0  0  0
   51.2118   -9.1888    1.5728 O   0  0  0  0  0  0  0  0  0  0  0  0
   49.4031   -9.3295    0.1630 N   0  0  0  0  0  0  0  0  0  0  0  0
   49.0168   -9.1695   -0.7994 H   0  0  0  0  0  0  0  0  0  0  0  0
   48.5572   -9.8691    1.2082 C   0  0  0  0  0  0  0  0  0  0  0  0
   47.5229  -10.7890    0.7076 C   0  0  0  0  0  0  0  0  0  0  0  0
   46.9914  -10.6254   -0.5437 O   0  0  0  0  0  0  0  0  0  0  0  0
   47.1300  -11.7277    1.4399 O   0  0  0  0  0  0  0  0  0  0  0  0
   46.0410  -10.2998   -0.7091 H   0  0  0  0  0  0  0  0  0  0  0  0
   47.8836   -8.6536    1.8793 C   0  0  0  0  0  0  0  0  0  0  0  0
   46.5157   -8.9258    1.9068 O   0  0  0  0  0  0  0  0  0  0  0  0
   46.2114   -8.9743    2.8608 H   0  0  0  0  0  0  0  0  0  0  0  0
   51.7284   -9.5783   -1.7113 C   0  0  0  0  0  0  0  0  0  0  0  0
   51.9973  -10.7706   -1.0752 O   0  0  0  0  0  0  0  0  0  0  0  0
   52.3215  -11.4924   -1.6400 H   0  0  0  0  0  0  0  0  0  0  0  0
   54.5580   -5.1598    0.5727 C   0  0  0  0  0  0  0  0  0  0  0  0
   53.2614   -5.2771    1.0731 O   0  0  0  0  0  0  0  0  0  0  0  0
   53.2853   -6.1077    1.6462 H   0  0  0  0  0  0  0  0  0  0  0  0
   58.8957   -6.3652   -2.1880 C   0  0  0  0  0  0  0  0  0  0  0  0
   58.5884   -5.1308   -1.6635 O   0  0  0  0  0  0  0  0  0  0  0  0
   59.2715   -4.8400   -1.0004 H   0  0  0  0  0  0  0  0  0  0  0  0
 32 33  1  0  0  0
 33 34  1  0  0  0
 33 31  1  0  0  0
 31  5  1  0  0  0
  5  6  1  0  0  0
  6  7  1  0  0  0
  7  8  2  0  0  0
  7 10  1  0  0  0
 10 24  1  0  0  0
 24 25  1  0  0  0
 25 26  1  0  0  0
 26 27  1  0  0  0
 26 28  2  0  0  0
 10 11  1  0  0  0
 11 12  1  0  0  0
 12 13  2  0  0  0
 12 15  1  0  0  0
 15 16  1  0  0  0
 16 17  1  0  0  0
 17 18  1  0  0  0
 17 19  2  0  0  0
 15 21  1  0  0  0
 21 22  1  0  0  0
 21 23  1  0  0  0
  5  1  1  0  0  0
  1  2  2  0  0  0
  1  3  1  0  0  0
  3 35  1  0  0  0
 35 64  1  0  0  0
 64 65  1  0  0  0
 35 36  1  0  0  0
 36 37  2  0  0  0
 36 38  1  0  0  0
 38 40  1  0  0  0
 40 61  1  0  0  0
 61 62  1  0  0  0
 40 41  1  0  0  0
 41 42  2  0  0  0
 41 43  1  0  0  0
 43 45  1  0  0  0
 45 58  1  0  0  0
 58 59  1  0  0  0
 45 46  1  0  0  0
 46 47  2  0  0  0
 46 48  1  0  0  0
 48 50  1  0  0  0
 50 55  1  0  0  0
 55 56  1  0  0  0
 50 51  1  0  0  0
 51 52  1  0  0  0
 51 53  2  0  0  0
  6  9  1  0  0  0
 27 29  1  0  0  0
 27 30  1  0  0  0
 11 14  1  0  0  0
 16 20  1  0  0  0
  3  4  1  0  0  0
 65 66  1  0  0  0
 38 39  1  0  0  0
 62 63  1  0  0  0
 43 44  1  0  0  0
 59 60  1  0  0  0
 48 49  1  0  0  0
 56 57  1  0  0  0
 52 54  1  0  0  0
M  END
> <minimizedAffinity>
-7.93765

> <CNNscore>
0.2212320566

> <CNNaffinity>
5.9896798134

> <CNN_VS>
1.3251091242

> <CNNaffinity_variance>
0.5041329265

$$$$
[H]OC(=O)[C@@]([H])(N([H])C(=O)[C@@]([H])(N([H])C(=O)[C@@]([H])(N([H])C(=O)[C@@]([H])(N([H])C(=O)[C@@]([H])(N([H])C(=O)[C@@]([H])(N([H])C(=O)[C@@]([H])(N([H])C(=O)C([H])([H])[H])C([H])(C([H])([H])[H])C([H])([H])[H])C([H])([H])C([H])([H])C(=O)N([H])[H])C([H])([H])C([H])(C([H])([H])[H])C([H])([H])[H])C([H])([H])O[H])C([H])([H])O[H])C([H])([H])O[H])C([H])([H])O[H]


 66 65  0  0  0  0  0  0  0  0999 V2000
   55.7181   -4.4821   -5.7771 C   0  0  0  0  0  0  0  0  0  0  0  0
   56.4484   -3.5618   -5.3737 O   0  0  0  0  0  0  0  0  0  0  0  0
   55.3771   -5.6357   -5.0204 N   0  0  0  0  0  0  0  0  0  0  0  0
   54.7342   -6.3311   -5.5118 H   0  0  0  0  0  0  0  0  0  0  0  0
   55.1423   -4.3748   -7.1840 C   0  0  0  0  0  0  0  0  0  0  0  0
   56.2204   -4.3918   -8.1426 N   0  0  0  0  0  0  0  0  0  0  0  0
   57.3618   -5.1971   -7.9791 C   0  0  0  0  0  0  0  0  0  0  0  0
   57.4493   -5.9448   -6.9911 O   0  0  0  0  0  0  0  0  0  0  0  0
   56.1425   -3.7819   -8.9770 H   0  0  0  0  0  0  0  0  0  0  0  0
   58.5306   -5.2076   -8.9607 C   0  0  0  0  0  0  0  0  0  0  0  0
   59.4677   -6.1933   -8.4298 N   0  0  0  0  0  0  0  0  0  0  0  0
   60.5986   -6.6162   -9.1304 C   0  0  0  0  0  0  0  0  0  0  0  0
   60.7539   -6.0543  -10.2887 O   0  0  0  0  0  0  0  0  0  0  0  0
   59.3061   -6.5488   -7.4672 H   0  0  0  0  0  0  0  0  0  0  0  0
   61.6159   -7.5772   -8.7506 C   0  0  0  0  0  0  0  0  0  0  0  0
   61.9267   -8.5196   -9.8397 N   0  0  0  0  0  0  0  0  0  0  0  0
   61.9048   -9.9272   -9.7029 C   0  0  0  0  0  0  0  0  0  0  0  0
   62.2261  -10.8567  -10.7974 C   0  0  0  0  0  0  0  0  0  0  0  0
   61.5932  -10.4433   -8.5731 O   0  0  0  0  0  0  0  0  0  0  0  0
   62.1860   -8.1465  -10.7977 H   0  0  0  0  0  0  0  0  0  0  0  0
   62.8971   -7.1529   -8.1627 C   0  0  0  0  0  0  0  0  0  0  0  0
   63.1226   -5.6730   -8.0133 C   0  0  0  0  0  0  0  0  0  0  0  0
   64.0983   -7.7493   -8.8799 C   0  0  0  0  0  0  0  0  0  0  0  0
   57.9578   -5.4386  -10.2966 C   0  0  0  0  0  0  0  0  0  0  0  0
   57.5815   -4.3393  -11.1608 C   0  0  0  0  0  0  0  0  0  0  0  0
   58.3079   -4.0662  -12.3899 C   0  0  0  0  0  0  0  0  0  0  0  0
   57.4346   -3.4514  -13.4178 N   0  0  0  0  0  0  0  0  0  0  0  0
   59.4784   -4.2670  -12.6749 O   0  0  0  0  0  0  0  0  0  0  0  0
   56.8350   -4.1040  -13.9193 H   0  0  0  0  0  0  0  0  0  0  0  0
   57.4893   -2.4524  -13.5499 H   0  0  0  0  0  0  0  0  0  0  0  0
   54.2258   -5.5382   -7.3074 C   0  0  0  0  0  0  0  0  0  0  0  0
   51.8538   -6.4195   -7.4301 C   0  0  0  0  0  0  0  0  0  0  0  0
   52.7949   -5.3415   -7.0063 C   0  0  0  0  0  0  0  0  0  0  0  0
   52.2469   -4.0057   -7.5012 C   0  0  0  0  0  0  0  0  0  0  0  0
   55.8507   -5.9101   -3.6766 C   0  0  0  0  0  0  0  0  0  0  0  0
   54.7895   -5.8975   -2.6806 C   0  0  0  0  0  0  0  0  0  0  0  0
   55.1286   -5.7677   -1.4459 O   0  0  0  0  0  0  0  0  0  0  0  0
   53.4292   -6.0238   -3.0202 N   0  0  0  0  0  0  0  0  0  0  0  0
   53.1502   -6.1080   -4.0095 H   0  0  0  0  0  0  0  0  0  0  0  0
   52.3867   -6.0317   -2.0086 C   0  0  0  0  0  0  0  0  0  0  0  0
   52.2144   -7.3202   -1.3224 C   0  0  0  0  0  0  0  0  0  0  0  0
   52.3748   -8.3593   -2.0697 O   0  0  0  0  0  0  0  0  0  0  0  0
   51.9067   -7.5103    0.0256 N   0  0  0  0  0  0  0  0  0  0  0  0
   51.7832   -6.6737    0.6352 H   0  0  0  0  0  0  0  0  0  0  0  0
   51.7558   -8.8217    0.5805 C   0  0  0  0  0  0  0  0  0  0  0  0
   50.5904   -8.8308    1.4802 C   0  0  0  0  0  0  0  0  0  0  0  0
   50.5115   -8.0587    2.4533 O   0  0  0  0  0  0  0  0  0  0  0  0
   49.5317   -9.7411    1.2334 N   0  0  0  0  0  0  0  0  0  0  0  0
   49.5917  -10.3854    0.4073 H   0  0  0  0  0  0  0  0  0  0  0  0
   48.3780   -9.7828    2.1087 C   0  0  0  0  0  0  0  0  0  0  0  0
   48.0023  -11.1460    2.5176 C   0  0  0  0  0  0  0  0  0  0  0  0
   48.7623  -11.8359    3.4240 O   0  0  0  0  0  0  0  0  0  0  0  0
   46.9764  -11.6732    2.0265 O   0  0  0  0  0  0  0  0  0  0  0  0
   49.3438  -12.6334    3.1738 H   0  0  0  0  0  0  0  0  0  0  0  0
   47.2186   -9.1461    1.3138 C   0  0  0  0  0  0  0  0  0  0  0  0
   47.7018   -7.9383    0.8102 O   0  0  0  0  0  0  0  0  0  0  0  0
   47.6907   -7.9743   -0.1916 H   0  0  0  0  0  0  0  0  0  0  0  0
   52.9709   -9.2361    1.4118 C   0  0  0  0  0  0  0  0  0  0  0  0
   53.4783   -8.1218    2.0438 O   0  0  0  0  0  0  0  0  0  0  0  0
   54.3719   -8.2117    2.4159 H   0  0  0  0  0  0  0  0  0  0  0  0
   51.0296   -5.7298   -2.6580 C   0  0  0  0  0  0  0  0  0  0  0  0
   50.0621   -6.1592   -1.7498 O   0  0  0  0  0  0  0  0  0  0  0  0
   50.2789   -5.6655   -0.8965 H   0  0  0  0  0  0  0  0  0  0  0  0
   56.9447   -4.8785   -3.3127 C   0  0  0  0  0  0  0  0  0  0  0  0
   56.4282   -3.7680   -2.6855 O   0  0  0  0  0  0  0  0  0  0  0  0
   57.1163   -3.3174   -2.1246 H   0  0  0  0  0  0  0  0  0  0  0  0
 32 33  1  0  0  0
 33 34  1  0  0  0
 33 31  1  0  0  0
 31  5  1  0  0  0
  5  6  1  0  0  0
  6  7  1  0  0  0
  7  8  2  0  0  0
  7 10  1  0  0  0
 10 24  1  0  0  0
 24 25  1  0  0  0
 25 26  1  0  0  0
 26 27  1  0  0  0
 26 28  2  0  0  0
 10 11  1  0  0  0
 11 12  1  0  0  0
 12 13  2  0  0  0
 12 15  1  0  0  0
 15 16  1  0  0  0
 16 17  1  0  0  0
 17 18  1  0  0  0
 17 19  2  0  0  0
 15 21  1  0  0  0
 21 22  1  0  0  0
 21 23  1  0  0  0
  5  1  1  0  0  0
  1  2  2  0  0  0
  1  3  1  0  0  0
  3 35  1  0  0  0
 35 64  1  0  0  0
 64 65  1  0  0  0
 35 36  1  0  0  0
 36 37  2  0  0  0
 36 38  1  0  0  0
 38 40  1  0  0  0
 40 61  1  0  0  0
 61 62  1  0  0  0
 40 41  1  0  0  0
 41 42  2  0  0  0
 41 43  1  0  0  0
 43 45  1  0  0  0
 45 58  1  0  0  0
 58 59  1  0  0  0
 45 46  1  0  0  0
 46 47  2  0  0  0
 46 48  1  0  0  0
 48 50  1  0  0  0
 50 55  1  0  0  0
 55 56  1  0  0  0
 50 51  1  0  0  0
 51 52  1  0  0  0
 51 53  2  0  0  0
  6  9  1  0  0  0
 27 29  1  0  0  0
 27 30  1  0  0  0
 11 14  1  0  0  0
 16 20  1  0  0  0
  3  4  1  0  0  0
 65 66  1  0  0  0
 38 39  1  0  0  0
 62 63  1  0  0  0
 43 44  1  0  0  0
 59 60  1  0  0  0
 48 49  1  0  0  0
 56 57  1  0  0  0
 52 54  1  0  0  0
M  END
> <minimizedAffinity>
-7.53398

> <CNNscore>
0.2187590152

> <CNNaffinity>
6.1216440201

> <CNN_VS>
1.3391648531

> <CNNaffinity_variance>
0.1594115198

$$$$
[H]OC(=O)[C@@]([H])(N([H])C(=O)[C@@]([H])(N([H])C(=O)[C@@]([H])(N([H])C(=O)[C@@]([H])(N([H])C(=O)[C@@]([H])(N([H])C(=O)[C@@]([H])(N([H])C(=O)[C@@]([H])(N([H])C(=O)C([H])([H])[H])C([H])(C([H])([H])[H])C([H])([H])[H])C([H])([H])C([H])([H])C(=O)N([H])[H])C([H])([H])C([H])(C([H])([H])[H])C([H])([H])[H])C([H])([H])O[H])C([H])([H])O[H])C([H])([H])O[H])C([H])([H])O[H]


 66 65  0  0  0  0  0  0  0  0999 V2000
   56.7085   -4.9811   -2.1666 C   0  0  0  0  0  0  0  0  0  0  0  0
   57.1467   -3.8963   -2.5841 O   0  0  0  0  0  0  0  0  0  0  0  0
   56.9542   -5.5081   -0.8698 N   0  0  0  0  0  0  0  0  0  0  0  0
   56.4999   -6.4518   -0.6664 H   0  0  0  0  0  0  0  0  0  0  0  0
   55.8446   -5.8136   -3.1063 C   0  0  0  0  0  0  0  0  0  0  0  0
   54.4827   -5.8099   -2.6301 N   0  0  0  0  0  0  0  0  0  0  0  0
   53.8278   -6.9815   -2.2100 C   0  0  0  0  0  0  0  0  0  0  0  0
   54.4381   -8.0633   -2.2204 O   0  0  0  0  0  0  0  0  0  0  0  0
   53.9764   -4.9059   -2.6038 H   0  0  0  0  0  0  0  0  0  0  0  0
   52.3776   -7.0094   -1.7347 C   0  0  0  0  0  0  0  0  0  0  0  0
   51.5759   -7.0584   -2.9539 N   0  0  0  0  0  0  0  0  0  0  0  0
   51.3396   -5.9362   -3.7497 C   0  0  0  0  0  0  0  0  0  0  0  0
   51.8990   -4.8473   -3.3219 O   0  0  0  0  0  0  0  0  0  0  0  0
   51.2154   -7.9827   -3.2620 H   0  0  0  0  0  0  0  0  0  0  0  0
   50.5733   -5.8161   -4.9748 C   0  0  0  0  0  0  0  0  0  0  0  0
   50.0354   -4.4576   -5.1649 N   0  0  0  0  0  0  0  0  0  0  0  0
   48.9685   -3.9131   -4.4128 C   0  0  0  0  0  0  0  0  0  0  0  0
   48.4356   -2.5571   -4.6195 C   0  0  0  0  0  0  0  0  0  0  0  0
   48.4195   -4.6215   -3.4981 O   0  0  0  0  0  0  0  0  0  0  0  0
   50.4563   -3.8261   -5.9052 H   0  0  0  0  0  0  0  0  0  0  0  0
   51.1162   -6.2550   -6.2709 C   0  0  0  0  0  0  0  0  0  0  0  0
   52.0863   -5.3293   -6.9531 C   0  0  0  0  0  0  0  0  0  0  0  0
   50.0291   -6.6267   -7.2673 C   0  0  0  0  0  0  0  0  0  0  0  0
   52.2673   -8.1258   -0.7820 C   0  0  0  0  0  0  0  0  0  0  0  0
   51.2885   -8.1181    0.2852 C   0  0  0  0  0  0  0  0  0  0  0  0
   51.6935   -8.2146    1.6779 C   0  0  0  0  0  0  0  0  0  0  0  0
   52.2593   -6.9374    2.1740 N   0  0  0  0  0  0  0  0  0  0  0  0
   51.6357   -9.1573    2.4521 O   0  0  0  0  0  0  0  0  0  0  0  0
   53.2262   -6.7624    1.9068 H   0  0  0  0  0  0  0  0  0  0  0  0
   51.6648   -6.3400    2.7292 H   0  0  0  0  0  0  0  0  0  0  0  0
   56.0053   -5.1710   -4.4367 C   0  0  0  0  0  0  0  0  0  0  0  0
   56.3005   -5.3669   -6.9452 C   0  0  0  0  0  0  0  0  0  0  0  0
   56.2309   -6.0340   -5.6120 C   0  0  0  0  0  0  0  0  0  0  0  0
   55.2487   -7.1981   -5.7098 C   0  0  0  0  0  0  0  0  0  0  0  0
   57.7685   -4.8616    0.1423 C   0  0  0  0  0  0  0  0  0  0  0  0
   59.0936   -5.4492    0.2737 C   0  0  0  0  0  0  0  0  0  0  0  0
   60.1088   -4.6633    0.1827 O   0  0  0  0  0  0  0  0  0  0  0  0
   59.2949   -6.8255    0.4901 N   0  0  0  0  0  0  0  0  0  0  0  0
   58.4848   -7.4568    0.5838 H   0  0  0  0  0  0  0  0  0  0  0  0
   60.6269   -7.3955    0.5958 C   0  0  0  0  0  0  0  0  0  0  0  0
   61.0833   -8.1030   -0.6092 C   0  0  0  0  0  0  0  0  0  0  0  0
   61.6256   -7.3523   -1.5071 O   0  0  0  0  0  0  0  0  0  0  0  0
   60.9880   -9.4734   -0.8556 N   0  0  0  0  0  0  0  0  0  0  0  0
   60.5570  -10.0852   -0.1299 H   0  0  0  0  0  0  0  0  0  0  0  0
   61.4641  -10.0484   -2.0776 C   0  0  0  0  0  0  0  0  0  0  0  0
   60.6292  -11.2126   -2.4173 C   0  0  0  0  0  0  0  0  0  0  0  0
   59.3976  -11.2070   -2.2371 O   0  0  0  0  0  0  0  0  0  0  0  0
   61.2421  -12.3692   -2.9623 N   0  0  0  0  0  0  0  0  0  0  0  0
   62.2788  -12.3719   -3.1247 H   0  0  0  0  0  0  0  0  0  0  0  0
   60.4488  -13.5353   -3.2940 C   0  0  0  0  0  0  0  0  0  0  0  0
   60.6870  -14.6793   -2.3991 C   0  0  0  0  0  0  0  0  0  0  0  0
   60.0626  -14.7542   -1.1826 O   0  0  0  0  0  0  0  0  0  0  0  0
   61.4704  -15.5888   -2.7608 O   0  0  0  0  0  0  0  0  0  0  0  0
   60.5484  -14.6297   -0.2965 H   0  0  0  0  0  0  0  0  0  0  0  0
   60.8413  -13.9197   -4.7362 C   0  0  0  0  0  0  0  0  0  0  0  0
   62.2214  -13.7396   -4.8308 O   0  0  0  0  0  0  0  0  0  0  0  0
   62.6538  -14.6236   -5.0228 H   0  0  0  0  0  0  0  0  0  0  0  0
   62.9048  -10.5469   -1.9538 C   0  0  0  0  0  0  0  0  0  0  0  0
   63.0208  -11.2893   -0.7989 O   0  0  0  0  0  0  0  0  0  0  0  0
   63.9269  -11.4690   -0.4960 H   0  0  0  0  0  0  0  0  0  0  0  0
   60.6579   -8.4402    1.7193 C   0  0  0  0  0  0  0  0  0  0  0  0
   62.0042   -8.6423    2.0224 O   0  0  0  0  0  0  0  0  0  0  0  0
   62.3544   -7.7224    2.2457 H   0  0  0  0  0  0  0  0  0  0  0  0
   57.0186   -4.9136    1.4944 C   0  0  0  0  0  0  0  0  0  0  0  0
   56.5561   -6.1760    1.7876 O   0  0  0  0  0  0  0  0  0  0  0  0
   56.4373   -6.2983    2.7683 H   0  0  0  0  0  0  0  0  0  0  0  0
 32 33  1  0  0  0
 33 34  1  0  0  0
 33 31  1  0  0  0
 31  5  1  0  0  0
  5  6  1  0  0  0
  6  7  1  0  0  0
  7  8  2  0  0  0
  7 10  1  0  0  0
 10 24  1  0  0  0
 24 25  1  0  0  0
 25 26  1  0  0  0
 26 27  1  0  0  0
 26 28  2  0  0  0
 10 11  1  0  0  0
 11 12  1  0  0  0
 12 13  2  0  0  0
 12 15  1  0  0  0
 15 16  1  0  0  0
 16 17  1  0  0  0
 17 18  1  0  0  0
 17 19  2  0  0  0
 15 21  1  0  0  0
 21 22  1  0  0  0
 21 23  1  0  0  0
  5  1  1  0  0  0
  1  2  2  0  0  0
  1  3  1  0  0  0
  3 35  1  0  0  0
 35 64  1  0  0  0
 64 65  1  0  0  0
 35 36  1  0  0  0
 36 37  2  0  0  0
 36 38  1  0  0  0
 38 40  1  0  0  0
 40 61  1  0  0  0
 61 62  1  0  0  0
 40 41  1  0  0  0
 41 42  2  0  0  0
 41 43  1  0  0  0
 43 45  1  0  0  0
 45 58  1  0  0  0
 58 59  1  0  0  0
 45 46  1  0  0  0
 46 47  2  0  0  0
 46 48  1  0  0  0
 48 50  1  0  0  0
 50 55  1  0  0  0
 55 56  1  0  0  0
 50 51  1  0  0  0
 51 52  1  0  0  0
 51 53  2  0  0  0
  6  9  1  0  0  0
 27 29  1  0  0  0
 27 30  1  0  0  0
 11 14  1  0  0  0
 16 20  1  0  0  0
  3  4  1  0  0  0
 65 66  1  0  0  0
 38 39  1  0  0  0
 62 63  1  0  0  0
 43 44  1  0  0  0
 59 60  1  0  0  0
 48 49  1  0  0  0
 56 57  1  0  0  0
 52 54  1  0  0  0
M  END
> <minimizedAffinity>
-5.90174

> <CNNscore>
0.1796527058

> <CNNaffinity>
6.1063041687

> <CNN_VS>
1.0970140696

> <CNNaffinity_variance>
0.2822167277

$$$$
[H]OC(=O)[C@@]([H])(N([H])C(=O)[C@@]([H])(N([H])C(=O)[C@@]([H])(N([H])C(=O)[C@@]([H])(N([H])C(=O)[C@@]([H])(N([H])C(=O)[C@@]([H])(N([H])C(=O)[C@@]([H])(N([H])C(=O)C([H])([H])[H])C([H])(C([H])([H])[H])C([H])([H])[H])C([H])([H])C([H])([H])C(=O)N([H])[H])C([H])([H])C([H])(C([H])([H])[H])C([H])([H])[H])C([H])([H])O[H])C([H])([H])O[H])C([H])([H])O[H])C([H])([H])O[H]


 66 65  0  0  0  0  0  0  0  0999 V2000
   55.9883   -7.0385   -5.0772 C   0  0  0  0  0  0  0  0  0  0  0  0
   55.2181   -7.9940   -4.8849 O   0  0  0  0  0  0  0  0  0  0  0  0
   57.2211   -6.8430   -4.3977 N   0  0  0  0  0  0  0  0  0  0  0  0
   57.7676   -5.9725   -4.6836 H   0  0  0  0  0  0  0  0  0  0  0  0
   55.5900   -5.9955   -6.1146 C   0  0  0  0  0  0  0  0  0  0  0  0
   56.5431   -6.0126   -7.1975 N   0  0  0  0  0  0  0  0  0  0  0  0
   57.0294   -4.8346   -7.7924 C   0  0  0  0  0  0  0  0  0  0  0  0
   56.6528   -3.7306   -7.3655 O   0  0  0  0  0  0  0  0  0  0  0  0
   56.8725   -6.9321   -7.5445 H   0  0  0  0  0  0  0  0  0  0  0  0
   58.0111   -4.8266   -8.9611 C   0  0  0  0  0  0  0  0  0  0  0  0
   59.1362   -5.6469   -8.5218 N   0  0  0  0  0  0  0  0  0  0  0  0
   60.1583   -6.0523   -9.3817 C   0  0  0  0  0  0  0  0  0  0  0  0
   60.0315   -5.6322  -10.6019 O   0  0  0  0  0  0  0  0  0  0  0  0
   59.1971   -5.8889   -7.5134 H   0  0  0  0  0  0  0  0  0  0  0  0
   61.3309   -6.8603   -9.1082 C   0  0  0  0  0  0  0  0  0  0  0  0
   61.0005   -8.2881   -8.9553 N   0  0  0  0  0  0  0  0  0  0  0  0
   61.3703   -9.0740   -7.8391 C   0  0  0  0  0  0  0  0  0  0  0  0
   61.0409  -10.5018   -7.7036 C   0  0  0  0  0  0  0  0  0  0  0  0
   62.0301   -8.5353   -6.8829 O   0  0  0  0  0  0  0  0  0  0  0  0
   60.4510   -8.7832   -9.7149 H   0  0  0  0  0  0  0  0  0  0  0  0
   62.5369   -6.7797   -9.9486 C   0  0  0  0  0  0  0  0  0  0  0  0
   62.7870   -7.9224  -10.8947 C   0  0  0  0  0  0  0  0  0  0  0  0
   63.8023   -6.5444   -9.1385 C   0  0  0  0  0  0  0  0  0  0  0  0
   57.2564   -5.2566  -10.1492 C   0  0  0  0  0  0  0  0  0  0  0  0
   56.8068   -4.3077  -11.1464 C   0  0  0  0  0  0  0  0  0  0  0  0
   57.3488   -4.3205  -12.4951 C   0  0  0  0  0  0  0  0  0  0  0  0
   58.6178   -3.5596  -12.5832 N   0  0  0  0  0  0  0  0  0  0  0  0
   56.9203   -4.8441  -13.5118 O   0  0  0  0  0  0  0  0  0  0  0  0
   58.5104   -2.5485  -12.6378 H   0  0  0  0  0  0  0  0  0  0  0  0
   59.4829   -4.0794  -12.5827 H   0  0  0  0  0  0  0  0  0  0  0  0
   54.2170   -6.3822   -6.5319 C   0  0  0  0  0  0  0  0  0  0  0  0
   51.7802   -5.7058   -6.3822 C   0  0  0  0  0  0  0  0  0  0  0  0
   53.1963   -5.3244   -6.6588 C   0  0  0  0  0  0  0  0  0  0  0  0
   53.2422   -4.5919   -7.9971 C   0  0  0  0  0  0  0  0  0  0  0  0
   57.7440   -7.7225   -3.3688 C   0  0  0  0  0  0  0  0  0  0  0  0
   57.3385   -7.3379   -2.0250 C   0  0  0  0  0  0  0  0  0  0  0  0
   56.1056   -7.0181   -1.8400 O   0  0  0  0  0  0  0  0  0  0  0  0
   58.2376   -7.3026   -0.9424 N   0  0  0  0  0  0  0  0  0  0  0  0
   59.2221   -7.5770   -1.0804 H   0  0  0  0  0  0  0  0  0  0  0  0
   57.8175   -6.8938    0.3867 C   0  0  0  0  0  0  0  0  0  0  0  0
   56.5383   -7.4705    0.8248 C   0  0  0  0  0  0  0  0  0  0  0  0
   56.5734   -8.7327    1.0882 O   0  0  0  0  0  0  0  0  0  0  0  0
   55.3291   -6.7909    0.9800 N   0  0  0  0  0  0  0  0  0  0  0  0
   55.2974   -5.7693    0.7752 H   0  0  0  0  0  0  0  0  0  0  0  0
   54.1413   -7.4664    1.4082 C   0  0  0  0  0  0  0  0  0  0  0  0
   53.1552   -7.4426    0.3151 C   0  0  0  0  0  0  0  0  0  0  0  0
   52.8473   -6.3840   -0.2627 O   0  0  0  0  0  0  0  0  0  0  0  0
   52.5403   -8.6544   -0.0898 N   0  0  0  0  0  0  0  0  0  0  0  0
   52.8065   -9.5494    0.3891 H   0  0  0  0  0  0  0  0  0  0  0  0
   51.5565   -8.6607   -1.1533 C   0  0  0  0  0  0  0  0  0  0  0  0
   50.1707   -8.5506   -0.6695 C   0  0  0  0  0  0  0  0  0  0  0  0
   49.7119   -7.3784   -0.1305 O   0  0  0  0  0  0  0  0  0  0  0  0
   49.4102   -9.5436   -0.7546 O   0  0  0  0  0  0  0  0  0  0  0  0
   49.5147   -7.2587    0.8611 H   0  0  0  0  0  0  0  0  0  0  0  0
   51.7384  -10.0034   -1.8920 C   0  0  0  0  0  0  0  0  0  0  0  0
   51.9623  -10.9675   -0.9090 O   0  0  0  0  0  0  0  0  0  0  0  0
   51.2188  -11.6395   -0.9352 H   0  0  0  0  0  0  0  0  0  0  0  0
   53.4952   -6.7820    2.6138 C   0  0  0  0  0  0  0  0  0  0  0  0
   52.1301   -6.9554    2.5448 O   0  0  0  0  0  0  0  0  0  0  0  0
   51.5972   -6.3833    3.1227 H   0  0  0  0  0  0  0  0  0  0  0  0
   57.6140   -5.3733    0.4231 C   0  0  0  0  0  0  0  0  0  0  0  0
   57.4536   -5.0366    1.7671 O   0  0  0  0  0  0  0  0  0  0  0  0
   58.2813   -5.3966    2.2189 H   0  0  0  0  0  0  0  0  0  0  0  0
   59.2868   -7.7565   -3.4781 C   0  0  0  0  0  0  0  0  0  0  0  0
   59.7165   -7.8601   -4.7812 O   0  0  0  0  0  0  0  0  0  0  0  0
   60.6383   -7.4997   -4.8872 H   0  0  0  0  0  0  0  0  0  0  0  0
 32 33  1  0  0  0
 33 34  1  0  0  0
 33 31  1  0  0  0
 31  5  1  0  0  0
  5  6  1  0  0  0
  6  7  1  0  0  0
  7  8  2  0  0  0
  7 10  1  0  0  0
 10 24  1  0  0  0
 24 25  1  0  0  0
 25 26  1  0  0  0
 26 27  1  0  0  0
 26 28  2  0  0  0
 10 11  1  0  0  0
 11 12  1  0  0  0
 12 13  2  0  0  0
 12 15  1  0  0  0
 15 16  1  0  0  0
 16 17  1  0  0  0
 17 18  1  0  0  0
 17 19  2  0  0  0
 15 21  1  0  0  0
 21 22  1  0  0  0
 21 23  1  0  0  0
  5  1  1  0  0  0
  1  2  2  0  0  0
  1  3  1  0  0  0
  3 35  1  0  0  0
 35 64  1  0  0  0
 64 65  1  0  0  0
 35 36  1  0  0  0
 36 37  2  0  0  0
 36 38  1  0  0  0
 38 40  1  0  0  0
 40 61  1  0  0  0
 61 62  1  0  0  0
 40 41  1  0  0  0
 41 42  2  0  0  0
 41 43  1  0  0  0
 43 45  1  0  0  0
 45 58  1  0  0  0
 58 59  1  0  0  0
 45 46  1  0  0  0
 46 47  2  0  0  0
 46 48  1  0  0  0
 48 50  1  0  0  0
 50 55  1  0  0  0
 55 56  1  0  0  0
 50 51  1  0  0  0
 51 52  1  0  0  0
 51 53  2  0  0  0
  6  9  1  0  0  0
 27 29  1  0  0  0
 27 30  1  0  0  0
 11 14  1  0  0  0
 16 20  1  0  0  0
  3  4  1  0  0  0
 65 66  1  0  0  0
 38 39  1  0  0  0
 62 63  1  0  0  0
 43 44  1  0  0  0
 59 60  1  0  0  0
 48 49  1  0  0  0
 56 57  1  0  0  0
 52 54  1  0  0  0
M  END
> <minimizedAffinity>
-7.46230

> <CNNscore>
0.1749408245

> <CNNaffinity>
5.8299570084

> <CNN_VS>
1.0198974609

> <CNNaffinity_variance>
0.8196897507

$$$$
[H]OC(=O)[C@@]([H])(N([H])C(=O)[C@@]([H])(N([H])C(=O)[C@@]([H])(N([H])C(=O)[C@@]([H])(N([H])C(=O)[C@@]([H])(N([H])C(=O)[C@@]([H])(N([H])C(=O)[C@@]([H])(N([H])C(=O)C([H])([H])[H])C([H])(C([H])([H])[H])C([H])([H])[H])C([H])([H])C([H])([H])C(=O)N([H])[H])C([H])([H])C([H])(C([H])([H])[H])C([H])([H])[H])C([H])([H])O[H])C([H])([H])O[H])C([H])([H])O[H])C([H])([H])O[H]


 66 65  0  0  0  0  0  0  0  0999 V2000
   55.3087   -5.0532   -5.7527 C   0  0  0  0  0  0  0  0  0  0  0  0
   56.0083   -4.2764   -5.0817 O   0  0  0  0  0  0  0  0  0  0  0  0
   55.0202   -6.3977   -5.3941 N   0  0  0  0  0  0  0  0  0  0  0  0
   54.3984   -6.9299   -6.0785 H   0  0  0  0  0  0  0  0  0  0  0  0
   54.7131   -4.5353   -7.0565 C   0  0  0  0  0  0  0  0  0  0  0  0
   55.7753   -4.2915   -8.0018 N   0  0  0  0  0  0  0  0  0  0  0  0
   56.8794   -5.1527   -8.1338 C   0  0  0  0  0  0  0  0  0  0  0  0
   56.9454   -6.1777   -7.4353 O   0  0  0  0  0  0  0  0  0  0  0  0
   55.7145   -3.4460   -8.5983 H   0  0  0  0  0  0  0  0  0  0  0  0
   58.0322   -4.8991   -9.1014 C   0  0  0  0  0  0  0  0  0  0  0  0
   59.0957   -5.8041   -8.6756 N   0  0  0  0  0  0  0  0  0  0  0  0
   60.1628   -6.1597   -9.5023 C   0  0  0  0  0  0  0  0  0  0  0  0
   60.1371   -5.6122  -10.6775 O   0  0  0  0  0  0  0  0  0  0  0  0
   59.0767   -6.1503   -7.6963 H   0  0  0  0  0  0  0  0  0  0  0  0
   61.2860   -7.0375   -9.2365 C   0  0  0  0  0  0  0  0  0  0  0  0
   62.1002   -6.5722   -8.1000 N   0  0  0  0  0  0  0  0  0  0  0  0
   63.3894   -6.0043   -8.2260 C   0  0  0  0  0  0  0  0  0  0  0  0
   64.1952   -5.5517   -7.0809 C   0  0  0  0  0  0  0  0  0  0  0  0
   63.9045   -5.8687   -9.3905 O   0  0  0  0  0  0  0  0  0  0  0  0
   61.7200   -6.6558   -7.1138 H   0  0  0  0  0  0  0  0  0  0  0  0
   61.1096   -8.4906   -9.0800 C   0  0  0  0  0  0  0  0  0  0  0  0
   61.6603   -9.1138   -7.8264 C   0  0  0  0  0  0  0  0  0  0  0  0
   61.6303   -9.2770  -10.2730 C   0  0  0  0  0  0  0  0  0  0  0  0
   57.4856   -5.0549  -10.4590 C   0  0  0  0  0  0  0  0  0  0  0  0
   57.2848   -3.9164  -11.3310 C   0  0  0  0  0  0  0  0  0  0  0  0
   57.7451   -3.9345  -12.7097 C   0  0  0  0  0  0  0  0  0  0  0  0
   59.1629   -3.5164  -12.8199 N   0  0  0  0  0  0  0  0  0  0  0  0
   57.1511   -4.2299  -13.7351 O   0  0  0  0  0  0  0  0  0  0  0  0
   59.3192   -2.5109  -12.7829 H   0  0  0  0  0  0  0  0  0  0  0  0
   59.8626   -4.2366  -12.9213 H   0  0  0  0  0  0  0  0  0  0  0  0
   53.7706   -5.5992   -7.4907 C   0  0  0  0  0  0  0  0  0  0  0  0
   51.9330   -3.8695   -7.2692 C   0  0  0  0  0  0  0  0  0  0  0  0
   52.3355   -5.2710   -7.5873 C   0  0  0  0  0  0  0  0  0  0  0  0
   51.4397   -6.2182   -6.7935 C   0  0  0  0  0  0  0  0  0  0  0  0
   55.5193   -7.0585   -4.2026 C   0  0  0  0  0  0  0  0  0  0  0  0
   54.6967   -6.8180   -3.0262 C   0  0  0  0  0  0  0  0  0  0  0  0
   55.2781   -6.8223   -1.8780 O   0  0  0  0  0  0  0  0  0  0  0  0
   53.3101   -6.5883   -3.1044 N   0  0  0  0  0  0  0  0  0  0  0  0
   52.8423   -6.5639   -4.0233 H   0  0  0  0  0  0  0  0  0  0  0  0
   52.5031   -6.3729   -1.9160 C   0  0  0  0  0  0  0  0  0  0  0  0
   52.3281   -7.5657   -1.0748 C   0  0  0  0  0  0  0  0  0  0  0  0
   51.7276   -8.5522   -1.6493 O   0  0  0  0  0  0  0  0  0  0  0  0
   52.7465   -7.7196    0.2478 N   0  0  0  0  0  0  0  0  0  0  0  0
   53.2386   -6.9277    0.7141 H   0  0  0  0  0  0  0  0  0  0  0  0
   52.5111   -8.9334    0.9702 C   0  0  0  0  0  0  0  0  0  0  0  0
   51.2629   -8.7995    1.7394 C   0  0  0  0  0  0  0  0  0  0  0  0
   51.1389   -7.9477    2.6385 O   0  0  0  0  0  0  0  0  0  0  0  0
   50.1751   -9.6617    1.4503 N   0  0  0  0  0  0  0  0  0  0  0  0
   50.2741  -10.3733    0.6855 H   0  0  0  0  0  0  0  0  0  0  0  0
   48.9387   -9.5629    2.1991 C   0  0  0  0  0  0  0  0  0  0  0  0
   48.2318  -10.8469    2.3341 C   0  0  0  0  0  0  0  0  0  0  0  0
   48.6025  -11.9289    1.5811 O   0  0  0  0  0  0  0  0  0  0  0  0
   47.2826  -10.9423    3.1474 O   0  0  0  0  0  0  0  0  0  0  0  0
   48.0401  -12.2965    0.8161 H   0  0  0  0  0  0  0  0  0  0  0  0
   48.0514   -8.5660    1.4243 C   0  0  0  0  0  0  0  0  0  0  0  0
   47.2290   -9.3305    0.5965 O   0  0  0  0  0  0  0  0  0  0  0  0
   46.2732   -9.1860    0.8622 H   0  0  0  0  0  0  0  0  0  0  0  0
   53.6285   -9.2310    1.9713 C   0  0  0  0  0  0  0  0  0  0  0  0
   53.1103   -9.9771    3.0072 O   0  0  0  0  0  0  0  0  0  0  0  0
   53.6598  -10.0370    3.8070 H   0  0  0  0  0  0  0  0  0  0  0  0
   51.0855   -5.9465   -2.3201 C   0  0  0  0  0  0  0  0  0  0  0  0
   51.2254   -5.1961   -3.4875 O   0  0  0  0  0  0  0  0  0  0  0  0
   51.7164   -5.8067   -4.1238 H   0  0  0  0  0  0  0  0  0  0  0  0
   56.9736   -6.5966   -3.9479 C   0  0  0  0  0  0  0  0  0  0  0  0
   57.8265   -6.9725   -4.9601 O   0  0  0  0  0  0  0  0  0  0  0  0
   58.6217   -6.3753   -5.0027 H   0  0  0  0  0  0  0  0  0  0  0  0
 32 33  1  0  0  0
 33 34  1  0  0  0
 33 31  1  0  0  0
 31  5  1  0  0  0
  5  6  1  0  0  0
  6  7  1  0  0  0
  7  8  2  0  0  0
  7 10  1  0  0  0
 10 24  1  0  0  0
 24 25  1  0  0  0
 25 26  1  0  0  0
 26 27  1  0  0  0
 26 28  2  0  0  0
 10 11  1  0  0  0
 11 12  1  0  0  0
 12 13  2  0  0  0
 12 15  1  0  0  0
 15 16  1  0  0  0
 16 17  1  0  0  0
 17 18  1  0  0  0
 17 19  2  0  0  0
 15 21  1  0  0  0
 21 22  1  0  0  0
 21 23  1  0  0  0
  5  1  1  0  0  0
  1  2  2  0  0  0
  1  3  1  0  0  0
  3 35  1  0  0  0
 35 64  1  0  0  0
 64 65  1  0  0  0
 35 36  1  0  0  0
 36 37  2  0  0  0
 36 38  1  0  0  0
 38 40  1  0  0  0
 40 61  1  0  0  0
 61 62  1  0  0  0
 40 41  1  0  0  0
 41 42  2  0  0  0
 41 43  1  0  0  0
 43 45  1  0  0  0
 45 58  1  0  0  0
 58 59  1  0  0  0
 45 46  1  0  0  0
 46 47  2  0  0  0
 46 48  1  0  0  0
 48 50  1  0  0  0
 50 55  1  0  0  0
 55 56  1  0  0  0
 50 51  1  0  0  0
 51 52  1  0  0  0
 51 53  2  0  0  0
  6  9  1  0  0  0
 27 29  1  0  0  0
 27 30  1  0  0  0
 11 14  1  0  0  0
 16 20  1  0  0  0
  3  4  1  0  0  0
 65 66  1  0  0  0
 38 39  1  0  0  0
 62 63  1  0  0  0
 43 44  1  0  0  0
 59 60  1  0  0  0
 48 49  1  0  0  0
 56 57  1  0  0  0
 52 54  1  0  0  0
M  END
> <minimizedAffinity>
-7.65392

> <CNNscore>
0.1572798342

> <CNNaffinity>
6.0139513016

> <CNN_VS>
0.9458732605

> <CNNaffinity_variance>
0.3223609030

$$$$
[H]OC(=O)[C@@]([H])(N([H])C(=O)[C@@]([H])(N([H])C(=O)[C@@]([H])(N([H])C(=O)[C@@]([H])(N([H])C(=O)[C@@]([H])(N([H])C(=O)[C@@]([H])(N([H])C(=O)[C@@]([H])(N([H])C(=O)C([H])([H])[H])C([H])(C([H])([H])[H])C([H])([H])[H])C([H])([H])C([H])([H])C(=O)N([H])[H])C([H])([H])C([H])(C([H])([H])[H])C([H])([H])[H])C([H])([H])O[H])C([H])([H])O[H])C([H])([H])O[H])C([H])([H])O[H]


 66 65  0  0  0  0  0  0  0  0999 V2000
   55.5078   -5.3599   -3.5927 C   0  0  0  0  0  0  0  0  0  0  0  0
   56.0034   -4.3798   -4.1732 O   0  0  0  0  0  0  0  0  0  0  0  0
   55.7771   -5.7244   -2.2458 N   0  0  0  0  0  0  0  0  0  0  0  0
   55.2653   -6.5928   -1.8962 H   0  0  0  0  0  0  0  0  0  0  0  0
   54.5402   -6.2406   -4.3741 C   0  0  0  0  0  0  0  0  0  0  0  0
   53.1913   -5.9663   -3.9422 N   0  0  0  0  0  0  0  0  0  0  0  0
   52.5433   -6.7357   -2.9593 C   0  0  0  0  0  0  0  0  0  0  0  0
   53.1490   -7.6744   -2.4163 O   0  0  0  0  0  0  0  0  0  0  0  0
   52.6891   -5.1729   -4.3811 H   0  0  0  0  0  0  0  0  0  0  0  0
   51.1059   -6.4874   -2.5098 C   0  0  0  0  0  0  0  0  0  0  0  0
   51.0909   -6.8012   -1.0840 N   0  0  0  0  0  0  0  0  0  0  0  0
   50.5432   -7.9797   -0.5745 C   0  0  0  0  0  0  0  0  0  0  0  0
   50.0567   -8.7781   -1.4730 O   0  0  0  0  0  0  0  0  0  0  0  0
   51.5578   -6.1378   -0.4351 H   0  0  0  0  0  0  0  0  0  0  0  0
   50.4473   -8.4368    0.7983 C   0  0  0  0  0  0  0  0  0  0  0  0
   49.8986   -9.8008    0.8945 N   0  0  0  0  0  0  0  0  0  0  0  0
   48.5167  -10.1018    0.9136 C   0  0  0  0  0  0  0  0  0  0  0  0
   47.9826  -11.4689    1.0188 C   0  0  0  0  0  0  0  0  0  0  0  0
   47.6654   -9.1482    0.8384 O   0  0  0  0  0  0  0  0  0  0  0  0
   50.5586  -10.6284    0.9541 H   0  0  0  0  0  0  0  0  0  0  0  0
   51.5942   -8.3627    1.7183 C   0  0  0  0  0  0  0  0  0  0  0  0
   52.8220   -9.1470    1.3428 C   0  0  0  0  0  0  0  0  0  0  0  0
   51.2220   -8.7144    3.1502 C   0  0  0  0  0  0  0  0  0  0  0  0
   50.7643   -5.1176   -2.9261 C   0  0  0  0  0  0  0  0  0  0  0  0
   49.4667   -4.7955   -3.4824 C   0  0  0  0  0  0  0  0  0  0  0  0
   49.3066   -3.7141   -4.4405 C   0  0  0  0  0  0  0  0  0  0  0  0
   50.1619   -3.9092   -5.6353 N   0  0  0  0  0  0  0  0  0  0  0  0
   48.6014   -2.7181   -4.3943 O   0  0  0  0  0  0  0  0  0  0  0  0
   51.1394   -3.6523   -5.5115 H   0  0  0  0  0  0  0  0  0  0  0  0
   49.7312   -4.2748   -6.4716 H   0  0  0  0  0  0  0  0  0  0  0  0
   54.7836   -5.8978   -5.7997 C   0  0  0  0  0  0  0  0  0  0  0  0
   52.7591   -6.2818   -7.2735 C   0  0  0  0  0  0  0  0  0  0  0  0
   53.6737   -5.3245   -6.5846 C   0  0  0  0  0  0  0  0  0  0  0  0
   54.1236   -4.2773   -7.5999 C   0  0  0  0  0  0  0  0  0  0  0  0
   56.6852   -5.0136   -1.3650 C   0  0  0  0  0  0  0  0  0  0  0  0
   58.0867   -5.2980   -1.6356 C   0  0  0  0  0  0  0  0  0  0  0  0
   58.9220   -4.3222   -1.5553 O   0  0  0  0  0  0  0  0  0  0  0  0
   58.5472   -6.5831   -1.9790 N   0  0  0  0  0  0  0  0  0  0  0  0
   57.8855   -7.3729   -2.0253 H   0  0  0  0  0  0  0  0  0  0  0  0
   59.9473   -6.8413   -2.2675 C   0  0  0  0  0  0  0  0  0  0  0  0
   60.1947   -7.4586   -3.5784 C   0  0  0  0  0  0  0  0  0  0  0  0
   59.2028   -7.4026   -4.4011 O   0  0  0  0  0  0  0  0  0  0  0  0
   61.3740   -8.0761   -3.9979 N   0  0  0  0  0  0  0  0  0  0  0  0
   62.1809   -8.1175   -3.3391 H   0  0  0  0  0  0  0  0  0  0  0  0
   61.4933   -8.6514   -5.3038 C   0  0  0  0  0  0  0  0  0  0  0  0
   61.1693  -10.0856   -5.2276 C   0  0  0  0  0  0  0  0  0  0  0  0
   60.8087  -10.7272   -6.2314 O   0  0  0  0  0  0  0  0  0  0  0  0
   61.2695  -10.7531   -3.9807 N   0  0  0  0  0  0  0  0  0  0  0  0
   61.5834  -10.2163   -3.1355 H   0  0  0  0  0  0  0  0  0  0  0  0
   60.9444  -12.1608   -3.8716 C   0  0  0  0  0  0  0  0  0  0  0  0
   60.2039  -12.4972   -2.6448 C   0  0  0  0  0  0  0  0  0  0  0  0
   60.4425  -13.6746   -1.9875 O   0  0  0  0  0  0  0  0  0  0  0  0
   59.3481  -11.6937   -2.2047 O   0  0  0  0  0  0  0  0  0  0  0  0
   59.7834  -14.4504   -1.9735 H   0  0  0  0  0  0  0  0  0  0  0  0
   62.2936  -12.9101   -3.8799 C   0  0  0  0  0  0  0  0  0  0  0  0
   63.0453  -12.3810   -2.8307 O   0  0  0  0  0  0  0  0  0  0  0  0
   63.2298  -13.1058   -2.1630 H   0  0  0  0  0  0  0  0  0  0  0  0
   62.9165   -8.5387   -5.8524 C   0  0  0  0  0  0  0  0  0  0  0  0
   63.1573   -7.2269   -6.1982 O   0  0  0  0  0  0  0  0  0  0  0  0
   63.9346   -7.0692   -6.7604 H   0  0  0  0  0  0  0  0  0  0  0  0
   60.5175   -7.8259   -1.2380 C   0  0  0  0  0  0  0  0  0  0  0  0
   61.8233   -7.4068   -0.9839 O   0  0  0  0  0  0  0  0  0  0  0  0
   61.7284   -6.4455   -0.6911 H   0  0  0  0  0  0  0  0  0  0  0  0
   56.3362   -5.3652    0.1006 C   0  0  0  0  0  0  0  0  0  0  0  0
   55.4458   -6.4104    0.1897 O   0  0  0  0  0  0  0  0  0  0  0  0
   55.5223   -6.8762    1.0662 H   0  0  0  0  0  0  0  0  0  0  0  0
 32 33  1  0  0  0
 33 34  1  0  0  0
 33 31  1  0  0  0
 31  5  1  0  0  0
  5  6  1  0  0  0
  6  7  1  0  0  0
  7  8  2  0  0  0
  7 10  1  0  0  0
 10 24  1  0  0  0
 24 25  1  0  0  0
 25 26  1  0  0  0
 26 27  1  0  0  0
 26 28  2  0  0  0
 10 11  1  0  0  0
 11 12  1  0  0  0
 12 13  2  0  0  0
 12 15  1  0  0  0
 15 16  1  0  0  0
 16 17  1  0  0  0
 17 18  1  0  0  0
 17 19  2  0  0  0
 15 21  1  0  0  0
 21 22  1  0  0  0
 21 23  1  0  0  0
  5  1  1  0  0  0
  1  2  2  0  0  0
  1  3  1  0  0  0
  3 35  1  0  0  0
 35 64  1  0  0  0
 64 65  1  0  0  0
 35 36  1  0  0  0
 36 37  2  0  0  0
 36 38  1  0  0  0
 38 40  1  0  0  0
 40 61  1  0  0  0
 61 62  1  0  0  0
 40 41  1  0  0  0
 41 42  2  0  0  0
 41 43  1  0  0  0
 43 45  1  0  0  0
 45 58  1  0  0  0
 58 59  1  0  0  0
 45 46  1  0  0  0
 46 47  2  0  0  0
 46 48  1  0  0  0
 48 50  1  0  0  0
 50 55  1  0  0  0
 55 56  1  0  0  0
 50 51  1  0  0  0
 51 52  1  0  0  0
 51 53  2  0  0  0
  6  9  1  0  0  0
 27 29  1  0  0  0
 27 30  1  0  0  0
 11 14  1  0  0  0
 16 20  1  0  0  0
  3  4  1  0  0  0
 65 66  1  0  0  0
 38 39  1  0  0  0
 62 63  1  0  0  0
 43 44  1  0  0  0
 59 60  1  0  0  0
 48 49  1  0  0  0
 56 57  1  0  0  0
 52 54  1  0  0  0
M  END
> <minimizedAffinity>
-6.91806

> <CNNscore>
0.1484890282

> <CNNaffinity>
6.1178493500

> <CNN_VS>
0.9084334970

> <CNNaffinity_variance>
0.2290459424

$$$$
[H]O[C@]1([H])C([H])([H])C([H])([H])[C@]2([H])[C@]1(C([H])([H])[H])C([H])([H])C([H])([H])[C@]1([H])[C@]3(C([H])([H])[H])C(=C([H])C(=O)C([H])([H])C3([H])[H])C([H])([H])C([H])([H])[C@@]21[H]


 22 25  0  0  0  0  0  0  0  0999 V2000
   55.9787   -5.8101   -9.7631 C   0  0  0  0  0  0  0  0  0  0  0  0
   56.6398   -4.5098   -9.3858 C   0  0  0  0  0  0  0  0  0  0  0  0
   57.4391   -3.9210  -10.5027 C   0  0  0  0  0  0  0  0  0  0  0  0
   58.5490   -4.8749  -10.8548 C   0  0  0  0  0  0  0  0  0  0  0  0
   59.3782   -5.3080   -9.6971 C   0  0  0  0  0  0  0  0  0  0  0  0
   58.5606   -5.7599   -8.5028 C   0  0  0  0  0  0  0  0  0  0  0  0
   59.4971   -5.9802   -7.3346 C   0  0  0  0  0  0  0  0  0  0  0  0
   60.6162   -6.9153   -7.6611 C   0  0  0  0  0  0  0  0  0  0  0  0
   61.2367   -6.6655   -8.9775 C   0  0  0  0  0  0  0  0  0  0  0  0
   62.5565   -6.7449   -9.0787 C   0  0  0  0  0  0  0  0  0  0  0  0
   63.2365   -6.5120  -10.3409 C   0  0  0  0  0  0  0  0  0  0  0  0
   64.4676   -6.2856  -10.3533 O   0  0  0  0  0  0  0  0  0  0  0  0
   62.4039   -6.5575  -11.5838 C   0  0  0  0  0  0  0  0  0  0  0  0
   61.1533   -5.7642  -11.2962 C   0  0  0  0  0  0  0  0  0  0  0  0
   60.3674   -6.3332  -10.1471 C   0  0  0  0  0  0  0  0  0  0  0  0
   59.7023   -7.6197  -10.5759 C   0  0  0  0  0  0  0  0  0  0  0  0
   57.6055   -4.6744   -8.2274 C   0  0  0  0  0  0  0  0  0  0  0  0
   56.7161   -4.7993   -7.0653 C   0  0  0  0  0  0  0  0  0  0  0  0
   55.8016   -3.5944   -7.3003 C   0  0  0  0  0  0  0  0  0  0  0  0
   55.6147   -3.5892   -8.8006 C   0  0  0  0  0  0  0  0  0  0  0  0
   55.6799   -2.3043   -9.3326 O   0  0  0  0  0  0  0  0  0  0  0  0
   54.9151   -2.1417   -9.9256 H   0  0  0  0  0  0  0  0  0  0  0  0
  2  1  1  0  0  0
  2  3  1  0  0  0
  3  4  1  0  0  0
  4  5  1  0  0  0
  5  6  1  0  0  0
  6  7  1  0  0  0
  7  8  1  0  0  0
  8  9  1  0  0  0
  9 10  2  0  0  0
 10 11  1  0  0  0
 11 12  2  0  0  0
 11 13  1  0  0  0
 13 14  1  0  0  0
 14 15  1  0  0  0
 15 16  1  0  0  0
  6 17  1  0  0  0
 17 18  1  0  0  0
 18 19  1  0  0  0
 19 20  1  0  0  0
 20 21  1  0  0  0
 17  2  1  0  0  0
 20  2  1  0  0  0
 15  5  1  0  0  0
 15  9  1  0  0  0
 21 22  1  0  0  0
M  END
> <minimizedAffinity>
4.33960

> <CNNscore>
0.6663387418

> <CNNaffinity>
5.0667753220

> <CNN_VS>
3.3761887550

> <CNNaffinity_variance>
0.4874390662

$$$$
[H]O[C@]1([H])C([H])([H])C([H])([H])[C@]2([H])[C@]1(C([H])([H])[H])C([H])([H])C([H])([H])[C@]1([H])[C@]3(C([H])([H])[H])C(=C([H])C(=O)C([H])([H])C3([H])[H])C([H])([H])C([H])([H])[C@@]21[H]


 22 25  0  0  0  0  0  0  0  0999 V2000
   62.0059   -8.0853  -10.8337 C   0  0  0  0  0  0  0  0  0  0  0  0
   62.5071   -6.7190  -10.4433 C   0  0  0  0  0  0  0  0  0  0  0  0
   62.1778   -6.3635   -9.0298 C   0  0  0  0  0  0  0  0  0  0  0  0
   60.6806   -6.3252   -8.8797 C   0  0  0  0  0  0  0  0  0  0  0  0
   59.9836   -5.4742   -9.8823 C   0  0  0  0  0  0  0  0  0  0  0  0
   60.4331   -5.7276  -11.3081 C   0  0  0  0  0  0  0  0  0  0  0  0
   59.8106   -4.6776  -12.2024 C   0  0  0  0  0  0  0  0  0  0  0  0
   58.3240   -4.6103  -12.0643 C   0  0  0  0  0  0  0  0  0  0  0  0
   57.8524   -4.6624  -10.6660 C   0  0  0  0  0  0  0  0  0  0  0  0
   56.8562   -3.8648  -10.3055 C   0  0  0  0  0  0  0  0  0  0  0  0
   56.3399   -3.8612   -8.9478 C   0  0  0  0  0  0  0  0  0  0  0  0
   55.6327   -2.9070   -8.5524 O   0  0  0  0  0  0  0  0  0  0  0  0
   56.6930   -5.0282   -8.0798 C   0  0  0  0  0  0  0  0  0  0  0  0
   58.1668   -5.2835   -8.2762 C   0  0  0  0  0  0  0  0  0  0  0  0
   58.5056   -5.6037   -9.7062 C   0  0  0  0  0  0  0  0  0  0  0  0
   58.0086   -6.9887  -10.0467 C   0  0  0  0  0  0  0  0  0  0  0  0
   61.9012   -5.6219  -11.2981 C   0  0  0  0  0  0  0  0  0  0  0  0
   62.6234   -5.7517  -12.5705 C   0  0  0  0  0  0  0  0  0  0  0  0
   64.0644   -5.7882  -12.0552 C   0  0  0  0  0  0  0  0  0  0  0  0
   63.9590   -6.6106  -10.7909 C   0  0  0  0  0  0  0  0  0  0  0  0
   64.7216   -6.0790   -9.7545 O   0  0  0  0  0  0  0  0  0  0  0  0
   65.2759   -6.7782   -9.3458 H   0  0  0  0  0  0  0  0  0  0  0  0
  2  1  1  0  0  0
  2  3  1  0  0  0
  3  4  1  0  0  0
  4  5  1  0  0  0
  5  6  1  0  0  0
  6  7  1  0  0  0
  7  8  1  0  0  0
  8  9  1  0  0  0
  9 10  2  0  0  0
 10 11  1  0  0  0
 11 12  2  0  0  0
 11 13  1  0  0  0
 13 14  1  0  0  0
 14 15  1  0  0  0
 15 16  1  0  0  0
  6 17  1  0  0  0
 17 18  1  0  0  0
 18 19  1  0  0  0
 19 20  1  0  0  0
 20 21  1  0  0  0
 17  2  1  0  0  0
 20  2  1  0  0  0
 15  5  1  0  0  0
 15  9  1  0  0  0
 21 22  1  0  0  0
M  END
> <minimizedAffinity>
1.69798

> <CNNscore>
0.6420487761

> <CNNaffinity>
4.5794715881

> <CNN_VS>
2.9402441978

> <CNNaffinity_variance>
0.1290547550

$$$$
[H]O[C@]1([H])C([H])([H])C([H])([H])[C@]2([H])[C@]1(C([H])([H])[H])C([H])([H])C([H])([H])[C@]1([H])[C@]3(C([H])([H])[H])C(=C([H])C(=O)C([H])([H])C3([H])[H])C([H])([H])C([H])([H])[C@@]21[H]


 22 25  0  0  0  0  0  0  0  0999 V2000
   58.8296   -4.0190   -9.0652 C   0  0  0  0  0  0  0  0  0  0  0  0
   58.2141   -4.8724  -10.1436 C   0  0  0  0  0  0  0  0  0  0  0  0
   57.9709   -6.2787   -9.7009 C   0  0  0  0  0  0  0  0  0  0  0  0
   59.2937   -6.9120   -9.3619 C   0  0  0  0  0  0  0  0  0  0  0  0
   60.3225   -6.7971  -10.4313 C   0  0  0  0  0  0  0  0  0  0  0  0
   60.4594   -5.3946  -10.9910 C   0  0  0  0  0  0  0  0  0  0  0  0
   61.3774   -5.4440  -12.1931 C   0  0  0  0  0  0  0  0  0  0  0  0
   62.6950   -6.0793  -11.8866 C   0  0  0  0  0  0  0  0  0  0  0  0
   62.5895   -7.3083  -11.0749 C   0  0  0  0  0  0  0  0  0  0  0  0
   63.3676   -8.3370  -11.3829 C   0  0  0  0  0  0  0  0  0  0  0  0
   63.3191   -9.5779  -10.6293 C   0  0  0  0  0  0  0  0  0  0  0  0
   63.8168  -10.6202  -11.1119 O   0  0  0  0  0  0  0  0  0  0  0  0
   62.6600   -9.5359   -9.2862 C   0  0  0  0  0  0  0  0  0  0  0  0
   61.3770   -8.7609   -9.4577 C   0  0  0  0  0  0  0  0  0  0  0  0
   61.6178   -7.3570   -9.9403 C   0  0  0  0  0  0  0  0  0  0  0  0
   62.2102   -6.5316   -8.8227 C   0  0  0  0  0  0  0  0  0  0  0  0
   59.1014   -4.9720  -11.3701 C   0  0  0  0  0  0  0  0  0  0  0  0
   58.9273   -3.6644  -12.0161 C   0  0  0  0  0  0  0  0  0  0  0  0
   57.3992   -3.5743  -12.0253 C   0  0  0  0  0  0  0  0  0  0  0  0
   57.0092   -4.1752  -10.6939 C   0  0  0  0  0  0  0  0  0  0  0  0
   55.9043   -5.0155  -10.8014 O   0  0  0  0  0  0  0  0  0  0  0  0
   55.2364   -4.7895  -10.1189 H   0  0  0  0  0  0  0  0  0  0  0  0
  2  1  1  0  0  0
  2  3  1  0  0  0
  3  4  1  0  0  0
  4  5  1  0  0  0
  5  6  1  0  0  0
  6  7  1  0  0  0
  7  8  1  0  0  0
  8  9  1  0  0  0
  9 10  2  0  0  0
 10 11  1  0  0  0
 11 12  2  0  0  0
 11 13  1  0  0  0
 13 14  1  0  0  0
 14 15  1  0  0  0
 15 16  1  0  0  0
  6 17  1  0  0  0
 17 18  1  0  0  0
 18 19  1  0  0  0
 19 20  1  0  0  0
 20 21  1  0  0  0
 17  2  1  0  0  0
 20  2  1  0  0  0
 15  5  1  0  0  0
 15  9  1  0  0  0
 21 22  1  0  0  0
M  END
> <minimizedAffinity>
4.92858

> <CNNscore>
0.6315585375

> <CNNaffinity>
4.4150013924

> <CNN_VS>
2.7883317471

> <CNNaffinity_variance>
0.1764988154

$$$$
[H]O[C@]1([H])C([H])([H])C([H])([H])[C@]2([H])[C@]1(C([H])([H])[H])C([H])([H])C([H])([H])[C@]1([H])[C@]3(C([H])([H])[H])C(=C([H])C(=O)C([H])([H])C3([H])[H])C([H])([H])C([H])([H])[C@@]21[H]


 22 25  0  0  0  0  0  0  0  0999 V2000
   55.0443   -2.6986   -8.4653 C   0  0  0  0  0  0  0  0  0  0  0  0
   55.1928   -4.1885   -8.6344 C   0  0  0  0  0  0  0  0  0  0  0  0
   56.6031   -4.6527   -8.4667 C   0  0  0  0  0  0  0  0  0  0  0  0
   57.4492   -4.0176   -9.5375 C   0  0  0  0  0  0  0  0  0  0  0  0
   56.9273   -4.1958  -10.9200 C   0  0  0  0  0  0  0  0  0  0  0  0
   55.4522   -3.8725  -11.0562 C   0  0  0  0  0  0  0  0  0  0  0  0
   54.9964   -4.2798  -12.4405 C   0  0  0  0  0  0  0  0  0  0  0  0
   55.8278   -3.6717  -13.5235 C   0  0  0  0  0  0  0  0  0  0  0  0
   57.2794   -3.7174  -13.2571 C   0  0  0  0  0  0  0  0  0  0  0  0
   58.0962   -4.0130  -14.2591 C   0  0  0  0  0  0  0  0  0  0  0  0
   59.5353   -4.0763  -14.0720 C   0  0  0  0  0  0  0  0  0  0  0  0
   60.2502   -4.6489  -14.9253 O   0  0  0  0  0  0  0  0  0  0  0  0
   60.0925   -3.4369  -12.8388 C   0  0  0  0  0  0  0  0  0  0  0  0
   59.2099   -3.8652  -11.6927 C   0  0  0  0  0  0  0  0  0  0  0  0
   57.7817   -3.4320  -11.8786 C   0  0  0  0  0  0  0  0  0  0  0  0
   57.6745   -1.9392  -11.6755 C   0  0  0  0  0  0  0  0  0  0  0  0
   54.7653   -4.6526  -10.0141 C   0  0  0  0  0  0  0  0  0  0  0  0
   53.2992   -4.5969   -9.9466 C   0  0  0  0  0  0  0  0  0  0  0  0
   53.0647   -5.3552   -8.6377 C   0  0  0  0  0  0  0  0  0  0  0  0
   54.1994   -4.8839   -7.7567 C   0  0  0  0  0  0  0  0  0  0  0  0
   54.7642   -5.9262   -7.0267 O   0  0  0  0  0  0  0  0  0  0  0  0
   54.8370   -5.6788   -6.0798 H   0  0  0  0  0  0  0  0  0  0  0  0
  2  1  1  0  0  0
  2  3  1  0  0  0
  3  4  1  0  0  0
  4  5  1  0  0  0
  5  6  1  0  0  0
  6  7  1  0  0  0
  7  8  1  0  0  0
  8  9  1  0  0  0
  9 10  2  0  0  0
 10 11  1  0  0  0
 11 12  2  0  0  0
 11 13  1  0  0  0
 13 14  1  0  0  0
 14 15  1  0  0  0
 15 16  1  0  0  0
  6 17  1  0  0  0
 17 18  1  0  0  0
 18 19  1  0  0  0
 19 20  1  0  0  0
 20 21  1  0  0  0
 17  2  1  0  0  0
 20  2  1  0  0  0
 15  5  1  0  0  0
 15  9  1  0  0  0
 21 22  1  0  0  0
M  END
> <minimizedAffinity>
5.76062

> <CNNscore>
0.6192868948

> <CNNaffinity>
5.2728190422

> <CNN_VS>
3.2653877735

> <CNNaffinity_variance>
0.5426676869

$$$$
[H]O[C@]1([H])C([H])([H])C([H])([H])[C@]2([H])[C@]1(C([H])([H])[H])C([H])([H])C([H])([H])[C@]1([H])[C@]3(C([H])([H])[H])C(=C([H])C(=O)C([H])([H])C3([H])[H])C([H])([H])C([H])([H])[C@@]21[H]


 22 25  0  0  0  0  0  0  0  0999 V2000
   61.3944   -5.3840  -14.9957 C   0  0  0  0  0  0  0  0  0  0  0  0
   61.9075   -4.3199  -14.0604 C   0  0  0  0  0  0  0  0  0  0  0  0
   63.3968   -4.3248  -13.9390 C   0  0  0  0  0  0  0  0  0  0  0  0
   63.8277   -5.6447  -13.3576 C   0  0  0  0  0  0  0  0  0  0  0  0
   63.1295   -6.0189  -12.0975 C   0  0  0  0  0  0  0  0  0  0  0  0
   61.6229   -5.8640  -12.1717 C   0  0  0  0  0  0  0  0  0  0  0  0
   61.0489   -6.0766  -10.7878 C   0  0  0  0  0  0  0  0  0  0  0  0
   61.4710   -7.3760  -10.1819 C   0  0  0  0  0  0  0  0  0  0  0  0
   62.9040   -7.6815  -10.3656 C   0  0  0  0  0  0  0  0  0  0  0  0
   63.5722   -8.2099   -9.3493 C   0  0  0  0  0  0  0  0  0  0  0  0
   64.9834   -8.5366   -9.4565 C   0  0  0  0  0  0  0  0  0  0  0  0
   65.6578   -8.7351   -8.4207 O   0  0  0  0  0  0  0  0  0  0  0  0
   65.5627   -8.6188  -10.8341 C   0  0  0  0  0  0  0  0  0  0  0  0
   65.0550   -7.4156  -11.5895 C   0  0  0  0  0  0  0  0  0  0  0  0
   63.5539   -7.3890  -11.6793 C   0  0  0  0  0  0  0  0  0  0  0  0
   63.0851   -8.4521  -12.6444 C   0  0  0  0  0  0  0  0  0  0  0  0
   61.3765   -4.4939  -12.6500 C   0  0  0  0  0  0  0  0  0  0  0  0
   59.9884   -4.0256  -12.7549 C   0  0  0  0  0  0  0  0  0  0  0  0
   60.2125   -2.6883  -13.4653 C   0  0  0  0  0  0  0  0  0  0  0  0
   61.3184   -2.9996  -14.4481 C   0  0  0  0  0  0  0  0  0  0  0  0
   62.2685   -1.9836  -14.5073 O   0  0  0  0  0  0  0  0  0  0  0  0
   62.4438   -1.7349  -15.4403 H   0  0  0  0  0  0  0  0  0  0  0  0
  2  1  1  0  0  0
  2  3  1  0  0  0
  3  4  1  0  0  0
  4  5  1  0  0  0
  5  6  1  0  0  0
  6  7  1  0  0  0
  7  8  1  0  0  0
  8  9  1  0  0  0
  9 10  2  0  0  0
 10 11  1  0  0  0
 11 12  2  0  0  0
 11 13  1  0  0  0
 13 14  1  0  0  0
 14 15  1  0  0  0
 15 16  1  0  0  0
  6 17  1  0  0  0
 17 18  1  0  0  0
 18 19  1  0  0  0
 19 20  1  0  0  0
 20 21  1  0  0  0
 17  2  1  0  0  0
 20  2  1  0  0  0
 15  5  1  0  0  0
 15  9  1  0  0  0
 21 22  1  0  0  0
M  END
> <minimizedAffinity>
2.35073

> <CNNscore>
0.6033635736

> <CNNaffinity>
3.9165542126

> <CNN_VS>
2.3631062508

> <CNNaffinity_variance>
0.1009876505

$$$$
[H]O[C@]1([H])C([H])([H])C([H])([H])[C@]2([H])[C@]1(C([H])([H])[H])C([H])([H])C([H])([H])[C@]1([H])[C@]3(C([H])([H])[H])C(=C([H])C(=O)C([H])([H])C3([H])[H])C([H])([H])C([H])([H])[C@@]21[H]


 22 25  0  0  0  0  0  0  0  0999 V2000
   63.1140   -8.9281   -9.1759 C   0  0  0  0  0  0  0  0  0  0  0  0
   63.5081   -7.5532   -8.7020 C   0  0  0  0  0  0  0  0  0  0  0  0
   62.6335   -7.0473   -7.6012 C   0  0  0  0  0  0  0  0  0  0  0  0
   61.2257   -6.9296   -8.1209 C   0  0  0  0  0  0  0  0  0  0  0  0
   61.0992   -6.1514   -9.3833 C   0  0  0  0  0  0  0  0  0  0  0  0
   62.0956   -6.5622  -10.4498 C   0  0  0  0  0  0  0  0  0  0  0  0
   62.0057   -5.5787  -11.5964 C   0  0  0  0  0  0  0  0  0  0  0  0
   60.6150   -5.4340  -12.1242 C   0  0  0  0  0  0  0  0  0  0  0  0
   59.5858   -5.3286  -11.0707 C   0  0  0  0  0  0  0  0  0  0  0  0
   58.5999   -4.4572  -11.2361 C   0  0  0  0  0  0  0  0  0  0  0  0
   57.5524   -4.2985  -10.2425 C   0  0  0  0  0  0  0  0  0  0  0  0
   56.8242   -3.2805  -10.2616 O   0  0  0  0  0  0  0  0  0  0  0  0
   57.4017   -5.3892   -9.2287 C   0  0  0  0  0  0  0  0  0  0  0  0
   58.7907   -5.7260   -8.7458 C   0  0  0  0  0  0  0  0  0  0  0  0
   59.6839   -6.1989   -9.8596 C   0  0  0  0  0  0  0  0  0  0  0  0
   59.2705   -7.5877  -10.2856 C   0  0  0  0  0  0  0  0  0  0  0  0
   63.4201   -6.5198   -9.8092 C   0  0  0  0  0  0  0  0  0  0  0  0
   64.6058   -6.8045  -10.6278 C   0  0  0  0  0  0  0  0  0  0  0  0
   65.6771   -6.8528   -9.5355 C   0  0  0  0  0  0  0  0  0  0  0  0
   64.9721   -7.5423   -8.3895 C   0  0  0  0  0  0  0  0  0  0  0  0
   65.2557   -6.9454   -7.1641 O   0  0  0  0  0  0  0  0  0  0  0  0
   65.5214   -7.6247   -6.5075 H   0  0  0  0  0  0  0  0  0  0  0  0
  2  1  1  0  0  0
  2  3  1  0  0  0
  3  4  1  0  0  0
  4  5  1  0  0  0
  5  6  1  0  0  0
  6  7  1  0  0  0
  7  8  1  0  0  0
  8  9  1  0  0  0
  9 10  2  0  0  0
 10 11  1  0  0  0
 11 12  2  0  0  0
 11 13  1  0  0  0
 13 14  1  0  0  0
 14 15  1  0  0  0
 15 16  1  0  0  0
  6 17  1  0  0  0
 17 18  1  0  0  0
 18 19  1  0  0  0
 19 20  1  0  0  0
 20 21  1  0  0  0
 17  2  1  0  0  0
 20  2  1  0  0  0
 15  5  1  0  0  0
 15  9  1  0  0  0
 21 22  1  0  0  0
M  END
> <minimizedAffinity>
1.07704

> <CNNscore>
0.5991294384

> <CNNaffinity>
4.3847851753

> <CNN_VS>
2.6270539761

> <CNNaffinity_variance>
0.1949483454

$$$$
[H]O[C@]1([H])C([H])([H])C([H])([H])[C@]2([H])[C@]1(C([H])([H])[H])C([H])([H])C([H])([H])[C@]1([H])[C@]3(C([H])([H])[H])C(=C([H])C(=O)C([H])([H])C3([H])[H])C([H])([H])C([H])([H])[C@@]21[H]


 22 25  0  0  0  0  0  0  0  0999 V2000
   54.3561   -7.2965   -7.0012 C   0  0  0  0  0  0  0  0  0  0  0  0
   54.8901   -6.0806   -6.2893 C   0  0  0  0  0  0  0  0  0  0  0  0
   54.4215   -5.9860   -4.8736 C   0  0  0  0  0  0  0  0  0  0  0  0
   52.9220   -5.8548   -4.8710 C   0  0  0  0  0  0  0  0  0  0  0  0
   52.3983   -4.7676   -5.7423 C   0  0  0  0  0  0  0  0  0  0  0  0
   52.9937   -4.7701   -7.1368 C   0  0  0  0  0  0  0  0  0  0  0  0
   52.5433   -3.5161   -7.8542 C   0  0  0  0  0  0  0  0  0  0  0  0
   51.0574   -3.3551   -7.8562 C   0  0  0  0  0  0  0  0  0  0  0  0
   50.4250   -3.6439   -6.5535 C   0  0  0  0  0  0  0  0  0  0  0  0
   49.4436   -2.8540   -6.1393 C   0  0  0  0  0  0  0  0  0  0  0  0
   48.7748   -3.0766   -4.8692 C   0  0  0  0  0  0  0  0  0  0  0  0
   48.0854   -2.1646   -4.3594 O   0  0  0  0  0  0  0  0  0  0  0  0
   48.9541   -4.4174   -4.2287 C   0  0  0  0  0  0  0  0  0  0  0  0
   50.4227   -4.7494   -4.3234 C   0  0  0  0  0  0  0  0  0  0  0  0
   50.9047   -4.8071   -5.7469 C   0  0  0  0  0  0  0  0  0  0  0  0
   50.3679   -6.0515   -6.4136 C   0  0  0  0  0  0  0  0  0  0  0  0
   54.4544   -4.7899   -6.9569 C   0  0  0  0  0  0  0  0  0  0  0  0
   55.3099   -4.7244   -8.1491 C   0  0  0  0  0  0  0  0  0  0  0  0
   56.6767   -4.9808   -7.5093 C   0  0  0  0  0  0  0  0  0  0  0  0
   56.3764   -6.0256   -6.4586 C   0  0  0  0  0  0  0  0  0  0  0  0
   57.0446   -5.7744   -5.2634 O   0  0  0  0  0  0  0  0  0  0  0  0
   57.5047   -6.5840   -4.9534 H   0  0  0  0  0  0  0  0  0  0  0  0
  2  1  1  0  0  0
  2  3  1  0  0  0
  3  4  1  0  0  0
  4  5  1  0  0  0
  5  6  1  0  0  0
  6  7  1  0  0  0
  7  8  1  0  0  0
  8  9  1  0  0  0
  9 10  2  0  0  0
 10 11  1  0  0  0
 11 12  2  0  0  0
 11 13  1  0  0  0
 13 14  1  0  0  0
 14 15  1  0  0  0
 15 16  1  0  0  0
  6 17  1  0  0  0
 17 18  1  0  0  0
 18 19  1  0  0  0
 19 20  1  0  0  0
 20 21  1  0  0  0
 17  2  1  0  0  0
 20  2  1  0  0  0
 15  5  1  0  0  0
 15  9  1  0  0  0
 21 22  1  0  0  0
M  END
> <minimizedAffinity>
-10.19143

> <CNNscore>
0.5793808103

> <CNNaffinity>
6.6260614395

> <CNN_VS>
3.8390128613

> <CNNaffinity_variance>
0.3850070834

$$$$
[H]O[C@]1([H])C([H])([H])C([H])([H])[C@]2([H])[C@]1(C([H])([H])[H])C([H])([H])C([H])([H])[C@]1([H])[C@]3(C([H])([H])[H])C(=C([H])C(=O)C([H])([H])C3([H])[H])C([H])([H])C([H])([H])[C@@]21[H]


 22 25  0  0  0  0  0  0  0  0999 V2000
   62.6781   -5.4101   -8.3860 C   0  0  0  0  0  0  0  0  0  0  0  0
   61.5763   -6.4313   -8.5024 C   0  0  0  0  0  0  0  0  0  0  0  0
   61.5763   -7.4140   -7.3766 C   0  0  0  0  0  0  0  0  0  0  0  0
   62.8710   -8.1811   -7.4077 C   0  0  0  0  0  0  0  0  0  0  0  0
   63.1929   -8.7912   -8.7265 C   0  0  0  0  0  0  0  0  0  0  0  0
   63.0411   -7.8313   -9.8904 C   0  0  0  0  0  0  0  0  0  0  0  0
   63.1965   -8.6095  -11.1790 C   0  0  0  0  0  0  0  0  0  0  0  0
   64.4697   -9.3903  -11.2310 C   0  0  0  0  0  0  0  0  0  0  0  0
   64.7826  -10.1043   -9.9770 C   0  0  0  0  0  0  0  0  0  0  0  0
   65.2686  -11.3356  -10.0558 C   0  0  0  0  0  0  0  0  0  0  0  0
   65.5995  -12.0988   -8.8650 C   0  0  0  0  0  0  0  0  0  0  0  0
   65.7551  -13.3385   -8.9424 O   0  0  0  0  0  0  0  0  0  0  0  0
   65.7384  -11.3386   -7.5833 C   0  0  0  0  0  0  0  0  0  0  0  0
   64.5675  -10.3899   -7.5137 C   0  0  0  0  0  0  0  0  0  0  0  0
   64.5446   -9.4250   -8.6671 C   0  0  0  0  0  0  0  0  0  0  0  0
   65.6466   -8.4062   -8.4973 C   0  0  0  0  0  0  0  0  0  0  0  0
   61.6920   -7.2550   -9.7711 C   0  0  0  0  0  0  0  0  0  0  0  0
   61.2283   -6.3304  -10.8138 C   0  0  0  0  0  0  0  0  0  0  0  0
   59.9215   -5.8483  -10.1790 C   0  0  0  0  0  0  0  0  0  0  0  0
   60.2731   -5.7259   -8.7137 C   0  0  0  0  0  0  0  0  0  0  0  0
   59.2605   -6.2091   -7.8894 O   0  0  0  0  0  0  0  0  0  0  0  0
   59.0505   -5.5553   -7.1883 H   0  0  0  0  0  0  0  0  0  0  0  0
  2  1  1  0  0  0
  2  3  1  0  0  0
  3  4  1  0  0  0
  4  5  1  0  0  0
  5  6  1  0  0  0
  6  7  1  0  0  0
  7  8  1  0  0  0
  8  9  1  0  0  0
  9 10  2  0  0  0
 10 11  1  0  0  0
 11 12  2  0  0  0
 11 13  1  0  0  0
 13 14  1  0  0  0
 14 15  1  0  0  0
 15 16  1  0  0  0
  6 17  1  0  0  0
 17 18  1  0  0  0
 18 19  1  0  0  0
 19 20  1  0  0  0
 20 21  1  0  0  0
 17  2  1  0  0  0
 20  2  1  0  0  0
 15  5  1  0  0  0
 15  9  1  0  0  0
 21 22  1  0  0  0
M  END
> <minimizedAffinity>
-1.31989

> <CNNscore>
0.5697207451

> <CNNaffinity>
4.2313442230

> <CNN_VS>
2.4106845856

> <CNNaffinity_variance>
0.1992696375

$$$$
[H]O[C@]1([H])C([H])([H])C([H])([H])[C@]2([H])[C@]1(C([H])([H])[H])C([H])([H])C([H])([H])[C@]1([H])[C@]3(C([H])([H])[H])C(=C([H])C(=O)C([H])([H])C3([H])[H])C([H])([H])C([H])([H])[C@@]21[H]


 22 25  0  0  0  0  0  0  0  0999 V2000
   51.8862   -6.6927   -7.0838 C   0  0  0  0  0  0  0  0  0  0  0  0
   52.2189   -5.3716   -6.4401 C   0  0  0  0  0  0  0  0  0  0  0  0
   51.9262   -4.2052   -7.3271 C   0  0  0  0  0  0  0  0  0  0  0  0
   52.7886   -4.3075   -8.5565 C   0  0  0  0  0  0  0  0  0  0  0  0
   54.2391   -4.4897   -8.2769 C   0  0  0  0  0  0  0  0  0  0  0  0
   54.5269   -5.5728   -7.2554 C   0  0  0  0  0  0  0  0  0  0  0  0
   55.9991   -5.5273   -6.9082 C   0  0  0  0  0  0  0  0  0  0  0  0
   56.8787   -5.6154   -8.1132 C   0  0  0  0  0  0  0  0  0  0  0  0
   56.4314   -4.7731   -9.2404 C   0  0  0  0  0  0  0  0  0  0  0  0
   57.3462   -4.1112   -9.9359 C   0  0  0  0  0  0  0  0  0  0  0  0
   56.9806   -3.2636  -11.0574 C   0  0  0  0  0  0  0  0  0  0  0  0
   57.7971   -2.4211  -11.4941 O   0  0  0  0  0  0  0  0  0  0  0  0
   55.6148   -3.4524  -11.6395 C   0  0  0  0  0  0  0  0  0  0  0  0
   54.6573   -3.5405  -10.4769 C   0  0  0  0  0  0  0  0  0  0  0  0
   54.9741   -4.6913   -9.5619 C   0  0  0  0  0  0  0  0  0  0  0  0
   54.6022   -5.9912  -10.2352 C   0  0  0  0  0  0  0  0  0  0  0  0
   53.6899   -5.2630   -6.0850 C   0  0  0  0  0  0  0  0  0  0  0  0
   53.8095   -6.1108   -4.8917 C   0  0  0  0  0  0  0  0  0  0  0  0
   52.6478   -5.5626   -4.0591 C   0  0  0  0  0  0  0  0  0  0  0  0
   51.5733   -5.3060   -5.0912 C   0  0  0  0  0  0  0  0  0  0  0  0
   50.9110   -4.1014   -4.8703 O   0  0  0  0  0  0  0  0  0  0  0  0
   49.9394   -4.2373   -4.8937 H   0  0  0  0  0  0  0  0  0  0  0  0
  2  1  1  0  0  0
  2  3  1  0  0  0
  3  4  1  0  0  0
  4  5  1  0  0  0
  5  6  1  0  0  0
  6  7  1  0  0  0
  7  8  1  0  0  0
  8  9  1  0  0  0
  9 10  2  0  0  0
 10 11  1  0  0  0
 11 12  2  0  0  0
 11 13  1  0  0  0
 13 14  1  0  0  0
 14 15  1  0  0  0
 15 16  1  0  0  0
  6 17  1  0  0  0
 17 18  1  0  0  0
 18 19  1  0  0  0
 19 20  1  0  0  0
 20 21  1  0  0  0
 17  2  1  0  0  0
 20  2  1  0  0  0
 15  5  1  0  0  0
 15  9  1  0  0  0
 21 22  1  0  0  0
M  END
> <minimizedAffinity>
1.43229

> <CNNscore>
0.5397027731

> <CNNaffinity>
6.0180783272

> <CNN_VS>
3.2479736805

> <CNNaffinity_variance>
0.5312563181

$$$$
[H]OC(=O)C([H])(Oc1c([H])c([H])c(-c2c([H])c([H])c(-c3c(C([H])([H])c4c([H])c([H])c([H])c([H])c4[H])sc4c([H])c([H])c([H])c([H])c34)c([H])c2[H])c([H])c1Br)C([H])([H])c1c([H])c([H])c([H])c([H])c1[H]


 42 47  0  0  0  0  0  0  0  0999 V2000
   56.8696   -4.1170  -11.1417 C   0  0  0  0  0  0  0  0  0  0  0  0
   56.0581   -3.8467  -12.1949 C   0  0  0  0  0  0  0  0  0  0  0  0
   56.5566   -3.5912  -13.4589 C   0  0  0  0  0  0  0  0  0  0  0  0
   57.9105   -3.6068  -13.6746 C   0  0  0  0  0  0  0  0  0  0  0  0
   58.7414   -3.8807  -12.6114 C   0  0  0  0  0  0  0  0  0  0  0  0
   58.2553   -4.1371  -11.3465 C   0  0  0  0  0  0  0  0  0  0  0  0
   58.4904   -3.3291  -15.0313 C   0  0  0  0  0  0  0  0  0  0  0  0
   59.8364   -3.1914  -15.1848 C   0  0  0  0  0  0  0  0  0  0  0  0
   59.9871   -2.8983  -16.8857 S   0  0  0  0  0  0  0  0  0  0  0  0
   58.3437   -2.9632  -17.3239 C   0  0  0  0  0  0  0  0  0  0  0  0
   57.6567   -2.8192  -18.5422 C   0  0  0  0  0  0  0  0  0  0  0  0
   56.2892   -2.9248  -18.5897 C   0  0  0  0  0  0  0  0  0  0  0  0
   55.6495   -3.1737  -17.4050 C   0  0  0  0  0  0  0  0  0  0  0  0
   56.3150   -3.3122  -16.2313 C   0  0  0  0  0  0  0  0  0  0  0  0
   57.7150   -3.2116  -16.1352 C   0  0  0  0  0  0  0  0  0  0  0  0
   60.9954   -3.2419  -14.2620 C   0  0  0  0  0  0  0  0  0  0  0  0
   61.8016   -4.4348  -14.5192 C   0  0  0  0  0  0  0  0  0  0  0  0
   62.1358   -4.9770  -15.7306 C   0  0  0  0  0  0  0  0  0  0  0  0
   62.9113   -6.1215  -15.8665 C   0  0  0  0  0  0  0  0  0  0  0  0
   63.3819   -6.7647  -14.7403 C   0  0  0  0  0  0  0  0  0  0  0  0
   63.0663   -6.2487  -13.4983 C   0  0  0  0  0  0  0  0  0  0  0  0
   62.2941   -5.1105  -13.3965 C   0  0  0  0  0  0  0  0  0  0  0  0
   55.5840   -4.9268   -7.1416 C   0  0  0  0  0  0  0  0  0  0  0  0
   56.9301   -5.0613   -7.5692 C   0  0  0  0  0  0  0  0  0  0  0  0
   57.3208   -4.7968   -8.8567 C   0  0  0  0  0  0  0  0  0  0  0  0
   56.4013   -4.3857   -9.7885 C   0  0  0  0  0  0  0  0  0  0  0  0
   55.1137   -4.2531   -9.3957 C   0  0  0  0  0  0  0  0  0  0  0  0
   54.6757   -4.5128   -8.0928 C   0  0  0  0  0  0  0  0  0  0  0  0
   52.8212   -4.2945   -7.6878 Br  0  0  0  0  0  0  0  0  0  0  0  0
   55.3679   -5.2203   -5.8675 O   0  0  0  0  0  0  0  0  0  0  0  0
   55.8250   -5.9339   -4.8155 C   0  0  0  0  0  0  0  0  0  0  0  0
   53.9478   -7.2333   -3.7119 O   0  0  0  0  0  0  0  0  0  0  0  0
   54.9566   -7.1547   -4.6585 C   0  0  0  0  0  0  0  0  0  0  0  0
   55.1533   -8.1235   -5.4053 O   0  0  0  0  0  0  0  0  0  0  0  0
   53.9108   -8.0898   -3.1320 H   0  0  0  0  0  0  0  0  0  0  0  0
   55.8730   -5.1046   -3.5342 C   0  0  0  0  0  0  0  0  0  0  0  0
   56.9968   -5.3926   -2.6391 C   0  0  0  0  0  0  0  0  0  0  0  0
   57.6363   -6.6196   -2.6049 C   0  0  0  0  0  0  0  0  0  0  0  0
   58.7146   -6.8733   -1.7978 C   0  0  0  0  0  0  0  0  0  0  0  0
   59.1908   -5.8625   -0.9775 C   0  0  0  0  0  0  0  0  0  0  0  0
   58.5863   -4.6278   -0.9789 C   0  0  0  0  0  0  0  0  0  0  0  0
   57.5125   -4.4079   -1.7965 C   0  0  0  0  0  0  0  0  0  0  0  0
 32 33  1  0  0  0
 33 34  2  0  0  0
 33 31  1  0  0  0
 31 36  1  0  0  0
 36 37  1  0  0  0
 37 38  2  0  0  0
 38 39  1  0  0  0
 39 40  2  0  0  0
 40 41  1  0  0  0
 41 42  2  0  0  0
 31 30  1  0  0  0
 30 23  1  0  0  0
 23 24  2  0  0  0
 24 25  1  0  0  0
 25 26  2  0  0  0
 26 27  1  0  0  0
 27 28  2  0  0  0
 28 29  1  0  0  0
 26  1  1  0  0  0
  1  2  2  0  0  0
  2  3  1  0  0  0
  3  4  2  0  0  0
  4  5  1  0  0  0
  5  6  2  0  0  0
  4  7  1  0  0  0
  7  8  2  0  0  0
  8 16  1  0  0  0
 16 17  1  0  0  0
 17 18  2  0  0  0
 18 19  1  0  0  0
 19 20  2  0  0  0
 20 21  1  0  0  0
 21 22  2  0  0  0
  8  9  1  0  0  0
  9 10  1  0  0  0
 10 11  2  0  0  0
 11 12  1  0  0  0
 12 13  2  0  0  0
 13 14  1  0  0  0
 14 15  2  0  0  0
 42 37  1  0  0  0
 28 23  1  0  0  0
  6  1  1  0  0  0
 15  7  1  0  0  0
 22 17  1  0  0  0
 15 10  1  0  0  0
 32 35  1  0  0  0
M  END
> <minimizedAffinity>
-8.79469

> <CNNscore>
0.2908632159

> <CNNaffinity>
6.2538456917

> <CNN_VS>
1.8190137148

> <CNNaffinity_variance>
0.4967313707

$$$$
[H]OC(=O)C([H])(Oc1c([H])c([H])c(-c2c([H])c([H])c(-c3c(C([H])([H])c4c([H])c([H])c([H])c([H])c4[H])sc4c([H])c([H])c([H])c([H])c34)c([H])c2[H])c([H])c1Br)C([H])([H])c1c([H])c([H])c([H])c([H])c1[H]


 42 47  0  0  0  0  0  0  0  0999 V2000
   55.6811   -4.2425  -10.4860 C   0  0  0  0  0  0  0  0  0  0  0  0
   54.3472   -4.0234  -10.6022 C   0  0  0  0  0  0  0  0  0  0  0  0
   53.4780   -4.2092   -9.5431 C   0  0  0  0  0  0  0  0  0  0  0  0
   53.9602   -4.6278   -8.3298 C   0  0  0  0  0  0  0  0  0  0  0  0
   55.3127   -4.8522   -8.2030 C   0  0  0  0  0  0  0  0  0  0  0  0
   56.1889   -4.6700   -9.2524 C   0  0  0  0  0  0  0  0  0  0  0  0
   53.0476   -4.8461   -7.1578 C   0  0  0  0  0  0  0  0  0  0  0  0
   53.3265   -5.8176   -6.2453 C   0  0  0  0  0  0  0  0  0  0  0  0
   52.0151   -5.6602   -5.1242 S   0  0  0  0  0  0  0  0  0  0  0  0
   51.1755   -4.3753   -5.8598 C   0  0  0  0  0  0  0  0  0  0  0  0
   49.9987   -3.6747   -5.5412 C   0  0  0  0  0  0  0  0  0  0  0  0
   49.5526   -2.6562   -6.3455 C   0  0  0  0  0  0  0  0  0  0  0  0
   50.3067   -2.3702   -7.4519 C   0  0  0  0  0  0  0  0  0  0  0  0
   51.4415   -3.0476   -7.7567 C   0  0  0  0  0  0  0  0  0  0  0  0
   51.9359   -4.0982   -6.9621 C   0  0  0  0  0  0  0  0  0  0  0  0
   54.4050   -6.8241   -6.0997 C   0  0  0  0  0  0  0  0  0  0  0  0
   54.9704   -6.7758   -4.7517 C   0  0  0  0  0  0  0  0  0  0  0  0
   54.7770   -7.6633   -3.7280 C   0  0  0  0  0  0  0  0  0  0  0  0
   55.3639   -7.5244   -2.4765 C   0  0  0  0  0  0  0  0  0  0  0  0
   56.1881   -6.4470   -2.2252 C   0  0  0  0  0  0  0  0  0  0  0  0
   56.4088   -5.5283   -3.2329 C   0  0  0  0  0  0  0  0  0  0  0  0
   55.8113   -5.6941   -4.4649 C   0  0  0  0  0  0  0  0  0  0  0  0
   58.5729   -3.7516  -13.6015 C   0  0  0  0  0  0  0  0  0  0  0  0
   58.9207   -3.9809  -12.2452 C   0  0  0  0  0  0  0  0  0  0  0  0
   57.9775   -4.1351  -11.2619 C   0  0  0  0  0  0  0  0  0  0  0  0
   56.6415   -4.0707  -11.5681 C   0  0  0  0  0  0  0  0  0  0  0  0
   56.2943   -3.8525  -12.8571 C   0  0  0  0  0  0  0  0  0  0  0  0
   57.2257   -3.6903  -13.8883 C   0  0  0  0  0  0  0  0  0  0  0  0
   56.5859   -3.3744  -15.6608 Br  0  0  0  0  0  0  0  0  0  0  0  0
   59.5992   -3.6234  -14.4300 O   0  0  0  0  0  0  0  0  0  0  0  0
   60.9234   -3.3662  -14.5012 C   0  0  0  0  0  0  0  0  0  0  0  0
   61.9007   -5.2307  -13.0874 O   0  0  0  0  0  0  0  0  0  0  0  0
   61.6676   -4.6647  -14.3304 C   0  0  0  0  0  0  0  0  0  0  0  0
   62.0857   -5.2469  -15.3411 O   0  0  0  0  0  0  0  0  0  0  0  0
   62.8642   -5.5525  -12.8888 H   0  0  0  0  0  0  0  0  0  0  0  0
   61.3633   -2.3226  -13.4769 C   0  0  0  0  0  0  0  0  0  0  0  0
   62.6399   -1.6613  -13.7599 C   0  0  0  0  0  0  0  0  0  0  0  0
   63.4587   -2.0255  -14.8147 C   0  0  0  0  0  0  0  0  0  0  0  0
   64.6314   -1.3775  -15.1034 C   0  0  0  0  0  0  0  0  0  0  0  0
   65.0211   -0.3106  -14.3088 C   0  0  0  0  0  0  0  0  0  0  0  0
   64.2387    0.0859  -13.2503 C   0  0  0  0  0  0  0  0  0  0  0  0
   63.0743   -0.5823  -12.9900 C   0  0  0  0  0  0  0  0  0  0  0  0
 32 33  1  0  0  0
 33 34  2  0  0  0
 33 31  1  0  0  0
 31 36  1  0  0  0
 36 37  1  0  0  0
 37 38  2  0  0  0
 38 39  1  0  0  0
 39 40  2  0  0  0
 40 41  1  0  0  0
 41 42  2  0  0  0
 31 30  1  0  0  0
 30 23  1  0  0  0
 23 24  2  0  0  0
 24 25  1  0  0  0
 25 26  2  0  0  0
 26 27  1  0  0  0
 27 28  2  0  0  0
 28 29  1  0  0  0
 26  1  1  0  0  0
  1  2  2  0  0  0
  2  3  1  0  0  0
  3  4  2  0  0  0
  4  5  1  0  0  0
  5  6  2  0  0  0
  4  7  1  0  0  0
  7  8  2  0  0  0
  8 16  1  0  0  0
 16 17  1  0  0  0
 17 18  2  0  0  0
 18 19  1  0  0  0
 19 20  2  0  0  0
 20 21  1  0  0  0
 21 22  2  0  0  0
  8  9  1  0  0  0
  9 10  1  0  0  0
 10 11  2  0  0  0
 11 12  1  0  0  0
 12 13  2  0  0  0
 13 14  1  0  0  0
 14 15  2  0  0  0
 42 37  1  0  0  0
 28 23  1  0  0  0
  6  1  1  0  0  0
 15  7  1  0  0  0
 22 17  1  0  0  0
 15 10  1  0  0  0
 32 35  1  0  0  0
M  END
> <minimizedAffinity>
-10.37073

> <CNNscore>
0.2736606002

> <CNNaffinity>
6.9543561935

> <CNN_VS>
1.9031332731

> <CNNaffinity_variance>
0.2268321514

$$$$
[H]OC(=O)C([H])(Oc1c([H])c([H])c(-c2c([H])c([H])c(-c3c(C([H])([H])c4c([H])c([H])c([H])c([H])c4[H])sc4c([H])c([H])c([H])c([H])c34)c([H])c2[H])c([H])c1Br)C([H])([H])c1c([H])c([H])c([H])c([H])c1[H]


 42 47  0  0  0  0  0  0  0  0999 V2000
   56.5545   -4.6940   -9.6444 C   0  0  0  0  0  0  0  0  0  0  0  0
   57.1234   -5.4137   -8.6449 C   0  0  0  0  0  0  0  0  0  0  0  0
   56.4655   -5.6647   -7.4550 C   0  0  0  0  0  0  0  0  0  0  0  0
   55.1981   -5.1794   -7.2604 C   0  0  0  0  0  0  0  0  0  0  0  0
   54.6129   -4.4483   -8.2698 C   0  0  0  0  0  0  0  0  0  0  0  0
   55.2597   -4.1919   -9.4607 C   0  0  0  0  0  0  0  0  0  0  0  0
   54.4533   -5.4262   -5.9803 C   0  0  0  0  0  0  0  0  0  0  0  0
   53.1039   -5.6080   -5.9982 C   0  0  0  0  0  0  0  0  0  0  0  0
   52.7412   -5.8550   -4.3222 S   0  0  0  0  0  0  0  0  0  0  0  0
   54.3101   -5.7171   -3.6769 C   0  0  0  0  0  0  0  0  0  0  0  0
   54.8359   -5.7983   -2.3753 C   0  0  0  0  0  0  0  0  0  0  0  0
   56.1811   -5.6403   -2.1542 C   0  0  0  0  0  0  0  0  0  0  0  0
   56.9621   -5.4044   -3.2537 C   0  0  0  0  0  0  0  0  0  0  0  0
   56.4521   -5.3266   -4.5081 C   0  0  0  0  0  0  0  0  0  0  0  0
   55.0808   -5.4817   -4.7817 C   0  0  0  0  0  0  0  0  0  0  0  0
   52.0734   -5.6180   -7.0638 C   0  0  0  0  0  0  0  0  0  0  0  0
   51.2150   -4.4387   -6.9555 C   0  0  0  0  0  0  0  0  0  0  0  0
   50.0882   -4.2877   -6.1934 C   0  0  0  0  0  0  0  0  0  0  0  0
   49.3391   -3.1182   -6.1624 C   0  0  0  0  0  0  0  0  0  0  0  0
   49.7273   -2.0386   -6.9285 C   0  0  0  0  0  0  0  0  0  0  0  0
   50.8596   -2.1511   -7.7118 C   0  0  0  0  0  0  0  0  0  0  0  0
   51.5821   -3.3258   -7.7210 C   0  0  0  0  0  0  0  0  0  0  0  0
   58.5420   -3.8216  -13.3321 C   0  0  0  0  0  0  0  0  0  0  0  0
   59.2305   -4.1192  -12.1277 C   0  0  0  0  0  0  0  0  0  0  0  0
   58.5738   -4.3957  -10.9562 C   0  0  0  0  0  0  0  0  0  0  0  0
   57.2022   -4.3924  -10.9141 C   0  0  0  0  0  0  0  0  0  0  0  0
   56.5318   -4.1102  -12.0545 C   0  0  0  0  0  0  0  0  0  0  0  0
   57.1646   -3.8233  -13.2687 C   0  0  0  0  0  0  0  0  0  0  0  0
   56.0851   -3.4293  -14.7952 Br  0  0  0  0  0  0  0  0  0  0  0  0
   59.3192   -3.5763  -14.3769 O   0  0  0  0  0  0  0  0  0  0  0  0
   60.5724   -3.7070  -14.8641 C   0  0  0  0  0  0  0  0  0  0  0  0
   60.9790   -1.4331  -13.8181 O   0  0  0  0  0  0  0  0  0  0  0  0
   61.4493   -2.6803  -14.1965 C   0  0  0  0  0  0  0  0  0  0  0  0
   62.6355   -2.9641  -13.9781 O   0  0  0  0  0  0  0  0  0  0  0  0
   61.5523   -0.6127  -14.0821 H   0  0  0  0  0  0  0  0  0  0  0  0
   60.6145   -3.5842  -16.3856 C   0  0  0  0  0  0  0  0  0  0  0  0
   59.3233   -3.3404  -17.0339 C   0  0  0  0  0  0  0  0  0  0  0  0
   58.8058   -2.0712  -17.2269 C   0  0  0  0  0  0  0  0  0  0  0  0
   57.6183   -1.8430  -17.8719 C   0  0  0  0  0  0  0  0  0  0  0  0
   56.8984   -2.9250  -18.3543 C   0  0  0  0  0  0  0  0  0  0  0  0
   57.3745   -4.2036  -18.1852 C   0  0  0  0  0  0  0  0  0  0  0  0
   58.5632   -4.3961  -17.5372 C   0  0  0  0  0  0  0  0  0  0  0  0
 32 33  1  0  0  0
 33 34  2  0  0  0
 33 31  1  0  0  0
 31 36  1  0  0  0
 36 37  1  0  0  0
 37 38  2  0  0  0
 38 39  1  0  0  0
 39 40  2  0  0  0
 40 41  1  0  0  0
 41 42  2  0  0  0
 31 30  1  0  0  0
 30 23  1  0  0  0
 23 24  2  0  0  0
 24 25  1  0  0  0
 25 26  2  0  0  0
 26 27  1  0  0  0
 27 28  2  0  0  0
 28 29  1  0  0  0
 26  1  1  0  0  0
  1  2  2  0  0  0
  2  3  1  0  0  0
  3  4  2  0  0  0
  4  5  1  0  0  0
  5  6  2  0  0  0
  4  7  1  0  0  0
  7  8  2  0  0  0
  8 16  1  0  0  0
 16 17  1  0  0  0
 17 18  2  0  0  0
 18 19  1  0  0  0
 19 20  2  0  0  0
 20 21  1  0  0  0
 21 22  2  0  0  0
  8  9  1  0  0  0
  9 10  1  0  0  0
 10 11  2  0  0  0
 11 12  1  0  0  0
 12 13  2  0  0  0
 13 14  1  0  0  0
 14 15  2  0  0  0
 42 37  1  0  0  0
 28 23  1  0  0  0
  6  1  1  0  0  0
 15  7  1  0  0  0
 22 17  1  0  0  0
 15 10  1  0  0  0
 32 35  1  0  0  0
M  END
> <minimizedAffinity>
-10.42227

> <CNNscore>
0.2720652223

> <CNNaffinity>
7.1782898903

> <CNN_VS>
1.9529629946

> <CNNaffinity_variance>
0.1707594097

$$$$
[H]OC(=O)C([H])(Oc1c([H])c([H])c(-c2c([H])c([H])c(-c3c(C([H])([H])c4c([H])c([H])c([H])c([H])c4[H])sc4c([H])c([H])c([H])c([H])c34)c([H])c2[H])c([H])c1Br)C([H])([H])c1c([H])c([H])c([H])c([H])c1[H]


 42 47  0  0  0  0  0  0  0  0999 V2000
   56.0799   -4.6052   -9.5152 C   0  0  0  0  0  0  0  0  0  0  0  0
   54.8118   -4.4163   -9.9590 C   0  0  0  0  0  0  0  0  0  0  0  0
   53.7207   -4.4805   -9.1122 C   0  0  0  0  0  0  0  0  0  0  0  0
   53.9058   -4.7425   -7.7792 C   0  0  0  0  0  0  0  0  0  0  0  0
   55.1896   -4.9351   -7.3202 C   0  0  0  0  0  0  0  0  0  0  0  0
   56.2852   -4.8732   -8.1556 C   0  0  0  0  0  0  0  0  0  0  0  0
   52.7461   -4.8255   -6.8293 C   0  0  0  0  0  0  0  0  0  0  0  0
   52.7060   -5.8037   -5.8827 C   0  0  0  0  0  0  0  0  0  0  0  0
   51.2157   -5.4675   -5.0657 S   0  0  0  0  0  0  0  0  0  0  0  0
   50.7126   -4.1077   -5.9572 C   0  0  0  0  0  0  0  0  0  0  0  0
   49.5885   -3.2654   -5.8931 C   0  0  0  0  0  0  0  0  0  0  0  0
   49.4493   -2.2183   -6.7692 C   0  0  0  0  0  0  0  0  0  0  0  0
   50.4495   -2.0477   -7.6885 C   0  0  0  0  0  0  0  0  0  0  0  0
   51.5328   -2.8618   -7.7479 C   0  0  0  0  0  0  0  0  0  0  0  0
   51.7170   -3.9466   -6.8712 C   0  0  0  0  0  0  0  0  0  0  0  0
   53.5995   -6.9282   -5.5157 C   0  0  0  0  0  0  0  0  0  0  0  0
   54.6214   -6.4809   -4.5697 C   0  0  0  0  0  0  0  0  0  0  0  0
   54.5097   -5.5124   -3.6091 C   0  0  0  0  0  0  0  0  0  0  0  0
   55.5483   -5.1602   -2.7563 C   0  0  0  0  0  0  0  0  0  0  0  0
   56.7646   -5.8028   -2.8607 C   0  0  0  0  0  0  0  0  0  0  0  0
   56.9177   -6.7867   -3.8181 C   0  0  0  0  0  0  0  0  0  0  0  0
   55.8674   -7.1136   -4.6500 C   0  0  0  0  0  0  0  0  0  0  0  0
   59.5158   -4.3989  -12.0573 C   0  0  0  0  0  0  0  0  0  0  0  0
   58.3233   -3.6689  -12.2988 C   0  0  0  0  0  0  0  0  0  0  0  0
   57.2331   -3.7499  -11.4711 C   0  0  0  0  0  0  0  0  0  0  0  0
   57.2647   -4.5567  -10.3617 C   0  0  0  0  0  0  0  0  0  0  0  0
   58.3948   -5.2592  -10.1183 C   0  0  0  0  0  0  0  0  0  0  0  0
   59.5273   -5.2036  -10.9377 C   0  0  0  0  0  0  0  0  0  0  0  0
   61.0477   -6.2641  -10.4744 Br  0  0  0  0  0  0  0  0  0  0  0  0
   60.4780   -4.2130  -12.9492 O   0  0  0  0  0  0  0  0  0  0  0  0
   60.8456   -4.4461  -14.2280 C   0  0  0  0  0  0  0  0  0  0  0  0
   62.4065   -6.1610  -15.2542 O   0  0  0  0  0  0  0  0  0  0  0  0
   62.0851   -5.3021  -14.2156 C   0  0  0  0  0  0  0  0  0  0  0  0
   62.8445   -5.2334  -13.2390 O   0  0  0  0  0  0  0  0  0  0  0  0
   62.6803   -7.1264  -15.0004 H   0  0  0  0  0  0  0  0  0  0  0  0
   61.0587   -3.1526  -15.0110 C   0  0  0  0  0  0  0  0  0  0  0  0
   62.3846   -2.5441  -14.8736 C   0  0  0  0  0  0  0  0  0  0  0  0
   63.3734   -2.6693  -15.8340 C   0  0  0  0  0  0  0  0  0  0  0  0
   64.5979   -2.0637  -15.7233 C   0  0  0  0  0  0  0  0  0  0  0  0
   64.8652   -1.2912  -14.6037 C   0  0  0  0  0  0  0  0  0  0  0  0
   63.9124   -1.1392  -13.6245 C   0  0  0  0  0  0  0  0  0  0  0  0
   62.7007   -1.7570  -13.7663 C   0  0  0  0  0  0  0  0  0  0  0  0
 32 33  1  0  0  0
 33 34  2  0  0  0
 33 31  1  0  0  0
 31 36  1  0  0  0
 36 37  1  0  0  0
 37 38  2  0  0  0
 38 39  1  0  0  0
 39 40  2  0  0  0
 40 41  1  0  0  0
 41 42  2  0  0  0
 31 30  1  0  0  0
 30 23  1  0  0  0
 23 24  2  0  0  0
 24 25  1  0  0  0
 25 26  2  0  0  0
 26 27  1  0  0  0
 27 28  2  0  0  0
 28 29  1  0  0  0
 26  1  1  0  0  0
  1  2  2  0  0  0
  2  3  1  0  0  0
  3  4  2  0  0  0
  4  5  1  0  0  0
  5  6  2  0  0  0
  4  7  1  0  0  0
  7  8  2  0  0  0
  8 16  1  0  0  0
 16 17  1  0  0  0
 17 18  2  0  0  0
 18 19  1  0  0  0
 19 20  2  0  0  0
 20 21  1  0  0  0
 21 22  2  0  0  0
  8  9  1  0  0  0
  9 10  1  0  0  0
 10 11  2  0  0  0
 11 12  1  0  0  0
 12 13  2  0  0  0
 13 14  1  0  0  0
 14 15  2  0  0  0
 42 37  1  0  0  0
 28 23  1  0  0  0
  6  1  1  0  0  0
 15  7  1  0  0  0
 22 17  1  0  0  0
 15 10  1  0  0  0
 32 35  1  0  0  0
M  END
> <minimizedAffinity>
-8.53431

> <CNNscore>
0.2610246837

> <CNNaffinity>
6.8833055496

> <CNN_VS>
1.7967126369

> <CNNaffinity_variance>
0.2990692258

$$$$
[H]OC(=O)C([H])(Oc1c([H])c([H])c(-c2c([H])c([H])c(-c3c(C([H])([H])c4c([H])c([H])c([H])c([H])c4[H])sc4c([H])c([H])c([H])c([H])c34)c([H])c2[H])c([H])c1Br)C([H])([H])c1c([H])c([H])c([H])c([H])c1[H]


 42 47  0  0  0  0  0  0  0  0999 V2000
   56.8577   -4.1616  -11.1315 C   0  0  0  0  0  0  0  0  0  0  0  0
   56.0286   -3.8451  -12.1577 C   0  0  0  0  0  0  0  0  0  0  0  0
   56.5030   -3.5753  -13.4280 C   0  0  0  0  0  0  0  0  0  0  0  0
   57.8502   -3.6240  -13.6780 C   0  0  0  0  0  0  0  0  0  0  0  0
   58.6988   -3.9449  -12.6423 C   0  0  0  0  0  0  0  0  0  0  0  0
   58.2368   -4.2159  -11.3714 C   0  0  0  0  0  0  0  0  0  0  0  0
   58.4043   -3.3321  -15.0426 C   0  0  0  0  0  0  0  0  0  0  0  0
   59.7484   -3.2092  -15.2231 C   0  0  0  0  0  0  0  0  0  0  0  0
   59.8662   -2.8912  -16.9221 S   0  0  0  0  0  0  0  0  0  0  0  0
   58.2131   -2.9280  -17.3254 C   0  0  0  0  0  0  0  0  0  0  0  0
   57.5018   -2.7559  -18.5261 C   0  0  0  0  0  0  0  0  0  0  0  0
   56.1323   -2.8432  -18.5454 C   0  0  0  0  0  0  0  0  0  0  0  0
   55.5151   -3.1027  -17.3511 C   0  0  0  0  0  0  0  0  0  0  0  0
   56.2039   -3.2684  -16.1945 C   0  0  0  0  0  0  0  0  0  0  0  0
   57.6069   -3.1872  -16.1273 C   0  0  0  0  0  0  0  0  0  0  0  0
   60.9263   -3.2892  -14.3267 C   0  0  0  0  0  0  0  0  0  0  0  0
   62.0753   -3.8444  -15.0412 C   0  0  0  0  0  0  0  0  0  0  0  0
   62.2765   -5.1418  -15.4280 C   0  0  0  0  0  0  0  0  0  0  0  0
   63.4113   -5.5686  -16.1061 C   0  0  0  0  0  0  0  0  0  0  0  0
   64.4017   -4.6604  -16.4183 C   0  0  0  0  0  0  0  0  0  0  0  0
   64.2364   -3.3407  -16.0451 C   0  0  0  0  0  0  0  0  0  0  0  0
   63.0981   -2.9480  -15.3726 C   0  0  0  0  0  0  0  0  0  0  0  0
   55.6487   -5.0214   -7.1179 C   0  0  0  0  0  0  0  0  0  0  0  0
   56.9880   -5.1415   -7.5704 C   0  0  0  0  0  0  0  0  0  0  0  0
   57.3540   -4.8612   -8.8618 C   0  0  0  0  0  0  0  0  0  0  0  0
   56.4152   -4.4475   -9.7731 C   0  0  0  0  0  0  0  0  0  0  0  0
   55.1339   -4.3284   -9.3564 C   0  0  0  0  0  0  0  0  0  0  0  0
   54.7208   -4.6046   -8.0487 C   0  0  0  0  0  0  0  0  0  0  0  0
   52.8722   -4.4042   -7.6090 Br  0  0  0  0  0  0  0  0  0  0  0  0
   55.4573   -5.3294   -5.8433 O   0  0  0  0  0  0  0  0  0  0  0  0
   56.0790   -5.5434   -4.6632 C   0  0  0  0  0  0  0  0  0  0  0  0
   57.8249   -7.3820   -4.7002 O   0  0  0  0  0  0  0  0  0  0  0  0
   56.4998   -6.9886   -4.6052 C   0  0  0  0  0  0  0  0  0  0  0  0
   55.6263   -7.8564   -4.4669 O   0  0  0  0  0  0  0  0  0  0  0  0
   58.0421   -8.1539   -5.3548 H   0  0  0  0  0  0  0  0  0  0  0  0
   55.2025   -5.1607   -3.4728 C   0  0  0  0  0  0  0  0  0  0  0  0
   55.8745   -5.1588   -2.1706 C   0  0  0  0  0  0  0  0  0  0  0  0
   55.3545   -5.7911   -1.0545 C   0  0  0  0  0  0  0  0  0  0  0  0
   56.0053   -5.8247    0.1512 C   0  0  0  0  0  0  0  0  0  0  0  0
   57.2377   -5.2004    0.2657 C   0  0  0  0  0  0  0  0  0  0  0  0
   57.7923   -4.5602   -0.8171 C   0  0  0  0  0  0  0  0  0  0  0  0
   57.1165   -4.5457   -2.0059 C   0  0  0  0  0  0  0  0  0  0  0  0
 32 33  1  0  0  0
 33 34  2  0  0  0
 33 31  1  0  0  0
 31 36  1  0  0  0
 36 37  1  0  0  0
 37 38  2  0  0  0
 38 39  1  0  0  0
 39 40  2  0  0  0
 40 41  1  0  0  0
 41 42  2  0  0  0
 31 30  1  0  0  0
 30 23  1  0  0  0
 23 24  2  0  0  0
 24 25  1  0  0  0
 25 26  2  0  0  0
 26 27  1  0  0  0
 27 28  2  0  0  0
 28 29  1  0  0  0
 26  1  1  0  0  0
  1  2  2  0  0  0
  2  3  1  0  0  0
  3  4  2  0  0  0
  4  5  1  0  0  0
  5  6  2  0  0  0
  4  7  1  0  0  0
  7  8  2  0  0  0
  8 16  1  0  0  0
 16 17  1  0  0  0
 17 18  2  0  0  0
 18 19  1  0  0  0
 19 20  2  0  0  0
 20 21  1  0  0  0
 21 22  2  0  0  0
  8  9  1  0  0  0
  9 10  1  0  0  0
 10 11  2  0  0  0
 11 12  1  0  0  0
 12 13  2  0  0  0
 13 14  1  0  0  0
 14 15  2  0  0  0
 42 37  1  0  0  0
 28 23  1  0  0  0
  6  1  1  0  0  0
 15  7  1  0  0  0
 22 17  1  0  0  0
 15 10  1  0  0  0
 32 35  1  0  0  0
M  END
> <minimizedAffinity>
-8.69940

> <CNNscore>
0.2579915524

> <CNNaffinity>
6.0839333534

> <CNN_VS>
1.5696034431

> <CNNaffinity_variance>
0.4973936081

$$$$
[H]OC(=O)C([H])(Oc1c([H])c([H])c(-c2c([H])c([H])c(-c3c(C([H])([H])c4c([H])c([H])c([H])c([H])c4[H])sc4c([H])c([H])c([H])c([H])c34)c([H])c2[H])c([H])c1Br)C([H])([H])c1c([H])c([H])c([H])c([H])c1[H]


 42 47  0  0  0  0  0  0  0  0999 V2000
   56.5202   -4.6997   -9.5410 C   0  0  0  0  0  0  0  0  0  0  0  0
   57.1086   -5.3654   -8.5157 C   0  0  0  0  0  0  0  0  0  0  0  0
   56.4434   -5.6256   -7.3319 C   0  0  0  0  0  0  0  0  0  0  0  0
   55.1483   -5.2056   -7.1701 C   0  0  0  0  0  0  0  0  0  0  0  0
   54.5433   -4.5296   -8.2058 C   0  0  0  0  0  0  0  0  0  0  0  0
   55.1970   -4.2646   -9.3910 C   0  0  0  0  0  0  0  0  0  0  0  0
   54.3946   -5.4643   -5.8977 C   0  0  0  0  0  0  0  0  0  0  0  0
   53.0464   -5.6534   -5.9277 C   0  0  0  0  0  0  0  0  0  0  0  0
   52.6715   -5.9127   -4.2562 S   0  0  0  0  0  0  0  0  0  0  0  0
   54.2343   -5.7701   -3.5973 C   0  0  0  0  0  0  0  0  0  0  0  0
   54.7500   -5.8565   -2.2920 C   0  0  0  0  0  0  0  0  0  0  0  0
   56.0924   -5.6924   -2.0589 C   0  0  0  0  0  0  0  0  0  0  0  0
   56.8810   -5.4455   -3.1506 C   0  0  0  0  0  0  0  0  0  0  0  0
   56.3808   -5.3628   -4.4087 C   0  0  0  0  0  0  0  0  0  0  0  0
   55.0126   -5.5238   -4.6944 C   0  0  0  0  0  0  0  0  0  0  0  0
   52.0246   -5.6625   -7.0017 C   0  0  0  0  0  0  0  0  0  0  0  0
   51.2947   -4.3953   -7.0232 C   0  0  0  0  0  0  0  0  0  0  0  0
   51.5678   -3.2817   -7.7706 C   0  0  0  0  0  0  0  0  0  0  0  0
   50.8072   -2.1205   -7.7158 C   0  0  0  0  0  0  0  0  0  0  0  0
   49.7158   -2.0588   -6.8743 C   0  0  0  0  0  0  0  0  0  0  0  0
   49.4066   -3.1623   -6.1030 C   0  0  0  0  0  0  0  0  0  0  0  0
   50.1815   -4.3006   -6.1798 C   0  0  0  0  0  0  0  0  0  0  0  0
   58.5251   -3.8062  -13.2142 C   0  0  0  0  0  0  0  0  0  0  0  0
   59.2080   -4.0942  -12.0042 C   0  0  0  0  0  0  0  0  0  0  0  0
   58.5456   -4.3777  -10.8375 C   0  0  0  0  0  0  0  0  0  0  0  0
   57.1739   -4.3912  -10.8060 C   0  0  0  0  0  0  0  0  0  0  0  0
   56.5088   -4.1184  -11.9518 C   0  0  0  0  0  0  0  0  0  0  0  0
   57.1474   -3.8248  -13.1614 C   0  0  0  0  0  0  0  0  0  0  0  0
   56.0749   -3.4456  -14.6966 Br  0  0  0  0  0  0  0  0  0  0  0  0
   59.3073   -3.5523  -14.2532 O   0  0  0  0  0  0  0  0  0  0  0  0
   60.4838   -3.8630  -14.8399 C   0  0  0  0  0  0  0  0  0  0  0  0
   62.7455   -3.5981  -13.7242 O   0  0  0  0  0  0  0  0  0  0  0  0
   61.5671   -3.0401  -14.1933 C   0  0  0  0  0  0  0  0  0  0  0  0
   61.3961   -1.8184  -14.0779 O   0  0  0  0  0  0  0  0  0  0  0  0
   63.0502   -3.3264  -12.7730 H   0  0  0  0  0  0  0  0  0  0  0  0
   60.4446   -3.6588  -16.3528 C   0  0  0  0  0  0  0  0  0  0  0  0
   61.6912   -3.9596  -17.0616 C   0  0  0  0  0  0  0  0  0  0  0  0
   62.2213   -5.2356  -17.1435 C   0  0  0  0  0  0  0  0  0  0  0  0
   63.3645   -5.5218  -17.8432 C   0  0  0  0  0  0  0  0  0  0  0  0
   64.0241   -4.4943  -18.4994 C   0  0  0  0  0  0  0  0  0  0  0  0
   63.5334   -3.2113  -18.4452 C   0  0  0  0  0  0  0  0  0  0  0  0
   62.3901   -2.9600  -17.7383 C   0  0  0  0  0  0  0  0  0  0  0  0
 32 33  1  0  0  0
 33 34  2  0  0  0
 33 31  1  0  0  0
 31 36  1  0  0  0
 36 37  1  0  0  0
 37 38  2  0  0  0
 38 39  1  0  0  0
 39 40  2  0  0  0
 40 41  1  0  0  0
 41 42  2  0  0  0
 31 30  1  0  0  0
 30 23  1  0  0  0
 23 24  2  0  0  0
 24 25  1  0  0  0
 25 26  2  0  0  0
 26 27  1  0  0  0
 27 28  2  0  0  0
 28 29  1  0  0  0
 26  1  1  0  0  0
  1  2  2  0  0  0
  2  3  1  0  0  0
  3  4  2  0  0  0
  4  5  1  0  0  0
  5  6  2  0  0  0
  4  7  1  0  0  0
  7  8  2  0  0  0
  8 16  1  0  0  0
 16 17  1  0  0  0
 17 18  2  0  0  0
 18 19  1  0  0  0
 19 20  2  0  0  0
 20 21  1  0  0  0
 21 22  2  0  0  0
  8  9  1  0  0  0
  9 10  1  0  0  0
 10 11  2  0  0  0
 11 12  1  0  0  0
 12 13  2  0  0  0
 13 14  1  0  0  0
 14 15  2  0  0  0
 42 37  1  0  0  0
 28 23  1  0  0  0
  6  1  1  0  0  0
 15  7  1  0  0  0
 22 17  1  0  0  0
 15 10  1  0  0  0
 32 35  1  0  0  0
M  END
> <minimizedAffinity>
-9.76115

> <CNNscore>
0.2536147535

> <CNNaffinity>
7.0903387070

> <CNN_VS>
1.7982145548

> <CNNaffinity_variance>
0.2368398160

$$$$
[H]OC(=O)C([H])(Oc1c([H])c([H])c(-c2c([H])c([H])c(-c3c(C([H])([H])c4c([H])c([H])c([H])c([H])c4[H])sc4c([H])c([H])c([H])c([H])c34)c([H])c2[H])c([H])c1Br)C([H])([H])c1c([H])c([H])c([H])c([H])c1[H]


 42 47  0  0  0  0  0  0  0  0999 V2000
   56.1832   -4.7837   -8.7610 C   0  0  0  0  0  0  0  0  0  0  0  0
   54.9262   -4.3207   -8.5457 C   0  0  0  0  0  0  0  0  0  0  0  0
   54.2631   -4.5262   -7.3500 C   0  0  0  0  0  0  0  0  0  0  0  0
   54.8785   -5.2173   -6.3384 C   0  0  0  0  0  0  0  0  0  0  0  0
   56.1544   -5.6903   -6.5481 C   0  0  0  0  0  0  0  0  0  0  0  0
   56.8254   -5.4912   -7.7365 C   0  0  0  0  0  0  0  0  0  0  0  0
   54.1894   -5.4655   -5.0278 C   0  0  0  0  0  0  0  0  0  0  0  0
   52.8605   -5.7614   -4.9990 C   0  0  0  0  0  0  0  0  0  0  0  0
   52.5617   -5.9588   -3.3039 S   0  0  0  0  0  0  0  0  0  0  0  0
   54.1284   -5.6584   -2.7104 C   0  0  0  0  0  0  0  0  0  0  0  0
   54.6912   -5.6334   -1.4220 C   0  0  0  0  0  0  0  0  0  0  0  0
   56.0229   -5.3519   -1.2468 C   0  0  0  0  0  0  0  0  0  0  0  0
   56.7534   -5.1029   -2.3777 C   0  0  0  0  0  0  0  0  0  0  0  0
   56.2079   -5.1279   -3.6192 C   0  0  0  0  0  0  0  0  0  0  0  0
   54.8486   -5.4111   -3.8463 C   0  0  0  0  0  0  0  0  0  0  0  0
   51.8087   -5.9088   -6.0331 C   0  0  0  0  0  0  0  0  0  0  0  0
   50.9355   -4.7355   -6.0446 C   0  0  0  0  0  0  0  0  0  0  0  0
   50.8610   -3.7538   -6.9953 C   0  0  0  0  0  0  0  0  0  0  0  0
   49.9917   -2.6735   -6.9101 C   0  0  0  0  0  0  0  0  0  0  0  0
   49.1497   -2.5592   -5.8233 C   0  0  0  0  0  0  0  0  0  0  0  0
   49.1944   -3.5300   -4.8416 C   0  0  0  0  0  0  0  0  0  0  0  0
   50.0687   -4.5906   -4.9550 C   0  0  0  0  0  0  0  0  0  0  0  0
   58.4449   -4.2855  -12.3591 C   0  0  0  0  0  0  0  0  0  0  0  0
   59.0145   -4.7228  -11.1354 C   0  0  0  0  0  0  0  0  0  0  0  0
   58.2713   -4.8754   -9.9932 C   0  0  0  0  0  0  0  0  0  0  0  0
   56.9263   -4.6038  -10.0012 C   0  0  0  0  0  0  0  0  0  0  0  0
   56.3689   -4.1858  -11.1606 C   0  0  0  0  0  0  0  0  0  0  0  0
   57.0924   -4.0179  -12.3461 C   0  0  0  0  0  0  0  0  0  0  0  0
   56.1709   -3.4068  -13.9044 Br  0  0  0  0  0  0  0  0  0  0  0  0
   59.2952   -4.1882  -13.3708 O   0  0  0  0  0  0  0  0  0  0  0  0
   60.1775   -3.3699  -13.9847 C   0  0  0  0  0  0  0  0  0  0  0  0
   59.3351   -1.7386  -15.7338 O   0  0  0  0  0  0  0  0  0  0  0  0
   59.6404   -3.0349  -15.3516 C   0  0  0  0  0  0  0  0  0  0  0  0
   59.4664   -3.9548  -16.1631 O   0  0  0  0  0  0  0  0  0  0  0  0
   58.4195   -1.5850  -16.1915 H   0  0  0  0  0  0  0  0  0  0  0  0
   61.5746   -3.9818  -14.0597 C   0  0  0  0  0  0  0  0  0  0  0  0
   62.6274   -3.0896  -14.5522 C   0  0  0  0  0  0  0  0  0  0  0  0
   63.0548   -1.9730  -13.8550 C   0  0  0  0  0  0  0  0  0  0  0  0
   64.0692   -1.1642  -14.2968 C   0  0  0  0  0  0  0  0  0  0  0  0
   64.6989   -1.4711  -15.4930 C   0  0  0  0  0  0  0  0  0  0  0  0
   64.3071   -2.5709  -16.2189 C   0  0  0  0  0  0  0  0  0  0  0  0
   63.2916   -3.3571  -15.7493 C   0  0  0  0  0  0  0  0  0  0  0  0
 32 33  1  0  0  0
 33 34  2  0  0  0
 33 31  1  0  0  0
 31 36  1  0  0  0
 36 37  1  0  0  0
 37 38  2  0  0  0
 38 39  1  0  0  0
 39 40  2  0  0  0
 40 41  1  0  0  0
 41 42  2  0  0  0
 31 30  1  0  0  0
 30 23  1  0  0  0
 23 24  2  0  0  0
 24 25  1  0  0  0
 25 26  2  0  0  0
 26 27  1  0  0  0
 27 28  2  0  0  0
 28 29  1  0  0  0
 26  1  1  0  0  0
  1  2  2  0  0  0
  2  3  1  0  0  0
  3  4  2  0  0  0
  4  5  1  0  0  0
  5  6  2  0  0  0
  4  7  1  0  0  0
  7  8  2  0  0  0
  8 16  1  0  0  0
 16 17  1  0  0  0
 17 18  2  0  0  0
 18 19  1  0  0  0
 19 20  2  0  0  0
 20 21  1  0  0  0
 21 22  2  0  0  0
  8  9  1  0  0  0
  9 10  1  0  0  0
 10 11  2  0  0  0
 11 12  1  0  0  0
 12 13  2  0  0  0
 13 14  1  0  0  0
 14 15  2  0  0  0
 42 37  1  0  0  0
 28 23  1  0  0  0
  6  1  1  0  0  0
 15  7  1  0  0  0
 22 17  1  0  0  0
 15 10  1  0  0  0
 32 35  1  0  0  0
M  END
> <minimizedAffinity>
-11.29475

> <CNNscore>
0.2431767881

> <CNNaffinity>
6.8585066795

> <CNN_VS>
1.6678296328

> <CNNaffinity_variance>
0.2092956007

$$$$
[H]OC(=O)C([H])(Oc1c([H])c([H])c(-c2c([H])c([H])c(-c3c(C([H])([H])c4c([H])c([H])c([H])c([H])c4[H])sc4c([H])c([H])c([H])c([H])c34)c([H])c2[H])c([H])c1Br)C([H])([H])c1c([H])c([H])c([H])c([H])c1[H]


 42 47  0  0  0  0  0  0  0  0999 V2000
   55.7003   -4.4214   -9.9788 C   0  0  0  0  0  0  0  0  0  0  0  0
   56.0977   -4.8089   -8.7408 C   0  0  0  0  0  0  0  0  0  0  0  0
   55.2045   -4.9554   -7.6957 C   0  0  0  0  0  0  0  0  0  0  0  0
   53.8715   -4.7058   -7.8971 C   0  0  0  0  0  0  0  0  0  0  0  0
   53.4594   -4.3125   -9.1506 C   0  0  0  0  0  0  0  0  0  0  0  0
   54.3414   -4.1632  -10.2004 C   0  0  0  0  0  0  0  0  0  0  0  0
   52.8717   -4.8484   -6.7861 C   0  0  0  0  0  0  0  0  0  0  0  0
   53.0704   -5.7673   -5.8009 C   0  0  0  0  0  0  0  0  0  0  0  0
   51.6812   -5.5348   -4.7921 S   0  0  0  0  0  0  0  0  0  0  0  0
   50.9142   -4.2885   -5.6612 C   0  0  0  0  0  0  0  0  0  0  0  0
   49.7254   -3.5616   -5.4724 C   0  0  0  0  0  0  0  0  0  0  0  0
   49.3526   -2.5881   -6.3650 C   0  0  0  0  0  0  0  0  0  0  0  0
   50.1902   -2.3728   -7.4264 C   0  0  0  0  0  0  0  0  0  0  0  0
   51.3364   -3.0756   -7.6059 C   0  0  0  0  0  0  0  0  0  0  0  0
   51.7577   -4.0818   -6.7175 C   0  0  0  0  0  0  0  0  0  0  0  0
   54.1230   -6.7719   -5.5174 C   0  0  0  0  0  0  0  0  0  0  0  0
   54.7427   -6.5100   -4.2188 C   0  0  0  0  0  0  0  0  0  0  0  0
   54.7226   -7.3034   -3.1037 C   0  0  0  0  0  0  0  0  0  0  0  0
   55.3465   -6.9595   -1.9112 C   0  0  0  0  0  0  0  0  0  0  0  0
   56.0281   -5.7637   -1.8177 C   0  0  0  0  0  0  0  0  0  0  0  0
   56.0717   -4.9343   -2.9216 C   0  0  0  0  0  0  0  0  0  0  0  0
   55.4420   -5.3041   -4.0916 C   0  0  0  0  0  0  0  0  0  0  0  0
   58.4071   -3.9132  -13.2538 C   0  0  0  0  0  0  0  0  0  0  0  0
   58.8327   -4.1542  -11.9219 C   0  0  0  0  0  0  0  0  0  0  0  0
   57.9479   -4.3138  -10.8865 C   0  0  0  0  0  0  0  0  0  0  0  0
   56.5965   -4.2435  -11.1137 C   0  0  0  0  0  0  0  0  0  0  0  0
   56.1755   -4.0141  -12.3785 C   0  0  0  0  0  0  0  0  0  0  0  0
   57.0456   -3.8461  -13.4610 C   0  0  0  0  0  0  0  0  0  0  0  0
   56.3046   -3.5145  -15.1906 Br  0  0  0  0  0  0  0  0  0  0  0  0
   59.3837   -3.7811  -14.1397 O   0  0  0  0  0  0  0  0  0  0  0  0
   60.1373   -2.8847  -14.8131 C   0  0  0  0  0  0  0  0  0  0  0  0
   59.4252   -4.2647  -16.8177 O   0  0  0  0  0  0  0  0  0  0  0  0
   59.8923   -3.0730  -16.2873 C   0  0  0  0  0  0  0  0  0  0  0  0
   60.1173   -2.1248  -17.0526 O   0  0  0  0  0  0  0  0  0  0  0  0
   59.9215   -4.6395  -17.6452 H   0  0  0  0  0  0  0  0  0  0  0  0
   61.6197   -3.0023  -14.4660 C   0  0  0  0  0  0  0  0  0  0  0  0
   62.1634   -4.3630  -14.4774 C   0  0  0  0  0  0  0  0  0  0  0  0
   62.5815   -4.9967  -15.6347 C   0  0  0  0  0  0  0  0  0  0  0  0
   63.1296   -6.2529  -15.6376 C   0  0  0  0  0  0  0  0  0  0  0  0
   63.2742   -6.9242  -14.4335 C   0  0  0  0  0  0  0  0  0  0  0  0
   62.8725   -6.3331  -13.2592 C   0  0  0  0  0  0  0  0  0  0  0  0
   62.3297   -5.0784  -13.2916 C   0  0  0  0  0  0  0  0  0  0  0  0
 32 33  1  0  0  0
 33 34  2  0  0  0
 33 31  1  0  0  0
 31 36  1  0  0  0
 36 37  1  0  0  0
 37 38  2  0  0  0
 38 39  1  0  0  0
 39 40  2  0  0  0
 40 41  1  0  0  0
 41 42  2  0  0  0
 31 30  1  0  0  0
 30 23  1  0  0  0
 23 24  2  0  0  0
 24 25  1  0  0  0
 25 26  2  0  0  0
 26 27  1  0  0  0
 27 28  2  0  0  0
 28 29  1  0  0  0
 26  1  1  0  0  0
  1  2  2  0  0  0
  2  3  1  0  0  0
  3  4  2  0  0  0
  4  5  1  0  0  0
  5  6  2  0  0  0
  4  7  1  0  0  0
  7  8  2  0  0  0
  8 16  1  0  0  0
 16 17  1  0  0  0
 17 18  2  0  0  0
 18 19  1  0  0  0
 19 20  2  0  0  0
 20 21  1  0  0  0
 21 22  2  0  0  0
  8  9  1  0  0  0
  9 10  1  0  0  0
 10 11  2  0  0  0
 11 12  1  0  0  0
 12 13  2  0  0  0
 13 14  1  0  0  0
 14 15  2  0  0  0
 42 37  1  0  0  0
 28 23  1  0  0  0
  6  1  1  0  0  0
 15  7  1  0  0  0
 22 17  1  0  0  0
 15 10  1  0  0  0
 32 35  1  0  0  0
M  END
> <minimizedAffinity>
-11.04164

> <CNNscore>
0.2384231091

> <CNNaffinity>
7.0264101028

> <CNN_VS>
1.6752585173

> <CNNaffinity_variance>
0.2156797647

$$$$
[H]OC(=O)C([H])(Oc1c([H])c([H])c(-c2c([H])c([H])c(-c3c(C([H])([H])c4c([H])c([H])c([H])c([H])c4[H])sc4c([H])c([H])c([H])c([H])c34)c([H])c2[H])c([H])c1Br)C([H])([H])c1c([H])c([H])c([H])c([H])c1[H]


 42 47  0  0  0  0  0  0  0  0999 V2000
   55.5362   -4.3617   -9.8430 C   0  0  0  0  0  0  0  0  0  0  0  0
   54.2260   -4.0653  -10.0330 C   0  0  0  0  0  0  0  0  0  0  0  0
   53.2879   -4.2086   -9.0275 C   0  0  0  0  0  0  0  0  0  0  0  0
   53.6744   -4.6633   -7.7932 C   0  0  0  0  0  0  0  0  0  0  0  0
   55.0024   -4.9661   -7.5915 C   0  0  0  0  0  0  0  0  0  0  0  0
   55.9467   -4.8269   -8.5869 C   0  0  0  0  0  0  0  0  0  0  0  0
   52.6846   -4.8373   -6.6777 C   0  0  0  0  0  0  0  0  0  0  0  0
   52.8980   -5.7753   -5.7140 C   0  0  0  0  0  0  0  0  0  0  0  0
   51.5152   -5.5751   -4.6897 S   0  0  0  0  0  0  0  0  0  0  0  0
   50.7319   -4.3165   -5.5259 C   0  0  0  0  0  0  0  0  0  0  0  0
   49.5392   -3.6030   -5.3123 C   0  0  0  0  0  0  0  0  0  0  0  0
   49.1520   -2.6136   -6.1810 C   0  0  0  0  0  0  0  0  0  0  0  0
   49.9796   -2.3693   -7.2441 C   0  0  0  0  0  0  0  0  0  0  0  0
   51.1295   -3.0592   -7.4475 C   0  0  0  0  0  0  0  0  0  0  0  0
   51.5654   -4.0809   -6.5841 C   0  0  0  0  0  0  0  0  0  0  0  0
   53.9603   -6.7777   -5.4603 C   0  0  0  0  0  0  0  0  0  0  0  0
   54.6618   -6.4741   -4.2133 C   0  0  0  0  0  0  0  0  0  0  0  0
   55.3972   -5.3594   -3.9137 C   0  0  0  0  0  0  0  0  0  0  0  0
   56.0286   -5.1676   -2.6912 C   0  0  0  0  0  0  0  0  0  0  0  0
   55.9259   -6.1332   -1.7113 C   0  0  0  0  0  0  0  0  0  0  0  0
   55.1921   -7.2735   -1.9747 C   0  0  0  0  0  0  0  0  0  0  0  0
   54.5770   -7.4346   -3.1985 C   0  0  0  0  0  0  0  0  0  0  0  0
   58.6265   -4.0166  -12.7826 C   0  0  0  0  0  0  0  0  0  0  0  0
   58.8806   -4.2931  -11.4143 C   0  0  0  0  0  0  0  0  0  0  0  0
   57.8749   -4.3992  -10.4883 C   0  0  0  0  0  0  0  0  0  0  0  0
   56.5658   -4.2375  -10.8663 C   0  0  0  0  0  0  0  0  0  0  0  0
   56.3078   -3.9733  -12.1676 C   0  0  0  0  0  0  0  0  0  0  0  0
   57.3049   -3.8575  -13.1420 C   0  0  0  0  0  0  0  0  0  0  0  0
   56.7895   -3.4672  -14.9400 Br  0  0  0  0  0  0  0  0  0  0  0  0
   59.7043   -3.9448  -13.5501 O   0  0  0  0  0  0  0  0  0  0  0  0
   61.0357   -3.7161  -13.5496 C   0  0  0  0  0  0  0  0  0  0  0  0
   61.1921   -1.1854  -13.5113 O   0  0  0  0  0  0  0  0  0  0  0  0
   61.2871   -2.3823  -14.2029 C   0  0  0  0  0  0  0  0  0  0  0  0
   61.5906   -2.3570  -15.4039 O   0  0  0  0  0  0  0  0  0  0  0  0
   60.6492   -0.4250  -13.9568 H   0  0  0  0  0  0  0  0  0  0  0  0
   61.8130   -4.8376  -14.2349 C   0  0  0  0  0  0  0  0  0  0  0  0
   62.9329   -5.3884  -13.4670 C   0  0  0  0  0  0  0  0  0  0  0  0
   64.2566   -5.1172  -13.7668 C   0  0  0  0  0  0  0  0  0  0  0  0
   65.3011   -5.5985  -13.0213 C   0  0  0  0  0  0  0  0  0  0  0  0
   65.0279   -6.3922  -11.9182 C   0  0  0  0  0  0  0  0  0  0  0  0
   63.7277   -6.6874  -11.5831 C   0  0  0  0  0  0  0  0  0  0  0  0
   62.7089   -6.1907  -12.3482 C   0  0  0  0  0  0  0  0  0  0  0  0
 32 33  1  0  0  0
 33 34  2  0  0  0
 33 31  1  0  0  0
 31 36  1  0  0  0
 36 37  1  0  0  0
 37 38  2  0  0  0
 38 39  1  0  0  0
 39 40  2  0  0  0
 40 41  1  0  0  0
 41 42  2  0  0  0
 31 30  1  0  0  0
 30 23  1  0  0  0
 23 24  2  0  0  0
 24 25  1  0  0  0
 25 26  2  0  0  0
 26 27  1  0  0  0
 27 28  2  0  0  0
 28 29  1  0  0  0
 26  1  1  0  0  0
  1  2  2  0  0  0
  2  3  1  0  0  0
  3  4  2  0  0  0
  4  5  1  0  0  0
  5  6  2  0  0  0
  4  7  1  0  0  0
  7  8  2  0  0  0
  8 16  1  0  0  0
 16 17  1  0  0  0
 17 18  2  0  0  0
 18 19  1  0  0  0
 19 20  2  0  0  0
 20 21  1  0  0  0
 21 22  2  0  0  0
  8  9  1  0  0  0
  9 10  1  0  0  0
 10 11  2  0  0  0
 11 12  1  0  0  0
 12 13  2  0  0  0
 13 14  1  0  0  0
 14 15  2  0  0  0
 42 37  1  0  0  0
 28 23  1  0  0  0
  6  1  1  0  0  0
 15  7  1  0  0  0
 22 17  1  0  0  0
 15 10  1  0  0  0
 32 35  1  0  0  0
M  END
> <minimizedAffinity>
-10.92151

> <CNNscore>
0.2364869267

> <CNNaffinity>
6.9464454651

> <CNN_VS>
1.6427435875

> <CNNaffinity_variance>
0.2026124001

$$$$
[H]O[C@]([H])(C([H])([H])[H])[C@@]([H])(C(=O)N([H])S(=O)(=O)c1c([H])c([H])c([H])c(-c2c([H])c(F)c([H])c(F)c2[H])c1[H])N([H])[H]


 29 30  0  0  0  0  0  0  0  0999 V2000
   57.0946   -4.1490  -12.8546 S   0  0  0  0  0  0  0  0  0  0  0  0
   56.1277   -3.0997  -13.2836 O   0  0  0  0  0  0  0  0  0  0  0  0
   56.9213   -5.4105  -13.6459 O   0  0  0  0  0  0  0  0  0  0  0  0
   56.9001   -4.4190  -11.1429 C   0  0  0  0  0  0  0  0  0  0  0  0
   57.9472   -4.8657  -10.3997 C   0  0  0  0  0  0  0  0  0  0  0  0
   57.7470   -5.0670   -9.0419 C   0  0  0  0  0  0  0  0  0  0  0  0
   56.5136   -4.8161   -8.4773 C   0  0  0  0  0  0  0  0  0  0  0  0
   55.4401   -4.3587   -9.2363 C   0  0  0  0  0  0  0  0  0  0  0  0
   55.6632   -4.1664  -10.5825 C   0  0  0  0  0  0  0  0  0  0  0  0
   54.1472   -4.1018   -8.6112 C   0  0  0  0  0  0  0  0  0  0  0  0
   53.4645   -2.9486   -8.9151 C   0  0  0  0  0  0  0  0  0  0  0  0
   52.2271   -2.7175   -8.3082 C   0  0  0  0  0  0  0  0  0  0  0  0
   51.5644   -1.5764   -8.6171 F   0  0  0  0  0  0  0  0  0  0  0  0
   51.7019   -3.6275   -7.4227 C   0  0  0  0  0  0  0  0  0  0  0  0
   52.3654   -4.7775   -7.1093 C   0  0  0  0  0  0  0  0  0  0  0  0
   51.8254   -5.6533   -6.2360 F   0  0  0  0  0  0  0  0  0  0  0  0
   53.5931   -4.9950   -7.7188 C   0  0  0  0  0  0  0  0  0  0  0  0
   59.1777   -3.4320  -14.4104 C   0  0  0  0  0  0  0  0  0  0  0  0
   58.3844   -3.7095  -15.3555 O   0  0  0  0  0  0  0  0  0  0  0  0
   58.7318   -3.5861  -13.0890 N   0  0  0  0  0  0  0  0  0  0  0  0
   59.3509   -3.3832  -12.2977 H   0  0  0  0  0  0  0  0  0  0  0  0
   60.5350   -2.9616  -14.6919 C   0  0  0  0  0  0  0  0  0  0  0  0
   60.8954   -1.9148  -13.7423 N   0  0  0  0  0  0  0  0  0  0  0  0
   60.4809   -2.0440  -12.8200 H   0  0  0  0  0  0  0  0  0  0  0  0
   60.8514   -0.9784  -14.1468 H   0  0  0  0  0  0  0  0  0  0  0  0
   62.9383   -3.6172  -14.7210 C   0  0  0  0  0  0  0  0  0  0  0  0
   61.5117   -4.1095  -14.6072 C   0  0  0  0  0  0  0  0  0  0  0  0
   61.2741   -4.8126  -13.4412 O   0  0  0  0  0  0  0  0  0  0  0  0
   62.0585   -5.3661  -13.1709 H   0  0  0  0  0  0  0  0  0  0  0  0
 26 27  1  0  0  0
 27 28  1  0  0  0
 27 22  1  0  0  0
 22 23  1  0  0  0
 22 18  1  0  0  0
 18 19  2  0  0  0
 18 20  1  0  0  0
 20  1  1  0  0  0
  1  2  2  0  0  0
  1  3  2  0  0  0
  1  4  1  0  0  0
  4  5  2  0  0  0
  5  6  1  0  0  0
  6  7  2  0  0  0
  7  8  1  0  0  0
  8  9  2  0  0  0
  8 10  1  0  0  0
 10 11  2  0  0  0
 11 12  1  0  0  0
 12 13  1  0  0  0
 12 14  2  0  0  0
 14 15  1  0  0  0
 15 16  1  0  0  0
 15 17  2  0  0  0
  9  4  1  0  0  0
 17 10  1  0  0  0
 28 29  1  0  0  0
 23 24  1  0  0  0
 23 25  1  0  0  0
 20 21  1  0  0  0
M  END
> <minimizedAffinity>
-9.15175

> <CNNscore>
0.3538036942

> <CNNaffinity>
5.5159025192

> <CNN_VS>
1.9515466690

> <CNNaffinity_variance>
0.0565231331

$$$$
[H]O[C@]([H])(C([H])([H])[H])[C@@]([H])(C(=O)N([H])S(=O)(=O)c1c([H])c([H])c([H])c(-c2c([H])c(F)c([H])c(F)c2[H])c1[H])N([H])[H]


 29 30  0  0  0  0  0  0  0  0999 V2000
   55.8148   -4.1216   -9.4738 S   0  0  0  0  0  0  0  0  0  0  0  0
   56.0261   -5.5957   -9.4235 O   0  0  0  0  0  0  0  0  0  0  0  0
   56.8841   -3.3888   -8.7208 O   0  0  0  0  0  0  0  0  0  0  0  0
   54.2221   -3.7661   -8.8598 C   0  0  0  0  0  0  0  0  0  0  0  0
   53.4308   -2.8636   -9.4983 C   0  0  0  0  0  0  0  0  0  0  0  0
   52.1713   -2.6115   -8.9743 C   0  0  0  0  0  0  0  0  0  0  0  0
   51.7490   -3.2670   -7.8363 C   0  0  0  0  0  0  0  0  0  0  0  0
   52.5574   -4.1914   -7.1808 C   0  0  0  0  0  0  0  0  0  0  0  0
   53.8039   -4.4250   -7.7201 C   0  0  0  0  0  0  0  0  0  0  0  0
   52.0834   -4.8692   -5.9791 C   0  0  0  0  0  0  0  0  0  0  0  0
   50.7893   -4.6776   -5.5586 C   0  0  0  0  0  0  0  0  0  0  0  0
   50.3504   -5.3345   -4.4059 C   0  0  0  0  0  0  0  0  0  0  0  0
   49.0717   -5.1368   -4.0026 F   0  0  0  0  0  0  0  0  0  0  0  0
   51.1981   -6.1578   -3.7048 C   0  0  0  0  0  0  0  0  0  0  0  0
   52.4856   -6.3598   -4.1074 C   0  0  0  0  0  0  0  0  0  0  0  0
   53.2959   -7.1740   -3.3991 F   0  0  0  0  0  0  0  0  0  0  0  0
   52.9090   -5.7018   -5.2536 C   0  0  0  0  0  0  0  0  0  0  0  0
   56.8926   -4.0299  -11.9444 C   0  0  0  0  0  0  0  0  0  0  0  0
   57.7533   -4.8096  -11.4437 O   0  0  0  0  0  0  0  0  0  0  0  0
   55.8468   -3.5686  -11.1307 N   0  0  0  0  0  0  0  0  0  0  0  0
   55.1384   -2.9255  -11.4985 H   0  0  0  0  0  0  0  0  0  0  0  0
   56.9889   -3.6160  -13.3453 C   0  0  0  0  0  0  0  0  0  0  0  0
   58.3817   -3.6689  -13.7751 N   0  0  0  0  0  0  0  0  0  0  0  0
   58.9159   -4.4131  -13.3279 H   0  0  0  0  0  0  0  0  0  0  0  0
   58.8176   -2.7471  -13.8258 H   0  0  0  0  0  0  0  0  0  0  0  0
   56.1673   -4.0565  -15.6555 C   0  0  0  0  0  0  0  0  0  0  0  0
   56.1352   -4.5099  -14.2119 C   0  0  0  0  0  0  0  0  0  0  0  0
   56.5487   -5.8184  -14.0471 O   0  0  0  0  0  0  0  0  0  0  0  0
   56.2568   -6.4015  -14.8017 H   0  0  0  0  0  0  0  0  0  0  0  0
 26 27  1  0  0  0
 27 28  1  0  0  0
 27 22  1  0  0  0
 22 23  1  0  0  0
 22 18  1  0  0  0
 18 19  2  0  0  0
 18 20  1  0  0  0
 20  1  1  0  0  0
  1  2  2  0  0  0
  1  3  2  0  0  0
  1  4  1  0  0  0
  4  5  2  0  0  0
  5  6  1  0  0  0
  6  7  2  0  0  0
  7  8  1  0  0  0
  8  9  2  0  0  0
  8 10  1  0  0  0
 10 11  2  0  0  0
 11 12  1  0  0  0
 12 13  1  0  0  0
 12 14  2  0  0  0
 14 15  1  0  0  0
 15 16  1  0  0  0
 15 17  2  0  0  0
  9  4  1  0  0  0
 17 10  1  0  0  0
 28 29  1  0  0  0
 23 24  1  0  0  0
 23 25  1  0  0  0
 20 21  1  0  0  0
M  END
> <minimizedAffinity>
-7.78929

> <CNNscore>
0.3164823055

> <CNNaffinity>
5.8090577126

> <CNN_VS>
1.8384640217

> <CNNaffinity_variance>
0.2061173618

$$$$
[H]O[C@]([H])(C([H])([H])[H])[C@@]([H])(C(=O)N([H])S(=O)(=O)c1c([H])c([H])c([H])c(-c2c([H])c(F)c([H])c(F)c2[H])c1[H])N([H])[H]


 29 30  0  0  0  0  0  0  0  0999 V2000
   55.0604   -4.6463   -7.9878 S   0  0  0  0  0  0  0  0  0  0  0  0
   54.9503   -5.8864   -7.1691 O   0  0  0  0  0  0  0  0  0  0  0  0
   56.1475   -3.7484   -7.4786 O   0  0  0  0  0  0  0  0  0  0  0  0
   53.5091   -3.8504   -8.0043 C   0  0  0  0  0  0  0  0  0  0  0  0
   53.1879   -3.0034   -9.0181 C   0  0  0  0  0  0  0  0  0  0  0  0
   51.9432   -2.3919   -8.9903 C   0  0  0  0  0  0  0  0  0  0  0  0
   51.0673   -2.6471   -7.9555 C   0  0  0  0  0  0  0  0  0  0  0  0
   51.3940   -3.5139   -6.9164 C   0  0  0  0  0  0  0  0  0  0  0  0
   52.6358   -4.1092   -6.9659 C   0  0  0  0  0  0  0  0  0  0  0  0
   50.4468   -3.7644   -5.8354 C   0  0  0  0  0  0  0  0  0  0  0  0
   50.7045   -4.7616   -4.9259 C   0  0  0  0  0  0  0  0  0  0  0  0
   49.7875   -4.9887   -3.8961 C   0  0  0  0  0  0  0  0  0  0  0  0
   50.0542   -5.9750   -3.0057 F   0  0  0  0  0  0  0  0  0  0  0  0
   48.6478   -4.2280   -3.7946 C   0  0  0  0  0  0  0  0  0  0  0  0
   48.3756   -3.2340   -4.6882 C   0  0  0  0  0  0  0  0  0  0  0  0
   47.2482   -2.5027   -4.5640 F   0  0  0  0  0  0  0  0  0  0  0  0
   49.2942   -3.0187   -5.7061 C   0  0  0  0  0  0  0  0  0  0  0  0
   56.1684   -4.1220  -10.3901 C   0  0  0  0  0  0  0  0  0  0  0  0
   56.5207   -3.0425   -9.8334 O   0  0  0  0  0  0  0  0  0  0  0  0
   55.4306   -5.0547   -9.6456 N   0  0  0  0  0  0  0  0  0  0  0  0
   55.1167   -5.9347  -10.0673 H   0  0  0  0  0  0  0  0  0  0  0  0
   56.5224   -4.3902  -11.7850 C   0  0  0  0  0  0  0  0  0  0  0  0
   56.3152   -3.1859  -12.5813 N   0  0  0  0  0  0  0  0  0  0  0  0
   56.4968   -2.3243  -12.0678 H   0  0  0  0  0  0  0  0  0  0  0  0
   55.4645   -3.2230  -13.1446 H   0  0  0  0  0  0  0  0  0  0  0  0
   58.8181   -3.7902  -12.5442 C   0  0  0  0  0  0  0  0  0  0  0  0
   57.9590   -4.8440  -11.8793 C   0  0  0  0  0  0  0  0  0  0  0  0
   58.4033   -5.1850  -10.6156 O   0  0  0  0  0  0  0  0  0  0  0  0
   59.3988   -5.1845  -10.5556 H   0  0  0  0  0  0  0  0  0  0  0  0
 26 27  1  0  0  0
 27 28  1  0  0  0
 27 22  1  0  0  0
 22 23  1  0  0  0
 22 18  1  0  0  0
 18 19  2  0  0  0
 18 20  1  0  0  0
 20  1  1  0  0  0
  1  2  2  0  0  0
  1  3  2  0  0  0
  1  4  1  0  0  0
  4  5  2  0  0  0
  5  6  1  0  0  0
  6  7  2  0  0  0
  7  8  1  0  0  0
  8  9  2  0  0  0
  8 10  1  0  0  0
 10 11  2  0  0  0
 11 12  1  0  0  0
 12 13  1  0  0  0
 12 14  2  0  0  0
 14 15  1  0  0  0
 15 16  1  0  0  0
 15 17  2  0  0  0
  9  4  1  0  0  0
 17 10  1  0  0  0
 28 29  1  0  0  0
 23 24  1  0  0  0
 23 25  1  0  0  0
 20 21  1  0  0  0
M  END
> <minimizedAffinity>
-8.71219

> <CNNscore>
0.2973957360

> <CNNaffinity>
5.9910955429

> <CNN_VS>
1.7817262411

> <CNNaffinity_variance>
0.1425342262

$$$$
[H]O[C@]([H])(C([H])([H])[H])[C@@]([H])(C(=O)N([H])S(=O)(=O)c1c([H])c([H])c([H])c(-c2c([H])c(F)c([H])c(F)c2[H])c1[H])N([H])[H]


 29 30  0  0  0  0  0  0  0  0999 V2000
   51.4142   -5.3046   -6.0600 S   0  0  0  0  0  0  0  0  0  0  0  0
   51.2490   -6.6565   -6.6642 O   0  0  0  0  0  0  0  0  0  0  0  0
   50.1080   -4.7641   -5.5610 O   0  0  0  0  0  0  0  0  0  0  0  0
   52.1486   -4.2529   -7.2411 C   0  0  0  0  0  0  0  0  0  0  0  0
   51.5148   -3.1140   -7.6280 C   0  0  0  0  0  0  0  0  0  0  0  0
   52.1357   -2.3074   -8.5703 C   0  0  0  0  0  0  0  0  0  0  0  0
   53.3622   -2.6655   -9.0904 C   0  0  0  0  0  0  0  0  0  0  0  0
   54.0131   -3.8311   -8.6959 C   0  0  0  0  0  0  0  0  0  0  0  0
   53.3766   -4.6159   -7.7589 C   0  0  0  0  0  0  0  0  0  0  0  0
   55.3099   -4.1836   -9.2635 C   0  0  0  0  0  0  0  0  0  0  0  0
   55.5143   -4.0585  -10.6166 C   0  0  0  0  0  0  0  0  0  0  0  0
   56.7623   -4.3999  -11.1446 C   0  0  0  0  0  0  0  0  0  0  0  0
   56.9504   -4.2715  -12.4806 F   0  0  0  0  0  0  0  0  0  0  0  0
   57.7679   -4.8528  -10.3252 C   0  0  0  0  0  0  0  0  0  0  0  0
   57.5831   -4.9832   -8.9799 C   0  0  0  0  0  0  0  0  0  0  0  0
   58.5888   -5.4307   -8.1992 F   0  0  0  0  0  0  0  0  0  0  0  0
   56.3393   -4.6409   -8.4682 C   0  0  0  0  0  0  0  0  0  0  0  0
   53.6085   -6.2590   -4.8159 C   0  0  0  0  0  0  0  0  0  0  0  0
   53.7367   -6.9423   -5.8724 O   0  0  0  0  0  0  0  0  0  0  0  0
   52.5169   -5.3844   -4.7073 N   0  0  0  0  0  0  0  0  0  0  0  0
   52.3735   -4.8243   -3.8608 H   0  0  0  0  0  0  0  0  0  0  0  0
   54.5801   -6.3817   -3.7278 C   0  0  0  0  0  0  0  0  0  0  0  0
   54.7629   -7.7895   -3.3932 N   0  0  0  0  0  0  0  0  0  0  0  0
   54.6744   -8.4117   -4.1957 H   0  0  0  0  0  0  0  0  0  0  0  0
   54.2781   -8.0609   -2.5365 H   0  0  0  0  0  0  0  0  0  0  0  0
   56.9312   -6.8251   -4.4220 C   0  0  0  0  0  0  0  0  0  0  0  0
   55.8952   -5.7606   -4.1318 C   0  0  0  0  0  0  0  0  0  0  0  0
   55.6783   -4.9120   -5.2011 O   0  0  0  0  0  0  0  0  0  0  0  0
   56.5173   -4.7241   -5.7066 H   0  0  0  0  0  0  0  0  0  0  0  0
 26 27  1  0  0  0
 27 28  1  0  0  0
 27 22  1  0  0  0
 22 23  1  0  0  0
 22 18  1  0  0  0
 18 19  2  0  0  0
 18 20  1  0  0  0
 20  1  1  0  0  0
  1  2  2  0  0  0
  1  3  2  0  0  0
  1  4  1  0  0  0
  4  5  2  0  0  0
  5  6  1  0  0  0
  6  7  2  0  0  0
  7  8  1  0  0  0
  8  9  2  0  0  0
  8 10  1  0  0  0
 10 11  2  0  0  0
 11 12  1  0  0  0
 12 13  1  0  0  0
 12 14  2  0  0  0
 14 15  1  0  0  0
 15 16  1  0  0  0
 15 17  2  0  0  0
  9  4  1  0  0  0
 17 10  1  0  0  0
 28 29  1  0  0  0
 23 24  1  0  0  0
 23 25  1  0  0  0
 20 21  1  0  0  0
M  END
> <minimizedAffinity>
-9.14418

> <CNNscore>
0.2897874713

> <CNNaffinity>
5.6090369225

> <CNN_VS>
1.6254286766

> <CNNaffinity_variance>
0.3422970176

$$$$
[H]O[C@]([H])(C([H])([H])[H])[C@@]([H])(C(=O)N([H])S(=O)(=O)c1c([H])c([H])c([H])c(-c2c([H])c(F)c([H])c(F)c2[H])c1[H])N([H])[H]


 29 30  0  0  0  0  0  0  0  0999 V2000
   51.3749   -5.3206   -5.4848 S   0  0  0  0  0  0  0  0  0  0  0  0
   50.6872   -6.5128   -6.0556 O   0  0  0  0  0  0  0  0  0  0  0  0
   50.4783   -4.5665   -4.5495 O   0  0  0  0  0  0  0  0  0  0  0  0
   51.9388   -4.3214   -6.7978 C   0  0  0  0  0  0  0  0  0  0  0  0
   51.1777   -3.2864   -7.2428 C   0  0  0  0  0  0  0  0  0  0  0  0
   51.6656   -2.5183   -8.2897 C   0  0  0  0  0  0  0  0  0  0  0  0
   52.8908   -2.8100   -8.8526 C   0  0  0  0  0  0  0  0  0  0  0  0
   53.6717   -3.8692   -8.3988 C   0  0  0  0  0  0  0  0  0  0  0  0
   53.1661   -4.6177   -7.3580 C   0  0  0  0  0  0  0  0  0  0  0  0
   54.9638   -4.1534   -9.0137 C   0  0  0  0  0  0  0  0  0  0  0  0
   56.0187   -4.5443   -8.2248 C   0  0  0  0  0  0  0  0  0  0  0  0
   57.2497   -4.8132   -8.8292 C   0  0  0  0  0  0  0  0  0  0  0  0
   58.2816   -5.1981   -8.0394 F   0  0  0  0  0  0  0  0  0  0  0  0
   57.4027   -4.6890  -10.1890 C   0  0  0  0  0  0  0  0  0  0  0  0
   56.3668   -4.3023  -10.9877 C   0  0  0  0  0  0  0  0  0  0  0  0
   56.5460   -4.1886  -12.3205 F   0  0  0  0  0  0  0  0  0  0  0  0
   55.1498   -4.0382  -10.3752 C   0  0  0  0  0  0  0  0  0  0  0  0
   52.5870   -6.5823   -3.4323 C   0  0  0  0  0  0  0  0  0  0  0  0
   51.4023   -6.8665   -3.0930 O   0  0  0  0  0  0  0  0  0  0  0  0
   52.7912   -5.8176   -4.5908 N   0  0  0  0  0  0  0  0  0  0  0  0
   53.7365   -5.5571   -4.8896 H   0  0  0  0  0  0  0  0  0  0  0  0
   53.7216   -7.0410   -2.6291 C   0  0  0  0  0  0  0  0  0  0  0  0
   53.4790   -8.4062   -2.1768 N   0  0  0  0  0  0  0  0  0  0  0  0
   52.9459   -8.9650   -2.8421 H   0  0  0  0  0  0  0  0  0  0  0  0
   53.2001   -8.4567   -1.1959 H   0  0  0  0  0  0  0  0  0  0  0  0
   56.2110   -7.0059   -2.5394 C   0  0  0  0  0  0  0  0  0  0  0  0
   54.9940   -6.9718   -3.4384 C   0  0  0  0  0  0  0  0  0  0  0  0
   54.9841   -7.9897   -4.3734 O   0  0  0  0  0  0  0  0  0  0  0  0
   55.8991   -8.1959   -4.7125 H   0  0  0  0  0  0  0  0  0  0  0  0
 26 27  1  0  0  0
 27 28  1  0  0  0
 27 22  1  0  0  0
 22 23  1  0  0  0
 22 18  1  0  0  0
 18 19  2  0  0  0
 18 20  1  0  0  0
 20  1  1  0  0  0
  1  2  2  0  0  0
  1  3  2  0  0  0
  1  4  1  0  0  0
  4  5  2  0  0  0
  5  6  1  0  0  0
  6  7  2  0  0  0
  7  8  1  0  0  0
  8  9  2  0  0  0
  8 10  1  0  0  0
 10 11  2  0  0  0
 11 12  1  0  0  0
 12 13  1  0  0  0
 12 14  2  0  0  0
 14 15  1  0  0  0
 15 16  1  0  0  0
 15 17  2  0  0  0
  9  4  1  0  0  0
 17 10  1  0  0  0
 28 29  1  0  0  0
 23 24  1  0  0  0
 23 25  1  0  0  0
 20 21  1  0  0  0
M  END
> <minimizedAffinity>
-9.44815

> <CNNscore>
0.2597252727

> <CNNaffinity>
5.8104696274

> <CNN_VS>
1.5091258287

> <CNNaffinity_variance>
0.1212970391

$$$$
[H]O[C@]([H])(C([H])([H])[H])[C@@]([H])(C(=O)N([H])S(=O)(=O)c1c([H])c([H])c([H])c(-c2c([H])c(F)c([H])c(F)c2[H])c1[H])N([H])[H]


 29 30  0  0  0  0  0  0  0  0999 V2000
   55.2329   -4.1841   -8.4403 S   0  0  0  0  0  0  0  0  0  0  0  0
   55.2186   -5.6622   -8.2523 O   0  0  0  0  0  0  0  0  0  0  0  0
   56.1843   -3.5201   -7.4909 O   0  0  0  0  0  0  0  0  0  0  0  0
   53.6055   -3.5843   -8.2615 C   0  0  0  0  0  0  0  0  0  0  0  0
   53.0911   -2.7238   -9.1798 C   0  0  0  0  0  0  0  0  0  0  0  0
   51.7924   -2.2718   -8.9975 C   0  0  0  0  0  0  0  0  0  0  0  0
   51.0570   -2.6936   -7.9092 C   0  0  0  0  0  0  0  0  0  0  0  0
   51.5815   -3.5746   -6.9676 C   0  0  0  0  0  0  0  0  0  0  0  0
   52.8734   -4.0095   -7.1702 C   0  0  0  0  0  0  0  0  0  0  0  0
   50.7795   -4.0032   -5.8268 C   0  0  0  0  0  0  0  0  0  0  0  0
   49.6037   -3.3518   -5.5418 C   0  0  0  0  0  0  0  0  0  0  0  0
   48.8468   -3.7748   -4.4459 C   0  0  0  0  0  0  0  0  0  0  0  0
   47.6891   -3.1237   -4.1763 F   0  0  0  0  0  0  0  0  0  0  0  0
   49.2709   -4.8239   -3.6665 C   0  0  0  0  0  0  0  0  0  0  0  0
   50.4351   -5.4822   -3.9345 C   0  0  0  0  0  0  0  0  0  0  0  0
   50.8270   -6.5094   -3.1518 F   0  0  0  0  0  0  0  0  0  0  0  0
   51.1774   -5.0524   -5.0255 C   0  0  0  0  0  0  0  0  0  0  0  0
   57.0082   -4.2205  -10.4704 C   0  0  0  0  0  0  0  0  0  0  0  0
   57.7248   -4.8561   -9.6446 O   0  0  0  0  0  0  0  0  0  0  0  0
   55.7341   -3.7928  -10.0675 N   0  0  0  0  0  0  0  0  0  0  0  0
   55.1304   -3.2641  -10.7053 H   0  0  0  0  0  0  0  0  0  0  0  0
   57.5012   -3.9356  -11.8190 C   0  0  0  0  0  0  0  0  0  0  0  0
   58.7748   -4.6156  -12.0267 N   0  0  0  0  0  0  0  0  0  0  0  0
   58.8441   -5.5056  -11.5346 H   0  0  0  0  0  0  0  0  0  0  0  0
   59.5763   -3.9858  -11.9673 H   0  0  0  0  0  0  0  0  0  0  0  0
   56.2869   -3.3189  -13.9050 C   0  0  0  0  0  0  0  0  0  0  0  0
   56.4909   -4.3825  -12.8477 C   0  0  0  0  0  0  0  0  0  0  0  0
   56.8950   -5.5956  -13.3725 O   0  0  0  0  0  0  0  0  0  0  0  0
   56.4646   -5.7854  -14.2520 H   0  0  0  0  0  0  0  0  0  0  0  0
 26 27  1  0  0  0
 27 28  1  0  0  0
 27 22  1  0  0  0
 22 23  1  0  0  0
 22 18  1  0  0  0
 18 19  2  0  0  0
 18 20  1  0  0  0
 20  1  1  0  0  0
  1  2  2  0  0  0
  1  3  2  0  0  0
  1  4  1  0  0  0
  4  5  2  0  0  0
  5  6  1  0  0  0
  6  7  2  0  0  0
  7  8  1  0  0  0
  8  9  2  0  0  0
  8 10  1  0  0  0
 10 11  2  0  0  0
 11 12  1  0  0  0
 12 13  1  0  0  0
 12 14  2  0  0  0
 14 15  1  0  0  0
 15 16  1  0  0  0
 15 17  2  0  0  0
  9  4  1  0  0  0
 17 10  1  0  0  0
 28 29  1  0  0  0
 23 24  1  0  0  0
 23 25  1  0  0  0
 20 21  1  0  0  0
M  END
> <minimizedAffinity>
-8.93187

> <CNNscore>
0.2492260933

> <CNNaffinity>
5.8840360641

> <CNN_VS>
1.4664553404

> <CNNaffinity_variance>
0.1134345978

$$$$
[H]O[C@]([H])(C([H])([H])[H])[C@@]([H])(C(=O)N([H])S(=O)(=O)c1c([H])c([H])c([H])c(-c2c([H])c(F)c([H])c(F)c2[H])c1[H])N([H])[H]


 29 30  0  0  0  0  0  0  0  0999 V2000
   57.5723   -4.2696  -12.2407 S   0  0  0  0  0  0  0  0  0  0  0  0
   56.9758   -2.9683  -12.6540 O   0  0  0  0  0  0  0  0  0  0  0  0
   57.1153   -5.3883  -13.1278 O   0  0  0  0  0  0  0  0  0  0  0  0
   57.1748   -4.5579  -10.5676 C   0  0  0  0  0  0  0  0  0  0  0  0
   58.1101   -5.0670   -9.7223 C   0  0  0  0  0  0  0  0  0  0  0  0
   57.7498   -5.2805   -8.3999 C   0  0  0  0  0  0  0  0  0  0  0  0
   56.4738   -4.9794   -7.9707 C   0  0  0  0  0  0  0  0  0  0  0  0
   55.5145   -4.4582   -8.8343 C   0  0  0  0  0  0  0  0  0  0  0  0
   55.8959   -4.2548  -10.1428 C   0  0  0  0  0  0  0  0  0  0  0  0
   54.1730   -4.1492   -8.3514 C   0  0  0  0  0  0  0  0  0  0  0  0
   53.5533   -5.0077   -7.4755 C   0  0  0  0  0  0  0  0  0  0  0  0
   52.2685   -4.6972   -7.0220 C   0  0  0  0  0  0  0  0  0  0  0  0
   51.6691   -5.5524   -6.1582 F   0  0  0  0  0  0  0  0  0  0  0  0
   51.6355   -3.5532   -7.4445 C   0  0  0  0  0  0  0  0  0  0  0  0
   52.2351   -2.6896   -8.3135 C   0  0  0  0  0  0  0  0  0  0  0  0
   51.5894   -1.5734   -8.7115 F   0  0  0  0  0  0  0  0  0  0  0  0
   53.5109   -3.0094   -8.7563 C   0  0  0  0  0  0  0  0  0  0  0  0
   59.8787   -3.8340  -13.5690 C   0  0  0  0  0  0  0  0  0  0  0  0
   59.1080   -3.6033  -14.5448 O   0  0  0  0  0  0  0  0  0  0  0  0
   59.3148   -4.1854  -12.3332 N   0  0  0  0  0  0  0  0  0  0  0  0
   59.9085   -4.3921  -11.5236 H   0  0  0  0  0  0  0  0  0  0  0  0
   61.3307   -3.7382  -13.7285 C   0  0  0  0  0  0  0  0  0  0  0  0
   61.8036   -4.8372  -14.5627 N   0  0  0  0  0  0  0  0  0  0  0  0
   61.1354   -5.1190  -15.2790 H   0  0  0  0  0  0  0  0  0  0  0  0
   62.2523   -5.5802  -14.0249 H   0  0  0  0  0  0  0  0  0  0  0  0
   63.1157   -2.0188  -13.9814 C   0  0  0  0  0  0  0  0  0  0  0  0
   61.7000   -2.4110  -14.3457 C   0  0  0  0  0  0  0  0  0  0  0  0
   61.4927   -2.4803  -15.7105 O   0  0  0  0  0  0  0  0  0  0  0  0
   62.0009   -1.7775  -16.2029 H   0  0  0  0  0  0  0  0  0  0  0  0
 26 27  1  0  0  0
 27 28  1  0  0  0
 27 22  1  0  0  0
 22 23  1  0  0  0
 22 18  1  0  0  0
 18 19  2  0  0  0
 18 20  1  0  0  0
 20  1  1  0  0  0
  1  2  2  0  0  0
  1  3  2  0  0  0
  1  4  1  0  0  0
  4  5  2  0  0  0
  5  6  1  0  0  0
  6  7  2  0  0  0
  7  8  1  0  0  0
  8  9  2  0  0  0
  8 10  1  0  0  0
 10 11  2  0  0  0
 11 12  1  0  0  0
 12 13  1  0  0  0
 12 14  2  0  0  0
 14 15  1  0  0  0
 15 16  1  0  0  0
 15 17  2  0  0  0
  9  4  1  0  0  0
 17 10  1  0  0  0
 28 29  1  0  0  0
 23 24  1  0  0  0
 23 25  1  0  0  0
 20 21  1  0  0  0
M  END
> <minimizedAffinity>
-8.40092

> <CNNscore>
0.2424702942

> <CNNaffinity>
5.3524103165

> <CNN_VS>
1.2978005409

> <CNNaffinity_variance>
0.1655026674

$$$$
[H]O[C@]([H])(C([H])([H])[H])[C@@]([H])(C(=O)N([H])S(=O)(=O)c1c([H])c([H])c([H])c(-c2c([H])c(F)c([H])c(F)c2[H])c1[H])N([H])[H]


 29 30  0  0  0  0  0  0  0  0999 V2000
   54.8813   -4.0542   -8.3946 S   0  0  0  0  0  0  0  0  0  0  0  0
   53.7136   -4.7316   -9.0252 O   0  0  0  0  0  0  0  0  0  0  0  0
   54.6890   -2.5685   -8.3399 O   0  0  0  0  0  0  0  0  0  0  0  0
   56.3217   -4.4952   -9.2727 C   0  0  0  0  0  0  0  0  0  0  0  0
   57.3093   -5.1963   -8.6549 C   0  0  0  0  0  0  0  0  0  0  0  0
   58.4375   -5.5251   -9.3918 C   0  0  0  0  0  0  0  0  0  0  0  0
   58.5389   -5.1437  -10.7136 C   0  0  0  0  0  0  0  0  0  0  0  0
   57.5292   -4.4258  -11.3483 C   0  0  0  0  0  0  0  0  0  0  0  0
   56.4184   -4.1108  -10.5959 C   0  0  0  0  0  0  0  0  0  0  0  0
   57.6645   -4.0364  -12.7477 C   0  0  0  0  0  0  0  0  0  0  0  0
   56.5615   -4.0575  -13.5669 C   0  0  0  0  0  0  0  0  0  0  0  0
   56.7077   -3.6813  -14.9048 C   0  0  0  0  0  0  0  0  0  0  0  0
   55.6117   -3.7064  -15.7016 F   0  0  0  0  0  0  0  0  0  0  0  0
   57.9332   -3.2968  -15.3930 C   0  0  0  0  0  0  0  0  0  0  0  0
   59.0389   -3.2697  -14.5945 C   0  0  0  0  0  0  0  0  0  0  0  0
   60.2300   -2.8879  -15.1011 F   0  0  0  0  0  0  0  0  0  0  0  0
   58.8802   -3.6457  -13.2680 C   0  0  0  0  0  0  0  0  0  0  0  0
   54.0409   -5.3572   -6.1878 C   0  0  0  0  0  0  0  0  0  0  0  0
   52.9964   -5.5525   -6.8736 O   0  0  0  0  0  0  0  0  0  0  0  0
   55.0964   -4.6307   -6.7595 N   0  0  0  0  0  0  0  0  0  0  0  0
   55.9530   -4.4417   -6.2293 H   0  0  0  0  0  0  0  0  0  0  0  0
   54.1438   -5.8778   -4.8235 C   0  0  0  0  0  0  0  0  0  0  0  0
   52.8321   -6.3300   -4.3736 N   0  0  0  0  0  0  0  0  0  0  0  0
   52.2559   -6.7115   -5.1229 H   0  0  0  0  0  0  0  0  0  0  0  0
   52.3859   -5.6766   -3.7282 H   0  0  0  0  0  0  0  0  0  0  0  0
   54.8431   -7.9411   -3.6153 C   0  0  0  0  0  0  0  0  0  0  0  0
   55.1386   -7.0120   -4.7729 C   0  0  0  0  0  0  0  0  0  0  0  0
   55.1433   -7.6565   -5.9956 O   0  0  0  0  0  0  0  0  0  0  0  0
   55.5227   -8.5767   -5.9326 H   0  0  0  0  0  0  0  0  0  0  0  0
 26 27  1  0  0  0
 27 28  1  0  0  0
 27 22  1  0  0  0
 22 23  1  0  0  0
 22 18  1  0  0  0
 18 19  2  0  0  0
 18 20  1  0  0  0
 20  1  1  0  0  0
  1  2  2  0  0  0
  1  3  2  0  0  0
  1  4  1  0  0  0
  4  5  2  0  0  0
  5  6  1  0  0  0
  6  7  2  0  0  0
  7  8  1  0  0  0
  8  9  2  0  0  0
  8 10  1  0  0  0
 10 11  2  0  0  0
 11 12  1  0  0  0
 12 13  1  0  0  0
 12 14  2  0  0  0
 14 15  1  0  0  0
 15 16  1  0  0  0
 15 17  2  0  0  0
  9  4  1  0  0  0
 17 10  1  0  0  0
 28 29  1  0  0  0
 23 24  1  0  0  0
 23 25  1  0  0  0
 20 21  1  0  0  0
M  END
> <minimizedAffinity>
-7.55317

> <CNNscore>
0.2414390743

> <CNNaffinity>
4.9888043404

> <CNN_VS>
1.2044923306

> <CNNaffinity_variance>
0.2625964284

$$$$
[H]O[C@]([H])(C([H])([H])[H])[C@@]([H])(C(=O)N([H])S(=O)(=O)c1c([H])c([H])c([H])c(-c2c([H])c(F)c([H])c(F)c2[H])c1[H])N([H])[H]


 29 30  0  0  0  0  0  0  0  0999 V2000
   54.0049   -3.6601   -8.5994 S   0  0  0  0  0  0  0  0  0  0  0  0
   52.9413   -4.2122   -9.4848 O   0  0  0  0  0  0  0  0  0  0  0  0
   53.9202   -2.1662   -8.5070 O   0  0  0  0  0  0  0  0  0  0  0  0
   55.5556   -4.1915   -9.1938 C   0  0  0  0  0  0  0  0  0  0  0  0
   56.4005   -4.8762   -8.3779 C   0  0  0  0  0  0  0  0  0  0  0  0
   57.6240   -5.2791   -8.8927 C   0  0  0  0  0  0  0  0  0  0  0  0
   57.9584   -4.9850  -10.1984 C   0  0  0  0  0  0  0  0  0  0  0  0
   57.0950   -4.2840  -11.0356 C   0  0  0  0  0  0  0  0  0  0  0  0
   55.8858   -3.8945  -10.5017 C   0  0  0  0  0  0  0  0  0  0  0  0
   57.4763   -3.9878  -12.4122 C   0  0  0  0  0  0  0  0  0  0  0  0
   58.7972   -3.7621  -12.7162 C   0  0  0  0  0  0  0  0  0  0  0  0
   59.1461   -3.4801  -14.0397 C   0  0  0  0  0  0  0  0  0  0  0  0
   60.4524   -3.2598  -14.3257 F   0  0  0  0  0  0  0  0  0  0  0  0
   58.1850   -3.4292  -15.0204 C   0  0  0  0  0  0  0  0  0  0  0  0
   56.8691   -3.6506  -14.7371 C   0  0  0  0  0  0  0  0  0  0  0  0
   55.9467   -3.5941  -15.7205 F   0  0  0  0  0  0  0  0  0  0  0  0
   56.5359   -3.9296  -13.4190 C   0  0  0  0  0  0  0  0  0  0  0  0
   53.1366   -5.5175   -6.8472 C   0  0  0  0  0  0  0  0  0  0  0  0
   52.6607   -6.0664   -7.8824 O   0  0  0  0  0  0  0  0  0  0  0  0
   53.8381   -4.3104   -6.9865 N   0  0  0  0  0  0  0  0  0  0  0  0
   54.2267   -3.8302   -6.1685 H   0  0  0  0  0  0  0  0  0  0  0  0
   52.9558   -6.1300   -5.5299 C   0  0  0  0  0  0  0  0  0  0  0  0
   54.0063   -5.6691   -4.6292 N   0  0  0  0  0  0  0  0  0  0  0  0
   54.3077   -4.7129   -4.8135 H   0  0  0  0  0  0  0  0  0  0  0  0
   54.7357   -6.3674   -4.4783 H   0  0  0  0  0  0  0  0  0  0  0  0
   51.6602   -5.5569   -3.4807 C   0  0  0  0  0  0  0  0  0  0  0  0
   51.5956   -5.7811   -4.9761 C   0  0  0  0  0  0  0  0  0  0  0  0
   51.0993   -4.6905   -5.6650 O   0  0  0  0  0  0  0  0  0  0  0  0
   50.3783   -4.2236   -5.1583 H   0  0  0  0  0  0  0  0  0  0  0  0
 26 27  1  0  0  0
 27 28  1  0  0  0
 27 22  1  0  0  0
 22 23  1  0  0  0
 22 18  1  0  0  0
 18 19  2  0  0  0
 18 20  1  0  0  0
 20  1  1  0  0  0
  1  2  2  0  0  0
  1  3  2  0  0  0
  1  4  1  0  0  0
  4  5  2  0  0  0
  5  6  1  0  0  0
  6  7  2  0  0  0
  7  8  1  0  0  0
  8  9  2  0  0  0
  8 10  1  0  0  0
 10 11  2  0  0  0
 11 12  1  0  0  0
 12 13  1  0  0  0
 12 14  2  0  0  0
 14 15  1  0  0  0
 15 16  1  0  0  0
 15 17  2  0  0  0
  9  4  1  0  0  0
 17 10  1  0  0  0
 28 29  1  0  0  0
 23 24  1  0  0  0
 23 25  1  0  0  0
 20 21  1  0  0  0
M  END
> <minimizedAffinity>
-7.71078

> <CNNscore>
0.2253020257

> <CNNaffinity>
5.1463136673

> <CNN_VS>
1.1594748497

> <CNNaffinity_variance>
0.2613033354

$$$$
[H]c1nc2c([H])c([H])c([H])c(-c3c([H])nn4c([H])c(-c5c([H])c([H])c(N6C([H])([H])C([H])([H])N([H])C([H])([H])C6([H])[H])c([H])c5[H])c([H])nc34)c2c([H])c1[H]


 32 37  0  0  0  0  0  0  0  0999 V2000
   55.8031   -4.0911   -9.9385 C   0  0  0  0  0  0  0  0  0  0  0  0
   55.8002   -4.8773   -8.7760 C   0  0  0  0  0  0  0  0  0  0  0  0
   54.7384   -4.8977   -7.9648 N   0  0  0  0  0  0  0  0  0  0  0  0
   53.6428   -4.1493   -8.2633 C   0  0  0  0  0  0  0  0  0  0  0  0
   52.4234   -3.9825   -7.6401 C   0  0  0  0  0  0  0  0  0  0  0  0
   51.7009   -3.1097   -8.4092 C   0  0  0  0  0  0  0  0  0  0  0  0
   52.4782   -2.7723   -9.4604 N   0  0  0  0  0  0  0  0  0  0  0  0
   53.6362   -3.3940   -9.3717 N   0  0  0  0  0  0  0  0  0  0  0  0
   54.6899   -3.3347  -10.2336 C   0  0  0  0  0  0  0  0  0  0  0  0
   52.0143   -4.6343   -6.4080 C   0  0  0  0  0  0  0  0  0  0  0  0
   52.7019   -5.6781   -5.8393 C   0  0  0  0  0  0  0  0  0  0  0  0
   52.2336   -6.2369   -4.6519 C   0  0  0  0  0  0  0  0  0  0  0  0
   51.0947   -5.7682   -4.0317 C   0  0  0  0  0  0  0  0  0  0  0  0
   50.3943   -4.7186   -4.5952 C   0  0  0  0  0  0  0  0  0  0  0  0
   49.2787   -4.2727   -3.9884 N   0  0  0  0  0  0  0  0  0  0  0  0
   48.5566   -3.2484   -4.5152 C   0  0  0  0  0  0  0  0  0  0  0  0
   48.9985   -2.6872   -5.6773 C   0  0  0  0  0  0  0  0  0  0  0  0
   50.1293   -3.1230   -6.3121 C   0  0  0  0  0  0  0  0  0  0  0  0
   50.8675   -4.1763   -5.7663 C   0  0  0  0  0  0  0  0  0  0  0  0
   59.2635   -4.0766  -12.4784 C   0  0  0  0  0  0  0  0  0  0  0  0
   58.1271   -3.3224  -12.7711 C   0  0  0  0  0  0  0  0  0  0  0  0
   57.0162   -3.3407  -11.9595 C   0  0  0  0  0  0  0  0  0  0  0  0
   56.9801   -4.1212  -10.8017 C   0  0  0  0  0  0  0  0  0  0  0  0
   58.0942   -4.8614  -10.5169 C   0  0  0  0  0  0  0  0  0  0  0  0
   59.2278   -4.8445  -11.3410 C   0  0  0  0  0  0  0  0  0  0  0  0
   61.1270   -3.8489  -15.6431 C   0  0  0  0  0  0  0  0  0  0  0  0
   60.4857   -3.1329  -14.4718 C   0  0  0  0  0  0  0  0  0  0  0  0
   60.3915   -4.0308  -13.3492 N   0  0  0  0  0  0  0  0  0  0  0  0
   61.5582   -4.8885  -13.1162 C   0  0  0  0  0  0  0  0  0  0  0  0
   62.7079   -4.2565  -13.9087 C   0  0  0  0  0  0  0  0  0  0  0  0
   62.3809   -4.4818  -15.3098 N   0  0  0  0  0  0  0  0  0  0  0  0
   62.2956   -5.5346  -15.3984 H   0  0  0  0  0  0  0  0  0  0  0  0
 26 27  1  0  0  0
 27 28  1  0  0  0
 28 29  1  0  0  0
 29 30  1  0  0  0
 30 31  1  0  0  0
 28 20  1  0  0  0
 20 21  2  0  0  0
 21 22  1  0  0  0
 22 23  2  0  0  0
 23 24  1  0  0  0
 24 25  2  0  0  0
 23  1  1  0  0  0
  1  2  1  0  0  0
  2  3  2  0  0  0
  3  4  1  0  0  0
  4  5  2  0  0  0
  5  6  1  0  0  0
  6  7  2  0  0  0
  7  8  1  0  0  0
  8  9  1  0  0  0
  5 10  1  0  0  0
 10 11  2  0  0  0
 11 12  1  0  0  0
 12 13  2  0  0  0
 13 14  1  0  0  0
 14 15  2  0  0  0
 15 16  1  0  0  0
 16 17  2  0  0  0
 17 18  1  0  0  0
 18 19  2  0  0  0
 31 26  1  0  0  0
 25 20  1  0  0  0
  9  1  2  0  0  0
 19 10  1  0  0  0
  8  4  1  0  0  0
 19 14  1  0  0  0
 31 32  1  0  0  0
M  END
> <minimizedAffinity>
-10.18582

> <CNNscore>
0.7945718169

> <CNNaffinity>
7.1568336487

> <CNN_VS>
5.6866183281

> <CNNaffinity_variance>
0.2218538076

$$$$
[H]c1nc2c([H])c([H])c([H])c(-c3c([H])nn4c([H])c(-c5c([H])c([H])c(N6C([H])([H])C([H])([H])N([H])C([H])([H])C6([H])[H])c([H])c5[H])c([H])nc34)c2c([H])c1[H]


 32 37  0  0  0  0  0  0  0  0999 V2000
   55.4924   -4.3844   -8.6011 C   0  0  0  0  0  0  0  0  0  0  0  0
   54.9881   -4.6119   -7.3113 C   0  0  0  0  0  0  0  0  0  0  0  0
   53.7399   -4.2580   -6.9909 N   0  0  0  0  0  0  0  0  0  0  0  0
   52.9422   -3.6691   -7.9217 C   0  0  0  0  0  0  0  0  0  0  0  0
   51.6386   -3.2189   -7.8890 C   0  0  0  0  0  0  0  0  0  0  0  0
   51.3580   -2.7256   -9.1354 C   0  0  0  0  0  0  0  0  0  0  0  0
   52.4713   -2.8831   -9.8828 N   0  0  0  0  0  0  0  0  0  0  0  0
   53.4152   -3.4467   -9.1569 N   0  0  0  0  0  0  0  0  0  0  0  0
   54.6785   -3.7863   -9.5383 C   0  0  0  0  0  0  0  0  0  0  0  0
   50.7571   -3.2825   -6.7362 C   0  0  0  0  0  0  0  0  0  0  0  0
   49.7845   -2.3491   -6.4745 C   0  0  0  0  0  0  0  0  0  0  0  0
   48.9836   -2.4973   -5.3439 C   0  0  0  0  0  0  0  0  0  0  0  0
   49.1428   -3.5592   -4.4788 C   0  0  0  0  0  0  0  0  0  0  0  0
   50.1187   -4.5044   -4.7318 C   0  0  0  0  0  0  0  0  0  0  0  0
   50.2737   -5.5332   -3.8779 N   0  0  0  0  0  0  0  0  0  0  0  0
   51.2277   -6.4788   -4.0864 C   0  0  0  0  0  0  0  0  0  0  0  0
   52.0222   -6.3522   -5.1880 C   0  0  0  0  0  0  0  0  0  0  0  0
   51.8836   -5.3156   -6.0701 C   0  0  0  0  0  0  0  0  0  0  0  0
   50.9014   -4.3464   -5.8507 C   0  0  0  0  0  0  0  0  0  0  0  0
   59.4849   -5.7193   -9.4399 C   0  0  0  0  0  0  0  0  0  0  0  0
   58.9719   -5.6876   -8.1431 C   0  0  0  0  0  0  0  0  0  0  0  0
   57.6955   -5.2470   -7.8791 C   0  0  0  0  0  0  0  0  0  0  0  0
   56.8554   -4.8095   -8.9056 C   0  0  0  0  0  0  0  0  0  0  0  0
   57.3601   -4.8396  -10.1763 C   0  0  0  0  0  0  0  0  0  0  0  0
   58.6596   -5.2886  -10.4488 C   0  0  0  0  0  0  0  0  0  0  0  0
   63.0485   -6.3353   -8.7613 C   0  0  0  0  0  0  0  0  0  0  0  0
   61.6152   -6.8141   -8.6517 C   0  0  0  0  0  0  0  0  0  0  0  0
   60.8147   -6.1801   -9.6679 N   0  0  0  0  0  0  0  0  0  0  0  0
   61.4350   -6.0651  -10.9919 C   0  0  0  0  0  0  0  0  0  0  0  0
   62.6101   -7.0492  -10.9910 C   0  0  0  0  0  0  0  0  0  0  0  0
   63.5972   -6.4714  -10.0897 N   0  0  0  0  0  0  0  0  0  0  0  0
   63.8070   -5.5167  -10.4997 H   0  0  0  0  0  0  0  0  0  0  0  0
 26 27  1  0  0  0
 27 28  1  0  0  0
 28 29  1  0  0  0
 29 30  1  0  0  0
 30 31  1  0  0  0
 28 20  1  0  0  0
 20 21  2  0  0  0
 21 22  1  0  0  0
 22 23  2  0  0  0
 23 24  1  0  0  0
 24 25  2  0  0  0
 23  1  1  0  0  0
  1  2  1  0  0  0
  2  3  2  0  0  0
  3  4  1  0  0  0
  4  5  2  0  0  0
  5  6  1  0  0  0
  6  7  2  0  0  0
  7  8  1  0  0  0
  8  9  1  0  0  0
  5 10  1  0  0  0
 10 11  2  0  0  0
 11 12  1  0  0  0
 12 13  2  0  0  0
 13 14  1  0  0  0
 14 15  2  0  0  0
 15 16  1  0  0  0
 16 17  2  0  0  0
 17 18  1  0  0  0
 18 19  2  0  0  0
 31 26  1  0  0  0
 25 20  1  0  0  0
  9  1  2  0  0  0
 19 10  1  0  0  0
  8  4  1  0  0  0
 19 14  1  0  0  0
 31 32  1  0  0  0
M  END
> <minimizedAffinity>
-10.53031

> <CNNscore>
0.6746857762

> <CNNaffinity>
7.2021079063

> <CNN_VS>
4.8591599464

> <CNNaffinity_variance>
0.3713271618

$$$$
[H]c1nc2c([H])c([H])c([H])c(-c3c([H])nn4c([H])c(-c5c([H])c([H])c(N6C([H])([H])C([H])([H])N([H])C([H])([H])C6([H])[H])c([H])c5[H])c([H])nc34)c2c([H])c1[H]


 32 37  0  0  0  0  0  0  0  0999 V2000
   56.9360   -5.2015   -8.7038 C   0  0  0  0  0  0  0  0  0  0  0  0
   56.5279   -5.7225   -7.4662 C   0  0  0  0  0  0  0  0  0  0  0  0
   55.2884   -5.5169   -7.0110 N   0  0  0  0  0  0  0  0  0  0  0  0
   54.4056   -4.7941   -7.7511 C   0  0  0  0  0  0  0  0  0  0  0  0
   53.0877   -4.4376   -7.5532 C   0  0  0  0  0  0  0  0  0  0  0  0
   52.7042   -3.7120   -8.6495 C   0  0  0  0  0  0  0  0  0  0  0  0
   53.7724   -3.6446   -9.4724 N   0  0  0  0  0  0  0  0  0  0  0  0
   54.7864   -4.2913   -8.9348 N   0  0  0  0  0  0  0  0  0  0  0  0
   56.0363   -4.4693   -9.4473 C   0  0  0  0  0  0  0  0  0  0  0  0
   52.2871   -4.7921   -6.3941 C   0  0  0  0  0  0  0  0  0  0  0  0
   52.6089   -5.8147   -5.5359 C   0  0  0  0  0  0  0  0  0  0  0  0
   51.7802   -6.0774   -4.4470 C   0  0  0  0  0  0  0  0  0  0  0  0
   50.6424   -5.3358   -4.2083 C   0  0  0  0  0  0  0  0  0  0  0  0
   50.3084   -4.3048   -5.0656 C   0  0  0  0  0  0  0  0  0  0  0  0
   49.1915   -3.5913   -4.8308 N   0  0  0  0  0  0  0  0  0  0  0  0
   48.8234   -2.5750   -5.6552 C   0  0  0  0  0  0  0  0  0  0  0  0
   49.6215   -2.3014   -6.7271 C   0  0  0  0  0  0  0  0  0  0  0  0
   50.7613   -3.0123   -6.9861 C   0  0  0  0  0  0  0  0  0  0  0  0
   51.1348   -4.0560   -6.1354 C   0  0  0  0  0  0  0  0  0  0  0  0
   60.9265   -6.0917  -10.0112 C   0  0  0  0  0  0  0  0  0  0  0  0
   60.5344   -6.2341   -8.6800 C   0  0  0  0  0  0  0  0  0  0  0  0
   59.2572   -5.9353   -8.2647 C   0  0  0  0  0  0  0  0  0  0  0  0
   58.2943   -5.4733   -9.1648 C   0  0  0  0  0  0  0  0  0  0  0  0
   58.6804   -5.3326  -10.4692 C   0  0  0  0  0  0  0  0  0  0  0  0
   59.9804   -5.6367  -10.8958 C   0  0  0  0  0  0  0  0  0  0  0  0
   63.6442   -7.5904  -11.9879 C   0  0  0  0  0  0  0  0  0  0  0  0
   62.7046   -6.4223  -11.7683 C   0  0  0  0  0  0  0  0  0  0  0  0
   62.2616   -6.4093  -10.3975 N   0  0  0  0  0  0  0  0  0  0  0  0
   63.2862   -6.7069   -9.3911 C   0  0  0  0  0  0  0  0  0  0  0  0
   64.6337   -6.5283  -10.0995 C   0  0  0  0  0  0  0  0  0  0  0  0
   64.7283   -7.6396  -11.0358 N   0  0  0  0  0  0  0  0  0  0  0  0
   64.6466   -8.5062  -10.4310 H   0  0  0  0  0  0  0  0  0  0  0  0
 26 27  1  0  0  0
 27 28  1  0  0  0
 28 29  1  0  0  0
 29 30  1  0  0  0
 30 31  1  0  0  0
 28 20  1  0  0  0
 20 21  2  0  0  0
 21 22  1  0  0  0
 22 23  2  0  0  0
 23 24  1  0  0  0
 24 25  2  0  0  0
 23  1  1  0  0  0
  1  2  1  0  0  0
  2  3  2  0  0  0
  3  4  1  0  0  0
  4  5  2  0  0  0
  5  6  1  0  0  0
  6  7  2  0  0  0
  7  8  1  0  0  0
  8  9  1  0  0  0
  5 10  1  0  0  0
 10 11  2  0  0  0
 11 12  1  0  0  0
 12 13  2  0  0  0
 13 14  1  0  0  0
 14 15  2  0  0  0
 15 16  1  0  0  0
 16 17  2  0  0  0
 17 18  1  0  0  0
 18 19  2  0  0  0
 31 26  1  0  0  0
 25 20  1  0  0  0
  9  1  2  0  0  0
 19 10  1  0  0  0
  8  4  1  0  0  0
 19 14  1  0  0  0
 31 32  1  0  0  0
M  END
> <minimizedAffinity>
-9.60271

> <CNNscore>
0.5396054387

> <CNNaffinity>
6.8942933083

> <CNN_VS>
3.7201981544

> <CNNaffinity_variance>
0.6437951326

$$$$
[H]c1nc2c([H])c([H])c([H])c(-c3c([H])nn4c([H])c(-c5c([H])c([H])c(N6C([H])([H])C([H])([H])N([H])C([H])([H])C6([H])[H])c([H])c5[H])c([H])nc34)c2c([H])c1[H]


 32 37  0  0  0  0  0  0  0  0999 V2000
   55.5964   -4.1391  -10.2520 C   0  0  0  0  0  0  0  0  0  0  0  0
   54.3965   -3.4136  -10.3111 C   0  0  0  0  0  0  0  0  0  0  0  0
   53.4983   -3.4927   -9.3248 N   0  0  0  0  0  0  0  0  0  0  0  0
   53.7433   -4.2846   -8.2467 C   0  0  0  0  0  0  0  0  0  0  0  0
   53.0289   -4.5496   -7.0966 C   0  0  0  0  0  0  0  0  0  0  0  0
   53.7807   -5.4212   -6.3546 C   0  0  0  0  0  0  0  0  0  0  0  0
   54.9109   -5.6619   -7.0529 N   0  0  0  0  0  0  0  0  0  0  0  0
   54.8869   -4.9824   -8.1813 N   0  0  0  0  0  0  0  0  0  0  0  0
   55.8370   -4.9400   -9.1570 C   0  0  0  0  0  0  0  0  0  0  0  0
   51.7327   -3.9842   -6.7646 C   0  0  0  0  0  0  0  0  0  0  0  0
   51.0963   -3.0444   -7.5375 C   0  0  0  0  0  0  0  0  0  0  0  0
   49.8508   -2.5634   -7.1388 C   0  0  0  0  0  0  0  0  0  0  0  0
   49.2394   -3.0073   -5.9853 C   0  0  0  0  0  0  0  0  0  0  0  0
   49.8707   -3.9525   -5.1993 C   0  0  0  0  0  0  0  0  0  0  0  0
   49.2714   -4.3742   -4.0703 N   0  0  0  0  0  0  0  0  0  0  0  0
   49.8633   -5.2960   -3.2654 C   0  0  0  0  0  0  0  0  0  0  0  0
   51.0830   -5.7799   -3.6382 C   0  0  0  0  0  0  0  0  0  0  0  0
   51.7116   -5.3667   -4.7810 C   0  0  0  0  0  0  0  0  0  0  0  0
   51.0986   -4.4189   -5.6045 C   0  0  0  0  0  0  0  0  0  0  0  0
   58.3613   -3.6466  -13.4983 C   0  0  0  0  0  0  0  0  0  0  0  0
   56.9803   -3.5899  -13.6869 C   0  0  0  0  0  0  0  0  0  0  0  0
   56.0988   -3.7608  -12.6444 C   0  0  0  0  0  0  0  0  0  0  0  0
   56.5535   -4.0006  -11.3457 C   0  0  0  0  0  0  0  0  0  0  0  0
   57.9076   -4.0575  -11.1625 C   0  0  0  0  0  0  0  0  0  0  0  0
   58.8083   -3.8831  -12.2220 C   0  0  0  0  0  0  0  0  0  0  0  0
   59.4955   -3.7016  -16.9983 C   0  0  0  0  0  0  0  0  0  0  0  0
   58.8067   -2.9469  -15.8795 C   0  0  0  0  0  0  0  0  0  0  0  0
   59.2388   -3.4675  -14.6076 N   0  0  0  0  0  0  0  0  0  0  0  0
   60.6686   -3.7741  -14.4941 C   0  0  0  0  0  0  0  0  0  0  0  0
   61.3481   -3.0398  -15.6553 C   0  0  0  0  0  0  0  0  0  0  0  0
   60.9315   -3.7486  -16.8573 N   0  0  0  0  0  0  0  0  0  0  0  0
   61.2527   -4.7470  -16.7036 H   0  0  0  0  0  0  0  0  0  0  0  0
 26 27  1  0  0  0
 27 28  1  0  0  0
 28 29  1  0  0  0
 29 30  1  0  0  0
 30 31  1  0  0  0
 28 20  1  0  0  0
 20 21  2  0  0  0
 21 22  1  0  0  0
 22 23  2  0  0  0
 23 24  1  0  0  0
 24 25  2  0  0  0
 23  1  1  0  0  0
  1  2  1  0  0  0
  2  3  2  0  0  0
  3  4  1  0  0  0
  4  5  2  0  0  0
  5  6  1  0  0  0
  6  7  2  0  0  0
  7  8  1  0  0  0
  8  9  1  0  0  0
  5 10  1  0  0  0
 10 11  2  0  0  0
 11 12  1  0  0  0
 12 13  2  0  0  0
 13 14  1  0  0  0
 14 15  2  0  0  0
 15 16  1  0  0  0
 16 17  2  0  0  0
 17 18  1  0  0  0
 18 19  2  0  0  0
 31 26  1  0  0  0
 25 20  1  0  0  0
  9  1  2  0  0  0
 19 10  1  0  0  0
  8  4  1  0  0  0
 19 14  1  0  0  0
 31 32  1  0  0  0
M  END
> <minimizedAffinity>
-10.68332

> <CNNscore>
0.4969664812

> <CNNaffinity>
6.9720969200

> <CNN_VS>
3.4648985863

> <CNNaffinity_variance>
0.2676880956

$$$$
[H]c1nc2c([H])c([H])c([H])c(-c3c([H])nn4c([H])c(-c5c([H])c([H])c(N6C([H])([H])C([H])([H])N([H])C([H])([H])C6([H])[H])c([H])c5[H])c([H])nc34)c2c([H])c1[H]


 32 37  0  0  0  0  0  0  0  0999 V2000
   55.5029   -4.2832   -9.8214 C   0  0  0  0  0  0  0  0  0  0  0  0
   54.3810   -3.4427   -9.8885 C   0  0  0  0  0  0  0  0  0  0  0  0
   53.4186   -3.5087   -8.9637 N   0  0  0  0  0  0  0  0  0  0  0  0
   53.5209   -4.3997   -7.9413 C   0  0  0  0  0  0  0  0  0  0  0  0
   52.7137   -4.6804   -6.8583 C   0  0  0  0  0  0  0  0  0  0  0  0
   53.3335   -5.6741   -6.1486 C   0  0  0  0  0  0  0  0  0  0  0  0
   54.4788   -5.9697   -6.7998 N   0  0  0  0  0  0  0  0  0  0  0  0
   54.5890   -5.2078   -7.8689 N   0  0  0  0  0  0  0  0  0  0  0  0
   55.5989   -5.1840   -8.7833 C   0  0  0  0  0  0  0  0  0  0  0  0
   51.4566   -4.0189   -6.5545 C   0  0  0  0  0  0  0  0  0  0  0  0
   50.8715   -3.0898   -7.3792 C   0  0  0  0  0  0  0  0  0  0  0  0
   49.6606   -2.5115   -7.0040 C   0  0  0  0  0  0  0  0  0  0  0  0
   49.0331   -2.8484   -5.8233 C   0  0  0  0  0  0  0  0  0  0  0  0
   49.6130   -3.7818   -4.9853 C   0  0  0  0  0  0  0  0  0  0  0  0
   48.9988   -4.0988   -3.8303 N   0  0  0  0  0  0  0  0  0  0  0  0
   49.5409   -5.0054   -2.9746 C   0  0  0  0  0  0  0  0  0  0  0  0
   50.7261   -5.5834   -3.3236 C   0  0  0  0  0  0  0  0  0  0  0  0
   51.3689   -5.2775   -4.4919 C   0  0  0  0  0  0  0  0  0  0  0  0
   50.8072   -4.3448   -5.3676 C   0  0  0  0  0  0  0  0  0  0  0  0
   58.5112   -3.8111  -12.8468 C   0  0  0  0  0  0  0  0  0  0  0  0
   57.1831   -3.4408  -13.0590 C   0  0  0  0  0  0  0  0  0  0  0  0
   56.2208   -3.6060  -12.0897 C   0  0  0  0  0  0  0  0  0  0  0  0
   56.5360   -4.1558  -10.8450 C   0  0  0  0  0  0  0  0  0  0  0  0
   57.8380   -4.5199  -10.6388 C   0  0  0  0  0  0  0  0  0  0  0  0
   58.8209   -4.3524  -11.6238 C   0  0  0  0  0  0  0  0  0  0  0  0
   61.7378   -2.9503  -14.3919 C   0  0  0  0  0  0  0  0  0  0  0  0
   60.8594   -4.0021  -13.7454 C   0  0  0  0  0  0  0  0  0  0  0  0
   59.4754   -3.6256  -13.8805 N   0  0  0  0  0  0  0  0  0  0  0  0
   59.0886   -3.0653  -15.1796 C   0  0  0  0  0  0  0  0  0  0  0  0
   60.2109   -3.4467  -16.1513 C   0  0  0  0  0  0  0  0  0  0  0  0
   61.3581   -2.6442  -15.7507 N   0  0  0  0  0  0  0  0  0  0  0  0
   61.0206   -1.6419  -15.8205 H   0  0  0  0  0  0  0  0  0  0  0  0
 26 27  1  0  0  0
 27 28  1  0  0  0
 28 29  1  0  0  0
 29 30  1  0  0  0
 30 31  1  0  0  0
 28 20  1  0  0  0
 20 21  2  0  0  0
 21 22  1  0  0  0
 22 23  2  0  0  0
 23 24  1  0  0  0
 24 25  2  0  0  0
 23  1  1  0  0  0
  1  2  1  0  0  0
  2  3  2  0  0  0
  3  4  1  0  0  0
  4  5  2  0  0  0
  5  6  1  0  0  0
  6  7  2  0  0  0
  7  8  1  0  0  0
  8  9  1  0  0  0
  5 10  1  0  0  0
 10 11  2  0  0  0
 11 12  1  0  0  0
 12 13  2  0  0  0
 13 14  1  0  0  0
 14 15  2  0  0  0
 15 16  1  0  0  0
 16 17  2  0  0  0
 17 18  1  0  0  0
 18 19  2  0  0  0
 31 26  1  0  0  0
 25 20  1  0  0  0
  9  1  2  0  0  0
 19 10  1  0  0  0
  8  4  1  0  0  0
 19 14  1  0  0  0
 31 32  1  0  0  0
M  END
> <minimizedAffinity>
-11.07608

> <CNNscore>
0.4665618837

> <CNNaffinity>
6.8260331154

> <CNN_VS>
3.1847667694

> <CNNaffinity_variance>
0.1305957139

$$$$
[H]c1nc2c([H])c([H])c([H])c(-c3c([H])nn4c([H])c(-c5c([H])c([H])c(N6C([H])([H])C([H])([H])N([H])C([H])([H])C6([H])[H])c([H])c5[H])c([H])nc34)c2c([H])c1[H]


 32 37  0  0  0  0  0  0  0  0999 V2000
   56.7515   -4.9973   -8.7823 C   0  0  0  0  0  0  0  0  0  0  0  0
   56.0551   -5.8478   -7.9098 C   0  0  0  0  0  0  0  0  0  0  0  0
   54.8151   -5.5521   -7.5085 N   0  0  0  0  0  0  0  0  0  0  0  0
   54.2141   -4.4137   -7.9470 C   0  0  0  0  0  0  0  0  0  0  0  0
   52.9685   -3.8650   -7.7222 C   0  0  0  0  0  0  0  0  0  0  0  0
   52.9112   -2.7022   -8.4433 C   0  0  0  0  0  0  0  0  0  0  0  0
   54.0960   -2.5716   -9.0775 N   0  0  0  0  0  0  0  0  0  0  0  0
   54.8718   -3.5940   -8.7805 N   0  0  0  0  0  0  0  0  0  0  0  0
   56.1363   -3.8453   -9.2214 C   0  0  0  0  0  0  0  0  0  0  0  0
   51.9350   -4.4449   -6.8820 C   0  0  0  0  0  0  0  0  0  0  0  0
   50.5985   -4.4141   -7.1960 C   0  0  0  0  0  0  0  0  0  0  0  0
   49.6804   -5.0018   -6.3282 C   0  0  0  0  0  0  0  0  0  0  0  0
   50.0798   -5.6147   -5.1593 C   0  0  0  0  0  0  0  0  0  0  0  0
   51.4221   -5.6512   -4.8328 C   0  0  0  0  0  0  0  0  0  0  0  0
   51.8031   -6.2435   -3.6857 N   0  0  0  0  0  0  0  0  0  0  0  0
   53.1126   -6.2927   -3.3243 C   0  0  0  0  0  0  0  0  0  0  0  0
   54.0276   -5.7233   -4.1605 C   0  0  0  0  0  0  0  0  0  0  0  0
   53.6645   -5.1159   -5.3314 C   0  0  0  0  0  0  0  0  0  0  0  0
   52.3171   -5.0681   -5.6979 C   0  0  0  0  0  0  0  0  0  0  0  0
   60.7117   -6.0252  -10.0808 C   0  0  0  0  0  0  0  0  0  0  0  0
   59.7440   -5.5457  -10.9638 C   0  0  0  0  0  0  0  0  0  0  0  0
   58.4725   -5.2295  -10.5439 C   0  0  0  0  0  0  0  0  0  0  0  0
   58.0955   -5.3775   -9.2072 C   0  0  0  0  0  0  0  0  0  0  0  0
   59.0446   -5.8492   -8.3429 C   0  0  0  0  0  0  0  0  0  0  0  0
   60.3409   -6.1715   -8.7672 C   0  0  0  0  0  0  0  0  0  0  0  0
   63.2838   -7.4057  -12.3208 C   0  0  0  0  0  0  0  0  0  0  0  0
   62.3964   -6.2366  -11.9450 C   0  0  0  0  0  0  0  0  0  0  0  0
   62.0162   -6.3440  -10.5596 N   0  0  0  0  0  0  0  0  0  0  0  0
   63.0739   -6.7695   -9.6369 C   0  0  0  0  0  0  0  0  0  0  0  0
   64.3936   -6.5635  -10.3888 C   0  0  0  0  0  0  0  0  0  0  0  0
   64.4072   -7.5805  -11.4311 N   0  0  0  0  0  0  0  0  0  0  0  0
   64.3226   -8.4992  -10.9092 H   0  0  0  0  0  0  0  0  0  0  0  0
 26 27  1  0  0  0
 27 28  1  0  0  0
 28 29  1  0  0  0
 29 30  1  0  0  0
 30 31  1  0  0  0
 28 20  1  0  0  0
 20 21  2  0  0  0
 21 22  1  0  0  0
 22 23  2  0  0  0
 23 24  1  0  0  0
 24 25  2  0  0  0
 23  1  1  0  0  0
  1  2  1  0  0  0
  2  3  2  0  0  0
  3  4  1  0  0  0
  4  5  2  0  0  0
  5  6  1  0  0  0
  6  7  2  0  0  0
  7  8  1  0  0  0
  8  9  1  0  0  0
  5 10  1  0  0  0
 10 11  2  0  0  0
 11 12  1  0  0  0
 12 13  2  0  0  0
 13 14  1  0  0  0
 14 15  2  0  0  0
 15 16  1  0  0  0
 16 17  2  0  0  0
 17 18  1  0  0  0
 18 19  2  0  0  0
 31 26  1  0  0  0
 25 20  1  0  0  0
  9  1  2  0  0  0
 19 10  1  0  0  0
  8  4  1  0  0  0
 19 14  1  0  0  0
 31 32  1  0  0  0
M  END
> <minimizedAffinity>
-7.28123

> <CNNscore>
0.4248688817

> <CNNaffinity>
6.6987090111

> <CNN_VS>
2.8460729122

> <CNNaffinity_variance>
0.4830625653

$$$$
[H]c1nc2c([H])c([H])c([H])c(-c3c([H])nn4c([H])c(-c5c([H])c([H])c(N6C([H])([H])C([H])([H])N([H])C([H])([H])C6([H])[H])c([H])c5[H])c([H])nc34)c2c([H])c1[H]


 32 37  0  0  0  0  0  0  0  0999 V2000
   56.4873   -4.2137  -10.3838 C   0  0  0  0  0  0  0  0  0  0  0  0
   55.1782   -3.8088  -10.6869 C   0  0  0  0  0  0  0  0  0  0  0  0
   54.2115   -3.8689   -9.7661 N   0  0  0  0  0  0  0  0  0  0  0  0
   54.4926   -4.3273   -8.5170 C   0  0  0  0  0  0  0  0  0  0  0  0
   53.7246   -4.4863   -7.3820 C   0  0  0  0  0  0  0  0  0  0  0  0
   54.5521   -4.9803   -6.4091 C   0  0  0  0  0  0  0  0  0  0  0  0
   55.7781   -5.1079   -6.9602 N   0  0  0  0  0  0  0  0  0  0  0  0
   55.7406   -4.7173   -8.2178 N   0  0  0  0  0  0  0  0  0  0  0  0
   56.7641   -4.6780   -9.1164 C   0  0  0  0  0  0  0  0  0  0  0  0
   52.3113   -4.1688   -7.2735 C   0  0  0  0  0  0  0  0  0  0  0  0
   51.8317   -2.8904   -7.1264 C   0  0  0  0  0  0  0  0  0  0  0  0
   50.4568   -2.6842   -7.0348 C   0  0  0  0  0  0  0  0  0  0  0  0
   49.5629   -3.7328   -7.0878 C   0  0  0  0  0  0  0  0  0  0  0  0
   50.0341   -5.0235   -7.2351 C   0  0  0  0  0  0  0  0  0  0  0  0
   49.1557   -6.0425   -7.2771 N   0  0  0  0  0  0  0  0  0  0  0  0
   49.5792   -7.3272   -7.4122 C   0  0  0  0  0  0  0  0  0  0  0  0
   50.9218   -7.5505   -7.5039 C   0  0  0  0  0  0  0  0  0  0  0  0
   51.8335   -6.5313   -7.4639 C   0  0  0  0  0  0  0  0  0  0  0  0
   51.3926   -5.2128   -7.3248 C   0  0  0  0  0  0  0  0  0  0  0  0
   59.4666   -3.8053  -13.4469 C   0  0  0  0  0  0  0  0  0  0  0  0
   58.1331   -3.4555  -13.6597 C   0  0  0  0  0  0  0  0  0  0  0  0
   57.1802   -3.6003  -12.6778 C   0  0  0  0  0  0  0  0  0  0  0  0
   57.5109   -4.1077  -11.4193 C   0  0  0  0  0  0  0  0  0  0  0  0
   58.8183   -4.4517  -11.2125 C   0  0  0  0  0  0  0  0  0  0  0  0
   59.7916   -4.3049  -12.2102 C   0  0  0  0  0  0  0  0  0  0  0  0
   60.8216   -3.8403  -16.8677 C   0  0  0  0  0  0  0  0  0  0  0  0
   60.0936   -3.0789  -15.7787 C   0  0  0  0  0  0  0  0  0  0  0  0
   60.4207   -3.6422  -14.4937 N   0  0  0  0  0  0  0  0  0  0  0  0
   61.8261   -4.0119  -14.2961 C   0  0  0  0  0  0  0  0  0  0  0  0
   62.6092   -3.2847  -15.3949 C   0  0  0  0  0  0  0  0  0  0  0  0
   62.2423   -3.9514  -16.6365 N   0  0  0  0  0  0  0  0  0  0  0  0
   62.5112   -4.9654  -16.4849 H   0  0  0  0  0  0  0  0  0  0  0  0
 26 27  1  0  0  0
 27 28  1  0  0  0
 28 29  1  0  0  0
 29 30  1  0  0  0
 30 31  1  0  0  0
 28 20  1  0  0  0
 20 21  2  0  0  0
 21 22  1  0  0  0
 22 23  2  0  0  0
 23 24  1  0  0  0
 24 25  2  0  0  0
 23  1  1  0  0  0
  1  2  1  0  0  0
  2  3  2  0  0  0
  3  4  1  0  0  0
  4  5  2  0  0  0
  5  6  1  0  0  0
  6  7  2  0  0  0
  7  8  1  0  0  0
  8  9  1  0  0  0
  5 10  1  0  0  0
 10 11  2  0  0  0
 11 12  1  0  0  0
 12 13  2  0  0  0
 13 14  1  0  0  0
 14 15  2  0  0  0
 15 16  1  0  0  0
 16 17  2  0  0  0
 17 18  1  0  0  0
 18 19  2  0  0  0
 31 26  1  0  0  0
 25 20  1  0  0  0
  9  1  2  0  0  0
 19 10  1  0  0  0
  8  4  1  0  0  0
 19 14  1  0  0  0
 31 32  1  0  0  0
M  END
> <minimizedAffinity>
-6.59373

> <CNNscore>
0.4110190570

> <CNNaffinity>
6.5465326309

> <CNN_VS>
2.6907496452

> <CNNaffinity_variance>
0.4587063789

$$$$
[H]c1nc2c([H])c([H])c([H])c(-c3c([H])nn4c([H])c(-c5c([H])c([H])c(N6C([H])([H])C([H])([H])N([H])C([H])([H])C6([H])[H])c([H])c5[H])c([H])nc34)c2c([H])c1[H]


 32 37  0  0  0  0  0  0  0  0999 V2000
   52.8661   -4.0773   -7.9982 C   0  0  0  0  0  0  0  0  0  0  0  0
   51.7258   -3.2804   -8.1833 C   0  0  0  0  0  0  0  0  0  0  0  0
   50.7448   -3.2661   -7.2759 N   0  0  0  0  0  0  0  0  0  0  0  0
   50.8460   -4.0313   -6.1561 C   0  0  0  0  0  0  0  0  0  0  0  0
   50.0218   -4.2079   -5.0640 C   0  0  0  0  0  0  0  0  0  0  0  0
   50.6497   -5.0969   -4.2329 C   0  0  0  0  0  0  0  0  0  0  0  0
   51.8162   -5.4341   -4.8234 N   0  0  0  0  0  0  0  0  0  0  0  0
   51.9316   -4.7968   -5.9706 N   0  0  0  0  0  0  0  0  0  0  0  0
   52.9608   -4.8506   -6.8618 C   0  0  0  0  0  0  0  0  0  0  0  0
   48.7424   -3.5501   -4.8627 C   0  0  0  0  0  0  0  0  0  0  0  0
   48.2716   -2.5463   -5.6729 C   0  0  0  0  0  0  0  0  0  0  0  0
   47.0285   -1.9780   -5.4023 C   0  0  0  0  0  0  0  0  0  0  0  0
   46.2570   -2.3981   -4.3393 C   0  0  0  0  0  0  0  0  0  0  0  0
   46.7209   -3.4071   -3.5170 C   0  0  0  0  0  0  0  0  0  0  0  0
   45.9660   -3.8054   -2.4763 N   0  0  0  0  0  0  0  0  0  0  0  0
   46.3904   -4.7885   -1.6388 C   0  0  0  0  0  0  0  0  0  0  0  0
   47.6048   -5.3582   -1.8867 C   0  0  0  0  0  0  0  0  0  0  0  0
   48.3897   -4.9704   -2.9380 C   0  0  0  0  0  0  0  0  0  0  0  0
   47.9485   -3.9593   -3.7955 C   0  0  0  0  0  0  0  0  0  0  0  0
   55.9930   -3.8782  -10.9323 C   0  0  0  0  0  0  0  0  0  0  0  0
   55.1414   -2.8017  -10.6836 C   0  0  0  0  0  0  0  0  0  0  0  0
   54.1330   -2.8757   -9.7505 C   0  0  0  0  0  0  0  0  0  0  0  0
   53.9185   -4.0401   -9.0094 C   0  0  0  0  0  0  0  0  0  0  0  0
   54.7531   -5.0952   -9.2554 C   0  0  0  0  0  0  0  0  0  0  0  0
   55.7817   -5.0229  -10.2046 C   0  0  0  0  0  0  0  0  0  0  0  0
   57.6583   -4.2214  -14.1955 C   0  0  0  0  0  0  0  0  0  0  0  0
   56.7697   -3.4005  -13.2832 C   0  0  0  0  0  0  0  0  0  0  0  0
   57.0229   -3.7593  -11.9111 N   0  0  0  0  0  0  0  0  0  0  0  0
   58.4303   -3.9621  -11.5519 C   0  0  0  0  0  0  0  0  0  0  0  0
   59.2471   -3.3098  -12.6729 C   0  0  0  0  0  0  0  0  0  0  0  0
   59.0556   -4.1633  -13.8372 N   0  0  0  0  0  0  0  0  0  0  0  0
   59.3950   -5.1183  -13.5272 H   0  0  0  0  0  0  0  0  0  0  0  0
 26 27  1  0  0  0
 27 28  1  0  0  0
 28 29  1  0  0  0
 29 30  1  0  0  0
 30 31  1  0  0  0
 28 20  1  0  0  0
 20 21  2  0  0  0
 21 22  1  0  0  0
 22 23  2  0  0  0
 23 24  1  0  0  0
 24 25  2  0  0  0
 23  1  1  0  0  0
  1  2  1  0  0  0
  2  3  2  0  0  0
  3  4  1  0  0  0
  4  5  2  0  0  0
  5  6  1  0  0  0
  6  7  2  0  0  0
  7  8  1  0  0  0
  8  9  1  0  0  0
  5 10  1  0  0  0
 10 11  2  0  0  0
 11 12  1  0  0  0
 12 13  2  0  0  0
 13 14  1  0  0  0
 14 15  2  0  0  0
 15 16  1  0  0  0
 16 17  2  0  0  0
 17 18  1  0  0  0
 18 19  2  0  0  0
 31 26  1  0  0  0
 25 20  1  0  0  0
  9  1  2  0  0  0
 19 10  1  0  0  0
  8  4  1  0  0  0
 19 14  1  0  0  0
 31 32  1  0  0  0
M  END
> <minimizedAffinity>
7.48123

> <CNNscore>
0.4091032147

> <CNNaffinity>
6.5494041443

> <CNN_VS>
2.6793823242

> <CNNaffinity_variance>
0.4362090230

$$$$
[H]c1nc2c([H])c([H])c([H])c(-c3c([H])nn4c([H])c(-c5c([H])c([H])c(N6C([H])([H])C([H])([H])N([H])C([H])([H])C6([H])[H])c([H])c5[H])c([H])nc34)c2c([H])c1[H]


 32 37  0  0  0  0  0  0  0  0999 V2000
   57.6466   -5.1591   -9.2621 C   0  0  0  0  0  0  0  0  0  0  0  0
   58.0217   -5.2466  -10.6116 C   0  0  0  0  0  0  0  0  0  0  0  0
   59.2522   -5.6370  -10.9573 N   0  0  0  0  0  0  0  0  0  0  0  0
   60.1581   -5.9551   -9.9941 C   0  0  0  0  0  0  0  0  0  0  0  0
   61.4653   -6.3929  -10.0448 C   0  0  0  0  0  0  0  0  0  0  0  0
   61.8762   -6.5658   -8.7499 C   0  0  0  0  0  0  0  0  0  0  0  0
   60.8337   -6.2375   -7.9571 N   0  0  0  0  0  0  0  0  0  0  0  0
   59.8094   -5.8739   -8.7015 N   0  0  0  0  0  0  0  0  0  0  0  0
   58.5703   -5.4820   -8.2920 C   0  0  0  0  0  0  0  0  0  0  0  0
   62.2262   -6.6256  -11.2601 C   0  0  0  0  0  0  0  0  0  0  0  0
   62.4394   -5.6629  -12.2158 C   0  0  0  0  0  0  0  0  0  0  0  0
   63.1870   -5.9798  -13.3481 C   0  0  0  0  0  0  0  0  0  0  0  0
   63.7192   -7.2381  -13.5347 C   0  0  0  0  0  0  0  0  0  0  0  0
   63.5106   -8.2150  -12.5799 C   0  0  0  0  0  0  0  0  0  0  0  0
   64.0258   -9.4433  -12.7736 N   0  0  0  0  0  0  0  0  0  0  0  0
   63.8357  -10.4342  -11.8626 C   0  0  0  0  0  0  0  0  0  0  0  0
   63.1068  -10.1443  -10.7467 C   0  0  0  0  0  0  0  0  0  0  0  0
   62.5733   -8.9037  -10.5278 C   0  0  0  0  0  0  0  0  0  0  0  0
   62.7718   -7.8889  -11.4676 C   0  0  0  0  0  0  0  0  0  0  0  0
   53.6727   -3.9135   -8.2220 C   0  0  0  0  0  0  0  0  0  0  0  0
   54.4705   -4.6505   -7.3467 C   0  0  0  0  0  0  0  0  0  0  0  0
   55.7390   -5.0576   -7.6905 C   0  0  0  0  0  0  0  0  0  0  0  0
   56.2836   -4.7481   -8.9390 C   0  0  0  0  0  0  0  0  0  0  0  0
   55.4998   -4.0269   -9.7967 C   0  0  0  0  0  0  0  0  0  0  0  0
   54.2075   -3.6101   -9.4494 C   0  0  0  0  0  0  0  0  0  0  0  0
   50.1738   -4.2767   -7.1427 C   0  0  0  0  0  0  0  0  0  0  0  0
   51.6337   -4.1501   -6.7576 C   0  0  0  0  0  0  0  0  0  0  0  0
   52.3622   -3.5153   -7.8262 N   0  0  0  0  0  0  0  0  0  0  0  0
   51.6895   -2.3858   -8.4764 C   0  0  0  0  0  0  0  0  0  0  0  0
   50.5696   -1.9586   -7.5210 C   0  0  0  0  0  0  0  0  0  0  0  0
   49.5859   -3.0310   -7.5749 N   0  0  0  0  0  0  0  0  0  0  0  0
   49.3107   -3.0901   -8.5967 H   0  0  0  0  0  0  0  0  0  0  0  0
 26 27  1  0  0  0
 27 28  1  0  0  0
 28 29  1  0  0  0
 29 30  1  0  0  0
 30 31  1  0  0  0
 28 20  1  0  0  0
 20 21  2  0  0  0
 21 22  1  0  0  0
 22 23  2  0  0  0
 23 24  1  0  0  0
 24 25  2  0  0  0
 23  1  1  0  0  0
  1  2  1  0  0  0
  2  3  2  0  0  0
  3  4  1  0  0  0
  4  5  2  0  0  0
  5  6  1  0  0  0
  6  7  2  0  0  0
  7  8  1  0  0  0
  8  9  1  0  0  0
  5 10  1  0  0  0
 10 11  2  0  0  0
 11 12  1  0  0  0
 12 13  2  0  0  0
 13 14  1  0  0  0
 14 15  2  0  0  0
 15 16  1  0  0  0
 16 17  2  0  0  0
 17 18  1  0  0  0
 18 19  2  0  0  0
 31 26  1  0  0  0
 25 20  1  0  0  0
  9  1  2  0  0  0
 19 10  1  0  0  0
  8  4  1  0  0  0
 19 14  1  0  0  0
 31 32  1  0  0  0
M  END
> <minimizedAffinity>
-8.36090

> <CNNscore>
0.3315553069

> <CNNaffinity>
6.0173430443

> <CNN_VS>
1.9950820208

> <CNNaffinity_variance>
0.0519635975

$$$$
[H]OC(=O)C([H])([H])[C@@]([H])(C(=O)N([H])[C@]([H])(C(=O)N([H])[C@]([H])(C(=O)N([H])[H])C([H])([H])C([H])(C([H])([H])[H])C([H])([H])[H])C([H])([H])C(=O)O[H])N([H])C(=O)[C@@]([H])(N([H])C(=O)[C@@]([H])(N([H])C(=O)[C@@]([H])(N([H])C(=O)C([H])([H])[H])C([H])([H])c1c([H])nc([H])n1[H])C([H])([H])c1c([H])c([H])c(O[H])c([H])c1[H])C([H])([H])c1c([H])c([H])c([H])c([H])c1[H]


 73 75  0  0  0  0  0  0  0  0999 V2000
   54.9473   -5.6661   -5.5348 C   0  0  0  0  0  0  0  0  0  0  0  0
   55.7182   -5.5503   -6.7343 N   0  0  0  0  0  0  0  0  0  0  0  0
   56.5894   -4.5147   -7.0255 C   0  0  0  0  0  0  0  0  0  0  0  0
   56.8180   -3.5170   -6.2951 O   0  0  0  0  0  0  0  0  0  0  0  0
   55.5984   -6.3260   -7.4366 H   0  0  0  0  0  0  0  0  0  0  0  0
   57.3776   -4.5238   -8.3484 C   0  0  0  0  0  0  0  0  0  0  0  0
   58.3923   -5.5798   -8.1991 N   0  0  0  0  0  0  0  0  0  0  0  0
   59.3565   -5.8058   -9.1738 C   0  0  0  0  0  0  0  0  0  0  0  0
   59.2374   -5.0168  -10.2203 O   0  0  0  0  0  0  0  0  0  0  0  0
   58.3263   -6.1087   -7.3211 H   0  0  0  0  0  0  0  0  0  0  0  0
   60.4503   -6.7543   -9.1898 C   0  0  0  0  0  0  0  0  0  0  0  0
   61.4645   -6.4003  -10.1909 N   0  0  0  0  0  0  0  0  0  0  0  0
   62.0834   -7.3080  -11.0640 C   0  0  0  0  0  0  0  0  0  0  0  0
   63.0864   -6.8264  -12.0323 C   0  0  0  0  0  0  0  0  0  0  0  0
   61.7991   -8.5267  -11.0385 O   0  0  0  0  0  0  0  0  0  0  0  0
   61.7148   -5.3846  -10.2120 H   0  0  0  0  0  0  0  0  0  0  0  0
   61.1190   -7.1147   -7.9292 C   0  0  0  0  0  0  0  0  0  0  0  0
   61.3046   -8.5563   -7.6487 C   0  0  0  0  0  0  0  0  0  0  0  0
   61.9288   -9.0365   -6.5010 C   0  0  0  0  0  0  0  0  0  0  0  0
   61.9890  -10.3547   -6.6097 N   0  0  0  0  0  0  0  0  0  0  0  0
   61.4253  -10.7414   -7.7904 C   0  0  0  0  0  0  0  0  0  0  0  0
   61.0222   -9.6251   -8.3884 N   0  0  0  0  0  0  0  0  0  0  0  0
   60.5492   -9.5626   -9.3143 H   0  0  0  0  0  0  0  0  0  0  0  0
   56.4104   -4.7356   -9.4501 C   0  0  0  0  0  0  0  0  0  0  0  0
   55.1219   -4.0263   -9.3772 C   0  0  0  0  0  0  0  0  0  0  0  0
   55.0972   -2.7016   -8.9096 C   0  0  0  0  0  0  0  0  0  0  0  0
   53.9228   -2.0313   -8.7993 C   0  0  0  0  0  0  0  0  0  0  0  0
   52.6941   -2.5718   -9.1254 C   0  0  0  0  0  0  0  0  0  0  0  0
   51.5130   -1.8797   -9.0061 O   0  0  0  0  0  0  0  0  0  0  0  0
   52.7355   -3.8904   -9.5886 C   0  0  0  0  0  0  0  0  0  0  0  0
   53.9185   -4.5805   -9.7040 C   0  0  0  0  0  0  0  0  0  0  0  0
   50.9497   -1.8805   -8.1724 H   0  0  0  0  0  0  0  0  0  0  0  0
   56.8715   -7.0209   -4.5149 N   0  0  0  0  0  0  0  0  0  0  0  0
   55.7032   -6.2203   -4.4124 C   0  0  0  0  0  0  0  0  0  0  0  0
   55.2656   -5.9568   -3.2448 O   0  0  0  0  0  0  0  0  0  0  0  0
   57.2715   -7.2916   -5.4426 H   0  0  0  0  0  0  0  0  0  0  0  0
   57.5025   -7.4597   -3.2754 C   0  0  0  0  0  0  0  0  0  0  0  0
   56.5724   -7.8063   -0.9918 N   0  0  0  0  0  0  0  0  0  0  0  0
   56.6161   -8.1665   -2.3589 C   0  0  0  0  0  0  0  0  0  0  0  0
   55.8974   -9.0959   -2.7832 O   0  0  0  0  0  0  0  0  0  0  0  0
   57.2018   -7.0235   -0.6737 H   0  0  0  0  0  0  0  0  0  0  0  0
   55.7345   -8.4169    0.0111 C   0  0  0  0  0  0  0  0  0  0  0  0
   53.3372   -8.5899   -0.8036 N   0  0  0  0  0  0  0  0  0  0  0  0
   54.3648   -7.9489   -0.0583 C   0  0  0  0  0  0  0  0  0  0  0  0
   54.0054   -6.8984    0.5790 O   0  0  0  0  0  0  0  0  0  0  0  0
   53.6133   -9.4382   -1.3424 H   0  0  0  0  0  0  0  0  0  0  0  0
   51.9346   -8.0800   -0.8086 C   0  0  0  0  0  0  0  0  0  0  0  0
   51.0218   -9.2014   -0.6264 C   0  0  0  0  0  0  0  0  0  0  0  0
   51.4233  -10.5193   -0.3019 N   0  0  0  0  0  0  0  0  0  0  0  0
   49.7858   -9.0052   -0.7665 O   0  0  0  0  0  0  0  0  0  0  0  0
   50.7693  -11.3423   -0.3490 H   0  0  0  0  0  0  0  0  0  0  0  0
   52.4091  -10.7739    0.0089 H   0  0  0  0  0  0  0  0  0  0  0  0
   51.8227   -7.2683   -2.0256 C   0  0  0  0  0  0  0  0  0  0  0  0
   52.3917   -4.8000   -1.8407 C   0  0  0  0  0  0  0  0  0  0  0  0
   51.3517   -5.8796   -2.0024 C   0  0  0  0  0  0  0  0  0  0  0  0
   50.3680   -5.5381   -3.1085 C   0  0  0  0  0  0  0  0  0  0  0  0
   56.3870   -8.0388    1.3609 C   0  0  0  0  0  0  0  0  0  0  0  0
   57.5774   -7.2207    1.2007 C   0  0  0  0  0  0  0  0  0  0  0  0
   57.4862   -5.8589    0.9942 O   0  0  0  0  0  0  0  0  0  0  0  0
   58.7413   -7.7125    1.2412 O   0  0  0  0  0  0  0  0  0  0  0  0
   56.6766   -5.4209    0.5540 H   0  0  0  0  0  0  0  0  0  0  0  0
   58.0929   -6.2024   -2.6076 C   0  0  0  0  0  0  0  0  0  0  0  0
   59.5010   -6.3557   -2.2703 C   0  0  0  0  0  0  0  0  0  0  0  0
   59.9113   -6.0308   -0.9676 O   0  0  0  0  0  0  0  0  0  0  0  0
   60.3441   -6.7551   -3.0723 O   0  0  0  0  0  0  0  0  0  0  0  0
   60.6744   -6.5021   -0.4955 H   0  0  0  0  0  0  0  0  0  0  0  0
   53.7583   -6.6357   -5.7982 C   0  0  0  0  0  0  0  0  0  0  0  0
   52.5274   -5.9311   -6.1358 C   0  0  0  0  0  0  0  0  0  0  0  0
   52.3209   -4.5813   -5.9956 C   0  0  0  0  0  0  0  0  0  0  0  0
   51.1220   -3.9883   -6.3267 C   0  0  0  0  0  0  0  0  0  0  0  0
   50.0563   -4.7254   -6.8211 C   0  0  0  0  0  0  0  0  0  0  0  0
   50.2410   -6.0657   -6.9685 C   0  0  0  0  0  0  0  0  0  0  0  0
   51.4513   -6.6695   -6.6359 C   0  0  0  0  0  0  0  0  0  0  0  0
 54 55  1  0  0  0
 55 56  1  0  0  0
 55 53  1  0  0  0
 53 47  1  0  0  0
 47 43  1  0  0  0
 43 44  1  0  0  0
 44 45  2  0  0  0
 44 42  1  0  0  0
 42 57  1  0  0  0
 57 58  1  0  0  0
 58 59  1  0  0  0
 58 60  2  0  0  0
 42 38  1  0  0  0
 38 39  1  0  0  0
 39 40  2  0  0  0
 39 37  1  0  0  0
 37 62  1  0  0  0
 62 63  1  0  0  0
 63 64  1  0  0  0
 63 65  2  0  0  0
 37 33  1  0  0  0
 33 34  1  0  0  0
 34 35  2  0  0  0
 34  1  1  0  0  0
  1 67  1  0  0  0
 67 68  1  0  0  0
 68 69  2  0  0  0
 69 70  1  0  0  0
 70 71  2  0  0  0
 71 72  1  0  0  0
 72 73  2  0  0  0
  1  2  1  0  0  0
  2  3  1  0  0  0
  3  4  2  0  0  0
  3  6  1  0  0  0
  6 24  1  0  0  0
 24 25  1  0  0  0
 25 26  2  0  0  0
 26 27  1  0  0  0
 27 28  2  0  0  0
 28 29  1  0  0  0
 28 30  1  0  0  0
 30 31  2  0  0  0
  6  7  1  0  0  0
  7  8  1  0  0  0
  8  9  2  0  0  0
  8 11  1  0  0  0
 11 17  1  0  0  0
 17 18  1  0  0  0
 18 19  2  0  0  0
 19 20  1  0  0  0
 20 21  2  0  0  0
 21 22  1  0  0  0
 11 12  1  0  0  0
 12 13  1  0  0  0
 13 14  1  0  0  0
 13 15  2  0  0  0
 47 48  1  0  0  0
 48 49  1  0  0  0
 48 50  2  0  0  0
 73 68  1  0  0  0
 31 25  1  0  0  0
 22 18  1  0  0  0
 43 46  1  0  0  0
 59 61  1  0  0  0
 38 41  1  0  0  0
 64 66  1  0  0  0
 33 36  1  0  0  0
  2  5  1  0  0  0
 29 32  1  0  0  0
  7 10  1  0  0  0
 22 23  1  0  0  0
 12 16  1  0  0  0
 49 51  1  0  0  0
 49 52  1  0  0  0
M  END
> <minimizedAffinity>
-7.72003

> <CNNscore>
0.1883626729

> <CNNaffinity>
7.4926667213

> <CNN_VS>
1.4113386869

> <CNNaffinity_variance>
0.5563008785

$$$$
[H]OC(=O)C([H])([H])[C@@]([H])(C(=O)N([H])[C@]([H])(C(=O)N([H])[C@]([H])(C(=O)N([H])[H])C([H])([H])C([H])(C([H])([H])[H])C([H])([H])[H])C([H])([H])C(=O)O[H])N([H])C(=O)[C@@]([H])(N([H])C(=O)[C@@]([H])(N([H])C(=O)[C@@]([H])(N([H])C(=O)C([H])([H])[H])C([H])([H])c1c([H])nc([H])n1[H])C([H])([H])c1c([H])c([H])c(O[H])c([H])c1[H])C([H])([H])c1c([H])c([H])c([H])c([H])c1[H]


 73 75  0  0  0  0  0  0  0  0999 V2000
   54.7889   -5.3002   -7.3719 C   0  0  0  0  0  0  0  0  0  0  0  0
   54.8941   -5.3312   -5.9455 N   0  0  0  0  0  0  0  0  0  0  0  0
   55.0399   -6.4762   -5.1813 C   0  0  0  0  0  0  0  0  0  0  0  0
   55.0812   -7.6540   -5.6197 O   0  0  0  0  0  0  0  0  0  0  0  0
   54.8562   -4.3976   -5.4596 H   0  0  0  0  0  0  0  0  0  0  0  0
   55.1647   -6.3665   -3.6504 C   0  0  0  0  0  0  0  0  0  0  0  0
   53.9233   -6.9424   -3.1083 N   0  0  0  0  0  0  0  0  0  0  0  0
   53.2626   -6.3645   -2.0311 C   0  0  0  0  0  0  0  0  0  0  0  0
   53.8739   -5.3025   -1.5510 O   0  0  0  0  0  0  0  0  0  0  0  0
   53.5964   -7.7825   -3.6006 H   0  0  0  0  0  0  0  0  0  0  0  0
   52.0230   -6.7518   -1.3910 C   0  0  0  0  0  0  0  0  0  0  0  0
   50.9032   -5.8995   -1.8101 N   0  0  0  0  0  0  0  0  0  0  0  0
   50.6742   -5.4610   -3.1233 C   0  0  0  0  0  0  0  0  0  0  0  0
   49.5064   -4.6101   -3.4192 C   0  0  0  0  0  0  0  0  0  0  0  0
   51.4458   -5.7802   -4.0557 O   0  0  0  0  0  0  0  0  0  0  0  0
   50.2588   -5.6203   -1.0345 H   0  0  0  0  0  0  0  0  0  0  0  0
   51.5976   -8.1605   -1.4220 C   0  0  0  0  0  0  0  0  0  0  0  0
   50.9610   -8.7031   -0.2008 C   0  0  0  0  0  0  0  0  0  0  0  0
   50.8740  -10.0649    0.0741 C   0  0  0  0  0  0  0  0  0  0  0  0
   50.1859  -10.1950    1.1978 N   0  0  0  0  0  0  0  0  0  0  0  0
   49.8246   -8.9621    1.6569 C   0  0  0  0  0  0  0  0  0  0  0  0
   50.3138   -8.0870    0.7844 N   0  0  0  0  0  0  0  0  0  0  0  0
   50.2164   -7.0512    0.8356 H   0  0  0  0  0  0  0  0  0  0  0  0
   56.4076   -7.0639   -3.2466 C   0  0  0  0  0  0  0  0  0  0  0  0
   57.3373   -6.3482   -2.3568 C   0  0  0  0  0  0  0  0  0  0  0  0
   58.3840   -7.0606   -1.7475 C   0  0  0  0  0  0  0  0  0  0  0  0
   59.2381   -6.4379   -0.8968 C   0  0  0  0  0  0  0  0  0  0  0  0
   59.1571   -5.0988   -0.5676 C   0  0  0  0  0  0  0  0  0  0  0  0
   60.0294   -4.4835    0.2977 O   0  0  0  0  0  0  0  0  0  0  0  0
   58.1105   -4.4041   -1.1815 C   0  0  0  0  0  0  0  0  0  0  0  0
   57.2381   -5.0235   -2.0444 C   0  0  0  0  0  0  0  0  0  0  0  0
   59.8777   -4.4226    1.2905 H   0  0  0  0  0  0  0  0  0  0  0  0
   56.2588   -4.9475   -9.4438 N   0  0  0  0  0  0  0  0  0  0  0  0
   56.0597   -5.0226   -8.0399 C   0  0  0  0  0  0  0  0  0  0  0  0
   57.0705   -4.8347   -7.2868 O   0  0  0  0  0  0  0  0  0  0  0  0
   55.4768   -5.1120  -10.1186 H   0  0  0  0  0  0  0  0  0  0  0  0
   57.6003   -4.6323   -9.9215 C   0  0  0  0  0  0  0  0  0  0  0  0
   58.5229   -4.1514  -12.1837 N   0  0  0  0  0  0  0  0  0  0  0  0
   57.6396   -3.8184  -11.1304 C   0  0  0  0  0  0  0  0  0  0  0  0
   56.8937   -2.8217  -11.2322 O   0  0  0  0  0  0  0  0  0  0  0  0
   59.1417   -4.9941  -12.0529 H   0  0  0  0  0  0  0  0  0  0  0  0
   58.6500   -3.4371  -13.4305 C   0  0  0  0  0  0  0  0  0  0  0  0
   57.6303   -3.3930  -15.7540 N   0  0  0  0  0  0  0  0  0  0  0  0
   57.7361   -3.9299  -14.4414 C   0  0  0  0  0  0  0  0  0  0  0  0
   56.9570   -4.9133  -14.1873 O   0  0  0  0  0  0  0  0  0  0  0  0
   58.2451   -2.5813  -15.9756 H   0  0  0  0  0  0  0  0  0  0  0  0
   56.6936   -3.9662  -16.7647 C   0  0  0  0  0  0  0  0  0  0  0  0
   57.4658   -4.4801  -17.8889 C   0  0  0  0  0  0  0  0  0  0  0  0
   57.0420   -5.5263  -18.7428 N   0  0  0  0  0  0  0  0  0  0  0  0
   58.5925   -3.9731  -18.1320 O   0  0  0  0  0  0  0  0  0  0  0  0
   57.6847   -5.9958  -19.4313 H   0  0  0  0  0  0  0  0  0  0  0  0
   56.0508   -5.9145  -18.7500 H   0  0  0  0  0  0  0  0  0  0  0  0
   55.7006   -2.9148  -17.0114 C   0  0  0  0  0  0  0  0  0  0  0  0
   53.8672   -2.4627  -18.7098 C   0  0  0  0  0  0  0  0  0  0  0  0
   55.3346   -2.4826  -18.3642 C   0  0  0  0  0  0  0  0  0  0  0  0
   56.0266   -1.2088  -18.8186 C   0  0  0  0  0  0  0  0  0  0  0  0
   60.1214   -3.6413  -13.8595 C   0  0  0  0  0  0  0  0  0  0  0  0
   60.6820   -2.4743  -14.5196 C   0  0  0  0  0  0  0  0  0  0  0  0
   61.2829   -1.4638  -13.7961 O   0  0  0  0  0  0  0  0  0  0  0  0
   60.6455   -2.3298  -15.7749 O   0  0  0  0  0  0  0  0  0  0  0  0
   61.0347   -1.2558  -12.8285 H   0  0  0  0  0  0  0  0  0  0  0  0
   58.3214   -5.9766  -10.1414 C   0  0  0  0  0  0  0  0  0  0  0  0
   59.6007   -6.0461   -9.4495 C   0  0  0  0  0  0  0  0  0  0  0  0
   59.5994   -6.0159   -8.0460 O   0  0  0  0  0  0  0  0  0  0  0  0
   60.6783   -6.1293  -10.0371 O   0  0  0  0  0  0  0  0  0  0  0  0
   60.2895   -6.4996   -7.4828 H   0  0  0  0  0  0  0  0  0  0  0  0
   53.8106   -4.1582   -7.7748 C   0  0  0  0  0  0  0  0  0  0  0  0
   52.4188   -4.4912   -7.4965 C   0  0  0  0  0  0  0  0  0  0  0  0
   51.9008   -5.7613   -7.4459 C   0  0  0  0  0  0  0  0  0  0  0  0
   50.5678   -5.9959   -7.1876 C   0  0  0  0  0  0  0  0  0  0  0  0
   49.6751   -4.9583   -6.9638 C   0  0  0  0  0  0  0  0  0  0  0  0
   50.1692   -3.6910   -7.0088 C   0  0  0  0  0  0  0  0  0  0  0  0
   51.5159   -3.4489   -7.2688 C   0  0  0  0  0  0  0  0  0  0  0  0
 54 55  1  0  0  0
 55 56  1  0  0  0
 55 53  1  0  0  0
 53 47  1  0  0  0
 47 43  1  0  0  0
 43 44  1  0  0  0
 44 45  2  0  0  0
 44 42  1  0  0  0
 42 57  1  0  0  0
 57 58  1  0  0  0
 58 59  1  0  0  0
 58 60  2  0  0  0
 42 38  1  0  0  0
 38 39  1  0  0  0
 39 40  2  0  0  0
 39 37  1  0  0  0
 37 62  1  0  0  0
 62 63  1  0  0  0
 63 64  1  0  0  0
 63 65  2  0  0  0
 37 33  1  0  0  0
 33 34  1  0  0  0
 34 35  2  0  0  0
 34  1  1  0  0  0
  1 67  1  0  0  0
 67 68  1  0  0  0
 68 69  2  0  0  0
 69 70  1  0  0  0
 70 71  2  0  0  0
 71 72  1  0  0  0
 72 73  2  0  0  0
  1  2  1  0  0  0
  2  3  1  0  0  0
  3  4  2  0  0  0
  3  6  1  0  0  0
  6 24  1  0  0  0
 24 25  1  0  0  0
 25 26  2  0  0  0
 26 27  1  0  0  0
 27 28  2  0  0  0
 28 29  1  0  0  0
 28 30  1  0  0  0
 30 31  2  0  0  0
  6  7  1  0  0  0
  7  8  1  0  0  0
  8  9  2  0  0  0
  8 11  1  0  0  0
 11 17  1  0  0  0
 17 18  1  0  0  0
 18 19  2  0  0  0
 19 20  1  0  0  0
 20 21  2  0  0  0
 21 22  1  0  0  0
 11 12  1  0  0  0
 12 13  1  0  0  0
 13 14  1  0  0  0
 13 15  2  0  0  0
 47 48  1  0  0  0
 48 49  1  0  0  0
 48 50  2  0  0  0
 73 68  1  0  0  0
 31 25  1  0  0  0
 22 18  1  0  0  0
 43 46  1  0  0  0
 59 61  1  0  0  0
 38 41  1  0  0  0
 64 66  1  0  0  0
 33 36  1  0  0  0
  2  5  1  0  0  0
 29 32  1  0  0  0
  7 10  1  0  0  0
 22 23  1  0  0  0
 12 16  1  0  0  0
 49 51  1  0  0  0
 49 52  1  0  0  0
M  END
> <minimizedAffinity>
-8.67846

> <CNNscore>
0.1865430772

> <CNNaffinity>
7.1604781151

> <CNN_VS>
1.3357375860

> <CNNaffinity_variance>
0.4205707610

$$$$
[H]OC(=O)C([H])([H])[C@@]([H])(C(=O)N([H])[C@]([H])(C(=O)N([H])[C@]([H])(C(=O)N([H])[H])C([H])([H])C([H])(C([H])([H])[H])C([H])([H])[H])C([H])([H])C(=O)O[H])N([H])C(=O)[C@@]([H])(N([H])C(=O)[C@@]([H])(N([H])C(=O)[C@@]([H])(N([H])C(=O)C([H])([H])[H])C([H])([H])c1c([H])nc([H])n1[H])C([H])([H])c1c([H])c([H])c(O[H])c([H])c1[H])C([H])([H])c1c([H])c([H])c([H])c([H])c1[H]


 73 75  0  0  0  0  0  0  0  0999 V2000
   55.6082   -6.1218   -6.1824 C   0  0  0  0  0  0  0  0  0  0  0  0
   56.6547   -6.0678   -7.1564 N   0  0  0  0  0  0  0  0  0  0  0  0
   57.1856   -4.9075   -7.6930 C   0  0  0  0  0  0  0  0  0  0  0  0
   56.8178   -3.7357   -7.4232 O   0  0  0  0  0  0  0  0  0  0  0  0
   57.0370   -6.9961   -7.4750 H   0  0  0  0  0  0  0  0  0  0  0  0
   58.3295   -4.9904   -8.7206 C   0  0  0  0  0  0  0  0  0  0  0  0
   59.4604   -5.6064   -8.0075 N   0  0  0  0  0  0  0  0  0  0  0  0
   60.5039   -6.2198   -8.6898 C   0  0  0  0  0  0  0  0  0  0  0  0
   60.3491   -6.2147   -9.9967 O   0  0  0  0  0  0  0  0  0  0  0  0
   59.4090   -5.5275   -6.9847 H   0  0  0  0  0  0  0  0  0  0  0  0
   61.7095   -6.8351   -8.1756 C   0  0  0  0  0  0  0  0  0  0  0  0
   61.6439   -8.3006   -8.2394 N   0  0  0  0  0  0  0  0  0  0  0  0
   61.8144   -9.1614   -7.1444 C   0  0  0  0  0  0  0  0  0  0  0  0
   61.7190  -10.6206   -7.3368 C   0  0  0  0  0  0  0  0  0  0  0  0
   62.0465   -8.7130   -5.9990 O   0  0  0  0  0  0  0  0  0  0  0  0
   61.4597   -8.6837   -9.1955 H   0  0  0  0  0  0  0  0  0  0  0  0
   63.0219   -6.3870   -8.6687 C   0  0  0  0  0  0  0  0  0  0  0  0
   64.0488   -6.0542   -7.6558 C   0  0  0  0  0  0  0  0  0  0  0  0
   65.2246   -5.3726   -7.9561 C   0  0  0  0  0  0  0  0  0  0  0  0
   65.9382   -5.3120   -6.8425 N   0  0  0  0  0  0  0  0  0  0  0  0
   65.2624   -5.9332   -5.8332 C   0  0  0  0  0  0  0  0  0  0  0  0
   64.1242   -6.3666   -6.3651 N   0  0  0  0  0  0  0  0  0  0  0  0
   63.3737   -6.8879   -5.8651 H   0  0  0  0  0  0  0  0  0  0  0  0
   57.8340   -5.7549   -9.8886 C   0  0  0  0  0  0  0  0  0  0  0  0
   57.2696   -4.9948  -11.0164 C   0  0  0  0  0  0  0  0  0  0  0  0
   58.0995   -4.6653  -12.1012 C   0  0  0  0  0  0  0  0  0  0  0  0
   57.6190   -3.9377  -13.1408 C   0  0  0  0  0  0  0  0  0  0  0  0
   56.3201   -3.4747  -13.2212 C   0  0  0  0  0  0  0  0  0  0  0  0
   55.8494   -2.7370  -14.2808 O   0  0  0  0  0  0  0  0  0  0  0  0
   55.5072   -3.8103  -12.1343 C   0  0  0  0  0  0  0  0  0  0  0  0
   55.9822   -4.5460  -11.0748 C   0  0  0  0  0  0  0  0  0  0  0  0
   55.8861   -1.7322  -14.3188 H   0  0  0  0  0  0  0  0  0  0  0  0
   56.7690   -6.9543   -4.0523 N   0  0  0  0  0  0  0  0  0  0  0  0
   55.8514   -7.1028   -5.1256 C   0  0  0  0  0  0  0  0  0  0  0  0
   55.1764   -8.1824   -5.1836 O   0  0  0  0  0  0  0  0  0  0  0  0
   57.3688   -6.1028   -3.9570 H   0  0  0  0  0  0  0  0  0  0  0  0
   56.8517   -8.0360   -3.0775 C   0  0  0  0  0  0  0  0  0  0  0  0
   56.2857   -8.6911   -0.7429 N   0  0  0  0  0  0  0  0  0  0  0  0
   56.3265   -7.7069   -1.7580 C   0  0  0  0  0  0  0  0  0  0  0  0
   55.9075   -6.5532   -1.5266 O   0  0  0  0  0  0  0  0  0  0  0  0
   56.6400   -9.6539   -0.9830 H   0  0  0  0  0  0  0  0  0  0  0  0
   55.8024   -8.4913    0.6014 C   0  0  0  0  0  0  0  0  0  0  0  0
   53.5044   -8.4864   -0.4757 N   0  0  0  0  0  0  0  0  0  0  0  0
   54.3606   -8.3543    0.6521 C   0  0  0  0  0  0  0  0  0  0  0  0
   53.7716   -8.1036    1.7607 O   0  0  0  0  0  0  0  0  0  0  0  0
   53.9661   -8.6748   -1.3908 H   0  0  0  0  0  0  0  0  0  0  0  0
   52.0215   -8.3692   -0.3551 C   0  0  0  0  0  0  0  0  0  0  0  0
   51.4056   -9.5791   -0.8850 C   0  0  0  0  0  0  0  0  0  0  0  0
   52.1211  -10.7208   -1.3186 N   0  0  0  0  0  0  0  0  0  0  0  0
   50.1506   -9.6307   -0.9743 O   0  0  0  0  0  0  0  0  0  0  0  0
   51.6709  -11.5051   -1.8566 H   0  0  0  0  0  0  0  0  0  0  0  0
   53.1595  -10.8681   -1.1366 H   0  0  0  0  0  0  0  0  0  0  0  0
   51.6847   -7.0788   -0.9666 C   0  0  0  0  0  0  0  0  0  0  0  0
   52.5935   -6.6401   -3.2973 C   0  0  0  0  0  0  0  0  0  0  0  0
   52.6257   -6.3449   -1.8191 C   0  0  0  0  0  0  0  0  0  0  0  0
   52.6675   -4.8494   -1.5551 C   0  0  0  0  0  0  0  0  0  0  0  0
   56.5040   -7.2032    1.0907 C   0  0  0  0  0  0  0  0  0  0  0  0
   57.8675   -7.4392    1.5345 C   0  0  0  0  0  0  0  0  0  0  0  0
   58.7159   -6.3900    1.8262 O   0  0  0  0  0  0  0  0  0  0  0  0
   58.3373   -8.6047    1.6722 O   0  0  0  0  0  0  0  0  0  0  0  0
   58.6230   -5.4697    1.3954 H   0  0  0  0  0  0  0  0  0  0  0  0
   58.3353   -8.4445   -2.9914 C   0  0  0  0  0  0  0  0  0  0  0  0
   59.2261   -7.4447   -3.5632 C   0  0  0  0  0  0  0  0  0  0  0  0
   59.5621   -7.5536   -4.9220 O   0  0  0  0  0  0  0  0  0  0  0  0
   59.6960   -6.5128   -2.9119 O   0  0  0  0  0  0  0  0  0  0  0  0
   59.7482   -6.7498   -5.5108 H   0  0  0  0  0  0  0  0  0  0  0  0
   54.2883   -6.5436   -6.8920 C   0  0  0  0  0  0  0  0  0  0  0  0
   53.4019   -5.4130   -7.1400 C   0  0  0  0  0  0  0  0  0  0  0  0
   52.2957   -5.0922   -6.3932 C   0  0  0  0  0  0  0  0  0  0  0  0
   51.4979   -4.0110   -6.6982 C   0  0  0  0  0  0  0  0  0  0  0  0
   51.7706   -3.1858   -7.7792 C   0  0  0  0  0  0  0  0  0  0  0  0
   52.8638   -3.4864   -8.5320 C   0  0  0  0  0  0  0  0  0  0  0  0
   53.6737   -4.5779   -8.2273 C   0  0  0  0  0  0  0  0  0  0  0  0
 54 55  1  0  0  0
 55 56  1  0  0  0
 55 53  1  0  0  0
 53 47  1  0  0  0
 47 43  1  0  0  0
 43 44  1  0  0  0
 44 45  2  0  0  0
 44 42  1  0  0  0
 42 57  1  0  0  0
 57 58  1  0  0  0
 58 59  1  0  0  0
 58 60  2  0  0  0
 42 38  1  0  0  0
 38 39  1  0  0  0
 39 40  2  0  0  0
 39 37  1  0  0  0
 37 62  1  0  0  0
 62 63  1  0  0  0
 63 64  1  0  0  0
 63 65  2  0  0  0
 37 33  1  0  0  0
 33 34  1  0  0  0
 34 35  2  0  0  0
 34  1  1  0  0  0
  1 67  1  0  0  0
 67 68  1  0  0  0
 68 69  2  0  0  0
 69 70  1  0  0  0
 70 71  2  0  0  0
 71 72  1  0  0  0
 72 73  2  0  0  0
  1  2  1  0  0  0
  2  3  1  0  0  0
  3  4  2  0  0  0
  3  6  1  0  0  0
  6 24  1  0  0  0
 24 25  1  0  0  0
 25 26  2  0  0  0
 26 27  1  0  0  0
 27 28  2  0  0  0
 28 29  1  0  0  0
 28 30  1  0  0  0
 30 31  2  0  0  0
  6  7  1  0  0  0
  7  8  1  0  0  0
  8  9  2  0  0  0
  8 11  1  0  0  0
 11 17  1  0  0  0
 17 18  1  0  0  0
 18 19  2  0  0  0
 19 20  1  0  0  0
 20 21  2  0  0  0
 21 22  1  0  0  0
 11 12  1  0  0  0
 12 13  1  0  0  0
 13 14  1  0  0  0
 13 15  2  0  0  0
 47 48  1  0  0  0
 48 49  1  0  0  0
 48 50  2  0  0  0
 73 68  1  0  0  0
 31 25  1  0  0  0
 22 18  1  0  0  0
 43 46  1  0  0  0
 59 61  1  0  0  0
 38 41  1  0  0  0
 64 66  1  0  0  0
 33 36  1  0  0  0
  2  5  1  0  0  0
 29 32  1  0  0  0
  7 10  1  0  0  0
 22 23  1  0  0  0
 12 16  1  0  0  0
 49 51  1  0  0  0
 49 52  1  0  0  0
M  END
> <minimizedAffinity>
-7.91901

> <CNNscore>
0.1736072749

> <CNNaffinity>
7.2009735107

> <CNN_VS>
1.2501413822

> <CNNaffinity_variance>
0.4566357732

$$$$
[H]OC(=O)C([H])([H])[C@@]([H])(C(=O)N([H])[C@]([H])(C(=O)N([H])[C@]([H])(C(=O)N([H])[H])C([H])([H])C([H])(C([H])([H])[H])C([H])([H])[H])C([H])([H])C(=O)O[H])N([H])C(=O)[C@@]([H])(N([H])C(=O)[C@@]([H])(N([H])C(=O)[C@@]([H])(N([H])C(=O)C([H])([H])[H])C([H])([H])c1c([H])nc([H])n1[H])C([H])([H])c1c([H])c([H])c(O[H])c([H])c1[H])C([H])([H])c1c([H])c([H])c([H])c([H])c1[H]


 73 75  0  0  0  0  0  0  0  0999 V2000
   55.3748   -4.8152   -6.8671 C   0  0  0  0  0  0  0  0  0  0  0  0
   56.4997   -5.1372   -7.6901 N   0  0  0  0  0  0  0  0  0  0  0  0
   56.8913   -4.4341   -8.8164 C   0  0  0  0  0  0  0  0  0  0  0  0
   56.3105   -3.4264   -9.2945 O   0  0  0  0  0  0  0  0  0  0  0  0
   57.0605   -5.9790   -7.3964 H   0  0  0  0  0  0  0  0  0  0  0  0
   58.1399   -4.8762   -9.6017 C   0  0  0  0  0  0  0  0  0  0  0  0
   58.8617   -5.8010   -8.7126 N   0  0  0  0  0  0  0  0  0  0  0  0
   60.0991   -6.3287   -9.0609 C   0  0  0  0  0  0  0  0  0  0  0  0
   60.5160   -5.9448  -10.2486 O   0  0  0  0  0  0  0  0  0  0  0  0
   58.3790   -6.0008   -7.8282 H   0  0  0  0  0  0  0  0  0  0  0  0
   60.9732   -7.2074   -8.3125 C   0  0  0  0  0  0  0  0  0  0  0  0
   61.1182   -8.5158   -8.9631 N   0  0  0  0  0  0  0  0  0  0  0  0
   62.0951   -8.8346   -9.9187 C   0  0  0  0  0  0  0  0  0  0  0  0
   62.1409  -10.1910  -10.4962 C   0  0  0  0  0  0  0  0  0  0  0  0
   62.9352   -7.9857  -10.2932 O   0  0  0  0  0  0  0  0  0  0  0  0
   60.4135   -9.2284   -8.6624 H   0  0  0  0  0  0  0  0  0  0  0  0
   62.2986   -6.7272   -7.8896 C   0  0  0  0  0  0  0  0  0  0  0  0
   62.8969   -7.3571   -6.6911 C   0  0  0  0  0  0  0  0  0  0  0  0
   63.8979   -8.3222   -6.7551 C   0  0  0  0  0  0  0  0  0  0  0  0
   64.1423   -8.7165   -5.5150 N   0  0  0  0  0  0  0  0  0  0  0  0
   63.3313   -8.0386   -4.6524 C   0  0  0  0  0  0  0  0  0  0  0  0
   62.5949   -7.2253   -5.4024 N   0  0  0  0  0  0  0  0  0  0  0  0
   61.8676   -6.5645   -5.0571 H   0  0  0  0  0  0  0  0  0  0  0  0
   57.6842   -5.4654  -10.8820 C   0  0  0  0  0  0  0  0  0  0  0  0
   57.8680   -4.6695  -12.1072 C   0  0  0  0  0  0  0  0  0  0  0  0
   56.7813   -4.5017  -12.9819 C   0  0  0  0  0  0  0  0  0  0  0  0
   56.9261   -3.8018  -14.1351 C   0  0  0  0  0  0  0  0  0  0  0  0
   58.1103   -3.2140  -14.5354 C   0  0  0  0  0  0  0  0  0  0  0  0
   58.2410   -2.5096  -15.7081 O   0  0  0  0  0  0  0  0  0  0  0  0
   59.1820   -3.3902  -13.6548 C   0  0  0  0  0  0  0  0  0  0  0  0
   59.0483   -4.0978  -12.4841 C   0  0  0  0  0  0  0  0  0  0  0  0
   58.5091   -2.9296  -16.5822 H   0  0  0  0  0  0  0  0  0  0  0  0
   55.7516   -4.7074   -4.3325 N   0  0  0  0  0  0  0  0  0  0  0  0
   55.4474   -5.4052   -5.5311 C   0  0  0  0  0  0  0  0  0  0  0  0
   55.2172   -6.6559   -5.4470 O   0  0  0  0  0  0  0  0  0  0  0  0
   55.9709   -3.6847   -4.3335 H   0  0  0  0  0  0  0  0  0  0  0  0
   55.7503   -5.4673   -3.0877 C   0  0  0  0  0  0  0  0  0  0  0  0
   53.2632   -5.5853   -3.0737 N   0  0  0  0  0  0  0  0  0  0  0  0
   54.4823   -5.4542   -2.3685 C   0  0  0  0  0  0  0  0  0  0  0  0
   54.4743   -5.3217   -1.1265 O   0  0  0  0  0  0  0  0  0  0  0  0
   53.3144   -5.6850   -4.1213 H   0  0  0  0  0  0  0  0  0  0  0  0
   51.9479   -5.5986   -2.4816 C   0  0  0  0  0  0  0  0  0  0  0  0
   51.7544   -6.9198   -0.3234 N   0  0  0  0  0  0  0  0  0  0  0  0
   51.6915   -6.8171   -1.7404 C   0  0  0  0  0  0  0  0  0  0  0  0
   51.3791   -7.8961   -2.3544 O   0  0  0  0  0  0  0  0  0  0  0  0
   52.0227   -6.0559    0.1942 H   0  0  0  0  0  0  0  0  0  0  0  0
   51.4451   -8.1953    0.3870 C   0  0  0  0  0  0  0  0  0  0  0  0
   52.4423   -9.1942    0.0237 C   0  0  0  0  0  0  0  0  0  0  0  0
   52.2084  -10.2805   -0.8531 N   0  0  0  0  0  0  0  0  0  0  0  0
   53.5977   -9.1036    0.5161 O   0  0  0  0  0  0  0  0  0  0  0  0
   52.8829  -11.0809   -0.9613 H   0  0  0  0  0  0  0  0  0  0  0  0
   51.3390  -10.3688   -1.4610 H   0  0  0  0  0  0  0  0  0  0  0  0
   50.0333   -8.4677    0.0954 C   0  0  0  0  0  0  0  0  0  0  0  0
   48.7693   -9.1816    2.1794 C   0  0  0  0  0  0  0  0  0  0  0  0
   49.2736   -9.5079    0.7965 C   0  0  0  0  0  0  0  0  0  0  0  0
   48.1918  -10.1623   -0.0459 C   0  0  0  0  0  0  0  0  0  0  0  0
   50.9724   -5.4525   -3.6723 C   0  0  0  0  0  0  0  0  0  0  0  0
   49.7793   -4.6956   -3.3326 C   0  0  0  0  0  0  0  0  0  0  0  0
   49.5975   -3.4054   -3.7886 O   0  0  0  0  0  0  0  0  0  0  0  0
   48.8609   -5.1774   -2.6097 O   0  0  0  0  0  0  0  0  0  0  0  0
   50.3759   -2.7848   -4.0122 H   0  0  0  0  0  0  0  0  0  0  0  0
   56.8824   -4.8920   -2.2143 C   0  0  0  0  0  0  0  0  0  0  0  0
   57.7488   -5.9263   -1.6670 C   0  0  0  0  0  0  0  0  0  0  0  0
   57.3489   -6.5717   -0.4861 O   0  0  0  0  0  0  0  0  0  0  0  0
   58.8115   -6.2585   -2.1903 O   0  0  0  0  0  0  0  0  0  0  0  0
   57.5730   -7.5390   -0.2825 H   0  0  0  0  0  0  0  0  0  0  0  0
   54.0885   -5.3796   -7.5383 C   0  0  0  0  0  0  0  0  0  0  0  0
   53.0049   -4.4049   -7.5760 C   0  0  0  0  0  0  0  0  0  0  0  0
   51.8916   -4.4234   -6.7732 C   0  0  0  0  0  0  0  0  0  0  0  0
   50.9016   -3.4707   -6.8766 C   0  0  0  0  0  0  0  0  0  0  0  0
   50.9768   -2.4385   -7.7999 C   0  0  0  0  0  0  0  0  0  0  0  0
   52.0735   -2.4018   -8.6051 C   0  0  0  0  0  0  0  0  0  0  0  0
   53.0772   -3.3622   -8.5038 C   0  0  0  0  0  0  0  0  0  0  0  0
 54 55  1  0  0  0
 55 56  1  0  0  0
 55 53  1  0  0  0
 53 47  1  0  0  0
 47 43  1  0  0  0
 43 44  1  0  0  0
 44 45  2  0  0  0
 44 42  1  0  0  0
 42 57  1  0  0  0
 57 58  1  0  0  0
 58 59  1  0  0  0
 58 60  2  0  0  0
 42 38  1  0  0  0
 38 39  1  0  0  0
 39 40  2  0  0  0
 39 37  1  0  0  0
 37 62  1  0  0  0
 62 63  1  0  0  0
 63 64  1  0  0  0
 63 65  2  0  0  0
 37 33  1  0  0  0
 33 34  1  0  0  0
 34 35  2  0  0  0
 34  1  1  0  0  0
  1 67  1  0  0  0
 67 68  1  0  0  0
 68 69  2  0  0  0
 69 70  1  0  0  0
 70 71  2  0  0  0
 71 72  1  0  0  0
 72 73  2  0  0  0
  1  2  1  0  0  0
  2  3  1  0  0  0
  3  4  2  0  0  0
  3  6  1  0  0  0
  6 24  1  0  0  0
 24 25  1  0  0  0
 25 26  2  0  0  0
 26 27  1  0  0  0
 27 28  2  0  0  0
 28 29  1  0  0  0
 28 30  1  0  0  0
 30 31  2  0  0  0
  6  7  1  0  0  0
  7  8  1  0  0  0
  8  9  2  0  0  0
  8 11  1  0  0  0
 11 17  1  0  0  0
 17 18  1  0  0  0
 18 19  2  0  0  0
 19 20  1  0  0  0
 20 21  2  0  0  0
 21 22  1  0  0  0
 11 12  1  0  0  0
 12 13  1  0  0  0
 13 14  1  0  0  0
 13 15  2  0  0  0
 47 48  1  0  0  0
 48 49  1  0  0  0
 48 50  2  0  0  0
 73 68  1  0  0  0
 31 25  1  0  0  0
 22 18  1  0  0  0
 43 46  1  0  0  0
 59 61  1  0  0  0
 38 41  1  0  0  0
 64 66  1  0  0  0
 33 36  1  0  0  0
  2  5  1  0  0  0
 29 32  1  0  0  0
  7 10  1  0  0  0
 22 23  1  0  0  0
 12 16  1  0  0  0
 49 51  1  0  0  0
 49 52  1  0  0  0
M  END
> <minimizedAffinity>
-8.92702

> <CNNscore>
0.1710733771

> <CNNaffinity>
7.4668960571

> <CNN_VS>
1.2773871422

> <CNNaffinity_variance>
0.2287825048

$$$$
[H]OC(=O)C([H])([H])[C@@]([H])(C(=O)N([H])[C@]([H])(C(=O)N([H])[C@]([H])(C(=O)N([H])[H])C([H])([H])C([H])(C([H])([H])[H])C([H])([H])[H])C([H])([H])C(=O)O[H])N([H])C(=O)[C@@]([H])(N([H])C(=O)[C@@]([H])(N([H])C(=O)[C@@]([H])(N([H])C(=O)C([H])([H])[H])C([H])([H])c1c([H])nc([H])n1[H])C([H])([H])c1c([H])c([H])c(O[H])c([H])c1[H])C([H])([H])c1c([H])c([H])c([H])c([H])c1[H]


 73 75  0  0  0  0  0  0  0  0999 V2000
   54.5814   -5.2397   -7.5308 C   0  0  0  0  0  0  0  0  0  0  0  0
   54.5640   -4.9456   -6.1309 N   0  0  0  0  0  0  0  0  0  0  0  0
   54.6083   -5.8875   -5.1174 C   0  0  0  0  0  0  0  0  0  0  0  0
   54.6495   -7.1348   -5.2723 O   0  0  0  0  0  0  0  0  0  0  0  0
   54.5145   -3.9254   -5.8742 H   0  0  0  0  0  0  0  0  0  0  0  0
   54.6060   -5.4328   -3.6462 C   0  0  0  0  0  0  0  0  0  0  0  0
   54.5092   -6.6665   -2.8492 N   0  0  0  0  0  0  0  0  0  0  0  0
   53.7039   -6.7418   -1.7192 C   0  0  0  0  0  0  0  0  0  0  0  0
   53.0893   -5.6125   -1.4386 O   0  0  0  0  0  0  0  0  0  0  0  0
   55.0701   -7.4480   -3.2094 H   0  0  0  0  0  0  0  0  0  0  0  0
   53.4459   -7.8636   -0.8409 C   0  0  0  0  0  0  0  0  0  0  0  0
   54.6764   -8.5959   -0.5156 N   0  0  0  0  0  0  0  0  0  0  0  0
   55.7439   -8.0807    0.2355 C   0  0  0  0  0  0  0  0  0  0  0  0
   56.9270   -8.9206    0.5002 C   0  0  0  0  0  0  0  0  0  0  0  0
   55.7120   -6.9147    0.6896 O   0  0  0  0  0  0  0  0  0  0  0  0
   54.7149   -9.5683   -0.8999 H   0  0  0  0  0  0  0  0  0  0  0  0
   52.6643   -7.6593    0.3894 C   0  0  0  0  0  0  0  0  0  0  0  0
   51.2654   -8.1433    0.3916 C   0  0  0  0  0  0  0  0  0  0  0  0
   50.6881   -8.8144   -0.6826 C   0  0  0  0  0  0  0  0  0  0  0  0
   49.4194   -9.0323   -0.3728 N   0  0  0  0  0  0  0  0  0  0  0  0
   49.1581   -8.5229    0.8656 C   0  0  0  0  0  0  0  0  0  0  0  0
   50.3001   -7.9957    1.2947 N   0  0  0  0  0  0  0  0  0  0  0  0
   50.4498   -7.5201    2.2092 H   0  0  0  0  0  0  0  0  0  0  0  0
   55.8320   -4.6337   -3.4176 C   0  0  0  0  0  0  0  0  0  0  0  0
   56.9019   -5.2365   -2.6050 C   0  0  0  0  0  0  0  0  0  0  0  0
   57.2986   -4.5992   -1.4173 C   0  0  0  0  0  0  0  0  0  0  0  0
   58.3035   -5.1109   -0.6628 C   0  0  0  0  0  0  0  0  0  0  0  0
   58.9986   -6.2606   -0.9838 C   0  0  0  0  0  0  0  0  0  0  0  0
   60.0157   -6.7648   -0.2094 O   0  0  0  0  0  0  0  0  0  0  0  0
   58.5925   -6.8826   -2.1683 C   0  0  0  0  0  0  0  0  0  0  0  0
   57.5766   -6.3738   -2.9418 C   0  0  0  0  0  0  0  0  0  0  0  0
   60.9826   -6.5130   -0.3284 H   0  0  0  0  0  0  0  0  0  0  0  0
   56.0973   -4.8302   -9.5587 N   0  0  0  0  0  0  0  0  0  0  0  0
   55.8710   -4.9661   -8.1635 C   0  0  0  0  0  0  0  0  0  0  0  0
   56.8729   -4.8422   -7.3856 O   0  0  0  0  0  0  0  0  0  0  0  0
   55.3233   -4.9407  -10.2535 H   0  0  0  0  0  0  0  0  0  0  0  0
   57.4551   -4.5299   -9.9984 C   0  0  0  0  0  0  0  0  0  0  0  0
   58.3852   -4.1049  -12.2687 N   0  0  0  0  0  0  0  0  0  0  0  0
   57.5375   -3.7162  -11.2052 C   0  0  0  0  0  0  0  0  0  0  0  0
   56.8603   -2.6706  -11.2964 O   0  0  0  0  0  0  0  0  0  0  0  0
   58.9462   -4.9884  -12.1468 H   0  0  0  0  0  0  0  0  0  0  0  0
   58.5479   -3.3965  -13.5146 C   0  0  0  0  0  0  0  0  0  0  0  0
   57.4908   -3.2695  -15.8184 N   0  0  0  0  0  0  0  0  0  0  0  0
   57.6438   -3.8754  -14.5409 C   0  0  0  0  0  0  0  0  0  0  0  0
   56.9185   -4.9100  -14.3349 O   0  0  0  0  0  0  0  0  0  0  0  0
   58.0611   -2.4162  -15.9999 H   0  0  0  0  0  0  0  0  0  0  0  0
   56.5680   -3.8297  -16.8488 C   0  0  0  0  0  0  0  0  0  0  0  0
   57.3568   -4.3589  -17.9542 C   0  0  0  0  0  0  0  0  0  0  0  0
   56.9889   -5.4770  -18.7403 N   0  0  0  0  0  0  0  0  0  0  0  0
   58.4464   -3.7981  -18.2437 O   0  0  0  0  0  0  0  0  0  0  0  0
   57.6511   -5.9448  -19.4111 H   0  0  0  0  0  0  0  0  0  0  0  0
   56.0240   -5.9255  -18.7095 H   0  0  0  0  0  0  0  0  0  0  0  0
   55.5982   -2.7627  -17.1201 C   0  0  0  0  0  0  0  0  0  0  0  0
   53.7751   -2.6259  -18.8831 C   0  0  0  0  0  0  0  0  0  0  0  0
   55.2083   -2.3842  -18.4823 C   0  0  0  0  0  0  0  0  0  0  0  0
   55.6728   -0.9993  -18.8999 C   0  0  0  0  0  0  0  0  0  0  0  0
   60.0229   -3.6285  -13.9162 C   0  0  0  0  0  0  0  0  0  0  0  0
   60.2773   -3.3361  -15.3168 C   0  0  0  0  0  0  0  0  0  0  0  0
   60.5425   -4.3450  -16.2209 O   0  0  0  0  0  0  0  0  0  0  0  0
   60.2691   -2.1556  -15.7692 O   0  0  0  0  0  0  0  0  0  0  0  0
   60.9638   -5.2333  -15.9478 H   0  0  0  0  0  0  0  0  0  0  0  0
   58.1669   -5.8822  -10.1986 C   0  0  0  0  0  0  0  0  0  0  0  0
   59.4509   -5.9463   -9.5151 C   0  0  0  0  0  0  0  0  0  0  0  0
   59.4575   -5.9375   -8.1113 O   0  0  0  0  0  0  0  0  0  0  0  0
   60.5261   -6.0072  -10.1100 O   0  0  0  0  0  0  0  0  0  0  0  0
   60.1567   -6.4211   -7.5594 H   0  0  0  0  0  0  0  0  0  0  0  0
   53.5313   -4.3376   -8.2427 C   0  0  0  0  0  0  0  0  0  0  0  0
   52.2654   -4.2790   -7.5218 C   0  0  0  0  0  0  0  0  0  0  0  0
   51.6722   -5.3322   -6.8713 C   0  0  0  0  0  0  0  0  0  0  0  0
   50.4651   -5.2010   -6.2199 C   0  0  0  0  0  0  0  0  0  0  0  0
   49.7825   -3.9942   -6.1860 C   0  0  0  0  0  0  0  0  0  0  0  0
   50.3544   -2.9370   -6.8245 C   0  0  0  0  0  0  0  0  0  0  0  0
   51.5747   -3.0645   -7.4837 C   0  0  0  0  0  0  0  0  0  0  0  0
 54 55  1  0  0  0
 55 56  1  0  0  0
 55 53  1  0  0  0
 53 47  1  0  0  0
 47 43  1  0  0  0
 43 44  1  0  0  0
 44 45  2  0  0  0
 44 42  1  0  0  0
 42 57  1  0  0  0
 57 58  1  0  0  0
 58 59  1  0  0  0
 58 60  2  0  0  0
 42 38  1  0  0  0
 38 39  1  0  0  0
 39 40  2  0  0  0
 39 37  1  0  0  0
 37 62  1  0  0  0
 62 63  1  0  0  0
 63 64  1  0  0  0
 63 65  2  0  0  0
 37 33  1  0  0  0
 33 34  1  0  0  0
 34 35  2  0  0  0
 34  1  1  0  0  0
  1 67  1  0  0  0
 67 68  1  0  0  0
 68 69  2  0  0  0
 69 70  1  0  0  0
 70 71  2  0  0  0
 71 72  1  0  0  0
 72 73  2  0  0  0
  1  2  1  0  0  0
  2  3  1  0  0  0
  3  4  2  0  0  0
  3  6  1  0  0  0
  6 24  1  0  0  0
 24 25  1  0  0  0
 25 26  2  0  0  0
 26 27  1  0  0  0
 27 28  2  0  0  0
 28 29  1  0  0  0
 28 30  1  0  0  0
 30 31  2  0  0  0
  6  7  1  0  0  0
  7  8  1  0  0  0
  8  9  2  0  0  0
  8 11  1  0  0  0
 11 17  1  0  0  0
 17 18  1  0  0  0
 18 19  2  0  0  0
 19 20  1  0  0  0
 20 21  2  0  0  0
 21 22  1  0  0  0
 11 12  1  0  0  0
 12 13  1  0  0  0
 13 14  1  0  0  0
 13 15  2  0  0  0
 47 48  1  0  0  0
 48 49  1  0  0  0
 48 50  2  0  0  0
 73 68  1  0  0  0
 31 25  1  0  0  0
 22 18  1  0  0  0
 43 46  1  0  0  0
 59 61  1  0  0  0
 38 41  1  0  0  0
 64 66  1  0  0  0
 33 36  1  0  0  0
  2  5  1  0  0  0
 29 32  1  0  0  0
  7 10  1  0  0  0
 22 23  1  0  0  0
 12 16  1  0  0  0
 49 51  1  0  0  0
 49 52  1  0  0  0
M  END
> <minimizedAffinity>
-8.75780

> <CNNscore>
0.1206999794

> <CNNaffinity>
7.0464081764

> <CNN_VS>
0.8505012989

> <CNNaffinity_variance>
0.2648572624

$$$$
[H]OC(=O)C([H])([H])[C@@]([H])(C(=O)N([H])[C@]([H])(C(=O)N([H])[C@]([H])(C(=O)N([H])[H])C([H])([H])C([H])(C([H])([H])[H])C([H])([H])[H])C([H])([H])C(=O)O[H])N([H])C(=O)[C@@]([H])(N([H])C(=O)[C@@]([H])(N([H])C(=O)[C@@]([H])(N([H])C(=O)C([H])([H])[H])C([H])([H])c1c([H])nc([H])n1[H])C([H])([H])c1c([H])c([H])c(O[H])c([H])c1[H])C([H])([H])c1c([H])c([H])c([H])c([H])c1[H]


 73 75  0  0  0  0  0  0  0  0999 V2000
   55.7697   -5.9864   -6.1207 C   0  0  0  0  0  0  0  0  0  0  0  0
   56.6543   -6.0401   -7.2437 N   0  0  0  0  0  0  0  0  0  0  0  0
   57.3667   -4.9666   -7.7499 C   0  0  0  0  0  0  0  0  0  0  0  0
   57.3289   -3.7870   -7.3156 O   0  0  0  0  0  0  0  0  0  0  0  0
   56.7571   -6.9810   -7.7056 H   0  0  0  0  0  0  0  0  0  0  0  0
   58.3049   -5.1672   -8.9543 C   0  0  0  0  0  0  0  0  0  0  0  0
   59.2922   -6.1715   -8.5259 N   0  0  0  0  0  0  0  0  0  0  0  0
   60.4269   -6.4445   -9.2801 C   0  0  0  0  0  0  0  0  0  0  0  0
   60.4931   -5.7500  -10.3959 O   0  0  0  0  0  0  0  0  0  0  0  0
   59.0714   -6.6274   -7.6324 H   0  0  0  0  0  0  0  0  0  0  0  0
   61.5212   -7.3529   -9.0082 C   0  0  0  0  0  0  0  0  0  0  0  0
   61.9945   -7.2375   -7.6230 N   0  0  0  0  0  0  0  0  0  0  0  0
   63.3405   -7.1389   -7.2390 C   0  0  0  0  0  0  0  0  0  0  0  0
   63.6889   -7.0214   -5.8106 C   0  0  0  0  0  0  0  0  0  0  0  0
   64.2584   -7.1477   -8.0899 O   0  0  0  0  0  0  0  0  0  0  0  0
   61.2336   -7.2391   -6.9048 H   0  0  0  0  0  0  0  0  0  0  0  0
   61.3887   -8.7764   -9.3579 C   0  0  0  0  0  0  0  0  0  0  0  0
   62.4384   -9.3625  -10.2215 C   0  0  0  0  0  0  0  0  0  0  0  0
   62.4104  -10.6800  -10.6699 C   0  0  0  0  0  0  0  0  0  0  0  0
   63.5279  -10.8868  -11.3492 N   0  0  0  0  0  0  0  0  0  0  0  0
   64.2771   -9.7466  -11.3532 C   0  0  0  0  0  0  0  0  0  0  0  0
   63.5829   -8.8481  -10.6625 N   0  0  0  0  0  0  0  0  0  0  0  0
   63.8718   -7.8658  -10.4714 H   0  0  0  0  0  0  0  0  0  0  0  0
   57.4733   -5.5615  -10.1150 C   0  0  0  0  0  0  0  0  0  0  0  0
   57.6423   -4.8062  -11.3678 C   0  0  0  0  0  0  0  0  0  0  0  0
   56.5067   -4.4872  -12.1312 C   0  0  0  0  0  0  0  0  0  0  0  0
   56.6310   -3.8210  -13.3066 C   0  0  0  0  0  0  0  0  0  0  0  0
   57.8397   -3.4125  -13.8360 C   0  0  0  0  0  0  0  0  0  0  0  0
   57.9486   -2.7400  -15.0294 O   0  0  0  0  0  0  0  0  0  0  0  0
   58.9599   -3.7377  -13.0650 C   0  0  0  0  0  0  0  0  0  0  0  0
   58.8473   -4.4130  -11.8732 C   0  0  0  0  0  0  0  0  0  0  0  0
   58.0624   -3.1984  -15.9178 H   0  0  0  0  0  0  0  0  0  0  0  0
   57.3475   -7.2251   -4.5224 N   0  0  0  0  0  0  0  0  0  0  0  0
   56.0714   -6.9872   -5.0981 C   0  0  0  0  0  0  0  0  0  0  0  0
   55.0970   -7.7039   -4.6967 O   0  0  0  0  0  0  0  0  0  0  0  0
   58.1932   -6.6871   -4.8213 H   0  0  0  0  0  0  0  0  0  0  0  0
   57.4447   -8.2531   -3.4926 C   0  0  0  0  0  0  0  0  0  0  0  0
   56.3434   -6.5823   -2.0109 N   0  0  0  0  0  0  0  0  0  0  0  0
   56.8752   -7.8786   -2.2038 C   0  0  0  0  0  0  0  0  0  0  0  0
   56.8623   -8.7049   -1.2672 O   0  0  0  0  0  0  0  0  0  0  0  0
   56.3831   -5.9132   -2.8239 H   0  0  0  0  0  0  0  0  0  0  0  0
   55.7444   -6.0931   -0.7933 C   0  0  0  0  0  0  0  0  0  0  0  0
   53.5398   -6.4235   -2.0063 N   0  0  0  0  0  0  0  0  0  0  0  0
   54.3075   -5.9453   -0.9088 C   0  0  0  0  0  0  0  0  0  0  0  0
   53.6397   -5.3587    0.0125 O   0  0  0  0  0  0  0  0  0  0  0  0
   54.0672   -6.8902   -2.7746 H   0  0  0  0  0  0  0  0  0  0  0  0
   52.0558   -6.2724   -2.0529 C   0  0  0  0  0  0  0  0  0  0  0  0
   51.4426   -7.3996   -1.3618 C   0  0  0  0  0  0  0  0  0  0  0  0
   51.0855   -7.4039    0.0078 N   0  0  0  0  0  0  0  0  0  0  0  0
   51.2090   -8.4534   -2.0105 O   0  0  0  0  0  0  0  0  0  0  0  0
   50.8102   -8.2797    0.5222 H   0  0  0  0  0  0  0  0  0  0  0  0
   51.0716   -6.5294    0.6146 H   0  0  0  0  0  0  0  0  0  0  0  0
   51.7341   -6.0509   -3.4671 C   0  0  0  0  0  0  0  0  0  0  0  0
   49.8624   -4.3362   -3.3854 C   0  0  0  0  0  0  0  0  0  0  0  0
   50.3981   -5.6428   -3.9135 C   0  0  0  0  0  0  0  0  0  0  0  0
   50.1790   -5.7646   -5.4119 C   0  0  0  0  0  0  0  0  0  0  0  0
   56.4274   -4.7309   -0.5314 C   0  0  0  0  0  0  0  0  0  0  0  0
   57.4200   -4.3963   -1.5388 C   0  0  0  0  0  0  0  0  0  0  0  0
   58.7442   -4.7540   -1.3839 O   0  0  0  0  0  0  0  0  0  0  0  0
   57.1212   -3.7673   -2.5938 O   0  0  0  0  0  0  0  0  0  0  0  0
   59.1772   -4.8827   -0.4689 H   0  0  0  0  0  0  0  0  0  0  0  0
   58.9394   -8.6014   -3.3516 C   0  0  0  0  0  0  0  0  0  0  0  0
   59.8105   -7.5355   -3.8261 C   0  0  0  0  0  0  0  0  0  0  0  0
   60.2413   -7.5746   -5.1617 O   0  0  0  0  0  0  0  0  0  0  0  0
   60.1848   -6.6061   -3.1122 O   0  0  0  0  0  0  0  0  0  0  0  0
   60.4221   -6.7403   -5.7081 H   0  0  0  0  0  0  0  0  0  0  0  0
   54.3207   -6.2705   -6.6136 C   0  0  0  0  0  0  0  0  0  0  0  0
   53.7656   -5.1636   -7.3833 C   0  0  0  0  0  0  0  0  0  0  0  0
   54.2982   -4.6563   -8.5423 C   0  0  0  0  0  0  0  0  0  0  0  0
   53.7205   -3.5975   -9.2084 C   0  0  0  0  0  0  0  0  0  0  0  0
   52.5662   -2.9857   -8.7426 C   0  0  0  0  0  0  0  0  0  0  0  0
   52.0218   -3.4746   -7.5950 C   0  0  0  0  0  0  0  0  0  0  0  0
   52.6017   -4.5451   -6.9185 C   0  0  0  0  0  0  0  0  0  0  0  0
 54 55  1  0  0  0
 55 56  1  0  0  0
 55 53  1  0  0  0
 53 47  1  0  0  0
 47 43  1  0  0  0
 43 44  1  0  0  0
 44 45  2  0  0  0
 44 42  1  0  0  0
 42 57  1  0  0  0
 57 58  1  0  0  0
 58 59  1  0  0  0
 58 60  2  0  0  0
 42 38  1  0  0  0
 38 39  1  0  0  0
 39 40  2  0  0  0
 39 37  1  0  0  0
 37 62  1  0  0  0
 62 63  1  0  0  0
 63 64  1  0  0  0
 63 65  2  0  0  0
 37 33  1  0  0  0
 33 34  1  0  0  0
 34 35  2  0  0  0
 34  1  1  0  0  0
  1 67  1  0  0  0
 67 68  1  0  0  0
 68 69  2  0  0  0
 69 70  1  0  0  0
 70 71  2  0  0  0
 71 72  1  0  0  0
 72 73  2  0  0  0
  1  2  1  0  0  0
  2  3  1  0  0  0
  3  4  2  0  0  0
  3  6  1  0  0  0
  6 24  1  0  0  0
 24 25  1  0  0  0
 25 26  2  0  0  0
 26 27  1  0  0  0
 27 28  2  0  0  0
 28 29  1  0  0  0
 28 30  1  0  0  0
 30 31  2  0  0  0
  6  7  1  0  0  0
  7  8  1  0  0  0
  8  9  2  0  0  0
  8 11  1  0  0  0
 11 17  1  0  0  0
 17 18  1  0  0  0
 18 19  2  0  0  0
 19 20  1  0  0  0
 20 21  2  0  0  0
 21 22  1  0  0  0
 11 12  1  0  0  0
 12 13  1  0  0  0
 13 14  1  0  0  0
 13 15  2  0  0  0
 47 48  1  0  0  0
 48 49  1  0  0  0
 48 50  2  0  0  0
 73 68  1  0  0  0
 31 25  1  0  0  0
 22 18  1  0  0  0
 43 46  1  0  0  0
 59 61  1  0  0  0
 38 41  1  0  0  0
 64 66  1  0  0  0
 33 36  1  0  0  0
  2  5  1  0  0  0
 29 32  1  0  0  0
  7 10  1  0  0  0
 22 23  1  0  0  0
 12 16  1  0  0  0
 49 51  1  0  0  0
 49 52  1  0  0  0
M  END
> <minimizedAffinity>
-8.44033

> <CNNscore>
0.1120760217

> <CNNaffinity>
7.2904243469

> <CNN_VS>
0.8170817494

> <CNNaffinity_variance>
0.4170847535

$$$$
[H]OC(=O)C([H])([H])[C@@]([H])(C(=O)N([H])[C@]([H])(C(=O)N([H])[C@]([H])(C(=O)N([H])[H])C([H])([H])C([H])(C([H])([H])[H])C([H])([H])[H])C([H])([H])C(=O)O[H])N([H])C(=O)[C@@]([H])(N([H])C(=O)[C@@]([H])(N([H])C(=O)[C@@]([H])(N([H])C(=O)C([H])([H])[H])C([H])([H])c1c([H])nc([H])n1[H])C([H])([H])c1c([H])c([H])c(O[H])c([H])c1[H])C([H])([H])c1c([H])c([H])c([H])c([H])c1[H]


 73 75  0  0  0  0  0  0  0  0999 V2000
   52.2543   -6.0012   -6.3846 C   0  0  0  0  0  0  0  0  0  0  0  0
   52.1923   -5.9128   -4.9581 N   0  0  0  0  0  0  0  0  0  0  0  0
   53.1561   -6.3904   -4.0868 C   0  0  0  0  0  0  0  0  0  0  0  0
   54.2135   -6.9875   -4.4135 O   0  0  0  0  0  0  0  0  0  0  0  0
   51.3375   -5.4424   -4.5616 H   0  0  0  0  0  0  0  0  0  0  0  0
   52.9755   -6.2093   -2.5683 C   0  0  0  0  0  0  0  0  0  0  0  0
   52.8903   -7.5700   -2.0132 N   0  0  0  0  0  0  0  0  0  0  0  0
   51.6913   -8.0896   -1.5407 C   0  0  0  0  0  0  0  0  0  0  0  0
   50.6882   -7.2409   -1.6144 O   0  0  0  0  0  0  0  0  0  0  0  0
   53.7778   -8.0870   -2.0224 H   0  0  0  0  0  0  0  0  0  0  0  0
   51.3999   -9.4030   -1.0057 C   0  0  0  0  0  0  0  0  0  0  0  0
   52.2883   -9.7461    0.1120 N   0  0  0  0  0  0  0  0  0  0  0  0
   52.7389   -8.8432    1.0871 C   0  0  0  0  0  0  0  0  0  0  0  0
   53.6270   -9.3130    2.1670 C   0  0  0  0  0  0  0  0  0  0  0  0
   52.3995   -7.6387    1.0598 O   0  0  0  0  0  0  0  0  0  0  0  0
   52.5844  -10.7493    0.1364 H   0  0  0  0  0  0  0  0  0  0  0  0
   50.0154   -9.7522   -0.6486 C   0  0  0  0  0  0  0  0  0  0  0  0
   49.5017   -9.2487    0.6451 C   0  0  0  0  0  0  0  0  0  0  0  0
   48.9239  -10.0701    1.6089 C   0  0  0  0  0  0  0  0  0  0  0  0
   48.5134   -9.2884    2.5955 N   0  0  0  0  0  0  0  0  0  0  0  0
   48.8059   -7.9890    2.2999 C   0  0  0  0  0  0  0  0  0  0  0  0
   49.4045   -8.0076    1.1135 N   0  0  0  0  0  0  0  0  0  0  0  0
   49.7577   -7.1776    0.5925 H   0  0  0  0  0  0  0  0  0  0  0  0
   54.1118   -5.3997   -2.0708 C   0  0  0  0  0  0  0  0  0  0  0  0
   54.8289   -5.8837   -0.8792 C   0  0  0  0  0  0  0  0  0  0  0  0
   55.6186   -7.0414   -0.9810 C   0  0  0  0  0  0  0  0  0  0  0  0
   56.2659   -7.5321    0.1058 C   0  0  0  0  0  0  0  0  0  0  0  0
   56.2081   -6.9579    1.3608 C   0  0  0  0  0  0  0  0  0  0  0  0
   56.8685   -7.4687    2.4522 O   0  0  0  0  0  0  0  0  0  0  0  0
   55.4182   -5.8072    1.4457 C   0  0  0  0  0  0  0  0  0  0  0  0
   54.7568   -5.3007    0.3525 C   0  0  0  0  0  0  0  0  0  0  0  0
   56.4666   -8.1458    3.0787 H   0  0  0  0  0  0  0  0  0  0  0  0
   54.5553   -5.2451   -7.2282 N   0  0  0  0  0  0  0  0  0  0  0  0
   53.1724   -5.0342   -6.9849 C   0  0  0  0  0  0  0  0  0  0  0  0
   52.6778   -3.9064   -7.3133 O   0  0  0  0  0  0  0  0  0  0  0  0
   55.0288   -6.1395   -6.9640 H   0  0  0  0  0  0  0  0  0  0  0  0
   55.3035   -4.1659   -7.8628 C   0  0  0  0  0  0  0  0  0  0  0  0
   57.1199   -4.6323   -9.5007 N   0  0  0  0  0  0  0  0  0  0  0  0
   55.7451   -4.4500   -9.2228 C   0  0  0  0  0  0  0  0  0  0  0  0
   54.9058   -4.5274  -10.1446 O   0  0  0  0  0  0  0  0  0  0  0  0
   57.7951   -4.5490   -8.6962 H   0  0  0  0  0  0  0  0  0  0  0  0
   57.6828   -4.9278  -10.7956 C   0  0  0  0  0  0  0  0  0  0  0  0
   59.6218   -6.1050   -9.6575 N   0  0  0  0  0  0  0  0  0  0  0  0
   59.0742   -5.3239  -10.7123 C   0  0  0  0  0  0  0  0  0  0  0  0
   59.9027   -4.9780  -11.6248 O   0  0  0  0  0  0  0  0  0  0  0  0
   58.9666   -6.3834   -8.8963 H   0  0  0  0  0  0  0  0  0  0  0  0
   61.0576   -6.5119   -9.6441 C   0  0  0  0  0  0  0  0  0  0  0  0
   61.1641   -7.8901  -10.1061 C   0  0  0  0  0  0  0  0  0  0  0  0
   60.5831   -9.0032   -9.4529 N   0  0  0  0  0  0  0  0  0  0  0  0
   61.8172   -8.1281  -11.1561 O   0  0  0  0  0  0  0  0  0  0  0  0
   60.8188   -9.9978   -9.7032 H   0  0  0  0  0  0  0  0  0  0  0  0
   59.8727   -8.9176   -8.6648 H   0  0  0  0  0  0  0  0  0  0  0  0
   61.5415   -6.1779   -8.3000 C   0  0  0  0  0  0  0  0  0  0  0  0
   63.9780   -6.0801   -7.5900 C   0  0  0  0  0  0  0  0  0  0  0  0
   62.6889   -6.8558   -7.6879 C   0  0  0  0  0  0  0  0  0  0  0  0
   62.3691   -7.5631   -6.3820 C   0  0  0  0  0  0  0  0  0  0  0  0
   57.5206   -3.6227  -11.6088 C   0  0  0  0  0  0  0  0  0  0  0  0
   57.3020   -3.8656  -13.0248 C   0  0  0  0  0  0  0  0  0  0  0  0
   58.3360   -3.7696  -13.9343 O   0  0  0  0  0  0  0  0  0  0  0  0
   56.1659   -4.1724  -13.4866 O   0  0  0  0  0  0  0  0  0  0  0  0
   59.1481   -3.1702  -13.7846 H   0  0  0  0  0  0  0  0  0  0  0  0
   56.5056   -3.8604   -6.9480 C   0  0  0  0  0  0  0  0  0  0  0  0
   56.5823   -4.7586   -5.8046 C   0  0  0  0  0  0  0  0  0  0  0  0
   57.1671   -6.0214   -5.9897 O   0  0  0  0  0  0  0  0  0  0  0  0
   56.1591   -4.4621   -4.6881 O   0  0  0  0  0  0  0  0  0  0  0  0
   57.6804   -6.5042   -5.2613 H   0  0  0  0  0  0  0  0  0  0  0  0
   50.8415   -5.6994   -6.9645 C   0  0  0  0  0  0  0  0  0  0  0  0
   50.1189   -4.7024   -6.1840 C   0  0  0  0  0  0  0  0  0  0  0  0
   49.7550   -4.8356   -4.8672 C   0  0  0  0  0  0  0  0  0  0  0  0
   49.0608   -3.8507   -4.1988 C   0  0  0  0  0  0  0  0  0  0  0  0
   48.6916   -2.6681   -4.8222 C   0  0  0  0  0  0  0  0  0  0  0  0
   49.0439   -2.5160   -6.1280 C   0  0  0  0  0  0  0  0  0  0  0  0
   49.7462   -3.5084   -6.8076 C   0  0  0  0  0  0  0  0  0  0  0  0
 54 55  1  0  0  0
 55 56  1  0  0  0
 55 53  1  0  0  0
 53 47  1  0  0  0
 47 43  1  0  0  0
 43 44  1  0  0  0
 44 45  2  0  0  0
 44 42  1  0  0  0
 42 57  1  0  0  0
 57 58  1  0  0  0
 58 59  1  0  0  0
 58 60  2  0  0  0
 42 38  1  0  0  0
 38 39  1  0  0  0
 39 40  2  0  0  0
 39 37  1  0  0  0
 37 62  1  0  0  0
 62 63  1  0  0  0
 63 64  1  0  0  0
 63 65  2  0  0  0
 37 33  1  0  0  0
 33 34  1  0  0  0
 34 35  2  0  0  0
 34  1  1  0  0  0
  1 67  1  0  0  0
 67 68  1  0  0  0
 68 69  2  0  0  0
 69 70  1  0  0  0
 70 71  2  0  0  0
 71 72  1  0  0  0
 72 73  2  0  0  0
  1  2  1  0  0  0
  2  3  1  0  0  0
  3  4  2  0  0  0
  3  6  1  0  0  0
  6 24  1  0  0  0
 24 25  1  0  0  0
 25 26  2  0  0  0
 26 27  1  0  0  0
 27 28  2  0  0  0
 28 29  1  0  0  0
 28 30  1  0  0  0
 30 31  2  0  0  0
  6  7  1  0  0  0
  7  8  1  0  0  0
  8  9  2  0  0  0
  8 11  1  0  0  0
 11 17  1  0  0  0
 17 18  1  0  0  0
 18 19  2  0  0  0
 19 20  1  0  0  0
 20 21  2  0  0  0
 21 22  1  0  0  0
 11 12  1  0  0  0
 12 13  1  0  0  0
 13 14  1  0  0  0
 13 15  2  0  0  0
 47 48  1  0  0  0
 48 49  1  0  0  0
 48 50  2  0  0  0
 73 68  1  0  0  0
 31 25  1  0  0  0
 22 18  1  0  0  0
 43 46  1  0  0  0
 59 61  1  0  0  0
 38 41  1  0  0  0
 64 66  1  0  0  0
 33 36  1  0  0  0
  2  5  1  0  0  0
 29 32  1  0  0  0
  7 10  1  0  0  0
 22 23  1  0  0  0
 12 16  1  0  0  0
 49 51  1  0  0  0
 49 52  1  0  0  0
M  END
> <minimizedAffinity>
-9.13312

> <CNNscore>
0.1104977578

> <CNNaffinity>
6.8338646889

> <CNN_VS>
0.7551267147

> <CNNaffinity_variance>
1.0247145891

$$$$
[H]OC(=O)C([H])([H])[C@@]([H])(C(=O)N([H])[C@]([H])(C(=O)N([H])[C@]([H])(C(=O)N([H])[H])C([H])([H])C([H])(C([H])([H])[H])C([H])([H])[H])C([H])([H])C(=O)O[H])N([H])C(=O)[C@@]([H])(N([H])C(=O)[C@@]([H])(N([H])C(=O)[C@@]([H])(N([H])C(=O)C([H])([H])[H])C([H])([H])c1c([H])nc([H])n1[H])C([H])([H])c1c([H])c([H])c(O[H])c([H])c1[H])C([H])([H])c1c([H])c([H])c([H])c([H])c1[H]


 73 75  0  0  0  0  0  0  0  0999 V2000
   61.6022   -7.3140   -9.1270 C   0  0  0  0  0  0  0  0  0  0  0  0
   61.2295   -8.3538   -8.2178 N   0  0  0  0  0  0  0  0  0  0  0  0
   61.8932   -8.6613   -7.0427 C   0  0  0  0  0  0  0  0  0  0  0  0
   62.9275   -8.0918   -6.6101 O   0  0  0  0  0  0  0  0  0  0  0  0
   60.3793   -8.9160   -8.4831 H   0  0  0  0  0  0  0  0  0  0  0  0
   61.3713   -9.7948   -6.1403 C   0  0  0  0  0  0  0  0  0  0  0  0
   60.3778   -9.1698   -5.2519 N   0  0  0  0  0  0  0  0  0  0  0  0
   60.5006   -9.2263   -3.8690 C   0  0  0  0  0  0  0  0  0  0  0  0
   61.5512   -9.9078   -3.4644 O   0  0  0  0  0  0  0  0  0  0  0  0
   59.6138   -8.6899   -5.7429 H   0  0  0  0  0  0  0  0  0  0  0  0
   59.6623   -8.6443   -2.8419 C   0  0  0  0  0  0  0  0  0  0  0  0
   60.0402   -9.1091   -1.5012 N   0  0  0  0  0  0  0  0  0  0  0  0
   59.4063  -10.1476   -0.8021 C   0  0  0  0  0  0  0  0  0  0  0  0
   59.8848  -10.5266    0.5406 C   0  0  0  0  0  0  0  0  0  0  0  0
   58.4367  -10.7642   -1.2984 O   0  0  0  0  0  0  0  0  0  0  0  0
   60.8440   -8.5921   -1.0753 H   0  0  0  0  0  0  0  0  0  0  0  0
   59.4573   -7.1872   -2.8095 C   0  0  0  0  0  0  0  0  0  0  0  0
   58.4540   -6.6651   -1.8546 C   0  0  0  0  0  0  0  0  0  0  0  0
   58.6457   -5.5105   -1.1011 C   0  0  0  0  0  0  0  0  0  0  0  0
   57.5934   -5.3805   -0.3081 N   0  0  0  0  0  0  0  0  0  0  0  0
   56.7290   -6.4138   -0.5239 C   0  0  0  0  0  0  0  0  0  0  0  0
   57.2848   -7.1672   -1.4672 N   0  0  0  0  0  0  0  0  0  0  0  0
   56.8849   -8.0418   -1.8674 H   0  0  0  0  0  0  0  0  0  0  0  0
   60.8421  -10.8645   -7.0177 C   0  0  0  0  0  0  0  0  0  0  0  0
   61.7552  -11.9566   -7.3947 C   0  0  0  0  0  0  0  0  0  0  0  0
   63.0300  -12.0144   -6.8067 C   0  0  0  0  0  0  0  0  0  0  0  0
   63.9070  -12.9887   -7.1565 C   0  0  0  0  0  0  0  0  0  0  0  0
   63.6338  -13.9729   -8.0864 C   0  0  0  0  0  0  0  0  0  0  0  0
   64.5343  -14.9520   -8.4311 O   0  0  0  0  0  0  0  0  0  0  0  0
   62.3619  -13.9015   -8.6626 C   0  0  0  0  0  0  0  0  0  0  0  0
   61.4647  -12.9190   -8.3174 C   0  0  0  0  0  0  0  0  0  0  0  0
   65.1999  -14.8569   -9.1797 H   0  0  0  0  0  0  0  0  0  0  0  0
   59.3793   -6.1463   -8.6042 N   0  0  0  0  0  0  0  0  0  0  0  0
   60.5099   -6.3896   -9.4281 C   0  0  0  0  0  0  0  0  0  0  0  0
   60.5890   -5.7529  -10.5293 O   0  0  0  0  0  0  0  0  0  0  0  0
   59.2421   -6.6503   -7.6980 H   0  0  0  0  0  0  0  0  0  0  0  0
   58.4047   -5.1639   -9.0646 C   0  0  0  0  0  0  0  0  0  0  0  0
   56.8874   -5.9693   -7.2621 N   0  0  0  0  0  0  0  0  0  0  0  0
   57.2831   -4.9492   -8.1584 C   0  0  0  0  0  0  0  0  0  0  0  0
   56.6681   -3.8622   -8.1786 O   0  0  0  0  0  0  0  0  0  0  0  0
   57.4269   -6.8740   -7.2845 H   0  0  0  0  0  0  0  0  0  0  0  0
   55.8063   -5.8788   -6.3114 C   0  0  0  0  0  0  0  0  0  0  0  0
   54.0675   -4.3137   -7.2951 N   0  0  0  0  0  0  0  0  0  0  0  0
   54.5335   -5.6125   -6.9508 C   0  0  0  0  0  0  0  0  0  0  0  0
   53.7442   -6.5748   -7.2504 O   0  0  0  0  0  0  0  0  0  0  0  0
   54.6887   -3.5151   -7.0450 H   0  0  0  0  0  0  0  0  0  0  0  0
   52.7608   -4.1045   -7.9852 C   0  0  0  0  0  0  0  0  0  0  0  0
   52.9670   -3.2367   -9.1377 C   0  0  0  0  0  0  0  0  0  0  0  0
   54.0690   -3.3238  -10.0218 N   0  0  0  0  0  0  0  0  0  0  0  0
   52.1182   -2.3383   -9.3790 O   0  0  0  0  0  0  0  0  0  0  0  0
   54.2871   -2.5820  -10.7355 H   0  0  0  0  0  0  0  0  0  0  0  0
   54.7545   -4.1382  -10.0283 H   0  0  0  0  0  0  0  0  0  0  0  0
   51.8328   -3.6739   -6.9335 C   0  0  0  0  0  0  0  0  0  0  0  0
   50.2409   -5.4985   -6.1675 C   0  0  0  0  0  0  0  0  0  0  0  0
   50.4558   -4.1714   -6.8500 C   0  0  0  0  0  0  0  0  0  0  0  0
   49.4486   -3.1372   -6.3767 C   0  0  0  0  0  0  0  0  0  0  0  0
   56.2062   -4.7271   -5.3604 C   0  0  0  0  0  0  0  0  0  0  0  0
   55.8462   -4.9892   -3.9770 C   0  0  0  0  0  0  0  0  0  0  0  0
   56.1234   -4.0747   -2.9809 O   0  0  0  0  0  0  0  0  0  0  0  0
   55.2689   -6.0569   -3.6235 O   0  0  0  0  0  0  0  0  0  0  0  0
   56.8965   -3.4115   -3.0408 H   0  0  0  0  0  0  0  0  0  0  0  0
   57.9116   -5.6399  -10.4450 C   0  0  0  0  0  0  0  0  0  0  0  0
   57.7631   -4.5464  -11.3949 C   0  0  0  0  0  0  0  0  0  0  0  0
   57.0195   -3.4220  -11.0027 O   0  0  0  0  0  0  0  0  0  0  0  0
   58.2575   -4.5634  -12.5213 O   0  0  0  0  0  0  0  0  0  0  0  0
   57.2223   -2.4844  -11.3299 H   0  0  0  0  0  0  0  0  0  0  0  0
   62.0277   -7.9616  -10.4772 C   0  0  0  0  0  0  0  0  0  0  0  0
   63.0754   -8.9618  -10.3110 C   0  0  0  0  0  0  0  0  0  0  0  0
   62.9635  -10.2907  -10.6360 C   0  0  0  0  0  0  0  0  0  0  0  0
   63.9975  -11.1798  -10.4382 C   0  0  0  0  0  0  0  0  0  0  0  0
   65.2106  -10.7786   -9.8988 C   0  0  0  0  0  0  0  0  0  0  0  0
   65.3421   -9.4643   -9.5706 C   0  0  0  0  0  0  0  0  0  0  0  0
   64.3001   -8.5617   -9.7693 C   0  0  0  0  0  0  0  0  0  0  0  0
 54 55  1  0  0  0
 55 56  1  0  0  0
 55 53  1  0  0  0
 53 47  1  0  0  0
 47 43  1  0  0  0
 43 44  1  0  0  0
 44 45  2  0  0  0
 44 42  1  0  0  0
 42 57  1  0  0  0
 57 58  1  0  0  0
 58 59  1  0  0  0
 58 60  2  0  0  0
 42 38  1  0  0  0
 38 39  1  0  0  0
 39 40  2  0  0  0
 39 37  1  0  0  0
 37 62  1  0  0  0
 62 63  1  0  0  0
 63 64  1  0  0  0
 63 65  2  0  0  0
 37 33  1  0  0  0
 33 34  1  0  0  0
 34 35  2  0  0  0
 34  1  1  0  0  0
  1 67  1  0  0  0
 67 68  1  0  0  0
 68 69  2  0  0  0
 69 70  1  0  0  0
 70 71  2  0  0  0
 71 72  1  0  0  0
 72 73  2  0  0  0
  1  2  1  0  0  0
  2  3  1  0  0  0
  3  4  2  0  0  0
  3  6  1  0  0  0
  6 24  1  0  0  0
 24 25  1  0  0  0
 25 26  2  0  0  0
 26 27  1  0  0  0
 27 28  2  0  0  0
 28 29  1  0  0  0
 28 30  1  0  0  0
 30 31  2  0  0  0
  6  7  1  0  0  0
  7  8  1  0  0  0
  8  9  2  0  0  0
  8 11  1  0  0  0
 11 17  1  0  0  0
 17 18  1  0  0  0
 18 19  2  0  0  0
 19 20  1  0  0  0
 20 21  2  0  0  0
 21 22  1  0  0  0
 11 12  1  0  0  0
 12 13  1  0  0  0
 13 14  1  0  0  0
 13 15  2  0  0  0
 47 48  1  0  0  0
 48 49  1  0  0  0
 48 50  2  0  0  0
 73 68  1  0  0  0
 31 25  1  0  0  0
 22 18  1  0  0  0
 43 46  1  0  0  0
 59 61  1  0  0  0
 38 41  1  0  0  0
 64 66  1  0  0  0
 33 36  1  0  0  0
  2  5  1  0  0  0
 29 32  1  0  0  0
  7 10  1  0  0  0
 22 23  1  0  0  0
 12 16  1  0  0  0
 49 51  1  0  0  0
 49 52  1  0  0  0
M  END
> <minimizedAffinity>
-7.66467

> <CNNscore>
0.1048851758

> <CNNaffinity>
6.5344901085

> <CNN_VS>
0.6853711605

> <CNNaffinity_variance>
0.8581762314

$$$$
[H]OC(=O)C([H])([H])[C@@]([H])(C(=O)N([H])[C@]([H])(C(=O)N([H])[C@]([H])(C(=O)N([H])[H])C([H])([H])C([H])(C([H])([H])[H])C([H])([H])[H])C([H])([H])C(=O)O[H])N([H])C(=O)[C@@]([H])(N([H])C(=O)[C@@]([H])(N([H])C(=O)[C@@]([H])(N([H])C(=O)C([H])([H])[H])C([H])([H])c1c([H])nc([H])n1[H])C([H])([H])c1c([H])c([H])c(O[H])c([H])c1[H])C([H])([H])c1c([H])c([H])c([H])c([H])c1[H]


 73 75  0  0  0  0  0  0  0  0999 V2000
   52.9026   -6.2630   -7.3995 C   0  0  0  0  0  0  0  0  0  0  0  0
   53.1069   -6.4266   -5.9930 N   0  0  0  0  0  0  0  0  0  0  0  0
   54.2691   -6.8958   -5.4052 C   0  0  0  0  0  0  0  0  0  0  0  0
   55.3052   -7.2656   -6.0143 O   0  0  0  0  0  0  0  0  0  0  0  0
   52.2962   -6.1619   -5.3751 H   0  0  0  0  0  0  0  0  0  0  0  0
   54.3649   -7.0021   -3.8720 C   0  0  0  0  0  0  0  0  0  0  0  0
   55.7008   -6.4931   -3.5212 N   0  0  0  0  0  0  0  0  0  0  0  0
   56.5433   -7.1904   -2.6639 C   0  0  0  0  0  0  0  0  0  0  0  0
   56.0115   -8.2990   -2.1949 O   0  0  0  0  0  0  0  0  0  0  0  0
   55.9461   -5.6031   -3.9714 H   0  0  0  0  0  0  0  0  0  0  0  0
   57.8919   -6.8798   -2.2381 C   0  0  0  0  0  0  0  0  0  0  0  0
   57.9084   -6.1734   -0.9509 N   0  0  0  0  0  0  0  0  0  0  0  0
   58.6340   -5.0019   -0.6860 C   0  0  0  0  0  0  0  0  0  0  0  0
   58.5635   -4.3819    0.6504 C   0  0  0  0  0  0  0  0  0  0  0  0
   59.3444   -4.4677   -1.5673 O   0  0  0  0  0  0  0  0  0  0  0  0
   57.3245   -6.6192   -0.2059 H   0  0  0  0  0  0  0  0  0  0  0  0
   58.9119   -7.9407   -2.2216 C   0  0  0  0  0  0  0  0  0  0  0  0
   60.0558   -7.7955   -3.1498 C   0  0  0  0  0  0  0  0  0  0  0  0
   59.9398   -7.9260   -4.5307 C   0  0  0  0  0  0  0  0  0  0  0  0
   61.1568   -7.8106   -5.0392 N   0  0  0  0  0  0  0  0  0  0  0  0
   62.0551   -7.6110   -4.0319 C   0  0  0  0  0  0  0  0  0  0  0  0
   61.3495   -7.6065   -2.9057 N   0  0  0  0  0  0  0  0  0  0  0  0
   61.7305   -7.4786   -1.9447 H   0  0  0  0  0  0  0  0  0  0  0  0
   53.2329   -6.2416   -3.2940 C   0  0  0  0  0  0  0  0  0  0  0  0
   52.6461   -6.7349   -2.0367 C   0  0  0  0  0  0  0  0  0  0  0  0
   51.3687   -7.3196   -2.0625 C   0  0  0  0  0  0  0  0  0  0  0  0
   50.7862   -7.7543   -0.9169 C   0  0  0  0  0  0  0  0  0  0  0  0
   51.3759   -7.6643    0.3290 C   0  0  0  0  0  0  0  0  0  0  0  0
   50.7713   -8.1079    1.4805 O   0  0  0  0  0  0  0  0  0  0  0  0
   52.6461   -7.0800    0.3381 C   0  0  0  0  0  0  0  0  0  0  0  0
   53.2466   -6.6348   -0.8154 C   0  0  0  0  0  0  0  0  0  0  0  0
   50.1805   -7.5316    2.0560 H   0  0  0  0  0  0  0  0  0  0  0  0
   54.9087   -5.2238   -8.6135 N   0  0  0  0  0  0  0  0  0  0  0  0
   53.6480   -5.1395   -7.9657 C   0  0  0  0  0  0  0  0  0  0  0  0
   53.1105   -3.9886   -7.8618 O   0  0  0  0  0  0  0  0  0  0  0  0
   55.4142   -6.1339   -8.7140 H   0  0  0  0  0  0  0  0  0  0  0  0
   55.4839   -3.9908   -9.1386 C   0  0  0  0  0  0  0  0  0  0  0  0
   56.5090   -3.2629  -11.2879 N   0  0  0  0  0  0  0  0  0  0  0  0
   56.4511   -4.1803  -10.2128 C   0  0  0  0  0  0  0  0  0  0  0  0
   57.2268   -5.1589  -10.1843 O   0  0  0  0  0  0  0  0  0  0  0  0
   55.8303   -2.4570  -11.2780 H   0  0  0  0  0  0  0  0  0  0  0  0
   57.4230   -3.3313  -12.4017 C   0  0  0  0  0  0  0  0  0  0  0  0
   57.0606   -3.4214  -14.9120 N   0  0  0  0  0  0  0  0  0  0  0  0
   56.8002   -3.8780  -13.5905 C   0  0  0  0  0  0  0  0  0  0  0  0
   55.9586   -4.8382  -13.4987 O   0  0  0  0  0  0  0  0  0  0  0  0
   57.7312   -2.6293  -15.0068 H   0  0  0  0  0  0  0  0  0  0  0  0
   56.4140   -4.0481  -16.1021 C   0  0  0  0  0  0  0  0  0  0  0  0
   57.4490   -4.5875  -16.9750 C   0  0  0  0  0  0  0  0  0  0  0  0
   57.2181   -5.5238  -18.0110 N   0  0  0  0  0  0  0  0  0  0  0  0
   58.6386   -4.2089  -16.8097 O   0  0  0  0  0  0  0  0  0  0  0  0
   57.9969   -6.0283  -18.5074 H   0  0  0  0  0  0  0  0  0  0  0  0
   56.2475   -5.7870  -18.3602 H   0  0  0  0  0  0  0  0  0  0  0  0
   55.5055   -3.0251  -16.6319 C   0  0  0  0  0  0  0  0  0  0  0  0
   54.0643   -2.5469  -18.6677 C   0  0  0  0  0  0  0  0  0  0  0  0
   55.4357   -2.7012  -18.0605 C   0  0  0  0  0  0  0  0  0  0  0  0
   56.3595   -1.5736  -18.4883 C   0  0  0  0  0  0  0  0  0  0  0  0
   58.5814   -4.2314  -11.9131 C   0  0  0  0  0  0  0  0  0  0  0  0
   59.8001   -4.0473  -12.6830 C   0  0  0  0  0  0  0  0  0  0  0  0
   59.9900   -2.9242  -13.4628 O   0  0  0  0  0  0  0  0  0  0  0  0
   60.7345   -4.8987  -12.6761 O   0  0  0  0  0  0  0  0  0  0  0  0
   59.2160   -2.3961  -13.8668 H   0  0  0  0  0  0  0  0  0  0  0  0
   56.1259   -3.2562   -7.9455 C   0  0  0  0  0  0  0  0  0  0  0  0
   56.4941   -4.1587   -6.8639 C   0  0  0  0  0  0  0  0  0  0  0  0
   57.3647   -5.2215   -7.1527 O   0  0  0  0  0  0  0  0  0  0  0  0
   56.0781   -4.0327   -5.7130 O   0  0  0  0  0  0  0  0  0  0  0  0
   58.0257   -5.5923   -6.4796 H   0  0  0  0  0  0  0  0  0  0  0  0
   51.3940   -5.9751   -7.6538 C   0  0  0  0  0  0  0  0  0  0  0  0
   50.7651   -5.2704   -6.5431 C   0  0  0  0  0  0  0  0  0  0  0  0
   50.5061   -5.8071   -5.3066 C   0  0  0  0  0  0  0  0  0  0  0  0
   49.8961   -5.0791   -4.3084 C   0  0  0  0  0  0  0  0  0  0  0  0
   49.5101   -3.7607   -4.4997 C   0  0  0  0  0  0  0  0  0  0  0  0
   49.7589   -3.2095   -5.7190 C   0  0  0  0  0  0  0  0  0  0  0  0
   50.3759   -3.9413   -6.7309 C   0  0  0  0  0  0  0  0  0  0  0  0
 54 55  1  0  0  0
 55 56  1  0  0  0
 55 53  1  0  0  0
 53 47  1  0  0  0
 47 43  1  0  0  0
 43 44  1  0  0  0
 44 45  2  0  0  0
 44 42  1  0  0  0
 42 57  1  0  0  0
 57 58  1  0  0  0
 58 59  1  0  0  0
 58 60  2  0  0  0
 42 38  1  0  0  0
 38 39  1  0  0  0
 39 40  2  0  0  0
 39 37  1  0  0  0
 37 62  1  0  0  0
 62 63  1  0  0  0
 63 64  1  0  0  0
 63 65  2  0  0  0
 37 33  1  0  0  0
 33 34  1  0  0  0
 34 35  2  0  0  0
 34  1  1  0  0  0
  1 67  1  0  0  0
 67 68  1  0  0  0
 68 69  2  0  0  0
 69 70  1  0  0  0
 70 71  2  0  0  0
 71 72  1  0  0  0
 72 73  2  0  0  0
  1  2  1  0  0  0
  2  3  1  0  0  0
  3  4  2  0  0  0
  3  6  1  0  0  0
  6 24  1  0  0  0
 24 25  1  0  0  0
 25 26  2  0  0  0
 26 27  1  0  0  0
 27 28  2  0  0  0
 28 29  1  0  0  0
 28 30  1  0  0  0
 30 31  2  0  0  0
  6  7  1  0  0  0
  7  8  1  0  0  0
  8  9  2  0  0  0
  8 11  1  0  0  0
 11 17  1  0  0  0
 17 18  1  0  0  0
 18 19  2  0  0  0
 19 20  1  0  0  0
 20 21  2  0  0  0
 21 22  1  0  0  0
 11 12  1  0  0  0
 12 13  1  0  0  0
 13 14  1  0  0  0
 13 15  2  0  0  0
 47 48  1  0  0  0
 48 49  1  0  0  0
 48 50  2  0  0  0
 73 68  1  0  0  0
 31 25  1  0  0  0
 22 18  1  0  0  0
 43 46  1  0  0  0
 59 61  1  0  0  0
 38 41  1  0  0  0
 64 66  1  0  0  0
 33 36  1  0  0  0
  2  5  1  0  0  0
 29 32  1  0  0  0
  7 10  1  0  0  0
 22 23  1  0  0  0
 12 16  1  0  0  0
 49 51  1  0  0  0
 49 52  1  0  0  0
M  END
> <minimizedAffinity>
-8.31407

> <CNNscore>
0.0937806219

> <CNNaffinity>
6.9843192101

> <CNN_VS>
0.6549937725

> <CNNaffinity_variance>
0.6228672266

$$$$
[H]c1nc(N([H])[H])c(C(=O)N([H])c2nc([H])c([H])c([H])c2N2C([H])([H])C([H])([H])C([H])(N([H])[H])C([H])([H])C2([H])[H])nc1-c1nc(N2C([H])([H])C([H])([H])OC([H])([H])C2([H])[H])c([H])c([H])c1C(F)(F)F


 44 48  0  0  0  0  0  0  0  0999 V2000
   52.3805   -3.6889   -7.7451 C   0  0  0  0  0  0  0  0  0  0  0  0
   53.5804   -4.2525   -7.7006 N   0  0  0  0  0  0  0  0  0  0  0  0
   54.6293   -3.9209   -8.5466 C   0  0  0  0  0  0  0  0  0  0  0  0
   54.3334   -2.9667   -9.4335 C   0  0  0  0  0  0  0  0  0  0  0  0
   53.0929   -2.3725   -9.4911 N   0  0  0  0  0  0  0  0  0  0  0  0
   52.1037   -2.7039   -8.6720 C   0  0  0  0  0  0  0  0  0  0  0  0
   50.8177   -2.0695   -8.7524 N   0  0  0  0  0  0  0  0  0  0  0  0
   50.1200   -2.4755   -9.4048 H   0  0  0  0  0  0  0  0  0  0  0  0
   50.5431   -1.2348   -8.2022 H   0  0  0  0  0  0  0  0  0  0  0  0
   55.8567   -4.6250   -8.2338 C   0  0  0  0  0  0  0  0  0  0  0  0
   55.9332   -5.1198   -6.9358 N   0  0  0  0  0  0  0  0  0  0  0  0
   56.9351   -5.7998   -6.4385 C   0  0  0  0  0  0  0  0  0  0  0  0
   58.0092   -6.0430   -7.2969 C   0  0  0  0  0  0  0  0  0  0  0  0
   58.0004   -5.5906   -8.5763 C   0  0  0  0  0  0  0  0  0  0  0  0
   56.8885   -4.8545   -9.0719 C   0  0  0  0  0  0  0  0  0  0  0  0
   56.9927   -6.2539   -5.0954 N   0  0  0  0  0  0  0  0  0  0  0  0
   55.9477   -5.9446   -4.1780 C   0  0  0  0  0  0  0  0  0  0  0  0
   56.4727   -5.5919   -2.8001 C   0  0  0  0  0  0  0  0  0  0  0  0
   57.8119   -5.9254   -2.6338 O   0  0  0  0  0  0  0  0  0  0  0  0
   58.0822   -7.1926   -3.1497 C   0  0  0  0  0  0  0  0  0  0  0  0
   58.1362   -7.0293   -4.6591 C   0  0  0  0  0  0  0  0  0  0  0  0
   56.9297   -4.4246  -10.4750 C   0  0  0  0  0  0  0  0  0  0  0  0
   58.1905   -4.9958  -10.9511 F   0  0  0  0  0  0  0  0  0  0  0  0
   57.2319   -3.0967  -10.6568 F   0  0  0  0  0  0  0  0  0  0  0  0
   56.0002   -4.9664  -11.3074 F   0  0  0  0  0  0  0  0  0  0  0  0
   51.3703   -3.9476   -5.4337 N   0  0  0  0  0  0  0  0  0  0  0  0
   51.3078   -4.0343   -6.8384 C   0  0  0  0  0  0  0  0  0  0  0  0
   50.2172   -4.4561   -7.3599 O   0  0  0  0  0  0  0  0  0  0  0  0
   52.2333   -3.6212   -5.0015 H   0  0  0  0  0  0  0  0  0  0  0  0
   50.3430   -4.9522   -3.4923 C   0  0  0  0  0  0  0  0  0  0  0  0
   49.1851   -5.1269   -2.7085 C   0  0  0  0  0  0  0  0  0  0  0  0
   47.9879   -4.6035   -3.1201 C   0  0  0  0  0  0  0  0  0  0  0  0
   47.9009   -3.9057   -4.2949 C   0  0  0  0  0  0  0  0  0  0  0  0
   49.0032   -3.7462   -5.0253 N   0  0  0  0  0  0  0  0  0  0  0  0
   50.2203   -4.2503   -4.6518 C   0  0  0  0  0  0  0  0  0  0  0  0
   52.4888   -8.2319   -0.0981 N   0  0  0  0  0  0  0  0  0  0  0  0
   51.8824   -7.3190   -1.0775 C   0  0  0  0  0  0  0  0  0  0  0  0
   52.4112   -5.9541   -0.7997 C   0  0  0  0  0  0  0  0  0  0  0  0
   52.2376   -4.9899   -1.9517 C   0  0  0  0  0  0  0  0  0  0  0  0
   51.5061   -5.6070   -3.0455 N   0  0  0  0  0  0  0  0  0  0  0  0
   51.9788   -6.8596   -3.5409 C   0  0  0  0  0  0  0  0  0  0  0  0
   52.2277   -7.8656   -2.4372 C   0  0  0  0  0  0  0  0  0  0  0  0
   51.8654   -8.3801    0.7142 H   0  0  0  0  0  0  0  0  0  0  0  0
   52.8522   -9.0897   -0.5284 H   0  0  0  0  0  0  0  0  0  0  0  0
 36 37  1  0  0  0
 37 38  1  0  0  0
 38 39  1  0  0  0
 39 40  1  0  0  0
 40 41  1  0  0  0
 41 42  1  0  0  0
 40 30  1  0  0  0
 30 31  2  0  0  0
 31 32  1  0  0  0
 32 33  2  0  0  0
 33 34  1  0  0  0
 34 35  2  0  0  0
 35 26  1  0  0  0
 26 27  1  0  0  0
 27 28  2  0  0  0
 27  1  1  0  0  0
  1  2  2  0  0  0
  2  3  1  0  0  0
  3  4  2  0  0  0
  4  5  1  0  0  0
  5  6  2  0  0  0
  6  7  1  0  0  0
  3 10  1  0  0  0
 10 11  2  0  0  0
 11 12  1  0  0  0
 12 13  2  0  0  0
 13 14  1  0  0  0
 14 15  2  0  0  0
 15 22  1  0  0  0
 22 23  1  0  0  0
 22 24  1  0  0  0
 22 25  1  0  0  0
 12 16  1  0  0  0
 16 17  1  0  0  0
 17 18  1  0  0  0
 18 19  1  0  0  0
 19 20  1  0  0  0
 20 21  1  0  0  0
 42 37  1  0  0  0
 35 30  1  0  0  0
  6  1  1  0  0  0
 15 10  1  0  0  0
 21 16  1  0  0  0
 36 43  1  0  0  0
 36 44  1  0  0  0
 26 29  1  0  0  0
  7  8  1  0  0  0
  7  9  1  0  0  0
M  END
> <minimizedAffinity>
-5.53796

> <CNNscore>
0.6853431463

> <CNNaffinity>
7.9914770126

> <CNN_VS>
5.4769039154

> <CNNaffinity_variance>
0.2327105552

$$$$
[H]c1nc(N([H])[H])c(C(=O)N([H])c2nc([H])c([H])c([H])c2N2C([H])([H])C([H])([H])C([H])(N([H])[H])C([H])([H])C2([H])[H])nc1-c1nc(N2C([H])([H])C([H])([H])OC([H])([H])C2([H])[H])c([H])c([H])c1C(F)(F)F


 44 48  0  0  0  0  0  0  0  0999 V2000
   52.9094   -4.4363   -7.5634 C   0  0  0  0  0  0  0  0  0  0  0  0
   54.0203   -4.6509   -8.2556 N   0  0  0  0  0  0  0  0  0  0  0  0
   54.4107   -3.9004   -9.3558 C   0  0  0  0  0  0  0  0  0  0  0  0
   53.5619   -2.9195   -9.6753 C   0  0  0  0  0  0  0  0  0  0  0  0
   52.4058   -2.6846   -8.9660 N   0  0  0  0  0  0  0  0  0  0  0  0
   52.0514   -3.4138   -7.9163 C   0  0  0  0  0  0  0  0  0  0  0  0
   50.8393   -3.1491   -7.1926 N   0  0  0  0  0  0  0  0  0  0  0  0
   49.9691   -3.6054   -7.5269 H   0  0  0  0  0  0  0  0  0  0  0  0
   50.7786   -2.5334   -6.3608 H   0  0  0  0  0  0  0  0  0  0  0  0
   55.7052   -4.2887   -9.8787 C   0  0  0  0  0  0  0  0  0  0  0  0
   55.8233   -4.2154  -11.2630 N   0  0  0  0  0  0  0  0  0  0  0  0
   56.9001   -4.4998  -11.9509 C   0  0  0  0  0  0  0  0  0  0  0  0
   58.0169   -4.9074  -11.2186 C   0  0  0  0  0  0  0  0  0  0  0  0
   57.9722   -4.9998   -9.8654 C   0  0  0  0  0  0  0  0  0  0  0  0
   56.7781   -4.6808   -9.1611 C   0  0  0  0  0  0  0  0  0  0  0  0
   56.9689   -4.4504  -13.3673 N   0  0  0  0  0  0  0  0  0  0  0  0
   58.0614   -3.8108  -14.0203 C   0  0  0  0  0  0  0  0  0  0  0  0
   57.6231   -3.0064  -15.2284 C   0  0  0  0  0  0  0  0  0  0  0  0
   56.3206   -3.2924  -15.6207 O   0  0  0  0  0  0  0  0  0  0  0  0
   56.0821   -4.6664  -15.6081 C   0  0  0  0  0  0  0  0  0  0  0  0
   55.9057   -5.0493  -14.1486 C   0  0  0  0  0  0  0  0  0  0  0  0
   56.8094   -4.7696   -7.6961 C   0  0  0  0  0  0  0  0  0  0  0  0
   58.1757   -5.2216   -7.4289 F   0  0  0  0  0  0  0  0  0  0  0  0
   56.1375   -5.8488   -7.1749 F   0  0  0  0  0  0  0  0  0  0  0  0
   56.7220   -3.5976   -7.0111 F   0  0  0  0  0  0  0  0  0  0  0  0
   53.0993   -5.0936   -5.1217 N   0  0  0  0  0  0  0  0  0  0  0  0
   52.5328   -5.2171   -6.4057 C   0  0  0  0  0  0  0  0  0  0  0  0
   51.6127   -6.0926   -6.5675 O   0  0  0  0  0  0  0  0  0  0  0  0
   53.8382   -4.4071   -4.9770 H   0  0  0  0  0  0  0  0  0  0  0  0
   53.4436   -6.5505   -3.2264 C   0  0  0  0  0  0  0  0  0  0  0  0
   52.8904   -7.2154   -2.1140 C   0  0  0  0  0  0  0  0  0  0  0  0
   51.5405   -7.1713   -1.8849 C   0  0  0  0  0  0  0  0  0  0  0  0
   50.7135   -6.4824   -2.7313 C   0  0  0  0  0  0  0  0  0  0  0  0
   51.2494   -5.8568   -3.7778 N   0  0  0  0  0  0  0  0  0  0  0  0
   52.5926   -5.8729   -4.0441 C   0  0  0  0  0  0  0  0  0  0  0  0
   58.0882   -7.6182   -1.1847 N   0  0  0  0  0  0  0  0  0  0  0  0
   56.7711   -7.3375   -1.7735 C   0  0  0  0  0  0  0  0  0  0  0  0
   56.7762   -5.9149   -2.2162 C   0  0  0  0  0  0  0  0  0  0  0  0
   55.6868   -5.5852   -3.2119 C   0  0  0  0  0  0  0  0  0  0  0  0
   54.8229   -6.7311   -3.4415 N   0  0  0  0  0  0  0  0  0  0  0  0
   55.4375   -7.9682   -3.8015 C   0  0  0  0  0  0  0  0  0  0  0  0
   56.5776   -8.3421   -2.8781 C   0  0  0  0  0  0  0  0  0  0  0  0
   58.0702   -7.5132   -0.1555 H   0  0  0  0  0  0  0  0  0  0  0  0
   58.4945   -8.4973   -1.5241 H   0  0  0  0  0  0  0  0  0  0  0  0
 36 37  1  0  0  0
 37 38  1  0  0  0
 38 39  1  0  0  0
 39 40  1  0  0  0
 40 41  1  0  0  0
 41 42  1  0  0  0
 40 30  1  0  0  0
 30 31  2  0  0  0
 31 32  1  0  0  0
 32 33  2  0  0  0
 33 34  1  0  0  0
 34 35  2  0  0  0
 35 26  1  0  0  0
 26 27  1  0  0  0
 27 28  2  0  0  0
 27  1  1  0  0  0
  1  2  2  0  0  0
  2  3  1  0  0  0
  3  4  2  0  0  0
  4  5  1  0  0  0
  5  6  2  0  0  0
  6  7  1  0  0  0
  3 10  1  0  0  0
 10 11  2  0  0  0
 11 12  1  0  0  0
 12 13  2  0  0  0
 13 14  1  0  0  0
 14 15  2  0  0  0
 15 22  1  0  0  0
 22 23  1  0  0  0
 22 24  1  0  0  0
 22 25  1  0  0  0
 12 16  1  0  0  0
 16 17  1  0  0  0
 17 18  1  0  0  0
 18 19  1  0  0  0
 19 20  1  0  0  0
 20 21  1  0  0  0
 42 37  1  0  0  0
 35 30  1  0  0  0
  6  1  1  0  0  0
 15 10  1  0  0  0
 21 16  1  0  0  0
 36 43  1  0  0  0
 36 44  1  0  0  0
 26 29  1  0  0  0
  7  8  1  0  0  0
  7  9  1  0  0  0
M  END
> <minimizedAffinity>
-9.85238

> <CNNscore>
0.5848850012

> <CNNaffinity>
7.9326424599

> <CNN_VS>
4.6396837234

> <CNNaffinity_variance>
0.0468375757

$$$$
[H]c1nc(N([H])[H])c(C(=O)N([H])c2nc([H])c([H])c([H])c2N2C([H])([H])C([H])([H])C([H])(N([H])[H])C([H])([H])C2([H])[H])nc1-c1nc(N2C([H])([H])C([H])([H])OC([H])([H])C2([H])[H])c([H])c([H])c1C(F)(F)F


 44 48  0  0  0  0  0  0  0  0999 V2000
   55.6533   -4.6758   -8.4836 C   0  0  0  0  0  0  0  0  0  0  0  0
   55.1178   -5.0625   -7.3333 N   0  0  0  0  0  0  0  0  0  0  0  0
   53.8249   -4.7557   -6.9331 C   0  0  0  0  0  0  0  0  0  0  0  0
   53.1409   -4.0219   -7.8154 C   0  0  0  0  0  0  0  0  0  0  0  0
   53.6833   -3.6139   -9.0130 N   0  0  0  0  0  0  0  0  0  0  0  0
   54.9217   -3.9189   -9.3769 C   0  0  0  0  0  0  0  0  0  0  0  0
   55.4652   -3.4807  -10.6320 N   0  0  0  0  0  0  0  0  0  0  0  0
   55.9207   -2.5485  -10.6607 H   0  0  0  0  0  0  0  0  0  0  0  0
   55.4314   -4.0342  -11.5079 H   0  0  0  0  0  0  0  0  0  0  0  0
   53.4592   -5.3690   -5.6720 C   0  0  0  0  0  0  0  0  0  0  0  0
   54.5323   -5.7242   -4.8610 N   0  0  0  0  0  0  0  0  0  0  0  0
   54.4415   -6.2739   -3.6764 C   0  0  0  0  0  0  0  0  0  0  0  0
   53.1516   -6.5155   -3.1997 C   0  0  0  0  0  0  0  0  0  0  0  0
   52.0596   -6.1927   -3.9379 C   0  0  0  0  0  0  0  0  0  0  0  0
   52.2085   -5.5974   -5.2212 C   0  0  0  0  0  0  0  0  0  0  0  0
   55.5623   -6.6584   -2.8957 N   0  0  0  0  0  0  0  0  0  0  0  0
   56.5417   -7.5503   -3.4196 C   0  0  0  0  0  0  0  0  0  0  0  0
   57.0148   -8.5592   -2.3915 C   0  0  0  0  0  0  0  0  0  0  0  0
   56.6300   -8.2283   -1.0974 O   0  0  0  0  0  0  0  0  0  0  0  0
   56.8289   -6.8711   -0.8452 C   0  0  0  0  0  0  0  0  0  0  0  0
   55.6966   -6.1424   -1.5485 C   0  0  0  0  0  0  0  0  0  0  0  0
   50.9853   -5.2426   -5.9514 C   0  0  0  0  0  0  0  0  0  0  0  0
   49.9278   -5.7517   -5.0768 F   0  0  0  0  0  0  0  0  0  0  0  0
   50.7286   -6.0261   -7.0504 F   0  0  0  0  0  0  0  0  0  0  0  0
   50.7001   -3.9167   -6.0574 F   0  0  0  0  0  0  0  0  0  0  0  0
   57.3761   -5.4202  -10.1889 N   0  0  0  0  0  0  0  0  0  0  0  0
   56.9963   -5.0260   -8.8908 C   0  0  0  0  0  0  0  0  0  0  0  0
   57.9088   -4.9758   -7.9940 O   0  0  0  0  0  0  0  0  0  0  0  0
   56.6612   -5.4730  -10.9129 H   0  0  0  0  0  0  0  0  0  0  0  0
   59.4035   -4.9102  -11.3983 C   0  0  0  0  0  0  0  0  0  0  0  0
   60.7841   -5.1368  -11.5664 C   0  0  0  0  0  0  0  0  0  0  0  0
   61.4207   -6.0978  -10.8260 C   0  0  0  0  0  0  0  0  0  0  0  0
   60.7258   -6.8482   -9.9156 C   0  0  0  0  0  0  0  0  0  0  0  0
   59.4219   -6.6225   -9.7651 N   0  0  0  0  0  0  0  0  0  0  0  0
   58.7457   -5.6719  -10.4822 C   0  0  0  0  0  0  0  0  0  0  0  0
   57.5956   -3.8888  -16.1491 N   0  0  0  0  0  0  0  0  0  0  0  0
   58.0855   -4.1791  -14.7940 C   0  0  0  0  0  0  0  0  0  0  0  0
   59.3178   -3.3686  -14.5838 C   0  0  0  0  0  0  0  0  0  0  0  0
   59.7013   -3.2132  -13.1292 C   0  0  0  0  0  0  0  0  0  0  0  0
   58.8120   -3.9756  -12.2689 N   0  0  0  0  0  0  0  0  0  0  0  0
   57.4066   -3.7718  -12.4145 C   0  0  0  0  0  0  0  0  0  0  0  0
   56.9519   -3.8600  -13.8559 C   0  0  0  0  0  0  0  0  0  0  0  0
   57.9275   -4.5952  -16.8283 H   0  0  0  0  0  0  0  0  0  0  0  0
   56.5866   -3.7032  -16.1741 H   0  0  0  0  0  0  0  0  0  0  0  0
 36 37  1  0  0  0
 37 38  1  0  0  0
 38 39  1  0  0  0
 39 40  1  0  0  0
 40 41  1  0  0  0
 41 42  1  0  0  0
 40 30  1  0  0  0
 30 31  2  0  0  0
 31 32  1  0  0  0
 32 33  2  0  0  0
 33 34  1  0  0  0
 34 35  2  0  0  0
 35 26  1  0  0  0
 26 27  1  0  0  0
 27 28  2  0  0  0
 27  1  1  0  0  0
  1  2  2  0  0  0
  2  3  1  0  0  0
  3  4  2  0  0  0
  4  5  1  0  0  0
  5  6  2  0  0  0
  6  7  1  0  0  0
  3 10  1  0  0  0
 10 11  2  0  0  0
 11 12  1  0  0  0
 12 13  2  0  0  0
 13 14  1  0  0  0
 14 15  2  0  0  0
 15 22  1  0  0  0
 22 23  1  0  0  0
 22 24  1  0  0  0
 22 25  1  0  0  0
 12 16  1  0  0  0
 16 17  1  0  0  0
 17 18  1  0  0  0
 18 19  1  0  0  0
 19 20  1  0  0  0
 20 21  1  0  0  0
 42 37  1  0  0  0
 35 30  1  0  0  0
  6  1  1  0  0  0
 15 10  1  0  0  0
 21 16  1  0  0  0
 36 43  1  0  0  0
 36 44  1  0  0  0
 26 29  1  0  0  0
  7  8  1  0  0  0
  7  9  1  0  0  0
M  END
> <minimizedAffinity>
-6.65658

> <CNNscore>
0.5503153205

> <CNNaffinity>
7.4213438034

> <CNN_VS>
4.0840792656

> <CNNaffinity_variance>
0.1153000146

$$$$
[H]c1nc(N([H])[H])c(C(=O)N([H])c2nc([H])c([H])c([H])c2N2C([H])([H])C([H])([H])C([H])(N([H])[H])C([H])([H])C2([H])[H])nc1-c1nc(N2C([H])([H])C([H])([H])OC([H])([H])C2([H])[H])c([H])c([H])c1C(F)(F)F


 44 48  0  0  0  0  0  0  0  0999 V2000
   54.2474   -4.3339   -7.9290 C   0  0  0  0  0  0  0  0  0  0  0  0
   55.2685   -4.4575   -8.7665 N   0  0  0  0  0  0  0  0  0  0  0  0
   55.2650   -3.9928  -10.0742 C   0  0  0  0  0  0  0  0  0  0  0  0
   54.1263   -3.3960  -10.4374 C   0  0  0  0  0  0  0  0  0  0  0  0
   53.0586   -3.2601   -9.5791 N   0  0  0  0  0  0  0  0  0  0  0  0
   53.0830   -3.7110   -8.3320 C   0  0  0  0  0  0  0  0  0  0  0  0
   51.9555   -3.5574   -7.4557 N   0  0  0  0  0  0  0  0  0  0  0  0
   51.2258   -4.2952   -7.4755 H   0  0  0  0  0  0  0  0  0  0  0  0
   51.8247   -2.7592   -6.8072 H   0  0  0  0  0  0  0  0  0  0  0  0
   56.5343   -4.1804  -10.7478 C   0  0  0  0  0  0  0  0  0  0  0  0
   56.5383   -3.8353  -12.0956 N   0  0  0  0  0  0  0  0  0  0  0  0
   57.5719   -3.9052  -12.8958 C   0  0  0  0  0  0  0  0  0  0  0  0
   58.7646   -4.3644  -12.3333 C   0  0  0  0  0  0  0  0  0  0  0  0
   58.8322   -4.7169  -11.0245 C   0  0  0  0  0  0  0  0  0  0  0  0
   57.6811   -4.6247  -10.1938 C   0  0  0  0  0  0  0  0  0  0  0  0
   57.5257   -3.5810  -14.2765 N   0  0  0  0  0  0  0  0  0  0  0  0
   56.2987   -3.6442  -14.9974 C   0  0  0  0  0  0  0  0  0  0  0  0
   56.4727   -4.2268  -16.3863 C   0  0  0  0  0  0  0  0  0  0  0  0
   57.8052   -4.2996  -16.7753 O   0  0  0  0  0  0  0  0  0  0  0  0
   58.4888   -3.1285  -16.4494 C   0  0  0  0  0  0  0  0  0  0  0  0
   58.7468   -3.1946  -14.9538 C   0  0  0  0  0  0  0  0  0  0  0  0
   57.8331   -4.9897   -8.7799 C   0  0  0  0  0  0  0  0  0  0  0  0
   59.2276   -5.4286   -8.7075 F   0  0  0  0  0  0  0  0  0  0  0  0
   57.2332   -6.1747   -8.4284 F   0  0  0  0  0  0  0  0  0  0  0  0
   57.7716   -3.9741   -7.8769 F   0  0  0  0  0  0  0  0  0  0  0  0
   53.3384   -5.6756   -5.9788 N   0  0  0  0  0  0  0  0  0  0  0  0
   54.2808   -4.8061   -6.5623 C   0  0  0  0  0  0  0  0  0  0  0  0
   55.2445   -4.3941   -5.8269 O   0  0  0  0  0  0  0  0  0  0  0  0
   52.5607   -6.0071   -6.5475 H   0  0  0  0  0  0  0  0  0  0  0  0
   52.4431   -6.4098   -3.8591 C   0  0  0  0  0  0  0  0  0  0  0  0
   52.6876   -6.9528   -2.5821 C   0  0  0  0  0  0  0  0  0  0  0  0
   53.9722   -7.1744   -2.1610 C   0  0  0  0  0  0  0  0  0  0  0  0
   55.0323   -6.8722   -2.9731 C   0  0  0  0  0  0  0  0  0  0  0  0
   54.7873   -6.3613   -4.1784 N   0  0  0  0  0  0  0  0  0  0  0  0
   53.5202   -6.1249   -4.6407 C   0  0  0  0  0  0  0  0  0  0  0  0
   48.9313   -2.8421   -5.2085 N   0  0  0  0  0  0  0  0  0  0  0  0
   49.9260   -3.8625   -4.8483 C   0  0  0  0  0  0  0  0  0  0  0  0
   49.6233   -4.3074   -3.4590 C   0  0  0  0  0  0  0  0  0  0  0  0
   50.2593   -5.6297   -3.0930 C   0  0  0  0  0  0  0  0  0  0  0  0
   51.1008   -6.1222   -4.1707 N   0  0  0  0  0  0  0  0  0  0  0  0
   50.5280   -6.2150   -5.4749 C   0  0  0  0  0  0  0  0  0  0  0  0
   49.8241   -4.9416   -5.8934 C   0  0  0  0  0  0  0  0  0  0  0  0
   49.2952   -1.8876   -5.0442 H   0  0  0  0  0  0  0  0  0  0  0  0
   48.5236   -2.9970   -6.1374 H   0  0  0  0  0  0  0  0  0  0  0  0
 36 37  1  0  0  0
 37 38  1  0  0  0
 38 39  1  0  0  0
 39 40  1  0  0  0
 40 41  1  0  0  0
 41 42  1  0  0  0
 40 30  1  0  0  0
 30 31  2  0  0  0
 31 32  1  0  0  0
 32 33  2  0  0  0
 33 34  1  0  0  0
 34 35  2  0  0  0
 35 26  1  0  0  0
 26 27  1  0  0  0
 27 28  2  0  0  0
 27  1  1  0  0  0
  1  2  2  0  0  0
  2  3  1  0  0  0
  3  4  2  0  0  0
  4  5  1  0  0  0
  5  6  2  0  0  0
  6  7  1  0  0  0
  3 10  1  0  0  0
 10 11  2  0  0  0
 11 12  1  0  0  0
 12 13  2  0  0  0
 13 14  1  0  0  0
 14 15  2  0  0  0
 15 22  1  0  0  0
 22 23  1  0  0  0
 22 24  1  0  0  0
 22 25  1  0  0  0
 12 16  1  0  0  0
 16 17  1  0  0  0
 17 18  1  0  0  0
 18 19  1  0  0  0
 19 20  1  0  0  0
 20 21  1  0  0  0
 42 37  1  0  0  0
 35 30  1  0  0  0
  6  1  1  0  0  0
 15 10  1  0  0  0
 21 16  1  0  0  0
 36 43  1  0  0  0
 36 44  1  0  0  0
 26 29  1  0  0  0
  7  8  1  0  0  0
  7  9  1  0  0  0
M  END
> <minimizedAffinity>
-9.28604

> <CNNscore>
0.2601171434

> <CNNaffinity>
7.4063897133

> <CNN_VS>
1.9265289307

> <CNNaffinity_variance>
0.0414863676

$$$$
[H]c1nc(N([H])[H])c(C(=O)N([H])c2nc([H])c([H])c([H])c2N2C([H])([H])C([H])([H])C([H])(N([H])[H])C([H])([H])C2([H])[H])nc1-c1nc(N2C([H])([H])C([H])([H])OC([H])([H])C2([H])[H])c([H])c([H])c1C(F)(F)F


 44 48  0  0  0  0  0  0  0  0999 V2000
   56.3268   -4.4288   -9.2544 C   0  0  0  0  0  0  0  0  0  0  0  0
   57.5263   -4.8505   -9.6321 N   0  0  0  0  0  0  0  0  0  0  0  0
   58.0117   -4.7603  -10.9292 C   0  0  0  0  0  0  0  0  0  0  0  0
   57.1586   -4.2026  -11.7928 C   0  0  0  0  0  0  0  0  0  0  0  0
   55.9110   -3.7599  -11.4152 N   0  0  0  0  0  0  0  0  0  0  0  0
   55.4665   -3.8550  -10.1692 C   0  0  0  0  0  0  0  0  0  0  0  0
   54.1601   -3.3860   -9.8000 N   0  0  0  0  0  0  0  0  0  0  0  0
   53.3651   -4.0455   -9.9010 H   0  0  0  0  0  0  0  0  0  0  0  0
   53.9616   -2.4341   -9.4405 H   0  0  0  0  0  0  0  0  0  0  0  0
   59.3811   -5.2171  -11.0570 C   0  0  0  0  0  0  0  0  0  0  0  0
   59.7736   -6.1613  -10.1136 N   0  0  0  0  0  0  0  0  0  0  0  0
   60.9531   -6.7251  -10.0465 C   0  0  0  0  0  0  0  0  0  0  0  0
   61.8841   -6.3371  -11.0122 C   0  0  0  0  0  0  0  0  0  0  0  0
   61.5679   -5.4218  -11.9629 C   0  0  0  0  0  0  0  0  0  0  0  0
   60.2723   -4.8354  -11.9949 C   0  0  0  0  0  0  0  0  0  0  0  0
   61.3281   -7.6560   -9.0435 N   0  0  0  0  0  0  0  0  0  0  0  0
   61.7027   -7.2119   -7.7429 C   0  0  0  0  0  0  0  0  0  0  0  0
   62.8822   -7.9840   -7.1849 C   0  0  0  0  0  0  0  0  0  0  0  0
   63.1602   -9.1375   -7.9090 O   0  0  0  0  0  0  0  0  0  0  0  0
   61.9906   -9.8316   -8.2175 C   0  0  0  0  0  0  0  0  0  0  0  0
   61.3385   -9.0701   -9.3589 C   0  0  0  0  0  0  0  0  0  0  0  0
   59.9866   -3.8780  -13.0706 C   0  0  0  0  0  0  0  0  0  0  0  0
   61.2056   -3.9273  -13.8793 F   0  0  0  0  0  0  0  0  0  0  0  0
   60.0518   -2.5586  -12.6929 F   0  0  0  0  0  0  0  0  0  0  0  0
   59.0070   -4.2215  -13.9498 F   0  0  0  0  0  0  0  0  0  0  0  0
   55.2106   -5.6306   -7.3206 N   0  0  0  0  0  0  0  0  0  0  0  0
   55.8494   -4.5124   -7.8917 C   0  0  0  0  0  0  0  0  0  0  0  0
   56.0201   -3.4825   -7.1503 O   0  0  0  0  0  0  0  0  0  0  0  0
   55.0597   -6.4560   -7.8986 H   0  0  0  0  0  0  0  0  0  0  0  0
   53.5427   -5.5130   -5.5777 C   0  0  0  0  0  0  0  0  0  0  0  0
   53.2390   -5.6126   -4.2053 C   0  0  0  0  0  0  0  0  0  0  0  0
   54.2398   -5.8023   -3.2892 C   0  0  0  0  0  0  0  0  0  0  0  0
   55.5444   -5.8974   -3.6940 C   0  0  0  0  0  0  0  0  0  0  0  0
   55.8175   -5.8035   -4.9941 N   0  0  0  0  0  0  0  0  0  0  0  0
   54.8493   -5.6157   -5.9441 C   0  0  0  0  0  0  0  0  0  0  0  0
   49.0391   -3.0373   -6.2633 N   0  0  0  0  0  0  0  0  0  0  0  0
   50.3266   -3.7231   -6.0834 C   0  0  0  0  0  0  0  0  0  0  0  0
   50.0509   -5.1870   -6.0595 C   0  0  0  0  0  0  0  0  0  0  0  0
   51.2741   -6.0392   -6.3132 C   0  0  0  0  0  0  0  0  0  0  0  0
   52.4674   -5.2189   -6.4371 N   0  0  0  0  0  0  0  0  0  0  0  0
   52.4396   -4.1378   -7.3688 C   0  0  0  0  0  0  0  0  0  0  0  0
   51.2122   -3.2654   -7.2118 C   0  0  0  0  0  0  0  0  0  0  0  0
   48.6421   -2.7384   -5.3558 H   0  0  0  0  0  0  0  0  0  0  0  0
   49.0770   -2.3059   -6.9822 H   0  0  0  0  0  0  0  0  0  0  0  0
 36 37  1  0  0  0
 37 38  1  0  0  0
 38 39  1  0  0  0
 39 40  1  0  0  0
 40 41  1  0  0  0
 41 42  1  0  0  0
 40 30  1  0  0  0
 30 31  2  0  0  0
 31 32  1  0  0  0
 32 33  2  0  0  0
 33 34  1  0  0  0
 34 35  2  0  0  0
 35 26  1  0  0  0
 26 27  1  0  0  0
 27 28  2  0  0  0
 27  1  1  0  0  0
  1  2  2  0  0  0
  2  3  1  0  0  0
  3  4  2  0  0  0
  4  5  1  0  0  0
  5  6  2  0  0  0
  6  7  1  0  0  0
  3 10  1  0  0  0
 10 11  2  0  0  0
 11 12  1  0  0  0
 12 13  2  0  0  0
 13 14  1  0  0  0
 14 15  2  0  0  0
 15 22  1  0  0  0
 22 23  1  0  0  0
 22 24  1  0  0  0
 22 25  1  0  0  0
 12 16  1  0  0  0
 16 17  1  0  0  0
 17 18  1  0  0  0
 18 19  1  0  0  0
 19 20  1  0  0  0
 20 21  1  0  0  0
 42 37  1  0  0  0
 35 30  1  0  0  0
  6  1  1  0  0  0
 15 10  1  0  0  0
 21 16  1  0  0  0
 36 43  1  0  0  0
 36 44  1  0  0  0
 26 29  1  0  0  0
  7  8  1  0  0  0
  7  9  1  0  0  0
M  END
> <minimizedAffinity>
-6.75486

> <CNNscore>
0.2239120752

> <CNNaffinity>
7.0736618042

> <CNN_VS>
1.5838782787

> <CNNaffinity_variance>
0.0752763003

$$$$
[H]c1nc(N([H])[H])c(C(=O)N([H])c2nc([H])c([H])c([H])c2N2C([H])([H])C([H])([H])C([H])(N([H])[H])C([H])([H])C2([H])[H])nc1-c1nc(N2C([H])([H])C([H])([H])OC([H])([H])C2([H])[H])c([H])c([H])c1C(F)(F)F


 44 48  0  0  0  0  0  0  0  0999 V2000
   61.1082   -6.4920   -8.5095 C   0  0  0  0  0  0  0  0  0  0  0  0
   59.8691   -6.0214   -8.4603 N   0  0  0  0  0  0  0  0  0  0  0  0
   59.1497   -5.6019   -9.5705 C   0  0  0  0  0  0  0  0  0  0  0  0
   59.8154   -5.7097  -10.7237 C   0  0  0  0  0  0  0  0  0  0  0  0
   61.1012   -6.1967  -10.7903 N   0  0  0  0  0  0  0  0  0  0  0  0
   61.7711   -6.5932   -9.7164 C   0  0  0  0  0  0  0  0  0  0  0  0
   63.1125   -7.0974   -9.8117 N   0  0  0  0  0  0  0  0  0  0  0  0
   63.8895   -6.4104   -9.7724 H   0  0  0  0  0  0  0  0  0  0  0  0
   63.3531   -8.1003   -9.9171 H   0  0  0  0  0  0  0  0  0  0  0  0
   57.7909   -5.2108   -9.2532 C   0  0  0  0  0  0  0  0  0  0  0  0
   57.3734   -5.5361   -7.9666 N   0  0  0  0  0  0  0  0  0  0  0  0
   56.1982   -5.2666   -7.4570 C   0  0  0  0  0  0  0  0  0  0  0  0
   55.2997   -4.5930   -8.2869 C   0  0  0  0  0  0  0  0  0  0  0  0
   55.6415   -4.2439   -9.5530 C   0  0  0  0  0  0  0  0  0  0  0  0
   56.9312   -4.5594  -10.0634 C   0  0  0  0  0  0  0  0  0  0  0  0
   55.7959   -5.6508   -6.1517 N   0  0  0  0  0  0  0  0  0  0  0  0
   56.7175   -6.2708   -5.2599 C   0  0  0  0  0  0  0  0  0  0  0  0
   56.0869   -7.3997   -4.4683 C   0  0  0  0  0  0  0  0  0  0  0  0
   54.6994   -7.4042   -4.5510 O   0  0  0  0  0  0  0  0  0  0  0  0
   54.1831   -6.1164   -4.4092 C   0  0  0  0  0  0  0  0  0  0  0  0
   54.4280   -5.4168   -5.7352 C   0  0  0  0  0  0  0  0  0  0  0  0
   57.2467   -4.1225  -11.4289 C   0  0  0  0  0  0  0  0  0  0  0  0
   55.9562   -3.6355  -11.9187 F   0  0  0  0  0  0  0  0  0  0  0  0
   57.4275   -5.1452  -12.3283 F   0  0  0  0  0  0  0  0  0  0  0  0
   58.0624   -3.0407  -11.5510 F   0  0  0  0  0  0  0  0  0  0  0  0
   61.3907   -7.9388   -6.4462 N   0  0  0  0  0  0  0  0  0  0  0  0
   61.8318   -6.9448   -7.3418 C   0  0  0  0  0  0  0  0  0  0  0  0
   62.9618   -6.3911   -7.1057 O   0  0  0  0  0  0  0  0  0  0  0  0
   60.4901   -8.3844   -6.6148 H   0  0  0  0  0  0  0  0  0  0  0  0
   62.9954   -9.4657   -5.4834 C   0  0  0  0  0  0  0  0  0  0  0  0
   63.8833   -9.7584   -4.4291 C   0  0  0  0  0  0  0  0  0  0  0  0
   63.9525   -8.9346   -3.3367 C   0  0  0  0  0  0  0  0  0  0  0  0
   63.1624   -7.8193   -3.2554 C   0  0  0  0  0  0  0  0  0  0  0  0
   62.3290   -7.5532   -4.2596 N   0  0  0  0  0  0  0  0  0  0  0  0
   62.2281   -8.3474   -5.3705 C   0  0  0  0  0  0  0  0  0  0  0  0
   61.5501  -10.5322  -10.3471 N   0  0  0  0  0  0  0  0  0  0  0  0
   61.9829  -10.2299   -8.9753 C   0  0  0  0  0  0  0  0  0  0  0  0
   61.1026  -10.9993   -8.0518 C   0  0  0  0  0  0  0  0  0  0  0  0
   61.6675  -11.1463   -6.6567 C   0  0  0  0  0  0  0  0  0  0  0  0
   62.9169  -10.4169   -6.5181 N   0  0  0  0  0  0  0  0  0  0  0  0
   63.9451  -10.6672   -7.4761 C   0  0  0  0  0  0  0  0  0  0  0  0
   63.4431  -10.5898   -8.9024 C   0  0  0  0  0  0  0  0  0  0  0  0
   60.8967   -9.8129  -10.7024 H   0  0  0  0  0  0  0  0  0  0  0  0
   62.3350  -10.7514  -10.9708 H   0  0  0  0  0  0  0  0  0  0  0  0
 36 37  1  0  0  0
 37 38  1  0  0  0
 38 39  1  0  0  0
 39 40  1  0  0  0
 40 41  1  0  0  0
 41 42  1  0  0  0
 40 30  1  0  0  0
 30 31  2  0  0  0
 31 32  1  0  0  0
 32 33  2  0  0  0
 33 34  1  0  0  0
 34 35  2  0  0  0
 35 26  1  0  0  0
 26 27  1  0  0  0
 27 28  2  0  0  0
 27  1  1  0  0  0
  1  2  2  0  0  0
  2  3  1  0  0  0
  3  4  2  0  0  0
  4  5  1  0  0  0
  5  6  2  0  0  0
  6  7  1  0  0  0
  3 10  1  0  0  0
 10 11  2  0  0  0
 11 12  1  0  0  0
 12 13  2  0  0  0
 13 14  1  0  0  0
 14 15  2  0  0  0
 15 22  1  0  0  0
 22 23  1  0  0  0
 22 24  1  0  0  0
 22 25  1  0  0  0
 12 16  1  0  0  0
 16 17  1  0  0  0
 17 18  1  0  0  0
 18 19  1  0  0  0
 19 20  1  0  0  0
 20 21  1  0  0  0
 42 37  1  0  0  0
 35 30  1  0  0  0
  6  1  1  0  0  0
 15 10  1  0  0  0
 21 16  1  0  0  0
 36 43  1  0  0  0
 36 44  1  0  0  0
 26 29  1  0  0  0
  7  8  1  0  0  0
  7  9  1  0  0  0
M  END
> <minimizedAffinity>
-7.39767

> <CNNscore>
0.1810106039

> <CNNaffinity>
5.7605853081

> <CNN_VS>
1.0427269936

> <CNNaffinity_variance>
0.6266072989

$$$$
[H]c1nc(N([H])[H])c(C(=O)N([H])c2nc([H])c([H])c([H])c2N2C([H])([H])C([H])([H])C([H])(N([H])[H])C([H])([H])C2([H])[H])nc1-c1nc(N2C([H])([H])C([H])([H])OC([H])([H])C2([H])[H])c([H])c([H])c1C(F)(F)F


 44 48  0  0  0  0  0  0  0  0999 V2000
   55.7137   -4.9797   -7.5268 C   0  0  0  0  0  0  0  0  0  0  0  0
   56.5240   -4.9341   -8.5760 N   0  0  0  0  0  0  0  0  0  0  0  0
   56.1174   -4.6044   -9.8613 C   0  0  0  0  0  0  0  0  0  0  0  0
   54.8144   -4.3292   -9.9670 C   0  0  0  0  0  0  0  0  0  0  0  0
   53.9618   -4.3718   -8.8871 N   0  0  0  0  0  0  0  0  0  0  0  0
   54.3713   -4.6888   -7.6660 C   0  0  0  0  0  0  0  0  0  0  0  0
   53.4617   -4.7269   -6.5551 N   0  0  0  0  0  0  0  0  0  0  0  0
   52.9545   -5.6149   -6.3778 H   0  0  0  0  0  0  0  0  0  0  0  0
   53.2803   -3.9267   -5.9215 H   0  0  0  0  0  0  0  0  0  0  0  0
   57.2136   -4.5472  -10.8075 C   0  0  0  0  0  0  0  0  0  0  0  0
   56.8827   -4.0310  -12.0563 N   0  0  0  0  0  0  0  0  0  0  0  0
   57.7111   -3.8699  -13.0569 C   0  0  0  0  0  0  0  0  0  0  0  0
   59.0360   -4.2511  -12.8354 C   0  0  0  0  0  0  0  0  0  0  0  0
   59.4283   -4.7609  -11.6405 C   0  0  0  0  0  0  0  0  0  0  0  0
   58.4908   -4.9182  -10.5823 C   0  0  0  0  0  0  0  0  0  0  0  0
   57.3259   -3.3760  -14.3301 N   0  0  0  0  0  0  0  0  0  0  0  0
   55.9495   -3.2502  -14.6750 C   0  0  0  0  0  0  0  0  0  0  0  0
   55.6704   -3.6699  -16.1049 C   0  0  0  0  0  0  0  0  0  0  0  0
   56.8288   -3.8025  -16.8618 O   0  0  0  0  0  0  0  0  0  0  0  0
   57.7026   -2.7398  -16.6339 C   0  0  0  0  0  0  0  0  0  0  0  0
   58.3506   -3.0098  -15.2866 C   0  0  0  0  0  0  0  0  0  0  0  0
   58.9897   -5.4439   -9.3056 C   0  0  0  0  0  0  0  0  0  0  0  0
   60.4268   -5.5761   -9.5500 F   0  0  0  0  0  0  0  0  0  0  0  0
   58.7033   -6.7690   -9.0826 F   0  0  0  0  0  0  0  0  0  0  0  0
   58.9245   -4.6086   -8.2338 F   0  0  0  0  0  0  0  0  0  0  0  0
   56.3696   -6.6070   -5.6961 N   0  0  0  0  0  0  0  0  0  0  0  0
   56.1632   -5.3042   -6.1910 C   0  0  0  0  0  0  0  0  0  0  0  0
   56.3861   -4.3247   -5.3971 O   0  0  0  0  0  0  0  0  0  0  0  0
   56.1897   -7.3985   -6.3120 H   0  0  0  0  0  0  0  0  0  0  0  0
   56.0416   -6.8165   -3.3124 C   0  0  0  0  0  0  0  0  0  0  0  0
   56.5955   -7.1133   -2.0512 C   0  0  0  0  0  0  0  0  0  0  0  0
   57.9369   -7.3635   -1.9284 C   0  0  0  0  0  0  0  0  0  0  0  0
   58.7542   -7.3289   -3.0264 C   0  0  0  0  0  0  0  0  0  0  0  0
   58.2176   -7.0491   -4.2127 N   0  0  0  0  0  0  0  0  0  0  0  0
   56.8828   -6.7943   -4.3819 C   0  0  0  0  0  0  0  0  0  0  0  0
   51.4944   -6.8171   -0.8214 N   0  0  0  0  0  0  0  0  0  0  0  0
   52.7853   -6.7932   -1.5238 C   0  0  0  0  0  0  0  0  0  0  0  0
   52.6805   -7.7290   -2.6784 C   0  0  0  0  0  0  0  0  0  0  0  0
   53.7381   -7.5082   -3.7366 C   0  0  0  0  0  0  0  0  0  0  0  0
   54.6762   -6.4747   -3.3317 N   0  0  0  0  0  0  0  0  0  0  0  0
   54.1445   -5.2153   -2.9208 C   0  0  0  0  0  0  0  0  0  0  0  0
   53.0389   -5.3566   -1.8962 C   0  0  0  0  0  0  0  0  0  0  0  0
   51.5124   -7.4758   -0.0237 H   0  0  0  0  0  0  0  0  0  0  0  0
   51.1464   -5.8774   -0.6003 H   0  0  0  0  0  0  0  0  0  0  0  0
 36 37  1  0  0  0
 37 38  1  0  0  0
 38 39  1  0  0  0
 39 40  1  0  0  0
 40 41  1  0  0  0
 41 42  1  0  0  0
 40 30  1  0  0  0
 30 31  2  0  0  0
 31 32  1  0  0  0
 32 33  2  0  0  0
 33 34  1  0  0  0
 34 35  2  0  0  0
 35 26  1  0  0  0
 26 27  1  0  0  0
 27 28  2  0  0  0
 27  1  1  0  0  0
  1  2  2  0  0  0
  2  3  1  0  0  0
  3  4  2  0  0  0
  4  5  1  0  0  0
  5  6  2  0  0  0
  6  7  1  0  0  0
  3 10  1  0  0  0
 10 11  2  0  0  0
 11 12  1  0  0  0
 12 13  2  0  0  0
 13 14  1  0  0  0
 14 15  2  0  0  0
 15 22  1  0  0  0
 22 23  1  0  0  0
 22 24  1  0  0  0
 22 25  1  0  0  0
 12 16  1  0  0  0
 16 17  1  0  0  0
 17 18  1  0  0  0
 18 19  1  0  0  0
 19 20  1  0  0  0
 20 21  1  0  0  0
 42 37  1  0  0  0
 35 30  1  0  0  0
  6  1  1  0  0  0
 15 10  1  0  0  0
 21 16  1  0  0  0
 36 43  1  0  0  0
 36 44  1  0  0  0
 26 29  1  0  0  0
  7  8  1  0  0  0
  7  9  1  0  0  0
M  END
> <minimizedAffinity>
-6.87402

> <CNNscore>
0.1713544130

> <CNNaffinity>
6.8871216774

> <CNN_VS>
1.1801387072

> <CNNaffinity_variance>
0.0869519264

$$$$
[H]c1nc(N([H])[H])c(C(=O)N([H])c2nc([H])c([H])c([H])c2N2C([H])([H])C([H])([H])C([H])(N([H])[H])C([H])([H])C2([H])[H])nc1-c1nc(N2C([H])([H])C([H])([H])OC([H])([H])C2([H])[H])c([H])c([H])c1C(F)(F)F


 44 48  0  0  0  0  0  0  0  0999 V2000
   60.4262   -6.3133   -8.6853 C   0  0  0  0  0  0  0  0  0  0  0  0
   59.2253   -5.9465   -8.2581 N   0  0  0  0  0  0  0  0  0  0  0  0
   58.2333   -5.4231   -9.0754 C   0  0  0  0  0  0  0  0  0  0  0  0
   58.5868   -5.3125  -10.3589 C   0  0  0  0  0  0  0  0  0  0  0  0
   59.8291   -5.6894  -10.8168 N   0  0  0  0  0  0  0  0  0  0  0  0
   60.7632   -6.1886  -10.0184 C   0  0  0  0  0  0  0  0  0  0  0  0
   62.0525   -6.5742  -10.5202 N   0  0  0  0  0  0  0  0  0  0  0  0
   62.7902   -5.8455  -10.5641 H   0  0  0  0  0  0  0  0  0  0  0  0
   62.2921   -7.5307  -10.8403 H   0  0  0  0  0  0  0  0  0  0  0  0
   56.9876   -5.1827   -8.3751 C   0  0  0  0  0  0  0  0  0  0  0  0
   56.9537   -5.6477   -7.0644 N   0  0  0  0  0  0  0  0  0  0  0  0
   55.9439   -5.5271   -6.2401 C   0  0  0  0  0  0  0  0  0  0  0  0
   54.8135   -4.8717   -6.7324 C   0  0  0  0  0  0  0  0  0  0  0  0
   54.7787   -4.3916   -8.0012 C   0  0  0  0  0  0  0  0  0  0  0  0
   55.9012   -4.5475   -8.8610 C   0  0  0  0  0  0  0  0  0  0  0  0
   55.9335   -6.0508   -4.9213 N   0  0  0  0  0  0  0  0  0  0  0  0
   57.1264   -6.5590   -4.3315 C   0  0  0  0  0  0  0  0  0  0  0  0
   56.8830   -7.8231   -3.5305 C   0  0  0  0  0  0  0  0  0  0  0  0
   55.5337   -8.0559   -3.2909 O   0  0  0  0  0  0  0  0  0  0  0  0
   54.8816   -6.8841   -2.9081 C   0  0  0  0  0  0  0  0  0  0  0  0
   54.6891   -6.0754   -4.1796 C   0  0  0  0  0  0  0  0  0  0  0  0
   55.8086   -3.9744  -10.2094 C   0  0  0  0  0  0  0  0  0  0  0  0
   54.4677   -3.3875  -10.2197 F   0  0  0  0  0  0  0  0  0  0  0  0
   55.6292   -4.8975  -11.2111 F   0  0  0  0  0  0  0  0  0  0  0  0
   56.6209   -2.9176  -10.4811 F   0  0  0  0  0  0  0  0  0  0  0  0
   61.2724   -8.0197   -7.0113 N   0  0  0  0  0  0  0  0  0  0  0  0
   61.4380   -6.8777   -7.8194 C   0  0  0  0  0  0  0  0  0  0  0  0
   62.5725   -6.2851   -7.7854 O   0  0  0  0  0  0  0  0  0  0  0  0
   60.3734   -8.4992   -7.0203 H   0  0  0  0  0  0  0  0  0  0  0  0
   63.2009   -9.4563   -6.7859 C   0  0  0  0  0  0  0  0  0  0  0  0
   64.3299   -9.8315   -6.0310 C   0  0  0  0  0  0  0  0  0  0  0  0
   64.5609   -9.2631   -4.8061 C   0  0  0  0  0  0  0  0  0  0  0  0
   63.7004   -8.3256   -4.3009 C   0  0  0  0  0  0  0  0  0  0  0  0
   62.6381   -7.9785   -5.0255 N   0  0  0  0  0  0  0  0  0  0  0  0
   62.3693   -8.5192   -6.2545 C   0  0  0  0  0  0  0  0  0  0  0  0
   64.8423  -13.1314  -10.0540 N   0  0  0  0  0  0  0  0  0  0  0  0
   64.3592  -12.1041   -9.1204 C   0  0  0  0  0  0  0  0  0  0  0  0
   64.5104  -10.7842   -9.7946 C   0  0  0  0  0  0  0  0  0  0  0  0
   63.6816   -9.6847   -9.1694 C   0  0  0  0  0  0  0  0  0  0  0  0
   62.9870  -10.1615   -7.9852 N   0  0  0  0  0  0  0  0  0  0  0  0
   62.1953  -11.3431   -8.1068 C   0  0  0  0  0  0  0  0  0  0  0  0
   62.9423  -12.4781   -8.7746 C   0  0  0  0  0  0  0  0  0  0  0  0
   65.8286  -13.3791   -9.8631 H   0  0  0  0  0  0  0  0  0  0  0  0
   64.2017  -13.9294  -10.1310 H   0  0  0  0  0  0  0  0  0  0  0  0
 36 37  1  0  0  0
 37 38  1  0  0  0
 38 39  1  0  0  0
 39 40  1  0  0  0
 40 41  1  0  0  0
 41 42  1  0  0  0
 40 30  1  0  0  0
 30 31  2  0  0  0
 31 32  1  0  0  0
 32 33  2  0  0  0
 33 34  1  0  0  0
 34 35  2  0  0  0
 35 26  1  0  0  0
 26 27  1  0  0  0
 27 28  2  0  0  0
 27  1  1  0  0  0
  1  2  2  0  0  0
  2  3  1  0  0  0
  3  4  2  0  0  0
  4  5  1  0  0  0
  5  6  2  0  0  0
  6  7  1  0  0  0
  3 10  1  0  0  0
 10 11  2  0  0  0
 11 12  1  0  0  0
 12 13  2  0  0  0
 13 14  1  0  0  0
 14 15  2  0  0  0
 15 22  1  0  0  0
 22 23  1  0  0  0
 22 24  1  0  0  0
 22 25  1  0  0  0
 12 16  1  0  0  0
 16 17  1  0  0  0
 17 18  1  0  0  0
 18 19  1  0  0  0
 19 20  1  0  0  0
 20 21  1  0  0  0
 42 37  1  0  0  0
 35 30  1  0  0  0
  6  1  1  0  0  0
 15 10  1  0  0  0
 21 16  1  0  0  0
 36 43  1  0  0  0
 36 44  1  0  0  0
 26 29  1  0  0  0
  7  8  1  0  0  0
  7  9  1  0  0  0
M  END
> <minimizedAffinity>
-6.92606

> <CNNscore>
0.1557681561

> <CNNaffinity>
5.9218583107

> <CNN_VS>
0.9224369526

> <CNNaffinity_variance>
0.2465355098

$$$$
[H]c1nc(N([H])[H])c(C(=O)N([H])c2nc([H])c([H])c([H])c2N2C([H])([H])C([H])([H])C([H])(N([H])[H])C([H])([H])C2([H])[H])nc1-c1nc(N2C([H])([H])C([H])([H])OC([H])([H])C2([H])[H])c([H])c([H])c1C(F)(F)F


 44 48  0  0  0  0  0  0  0  0999 V2000
   59.1377   -5.5430   -9.3820 C   0  0  0  0  0  0  0  0  0  0  0  0
   58.1434   -5.5065   -8.5048 N   0  0  0  0  0  0  0  0  0  0  0  0
   56.8653   -5.0493   -8.7937 C   0  0  0  0  0  0  0  0  0  0  0  0
   56.7060   -4.6372  -10.0544 C   0  0  0  0  0  0  0  0  0  0  0  0
   57.7283   -4.6697  -10.9757 N   0  0  0  0  0  0  0  0  0  0  0  0
   58.9432   -5.1115  -10.6789 C   0  0  0  0  0  0  0  0  0  0  0  0
   59.9938   -5.1349  -11.6580 N   0  0  0  0  0  0  0  0  0  0  0  0
   60.5705   -4.2789  -11.7665 H   0  0  0  0  0  0  0  0  0  0  0  0
   60.2117   -5.9496  -12.2610 H   0  0  0  0  0  0  0  0  0  0  0  0
   55.9452   -5.1934   -7.6834 C   0  0  0  0  0  0  0  0  0  0  0  0
   56.3931   -6.0167   -6.6552 N   0  0  0  0  0  0  0  0  0  0  0  0
   55.7408   -6.2779   -5.5507 C   0  0  0  0  0  0  0  0  0  0  0  0
   54.4924   -5.6692   -5.4064 C   0  0  0  0  0  0  0  0  0  0  0  0
   53.9949   -4.8532   -6.3699 C   0  0  0  0  0  0  0  0  0  0  0  0
   54.7408   -4.5998   -7.5544 C   0  0  0  0  0  0  0  0  0  0  0  0
   56.2149   -7.1557   -4.5418 N   0  0  0  0  0  0  0  0  0  0  0  0
   55.3282   -8.0595   -3.8890 C   0  0  0  0  0  0  0  0  0  0  0  0
   55.5992   -8.1629   -2.4008 C   0  0  0  0  0  0  0  0  0  0  0  0
   56.8170   -7.6007   -2.0361 O   0  0  0  0  0  0  0  0  0  0  0  0
   57.8258   -7.9645   -2.9277 C   0  0  0  0  0  0  0  0  0  0  0  0
   57.6148   -7.1163   -4.1702 C   0  0  0  0  0  0  0  0  0  0  0  0
   54.1586   -3.6806   -8.5399 C   0  0  0  0  0  0  0  0  0  0  0  0
   52.8737   -3.3284   -7.9338 F   0  0  0  0  0  0  0  0  0  0  0  0
   53.6823   -4.2886   -9.6762 F   0  0  0  0  0  0  0  0  0  0  0  0
   54.7775   -2.4792   -8.6950 F   0  0  0  0  0  0  0  0  0  0  0  0
   61.4265   -6.4363  -10.0092 N   0  0  0  0  0  0  0  0  0  0  0  0
   60.4568   -6.0446   -9.0653 C   0  0  0  0  0  0  0  0  0  0  0  0
   60.7609   -6.1423   -7.8254 O   0  0  0  0  0  0  0  0  0  0  0  0
   61.1985   -6.3724  -11.0002 H   0  0  0  0  0  0  0  0  0  0  0  0
   63.0031   -8.1700   -9.4241 C   0  0  0  0  0  0  0  0  0  0  0  0
   64.3277   -8.5191   -9.0941 C   0  0  0  0  0  0  0  0  0  0  0  0
   65.2771   -7.5453   -8.9292 C   0  0  0  0  0  0  0  0  0  0  0  0
   64.9523   -6.2241   -9.0827 C   0  0  0  0  0  0  0  0  0  0  0  0
   63.6972   -5.9079   -9.3966 N   0  0  0  0  0  0  0  0  0  0  0  0
   62.7170   -6.8478   -9.5724 C   0  0  0  0  0  0  0  0  0  0  0  0
   62.1198  -13.2557   -8.9373 N   0  0  0  0  0  0  0  0  0  0  0  0
   62.3588  -11.8102   -9.0544 C   0  0  0  0  0  0  0  0  0  0  0  0
   62.1934  -11.4472  -10.4898 C   0  0  0  0  0  0  0  0  0  0  0  0
   61.9789   -9.9682  -10.7210 C   0  0  0  0  0  0  0  0  0  0  0  0
   62.0721   -9.2245   -9.4759 N   0  0  0  0  0  0  0  0  0  0  0  0
   61.2663   -9.6561   -8.3794 C   0  0  0  0  0  0  0  0  0  0  0  0
   61.3871  -11.1425   -8.1179 C   0  0  0  0  0  0  0  0  0  0  0  0
   63.0075  -13.7868   -8.9604 H   0  0  0  0  0  0  0  0  0  0  0  0
   61.4931  -13.4918   -8.1597 H   0  0  0  0  0  0  0  0  0  0  0  0
 36 37  1  0  0  0
 37 38  1  0  0  0
 38 39  1  0  0  0
 39 40  1  0  0  0
 40 41  1  0  0  0
 41 42  1  0  0  0
 40 30  1  0  0  0
 30 31  2  0  0  0
 31 32  1  0  0  0
 32 33  2  0  0  0
 33 34  1  0  0  0
 34 35  2  0  0  0
 35 26  1  0  0  0
 26 27  1  0  0  0
 27 28  2  0  0  0
 27  1  1  0  0  0
  1  2  2  0  0  0
  2  3  1  0  0  0
  3  4  2  0  0  0
  4  5  1  0  0  0
  5  6  2  0  0  0
  6  7  1  0  0  0
  3 10  1  0  0  0
 10 11  2  0  0  0
 11 12  1  0  0  0
 12 13  2  0  0  0
 13 14  1  0  0  0
 14 15  2  0  0  0
 15 22  1  0  0  0
 22 23  1  0  0  0
 22 24  1  0  0  0
 22 25  1  0  0  0
 12 16  1  0  0  0
 16 17  1  0  0  0
 17 18  1  0  0  0
 18 19  1  0  0  0
 19 20  1  0  0  0
 20 21  1  0  0  0
 42 37  1  0  0  0
 35 30  1  0  0  0
  6  1  1  0  0  0
 15 10  1  0  0  0
 21 16  1  0  0  0
 36 43  1  0  0  0
 36 44  1  0  0  0
 26 29  1  0  0  0
  7  8  1  0  0  0
  7  9  1  0  0  0
M  END
> <minimizedAffinity>
-7.35078

> <CNNscore>
0.1325427294

> <CNNaffinity>
6.0078525543

> <CNN_VS>
0.7962971926

> <CNNaffinity_variance>
0.3065505028

$$$$
[H]OP(=O)(O[H])C(F)(F)c1c([H])c(-c2c([H])c([H])c(-c3c(C([H])([H])c4c([H])c([H])c([H])c([H])c4[H])sc4c([H])c([H])c([H])c([H])c34)c([H])c2[H])c([H])c([H])c1F


 38 42  0  0  0  0  0  0  0  0999 V2000
   59.9857   -3.1426  -13.1005 C   0  0  0  0  0  0  0  0  0  0  0  0
   59.0590   -4.0694  -13.5838 C   0  0  0  0  0  0  0  0  0  0  0  0
   57.8976   -4.2789  -12.8899 C   0  0  0  0  0  0  0  0  0  0  0  0
   57.6008   -3.6092  -11.7247 C   0  0  0  0  0  0  0  0  0  0  0  0
   58.5111   -2.6985  -11.2500 C   0  0  0  0  0  0  0  0  0  0  0  0
   59.6791   -2.4876  -11.9480 C   0  0  0  0  0  0  0  0  0  0  0  0
   56.3099   -3.8865  -11.0125 C   0  0  0  0  0  0  0  0  0  0  0  0
   55.1341   -3.5657  -11.6375 C   0  0  0  0  0  0  0  0  0  0  0  0
   53.9468   -4.0275  -10.5115 S   0  0  0  0  0  0  0  0  0  0  0  0
   54.9566   -4.6181   -9.2706 C   0  0  0  0  0  0  0  0  0  0  0  0
   54.7376   -5.1801   -7.9971 C   0  0  0  0  0  0  0  0  0  0  0  0
   55.7879   -5.5731   -7.2021 C   0  0  0  0  0  0  0  0  0  0  0  0
   57.0535   -5.3866   -7.7195 C   0  0  0  0  0  0  0  0  0  0  0  0
   57.2905   -4.8433   -8.9520 C   0  0  0  0  0  0  0  0  0  0  0  0
   56.2133   -4.4371   -9.7739 C   0  0  0  0  0  0  0  0  0  0  0  0
   54.9697   -2.9476  -13.0096 C   0  0  0  0  0  0  0  0  0  0  0  0
   55.5279   -3.8808  -13.9993 C   0  0  0  0  0  0  0  0  0  0  0  0
   55.5673   -5.2401  -13.7952 C   0  0  0  0  0  0  0  0  0  0  0  0
   56.1133   -6.0570  -14.7794 C   0  0  0  0  0  0  0  0  0  0  0  0
   56.6122   -5.4906  -15.9559 C   0  0  0  0  0  0  0  0  0  0  0  0
   56.5709   -4.1201  -16.1583 C   0  0  0  0  0  0  0  0  0  0  0  0
   56.0279   -3.3149  -15.1783 C   0  0  0  0  0  0  0  0  0  0  0  0
   63.4070   -1.9915  -14.1385 C   0  0  0  0  0  0  0  0  0  0  0  0
   62.2558   -2.1648  -13.4098 C   0  0  0  0  0  0  0  0  0  0  0  0
   61.2055   -2.9503  -13.8649 C   0  0  0  0  0  0  0  0  0  0  0  0
   61.3368   -3.5679  -15.0864 C   0  0  0  0  0  0  0  0  0  0  0  0
   62.4843   -3.4231  -15.8623 C   0  0  0  0  0  0  0  0  0  0  0  0
   63.5014   -2.6248  -15.3543 C   0  0  0  0  0  0  0  0  0  0  0  0
   64.6143   -2.4950  -16.1249 F   0  0  0  0  0  0  0  0  0  0  0  0
   64.5224   -1.1547  -13.6435 C   0  0  0  0  0  0  0  0  0  0  0  0
   65.7177   -1.5690  -14.2097 F   0  0  0  0  0  0  0  0  0  0  0  0
   64.6662   -1.3066  -12.2577 F   0  0  0  0  0  0  0  0  0  0  0  0
   65.7364    1.4273  -13.6075 O   0  0  0  0  0  0  0  0  0  0  0  0
   64.3114    0.5927  -13.9751 P   0  0  0  0  0  0  0  0  0  0  0  0
   64.0096    0.7912  -15.6438 O   0  0  0  0  0  0  0  0  0  0  0  0
   63.1727    1.1884  -13.1773 O   0  0  0  0  0  0  0  0  0  0  0  0
   66.2476    0.8609  -12.9595 H   0  0  0  0  0  0  0  0  0  0  0  0
   64.5711    1.5205  -16.0027 H   0  0  0  0  0  0  0  0  0  0  0  0
 33 34  1  0  0  0
 34 35  1  0  0  0
 34 36  2  0  0  0
 34 30  1  0  0  0
 30 31  1  0  0  0
 30 32  1  0  0  0
 30 23  1  0  0  0
 23 24  2  0  0  0
 24 25  1  0  0  0
 25 26  2  0  0  0
 26 27  1  0  0  0
 27 28  2  0  0  0
 28 29  1  0  0  0
 25  1  1  0  0  0
  1  2  2  0  0  0
  2  3  1  0  0  0
  3  4  2  0  0  0
  4  5  1  0  0  0
  5  6  2  0  0  0
  4  7  1  0  0  0
  7  8  2  0  0  0
  8 16  1  0  0  0
 16 17  1  0  0  0
 17 18  2  0  0  0
 18 19  1  0  0  0
 19 20  2  0  0  0
 20 21  1  0  0  0
 21 22  2  0  0  0
  8  9  1  0  0  0
  9 10  1  0  0  0
 10 11  2  0  0  0
 11 12  1  0  0  0
 12 13  2  0  0  0
 13 14  1  0  0  0
 14 15  2  0  0  0
 28 23  1  0  0  0
  6  1  1  0  0  0
 15  7  1  0  0  0
 22 17  1  0  0  0
 15 10  1  0  0  0
 33 37  1  0  0  0
 35 38  1  0  0  0
M  END
> <minimizedAffinity>
4.79736

> <CNNscore>
0.5412283540

> <CNNaffinity>
5.8647680283

> <CNN_VS>
3.1741788387

> <CNNaffinity_variance>
0.5063859820

$$$$
[H]OP(=O)(O[H])C(F)(F)c1c([H])c(-c2c([H])c([H])c(-c3c(C([H])([H])c4c([H])c([H])c([H])c([H])c4[H])sc4c([H])c([H])c([H])c([H])c34)c([H])c2[H])c([H])c([H])c1F


 38 42  0  0  0  0  0  0  0  0999 V2000
   56.8371   -4.3738  -10.9182 C   0  0  0  0  0  0  0  0  0  0  0  0
   55.4833   -4.1118  -10.6947 C   0  0  0  0  0  0  0  0  0  0  0  0
   54.9363   -4.4101   -9.4757 C   0  0  0  0  0  0  0  0  0  0  0  0
   55.6698   -4.9629   -8.4507 C   0  0  0  0  0  0  0  0  0  0  0  0
   56.9998   -5.2200   -8.6702 C   0  0  0  0  0  0  0  0  0  0  0  0
   57.5502   -4.9197   -9.8961 C   0  0  0  0  0  0  0  0  0  0  0  0
   55.0084   -5.2664   -7.1388 C   0  0  0  0  0  0  0  0  0  0  0  0
   53.6786   -4.9733   -6.9915 C   0  0  0  0  0  0  0  0  0  0  0  0
   53.3392   -5.4579   -5.3975 S   0  0  0  0  0  0  0  0  0  0  0  0
   54.8834   -6.0226   -4.9449 C   0  0  0  0  0  0  0  0  0  0  0  0
   55.4295   -6.5858   -3.7743 C   0  0  0  0  0  0  0  0  0  0  0  0
   56.7526   -6.9533   -3.7111 C   0  0  0  0  0  0  0  0  0  0  0  0
   57.5043   -6.7404   -4.8486 C   0  0  0  0  0  0  0  0  0  0  0  0
   56.9966   -6.1957   -5.9957 C   0  0  0  0  0  0  0  0  0  0  0  0
   55.6358   -5.8156   -6.0657 C   0  0  0  0  0  0  0  0  0  0  0  0
   52.7591   -4.3629   -8.0276 C   0  0  0  0  0  0  0  0  0  0  0  0
   51.5724   -3.8421   -7.3330 C   0  0  0  0  0  0  0  0  0  0  0  0
   50.9090   -4.5567   -6.3635 C   0  0  0  0  0  0  0  0  0  0  0  0
   49.7923   -3.9954   -5.7534 C   0  0  0  0  0  0  0  0  0  0  0  0
   49.3606   -2.7205   -6.1306 C   0  0  0  0  0  0  0  0  0  0  0  0
   50.0318   -2.0030   -7.1082 C   0  0  0  0  0  0  0  0  0  0  0  0
   51.1390   -2.5652   -7.7096 C   0  0  0  0  0  0  0  0  0  0  0  0
   59.2068   -3.3624  -13.6513 C   0  0  0  0  0  0  0  0  0  0  0  0
   58.7026   -3.6693  -12.4112 C   0  0  0  0  0  0  0  0  0  0  0  0
   57.3789   -4.0440  -12.2247 C   0  0  0  0  0  0  0  0  0  0  0  0
   56.5586   -4.1050  -13.3266 C   0  0  0  0  0  0  0  0  0  0  0  0
   57.0229   -3.8034  -14.6046 C   0  0  0  0  0  0  0  0  0  0  0  0
   58.3567   -3.4349  -14.7283 C   0  0  0  0  0  0  0  0  0  0  0  0
   58.7928   -3.1445  -15.9832 F   0  0  0  0  0  0  0  0  0  0  0  0
   60.6201   -2.9671  -13.8403 C   0  0  0  0  0  0  0  0  0  0  0  0
   61.0238   -2.1317  -12.8107 F   0  0  0  0  0  0  0  0  0  0  0  0
   60.7654   -2.2341  -15.0260 F   0  0  0  0  0  0  0  0  0  0  0  0
   61.6860   -5.0613  -15.4588 O   0  0  0  0  0  0  0  0  0  0  0  0
   61.7491   -4.3549  -13.9228 P   0  0  0  0  0  0  0  0  0  0  0  0
   63.3363   -3.7724  -13.6845 O   0  0  0  0  0  0  0  0  0  0  0  0
   61.4317   -5.4075  -12.8839 O   0  0  0  0  0  0  0  0  0  0  0  0
   60.8044   -4.8091  -15.8601 H   0  0  0  0  0  0  0  0  0  0  0  0
   63.9417   -4.1583  -14.3633 H   0  0  0  0  0  0  0  0  0  0  0  0
 33 34  1  0  0  0
 34 35  1  0  0  0
 34 36  2  0  0  0
 34 30  1  0  0  0
 30 31  1  0  0  0
 30 32  1  0  0  0
 30 23  1  0  0  0
 23 24  2  0  0  0
 24 25  1  0  0  0
 25 26  2  0  0  0
 26 27  1  0  0  0
 27 28  2  0  0  0
 28 29  1  0  0  0
 25  1  1  0  0  0
  1  2  2  0  0  0
  2  3  1  0  0  0
  3  4  2  0  0  0
  4  5  1  0  0  0
  5  6  2  0  0  0
  4  7  1  0  0  0
  7  8  2  0  0  0
  8 16  1  0  0  0
 16 17  1  0  0  0
 17 18  2  0  0  0
 18 19  1  0  0  0
 19 20  2  0  0  0
 20 21  1  0  0  0
 21 22  2  0  0  0
  8  9  1  0  0  0
  9 10  1  0  0  0
 10 11  2  0  0  0
 11 12  1  0  0  0
 12 13  2  0  0  0
 13 14  1  0  0  0
 14 15  2  0  0  0
 28 23  1  0  0  0
  6  1  1  0  0  0
 15  7  1  0  0  0
 22 17  1  0  0  0
 15 10  1  0  0  0
 33 37  1  0  0  0
 35 38  1  0  0  0
M  END
> <minimizedAffinity>
-10.40068

> <CNNscore>
0.5209458470

> <CNNaffinity>
7.1122350693

> <CNN_VS>
3.7050893307

> <CNNaffinity_variance>
0.2182042599

$$$$
[H]OP(=O)(O[H])C(F)(F)c1c([H])c(-c2c([H])c([H])c(-c3c(C([H])([H])c4c([H])c([H])c([H])c([H])c4[H])sc4c([H])c([H])c([H])c([H])c34)c([H])c2[H])c([H])c([H])c1F


 38 42  0  0  0  0  0  0  0  0999 V2000
   52.4163   -3.7997   -7.2827 C   0  0  0  0  0  0  0  0  0  0  0  0
   52.8512   -4.9686   -6.6535 C   0  0  0  0  0  0  0  0  0  0  0  0
   54.1479   -5.3751   -6.8190 C   0  0  0  0  0  0  0  0  0  0  0  0
   55.0506   -4.6749   -7.5865 C   0  0  0  0  0  0  0  0  0  0  0  0
   54.6235   -3.5265   -8.2045 C   0  0  0  0  0  0  0  0  0  0  0  0
   53.3193   -3.1174   -8.0378 C   0  0  0  0  0  0  0  0  0  0  0  0
   56.4576   -5.1761   -7.7273 C   0  0  0  0  0  0  0  0  0  0  0  0
   57.0554   -5.7650   -6.6448 C   0  0  0  0  0  0  0  0  0  0  0  0
   58.6031   -6.1729   -7.2187 S   0  0  0  0  0  0  0  0  0  0  0  0
   58.4679   -5.5924   -8.8165 C   0  0  0  0  0  0  0  0  0  0  0  0
   59.3259   -5.5545   -9.9337 C   0  0  0  0  0  0  0  0  0  0  0  0
   58.9191   -5.0037  -11.1256 C   0  0  0  0  0  0  0  0  0  0  0  0
   57.6362   -4.4966  -11.1619 C   0  0  0  0  0  0  0  0  0  0  0  0
   56.7859   -4.5220  -10.0911 C   0  0  0  0  0  0  0  0  0  0  0  0
   57.1998   -5.0874   -8.8623 C   0  0  0  0  0  0  0  0  0  0  0  0
   56.4486   -5.9848   -5.2754 C   0  0  0  0  0  0  0  0  0  0  0  0
   57.3130   -6.9188   -4.5389 C   0  0  0  0  0  0  0  0  0  0  0  0
   58.6538   -7.0576   -4.8105 C   0  0  0  0  0  0  0  0  0  0  0  0
   59.4044   -7.9645   -4.0700 C   0  0  0  0  0  0  0  0  0  0  0  0
   58.7911   -8.7190   -3.0658 C   0  0  0  0  0  0  0  0  0  0  0  0
   57.4394   -8.5766   -2.7947 C   0  0  0  0  0  0  0  0  0  0  0  0
   56.7001   -7.6751   -3.5326 C   0  0  0  0  0  0  0  0  0  0  0  0
   49.1456   -2.9462   -5.6451 C   0  0  0  0  0  0  0  0  0  0  0  0
   50.4534   -3.3252   -5.8242 C   0  0  0  0  0  0  0  0  0  0  0  0
   51.0335   -3.4033   -7.0830 C   0  0  0  0  0  0  0  0  0  0  0  0
   50.2608   -3.0881   -8.1760 C   0  0  0  0  0  0  0  0  0  0  0  0
   48.9301   -2.6983   -8.0460 C   0  0  0  0  0  0  0  0  0  0  0  0
   48.4054   -2.6387   -6.7611 C   0  0  0  0  0  0  0  0  0  0  0  0
   47.1049   -2.2558   -6.6530 F   0  0  0  0  0  0  0  0  0  0  0  0
   48.5372   -2.8630   -4.2988 C   0  0  0  0  0  0  0  0  0  0  0  0
   47.6064   -1.8368   -4.2582 F   0  0  0  0  0  0  0  0  0  0  0  0
   49.5133   -2.5511   -3.3427 F   0  0  0  0  0  0  0  0  0  0  0  0
   46.0566   -4.2099   -3.8821 O   0  0  0  0  0  0  0  0  0  0  0  0
   47.7368   -4.3780   -3.7775 P   0  0  0  0  0  0  0  0  0  0  0  0
   48.2007   -5.6267   -4.8455 O   0  0  0  0  0  0  0  0  0  0  0  0
   48.1060   -4.7566   -2.3604 O   0  0  0  0  0  0  0  0  0  0  0  0
   45.8589   -3.2291   -3.8526 H   0  0  0  0  0  0  0  0  0  0  0  0
   47.4062   -6.1442   -5.1233 H   0  0  0  0  0  0  0  0  0  0  0  0
 33 34  1  0  0  0
 34 35  1  0  0  0
 34 36  2  0  0  0
 34 30  1  0  0  0
 30 31  1  0  0  0
 30 32  1  0  0  0
 30 23  1  0  0  0
 23 24  2  0  0  0
 24 25  1  0  0  0
 25 26  2  0  0  0
 26 27  1  0  0  0
 27 28  2  0  0  0
 28 29  1  0  0  0
 25  1  1  0  0  0
  1  2  2  0  0  0
  2  3  1  0  0  0
  3  4  2  0  0  0
  4  5  1  0  0  0
  5  6  2  0  0  0
  4  7  1  0  0  0
  7  8  2  0  0  0
  8 16  1  0  0  0
 16 17  1  0  0  0
 17 18  2  0  0  0
 18 19  1  0  0  0
 19 20  2  0  0  0
 20 21  1  0  0  0
 21 22  2  0  0  0
  8  9  1  0  0  0
  9 10  1  0  0  0
 10 11  2  0  0  0
 11 12  1  0  0  0
 12 13  2  0  0  0
 13 14  1  0  0  0
 14 15  2  0  0  0
 28 23  1  0  0  0
  6  1  1  0  0  0
 15  7  1  0  0  0
 22 17  1  0  0  0
 15 10  1  0  0  0
 33 37  1  0  0  0
 35 38  1  0  0  0
M  END
> <minimizedAffinity>
0.46564

> <CNNscore>
0.5134032369

> <CNNaffinity>
7.0747289658

> <CNN_VS>
3.6321887970

> <CNNaffinity_variance>
1.1932562590

$$$$
[H]OP(=O)(O[H])C(F)(F)c1c([H])c(-c2c([H])c([H])c(-c3c(C([H])([H])c4c([H])c([H])c([H])c([H])c4[H])sc4c([H])c([H])c([H])c([H])c34)c([H])c2[H])c([H])c([H])c1F


 38 42  0  0  0  0  0  0  0  0999 V2000
   53.4565   -3.9513   -7.9317 C   0  0  0  0  0  0  0  0  0  0  0  0
   54.0349   -5.2119   -7.7655 C   0  0  0  0  0  0  0  0  0  0  0  0
   55.2779   -5.4519   -8.2866 C   0  0  0  0  0  0  0  0  0  0  0  0
   55.9893   -4.4954   -8.9744 C   0  0  0  0  0  0  0  0  0  0  0  0
   55.4211   -3.2569   -9.1376 C   0  0  0  0  0  0  0  0  0  0  0  0
   54.1710   -3.0152   -8.6132 C   0  0  0  0  0  0  0  0  0  0  0  0
   57.3471   -4.8242   -9.5209 C   0  0  0  0  0  0  0  0  0  0  0  0
   58.2142   -5.5382   -8.7371 C   0  0  0  0  0  0  0  0  0  0  0  0
   59.6011   -5.6840   -9.7099 S   0  0  0  0  0  0  0  0  0  0  0  0
   59.0612   -4.8404  -11.0901 C   0  0  0  0  0  0  0  0  0  0  0  0
   59.6270   -4.5185  -12.3399 C   0  0  0  0  0  0  0  0  0  0  0  0
   58.9213   -3.8035  -13.2782 C   0  0  0  0  0  0  0  0  0  0  0  0
   57.6416   -3.4249  -12.9271 C   0  0  0  0  0  0  0  0  0  0  0  0
   57.0716   -3.7254  -11.7208 C   0  0  0  0  0  0  0  0  0  0  0  0
   57.7937   -4.4607  -10.7518 C   0  0  0  0  0  0  0  0  0  0  0  0
   57.9613   -6.0595   -7.3385 C   0  0  0  0  0  0  0  0  0  0  0  0
   59.2021   -6.6812   -6.8529 C   0  0  0  0  0  0  0  0  0  0  0  0
   60.3574   -6.7084   -7.5981 C   0  0  0  0  0  0  0  0  0  0  0  0
   61.4903   -7.3174   -7.0691 C   0  0  0  0  0  0  0  0  0  0  0  0
   61.4413   -7.8908   -5.7953 C   0  0  0  0  0  0  0  0  0  0  0  0
   60.2751   -7.8616   -5.0469 C   0  0  0  0  0  0  0  0  0  0  0  0
   59.1546   -7.2557   -5.5771 C   0  0  0  0  0  0  0  0  0  0  0  0
   50.2807   -4.4439   -5.9877 C   0  0  0  0  0  0  0  0  0  0  0  0
   51.5282   -4.6565   -6.5213 C   0  0  0  0  0  0  0  0  0  0  0  0
   52.1365   -3.7372   -7.3652 C   0  0  0  0  0  0  0  0  0  0  0  0
   51.4554   -2.5815   -7.6673 C   0  0  0  0  0  0  0  0  0  0  0  0
   50.1886   -2.3202   -7.1511 C   0  0  0  0  0  0  0  0  0  0  0  0
   49.6314   -3.2773   -6.3124 C   0  0  0  0  0  0  0  0  0  0  0  0
   48.3944   -3.0052   -5.8173 F   0  0  0  0  0  0  0  0  0  0  0  0
   49.6419   -5.4285   -5.0865 C   0  0  0  0  0  0  0  0  0  0  0  0
   50.4280   -6.5657   -4.9881 F   0  0  0  0  0  0  0  0  0  0  0  0
   48.4105   -5.8418   -5.6128 F   0  0  0  0  0  0  0  0  0  0  0  0
   50.2244   -5.6970   -2.3062 O   0  0  0  0  0  0  0  0  0  0  0  0
   49.3396   -4.8013   -3.4364 P   0  0  0  0  0  0  0  0  0  0  0  0
   49.8907   -3.1869   -3.3649 O   0  0  0  0  0  0  0  0  0  0  0  0
   47.8736   -4.8557   -3.0681 O   0  0  0  0  0  0  0  0  0  0  0  0
   50.4258   -6.5821   -2.7283 H   0  0  0  0  0  0  0  0  0  0  0  0
   50.4263   -3.0502   -2.5460 H   0  0  0  0  0  0  0  0  0  0  0  0
 33 34  1  0  0  0
 34 35  1  0  0  0
 34 36  2  0  0  0
 34 30  1  0  0  0
 30 31  1  0  0  0
 30 32  1  0  0  0
 30 23  1  0  0  0
 23 24  2  0  0  0
 24 25  1  0  0  0
 25 26  2  0  0  0
 26 27  1  0  0  0
 27 28  2  0  0  0
 28 29  1  0  0  0
 25  1  1  0  0  0
  1  2  2  0  0  0
  2  3  1  0  0  0
  3  4  2  0  0  0
  4  5  1  0  0  0
  5  6  2  0  0  0
  4  7  1  0  0  0
  7  8  2  0  0  0
  8 16  1  0  0  0
 16 17  1  0  0  0
 17 18  2  0  0  0
 18 19  1  0  0  0
 19 20  2  0  0  0
 20 21  1  0  0  0
 21 22  2  0  0  0
  8  9  1  0  0  0
  9 10  1  0  0  0
 10 11  2  0  0  0
 11 12  1  0  0  0
 12 13  2  0  0  0
 13 14  1  0  0  0
 14 15  2  0  0  0
 28 23  1  0  0  0
  6  1  1  0  0  0
 15  7  1  0  0  0
 22 17  1  0  0  0
 15 10  1  0  0  0
 33 37  1  0  0  0
 35 38  1  0  0  0
M  END
> <minimizedAffinity>
-1.36318

> <CNNscore>
0.4953257442

> <CNNaffinity>
6.7192902565

> <CNN_VS>
3.3282375336

> <CNNaffinity_variance>
0.4554939270

$$$$
[H]OP(=O)(O[H])C(F)(F)c1c([H])c(-c2c([H])c([H])c(-c3c(C([H])([H])c4c([H])c([H])c([H])c([H])c4[H])sc4c([H])c([H])c([H])c([H])c34)c([H])c2[H])c([H])c([H])c1F


 38 42  0  0  0  0  0  0  0  0999 V2000
   59.2195   -4.7454  -10.8381 C   0  0  0  0  0  0  0  0  0  0  0  0
   58.9551   -3.9882  -11.9819 C   0  0  0  0  0  0  0  0  0  0  0  0
   59.9542   -3.7842  -12.8952 C   0  0  0  0  0  0  0  0  0  0  0  0
   61.2208   -4.2976  -12.7335 C   0  0  0  0  0  0  0  0  0  0  0  0
   61.4806   -5.0416  -11.6099 C   0  0  0  0  0  0  0  0  0  0  0  0
   60.4757   -5.2471  -10.6913 C   0  0  0  0  0  0  0  0  0  0  0  0
   62.2707   -4.0357  -13.7726 C   0  0  0  0  0  0  0  0  0  0  0  0
   62.6618   -5.0674  -14.5842 C   0  0  0  0  0  0  0  0  0  0  0  0
   63.8391   -4.3600  -15.5865 S   0  0  0  0  0  0  0  0  0  0  0  0
   63.8165   -2.7729  -14.9628 C   0  0  0  0  0  0  0  0  0  0  0  0
   64.5079   -1.5813  -15.2586 C   0  0  0  0  0  0  0  0  0  0  0  0
   64.2638   -0.4237  -14.5586 C   0  0  0  0  0  0  0  0  0  0  0  0
   63.3127   -0.4978  -13.5614 C   0  0  0  0  0  0  0  0  0  0  0  0
   62.6293   -1.6424  -13.2563 C   0  0  0  0  0  0  0  0  0  0  0  0
   62.8770   -2.8363  -13.9735 C   0  0  0  0  0  0  0  0  0  0  0  0
   62.1439   -6.4897  -14.5649 C   0  0  0  0  0  0  0  0  0  0  0  0
   63.1939   -7.3641  -15.1080 C   0  0  0  0  0  0  0  0  0  0  0  0
   63.6766   -7.2336  -16.3889 C   0  0  0  0  0  0  0  0  0  0  0  0
   64.6700   -8.1013  -16.8299 C   0  0  0  0  0  0  0  0  0  0  0  0
   65.1622   -9.0889  -15.9719 C   0  0  0  0  0  0  0  0  0  0  0  0
   64.6733   -9.2176  -14.6814 C   0  0  0  0  0  0  0  0  0  0  0  0
   63.6880   -8.3537  -14.2497 C   0  0  0  0  0  0  0  0  0  0  0  0
   55.7951   -4.8095   -9.2962 C   0  0  0  0  0  0  0  0  0  0  0  0
   56.8160   -4.6210  -10.1954 C   0  0  0  0  0  0  0  0  0  0  0  0
   58.1335   -4.9377   -9.8932 C   0  0  0  0  0  0  0  0  0  0  0  0
   58.4093   -5.4557   -8.6496 C   0  0  0  0  0  0  0  0  0  0  0  0
   57.4087   -5.6654   -7.7038 C   0  0  0  0  0  0  0  0  0  0  0  0
   56.1098   -5.3293   -8.0639 C   0  0  0  0  0  0  0  0  0  0  0  0
   55.1458   -5.5412   -7.1284 F   0  0  0  0  0  0  0  0  0  0  0  0
   54.3934   -4.4717   -9.6289 C   0  0  0  0  0  0  0  0  0  0  0  0
   53.5605   -5.5367   -9.3238 F   0  0  0  0  0  0  0  0  0  0  0  0
   54.2612   -4.2465  -11.0058 F   0  0  0  0  0  0  0  0  0  0  0  0
   53.6430   -3.3242   -7.1265 O   0  0  0  0  0  0  0  0  0  0  0  0
   53.7860   -3.0142   -8.7836 P   0  0  0  0  0  0  0  0  0  0  0  0
   54.9299   -1.7620   -8.9804 O   0  0  0  0  0  0  0  0  0  0  0  0
   52.4437   -2.5662   -9.3178 O   0  0  0  0  0  0  0  0  0  0  0  0
   53.5694   -4.3168   -7.0205 H   0  0  0  0  0  0  0  0  0  0  0  0
   55.0978   -1.3205   -8.1126 H   0  0  0  0  0  0  0  0  0  0  0  0
 33 34  1  0  0  0
 34 35  1  0  0  0
 34 36  2  0  0  0
 34 30  1  0  0  0
 30 31  1  0  0  0
 30 32  1  0  0  0
 30 23  1  0  0  0
 23 24  2  0  0  0
 24 25  1  0  0  0
 25 26  2  0  0  0
 26 27  1  0  0  0
 27 28  2  0  0  0
 28 29  1  0  0  0
 25  1  1  0  0  0
  1  2  2  0  0  0
  2  3  1  0  0  0
  3  4  2  0  0  0
  4  5  1  0  0  0
  5  6  2  0  0  0
  4  7  1  0  0  0
  7  8  2  0  0  0
  8 16  1  0  0  0
 16 17  1  0  0  0
 17 18  2  0  0  0
 18 19  1  0  0  0
 19 20  2  0  0  0
 20 21  1  0  0  0
 21 22  2  0  0  0
  8  9  1  0  0  0
  9 10  1  0  0  0
 10 11  2  0  0  0
 11 12  1  0  0  0
 12 13  2  0  0  0
 13 14  1  0  0  0
 14 15  2  0  0  0
 28 23  1  0  0  0
  6  1  1  0  0  0
 15  7  1  0  0  0
 22 17  1  0  0  0
 15 10  1  0  0  0
 33 37  1  0  0  0
 35 38  1  0  0  0
M  END
> <minimizedAffinity>
1.56433

> <CNNscore>
0.4387160242

> <CNNaffinity>
5.7215051651

> <CNN_VS>
2.5101161003

> <CNNaffinity_variance>
1.4519323111

$$$$
[H]OP(=O)(O[H])C(F)(F)c1c([H])c(-c2c([H])c([H])c(-c3c(C([H])([H])c4c([H])c([H])c([H])c([H])c4[H])sc4c([H])c([H])c([H])c([H])c34)c([H])c2[H])c([H])c([H])c1F


 38 42  0  0  0  0  0  0  0  0999 V2000
   56.0296   -7.0060   -4.1995 C   0  0  0  0  0  0  0  0  0  0  0  0
   56.2429   -5.6272   -4.2694 C   0  0  0  0  0  0  0  0  0  0  0  0
   55.6356   -4.9054   -5.2615 C   0  0  0  0  0  0  0  0  0  0  0  0
   54.8160   -5.4855   -6.2029 C   0  0  0  0  0  0  0  0  0  0  0  0
   54.6064   -6.8400   -6.1342 C   0  0  0  0  0  0  0  0  0  0  0  0
   55.2169   -7.5660   -5.1360 C   0  0  0  0  0  0  0  0  0  0  0  0
   54.1817   -4.6368   -7.2649 C   0  0  0  0  0  0  0  0  0  0  0  0
   54.9349   -4.2710   -8.3489 C   0  0  0  0  0  0  0  0  0  0  0  0
   53.8628   -3.3364   -9.2805 S   0  0  0  0  0  0  0  0  0  0  0  0
   52.4814   -3.4241   -8.2844 C   0  0  0  0  0  0  0  0  0  0  0  0
   51.1718   -2.9091   -8.3574 C   0  0  0  0  0  0  0  0  0  0  0  0
   50.2517   -3.1599   -7.3674 C   0  0  0  0  0  0  0  0  0  0  0  0
   50.6821   -3.9367   -6.3112 C   0  0  0  0  0  0  0  0  0  0  0  0
   51.9474   -4.4472   -6.2185 C   0  0  0  0  0  0  0  0  0  0  0  0
   52.8980   -4.1918   -7.2344 C   0  0  0  0  0  0  0  0  0  0  0  0
   56.3794   -4.6341   -8.6200 C   0  0  0  0  0  0  0  0  0  0  0  0
   56.6261   -4.4751  -10.0607 C   0  0  0  0  0  0  0  0  0  0  0  0
   55.6264   -4.1684  -10.9536 C   0  0  0  0  0  0  0  0  0  0  0  0
   55.9400   -4.0363  -12.3021 C   0  0  0  0  0  0  0  0  0  0  0  0
   57.2583   -4.2159  -12.7307 C   0  0  0  0  0  0  0  0  0  0  0  0
   58.2634   -4.5251  -11.8280 C   0  0  0  0  0  0  0  0  0  0  0  0
   57.9461   -4.6546  -10.4915 C   0  0  0  0  0  0  0  0  0  0  0  0
   58.6145   -8.8904   -2.2309 C   0  0  0  0  0  0  0  0  0  0  0  0
   57.9946   -8.2041   -3.2463 C   0  0  0  0  0  0  0  0  0  0  0  0
   56.6927   -7.7356   -3.1331 C   0  0  0  0  0  0  0  0  0  0  0  0
   56.0149   -7.9745   -1.9607 C   0  0  0  0  0  0  0  0  0  0  0  0
   56.6003   -8.6655   -0.9026 C   0  0  0  0  0  0  0  0  0  0  0  0
   57.9053   -9.1096   -1.0747 C   0  0  0  0  0  0  0  0  0  0  0  0
   58.4609   -9.7818   -0.0313 F   0  0  0  0  0  0  0  0  0  0  0  0
   60.0038   -9.3831   -2.3600 C   0  0  0  0  0  0  0  0  0  0  0  0
   60.0042  -10.7171   -2.7360 F   0  0  0  0  0  0  0  0  0  0  0  0
   60.6590   -9.3196   -1.1227 F   0  0  0  0  0  0  0  0  0  0  0  0
   62.6223   -8.8551   -3.3631 O   0  0  0  0  0  0  0  0  0  0  0  0
   60.9866   -8.4596   -3.5385 P   0  0  0  0  0  0  0  0  0  0  0  0
   60.5084   -8.9158   -5.1127 O   0  0  0  0  0  0  0  0  0  0  0  0
   60.8209   -6.9657   -3.3688 O   0  0  0  0  0  0  0  0  0  0  0  0
   62.7375   -9.2169   -2.4370 H   0  0  0  0  0  0  0  0  0  0  0  0
   61.3059   -9.0930   -5.6684 H   0  0  0  0  0  0  0  0  0  0  0  0
 33 34  1  0  0  0
 34 35  1  0  0  0
 34 36  2  0  0  0
 34 30  1  0  0  0
 30 31  1  0  0  0
 30 32  1  0  0  0
 30 23  1  0  0  0
 23 24  2  0  0  0
 24 25  1  0  0  0
 25 26  2  0  0  0
 26 27  1  0  0  0
 27 28  2  0  0  0
 28 29  1  0  0  0
 25  1  1  0  0  0
  1  2  2  0  0  0
  2  3  1  0  0  0
  3  4  2  0  0  0
  4  5  1  0  0  0
  5  6  2  0  0  0
  4  7  1  0  0  0
  7  8  2  0  0  0
  8 16  1  0  0  0
 16 17  1  0  0  0
 17 18  2  0  0  0
 18 19  1  0  0  0
 19 20  2  0  0  0
 20 21  1  0  0  0
 21 22  2  0  0  0
  8  9  1  0  0  0
  9 10  1  0  0  0
 10 11  2  0  0  0
 11 12  1  0  0  0
 12 13  2  0  0  0
 13 14  1  0  0  0
 14 15  2  0  0  0
 28 23  1  0  0  0
  6  1  1  0  0  0
 15  7  1  0  0  0
 22 17  1  0  0  0
 15 10  1  0  0  0
 33 37  1  0  0  0
 35 38  1  0  0  0
M  END
> <minimizedAffinity>
-10.11280

> <CNNscore>
0.4128950238

> <CNNaffinity>
6.7183465958

> <CNN_VS>
2.7739717960

> <CNNaffinity_variance>
0.0825245827

$$$$
[H]OP(=O)(O[H])C(F)(F)c1c([H])c(-c2c([H])c([H])c(-c3c(C([H])([H])c4c([H])c([H])c([H])c([H])c4[H])sc4c([H])c([H])c([H])c([H])c34)c([H])c2[H])c([H])c([H])c1F


 38 42  0  0  0  0  0  0  0  0999 V2000
   56.5844   -4.0198  -11.4070 C   0  0  0  0  0  0  0  0  0  0  0  0
   55.1974   -4.0344  -11.5723 C   0  0  0  0  0  0  0  0  0  0  0  0
   54.3944   -4.1978  -10.4757 C   0  0  0  0  0  0  0  0  0  0  0  0
   54.8997   -4.3501   -9.2045 C   0  0  0  0  0  0  0  0  0  0  0  0
   56.2623   -4.3356   -9.0421 C   0  0  0  0  0  0  0  0  0  0  0  0
   57.0701   -4.1710  -10.1451 C   0  0  0  0  0  0  0  0  0  0  0  0
   53.9638   -4.5258   -8.0453 C   0  0  0  0  0  0  0  0  0  0  0  0
   54.2588   -5.4743   -7.1023 C   0  0  0  0  0  0  0  0  0  0  0  0
   52.9729   -5.3489   -5.9970 S   0  0  0  0  0  0  0  0  0  0  0  0
   52.0850   -4.1002   -6.7455 C   0  0  0  0  0  0  0  0  0  0  0  0
   50.8872   -3.4198   -6.4488 C   0  0  0  0  0  0  0  0  0  0  0  0
   50.4103   -2.4261   -7.2703 C   0  0  0  0  0  0  0  0  0  0  0  0
   51.1656   -2.1385   -8.3888 C   0  0  0  0  0  0  0  0  0  0  0  0
   52.3305   -2.7851   -8.6974 C   0  0  0  0  0  0  0  0  0  0  0  0
   52.8254   -3.8084   -7.8555 C   0  0  0  0  0  0  0  0  0  0  0  0
   55.4582   -6.3977   -7.0817 C   0  0  0  0  0  0  0  0  0  0  0  0
   55.6947   -6.8060   -5.6891 C   0  0  0  0  0  0  0  0  0  0  0  0
   55.0835   -7.9008   -5.1246 C   0  0  0  0  0  0  0  0  0  0  0  0
   55.3581   -8.2214   -3.7994 C   0  0  0  0  0  0  0  0  0  0  0  0
   56.2457   -7.4322   -3.0623 C   0  0  0  0  0  0  0  0  0  0  0  0
   56.8599   -6.3294   -3.6345 C   0  0  0  0  0  0  0  0  0  0  0  0
   56.5836   -6.0167   -4.9496 C   0  0  0  0  0  0  0  0  0  0  0  0
   59.5448   -3.8348  -13.7114 C   0  0  0  0  0  0  0  0  0  0  0  0
   58.7810   -3.9986  -12.5818 C   0  0  0  0  0  0  0  0  0  0  0  0
   57.4012   -3.8454  -12.5951 C   0  0  0  0  0  0  0  0  0  0  0  0
   56.7944   -3.5189  -13.7851 C   0  0  0  0  0  0  0  0  0  0  0  0
   57.5255   -3.3423  -14.9573 C   0  0  0  0  0  0  0  0  0  0  0  0
   58.9026   -3.5089  -14.8816 C   0  0  0  0  0  0  0  0  0  0  0  0
   59.6003   -3.3332  -16.0356 F   0  0  0  0  0  0  0  0  0  0  0  0
   61.0147   -4.0033  -13.6877 C   0  0  0  0  0  0  0  0  0  0  0  0
   61.4005   -4.9592  -14.6142 F   0  0  0  0  0  0  0  0  0  0  0  0
   61.4297   -4.4749  -12.4349 F   0  0  0  0  0  0  0  0  0  0  0  0
   61.1074   -1.1733  -13.3354 O   0  0  0  0  0  0  0  0  0  0  0  0
   61.9162   -2.4920  -14.0205 P   0  0  0  0  0  0  0  0  0  0  0  0
   63.4487   -2.6044  -13.2761 O   0  0  0  0  0  0  0  0  0  0  0  0
   62.0872   -2.2478  -15.5034 O   0  0  0  0  0  0  0  0  0  0  0  0
   60.1513   -1.4457  -13.2191 H   0  0  0  0  0  0  0  0  0  0  0  0
   63.6460   -1.7703  -12.7847 H   0  0  0  0  0  0  0  0  0  0  0  0
 33 34  1  0  0  0
 34 35  1  0  0  0
 34 36  2  0  0  0
 34 30  1  0  0  0
 30 31  1  0  0  0
 30 32  1  0  0  0
 30 23  1  0  0  0
 23 24  2  0  0  0
 24 25  1  0  0  0
 25 26  2  0  0  0
 26 27  1  0  0  0
 27 28  2  0  0  0
 28 29  1  0  0  0
 25  1  1  0  0  0
  1  2  2  0  0  0
  2  3  1  0  0  0
  3  4  2  0  0  0
  4  5  1  0  0  0
  5  6  2  0  0  0
  4  7  1  0  0  0
  7  8  2  0  0  0
  8 16  1  0  0  0
 16 17  1  0  0  0
 17 18  2  0  0  0
 18 19  1  0  0  0
 19 20  2  0  0  0
 20 21  1  0  0  0
 21 22  2  0  0  0
  8  9  1  0  0  0
  9 10  1  0  0  0
 10 11  2  0  0  0
 11 12  1  0  0  0
 12 13  2  0  0  0
 13 14  1  0  0  0
 14 15  2  0  0  0
 28 23  1  0  0  0
  6  1  1  0  0  0
 15  7  1  0  0  0
 22 17  1  0  0  0
 15 10  1  0  0  0
 33 37  1  0  0  0
 35 38  1  0  0  0
M  END
> <minimizedAffinity>
-8.57999

> <CNNscore>
0.3636761308

> <CNNaffinity>
6.6955595016

> <CNN_VS>
2.4350152016

> <CNNaffinity_variance>
0.2586118579

$$$$
[H]OP(=O)(O[H])C(F)(F)c1c([H])c(-c2c([H])c([H])c(-c3c(C([H])([H])c4c([H])c([H])c([H])c([H])c4[H])sc4c([H])c([H])c([H])c([H])c34)c([H])c2[H])c([H])c([H])c1F


 38 42  0  0  0  0  0  0  0  0999 V2000
   58.6364   -4.1737  -11.7118 C   0  0  0  0  0  0  0  0  0  0  0  0
   57.3171   -4.6246  -11.7978 C   0  0  0  0  0  0  0  0  0  0  0  0
   56.6026   -4.8267  -10.6477 C   0  0  0  0  0  0  0  0  0  0  0  0
   57.1335   -4.6030   -9.3977 C   0  0  0  0  0  0  0  0  0  0  0  0
   58.4295   -4.1598   -9.3132 C   0  0  0  0  0  0  0  0  0  0  0  0
   59.1482   -3.9562  -10.4700 C   0  0  0  0  0  0  0  0  0  0  0  0
   56.2961   -4.8452   -8.1768 C   0  0  0  0  0  0  0  0  0  0  0  0
   55.0492   -4.2818   -8.1144 C   0  0  0  0  0  0  0  0  0  0  0  0
   54.4591   -4.7894   -6.6028 S   0  0  0  0  0  0  0  0  0  0  0  0
   55.7979   -5.7049   -6.0759 C   0  0  0  0  0  0  0  0  0  0  0  0
   56.0948   -6.4519   -4.9185 C   0  0  0  0  0  0  0  0  0  0  0  0
   57.2986   -7.1008   -4.7791 C   0  0  0  0  0  0  0  0  0  0  0  0
   58.1876   -6.9784   -5.8275 C   0  0  0  0  0  0  0  0  0  0  0  0
   57.9218   -6.2592   -6.9600 C   0  0  0  0  0  0  0  0  0  0  0  0
   56.6847   -5.5895   -7.1082 C   0  0  0  0  0  0  0  0  0  0  0  0
   54.3856   -3.4171   -9.1649 C   0  0  0  0  0  0  0  0  0  0  0  0
   52.9751   -3.2439   -8.7876 C   0  0  0  0  0  0  0  0  0  0  0  0
   52.0706   -4.2795   -8.8085 C   0  0  0  0  0  0  0  0  0  0  0  0
   50.7525   -4.0348   -8.4387 C   0  0  0  0  0  0  0  0  0  0  0  0
   50.3654   -2.7482   -8.0531 C   0  0  0  0  0  0  0  0  0  0  0  0
   51.2797   -1.7068   -8.0331 C   0  0  0  0  0  0  0  0  0  0  0  0
   52.5860   -1.9558   -8.4009 C   0  0  0  0  0  0  0  0  0  0  0  0
   61.4225   -3.7233  -14.1903 C   0  0  0  0  0  0  0  0  0  0  0  0
   60.7463   -3.9105  -13.0096 C   0  0  0  0  0  0  0  0  0  0  0  0
   59.3605   -3.9727  -12.9546 C   0  0  0  0  0  0  0  0  0  0  0  0
   58.6563   -3.8408  -14.1282 C   0  0  0  0  0  0  0  0  0  0  0  0
   59.2963   -3.6496  -15.3504 C   0  0  0  0  0  0  0  0  0  0  0  0
   60.6844   -3.5960  -15.3422 C   0  0  0  0  0  0  0  0  0  0  0  0
   61.2923   -3.4093  -16.5442 F   0  0  0  0  0  0  0  0  0  0  0  0
   62.9001   -3.6615  -14.2391 C   0  0  0  0  0  0  0  0  0  0  0  0
   63.3516   -4.0226  -15.4988 F   0  0  0  0  0  0  0  0  0  0  0  0
   63.4551   -4.5821  -13.3398 F   0  0  0  0  0  0  0  0  0  0  0  0
   65.2279   -2.0139  -14.1475 O   0  0  0  0  0  0  0  0  0  0  0  0
   63.5650   -2.0477  -13.8375 P   0  0  0  0  0  0  0  0  0  0  0  0
   62.8243   -0.8925  -14.8533 O   0  0  0  0  0  0  0  0  0  0  0  0
   63.3270   -1.6799  -12.3898 O   0  0  0  0  0  0  0  0  0  0  0  0
   65.5471   -2.9625  -14.1320 H   0  0  0  0  0  0  0  0  0  0  0  0
   63.5092   -0.2901  -15.2330 H   0  0  0  0  0  0  0  0  0  0  0  0
 33 34  1  0  0  0
 34 35  1  0  0  0
 34 36  2  0  0  0
 34 30  1  0  0  0
 30 31  1  0  0  0
 30 32  1  0  0  0
 30 23  1  0  0  0
 23 24  2  0  0  0
 24 25  1  0  0  0
 25 26  2  0  0  0
 26 27  1  0  0  0
 27 28  2  0  0  0
 28 29  1  0  0  0
 25  1  1  0  0  0
  1  2  2  0  0  0
  2  3  1  0  0  0
  3  4  2  0  0  0
  4  5  1  0  0  0
  5  6  2  0  0  0
  4  7  1  0  0  0
  7  8  2  0  0  0
  8 16  1  0  0  0
 16 17  1  0  0  0
 17 18  2  0  0  0
 18 19  1  0  0  0
 19 20  2  0  0  0
 20 21  1  0  0  0
 21 22  2  0  0  0
  8  9  1  0  0  0
  9 10  1  0  0  0
 10 11  2  0  0  0
 11 12  1  0  0  0
 12 13  2  0  0  0
 13 14  1  0  0  0
 14 15  2  0  0  0
 28 23  1  0  0  0
  6  1  1  0  0  0
 15  7  1  0  0  0
 22 17  1  0  0  0
 15 10  1  0  0  0
 33 37  1  0  0  0
 35 38  1  0  0  0
M  END
> <minimizedAffinity>
4.57508

> <CNNscore>
0.3537272513

> <CNNaffinity>
6.3025484085

> <CNN_VS>
2.2293832302

> <CNNaffinity_variance>
0.7414655685

$$$$
[H]OP(=O)(O[H])C(F)(F)c1c([H])c(-c2c([H])c([H])c(-c3c(C([H])([H])c4c([H])c([H])c([H])c([H])c4[H])sc4c([H])c([H])c([H])c([H])c34)c([H])c2[H])c([H])c([H])c1F


 38 42  0  0  0  0  0  0  0  0999 V2000
   55.0744   -5.3287   -7.2845 C   0  0  0  0  0  0  0  0  0  0  0  0
   56.4119   -5.3076   -6.8820 C   0  0  0  0  0  0  0  0  0  0  0  0
   57.3960   -5.2535   -7.8322 C   0  0  0  0  0  0  0  0  0  0  0  0
   57.1217   -5.2189   -9.1804 C   0  0  0  0  0  0  0  0  0  0  0  0
   55.8077   -5.2395   -9.5758 C   0  0  0  0  0  0  0  0  0  0  0  0
   54.8178   -5.2936   -8.6202 C   0  0  0  0  0  0  0  0  0  0  0  0
   58.2478   -5.1608  -10.1700 C   0  0  0  0  0  0  0  0  0  0  0  0
   58.0155   -4.5946  -11.3954 C   0  0  0  0  0  0  0  0  0  0  0  0
   59.5132   -4.7345  -12.1879 S   0  0  0  0  0  0  0  0  0  0  0  0
   60.4069   -5.5057  -10.9573 C   0  0  0  0  0  0  0  0  0  0  0  0
   61.7341   -5.9629  -10.8335 C   0  0  0  0  0  0  0  0  0  0  0  0
   62.1754   -6.5642   -9.6788 C   0  0  0  0  0  0  0  0  0  0  0  0
   61.2523   -6.6914   -8.6609 C   0  0  0  0  0  0  0  0  0  0  0  0
   59.9596   -6.2557   -8.7580 C   0  0  0  0  0  0  0  0  0  0  0  0
   59.5005   -5.6366   -9.9441 C   0  0  0  0  0  0  0  0  0  0  0  0
   56.7172   -3.9944  -11.8912 C   0  0  0  0  0  0  0  0  0  0  0  0
   56.7122   -4.0699  -13.3596 C   0  0  0  0  0  0  0  0  0  0  0  0
   55.8189   -4.8479  -14.0579 C   0  0  0  0  0  0  0  0  0  0  0  0
   55.8793   -4.8672  -15.4472 C   0  0  0  0  0  0  0  0  0  0  0  0
   56.8407   -4.1011  -16.1125 C   0  0  0  0  0  0  0  0  0  0  0  0
   57.7396   -3.3181  -15.4055 C   0  0  0  0  0  0  0  0  0  0  0  0
   57.6745   -3.3029  -14.0274 C   0  0  0  0  0  0  0  0  0  0  0  0
   51.7572   -5.2766   -5.5234 C   0  0  0  0  0  0  0  0  0  0  0  0
   52.7089   -5.2161   -6.5117 C   0  0  0  0  0  0  0  0  0  0  0  0
   54.0607   -5.3875   -6.2461 C   0  0  0  0  0  0  0  0  0  0  0  0
   54.4435   -5.6246   -4.9468 C   0  0  0  0  0  0  0  0  0  0  0  0
   53.5162   -5.6951   -3.9100 C   0  0  0  0  0  0  0  0  0  0  0  0
   52.1781   -5.5155   -4.2374 C   0  0  0  0  0  0  0  0  0  0  0  0
   51.2869   -5.5881   -3.2129 F   0  0  0  0  0  0  0  0  0  0  0  0
   50.3182   -5.0956   -5.8170 C   0  0  0  0  0  0  0  0  0  0  0  0
   49.6502   -4.6631   -4.6823 F   0  0  0  0  0  0  0  0  0  0  0  0
   49.7379   -6.3195   -6.1767 F   0  0  0  0  0  0  0  0  0  0  0  0
   51.3702   -2.9919   -7.4323 O   0  0  0  0  0  0  0  0  0  0  0  0
   49.9963   -3.9360   -7.1434 P   0  0  0  0  0  0  0  0  0  0  0  0
   49.6674   -4.8222   -8.5652 O   0  0  0  0  0  0  0  0  0  0  0  0
   48.8303   -3.0248   -6.8302 O   0  0  0  0  0  0  0  0  0  0  0  0
   51.9214   -3.0153   -6.5971 H   0  0  0  0  0  0  0  0  0  0  0  0
   50.1793   -4.4462   -9.3219 H   0  0  0  0  0  0  0  0  0  0  0  0
 33 34  1  0  0  0
 34 35  1  0  0  0
 34 36  2  0  0  0
 34 30  1  0  0  0
 30 31  1  0  0  0
 30 32  1  0  0  0
 30 23  1  0  0  0
 23 24  2  0  0  0
 24 25  1  0  0  0
 25 26  2  0  0  0
 26 27  1  0  0  0
 27 28  2  0  0  0
 28 29  1  0  0  0
 25  1  1  0  0  0
  1  2  2  0  0  0
  2  3  1  0  0  0
  3  4  2  0  0  0
  4  5  1  0  0  0
  5  6  2  0  0  0
  4  7  1  0  0  0
  7  8  2  0  0  0
  8 16  1  0  0  0
 16 17  1  0  0  0
 17 18  2  0  0  0
 18 19  1  0  0  0
 19 20  2  0  0  0
 20 21  1  0  0  0
 21 22  2  0  0  0
  8  9  1  0  0  0
  9 10  1  0  0  0
 10 11  2  0  0  0
 11 12  1  0  0  0
 12 13  2  0  0  0
 13 14  1  0  0  0
 14 15  2  0  0  0
 28 23  1  0  0  0
  6  1  1  0  0  0
 15  7  1  0  0  0
 22 17  1  0  0  0
 15 10  1  0  0  0
 33 37  1  0  0  0
 35 38  1  0  0  0
M  END
> <minimizedAffinity>
-5.29956

> <CNNscore>
0.3101645708

> <CNNaffinity>
6.1853857040

> <CNN_VS>
1.9184875488

> <CNNaffinity_variance>
0.3065465391

$$$$
