[H]OC([H])([H])[C@@]1(O[H])C([H])([H])[C@@]2([H])O[C@]1(C([H])([H])[H])n1c3c([H])c([H])c([H])c([H])c3c3c4c(c5c6c([H])c([H])c([H])c([H])c6n2c5c31)C(=O)N([H])C4([H])[H]


 36 43  0  0  0  0  0  0  0  0999 V2000
   54.1690   -8.0435   -3.0283 C   0  0  0  0  0  0  0  0  0  0  0  0
   54.5461   -6.8315   -3.8091 C   0  0  0  0  0  0  0  0  0  0  0  0
   55.2457   -7.4340   -4.8911 O   0  0  0  0  0  0  0  0  0  0  0  0
   56.1976   -6.5889   -5.3491 C   0  0  0  0  0  0  0  0  0  0  0  0
   56.6865   -5.8108   -4.2032 C   0  0  0  0  0  0  0  0  0  0  0  0
   55.6035   -5.9867   -3.1620 C   0  0  0  0  0  0  0  0  0  0  0  0
   55.1590   -4.7150   -2.8329 O   0  0  0  0  0  0  0  0  0  0  0  0
   55.6802   -5.7759   -6.4575 N   0  0  0  0  0  0  0  0  0  0  0  0
   56.2889   -5.3882   -7.5650 C   0  0  0  0  0  0  0  0  0  0  0  0
   57.5738   -5.6432   -7.9689 C   0  0  0  0  0  0  0  0  0  0  0  0
   57.9976   -5.1255   -9.1867 C   0  0  0  0  0  0  0  0  0  0  0  0
   57.1506   -4.3783   -9.9644 C   0  0  0  0  0  0  0  0  0  0  0  0
   55.8377   -4.1163   -9.5545 C   0  0  0  0  0  0  0  0  0  0  0  0
   55.4321   -4.6296   -8.3568 C   0  0  0  0  0  0  0  0  0  0  0  0
   54.2436   -4.5697   -7.6651 C   0  0  0  0  0  0  0  0  0  0  0  0
   53.0245   -3.9636   -7.9080 C   0  0  0  0  0  0  0  0  0  0  0  0
   52.4791   -3.1611   -8.9880 C   0  0  0  0  0  0  0  0  0  0  0  0
   52.9886   -2.7784  -10.0425 O   0  0  0  0  0  0  0  0  0  0  0  0
   51.1304   -2.8337   -8.6393 N   0  0  0  0  0  0  0  0  0  0  0  0
   50.7852   -3.3958   -7.3562 C   0  0  0  0  0  0  0  0  0  0  0  0
   52.0284   -4.1011   -6.9592 C   0  0  0  0  0  0  0  0  0  0  0  0
   52.2165   -4.8222   -5.7853 C   0  0  0  0  0  0  0  0  0  0  0  0
   51.4548   -5.1056   -4.6957 C   0  0  0  0  0  0  0  0  0  0  0  0
   50.1625   -4.7413   -4.3954 C   0  0  0  0  0  0  0  0  0  0  0  0
   49.6071   -5.1520   -3.1800 C   0  0  0  0  0  0  0  0  0  0  0  0
   50.3795   -5.9119   -2.3200 C   0  0  0  0  0  0  0  0  0  0  0  0
   51.6775   -6.2655   -2.6450 C   0  0  0  0  0  0  0  0  0  0  0  0
   52.2428   -5.8738   -3.8347 C   0  0  0  0  0  0  0  0  0  0  0  0
   53.4730   -6.0692   -4.3806 N   0  0  0  0  0  0  0  0  0  0  0  0
   53.4231   -5.4030   -5.5832 C   0  0  0  0  0  0  0  0  0  0  0  0
   54.4403   -5.2873   -6.5050 C   0  0  0  0  0  0  0  0  0  0  0  0
   55.7018   -4.3842   -2.0772 H   0  0  0  0  0  0  0  0  0  0  0  0
   50.4500   -2.2639   -9.2114 H   0  0  0  0  0  0  0  0  0  0  0  0
   56.2168   -6.6055   -1.9519 C   0  0  0  0  0  0  0  0  0  0  0  0
   57.6026   -6.4723   -2.0450 O   0  0  0  0  0  0  0  0  0  0  0  0
   58.0589   -7.3363   -2.2099 H   0  0  0  0  0  0  0  0  0  0  0  0
  2  1  1  0  0  0
  2  3  1  0  0  0
  3  4  1  0  0  0
  4  5  1  0  0  0
  5  6  1  0  0  0
  6  7  1  0  0  0
  6 34  1  0  0  0
 34 35  1  0  0  0
  4  8  1  0  0  0
  8  9  1  0  0  0
  9 10  2  0  0  0
 10 11  1  0  0  0
 11 12  2  0  0  0
 12 13  1  0  0  0
 13 14  2  0  0  0
 14 15  1  0  0  0
 15 16  2  0  0  0
 16 17  1  0  0  0
 17 18  2  0  0  0
 17 19  1  0  0  0
 19 20  1  0  0  0
 20 21  1  0  0  0
 21 22  2  0  0  0
 22 23  1  0  0  0
 23 24  2  0  0  0
 24 25  1  0  0  0
 25 26  2  0  0  0
 26 27  1  0  0  0
 27 28  2  0  0  0
 28 29  1  0  0  0
 29 30  1  0  0  0
 30 31  2  0  0  0
  6  2  1  0  0  0
 31  8  1  0  0  0
 29  2  1  0  0  0
 14  9  1  0  0  0
 31 15  1  0  0  0
 21 16  1  0  0  0
 30 22  1  0  0  0
 28 23  1  0  0  0
  7 32  1  0  0  0
 35 36  1  0  0  0
 19 33  1  0  0  0
M  END
> <minimizedAffinity>
-13.13890

> <CNNscore>
0.8797060847

> <CNNaffinity>
7.0308732986

> <CNN_VS>
6.1851019859

> <CNNaffinity_variance>
0.0563527942

$$$$
[H]OC([H])([H])[C@@]1(O[H])C([H])([H])[C@@]2([H])O[C@]1(C([H])([H])[H])n1c3c([H])c([H])c([H])c([H])c3c3c4c(c5c6c([H])c([H])c([H])c([H])c6n2c5c31)C(=O)N([H])C4([H])[H]


 36 43  0  0  0  0  0  0  0  0999 V2000
   61.6191   -6.0613   -9.7276 C   0  0  0  0  0  0  0  0  0  0  0  0
   62.8250   -6.9368   -9.7487 C   0  0  0  0  0  0  0  0  0  0  0  0
   62.3770   -8.0060   -8.9245 O   0  0  0  0  0  0  0  0  0  0  0  0
   63.4293   -8.5605   -8.2802 C   0  0  0  0  0  0  0  0  0  0  0  0
   64.4030   -7.4914   -8.0222 C   0  0  0  0  0  0  0  0  0  0  0  0
   63.9931   -6.3943   -8.9794 C   0  0  0  0  0  0  0  0  0  0  0  0
   65.0962   -6.1312   -9.7776 O   0  0  0  0  0  0  0  0  0  0  0  0
   63.9642   -9.6967   -9.0418 N   0  0  0  0  0  0  0  0  0  0  0  0
   64.4295  -10.8531   -8.6020 C   0  0  0  0  0  0  0  0  0  0  0  0
   64.5383  -11.2951   -7.3089 C   0  0  0  0  0  0  0  0  0  0  0  0
   65.0638  -12.5621   -7.0868 C   0  0  0  0  0  0  0  0  0  0  0  0
   65.4633  -13.3498   -8.1358 C   0  0  0  0  0  0  0  0  0  0  0  0
   65.3534  -12.9011   -9.4574 C   0  0  0  0  0  0  0  0  0  0  0  0
   64.8359  -11.6553   -9.6640 C   0  0  0  0  0  0  0  0  0  0  0  0
   64.5922  -10.9176  -10.8003 C   0  0  0  0  0  0  0  0  0  0  0  0
   64.7877  -11.1466  -12.1501 C   0  0  0  0  0  0  0  0  0  0  0  0
   65.3065  -12.2526  -12.9346 C   0  0  0  0  0  0  0  0  0  0  0  0
   65.7416  -13.3515  -12.5867 O   0  0  0  0  0  0  0  0  0  0  0  0
   65.2434  -11.8676  -14.3115 N   0  0  0  0  0  0  0  0  0  0  0  0
   64.7040  -10.5360  -14.4439 C   0  0  0  0  0  0  0  0  0  0  0  0
   64.4331  -10.1480  -13.0380 C   0  0  0  0  0  0  0  0  0  0  0  0
   63.8927   -8.9381  -12.6165 C   0  0  0  0  0  0  0  0  0  0  0  0
   63.4797   -7.7997  -13.2340 C   0  0  0  0  0  0  0  0  0  0  0  0
   63.4649   -7.4679  -14.5691 C   0  0  0  0  0  0  0  0  0  0  0  0
   63.0019   -6.2047  -14.9489 C   0  0  0  0  0  0  0  0  0  0  0  0
   62.5743   -5.3308  -13.9655 C   0  0  0  0  0  0  0  0  0  0  0  0
   62.5992   -5.6882  -12.6286 C   0  0  0  0  0  0  0  0  0  0  0  0
   63.0491   -6.9250  -12.2332 C   0  0  0  0  0  0  0  0  0  0  0  0
   63.1873   -7.5100  -11.0133 N   0  0  0  0  0  0  0  0  0  0  0  0
   63.7144   -8.7509  -11.2871 C   0  0  0  0  0  0  0  0  0  0  0  0
   64.0567   -9.7221  -10.3720 C   0  0  0  0  0  0  0  0  0  0  0  0
   65.6303   -5.4238   -9.3425 H   0  0  0  0  0  0  0  0  0  0  0  0
   65.5394  -12.4458  -15.1438 H   0  0  0  0  0  0  0  0  0  0  0  0
   63.6793   -5.1738   -8.1823 C   0  0  0  0  0  0  0  0  0  0  0  0
   64.8814   -4.5945   -7.7746 O   0  0  0  0  0  0  0  0  0  0  0  0
   65.0383   -4.6863   -6.8006 H   0  0  0  0  0  0  0  0  0  0  0  0
  2  1  1  0  0  0
  2  3  1  0  0  0
  3  4  1  0  0  0
  4  5  1  0  0  0
  5  6  1  0  0  0
  6  7  1  0  0  0
  6 34  1  0  0  0
 34 35  1  0  0  0
  4  8  1  0  0  0
  8  9  1  0  0  0
  9 10  2  0  0  0
 10 11  1  0  0  0
 11 12  2  0  0  0
 12 13  1  0  0  0
 13 14  2  0  0  0
 14 15  1  0  0  0
 15 16  2  0  0  0
 16 17  1  0  0  0
 17 18  2  0  0  0
 17 19  1  0  0  0
 19 20  1  0  0  0
 20 21  1  0  0  0
 21 22  2  0  0  0
 22 23  1  0  0  0
 23 24  2  0  0  0
 24 25  1  0  0  0
 25 26  2  0  0  0
 26 27  1  0  0  0
 27 28  2  0  0  0
 28 29  1  0  0  0
 29 30  1  0  0  0
 30 31  2  0  0  0
  6  2  1  0  0  0
 31  8  1  0  0  0
 29  2  1  0  0  0
 14  9  1  0  0  0
 31 15  1  0  0  0
 21 16  1  0  0  0
 30 22  1  0  0  0
 28 23  1  0  0  0
  7 32  1  0  0  0
 35 36  1  0  0  0
 19 33  1  0  0  0
M  END
> <minimizedAffinity>
-2.71208

> <CNNscore>
0.6320461631

> <CNNaffinity>
4.8087005615

> <CNN_VS>
3.0393207073

> <CNNaffinity_variance>
0.5043185353

$$$$
[H]OC([H])([H])[C@@]1(O[H])C([H])([H])[C@@]2([H])O[C@]1(C([H])([H])[H])n1c3c([H])c([H])c([H])c([H])c3c3c4c(c5c6c([H])c([H])c([H])c([H])c6n2c5c31)C(=O)N([H])C4([H])[H]


 36 43  0  0  0  0  0  0  0  0999 V2000
   57.2081   -5.9139   -4.1576 C   0  0  0  0  0  0  0  0  0  0  0  0
   55.8147   -6.1850   -4.6117 C   0  0  0  0  0  0  0  0  0  0  0  0
   55.0808   -5.5556   -3.5684 O   0  0  0  0  0  0  0  0  0  0  0  0
   53.8976   -6.1878   -3.3942 C   0  0  0  0  0  0  0  0  0  0  0  0
   54.1065   -7.6093   -3.6996 C   0  0  0  0  0  0  0  0  0  0  0  0
   55.3960   -7.6204   -4.4902 C   0  0  0  0  0  0  0  0  0  0  0  0
   55.1073   -8.2089   -5.7123 O   0  0  0  0  0  0  0  0  0  0  0  0
   52.8436   -5.5453   -4.1903 N   0  0  0  0  0  0  0  0  0  0  0  0
   51.5774   -5.3270   -3.8800 C   0  0  0  0  0  0  0  0  0  0  0  0
   50.9117   -5.6496   -2.7259 C   0  0  0  0  0  0  0  0  0  0  0  0
   49.5665   -5.3165   -2.6250 C   0  0  0  0  0  0  0  0  0  0  0  0
   48.9219   -4.6807   -3.6550 C   0  0  0  0  0  0  0  0  0  0  0  0
   49.5992   -4.3500   -4.8349 C   0  0  0  0  0  0  0  0  0  0  0  0
   50.9200   -4.6818   -4.9232 C   0  0  0  0  0  0  0  0  0  0  0  0
   51.8656   -4.5126   -5.9090 C   0  0  0  0  0  0  0  0  0  0  0  0
   51.8380   -3.9609   -7.1769 C   0  0  0  0  0  0  0  0  0  0  0  0
   50.8218   -3.3169   -7.9895 C   0  0  0  0  0  0  0  0  0  0  0  0
   49.6365   -3.0765   -7.7542 O   0  0  0  0  0  0  0  0  0  0  0  0
   51.4324   -2.9565   -9.2325 N   0  0  0  0  0  0  0  0  0  0  0  0
   52.8186   -3.3561   -9.2538 C   0  0  0  0  0  0  0  0  0  0  0  0
   53.0041   -3.9770   -7.9195 C   0  0  0  0  0  0  0  0  0  0  0  0
   54.1861   -4.5240   -7.4326 C   0  0  0  0  0  0  0  0  0  0  0  0
   55.4424   -4.6953   -7.9226 C   0  0  0  0  0  0  0  0  0  0  0  0
   55.9747   -4.3516   -9.1439 C   0  0  0  0  0  0  0  0  0  0  0  0
   57.3112   -4.6613   -9.4126 C   0  0  0  0  0  0  0  0  0  0  0  0
   58.0528   -5.3046   -8.4380 C   0  0  0  0  0  0  0  0  0  0  0  0
   57.4941   -5.6400   -7.2168 C   0  0  0  0  0  0  0  0  0  0  0  0
   56.1830   -5.3439   -6.9312 C   0  0  0  0  0  0  0  0  0  0  0  0
   55.4025   -5.5691   -5.8405 N   0  0  0  0  0  0  0  0  0  0  0  0
   54.1749   -5.0534   -6.1862 C   0  0  0  0  0  0  0  0  0  0  0  0
   53.0322   -5.0569   -5.4167 C   0  0  0  0  0  0  0  0  0  0  0  0
   55.2585   -9.1812   -5.6301 H   0  0  0  0  0  0  0  0  0  0  0  0
   50.9700   -2.4667  -10.0455 H   0  0  0  0  0  0  0  0  0  0  0  0
   56.3781   -8.4789   -3.7677 C   0  0  0  0  0  0  0  0  0  0  0  0
   55.7998   -8.8929   -2.5673 O   0  0  0  0  0  0  0  0  0  0  0  0
   56.2165   -8.4665   -1.7758 H   0  0  0  0  0  0  0  0  0  0  0  0
  2  1  1  0  0  0
  2  3  1  0  0  0
  3  4  1  0  0  0
  4  5  1  0  0  0
  5  6  1  0  0  0
  6  7  1  0  0  0
  6 34  1  0  0  0
 34 35  1  0  0  0
  4  8  1  0  0  0
  8  9  1  0  0  0
  9 10  2  0  0  0
 10 11  1  0  0  0
 11 12  2  0  0  0
 12 13  1  0  0  0
 13 14  2  0  0  0
 14 15  1  0  0  0
 15 16  2  0  0  0
 16 17  1  0  0  0
 17 18  2  0  0  0
 17 19  1  0  0  0
 19 20  1  0  0  0
 20 21  1  0  0  0
 21 22  2  0  0  0
 22 23  1  0  0  0
 23 24  2  0  0  0
 24 25  1  0  0  0
 25 26  2  0  0  0
 26 27  1  0  0  0
 27 28  2  0  0  0
 28 29  1  0  0  0
 29 30  1  0  0  0
 30 31  2  0  0  0
  6  2  1  0  0  0
 31  8  1  0  0  0
 29  2  1  0  0  0
 14  9  1  0  0  0
 31 15  1  0  0  0
 21 16  1  0  0  0
 30 22  1  0  0  0
 28 23  1  0  0  0
  7 32  1  0  0  0
 35 36  1  0  0  0
 19 33  1  0  0  0
M  END
> <minimizedAffinity>
-9.91533

> <CNNscore>
0.4059527218

> <CNNaffinity>
6.4354257584

> <CNN_VS>
2.6124784946

> <CNNaffinity_variance>
0.0992594436

$$$$
[H]OC([H])([H])[C@@]1(O[H])C([H])([H])[C@@]2([H])O[C@]1(C([H])([H])[H])n1c3c([H])c([H])c([H])c([H])c3c3c4c(c5c6c([H])c([H])c([H])c([H])c6n2c5c31)C(=O)N([H])C4([H])[H]


 36 43  0  0  0  0  0  0  0  0999 V2000
   52.9566   -4.2282  -10.7033 C   0  0  0  0  0  0  0  0  0  0  0  0
   53.9481   -4.0587   -9.6036 C   0  0  0  0  0  0  0  0  0  0  0  0
   53.5178   -5.0814   -8.7138 O   0  0  0  0  0  0  0  0  0  0  0  0
   53.7989   -4.7281   -7.4386 C   0  0  0  0  0  0  0  0  0  0  0  0
   53.6849   -3.2664   -7.3494 C   0  0  0  0  0  0  0  0  0  0  0  0
   53.7585   -2.8124   -8.7904 C   0  0  0  0  0  0  0  0  0  0  0  0
   54.8307   -1.9372   -8.8767 O   0  0  0  0  0  0  0  0  0  0  0  0
   55.1049   -5.2604   -7.0284 N   0  0  0  0  0  0  0  0  0  0  0  0
   55.4747   -5.7609   -5.8621 C   0  0  0  0  0  0  0  0  0  0  0  0
   54.7301   -5.9111   -4.7211 C   0  0  0  0  0  0  0  0  0  0  0  0
   55.3398   -6.4690   -3.6041 C   0  0  0  0  0  0  0  0  0  0  0  0
   56.6538   -6.8593   -3.6434 C   0  0  0  0  0  0  0  0  0  0  0  0
   57.4168   -6.7072   -4.8074 C   0  0  0  0  0  0  0  0  0  0  0  0
   56.8080   -6.1581   -5.8984 C   0  0  0  0  0  0  0  0  0  0  0  0
   57.2463   -5.8697   -7.1709 C   0  0  0  0  0  0  0  0  0  0  0  0
   58.4591   -6.0111   -7.8203 C   0  0  0  0  0  0  0  0  0  0  0  0
   59.7620   -6.5339   -7.4501 C   0  0  0  0  0  0  0  0  0  0  0  0
   60.1627   -7.0197   -6.3911 O   0  0  0  0  0  0  0  0  0  0  0  0
   60.6164   -6.4012   -8.5903 N   0  0  0  0  0  0  0  0  0  0  0  0
   59.9060   -5.7982   -9.6918 C   0  0  0  0  0  0  0  0  0  0  0  0
   58.5482   -5.5867   -9.1330 C   0  0  0  0  0  0  0  0  0  0  0  0
   57.4670   -5.0305   -9.8079 C   0  0  0  0  0  0  0  0  0  0  0  0
   57.2659   -4.5218  -11.0523 C   0  0  0  0  0  0  0  0  0  0  0  0
   58.1351   -4.3924  -12.1109 C   0  0  0  0  0  0  0  0  0  0  0  0
   57.6785   -3.8073  -13.2956 C   0  0  0  0  0  0  0  0  0  0  0  0
   56.3652   -3.3778  -13.3611 C   0  0  0  0  0  0  0  0  0  0  0  0
   55.5101   -3.5192  -12.2819 C   0  0  0  0  0  0  0  0  0  0  0  0
   55.9375   -4.0924  -11.1084 C   0  0  0  0  0  0  0  0  0  0  0  0
   55.3204   -4.3335   -9.9208 N   0  0  0  0  0  0  0  0  0  0  0  0
   56.2953   -4.9098   -9.1398 C   0  0  0  0  0  0  0  0  0  0  0  0
   56.1682   -5.3203   -7.8309 C   0  0  0  0  0  0  0  0  0  0  0  0
   54.4982   -1.0237   -8.7036 H   0  0  0  0  0  0  0  0  0  0  0  0
   61.6295   -6.6907   -8.6583 H   0  0  0  0  0  0  0  0  0  0  0  0
   52.5071   -2.0663   -9.1082 C   0  0  0  0  0  0  0  0  0  0  0  0
   51.5158   -2.4699   -8.2131 O   0  0  0  0  0  0  0  0  0  0  0  0
   50.8097   -3.0141   -8.6456 H   0  0  0  0  0  0  0  0  0  0  0  0
  2  1  1  0  0  0
  2  3  1  0  0  0
  3  4  1  0  0  0
  4  5  1  0  0  0
  5  6  1  0  0  0
  6  7  1  0  0  0
  6 34  1  0  0  0
 34 35  1  0  0  0
  4  8  1  0  0  0
  8  9  1  0  0  0
  9 10  2  0  0  0
 10 11  1  0  0  0
 11 12  2  0  0  0
 12 13  1  0  0  0
 13 14  2  0  0  0
 14 15  1  0  0  0
 15 16  2  0  0  0
 16 17  1  0  0  0
 17 18  2  0  0  0
 17 19  1  0  0  0
 19 20  1  0  0  0
 20 21  1  0  0  0
 21 22  2  0  0  0
 22 23  1  0  0  0
 23 24  2  0  0  0
 24 25  1  0  0  0
 25 26  2  0  0  0
 26 27  1  0  0  0
 27 28  2  0  0  0
 28 29  1  0  0  0
 29 30  1  0  0  0
 30 31  2  0  0  0
  6  2  1  0  0  0
 31  8  1  0  0  0
 29  2  1  0  0  0
 14  9  1  0  0  0
 31 15  1  0  0  0
 21 16  1  0  0  0
 30 22  1  0  0  0
 28 23  1  0  0  0
  7 32  1  0  0  0
 35 36  1  0  0  0
 19 33  1  0  0  0
M  END
> <minimizedAffinity>
-3.13274

> <CNNscore>
0.4058468938

> <CNNaffinity>
6.0742416382

> <CNN_VS>
2.4652121067

> <CNNaffinity_variance>
0.1501375139

$$$$
[H]OC([H])([H])[C@@]1(O[H])C([H])([H])[C@@]2([H])O[C@]1(C([H])([H])[H])n1c3c([H])c([H])c([H])c([H])c3c3c4c(c5c6c([H])c([H])c([H])c([H])c6n2c5c31)C(=O)N([H])C4([H])[H]


 36 43  0  0  0  0  0  0  0  0999 V2000
   55.9637   -2.3120  -11.8150 C   0  0  0  0  0  0  0  0  0  0  0  0
   56.3970   -3.6216  -11.2508 C   0  0  0  0  0  0  0  0  0  0  0  0
   57.7817   -3.3659  -11.0501 O   0  0  0  0  0  0  0  0  0  0  0  0
   58.4830   -4.5162  -11.1729 C   0  0  0  0  0  0  0  0  0  0  0  0
   57.7941   -5.3500  -12.1668 C   0  0  0  0  0  0  0  0  0  0  0  0
   56.4096   -4.7459  -12.2440 C   0  0  0  0  0  0  0  0  0  0  0  0
   55.5162   -5.7593  -11.9310 O   0  0  0  0  0  0  0  0  0  0  0  0
   58.6624   -5.1571   -9.8637 N   0  0  0  0  0  0  0  0  0  0  0  0
   59.7149   -5.7963   -9.3830 C   0  0  0  0  0  0  0  0  0  0  0  0
   60.9220   -6.0326   -9.9882 C   0  0  0  0  0  0  0  0  0  0  0  0
   61.8892   -6.7345   -9.2794 C   0  0  0  0  0  0  0  0  0  0  0  0
   61.6414   -7.1793   -8.0061 C   0  0  0  0  0  0  0  0  0  0  0  0
   60.4095   -6.9395   -7.3854 C   0  0  0  0  0  0  0  0  0  0  0  0
   59.4669   -6.2492   -8.0907 C   0  0  0  0  0  0  0  0  0  0  0  0
   58.1833   -5.8481   -7.7972 C   0  0  0  0  0  0  0  0  0  0  0  0
   57.3617   -5.9999   -6.6951 C   0  0  0  0  0  0  0  0  0  0  0  0
   57.5061   -6.6196   -5.3902 C   0  0  0  0  0  0  0  0  0  0  0  0
   58.4576   -7.2162   -4.8836 O   0  0  0  0  0  0  0  0  0  0  0  0
   56.2733   -6.4317   -4.6882 N   0  0  0  0  0  0  0  0  0  0  0  0
   55.3265   -5.7122   -5.5051 C   0  0  0  0  0  0  0  0  0  0  0  0
   56.0873   -5.4674   -6.7548 C   0  0  0  0  0  0  0  0  0  0  0  0
   55.6168   -4.7929   -7.8761 C   0  0  0  0  0  0  0  0  0  0  0  0
   54.4443   -4.1984   -8.2218 C   0  0  0  0  0  0  0  0  0  0  0  0
   53.2715   -4.0677   -7.5144 C   0  0  0  0  0  0  0  0  0  0  0  0
   52.1871   -3.4196   -8.1130 C   0  0  0  0  0  0  0  0  0  0  0  0
   52.3324   -2.9320   -9.3994 C   0  0  0  0  0  0  0  0  0  0  0  0
   53.5229   -3.0762  -10.0905 C   0  0  0  0  0  0  0  0  0  0  0  0
   54.6018   -3.7086   -9.5208 C   0  0  0  0  0  0  0  0  0  0  0  0
   55.8526   -3.9893   -9.9751 N   0  0  0  0  0  0  0  0  0  0  0  0
   56.4507   -4.6627   -8.9352 C   0  0  0  0  0  0  0  0  0  0  0  0
   57.7270   -5.1807   -8.9135 C   0  0  0  0  0  0  0  0  0  0  0  0
   55.2619   -6.2162  -12.7686 H   0  0  0  0  0  0  0  0  0  0  0  0
   56.0468   -6.7576   -3.7098 H   0  0  0  0  0  0  0  0  0  0  0  0
   56.1674   -4.3143  -13.6507 C   0  0  0  0  0  0  0  0  0  0  0  0
   56.3498   -5.4170  -14.4859 O   0  0  0  0  0  0  0  0  0  0  0  0
   57.1671   -5.3440  -15.0414 H   0  0  0  0  0  0  0  0  0  0  0  0
  2  1  1  0  0  0
  2  3  1  0  0  0
  3  4  1  0  0  0
  4  5  1  0  0  0
  5  6  1  0  0  0
  6  7  1  0  0  0
  6 34  1  0  0  0
 34 35  1  0  0  0
  4  8  1  0  0  0
  8  9  1  0  0  0
  9 10  2  0  0  0
 10 11  1  0  0  0
 11 12  2  0  0  0
 12 13  1  0  0  0
 13 14  2  0  0  0
 14 15  1  0  0  0
 15 16  2  0  0  0
 16 17  1  0  0  0
 17 18  2  0  0  0
 17 19  1  0  0  0
 19 20  1  0  0  0
 20 21  1  0  0  0
 21 22  2  0  0  0
 22 23  1  0  0  0
 23 24  2  0  0  0
 24 25  1  0  0  0
 25 26  2  0  0  0
 26 27  1  0  0  0
 27 28  2  0  0  0
 28 29  1  0  0  0
 29 30  1  0  0  0
 30 31  2  0  0  0
  6  2  1  0  0  0
 31  8  1  0  0  0
 29  2  1  0  0  0
 14  9  1  0  0  0
 31 15  1  0  0  0
 21 16  1  0  0  0
 30 22  1  0  0  0
 28 23  1  0  0  0
  7 32  1  0  0  0
 35 36  1  0  0  0
 19 33  1  0  0  0
M  END
> <minimizedAffinity>
2.74209

> <CNNscore>
0.3512608707

> <CNNaffinity>
5.9160537720

> <CNN_VS>
2.0780782700

> <CNNaffinity_variance>
0.3250520229

$$$$
[H]OC([H])([H])[C@@]1(O[H])C([H])([H])[C@@]2([H])O[C@]1(C([H])([H])[H])n1c3c([H])c([H])c([H])c([H])c3c3c4c(c5c6c([H])c([H])c([H])c([H])c6n2c5c31)C(=O)N([H])C4([H])[H]


 36 43  0  0  0  0  0  0  0  0999 V2000
   61.2432   -4.5307  -16.2301 C   0  0  0  0  0  0  0  0  0  0  0  0
   61.1313   -4.2188  -14.7771 C   0  0  0  0  0  0  0  0  0  0  0  0
   59.7807   -4.5965  -14.5396 O   0  0  0  0  0  0  0  0  0  0  0  0
   59.2621   -3.8427  -13.5432 C   0  0  0  0  0  0  0  0  0  0  0  0
   59.8899   -2.5168  -13.6192 C   0  0  0  0  0  0  0  0  0  0  0  0
   61.1243   -2.7524  -14.4610 C   0  0  0  0  0  0  0  0  0  0  0  0
   62.2094   -2.3552  -13.6942 O   0  0  0  0  0  0  0  0  0  0  0  0
   59.4208   -4.5151  -12.2471 N   0  0  0  0  0  0  0  0  0  0  0  0
   58.5855   -4.5660  -11.2239 C   0  0  0  0  0  0  0  0  0  0  0  0
   57.3444   -3.9964  -11.1039 C   0  0  0  0  0  0  0  0  0  0  0  0
   56.6421   -4.1884   -9.9204 C   0  0  0  0  0  0  0  0  0  0  0  0
   57.1780   -4.9296   -8.8987 C   0  0  0  0  0  0  0  0  0  0  0  0
   58.4453   -5.5126   -9.0185 C   0  0  0  0  0  0  0  0  0  0  0  0
   59.1262   -5.3176  -10.1850 C   0  0  0  0  0  0  0  0  0  0  0  0
   60.3604   -5.7328  -10.6311 C   0  0  0  0  0  0  0  0  0  0  0  0
   61.3766   -6.4857  -10.0715 C   0  0  0  0  0  0  0  0  0  0  0  0
   61.5652   -7.1657   -8.8027 C   0  0  0  0  0  0  0  0  0  0  0  0
   60.8257   -7.2582   -7.8217 O   0  0  0  0  0  0  0  0  0  0  0  0
   62.8561   -7.7827   -8.8353 N   0  0  0  0  0  0  0  0  0  0  0  0
   63.5168   -7.5156  -10.0898 C   0  0  0  0  0  0  0  0  0  0  0  0
   62.5187   -6.6974  -10.8213 C   0  0  0  0  0  0  0  0  0  0  0  0
   62.6703   -6.1820  -12.1038 C   0  0  0  0  0  0  0  0  0  0  0  0
   63.6532   -6.2067  -13.0425 C   0  0  0  0  0  0  0  0  0  0  0  0
   64.8958   -6.7966  -13.0131 C   0  0  0  0  0  0  0  0  0  0  0  0
   65.7400   -6.6551  -14.1184 C   0  0  0  0  0  0  0  0  0  0  0  0
   65.2945   -5.9243  -15.2052 C   0  0  0  0  0  0  0  0  0  0  0  0
   64.0397   -5.3403  -15.2104 C   0  0  0  0  0  0  0  0  0  0  0  0
   63.1932   -5.4678  -14.1355 C   0  0  0  0  0  0  0  0  0  0  0  0
   61.9434   -4.9944  -13.8837 N   0  0  0  0  0  0  0  0  0  0  0  0
   61.6532   -5.4512  -12.6189 C   0  0  0  0  0  0  0  0  0  0  0  0
   60.5003   -5.2178  -11.9018 C   0  0  0  0  0  0  0  0  0  0  0  0
   62.3822   -1.4000  -13.8752 H   0  0  0  0  0  0  0  0  0  0  0  0
   63.3003   -8.3600   -8.0711 H   0  0  0  0  0  0  0  0  0  0  0  0
   61.0429   -1.8739  -15.6632 C   0  0  0  0  0  0  0  0  0  0  0  0
   59.7028   -1.7616  -16.0351 O   0  0  0  0  0  0  0  0  0  0  0  0
   59.5002   -2.2372  -16.8805 H   0  0  0  0  0  0  0  0  0  0  0  0
  2  1  1  0  0  0
  2  3  1  0  0  0
  3  4  1  0  0  0
  4  5  1  0  0  0
  5  6  1  0  0  0
  6  7  1  0  0  0
  6 34  1  0  0  0
 34 35  1  0  0  0
  4  8  1  0  0  0
  8  9  1  0  0  0
  9 10  2  0  0  0
 10 11  1  0  0  0
 11 12  2  0  0  0
 12 13  1  0  0  0
 13 14  2  0  0  0
 14 15  1  0  0  0
 15 16  2  0  0  0
 16 17  1  0  0  0
 17 18  2  0  0  0
 17 19  1  0  0  0
 19 20  1  0  0  0
 20 21  1  0  0  0
 21 22  2  0  0  0
 22 23  1  0  0  0
 23 24  2  0  0  0
 24 25  1  0  0  0
 25 26  2  0  0  0
 26 27  1  0  0  0
 27 28  2  0  0  0
 28 29  1  0  0  0
 29 30  1  0  0  0
 30 31  2  0  0  0
  6  2  1  0  0  0
 31  8  1  0  0  0
 29  2  1  0  0  0
 14  9  1  0  0  0
 31 15  1  0  0  0
 21 16  1  0  0  0
 30 22  1  0  0  0
 28 23  1  0  0  0
  7 32  1  0  0  0
 35 36  1  0  0  0
 19 33  1  0  0  0
M  END
> <minimizedAffinity>
0.70452

> <CNNscore>
0.3013141751

> <CNNaffinity>
4.6180534363

> <CNN_VS>
1.3914849758

> <CNNaffinity_variance>
0.5053692460

$$$$
[H]OC([H])([H])[C@@]1(O[H])C([H])([H])[C@@]2([H])O[C@]1(C([H])([H])[H])n1c3c([H])c([H])c([H])c([H])c3c3c4c(c5c6c([H])c([H])c([H])c([H])c6n2c5c31)C(=O)N([H])C4([H])[H]


 36 43  0  0  0  0  0  0  0  0999 V2000
   59.0731   -4.2782  -17.3362 C   0  0  0  0  0  0  0  0  0  0  0  0
   59.3245   -3.8761  -15.9233 C   0  0  0  0  0  0  0  0  0  0  0  0
   58.2502   -4.5450  -15.2741 O   0  0  0  0  0  0  0  0  0  0  0  0
   57.8782   -3.8536  -14.1725 C   0  0  0  0  0  0  0  0  0  0  0  0
   58.0936   -2.4277  -14.4518 C   0  0  0  0  0  0  0  0  0  0  0  0
   59.0374   -2.4324  -15.6338 C   0  0  0  0  0  0  0  0  0  0  0  0
   60.1626   -1.7204  -15.2462 O   0  0  0  0  0  0  0  0  0  0  0  0
   58.5832   -4.3518  -12.9842 N   0  0  0  0  0  0  0  0  0  0  0  0
   58.1337   -4.5121  -11.7515 C   0  0  0  0  0  0  0  0  0  0  0  0
   56.8828   -4.2493  -11.2563 C   0  0  0  0  0  0  0  0  0  0  0  0
   56.6396   -4.4999   -9.9114 C   0  0  0  0  0  0  0  0  0  0  0  0
   57.6270   -4.9980   -9.1006 C   0  0  0  0  0  0  0  0  0  0  0  0
   58.9056   -5.2674   -9.6036 C   0  0  0  0  0  0  0  0  0  0  0  0
   59.1334   -5.0175  -10.9258 C   0  0  0  0  0  0  0  0  0  0  0  0
   60.2411   -5.1614  -11.7301 C   0  0  0  0  0  0  0  0  0  0  0  0
   61.5352   -5.5959  -11.5079 C   0  0  0  0  0  0  0  0  0  0  0  0
   62.2614   -6.0966  -10.3548 C   0  0  0  0  0  0  0  0  0  0  0  0
   61.8981   -6.2777   -9.1915 O   0  0  0  0  0  0  0  0  0  0  0  0
   63.5963   -6.3856  -10.7819 N   0  0  0  0  0  0  0  0  0  0  0  0
   63.7608   -6.0786  -12.1820 C   0  0  0  0  0  0  0  0  0  0  0  0
   62.4155   -5.5917  -12.5738 C   0  0  0  0  0  0  0  0  0  0  0  0
   62.0400   -5.1695  -13.8444 C   0  0  0  0  0  0  0  0  0  0  0  0
   62.6697   -5.0394  -15.0420 C   0  0  0  0  0  0  0  0  0  0  0  0
   63.9719   -5.3084  -15.3955 C   0  0  0  0  0  0  0  0  0  0  0  0
   64.3818   -5.0656  -16.7098 C   0  0  0  0  0  0  0  0  0  0  0  0
   63.4607   -4.5616  -17.6104 C   0  0  0  0  0  0  0  0  0  0  0  0
   62.1560   -4.2991  -17.2302 C   0  0  0  0  0  0  0  0  0  0  0  0
   61.7313   -4.5315  -15.9441 C   0  0  0  0  0  0  0  0  0  0  0  0
   60.5364   -4.3523  -15.3202 N   0  0  0  0  0  0  0  0  0  0  0  0
   60.7641   -4.7527  -14.0239 C   0  0  0  0  0  0  0  0  0  0  0  0
   59.8586   -4.7414  -12.9858 C   0  0  0  0  0  0  0  0  0  0  0  0
   60.0231   -0.7713  -15.4804 H   0  0  0  0  0  0  0  0  0  0  0  0
   64.3807   -6.7699  -10.1887 H   0  0  0  0  0  0  0  0  0  0  0  0
   58.3789   -1.7082  -16.7587 C   0  0  0  0  0  0  0  0  0  0  0  0
   59.3301   -0.8925  -17.3724 O   0  0  0  0  0  0  0  0  0  0  0  0
   59.1711    0.0712  -17.2057 H   0  0  0  0  0  0  0  0  0  0  0  0
  2  1  1  0  0  0
  2  3  1  0  0  0
  3  4  1  0  0  0
  4  5  1  0  0  0
  5  6  1  0  0  0
  6  7  1  0  0  0
  6 34  1  0  0  0
 34 35  1  0  0  0
  4  8  1  0  0  0
  8  9  1  0  0  0
  9 10  2  0  0  0
 10 11  1  0  0  0
 11 12  2  0  0  0
 12 13  1  0  0  0
 13 14  2  0  0  0
 14 15  1  0  0  0
 15 16  2  0  0  0
 16 17  1  0  0  0
 17 18  2  0  0  0
 17 19  1  0  0  0
 19 20  1  0  0  0
 20 21  1  0  0  0
 21 22  2  0  0  0
 22 23  1  0  0  0
 23 24  2  0  0  0
 24 25  1  0  0  0
 25 26  2  0  0  0
 26 27  1  0  0  0
 27 28  2  0  0  0
 28 29  1  0  0  0
 29 30  1  0  0  0
 30 31  2  0  0  0
  6  2  1  0  0  0
 31  8  1  0  0  0
 29  2  1  0  0  0
 14  9  1  0  0  0
 31 15  1  0  0  0
 21 16  1  0  0  0
 30 22  1  0  0  0
 28 23  1  0  0  0
  7 32  1  0  0  0
 35 36  1  0  0  0
 19 33  1  0  0  0
M  END
> <minimizedAffinity>
5.19974

> <CNNscore>
0.2948720455

> <CNNaffinity>
4.6382708549

> <CNN_VS>
1.3676964045

> <CNNaffinity_variance>
0.6070107222

$$$$
[H]OC([H])([H])[C@@]1(O[H])C([H])([H])[C@@]2([H])O[C@]1(C([H])([H])[H])n1c3c([H])c([H])c([H])c([H])c3c3c4c(c5c6c([H])c([H])c([H])c([H])c6n2c5c31)C(=O)N([H])C4([H])[H]


 36 43  0  0  0  0  0  0  0  0999 V2000
   58.1290   -4.7807  -14.2509 C   0  0  0  0  0  0  0  0  0  0  0  0
   58.3685   -4.4639  -12.8144 C   0  0  0  0  0  0  0  0  0  0  0  0
   57.3281   -5.2226  -12.2102 O   0  0  0  0  0  0  0  0  0  0  0  0
   56.9305   -4.6243  -11.0639 C   0  0  0  0  0  0  0  0  0  0  0  0
   57.0807   -3.1746  -11.2466 C   0  0  0  0  0  0  0  0  0  0  0  0
   58.0185   -3.0573  -12.4276 C   0  0  0  0  0  0  0  0  0  0  0  0
   59.1124   -2.3232  -11.9945 O   0  0  0  0  0  0  0  0  0  0  0  0
   57.6624   -5.1693   -9.9130 N   0  0  0  0  0  0  0  0  0  0  0  0
   57.2261   -5.4324   -8.6933 C   0  0  0  0  0  0  0  0  0  0  0  0
   55.9670   -5.2599   -8.1796 C   0  0  0  0  0  0  0  0  0  0  0  0
   55.7412   -5.6113   -6.8544 C   0  0  0  0  0  0  0  0  0  0  0  0
   56.7537   -6.1180   -6.0806 C   0  0  0  0  0  0  0  0  0  0  0  0
   58.0407   -6.2953   -6.6025 C   0  0  0  0  0  0  0  0  0  0  0  0
   58.2512   -5.9469   -7.9051 C   0  0  0  0  0  0  0  0  0  0  0  0
   59.3605   -5.9863   -8.7189 C   0  0  0  0  0  0  0  0  0  0  0  0
   60.6737   -6.3762   -8.5284 C   0  0  0  0  0  0  0  0  0  0  0  0
   61.4268   -6.9205   -7.4129 C   0  0  0  0  0  0  0  0  0  0  0  0
   61.0772   -7.1957   -6.2640 O   0  0  0  0  0  0  0  0  0  0  0  0
   62.7714   -7.1197   -7.8606 N   0  0  0  0  0  0  0  0  0  0  0  0
   62.9157   -6.7120   -9.2369 C   0  0  0  0  0  0  0  0  0  0  0  0
   61.5481   -6.2608   -9.5930 C   0  0  0  0  0  0  0  0  0  0  0  0
   61.1485   -5.7712  -10.8316 C   0  0  0  0  0  0  0  0  0  0  0  0
   61.7663   -5.5325  -12.0187 C   0  0  0  0  0  0  0  0  0  0  0  0
   63.0776   -5.7183  -12.3914 C   0  0  0  0  0  0  0  0  0  0  0  0
   63.4703   -5.3693  -13.6869 C   0  0  0  0  0  0  0  0  0  0  0  0
   62.5235   -4.8477  -14.5501 C   0  0  0  0  0  0  0  0  0  0  0  0
   61.2101   -4.6702  -14.1511 C   0  0  0  0  0  0  0  0  0  0  0  0
   60.8021   -5.0076  -12.8830 C   0  0  0  0  0  0  0  0  0  0  0  0
   59.6031   -4.9247  -12.2466 N   0  0  0  0  0  0  0  0  0  0  0  0
   59.8544   -5.4009  -10.9807 C   0  0  0  0  0  0  0  0  0  0  0  0
   58.9539   -5.5003   -9.9428 C   0  0  0  0  0  0  0  0  0  0  0  0
   58.9296   -1.3678  -12.1639 H   0  0  0  0  0  0  0  0  0  0  0  0
   63.5748   -7.5075   -7.2958 H   0  0  0  0  0  0  0  0  0  0  0  0
   57.3232   -2.2892  -13.5001 C   0  0  0  0  0  0  0  0  0  0  0  0
   56.0153   -2.7643  -13.6028 O   0  0  0  0  0  0  0  0  0  0  0  0
   55.8584   -3.2727  -14.4388 H   0  0  0  0  0  0  0  0  0  0  0  0
  2  1  1  0  0  0
  2  3  1  0  0  0
  3  4  1  0  0  0
  4  5  1  0  0  0
  5  6  1  0  0  0
  6  7  1  0  0  0
  6 34  1  0  0  0
 34 35  1  0  0  0
  4  8  1  0  0  0
  8  9  1  0  0  0
  9 10  2  0  0  0
 10 11  1  0  0  0
 11 12  2  0  0  0
 12 13  1  0  0  0
 13 14  2  0  0  0
 14 15  1  0  0  0
 15 16  2  0  0  0
 16 17  1  0  0  0
 17 18  2  0  0  0
 17 19  1  0  0  0
 19 20  1  0  0  0
 20 21  1  0  0  0
 21 22  2  0  0  0
 22 23  1  0  0  0
 23 24  2  0  0  0
 24 25  1  0  0  0
 25 26  2  0  0  0
 26 27  1  0  0  0
 27 28  2  0  0  0
 28 29  1  0  0  0
 29 30  1  0  0  0
 30 31  2  0  0  0
  6  2  1  0  0  0
 31  8  1  0  0  0
 29  2  1  0  0  0
 14  9  1  0  0  0
 31 15  1  0  0  0
 21 16  1  0  0  0
 30 22  1  0  0  0
 28 23  1  0  0  0
  7 32  1  0  0  0
 35 36  1  0  0  0
 19 33  1  0  0  0
M  END
> <minimizedAffinity>
10.76409

> <CNNscore>
0.2940688431

> <CNNaffinity>
5.0710725784

> <CNN_VS>
1.4912444353

> <CNNaffinity_variance>
0.1874392480

$$$$
[H]OC([H])([H])[C@@]1(O[H])C([H])([H])[C@@]2([H])O[C@]1(C([H])([H])[H])n1c3c([H])c([H])c([H])c([H])c3c3c4c(c5c6c([H])c([H])c([H])c([H])c6n2c5c31)C(=O)N([H])C4([H])[H]


 36 43  0  0  0  0  0  0  0  0999 V2000
   62.9247  -10.0727   -5.7388 C   0  0  0  0  0  0  0  0  0  0  0  0
   62.0702   -9.0994   -5.0016 C   0  0  0  0  0  0  0  0  0  0  0  0
   61.0471   -8.8792   -5.9648 O   0  0  0  0  0  0  0  0  0  0  0  0
   60.5518   -7.6275   -5.8299 C   0  0  0  0  0  0  0  0  0  0  0  0
   61.6513   -6.7629   -5.3813 C   0  0  0  0  0  0  0  0  0  0  0  0
   62.6794   -7.7369   -4.8499 C   0  0  0  0  0  0  0  0  0  0  0  0
   62.9109   -7.3877   -3.5279 O   0  0  0  0  0  0  0  0  0  0  0  0
   59.3796   -7.6257   -4.9451 N   0  0  0  0  0  0  0  0  0  0  0  0
   58.2609   -6.9281   -5.0409 C   0  0  0  0  0  0  0  0  0  0  0  0
   57.9023   -6.0140   -5.9975 C   0  0  0  0  0  0  0  0  0  0  0  0
   56.6608   -5.3994   -5.8901 C   0  0  0  0  0  0  0  0  0  0  0  0
   55.8160   -5.7006   -4.8528 C   0  0  0  0  0  0  0  0  0  0  0  0
   56.1795   -6.6338   -3.8744 C   0  0  0  0  0  0  0  0  0  0  0  0
   57.4010   -7.2313   -3.9896 C   0  0  0  0  0  0  0  0  0  0  0  0
   58.0621   -8.1684   -3.2284 C   0  0  0  0  0  0  0  0  0  0  0  0
   57.7527   -8.8456   -2.0629 C   0  0  0  0  0  0  0  0  0  0  0  0
   56.6089   -8.8721   -1.1691 C   0  0  0  0  0  0  0  0  0  0  0  0
   55.5414   -8.2584   -1.2100 O   0  0  0  0  0  0  0  0  0  0  0  0
   56.9061   -9.7999   -0.1208 N   0  0  0  0  0  0  0  0  0  0  0  0
   58.2175  -10.3728   -0.3043 C   0  0  0  0  0  0  0  0  0  0  0  0
   58.6878   -9.7279   -1.5546 C   0  0  0  0  0  0  0  0  0  0  0  0
   59.9124   -9.9499   -2.1750 C   0  0  0  0  0  0  0  0  0  0  0  0
   61.0028  -10.7165   -1.9087 C   0  0  0  0  0  0  0  0  0  0  0  0
   61.2503  -11.5778   -0.8647 C   0  0  0  0  0  0  0  0  0  0  0  0
   62.4793  -12.2418   -0.8102 C   0  0  0  0  0  0  0  0  0  0  0  0
   63.4056  -12.0079   -1.8107 C   0  0  0  0  0  0  0  0  0  0  0  0
   63.1327  -11.1363   -2.8507 C   0  0  0  0  0  0  0  0  0  0  0  0
   61.9308  -10.4742   -2.9247 C   0  0  0  0  0  0  0  0  0  0  0  0
   61.4254   -9.5752   -3.8112 N   0  0  0  0  0  0  0  0  0  0  0  0
   60.1790   -9.2699   -3.3154 C   0  0  0  0  0  0  0  0  0  0  0  0
   59.2728   -8.3816   -3.8516 C   0  0  0  0  0  0  0  0  0  0  0  0
   63.6530   -6.7368   -3.5060 H   0  0  0  0  0  0  0  0  0  0  0  0
   56.2822  -10.0577    0.6910 H   0  0  0  0  0  0  0  0  0  0  0  0
   63.9418   -7.5485   -5.6209 C   0  0  0  0  0  0  0  0  0  0  0  0
   64.9992   -7.4529   -4.7156 O   0  0  0  0  0  0  0  0  0  0  0  0
   65.3792   -6.5391   -4.6677 H   0  0  0  0  0  0  0  0  0  0  0  0
  2  1  1  0  0  0
  2  3  1  0  0  0
  3  4  1  0  0  0
  4  5  1  0  0  0
  5  6  1  0  0  0
  6  7  1  0  0  0
  6 34  1  0  0  0
 34 35  1  0  0  0
  4  8  1  0  0  0
  8  9  1  0  0  0
  9 10  2  0  0  0
 10 11  1  0  0  0
 11 12  2  0  0  0
 12 13  1  0  0  0
 13 14  2  0  0  0
 14 15  1  0  0  0
 15 16  2  0  0  0
 16 17  1  0  0  0
 17 18  2  0  0  0
 17 19  1  0  0  0
 19 20  1  0  0  0
 20 21  1  0  0  0
 21 22  2  0  0  0
 22 23  1  0  0  0
 23 24  2  0  0  0
 24 25  1  0  0  0
 25 26  2  0  0  0
 26 27  1  0  0  0
 27 28  2  0  0  0
 28 29  1  0  0  0
 29 30  1  0  0  0
 30 31  2  0  0  0
  6  2  1  0  0  0
 31  8  1  0  0  0
 29  2  1  0  0  0
 14  9  1  0  0  0
 31 15  1  0  0  0
 21 16  1  0  0  0
 30 22  1  0  0  0
 28 23  1  0  0  0
  7 32  1  0  0  0
 35 36  1  0  0  0
 19 33  1  0  0  0
M  END
> <minimizedAffinity>
2.82897

> <CNNscore>
0.2705294192

> <CNNaffinity>
4.9992237091

> <CNN_VS>
1.3524371386

> <CNNaffinity_variance>
0.4699259698

$$$$
[H]c1nc(N([H])c2c([H])c([H])c(N3C([H])([H])C([H])([H])C([H])(N4C([H])([H])C([H])([H])N(C([H])([H])[H])C([H])([H])C4([H])[H])C([H])([H])C3([H])[H])c([H])c2OC([H])([H])[H])nc(N([H])c2c([H])c([H])c([H])c([H])c2S(=O)(=O)C([H])(C([H])([H])[H])C([H])([H])[H])c1Cl


 44 48  0  0  0  0  0  0  0  0999 V2000
   55.0020   -3.4106   -9.9583 N   0  0  0  0  0  0  0  0  0  0  0  0
   55.0092   -2.8479  -10.8827 H   0  0  0  0  0  0  0  0  0  0  0  0
   53.8207   -3.3136   -9.1762 C   0  0  0  0  0  0  0  0  0  0  0  0
   52.9464   -2.3043   -9.1894 N   0  0  0  0  0  0  0  0  0  0  0  0
   51.8480   -2.2774   -8.4242 C   0  0  0  0  0  0  0  0  0  0  0  0
   51.5798   -3.3244   -7.5739 C   0  0  0  0  0  0  0  0  0  0  0  0
   50.1400   -3.3066   -6.5603 Cl  0  0  0  0  0  0  0  0  0  0  0  0
   52.4877   -4.4030   -7.5410 C   0  0  0  0  0  0  0  0  0  0  0  0
   53.5533   -4.3364   -8.3417 N   0  0  0  0  0  0  0  0  0  0  0  0
   52.1897   -5.4593   -6.6665 N   0  0  0  0  0  0  0  0  0  0  0  0
   52.0630   -6.4101   -7.1469 H   0  0  0  0  0  0  0  0  0  0  0  0
   52.0275   -5.4979   -5.2734 C   0  0  0  0  0  0  0  0  0  0  0  0
   50.7983   -5.2200   -4.7140 C   0  0  0  0  0  0  0  0  0  0  0  0
   50.6204   -5.2525   -3.3248 C   0  0  0  0  0  0  0  0  0  0  0  0
   51.6817   -5.5635   -2.5288 C   0  0  0  0  0  0  0  0  0  0  0  0
   52.9076   -5.8407   -3.0902 C   0  0  0  0  0  0  0  0  0  0  0  0
   53.1096   -5.8162   -4.4454 C   0  0  0  0  0  0  0  0  0  0  0  0
   54.6429   -6.1652   -5.1292 S   0  0  0  0  0  0  0  0  0  0  0  0
   55.3487   -4.8818   -5.4884 O   0  0  0  0  0  0  0  0  0  0  0  0
   54.6000   -7.0267   -6.3602 O   0  0  0  0  0  0  0  0  0  0  0  0
   55.7240   -7.0072   -3.9888 C   0  0  0  0  0  0  0  0  0  0  0  0
   55.1904   -8.3614   -3.6511 C   0  0  0  0  0  0  0  0  0  0  0  0
   57.1605   -6.9669   -4.3913 C   0  0  0  0  0  0  0  0  0  0  0  0
   56.9437   -4.5494  -10.7979 C   0  0  0  0  0  0  0  0  0  0  0  0
   58.1093   -5.2735  -10.6270 C   0  0  0  0  0  0  0  0  0  0  0  0
   58.5674   -5.6287   -9.3778 C   0  0  0  0  0  0  0  0  0  0  0  0
   57.8020   -5.2233   -8.3116 C   0  0  0  0  0  0  0  0  0  0  0  0
   56.6189   -4.4907   -8.4490 C   0  0  0  0  0  0  0  0  0  0  0  0
   56.1673   -4.1397   -9.6964 C   0  0  0  0  0  0  0  0  0  0  0  0
   59.7788   -6.3716   -9.2167 N   0  0  0  0  0  0  0  0  0  0  0  0
   60.7010   -5.9530   -8.2173 C   0  0  0  0  0  0  0  0  0  0  0  0
   61.7672   -6.9456   -7.8477 C   0  0  0  0  0  0  0  0  0  0  0  0
   62.3767   -7.6572   -9.0084 C   0  0  0  0  0  0  0  0  0  0  0  0
   61.5584   -7.5289  -10.2777 C   0  0  0  0  0  0  0  0  0  0  0  0
   60.0869   -7.5181  -10.0374 C   0  0  0  0  0  0  0  0  0  0  0  0
   62.7384   -9.0064   -8.8281 N   0  0  0  0  0  0  0  0  0  0  0  0
   63.0808   -9.7853   -9.9441 C   0  0  0  0  0  0  0  0  0  0  0  0
   63.0538  -11.2681   -9.5630 C   0  0  0  0  0  0  0  0  0  0  0  0
   63.7207  -11.4077   -8.2830 N   0  0  0  0  0  0  0  0  0  0  0  0
   65.1349  -11.2163   -8.3344 C   0  0  0  0  0  0  0  0  0  0  0  0
   63.0447  -10.7402   -7.2178 C   0  0  0  0  0  0  0  0  0  0  0  0
   62.0566   -9.7362   -7.8078 C   0  0  0  0  0  0  0  0  0  0  0  0
   57.5167   -3.8640  -13.0339 C   0  0  0  0  0  0  0  0  0  0  0  0
   56.5404   -4.2255  -12.0841 O   0  0  0  0  0  0  0  0  0  0  0  0
 43 44  1  0  0  0
 44 24  1  0  0  0
 24 25  2  0  0  0
 25 26  1  0  0  0
 26 27  2  0  0  0
 27 28  1  0  0  0
 28 29  2  0  0  0
 29  1  1  0  0  0
  1  3  1  0  0  0
  3  4  2  0  0  0
  4  5  1  0  0  0
  5  6  2  0  0  0
  6  7  1  0  0  0
  6  8  1  0  0  0
  8 10  1  0  0  0
 10 12  1  0  0  0
 12 13  2  0  0  0
 13 14  1  0  0  0
 14 15  2  0  0  0
 15 16  1  0  0  0
 16 17  2  0  0  0
 17 18  1  0  0  0
 18 19  2  0  0  0
 18 20  2  0  0  0
 18 21  1  0  0  0
 21 22  1  0  0  0
 21 23  1  0  0  0
  8  9  2  0  0  0
 26 30  1  0  0  0
 30 31  1  0  0  0
 31 32  1  0  0  0
 32 33  1  0  0  0
 33 34  1  0  0  0
 34 35  1  0  0  0
 33 36  1  0  0  0
 36 37  1  0  0  0
 37 38  1  0  0  0
 38 39  1  0  0  0
 39 40  1  0  0  0
 39 41  1  0  0  0
 41 42  1  0  0  0
 29 24  1  0  0  0
  9  3  1  0  0  0
 35 30  1  0  0  0
 42 36  1  0  0  0
 17 12  1  0  0  0
  1  2  1  0  0  0
 10 11  1  0  0  0
M  END
> <minimizedAffinity>
-9.50101

> <CNNscore>
0.9266451001

> <CNNaffinity>
8.1607112885

> <CNN_VS>
7.5620832443

> <CNNaffinity_variance>
0.0884491652

$$$$
[H]c1nc(N([H])c2c([H])c([H])c(N3C([H])([H])C([H])([H])C([H])(N4C([H])([H])C([H])([H])N(C([H])([H])[H])C([H])([H])C4([H])[H])C([H])([H])C3([H])[H])c([H])c2OC([H])([H])[H])nc(N([H])c2c([H])c([H])c([H])c([H])c2S(=O)(=O)C([H])(C([H])([H])[H])C([H])([H])[H])c1Cl


 44 48  0  0  0  0  0  0  0  0999 V2000
   54.7512   -3.6890  -10.1841 N   0  0  0  0  0  0  0  0  0  0  0  0
   54.6142   -3.3520  -11.2033 H   0  0  0  0  0  0  0  0  0  0  0  0
   53.6496   -3.4977   -9.3087 C   0  0  0  0  0  0  0  0  0  0  0  0
   52.8686   -2.4162   -9.2479 N   0  0  0  0  0  0  0  0  0  0  0  0
   51.8418   -2.3019   -8.3963 C   0  0  0  0  0  0  0  0  0  0  0  0
   51.5523   -3.3302   -7.5304 C   0  0  0  0  0  0  0  0  0  0  0  0
   50.2057   -3.1977   -6.4035 Cl  0  0  0  0  0  0  0  0  0  0  0  0
   52.3621   -4.4839   -7.5744 C   0  0  0  0  0  0  0  0  0  0  0  0
   53.3617   -4.5019   -8.4584 N   0  0  0  0  0  0  0  0  0  0  0  0
   52.0443   -5.5191   -6.6819 N   0  0  0  0  0  0  0  0  0  0  0  0
   51.8719   -6.4695   -7.1488 H   0  0  0  0  0  0  0  0  0  0  0  0
   51.9111   -5.5371   -5.2853 C   0  0  0  0  0  0  0  0  0  0  0  0
   50.6896   -5.2675   -4.7052 C   0  0  0  0  0  0  0  0  0  0  0  0
   50.5406   -5.2798   -3.3124 C   0  0  0  0  0  0  0  0  0  0  0  0
   51.6223   -5.5625   -2.5335 C   0  0  0  0  0  0  0  0  0  0  0  0
   52.8404   -5.8314   -3.1155 C   0  0  0  0  0  0  0  0  0  0  0  0
   53.0144   -5.8263   -4.4748 C   0  0  0  0  0  0  0  0  0  0  0  0
   54.5383   -6.1646   -5.1843 S   0  0  0  0  0  0  0  0  0  0  0  0
   55.2191   -4.8773   -5.5762 O   0  0  0  0  0  0  0  0  0  0  0  0
   54.4827   -7.0446   -6.4016 O   0  0  0  0  0  0  0  0  0  0  0  0
   55.6536   -6.9751   -4.0540 C   0  0  0  0  0  0  0  0  0  0  0  0
   55.1634   -8.3450   -3.7135 C   0  0  0  0  0  0  0  0  0  0  0  0
   57.0848   -6.8915   -4.4683 C   0  0  0  0  0  0  0  0  0  0  0  0
   56.8555   -4.5158  -10.9967 C   0  0  0  0  0  0  0  0  0  0  0  0
   58.1059   -5.0767  -10.8115 C   0  0  0  0  0  0  0  0  0  0  0  0
   58.5747   -5.4097   -9.5602 C   0  0  0  0  0  0  0  0  0  0  0  0
   57.7311   -5.1534   -8.5067 C   0  0  0  0  0  0  0  0  0  0  0  0
   56.4613   -4.5878   -8.6588 C   0  0  0  0  0  0  0  0  0  0  0  0
   55.9995   -4.2581   -9.9082 C   0  0  0  0  0  0  0  0  0  0  0  0
   59.8733   -5.9823   -9.3839 N   0  0  0  0  0  0  0  0  0  0  0  0
   60.6818   -6.1926  -10.5356 C   0  0  0  0  0  0  0  0  0  0  0  0
   62.1388   -6.4566  -10.2782 C   0  0  0  0  0  0  0  0  0  0  0  0
   62.4061   -7.3864   -9.1429 C   0  0  0  0  0  0  0  0  0  0  0  0
   61.2033   -7.5818   -8.2417 C   0  0  0  0  0  0  0  0  0  0  0  0
   60.3746   -6.3526   -8.0821 C   0  0  0  0  0  0  0  0  0  0  0  0
   63.5411   -7.1341   -8.3479 N   0  0  0  0  0  0  0  0  0  0  0  0
   64.4921   -6.1964   -8.7787 C   0  0  0  0  0  0  0  0  0  0  0  0
   65.7860   -6.3732   -7.9791 C   0  0  0  0  0  0  0  0  0  0  0  0
   65.4252   -6.5300   -6.5835 N   0  0  0  0  0  0  0  0  0  0  0  0
   64.9419   -5.3371   -5.9649 C   0  0  0  0  0  0  0  0  0  0  0  0
   64.6671   -7.7114   -6.3251 C   0  0  0  0  0  0  0  0  0  0  0  0
   64.1057   -8.2402   -7.6433 C   0  0  0  0  0  0  0  0  0  0  0  0
   57.4158   -3.8293  -13.2355 C   0  0  0  0  0  0  0  0  0  0  0  0
   56.4463   -4.2048  -12.2842 O   0  0  0  0  0  0  0  0  0  0  0  0
 43 44  1  0  0  0
 44 24  1  0  0  0
 24 25  2  0  0  0
 25 26  1  0  0  0
 26 27  2  0  0  0
 27 28  1  0  0  0
 28 29  2  0  0  0
 29  1  1  0  0  0
  1  3  1  0  0  0
  3  4  2  0  0  0
  4  5  1  0  0  0
  5  6  2  0  0  0
  6  7  1  0  0  0
  6  8  1  0  0  0
  8 10  1  0  0  0
 10 12  1  0  0  0
 12 13  2  0  0  0
 13 14  1  0  0  0
 14 15  2  0  0  0
 15 16  1  0  0  0
 16 17  2  0  0  0
 17 18  1  0  0  0
 18 19  2  0  0  0
 18 20  2  0  0  0
 18 21  1  0  0  0
 21 22  1  0  0  0
 21 23  1  0  0  0
  8  9  2  0  0  0
 26 30  1  0  0  0
 30 31  1  0  0  0
 31 32  1  0  0  0
 32 33  1  0  0  0
 33 34  1  0  0  0
 34 35  1  0  0  0
 33 36  1  0  0  0
 36 37  1  0  0  0
 37 38  1  0  0  0
 38 39  1  0  0  0
 39 40  1  0  0  0
 39 41  1  0  0  0
 41 42  1  0  0  0
 29 24  1  0  0  0
  9  3  1  0  0  0
 35 30  1  0  0  0
 42 36  1  0  0  0
 17 12  1  0  0  0
  1  2  1  0  0  0
 10 11  1  0  0  0
M  END
> <minimizedAffinity>
-9.58954

> <CNNscore>
0.9050758481

> <CNNaffinity>
8.1857051849

> <CNN_VS>
7.4086842537

> <CNNaffinity_variance>
0.0465758257

$$$$
[H]c1nc(N([H])c2c([H])c([H])c(N3C([H])([H])C([H])([H])C([H])(N4C([H])([H])C([H])([H])N(C([H])([H])[H])C([H])([H])C4([H])[H])C([H])([H])C3([H])[H])c([H])c2OC([H])([H])[H])nc(N([H])c2c([H])c([H])c([H])c([H])c2S(=O)(=O)C([H])(C([H])([H])[H])C([H])([H])[H])c1Cl


 44 48  0  0  0  0  0  0  0  0999 V2000
   55.4251   -3.5014   -9.9730 N   0  0  0  0  0  0  0  0  0  0  0  0
   55.4514   -2.8756  -10.8555 H   0  0  0  0  0  0  0  0  0  0  0  0
   54.2256   -3.4623   -9.2139 C   0  0  0  0  0  0  0  0  0  0  0  0
   53.2108   -2.6114   -9.3854 N   0  0  0  0  0  0  0  0  0  0  0  0
   52.1041   -2.6309   -8.6321 C   0  0  0  0  0  0  0  0  0  0  0  0
   51.9766   -3.5597   -7.6260 C   0  0  0  0  0  0  0  0  0  0  0  0
   50.5283   -3.6005   -6.6253 Cl  0  0  0  0  0  0  0  0  0  0  0  0
   53.0346   -4.4701   -7.4241 C   0  0  0  0  0  0  0  0  0  0  0  0
   54.0957   -4.3699   -8.2272 N   0  0  0  0  0  0  0  0  0  0  0  0
   52.8786   -5.4086   -6.3925 N   0  0  0  0  0  0  0  0  0  0  0  0
   51.8587   -5.6510   -6.1643 H   0  0  0  0  0  0  0  0  0  0  0  0
   53.8172   -6.0900   -5.6031 C   0  0  0  0  0  0  0  0  0  0  0  0
   55.1176   -6.2265   -6.0408 C   0  0  0  0  0  0  0  0  0  0  0  0
   56.0661   -6.9055   -5.2652 C   0  0  0  0  0  0  0  0  0  0  0  0
   55.6869   -7.4325   -4.0672 C   0  0  0  0  0  0  0  0  0  0  0  0
   54.3880   -7.2945   -3.6329 C   0  0  0  0  0  0  0  0  0  0  0  0
   53.4400   -6.6353   -4.3709 C   0  0  0  0  0  0  0  0  0  0  0  0
   51.8262   -6.4711   -3.8151 S   0  0  0  0  0  0  0  0  0  0  0  0
   51.5178   -7.5506   -2.8082 O   0  0  0  0  0  0  0  0  0  0  0  0
   50.7811   -6.5358   -4.8934 O   0  0  0  0  0  0  0  0  0  0  0  0
   51.5492   -4.9275   -2.9672 C   0  0  0  0  0  0  0  0  0  0  0  0
   50.1013   -4.5593   -2.9918 C   0  0  0  0  0  0  0  0  0  0  0  0
   52.2050   -4.8583   -1.6285 C   0  0  0  0  0  0  0  0  0  0  0  0
   57.3260   -4.6778  -10.8532 C   0  0  0  0  0  0  0  0  0  0  0  0
   58.4858   -5.4164  -10.7065 C   0  0  0  0  0  0  0  0  0  0  0  0
   58.9744   -5.7630   -9.4665 C   0  0  0  0  0  0  0  0  0  0  0  0
   58.2456   -5.3340   -8.3841 C   0  0  0  0  0  0  0  0  0  0  0  0
   57.0693   -4.5862   -8.4969 C   0  0  0  0  0  0  0  0  0  0  0  0
   56.5872   -4.2439   -9.7352 C   0  0  0  0  0  0  0  0  0  0  0  0
   60.1796   -6.5211   -9.3306 N   0  0  0  0  0  0  0  0  0  0  0  0
   61.2212   -5.9951   -8.5166 C   0  0  0  0  0  0  0  0  0  0  0  0
   62.3009   -6.9631   -8.1216 C   0  0  0  0  0  0  0  0  0  0  0  0
   62.7546   -7.8635   -9.2210 C   0  0  0  0  0  0  0  0  0  0  0  0
   61.7968   -7.8934  -10.3951 C   0  0  0  0  0  0  0  0  0  0  0  0
   60.3640   -7.7885   -9.9959 C   0  0  0  0  0  0  0  0  0  0  0  0
   63.1048   -9.1840   -8.8785 N   0  0  0  0  0  0  0  0  0  0  0  0
   63.3414   -9.5098   -7.5342 C   0  0  0  0  0  0  0  0  0  0  0  0
   64.0669  -10.8559   -7.4523 C   0  0  0  0  0  0  0  0  0  0  0  0
   63.4117  -11.7677   -8.3698 N   0  0  0  0  0  0  0  0  0  0  0  0
   62.1128  -12.1884   -7.9512 C   0  0  0  0  0  0  0  0  0  0  0  0
   63.5226  -11.3709   -9.7364 C   0  0  0  0  0  0  0  0  0  0  0  0
   63.9317   -9.9007   -9.7956 C   0  0  0  0  0  0  0  0  0  0  0  0
   57.8329   -3.9282  -13.0846 C   0  0  0  0  0  0  0  0  0  0  0  0
   56.8907   -4.3637  -12.1313 O   0  0  0  0  0  0  0  0  0  0  0  0
 43 44  1  0  0  0
 44 24  1  0  0  0
 24 25  2  0  0  0
 25 26  1  0  0  0
 26 27  2  0  0  0
 27 28  1  0  0  0
 28 29  2  0  0  0
 29  1  1  0  0  0
  1  3  1  0  0  0
  3  4  2  0  0  0
  4  5  1  0  0  0
  5  6  2  0  0  0
  6  7  1  0  0  0
  6  8  1  0  0  0
  8 10  1  0  0  0
 10 12  1  0  0  0
 12 13  2  0  0  0
 13 14  1  0  0  0
 14 15  2  0  0  0
 15 16  1  0  0  0
 16 17  2  0  0  0
 17 18  1  0  0  0
 18 19  2  0  0  0
 18 20  2  0  0  0
 18 21  1  0  0  0
 21 22  1  0  0  0
 21 23  1  0  0  0
  8  9  2  0  0  0
 26 30  1  0  0  0
 30 31  1  0  0  0
 31 32  1  0  0  0
 32 33  1  0  0  0
 33 34  1  0  0  0
 34 35  1  0  0  0
 33 36  1  0  0  0
 36 37  1  0  0  0
 37 38  1  0  0  0
 38 39  1  0  0  0
 39 40  1  0  0  0
 39 41  1  0  0  0
 41 42  1  0  0  0
 29 24  1  0  0  0
  9  3  1  0  0  0
 35 30  1  0  0  0
 42 36  1  0  0  0
 17 12  1  0  0  0
  1  2  1  0  0  0
 10 11  1  0  0  0
M  END
> <minimizedAffinity>
-8.66592

> <CNNscore>
0.8474518657

> <CNNaffinity>
8.0202560425

> <CNN_VS>
6.7967810631

> <CNNaffinity_variance>
0.0223492254

$$$$
[H]c1nc(N([H])c2c([H])c([H])c(N3C([H])([H])C([H])([H])C([H])(N4C([H])([H])C([H])([H])N(C([H])([H])[H])C([H])([H])C4([H])[H])C([H])([H])C3([H])[H])c([H])c2OC([H])([H])[H])nc(N([H])c2c([H])c([H])c([H])c([H])c2S(=O)(=O)C([H])(C([H])([H])[H])C([H])([H])[H])c1Cl


 44 48  0  0  0  0  0  0  0  0999 V2000
   55.3047   -3.6498  -10.1447 N   0  0  0  0  0  0  0  0  0  0  0  0
   55.2302   -3.1627  -11.1082 H   0  0  0  0  0  0  0  0  0  0  0  0
   54.1556   -3.5720   -9.3140 C   0  0  0  0  0  0  0  0  0  0  0  0
   53.1400   -2.7157   -9.4503 N   0  0  0  0  0  0  0  0  0  0  0  0
   52.0827   -2.6977   -8.6292 C   0  0  0  0  0  0  0  0  0  0  0  0
   52.0100   -3.5912   -7.5863 C   0  0  0  0  0  0  0  0  0  0  0  0
   50.6270   -3.5824   -6.4963 Cl  0  0  0  0  0  0  0  0  0  0  0  0
   53.0700   -4.5064   -7.4203 C   0  0  0  0  0  0  0  0  0  0  0  0
   54.0794   -4.4449   -8.2911 N   0  0  0  0  0  0  0  0  0  0  0  0
   52.9703   -5.4084   -6.3499 N   0  0  0  0  0  0  0  0  0  0  0  0
   51.9643   -5.6511   -6.0670 H   0  0  0  0  0  0  0  0  0  0  0  0
   53.9506   -6.0530   -5.5804 C   0  0  0  0  0  0  0  0  0  0  0  0
   55.2459   -6.1396   -6.0450 C   0  0  0  0  0  0  0  0  0  0  0  0
   56.2356   -6.7815   -5.2896 C   0  0  0  0  0  0  0  0  0  0  0  0
   55.9018   -7.3221   -4.0842 C   0  0  0  0  0  0  0  0  0  0  0  0
   54.6078   -7.2339   -3.6229 C   0  0  0  0  0  0  0  0  0  0  0  0
   53.6201   -6.6118   -4.3409 C   0  0  0  0  0  0  0  0  0  0  0  0
   52.0132   -6.5094   -3.7517 S   0  0  0  0  0  0  0  0  0  0  0  0
   51.7610   -7.6119   -2.7540 O   0  0  0  0  0  0  0  0  0  0  0  0
   50.9496   -6.5951   -4.8104 O   0  0  0  0  0  0  0  0  0  0  0  0
   51.7016   -4.9874   -2.8773 C   0  0  0  0  0  0  0  0  0  0  0  0
   50.2562   -4.6163   -2.9535 C   0  0  0  0  0  0  0  0  0  0  0  0
   52.3005   -4.9531   -1.5109 C   0  0  0  0  0  0  0  0  0  0  0  0
   57.3333   -4.6190  -10.9917 C   0  0  0  0  0  0  0  0  0  0  0  0
   58.5579   -5.2395  -10.8251 C   0  0  0  0  0  0  0  0  0  0  0  0
   59.0510   -5.5506   -9.5775 C   0  0  0  0  0  0  0  0  0  0  0  0
   58.2587   -5.2100   -8.5083 C   0  0  0  0  0  0  0  0  0  0  0  0
   57.0161   -4.5825   -8.6413 C   0  0  0  0  0  0  0  0  0  0  0  0
   56.5299   -4.2750   -9.8871 C   0  0  0  0  0  0  0  0  0  0  0  0
   60.3228   -6.1857   -9.4209 N   0  0  0  0  0  0  0  0  0  0  0  0
   61.1557   -6.3234  -10.5661 C   0  0  0  0  0  0  0  0  0  0  0  0
   62.5944   -6.6645  -10.2971 C   0  0  0  0  0  0  0  0  0  0  0  0
   62.7960   -7.7012   -9.2436 C   0  0  0  0  0  0  0  0  0  0  0  0
   61.5618   -7.9300   -8.3942 C   0  0  0  0  0  0  0  0  0  0  0  0
   60.7733   -6.6892   -8.1455 C   0  0  0  0  0  0  0  0  0  0  0  0
   63.9162   -7.5641   -8.4010 N   0  0  0  0  0  0  0  0  0  0  0  0
   65.1633   -7.2393   -8.9564 C   0  0  0  0  0  0  0  0  0  0  0  0
   66.2693   -7.5237   -7.9362 C   0  0  0  0  0  0  0  0  0  0  0  0
   65.8310   -7.0081   -6.6538 N   0  0  0  0  0  0  0  0  0  0  0  0
   65.8116   -5.5826   -6.5703 C   0  0  0  0  0  0  0  0  0  0  0  0
   64.6765   -7.6732   -6.1419 C   0  0  0  0  0  0  0  0  0  0  0  0
   64.0006   -8.4401   -7.2767 C   0  0  0  0  0  0  0  0  0  0  0  0
   57.8096   -3.7863  -13.2002 C   0  0  0  0  0  0  0  0  0  0  0  0
   56.8973   -4.3346  -12.2765 O   0  0  0  0  0  0  0  0  0  0  0  0
 43 44  1  0  0  0
 44 24  1  0  0  0
 24 25  2  0  0  0
 25 26  1  0  0  0
 26 27  2  0  0  0
 27 28  1  0  0  0
 28 29  2  0  0  0
 29  1  1  0  0  0
  1  3  1  0  0  0
  3  4  2  0  0  0
  4  5  1  0  0  0
  5  6  2  0  0  0
  6  7  1  0  0  0
  6  8  1  0  0  0
  8 10  1  0  0  0
 10 12  1  0  0  0
 12 13  2  0  0  0
 13 14  1  0  0  0
 14 15  2  0  0  0
 15 16  1  0  0  0
 16 17  2  0  0  0
 17 18  1  0  0  0
 18 19  2  0  0  0
 18 20  2  0  0  0
 18 21  1  0  0  0
 21 22  1  0  0  0
 21 23  1  0  0  0
  8  9  2  0  0  0
 26 30  1  0  0  0
 30 31  1  0  0  0
 31 32  1  0  0  0
 32 33  1  0  0  0
 33 34  1  0  0  0
 34 35  1  0  0  0
 33 36  1  0  0  0
 36 37  1  0  0  0
 37 38  1  0  0  0
 38 39  1  0  0  0
 39 40  1  0  0  0
 39 41  1  0  0  0
 41 42  1  0  0  0
 29 24  1  0  0  0
  9  3  1  0  0  0
 35 30  1  0  0  0
 42 36  1  0  0  0
 17 12  1  0  0  0
  1  2  1  0  0  0
 10 11  1  0  0  0
M  END
> <minimizedAffinity>
-8.62103

> <CNNscore>
0.8268525004

> <CNNaffinity>
8.0621051788

> <CNN_VS>
6.6661720276

> <CNNaffinity_variance>
0.0038069424

$$$$
[H]c1nc(N([H])c2c([H])c([H])c(N3C([H])([H])C([H])([H])C([H])(N4C([H])([H])C([H])([H])N(C([H])([H])[H])C([H])([H])C4([H])[H])C([H])([H])C3([H])[H])c([H])c2OC([H])([H])[H])nc(N([H])c2c([H])c([H])c([H])c([H])c2S(=O)(=O)C([H])(C([H])([H])[H])C([H])([H])[H])c1Cl


 44 48  0  0  0  0  0  0  0  0999 V2000
   54.4368   -3.1895   -9.7109 N   0  0  0  0  0  0  0  0  0  0  0  0
   54.3212   -2.4714  -10.5123 H   0  0  0  0  0  0  0  0  0  0  0  0
   53.3430   -3.3062   -8.8129 C   0  0  0  0  0  0  0  0  0  0  0  0
   52.2727   -2.5091   -8.7654 N   0  0  0  0  0  0  0  0  0  0  0  0
   51.2730   -2.6773   -7.8908 C   0  0  0  0  0  0  0  0  0  0  0  0
   51.3217   -3.7114   -6.9855 C   0  0  0  0  0  0  0  0  0  0  0  0
   50.0162   -3.9483   -5.8279 Cl  0  0  0  0  0  0  0  0  0  0  0  0
   52.4417   -4.5679   -7.0147 C   0  0  0  0  0  0  0  0  0  0  0  0
   53.3857   -4.3173   -7.9241 N   0  0  0  0  0  0  0  0  0  0  0  0
   52.4659   -5.6160   -6.0819 N   0  0  0  0  0  0  0  0  0  0  0  0
   51.4973   -5.9824   -5.8017 H   0  0  0  0  0  0  0  0  0  0  0  0
   53.5302   -6.2742   -5.4475 C   0  0  0  0  0  0  0  0  0  0  0  0
   54.6607   -6.6069   -6.1634 C   0  0  0  0  0  0  0  0  0  0  0  0
   55.7312   -7.2658   -5.5451 C   0  0  0  0  0  0  0  0  0  0  0  0
   55.6418   -7.5758   -4.2212 C   0  0  0  0  0  0  0  0  0  0  0  0
   54.5120   -7.2422   -3.5091 C   0  0  0  0  0  0  0  0  0  0  0  0
   53.4505   -6.5977   -4.0885 C   0  0  0  0  0  0  0  0  0  0  0  0
   52.0505   -6.1880   -3.1872 S   0  0  0  0  0  0  0  0  0  0  0  0
   50.8141   -6.6211   -3.9342 O   0  0  0  0  0  0  0  0  0  0  0  0
   51.9105   -4.7242   -2.8755 O   0  0  0  0  0  0  0  0  0  0  0  0
   51.9813   -7.0245   -1.6144 C   0  0  0  0  0  0  0  0  0  0  0  0
   52.7471   -6.2703   -0.5764 C   0  0  0  0  0  0  0  0  0  0  0  0
   50.6023   -7.4362   -1.2199 C   0  0  0  0  0  0  0  0  0  0  0  0
   56.3088   -4.0361   -8.4653 C   0  0  0  0  0  0  0  0  0  0  0  0
   57.5148   -4.7058   -8.3691 C   0  0  0  0  0  0  0  0  0  0  0  0
   58.1325   -5.2520   -9.4720 C   0  0  0  0  0  0  0  0  0  0  0  0
   57.4838   -5.0945  -10.6726 C   0  0  0  0  0  0  0  0  0  0  0  0
   56.2642   -4.4233  -10.8051 C   0  0  0  0  0  0  0  0  0  0  0  0
   55.6534   -3.8809   -9.7025 C   0  0  0  0  0  0  0  0  0  0  0  0
   59.3763   -5.9483   -9.3555 N   0  0  0  0  0  0  0  0  0  0  0  0
   60.1153   -5.8153   -8.1470 C   0  0  0  0  0  0  0  0  0  0  0  0
   61.2116   -6.8204   -7.9312 C   0  0  0  0  0  0  0  0  0  0  0  0
   62.0327   -7.1073   -9.1430 C   0  0  0  0  0  0  0  0  0  0  0  0
   61.3807   -6.6324  -10.4261 C   0  0  0  0  0  0  0  0  0  0  0  0
   59.8958   -6.7681  -10.4237 C   0  0  0  0  0  0  0  0  0  0  0  0
   62.4922   -8.4267   -9.3209 N   0  0  0  0  0  0  0  0  0  0  0  0
   61.8068   -9.4860   -8.7066 C   0  0  0  0  0  0  0  0  0  0  0  0
   62.6861  -10.7397   -8.7147 C   0  0  0  0  0  0  0  0  0  0  0  0
   63.2770  -10.8566  -10.0337 N   0  0  0  0  0  0  0  0  0  0  0  0
   62.3541  -11.2248  -11.0593 C   0  0  0  0  0  0  0  0  0  0  0  0
   64.1615   -9.7831  -10.3539 C   0  0  0  0  0  0  0  0  0  0  0  0
   63.9045   -8.6238   -9.3934 C   0  0  0  0  0  0  0  0  0  0  0  0
   56.5121   -3.4656   -6.1349 C   0  0  0  0  0  0  0  0  0  0  0  0
   55.7422   -3.5105   -7.3145 O   0  0  0  0  0  0  0  0  0  0  0  0
 43 44  1  0  0  0
 44 24  1  0  0  0
 24 25  2  0  0  0
 25 26  1  0  0  0
 26 27  2  0  0  0
 27 28  1  0  0  0
 28 29  2  0  0  0
 29  1  1  0  0  0
  1  3  1  0  0  0
  3  4  2  0  0  0
  4  5  1  0  0  0
  5  6  2  0  0  0
  6  7  1  0  0  0
  6  8  1  0  0  0
  8 10  1  0  0  0
 10 12  1  0  0  0
 12 13  2  0  0  0
 13 14  1  0  0  0
 14 15  2  0  0  0
 15 16  1  0  0  0
 16 17  2  0  0  0
 17 18  1  0  0  0
 18 19  2  0  0  0
 18 20  2  0  0  0
 18 21  1  0  0  0
 21 22  1  0  0  0
 21 23  1  0  0  0
  8  9  2  0  0  0
 26 30  1  0  0  0
 30 31  1  0  0  0
 31 32  1  0  0  0
 32 33  1  0  0  0
 33 34  1  0  0  0
 34 35  1  0  0  0
 33 36  1  0  0  0
 36 37  1  0  0  0
 37 38  1  0  0  0
 38 39  1  0  0  0
 39 40  1  0  0  0
 39 41  1  0  0  0
 41 42  1  0  0  0
 29 24  1  0  0  0
  9  3  1  0  0  0
 35 30  1  0  0  0
 42 36  1  0  0  0
 17 12  1  0  0  0
  1  2  1  0  0  0
 10 11  1  0  0  0
M  END
> <minimizedAffinity>
-7.68089

> <CNNscore>
0.8006752729

> <CNNaffinity>
8.0626792908

> <CNN_VS>
6.4555878639

> <CNNaffinity_variance>
0.0378356501

$$$$
[H]c1nc(N([H])c2c([H])c([H])c(N3C([H])([H])C([H])([H])C([H])(N4C([H])([H])C([H])([H])N(C([H])([H])[H])C([H])([H])C4([H])[H])C([H])([H])C3([H])[H])c([H])c2OC([H])([H])[H])nc(N([H])c2c([H])c([H])c([H])c([H])c2S(=O)(=O)C([H])(C([H])([H])[H])C([H])([H])[H])c1Cl


 44 48  0  0  0  0  0  0  0  0999 V2000
   55.1061   -3.4214   -9.6413 N   0  0  0  0  0  0  0  0  0  0  0  0
   55.0960   -2.7409  -10.4827 H   0  0  0  0  0  0  0  0  0  0  0  0
   53.9253   -3.4594   -8.8534 C   0  0  0  0  0  0  0  0  0  0  0  0
   52.8344   -2.7097   -9.0300 N   0  0  0  0  0  0  0  0  0  0  0  0
   51.7513   -2.7979   -8.2480 C   0  0  0  0  0  0  0  0  0  0  0  0
   51.7305   -3.6939   -7.2050 C   0  0  0  0  0  0  0  0  0  0  0  0
   50.3147   -3.8241   -6.1662 Cl  0  0  0  0  0  0  0  0  0  0  0  0
   52.8704   -4.4978   -6.9969 C   0  0  0  0  0  0  0  0  0  0  0  0
   53.8998   -4.3353   -7.8304 N   0  0  0  0  0  0  0  0  0  0  0  0
   52.8227   -5.4050   -5.9273 N   0  0  0  0  0  0  0  0  0  0  0  0
   51.8407   -5.5670   -5.5269 H   0  0  0  0  0  0  0  0  0  0  0  0
   53.8293   -6.1414   -5.2847 C   0  0  0  0  0  0  0  0  0  0  0  0
   55.0008   -6.4352   -5.9500 C   0  0  0  0  0  0  0  0  0  0  0  0
   56.0146   -7.1710   -5.3230 C   0  0  0  0  0  0  0  0  0  0  0  0
   55.8287   -7.5954   -4.0415 C   0  0  0  0  0  0  0  0  0  0  0  0
   54.6582   -7.3004   -3.3799 C   0  0  0  0  0  0  0  0  0  0  0  0
   53.6503   -6.5825   -3.9689 C   0  0  0  0  0  0  0  0  0  0  0  0
   52.1986   -6.2224   -3.1306 S   0  0  0  0  0  0  0  0  0  0  0  0
   51.0109   -6.6692   -3.9455 O   0  0  0  0  0  0  0  0  0  0  0  0
   52.0087   -4.7685   -2.7998 O   0  0  0  0  0  0  0  0  0  0  0  0
   52.0724   -7.0905   -1.5785 C   0  0  0  0  0  0  0  0  0  0  0  0
   52.8439   -6.3857   -0.5105 C   0  0  0  0  0  0  0  0  0  0  0  0
   50.6732   -7.4634   -1.2178 C   0  0  0  0  0  0  0  0  0  0  0  0
   56.9685   -4.5629  -10.6416 C   0  0  0  0  0  0  0  0  0  0  0  0
   58.1451   -5.2858  -10.5695 C   0  0  0  0  0  0  0  0  0  0  0  0
   58.7103   -5.6353   -9.3633 C   0  0  0  0  0  0  0  0  0  0  0  0
   58.0401   -5.2256   -8.2363 C   0  0  0  0  0  0  0  0  0  0  0  0
   56.8489   -4.4942   -8.2736 C   0  0  0  0  0  0  0  0  0  0  0  0
   56.2904   -4.1489   -9.4785 C   0  0  0  0  0  0  0  0  0  0  0  0
   59.9318   -6.3768   -9.3048 N   0  0  0  0  0  0  0  0  0  0  0  0
   59.9913   -7.6355   -9.9656 C   0  0  0  0  0  0  0  0  0  0  0  0
   61.3664   -8.2037  -10.1778 C   0  0  0  0  0  0  0  0  0  0  0  0
   62.2792   -8.0637   -9.0064 C   0  0  0  0  0  0  0  0  0  0  0  0
   61.7839   -7.0579   -7.9866 C   0  0  0  0  0  0  0  0  0  0  0  0
   61.0895   -5.8873   -8.5954 C   0  0  0  0  0  0  0  0  0  0  0  0
   63.6418   -7.8216   -9.2679 N   0  0  0  0  0  0  0  0  0  0  0  0
   64.2738   -8.4972  -10.3231 C   0  0  0  0  0  0  0  0  0  0  0  0
   65.7930   -8.3776  -10.1725 C   0  0  0  0  0  0  0  0  0  0  0  0
   66.0969   -6.9997   -9.8384 N   0  0  0  0  0  0  0  0  0  0  0  0
   65.9061   -6.0796  -10.9137 C   0  0  0  0  0  0  0  0  0  0  0  0
   65.5676   -6.5943   -8.5764 C   0  0  0  0  0  0  0  0  0  0  0  0
   64.4927   -7.5898   -8.1451 C   0  0  0  0  0  0  0  0  0  0  0  0
   57.3440   -3.8810  -12.9201 C   0  0  0  0  0  0  0  0  0  0  0  0
   56.4546   -4.2449  -11.8892 O   0  0  0  0  0  0  0  0  0  0  0  0
 43 44  1  0  0  0
 44 24  1  0  0  0
 24 25  2  0  0  0
 25 26  1  0  0  0
 26 27  2  0  0  0
 27 28  1  0  0  0
 28 29  2  0  0  0
 29  1  1  0  0  0
  1  3  1  0  0  0
  3  4  2  0  0  0
  4  5  1  0  0  0
  5  6  2  0  0  0
  6  7  1  0  0  0
  6  8  1  0  0  0
  8 10  1  0  0  0
 10 12  1  0  0  0
 12 13  2  0  0  0
 13 14  1  0  0  0
 14 15  2  0  0  0
 15 16  1  0  0  0
 16 17  2  0  0  0
 17 18  1  0  0  0
 18 19  2  0  0  0
 18 20  2  0  0  0
 18 21  1  0  0  0
 21 22  1  0  0  0
 21 23  1  0  0  0
  8  9  2  0  0  0
 26 30  1  0  0  0
 30 31  1  0  0  0
 31 32  1  0  0  0
 32 33  1  0  0  0
 33 34  1  0  0  0
 34 35  1  0  0  0
 33 36  1  0  0  0
 36 37  1  0  0  0
 37 38  1  0  0  0
 38 39  1  0  0  0
 39 40  1  0  0  0
 39 41  1  0  0  0
 41 42  1  0  0  0
 29 24  1  0  0  0
  9  3  1  0  0  0
 35 30  1  0  0  0
 42 36  1  0  0  0
 17 12  1  0  0  0
  1  2  1  0  0  0
 10 11  1  0  0  0
M  END
> <minimizedAffinity>
-8.42219

> <CNNscore>
0.7948920727

> <CNNaffinity>
8.0311450958

> <CNN_VS>
6.3838934898

> <CNNaffinity_variance>
0.0111624869

$$$$
[H]c1nc(N([H])c2c([H])c([H])c(N3C([H])([H])C([H])([H])C([H])(N4C([H])([H])C([H])([H])N(C([H])([H])[H])C([H])([H])C4([H])[H])C([H])([H])C3([H])[H])c([H])c2OC([H])([H])[H])nc(N([H])c2c([H])c([H])c([H])c([H])c2S(=O)(=O)C([H])(C([H])([H])[H])C([H])([H])[H])c1Cl


 44 48  0  0  0  0  0  0  0  0999 V2000
   55.3316   -3.2442   -9.5536 N   0  0  0  0  0  0  0  0  0  0  0  0
   55.4410   -2.3081  -10.0856 H   0  0  0  0  0  0  0  0  0  0  0  0
   54.0651   -3.4799   -8.9563 C   0  0  0  0  0  0  0  0  0  0  0  0
   52.9382   -2.8078   -9.2049 N   0  0  0  0  0  0  0  0  0  0  0  0
   51.7737   -3.0843   -8.6049 C   0  0  0  0  0  0  0  0  0  0  0  0
   51.7025   -4.1033   -7.6841 C   0  0  0  0  0  0  0  0  0  0  0  0
   50.1795   -4.4814   -6.8852 Cl  0  0  0  0  0  0  0  0  0  0  0  0
   52.8788   -4.8287   -7.4036 C   0  0  0  0  0  0  0  0  0  0  0  0
   53.9898   -4.4768   -8.0537 N   0  0  0  0  0  0  0  0  0  0  0  0
   52.7786   -5.8644   -6.4619 N   0  0  0  0  0  0  0  0  0  0  0  0
   52.9718   -6.8429   -6.8570 H   0  0  0  0  0  0  0  0  0  0  0  0
   52.4710   -5.8524   -5.0931 C   0  0  0  0  0  0  0  0  0  0  0  0
   51.3074   -5.2582   -4.6525 C   0  0  0  0  0  0  0  0  0  0  0  0
   50.9868   -5.2363   -3.2890 C   0  0  0  0  0  0  0  0  0  0  0  0
   51.8427   -5.8119   -2.3986 C   0  0  0  0  0  0  0  0  0  0  0  0
   53.0035   -6.4046   -2.8414 C   0  0  0  0  0  0  0  0  0  0  0  0
   53.3417   -6.4405   -4.1689 C   0  0  0  0  0  0  0  0  0  0  0  0
   54.7911   -7.1838   -4.7045 S   0  0  0  0  0  0  0  0  0  0  0  0
   54.7320   -7.4095   -6.1944 O   0  0  0  0  0  0  0  0  0  0  0  0
   55.0990   -8.5022   -4.0515 O   0  0  0  0  0  0  0  0  0  0  0  0
   56.2257   -6.1621   -4.4281 C   0  0  0  0  0  0  0  0  0  0  0  0
   55.9469   -5.1228   -3.3914 C   0  0  0  0  0  0  0  0  0  0  0  0
   57.4824   -6.9423   -4.2312 C   0  0  0  0  0  0  0  0  0  0  0  0
   56.9150   -4.5524   -8.3070 C   0  0  0  0  0  0  0  0  0  0  0  0
   58.0287   -5.3667   -8.2143 C   0  0  0  0  0  0  0  0  0  0  0  0
   58.7521   -5.7377   -9.3259 C   0  0  0  0  0  0  0  0  0  0  0  0
   58.3053   -5.2538  -10.5314 C   0  0  0  0  0  0  0  0  0  0  0  0
   57.1837   -4.4287  -10.6605 C   0  0  0  0  0  0  0  0  0  0  0  0
   56.4669   -4.0623   -9.5493 C   0  0  0  0  0  0  0  0  0  0  0  0
   59.8977   -6.5867   -9.2148 N   0  0  0  0  0  0  0  0  0  0  0  0
   60.9638   -6.1765   -8.3666 C   0  0  0  0  0  0  0  0  0  0  0  0
   61.9658   -7.2377   -8.0080 C   0  0  0  0  0  0  0  0  0  0  0  0
   62.3678   -8.1160   -9.1448 C   0  0  0  0  0  0  0  0  0  0  0  0
   61.4256   -8.0211  -10.3282 C   0  0  0  0  0  0  0  0  0  0  0  0
   59.9990   -7.8314   -9.9382 C   0  0  0  0  0  0  0  0  0  0  0  0
   62.6175   -9.4730   -8.8625 N   0  0  0  0  0  0  0  0  0  0  0  0
   62.4879   -9.9404   -7.5457 C   0  0  0  0  0  0  0  0  0  0  0  0
   63.1689  -11.3058   -7.4162 C   0  0  0  0  0  0  0  0  0  0  0  0
   62.7846  -12.1021   -8.5654 N   0  0  0  0  0  0  0  0  0  0  0  0
   61.4223  -12.5302   -8.5534 C   0  0  0  0  0  0  0  0  0  0  0  0
   63.2550  -11.5708   -9.8038 C   0  0  0  0  0  0  0  0  0  0  0  0
   63.6611  -10.1131   -9.5973 C   0  0  0  0  0  0  0  0  0  0  0  0
   56.6727   -3.1113   -6.3934 C   0  0  0  0  0  0  0  0  0  0  0  0
   56.2330   -4.2178   -7.1474 O   0  0  0  0  0  0  0  0  0  0  0  0
 43 44  1  0  0  0
 44 24  1  0  0  0
 24 25  2  0  0  0
 25 26  1  0  0  0
 26 27  2  0  0  0
 27 28  1  0  0  0
 28 29  2  0  0  0
 29  1  1  0  0  0
  1  3  1  0  0  0
  3  4  2  0  0  0
  4  5  1  0  0  0
  5  6  2  0  0  0
  6  7  1  0  0  0
  6  8  1  0  0  0
  8 10  1  0  0  0
 10 12  1  0  0  0
 12 13  2  0  0  0
 13 14  1  0  0  0
 14 15  2  0  0  0
 15 16  1  0  0  0
 16 17  2  0  0  0
 17 18  1  0  0  0
 18 19  2  0  0  0
 18 20  2  0  0  0
 18 21  1  0  0  0
 21 22  1  0  0  0
 21 23  1  0  0  0
  8  9  2  0  0  0
 26 30  1  0  0  0
 30 31  1  0  0  0
 31 32  1  0  0  0
 32 33  1  0  0  0
 33 34  1  0  0  0
 34 35  1  0  0  0
 33 36  1  0  0  0
 36 37  1  0  0  0
 37 38  1  0  0  0
 38 39  1  0  0  0
 39 40  1  0  0  0
 39 41  1  0  0  0
 41 42  1  0  0  0
 29 24  1  0  0  0
  9  3  1  0  0  0
 35 30  1  0  0  0
 42 36  1  0  0  0
 17 12  1  0  0  0
  1  2  1  0  0  0
 10 11  1  0  0  0
M  END
> <minimizedAffinity>
-8.22236

> <CNNscore>
0.7682594061

> <CNNaffinity>
7.9026174545

> <CNN_VS>
6.0712599754

> <CNNaffinity_variance>
0.0818732232

$$$$
[H]c1nc(N([H])c2c([H])c([H])c(N3C([H])([H])C([H])([H])C([H])(N4C([H])([H])C([H])([H])N(C([H])([H])[H])C([H])([H])C4([H])[H])C([H])([H])C3([H])[H])c([H])c2OC([H])([H])[H])nc(N([H])c2c([H])c([H])c([H])c([H])c2S(=O)(=O)C([H])(C([H])([H])[H])C([H])([H])[H])c1Cl


 44 48  0  0  0  0  0  0  0  0999 V2000
   54.4406   -3.2901   -9.9103 N   0  0  0  0  0  0  0  0  0  0  0  0
   54.2791   -2.6669  -10.7802 H   0  0  0  0  0  0  0  0  0  0  0  0
   53.3703   -3.3537   -8.9791 C   0  0  0  0  0  0  0  0  0  0  0  0
   52.3526   -2.4941   -8.8869 N   0  0  0  0  0  0  0  0  0  0  0  0
   51.3725   -2.6145   -7.9828 C   0  0  0  0  0  0  0  0  0  0  0  0
   51.3865   -3.6629   -7.0929 C   0  0  0  0  0  0  0  0  0  0  0  0
   50.1059   -3.8376   -5.8971 Cl  0  0  0  0  0  0  0  0  0  0  0  0
   52.4507   -4.5851   -7.1693 C   0  0  0  0  0  0  0  0  0  0  0  0
   53.3793   -4.3786   -8.1052 N   0  0  0  0  0  0  0  0  0  0  0  0
   52.4403   -5.6465   -6.2513 N   0  0  0  0  0  0  0  0  0  0  0  0
   51.4668   -6.0515   -6.0532 H   0  0  0  0  0  0  0  0  0  0  0  0
   53.4751   -6.2764   -5.5436 C   0  0  0  0  0  0  0  0  0  0  0  0
   54.6417   -6.6241   -6.1912 C   0  0  0  0  0  0  0  0  0  0  0  0
   55.6834   -7.2552   -5.4992 C   0  0  0  0  0  0  0  0  0  0  0  0
   55.5297   -7.5230   -4.1720 C   0  0  0  0  0  0  0  0  0  0  0  0
   54.3639   -7.1745   -3.5283 C   0  0  0  0  0  0  0  0  0  0  0  0
   53.3292   -6.5564   -4.1805 C   0  0  0  0  0  0  0  0  0  0  0  0
   51.8838   -6.1278   -3.3637 S   0  0  0  0  0  0  0  0  0  0  0  0
   50.6884   -6.5776   -4.1656 O   0  0  0  0  0  0  0  0  0  0  0  0
   51.7285   -4.6576   -3.0920 O   0  0  0  0  0  0  0  0  0  0  0  0
   51.7308   -6.9298   -1.7789 C   0  0  0  0  0  0  0  0  0  0  0  0
   51.6014   -8.4094   -1.9417 C   0  0  0  0  0  0  0  0  0  0  0  0
   52.7493   -6.4814   -0.7847 C   0  0  0  0  0  0  0  0  0  0  0  0
   56.3487   -3.9651   -8.6158 C   0  0  0  0  0  0  0  0  0  0  0  0
   57.5820   -4.5750   -8.4772 C   0  0  0  0  0  0  0  0  0  0  0  0
   58.2201   -5.1735   -9.5407 C   0  0  0  0  0  0  0  0  0  0  0  0
   57.5631   -5.1308  -10.7464 C   0  0  0  0  0  0  0  0  0  0  0  0
   56.3162   -4.5225  -10.9212 C   0  0  0  0  0  0  0  0  0  0  0  0
   55.6852   -3.9276   -9.8577 C   0  0  0  0  0  0  0  0  0  0  0  0
   59.4923   -5.8070   -9.3801 N   0  0  0  0  0  0  0  0  0  0  0  0
   60.2774   -6.0517  -10.5411 C   0  0  0  0  0  0  0  0  0  0  0  0
   61.7231   -6.3845  -10.3005 C   0  0  0  0  0  0  0  0  0  0  0  0
   61.9588   -7.3292   -9.1704 C   0  0  0  0  0  0  0  0  0  0  0  0
   60.7581   -7.4704   -8.2564 C   0  0  0  0  0  0  0  0  0  0  0  0
   59.9898   -6.2041   -8.0848 C   0  0  0  0  0  0  0  0  0  0  0  0
   63.1130   -7.1327   -8.3875 N   0  0  0  0  0  0  0  0  0  0  0  0
   63.6999   -5.8593   -8.3287 C   0  0  0  0  0  0  0  0  0  0  0  0
   65.1161   -5.9727   -7.7574 C   0  0  0  0  0  0  0  0  0  0  0  0
   65.0602   -6.8570   -6.6096 N   0  0  0  0  0  0  0  0  0  0  0  0
   64.4040   -6.2990   -5.4705 C   0  0  0  0  0  0  0  0  0  0  0  0
   64.6887   -8.1940   -6.9438 C   0  0  0  0  0  0  0  0  0  0  0  0
   64.0579   -8.2018   -8.3347 C   0  0  0  0  0  0  0  0  0  0  0  0
   56.3888   -3.5250   -6.2489 C   0  0  0  0  0  0  0  0  0  0  0  0
   55.7626   -3.3816   -7.5033 O   0  0  0  0  0  0  0  0  0  0  0  0
 43 44  1  0  0  0
 44 24  1  0  0  0
 24 25  2  0  0  0
 25 26  1  0  0  0
 26 27  2  0  0  0
 27 28  1  0  0  0
 28 29  2  0  0  0
 29  1  1  0  0  0
  1  3  1  0  0  0
  3  4  2  0  0  0
  4  5  1  0  0  0
  5  6  2  0  0  0
  6  7  1  0  0  0
  6  8  1  0  0  0
  8 10  1  0  0  0
 10 12  1  0  0  0
 12 13  2  0  0  0
 13 14  1  0  0  0
 14 15  2  0  0  0
 15 16  1  0  0  0
 16 17  2  0  0  0
 17 18  1  0  0  0
 18 19  2  0  0  0
 18 20  2  0  0  0
 18 21  1  0  0  0
 21 22  1  0  0  0
 21 23  1  0  0  0
  8  9  2  0  0  0
 26 30  1  0  0  0
 30 31  1  0  0  0
 31 32  1  0  0  0
 32 33  1  0  0  0
 33 34  1  0  0  0
 34 35  1  0  0  0
 33 36  1  0  0  0
 36 37  1  0  0  0
 37 38  1  0  0  0
 38 39  1  0  0  0
 39 40  1  0  0  0
 39 41  1  0  0  0
 41 42  1  0  0  0
 29 24  1  0  0  0
  9  3  1  0  0  0
 35 30  1  0  0  0
 42 36  1  0  0  0
 17 12  1  0  0  0
  1  2  1  0  0  0
 10 11  1  0  0  0
M  END
> <minimizedAffinity>
-7.66586

> <CNNscore>
0.7144402862

> <CNNaffinity>
7.9639549255

> <CNN_VS>
5.6897702217

> <CNNaffinity_variance>
0.0261221416

$$$$
[H]c1nc(N([H])c2c([H])c([H])c(N3C([H])([H])C([H])([H])C([H])(N4C([H])([H])C([H])([H])N(C([H])([H])[H])C([H])([H])C4([H])[H])C([H])([H])C3([H])[H])c([H])c2OC([H])([H])[H])nc(N([H])c2c([H])c([H])c([H])c([H])c2S(=O)(=O)C([H])(C([H])([H])[H])C([H])([H])[H])c1Cl


 44 48  0  0  0  0  0  0  0  0999 V2000
   54.9516   -3.6523   -9.2162 N   0  0  0  0  0  0  0  0  0  0  0  0
   54.8182   -2.9220  -10.0037 H   0  0  0  0  0  0  0  0  0  0  0  0
   53.8340   -3.8676   -8.3669 C   0  0  0  0  0  0  0  0  0  0  0  0
   52.6512   -3.2532   -8.4484 N   0  0  0  0  0  0  0  0  0  0  0  0
   51.6361   -3.5058   -7.6128 C   0  0  0  0  0  0  0  0  0  0  0  0
   51.7879   -4.4373   -6.6125 C   0  0  0  0  0  0  0  0  0  0  0  0
   50.4639   -4.7829   -5.5043 Cl  0  0  0  0  0  0  0  0  0  0  0  0
   53.0278   -5.1006   -6.5048 C   0  0  0  0  0  0  0  0  0  0  0  0
   53.9774   -4.7789   -7.3856 N   0  0  0  0  0  0  0  0  0  0  0  0
   53.1559   -6.0476   -5.4771 N   0  0  0  0  0  0  0  0  0  0  0  0
   52.2329   -6.5068   -5.1801 H   0  0  0  0  0  0  0  0  0  0  0  0
   54.2754   -6.5046   -4.7657 C   0  0  0  0  0  0  0  0  0  0  0  0
   55.4681   -6.7232   -5.4222 C   0  0  0  0  0  0  0  0  0  0  0  0
   56.5944   -7.1811   -4.7264 C   0  0  0  0  0  0  0  0  0  0  0  0
   56.4972   -7.4094   -3.3866 C   0  0  0  0  0  0  0  0  0  0  0  0
   55.3052   -7.1901   -2.7339 C   0  0  0  0  0  0  0  0  0  0  0  0
   54.1882   -6.7424   -3.3895 C   0  0  0  0  0  0  0  0  0  0  0  0
   52.7110   -6.4730   -2.5616 S   0  0  0  0  0  0  0  0  0  0  0  0
   51.5846   -7.1713   -3.2812 O   0  0  0  0  0  0  0  0  0  0  0  0
   52.3320   -5.0266   -2.4080 O   0  0  0  0  0  0  0  0  0  0  0  0
   52.7199   -7.1469   -0.9111 C   0  0  0  0  0  0  0  0  0  0  0  0
   53.2649   -6.1558    0.0653 C   0  0  0  0  0  0  0  0  0  0  0  0
   51.4282   -7.7852   -0.5224 C   0  0  0  0  0  0  0  0  0  0  0  0
   56.8232   -4.5804  -10.4028 C   0  0  0  0  0  0  0  0  0  0  0  0
   58.0673   -5.1821  -10.4512 C   0  0  0  0  0  0  0  0  0  0  0  0
   58.7673   -5.4964   -9.3077 C   0  0  0  0  0  0  0  0  0  0  0  0
   58.1609   -5.1786   -8.1167 C   0  0  0  0  0  0  0  0  0  0  0  0
   56.9045   -4.5704   -8.0321 C   0  0  0  0  0  0  0  0  0  0  0  0
   56.2116   -4.2597   -9.1751 C   0  0  0  0  0  0  0  0  0  0  0  0
   60.0566   -6.1120   -9.3740 N   0  0  0  0  0  0  0  0  0  0  0  0
   60.7150   -6.1686  -10.6339 C   0  0  0  0  0  0  0  0  0  0  0  0
   62.1820   -6.4934  -10.5965 C   0  0  0  0  0  0  0  0  0  0  0  0
   62.5487   -7.5819   -9.6449 C   0  0  0  0  0  0  0  0  0  0  0  0
   61.4549   -7.8833   -8.6399 C   0  0  0  0  0  0  0  0  0  0  0  0
   60.6950   -6.6752   -8.2085 C   0  0  0  0  0  0  0  0  0  0  0  0
   63.7780   -7.4676   -8.9671 N   0  0  0  0  0  0  0  0  0  0  0  0
   64.3169   -6.1951   -8.7228 C   0  0  0  0  0  0  0  0  0  0  0  0
   65.7937   -6.3278   -8.3402 C   0  0  0  0  0  0  0  0  0  0  0  0
   65.9078   -7.4164   -7.3892 N   0  0  0  0  0  0  0  0  0  0  0  0
   65.3682   -7.1272   -6.0990 C   0  0  0  0  0  0  0  0  0  0  0  0
   65.5529   -8.6854   -7.9376 C   0  0  0  0  0  0  0  0  0  0  0  0
   64.7642   -8.4668   -9.2270 C   0  0  0  0  0  0  0  0  0  0  0  0
   56.9410   -3.9265  -12.7171 C   0  0  0  0  0  0  0  0  0  0  0  0
   56.1736   -4.2914  -11.5928 O   0  0  0  0  0  0  0  0  0  0  0  0
 43 44  1  0  0  0
 44 24  1  0  0  0
 24 25  2  0  0  0
 25 26  1  0  0  0
 26 27  2  0  0  0
 27 28  1  0  0  0
 28 29  2  0  0  0
 29  1  1  0  0  0
  1  3  1  0  0  0
  3  4  2  0  0  0
  4  5  1  0  0  0
  5  6  2  0  0  0
  6  7  1  0  0  0
  6  8  1  0  0  0
  8 10  1  0  0  0
 10 12  1  0  0  0
 12 13  2  0  0  0
 13 14  1  0  0  0
 14 15  2  0  0  0
 15 16  1  0  0  0
 16 17  2  0  0  0
 17 18  1  0  0  0
 18 19  2  0  0  0
 18 20  2  0  0  0
 18 21  1  0  0  0
 21 22  1  0  0  0
 21 23  1  0  0  0
  8  9  2  0  0  0
 26 30  1  0  0  0
 30 31  1  0  0  0
 31 32  1  0  0  0
 32 33  1  0  0  0
 33 34  1  0  0  0
 34 35  1  0  0  0
 33 36  1  0  0  0
 36 37  1  0  0  0
 37 38  1  0  0  0
 38 39  1  0  0  0
 39 40  1  0  0  0
 39 41  1  0  0  0
 41 42  1  0  0  0
 29 24  1  0  0  0
  9  3  1  0  0  0
 35 30  1  0  0  0
 42 36  1  0  0  0
 17 12  1  0  0  0
  1  2  1  0  0  0
 10 11  1  0  0  0
M  END
> <minimizedAffinity>
-8.00919

> <CNNscore>
0.5147708654

> <CNNaffinity>
7.7299895287

> <CNN_VS>
3.9791734219

> <CNNaffinity_variance>
0.0744245499

$$$$
[H]c1c([H])c([H])c(/C(=C2/C(=O)N([H])c3c([H])c(C(=O)OC([H])([H])[H])c([H])c([H])c32)N([H])c2c([H])c([H])c(N(C(=O)C([H])([H])N3C([H])([H])C([H])([H])N(C([H])([H])[H])C([H])([H])C3([H])[H])C([H])([H])[H])c([H])c2[H])c([H])c1[H]


 42 46  0  0  0  0  0  0  0  0999 V2000
   49.8837   -4.0493   -5.0396 C   0  0  0  0  0  0  0  0  0  0  0  0
   51.0198   -4.6810   -4.6366 C   0  0  0  0  0  0  0  0  0  0  0  0
   52.1752   -4.7206   -5.4259 C   0  0  0  0  0  0  0  0  0  0  0  0
   52.1295   -4.0941   -6.6424 C   0  0  0  0  0  0  0  0  0  0  0  0
   53.1484   -3.9397   -7.6650 C   0  0  0  0  0  0  0  0  0  0  0  0
   54.3406   -4.4700   -7.7284 C   0  0  0  0  0  0  0  0  0  0  0  0
   52.5015   -3.1290   -8.7399 C   0  0  0  0  0  0  0  0  0  0  0  0
   53.0214   -2.7635   -9.7982 O   0  0  0  0  0  0  0  0  0  0  0  0
   51.1710   -2.8432   -8.3403 N   0  0  0  0  0  0  0  0  0  0  0  0
   50.9747   -3.4409   -7.0685 C   0  0  0  0  0  0  0  0  0  0  0  0
   49.8547   -3.4213   -6.2651 C   0  0  0  0  0  0  0  0  0  0  0  0
   50.4482   -2.2862   -8.8846 H   0  0  0  0  0  0  0  0  0  0  0  0
   54.8368   -5.4743   -6.8393 C   0  0  0  0  0  0  0  0  0  0  0  0
   54.5944   -6.8263   -6.9091 C   0  0  0  0  0  0  0  0  0  0  0  0
   55.0152   -7.7069   -5.9457 C   0  0  0  0  0  0  0  0  0  0  0  0
   55.7077   -7.2458   -4.8585 C   0  0  0  0  0  0  0  0  0  0  0  0
   55.9764   -5.9042   -4.7403 C   0  0  0  0  0  0  0  0  0  0  0  0
   55.5509   -5.0382   -5.7082 C   0  0  0  0  0  0  0  0  0  0  0  0
   48.6681   -3.9955   -4.2386 C   0  0  0  0  0  0  0  0  0  0  0  0
   48.4304   -4.7779   -3.2983 O   0  0  0  0  0  0  0  0  0  0  0  0
   46.5650   -2.7923   -3.8184 C   0  0  0  0  0  0  0  0  0  0  0  0
   47.7378   -3.0101   -4.5586 O   0  0  0  0  0  0  0  0  0  0  0  0
   55.1507   -4.1341   -8.8466 N   0  0  0  0  0  0  0  0  0  0  0  0
   54.6868   -3.4739   -9.5396 H   0  0  0  0  0  0  0  0  0  0  0  0
   56.4688   -4.6115   -9.0635 C   0  0  0  0  0  0  0  0  0  0  0  0
   57.3384   -4.8868   -8.0344 C   0  0  0  0  0  0  0  0  0  0  0  0
   58.6327   -5.3592   -8.2844 C   0  0  0  0  0  0  0  0  0  0  0  0
   59.0552   -5.5563   -9.5762 C   0  0  0  0  0  0  0  0  0  0  0  0
   58.1876   -5.2818  -10.6053 C   0  0  0  0  0  0  0  0  0  0  0  0
   56.8998   -4.8116  -10.3563 C   0  0  0  0  0  0  0  0  0  0  0  0
   60.4037   -6.0506   -9.8296 N   0  0  0  0  0  0  0  0  0  0  0  0
   60.8904   -5.7601  -11.1596 C   0  0  0  0  0  0  0  0  0  0  0  0
   61.1386   -6.6904   -8.8437 C   0  0  0  0  0  0  0  0  0  0  0  0
   60.5575   -6.6598   -7.6613 O   0  0  0  0  0  0  0  0  0  0  0  0
   62.4203   -7.3827   -8.8547 C   0  0  0  0  0  0  0  0  0  0  0  0
   62.9319   -7.9708   -7.6943 N   0  0  0  0  0  0  0  0  0  0  0  0
   62.6610   -9.3462   -7.4493 C   0  0  0  0  0  0  0  0  0  0  0  0
   61.6177   -9.5443   -6.3721 C   0  0  0  0  0  0  0  0  0  0  0  0
   61.9307   -8.8778   -5.1566 N   0  0  0  0  0  0  0  0  0  0  0  0
   60.8583   -8.7172   -4.2466 C   0  0  0  0  0  0  0  0  0  0  0  0
   62.8805   -7.8311   -5.2304 C   0  0  0  0  0  0  0  0  0  0  0  0
   63.0849   -7.1716   -6.5345 C   0  0  0  0  0  0  0  0  0  0  0  0
 21 22  1  0  0  0
 22 19  1  0  0  0
 19 20  2  0  0  0
 19  1  1  0  0  0
  1  2  2  0  0  0
  2  3  1  0  0  0
  3  4  2  0  0  0
  4  5  1  0  0  0
  5  6  2  0  0  0
  6 23  1  0  0  0
 23 25  1  0  0  0
 25 26  2  0  0  0
 26 27  1  0  0  0
 27 28  2  0  0  0
 28 29  1  0  0  0
 29 30  2  0  0  0
 28 31  1  0  0  0
 31 32  1  0  0  0
 31 33  1  0  0  0
 33 34  2  0  0  0
 33 35  1  0  0  0
 35 36  1  0  0  0
 36 37  1  0  0  0
 37 38  1  0  0  0
 38 39  1  0  0  0
 39 40  1  0  0  0
 39 41  1  0  0  0
 41 42  1  0  0  0
  6 13  1  0  0  0
 13 14  2  0  0  0
 14 15  1  0  0  0
 15 16  2  0  0  0
 16 17  1  0  0  0
 17 18  2  0  0  0
  5  7  1  0  0  0
  7  8  2  0  0  0
  7  9  1  0  0  0
  9 10  1  0  0  0
 10 11  2  0  0  0
 11  1  1  0  0  0
 10  4  1  0  0  0
 30 25  1  0  0  0
 42 36  1  0  0  0
 18 13  1  0  0  0
 23 24  1  0  0  0
  9 12  1  0  0  0
M  END
> <minimizedAffinity>
-8.67426

> <CNNscore>
0.7505415678

> <CNNaffinity>
7.4583449364

> <CNN_VS>
5.5977978706

> <CNNaffinity_variance>
0.1948875934

$$$$
[H]c1c([H])c([H])c(/C(=C2/C(=O)N([H])c3c([H])c(C(=O)OC([H])([H])[H])c([H])c([H])c32)N([H])c2c([H])c([H])c(N(C(=O)C([H])([H])N3C([H])([H])C([H])([H])N(C([H])([H])[H])C([H])([H])C3([H])[H])C([H])([H])[H])c([H])c2[H])c([H])c1[H]


 42 46  0  0  0  0  0  0  0  0999 V2000
   62.0366   -4.8029  -16.8462 C   0  0  0  0  0  0  0  0  0  0  0  0
   62.3943   -4.7690  -15.5335 C   0  0  0  0  0  0  0  0  0  0  0  0
   63.0085   -5.8534  -14.8962 C   0  0  0  0  0  0  0  0  0  0  0  0
   63.2432   -6.9749  -15.6457 C   0  0  0  0  0  0  0  0  0  0  0  0
   63.8713   -8.2347  -15.2907 C   0  0  0  0  0  0  0  0  0  0  0  0
   64.2666   -8.6584  -14.1200 C   0  0  0  0  0  0  0  0  0  0  0  0
   63.8632   -9.0416  -16.5477 C   0  0  0  0  0  0  0  0  0  0  0  0
   64.3082  -10.1842  -16.6903 O   0  0  0  0  0  0  0  0  0  0  0  0
   63.2507   -8.2688  -17.5672 N   0  0  0  0  0  0  0  0  0  0  0  0
   62.8850   -7.0246  -16.9914 C   0  0  0  0  0  0  0  0  0  0  0  0
   62.2820   -5.9376  -17.5873 C   0  0  0  0  0  0  0  0  0  0  0  0
   63.0908   -8.5585  -18.5768 H   0  0  0  0  0  0  0  0  0  0  0  0
   64.0038   -7.9965  -12.8797 C   0  0  0  0  0  0  0  0  0  0  0  0
   62.8214   -8.0061  -12.1773 C   0  0  0  0  0  0  0  0  0  0  0  0
   62.6194   -7.2473  -11.0530 C   0  0  0  0  0  0  0  0  0  0  0  0
   63.6213   -6.4377  -10.5897 C   0  0  0  0  0  0  0  0  0  0  0  0
   64.8224   -6.3912  -11.2542 C   0  0  0  0  0  0  0  0  0  0  0  0
   65.0095   -7.1528  -12.3734 C   0  0  0  0  0  0  0  0  0  0  0  0
   61.3946   -3.6895  -17.5321 C   0  0  0  0  0  0  0  0  0  0  0  0
   62.0231   -2.7362  -18.0311 O   0  0  0  0  0  0  0  0  0  0  0  0
   59.1660   -3.8593  -16.5066 C   0  0  0  0  0  0  0  0  0  0  0  0
   60.0053   -3.7132  -17.6224 O   0  0  0  0  0  0  0  0  0  0  0  0
   64.8734   -9.9418  -14.0559 N   0  0  0  0  0  0  0  0  0  0  0  0
   65.4288  -10.2062  -14.9237 H   0  0  0  0  0  0  0  0  0  0  0  0
   64.7763  -10.8288  -12.9531 C   0  0  0  0  0  0  0  0  0  0  0  0
   63.7564  -11.7417  -12.8211 C   0  0  0  0  0  0  0  0  0  0  0  0
   63.6923  -12.6044  -11.7199 C   0  0  0  0  0  0  0  0  0  0  0  0
   64.6591  -12.5493  -10.7460 C   0  0  0  0  0  0  0  0  0  0  0  0
   65.6786  -11.6379  -10.8766 C   0  0  0  0  0  0  0  0  0  0  0  0
   65.7421  -10.7795  -11.9723 C   0  0  0  0  0  0  0  0  0  0  0  0
   64.5877  -13.4521   -9.6029 N   0  0  0  0  0  0  0  0  0  0  0  0
   65.4421  -14.6122   -9.7224 C   0  0  0  0  0  0  0  0  0  0  0  0
   63.8000  -13.1638   -8.4994 C   0  0  0  0  0  0  0  0  0  0  0  0
   63.2709  -11.9576   -8.5405 O   0  0  0  0  0  0  0  0  0  0  0  0
   63.4461  -13.9242   -7.3082 C   0  0  0  0  0  0  0  0  0  0  0  0
   64.3203  -14.0084   -6.2206 N   0  0  0  0  0  0  0  0  0  0  0  0
   63.8541  -14.6019   -5.0142 C   0  0  0  0  0  0  0  0  0  0  0  0
   63.5695  -13.5753   -3.9403 C   0  0  0  0  0  0  0  0  0  0  0  0
   64.6713  -12.7177   -3.6759 N   0  0  0  0  0  0  0  0  0  0  0  0
   64.3730  -11.5306   -2.9646 C   0  0  0  0  0  0  0  0  0  0  0  0
   65.6729  -12.6416   -4.6730 C   0  0  0  0  0  0  0  0  0  0  0  0
   65.3031  -13.0013   -6.0554 C   0  0  0  0  0  0  0  0  0  0  0  0
 21 22  1  0  0  0
 22 19  1  0  0  0
 19 20  2  0  0  0
 19  1  1  0  0  0
  1  2  2  0  0  0
  2  3  1  0  0  0
  3  4  2  0  0  0
  4  5  1  0  0  0
  5  6  2  0  0  0
  6 23  1  0  0  0
 23 25  1  0  0  0
 25 26  2  0  0  0
 26 27  1  0  0  0
 27 28  2  0  0  0
 28 29  1  0  0  0
 29 30  2  0  0  0
 28 31  1  0  0  0
 31 32  1  0  0  0
 31 33  1  0  0  0
 33 34  2  0  0  0
 33 35  1  0  0  0
 35 36  1  0  0  0
 36 37  1  0  0  0
 37 38  1  0  0  0
 38 39  1  0  0  0
 39 40  1  0  0  0
 39 41  1  0  0  0
 41 42  1  0  0  0
  6 13  1  0  0  0
 13 14  2  0  0  0
 14 15  1  0  0  0
 15 16  2  0  0  0
 16 17  1  0  0  0
 17 18  2  0  0  0
  5  7  1  0  0  0
  7  8  2  0  0  0
  7  9  1  0  0  0
  9 10  1  0  0  0
 10 11  2  0  0  0
 11  1  1  0  0  0
 10  4  1  0  0  0
 30 25  1  0  0  0
 42 36  1  0  0  0
 18 13  1  0  0  0
 23 24  1  0  0  0
  9 12  1  0  0  0
M  END
> <minimizedAffinity>
-1.84074

> <CNNscore>
0.5835682750

> <CNNaffinity>
5.2350978851

> <CNN_VS>
3.0550370216

> <CNNaffinity_variance>
0.2240393162

$$$$
[H]c1c([H])c([H])c(/C(=C2/C(=O)N([H])c3c([H])c(C(=O)OC([H])([H])[H])c([H])c([H])c32)N([H])c2c([H])c([H])c(N(C(=O)C([H])([H])N3C([H])([H])C([H])([H])N(C([H])([H])[H])C([H])([H])C3([H])[H])C([H])([H])[H])c([H])c2[H])c([H])c1[H]


 42 46  0  0  0  0  0  0  0  0999 V2000
   60.3999   -4.9015  -12.1482 C   0  0  0  0  0  0  0  0  0  0  0  0
   60.0003   -5.2569  -10.8967 C   0  0  0  0  0  0  0  0  0  0  0  0
   58.7022   -5.0205  -10.4294 C   0  0  0  0  0  0  0  0  0  0  0  0
   57.8264   -4.4064  -11.2840 C   0  0  0  0  0  0  0  0  0  0  0  0
   56.4302   -4.0485  -11.1105 C   0  0  0  0  0  0  0  0  0  0  0  0
   55.6878   -4.1187  -10.0380 C   0  0  0  0  0  0  0  0  0  0  0  0
   56.0201   -3.4385  -12.4108 C   0  0  0  0  0  0  0  0  0  0  0  0
   54.9028   -2.9976  -12.6957 O   0  0  0  0  0  0  0  0  0  0  0  0
   57.1417   -3.4483  -13.2789 N   0  0  0  0  0  0  0  0  0  0  0  0
   58.2194   -4.0383  -12.5692 C   0  0  0  0  0  0  0  0  0  0  0  0
   59.5061   -4.2869  -12.9970 C   0  0  0  0  0  0  0  0  0  0  0  0
   57.1782   -3.0842  -14.2764 H   0  0  0  0  0  0  0  0  0  0  0  0
   56.1709   -4.4298   -8.7283 C   0  0  0  0  0  0  0  0  0  0  0  0
   56.5794   -5.6621   -8.2742 C   0  0  0  0  0  0  0  0  0  0  0  0
   56.9190   -5.8964   -6.9664 C   0  0  0  0  0  0  0  0  0  0  0  0
   56.8573   -4.8772   -6.0546 C   0  0  0  0  0  0  0  0  0  0  0  0
   56.4556   -3.6267   -6.4561 C   0  0  0  0  0  0  0  0  0  0  0  0
   56.1201   -3.4078   -7.7627 C   0  0  0  0  0  0  0  0  0  0  0  0
   61.7447   -5.1343  -12.6576 C   0  0  0  0  0  0  0  0  0  0  0  0
   62.3271   -4.3573  -13.4385 O   0  0  0  0  0  0  0  0  0  0  0  0
   63.5137   -6.8262  -12.8924 C   0  0  0  0  0  0  0  0  0  0  0  0
   62.3936   -6.2920  -12.2362 O   0  0  0  0  0  0  0  0  0  0  0  0
   54.3301   -3.7142  -10.1507 N   0  0  0  0  0  0  0  0  0  0  0  0
   54.0663   -3.3318  -11.1076 H   0  0  0  0  0  0  0  0  0  0  0  0
   53.3724   -3.7944   -9.1073 C   0  0  0  0  0  0  0  0  0  0  0  0
   53.1758   -4.9352   -8.3650 C   0  0  0  0  0  0  0  0  0  0  0  0
   52.2227   -4.9791   -7.3401 C   0  0  0  0  0  0  0  0  0  0  0  0
   51.4630   -3.8698   -7.0595 C   0  0  0  0  0  0  0  0  0  0  0  0
   51.6584   -2.7295   -7.8002 C   0  0  0  0  0  0  0  0  0  0  0  0
   52.6067   -2.6861   -8.8201 C   0  0  0  0  0  0  0  0  0  0  0  0
   50.4737   -3.9215   -5.9893 N   0  0  0  0  0  0  0  0  0  0  0  0
   49.4241   -2.9356   -6.1180 C   0  0  0  0  0  0  0  0  0  0  0  0
   50.5395   -4.8761   -4.9864 C   0  0  0  0  0  0  0  0  0  0  0  0
   51.4713   -5.7844   -5.1951 O   0  0  0  0  0  0  0  0  0  0  0  0
   49.7849   -5.0753   -3.7564 C   0  0  0  0  0  0  0  0  0  0  0  0
   50.4293   -5.4064   -2.5609 N   0  0  0  0  0  0  0  0  0  0  0  0
   51.5552   -4.6361   -2.1560 C   0  0  0  0  0  0  0  0  0  0  0  0
   52.8608   -5.3704   -2.3666 C   0  0  0  0  0  0  0  0  0  0  0  0
   52.8912   -6.6514   -1.7518 N   0  0  0  0  0  0  0  0  0  0  0  0
   53.9104   -7.5265   -2.1983 C   0  0  0  0  0  0  0  0  0  0  0  0
   51.6422   -7.2275   -1.4183 C   0  0  0  0  0  0  0  0  0  0  0  0
   50.4472   -6.7616   -2.1479 C   0  0  0  0  0  0  0  0  0  0  0  0
 21 22  1  0  0  0
 22 19  1  0  0  0
 19 20  2  0  0  0
 19  1  1  0  0  0
  1  2  2  0  0  0
  2  3  1  0  0  0
  3  4  2  0  0  0
  4  5  1  0  0  0
  5  6  2  0  0  0
  6 23  1  0  0  0
 23 25  1  0  0  0
 25 26  2  0  0  0
 26 27  1  0  0  0
 27 28  2  0  0  0
 28 29  1  0  0  0
 29 30  2  0  0  0
 28 31  1  0  0  0
 31 32  1  0  0  0
 31 33  1  0  0  0
 33 34  2  0  0  0
 33 35  1  0  0  0
 35 36  1  0  0  0
 36 37  1  0  0  0
 37 38  1  0  0  0
 38 39  1  0  0  0
 39 40  1  0  0  0
 39 41  1  0  0  0
 41 42  1  0  0  0
  6 13  1  0  0  0
 13 14  2  0  0  0
 14 15  1  0  0  0
 15 16  2  0  0  0
 16 17  1  0  0  0
 17 18  2  0  0  0
  5  7  1  0  0  0
  7  8  2  0  0  0
  7  9  1  0  0  0
  9 10  1  0  0  0
 10 11  2  0  0  0
 11  1  1  0  0  0
 10  4  1  0  0  0
 30 25  1  0  0  0
 42 36  1  0  0  0
 18 13  1  0  0  0
 23 24  1  0  0  0
  9 12  1  0  0  0
M  END
> <minimizedAffinity>
-5.05552

> <CNNscore>
0.5795204043

> <CNNaffinity>
7.2285413742

> <CNN_VS>
4.1890873909

> <CNNaffinity_variance>
0.2041911632

$$$$
[H]c1c([H])c([H])c(/C(=C2/C(=O)N([H])c3c([H])c(C(=O)OC([H])([H])[H])c([H])c([H])c32)N([H])c2c([H])c([H])c(N(C(=O)C([H])([H])N3C([H])([H])C([H])([H])N(C([H])([H])[H])C([H])([H])C3([H])[H])C([H])([H])[H])c([H])c2[H])c([H])c1[H]


 42 46  0  0  0  0  0  0  0  0999 V2000
   59.4212   -3.4454  -14.1212 C   0  0  0  0  0  0  0  0  0  0  0  0
   60.0004   -4.2569  -13.1948 C   0  0  0  0  0  0  0  0  0  0  0  0
   59.3138   -4.7106  -12.0625 C   0  0  0  0  0  0  0  0  0  0  0  0
   58.0153   -4.3052  -11.9078 C   0  0  0  0  0  0  0  0  0  0  0  0
   57.0454   -4.6143  -10.8728 C   0  0  0  0  0  0  0  0  0  0  0  0
   57.2121   -5.2699   -9.7553 C   0  0  0  0  0  0  0  0  0  0  0  0
   55.7985   -3.9008  -11.2820 C   0  0  0  0  0  0  0  0  0  0  0  0
   54.7213   -3.8991  -10.6791 O   0  0  0  0  0  0  0  0  0  0  0  0
   56.0582   -3.2140  -12.4955 N   0  0  0  0  0  0  0  0  0  0  0  0
   57.4072   -3.4763  -12.8485 C   0  0  0  0  0  0  0  0  0  0  0  0
   58.1131   -3.0485  -13.9526 C   0  0  0  0  0  0  0  0  0  0  0  0
   55.3764   -2.6127  -13.0455 H   0  0  0  0  0  0  0  0  0  0  0  0
   58.4757   -5.6958   -9.2382 C   0  0  0  0  0  0  0  0  0  0  0  0
   59.2342   -5.0522   -8.2885 C   0  0  0  0  0  0  0  0  0  0  0  0
   60.4913   -5.4701   -7.9339 C   0  0  0  0  0  0  0  0  0  0  0  0
   61.0368   -6.5719   -8.5359 C   0  0  0  0  0  0  0  0  0  0  0  0
   60.3211   -7.2514   -9.4910 C   0  0  0  0  0  0  0  0  0  0  0  0
   59.0694   -6.8234   -9.8344 C   0  0  0  0  0  0  0  0  0  0  0  0
   60.1141   -2.9578  -15.3063 C   0  0  0  0  0  0  0  0  0  0  0  0
   59.6063   -2.9507  -16.4442 O   0  0  0  0  0  0  0  0  0  0  0  0
   62.5380   -3.0996  -15.6955 C   0  0  0  0  0  0  0  0  0  0  0  0
   61.4105   -2.4797  -15.1342 O   0  0  0  0  0  0  0  0  0  0  0  0
   56.0756   -5.4453   -8.9203 N   0  0  0  0  0  0  0  0  0  0  0  0
   55.1607   -5.5704   -9.4483 H   0  0  0  0  0  0  0  0  0  0  0  0
   56.1079   -5.4603   -7.5022 C   0  0  0  0  0  0  0  0  0  0  0  0
   56.1125   -6.6250   -6.7711 C   0  0  0  0  0  0  0  0  0  0  0  0
   56.1470   -6.6034   -5.3714 C   0  0  0  0  0  0  0  0  0  0  0  0
   56.1773   -5.4042   -4.7027 C   0  0  0  0  0  0  0  0  0  0  0  0
   56.1728   -4.2399   -5.4317 C   0  0  0  0  0  0  0  0  0  0  0  0
   56.1383   -4.2616   -6.8245 C   0  0  0  0  0  0  0  0  0  0  0  0
   56.2154   -5.3887   -3.2449 N   0  0  0  0  0  0  0  0  0  0  0  0
   57.5531   -5.4071   -2.6968 C   0  0  0  0  0  0  0  0  0  0  0  0
   55.0555   -5.3113   -2.4900 C   0  0  0  0  0  0  0  0  0  0  0  0
   53.9759   -5.1058   -3.2173 O   0  0  0  0  0  0  0  0  0  0  0  0
   54.7952   -5.4079   -1.0599 C   0  0  0  0  0  0  0  0  0  0  0  0
   53.5706   -5.8820   -0.5805 N   0  0  0  0  0  0  0  0  0  0  0  0
   53.5729   -6.8145    0.4944 C   0  0  0  0  0  0  0  0  0  0  0  0
   53.2583   -8.2214    0.0366 C   0  0  0  0  0  0  0  0  0  0  0  0
   52.0451   -8.3160   -0.6974 N   0  0  0  0  0  0  0  0  0  0  0  0
   51.8710   -9.5007   -1.4525 C   0  0  0  0  0  0  0  0  0  0  0  0
   51.5397   -7.1150   -1.2500 C   0  0  0  0  0  0  0  0  0  0  0  0
   52.4865   -6.0077   -1.4840 C   0  0  0  0  0  0  0  0  0  0  0  0
 21 22  1  0  0  0
 22 19  1  0  0  0
 19 20  2  0  0  0
 19  1  1  0  0  0
  1  2  2  0  0  0
  2  3  1  0  0  0
  3  4  2  0  0  0
  4  5  1  0  0  0
  5  6  2  0  0  0
  6 23  1  0  0  0
 23 25  1  0  0  0
 25 26  2  0  0  0
 26 27  1  0  0  0
 27 28  2  0  0  0
 28 29  1  0  0  0
 29 30  2  0  0  0
 28 31  1  0  0  0
 31 32  1  0  0  0
 31 33  1  0  0  0
 33 34  2  0  0  0
 33 35  1  0  0  0
 35 36  1  0  0  0
 36 37  1  0  0  0
 37 38  1  0  0  0
 38 39  1  0  0  0
 39 40  1  0  0  0
 39 41  1  0  0  0
 41 42  1  0  0  0
  6 13  1  0  0  0
 13 14  2  0  0  0
 14 15  1  0  0  0
 15 16  2  0  0  0
 16 17  1  0  0  0
 17 18  2  0  0  0
  5  7  1  0  0  0
  7  8  2  0  0  0
  7  9  1  0  0  0
  9 10  1  0  0  0
 10 11  2  0  0  0
 11  1  1  0  0  0
 10  4  1  0  0  0
 30 25  1  0  0  0
 42 36  1  0  0  0
 18 13  1  0  0  0
 23 24  1  0  0  0
  9 12  1  0  0  0
M  END
> <minimizedAffinity>
-2.66310

> <CNNscore>
0.4378776252

> <CNNaffinity>
6.2892189026

> <CNN_VS>
2.7539081573

> <CNNaffinity_variance>
0.1768642366

$$$$
[H]c1c([H])c([H])c(/C(=C2/C(=O)N([H])c3c([H])c(C(=O)OC([H])([H])[H])c([H])c([H])c32)N([H])c2c([H])c([H])c(N(C(=O)C([H])([H])N3C([H])([H])C([H])([H])N(C([H])([H])[H])C([H])([H])C3([H])[H])C([H])([H])[H])c([H])c2[H])c([H])c1[H]


 42 46  0  0  0  0  0  0  0  0999 V2000
   64.1006   -6.1577  -14.2529 C   0  0  0  0  0  0  0  0  0  0  0  0
   63.6815   -7.4453  -14.1162 C   0  0  0  0  0  0  0  0  0  0  0  0
   63.8167   -8.1538  -12.9166 C   0  0  0  0  0  0  0  0  0  0  0  0
   64.3966   -7.5022  -11.8614 C   0  0  0  0  0  0  0  0  0  0  0  0
   64.6552   -7.9454  -10.5033 C   0  0  0  0  0  0  0  0  0  0  0  0
   64.5032   -9.1326   -9.9800 C   0  0  0  0  0  0  0  0  0  0  0  0
   65.2757   -6.7701   -9.8216 C   0  0  0  0  0  0  0  0  0  0  0  0
   65.6496   -6.7153   -8.6464 O   0  0  0  0  0  0  0  0  0  0  0  0
   65.3670   -5.7102  -10.7597 N   0  0  0  0  0  0  0  0  0  0  0  0
   64.8289   -6.1832  -11.9845 C   0  0  0  0  0  0  0  0  0  0  0  0
   64.6797   -5.5152  -13.1810 C   0  0  0  0  0  0  0  0  0  0  0  0
   65.7629   -4.7394  -10.5873 H   0  0  0  0  0  0  0  0  0  0  0  0
   64.1853  -10.3162  -10.7172 C   0  0  0  0  0  0  0  0  0  0  0  0
   65.0291  -11.0218  -11.5429 C   0  0  0  0  0  0  0  0  0  0  0  0
   64.6080  -12.0818  -12.3044 C   0  0  0  0  0  0  0  0  0  0  0  0
   63.2973  -12.4740  -12.2585 C   0  0  0  0  0  0  0  0  0  0  0  0
   62.4129  -11.8031  -11.4498 C   0  0  0  0  0  0  0  0  0  0  0  0
   62.8466  -10.7486  -10.6965 C   0  0  0  0  0  0  0  0  0  0  0  0
   63.9736   -5.3994  -15.4903 C   0  0  0  0  0  0  0  0  0  0  0  0
   63.7921   -5.9282  -16.6039 O   0  0  0  0  0  0  0  0  0  0  0  0
   63.1176   -3.1439  -15.9669 C   0  0  0  0  0  0  0  0  0  0  0  0
   64.0629   -4.0128  -15.3993 O   0  0  0  0  0  0  0  0  0  0  0  0
   64.8195   -9.2896   -8.6034 N   0  0  0  0  0  0  0  0  0  0  0  0
   65.8490   -9.4749   -8.4102 H   0  0  0  0  0  0  0  0  0  0  0  0
   63.8799   -9.2138   -7.5434 C   0  0  0  0  0  0  0  0  0  0  0  0
   62.5967   -8.7519   -7.7192 C   0  0  0  0  0  0  0  0  0  0  0  0
   61.6937   -8.6925   -6.6506 C   0  0  0  0  0  0  0  0  0  0  0  0
   62.0828   -9.0998   -5.3981 C   0  0  0  0  0  0  0  0  0  0  0  0
   63.3645   -9.5615   -5.2209 C   0  0  0  0  0  0  0  0  0  0  0  0
   64.2628   -9.6204   -6.2844 C   0  0  0  0  0  0  0  0  0  0  0  0
   61.1368   -9.0374   -4.2899 N   0  0  0  0  0  0  0  0  0  0  0  0
   60.5578  -10.3166   -3.9454 C   0  0  0  0  0  0  0  0  0  0  0  0
   60.8814   -7.8509   -3.6205 C   0  0  0  0  0  0  0  0  0  0  0  0
   61.6761   -6.8661   -3.9886 O   0  0  0  0  0  0  0  0  0  0  0  0
   59.9167   -7.4797   -2.5939 C   0  0  0  0  0  0  0  0  0  0  0  0
   60.1743   -7.7214   -1.2414 N   0  0  0  0  0  0  0  0  0  0  0  0
   61.4258   -8.2915   -0.8759 C   0  0  0  0  0  0  0  0  0  0  0  0
   61.3049   -9.7513   -0.4981 C   0  0  0  0  0  0  0  0  0  0  0  0
   60.3374   -9.9918    0.5146 N   0  0  0  0  0  0  0  0  0  0  0  0
   59.9166  -11.3357    0.6599 C   0  0  0  0  0  0  0  0  0  0  0  0
   59.3666   -8.9827    0.7206 C   0  0  0  0  0  0  0  0  0  0  0  0
   59.0915   -8.0491   -0.3884 C   0  0  0  0  0  0  0  0  0  0  0  0
 21 22  1  0  0  0
 22 19  1  0  0  0
 19 20  2  0  0  0
 19  1  1  0  0  0
  1  2  2  0  0  0
  2  3  1  0  0  0
  3  4  2  0  0  0
  4  5  1  0  0  0
  5  6  2  0  0  0
  6 23  1  0  0  0
 23 25  1  0  0  0
 25 26  2  0  0  0
 26 27  1  0  0  0
 27 28  2  0  0  0
 28 29  1  0  0  0
 29 30  2  0  0  0
 28 31  1  0  0  0
 31 32  1  0  0  0
 31 33  1  0  0  0
 33 34  2  0  0  0
 33 35  1  0  0  0
 35 36  1  0  0  0
 36 37  1  0  0  0
 37 38  1  0  0  0
 38 39  1  0  0  0
 39 40  1  0  0  0
 39 41  1  0  0  0
 41 42  1  0  0  0
  6 13  1  0  0  0
 13 14  2  0  0  0
 14 15  1  0  0  0
 15 16  2  0  0  0
 16 17  1  0  0  0
 17 18  2  0  0  0
  5  7  1  0  0  0
  7  8  2  0  0  0
  7  9  1  0  0  0
  9 10  1  0  0  0
 10 11  2  0  0  0
 11  1  1  0  0  0
 10  4  1  0  0  0
 30 25  1  0  0  0
 42 36  1  0  0  0
 18 13  1  0  0  0
 23 24  1  0  0  0
  9 12  1  0  0  0
M  END
> <minimizedAffinity>
-3.16358

> <CNNscore>
0.4262978137

> <CNNaffinity>
5.2690668106

> <CNN_VS>
2.2461917400

> <CNNaffinity_variance>
0.1892111152

$$$$
[H]c1c([H])c([H])c(/C(=C2/C(=O)N([H])c3c([H])c(C(=O)OC([H])([H])[H])c([H])c([H])c32)N([H])c2c([H])c([H])c(N(C(=O)C([H])([H])N3C([H])([H])C([H])([H])N(C([H])([H])[H])C([H])([H])C3([H])[H])C([H])([H])[H])c([H])c2[H])c([H])c1[H]


 42 46  0  0  0  0  0  0  0  0999 V2000
   60.9365   -3.5550  -13.9593 C   0  0  0  0  0  0  0  0  0  0  0  0
   61.2745   -4.4987  -13.0387 C   0  0  0  0  0  0  0  0  0  0  0  0
   60.3817   -4.9386  -12.0545 C   0  0  0  0  0  0  0  0  0  0  0  0
   59.1319   -4.3799  -12.0416 C   0  0  0  0  0  0  0  0  0  0  0  0
   57.9921   -4.6330  -11.1788 C   0  0  0  0  0  0  0  0  0  0  0  0
   57.9157   -5.3825  -10.1116 C   0  0  0  0  0  0  0  0  0  0  0  0
   56.9115   -3.7362  -11.6880 C   0  0  0  0  0  0  0  0  0  0  0  0
   55.7660   -3.6374  -11.2386 O   0  0  0  0  0  0  0  0  0  0  0  0
   57.4244   -3.0045  -12.7895 N   0  0  0  0  0  0  0  0  0  0  0  0
   58.7696   -3.4142  -12.9786 C   0  0  0  0  0  0  0  0  0  0  0  0
   59.6742   -3.0045  -13.9347 C   0  0  0  0  0  0  0  0  0  0  0  0
   56.9060   -2.2821  -13.3711 H   0  0  0  0  0  0  0  0  0  0  0  0
   59.0311   -6.0047   -9.4681 C   0  0  0  0  0  0  0  0  0  0  0  0
   59.8082   -5.4672   -8.4688 C   0  0  0  0  0  0  0  0  0  0  0  0
   60.9329   -6.0873   -7.9879 C   0  0  0  0  0  0  0  0  0  0  0  0
   61.3198   -7.2931   -8.5078 C   0  0  0  0  0  0  0  0  0  0  0  0
   60.5785   -7.8737   -9.5076 C   0  0  0  0  0  0  0  0  0  0  0  0
   59.4600   -7.2442   -9.9772 C   0  0  0  0  0  0  0  0  0  0  0  0
   61.8471   -3.0787  -14.9918 C   0  0  0  0  0  0  0  0  0  0  0  0
   61.4776   -2.7542  -16.1368 O   0  0  0  0  0  0  0  0  0  0  0  0
   63.8472   -1.7705  -14.4125 C   0  0  0  0  0  0  0  0  0  0  0  0
   63.1963   -2.9897  -14.6591 O   0  0  0  0  0  0  0  0  0  0  0  0
   56.6572   -5.4676   -9.4569 N   0  0  0  0  0  0  0  0  0  0  0  0
   55.8433   -5.6954  -10.1028 H   0  0  0  0  0  0  0  0  0  0  0  0
   56.4537   -5.2744   -8.0664 C   0  0  0  0  0  0  0  0  0  0  0  0
   56.4794   -4.0322   -7.4769 C   0  0  0  0  0  0  0  0  0  0  0  0
   56.2721   -3.8773   -6.1007 C   0  0  0  0  0  0  0  0  0  0  0  0
   56.0375   -4.9773   -5.3126 C   0  0  0  0  0  0  0  0  0  0  0  0
   56.0115   -6.2188   -5.9000 C   0  0  0  0  0  0  0  0  0  0  0  0
   56.2179   -6.3727   -7.2694 C   0  0  0  0  0  0  0  0  0  0  0  0
   55.8202   -4.8088   -3.8804 N   0  0  0  0  0  0  0  0  0  0  0  0
   56.9105   -4.1468   -3.1996 C   0  0  0  0  0  0  0  0  0  0  0  0
   54.6415   -5.2129   -3.2732 C   0  0  0  0  0  0  0  0  0  0  0  0
   53.7236   -5.6064   -4.1330 O   0  0  0  0  0  0  0  0  0  0  0  0
   54.2175   -5.2852   -1.8814 C   0  0  0  0  0  0  0  0  0  0  0  0
   54.8780   -6.1127   -0.9686 N   0  0  0  0  0  0  0  0  0  0  0  0
   55.4234   -5.5309    0.2100 C   0  0  0  0  0  0  0  0  0  0  0  0
   56.9295   -5.4055    0.1461 C   0  0  0  0  0  0  0  0  0  0  0  0
   57.5840   -6.6322   -0.1483 N   0  0  0  0  0  0  0  0  0  0  0  0
   58.9298   -6.5271   -0.5746 C   0  0  0  0  0  0  0  0  0  0  0  0
   56.7953   -7.6498   -0.7362 C   0  0  0  0  0  0  0  0  0  0  0  0
   55.5705   -7.2492   -1.4548 C   0  0  0  0  0  0  0  0  0  0  0  0
 21 22  1  0  0  0
 22 19  1  0  0  0
 19 20  2  0  0  0
 19  1  1  0  0  0
  1  2  2  0  0  0
  2  3  1  0  0  0
  3  4  2  0  0  0
  4  5  1  0  0  0
  5  6  2  0  0  0
  6 23  1  0  0  0
 23 25  1  0  0  0
 25 26  2  0  0  0
 26 27  1  0  0  0
 27 28  2  0  0  0
 28 29  1  0  0  0
 29 30  2  0  0  0
 28 31  1  0  0  0
 31 32  1  0  0  0
 31 33  1  0  0  0
 33 34  2  0  0  0
 33 35  1  0  0  0
 35 36  1  0  0  0
 36 37  1  0  0  0
 37 38  1  0  0  0
 38 39  1  0  0  0
 39 40  1  0  0  0
 39 41  1  0  0  0
 41 42  1  0  0  0
  6 13  1  0  0  0
 13 14  2  0  0  0
 14 15  1  0  0  0
 15 16  2  0  0  0
 16 17  1  0  0  0
 17 18  2  0  0  0
  5  7  1  0  0  0
  7  8  2  0  0  0
  7  9  1  0  0  0
  9 10  1  0  0  0
 10 11  2  0  0  0
 11  1  1  0  0  0
 10  4  1  0  0  0
 30 25  1  0  0  0
 42 36  1  0  0  0
 18 13  1  0  0  0
 23 24  1  0  0  0
  9 12  1  0  0  0
M  END
> <minimizedAffinity>
-2.90952

> <CNNscore>
0.3956331611

> <CNNaffinity>
6.2436547279

> <CNN_VS>
2.4701969624

> <CNNaffinity_variance>
0.1523886919

$$$$
[H]c1c([H])c([H])c(/C(=C2/C(=O)N([H])c3c([H])c(C(=O)OC([H])([H])[H])c([H])c([H])c32)N([H])c2c([H])c([H])c(N(C(=O)C([H])([H])N3C([H])([H])C([H])([H])N(C([H])([H])[H])C([H])([H])C3([H])[H])C([H])([H])[H])c([H])c2[H])c([H])c1[H]


 42 46  0  0  0  0  0  0  0  0999 V2000
   64.0444   -6.3298  -13.5279 C   0  0  0  0  0  0  0  0  0  0  0  0
   63.5032   -7.5740  -13.4211 C   0  0  0  0  0  0  0  0  0  0  0  0
   63.5438   -8.3087  -12.2303 C   0  0  0  0  0  0  0  0  0  0  0  0
   64.1581   -7.7296  -11.1526 C   0  0  0  0  0  0  0  0  0  0  0  0
   64.3428   -8.2142   -9.7966 C   0  0  0  0  0  0  0  0  0  0  0  0
   64.0681   -9.3890   -9.2958 C   0  0  0  0  0  0  0  0  0  0  0  0
   65.0552   -7.1122   -9.0829 C   0  0  0  0  0  0  0  0  0  0  0  0
   65.4057   -7.1093   -7.8993 O   0  0  0  0  0  0  0  0  0  0  0  0
   65.2671   -6.0527  -10.0017 N   0  0  0  0  0  0  0  0  0  0  0  0
   64.7151   -6.4556  -11.2451 C   0  0  0  0  0  0  0  0  0  0  0  0
   64.6566   -5.7598  -12.4338 C   0  0  0  0  0  0  0  0  0  0  0  0
   65.7484   -5.1260   -9.8053 H   0  0  0  0  0  0  0  0  0  0  0  0
   63.6574  -10.5269  -10.0586 C   0  0  0  0  0  0  0  0  0  0  0  0
   62.3652  -10.9267  -10.3075 C   0  0  0  0  0  0  0  0  0  0  0  0
   62.0615  -12.0984  -10.9522 C   0  0  0  0  0  0  0  0  0  0  0  0
   63.0691  -12.9225  -11.3760 C   0  0  0  0  0  0  0  0  0  0  0  0
   64.3776  -12.5699  -11.1526 C   0  0  0  0  0  0  0  0  0  0  0  0
   64.6654  -11.3992  -10.5088 C   0  0  0  0  0  0  0  0  0  0  0  0
   64.0174   -5.5457  -14.7554 C   0  0  0  0  0  0  0  0  0  0  0  0
   65.0423   -5.2219  -15.3859 O   0  0  0  0  0  0  0  0  0  0  0  0
   62.3666   -5.3180  -16.5638 C   0  0  0  0  0  0  0  0  0  0  0  0
   62.7700   -5.1485  -15.2299 O   0  0  0  0  0  0  0  0  0  0  0  0
   64.3368   -9.5943   -7.9155 N   0  0  0  0  0  0  0  0  0  0  0  0
   65.3056   -9.2810   -7.6077 H   0  0  0  0  0  0  0  0  0  0  0  0
   63.4250  -10.1629   -6.9894 C   0  0  0  0  0  0  0  0  0  0  0  0
   62.1779   -9.6336   -6.7537 C   0  0  0  0  0  0  0  0  0  0  0  0
   61.3015  -10.2220   -5.8336 C   0  0  0  0  0  0  0  0  0  0  0  0
   61.6808  -11.3492   -5.1467 C   0  0  0  0  0  0  0  0  0  0  0  0
   62.9263  -11.8792   -5.3812 C   0  0  0  0  0  0  0  0  0  0  0  0
   63.7982  -11.2934   -6.2967 C   0  0  0  0  0  0  0  0  0  0  0  0
   60.7625  -11.9583   -4.1915 N   0  0  0  0  0  0  0  0  0  0  0  0
   59.9765  -13.0378   -4.7460 C   0  0  0  0  0  0  0  0  0  0  0  0
   60.7136  -11.5467   -2.8689 C   0  0  0  0  0  0  0  0  0  0  0  0
   61.6622  -10.6863   -2.5579 O   0  0  0  0  0  0  0  0  0  0  0  0
   59.8288  -11.8773   -1.7598 C   0  0  0  0  0  0  0  0  0  0  0  0
   59.1810  -10.8756   -1.0310 N   0  0  0  0  0  0  0  0  0  0  0  0
   58.5223   -9.8325   -1.7404 C   0  0  0  0  0  0  0  0  0  0  0  0
   59.2939   -8.5321   -1.6994 C   0  0  0  0  0  0  0  0  0  0  0  0
   59.6128   -8.1087   -0.3808 N   0  0  0  0  0  0  0  0  0  0  0  0
   60.6210   -7.1204   -0.2765 C   0  0  0  0  0  0  0  0  0  0  0  0
   59.5633   -9.0940    0.6341 C   0  0  0  0  0  0  0  0  0  0  0  0
   59.7010  -10.5077    0.2346 C   0  0  0  0  0  0  0  0  0  0  0  0
 21 22  1  0  0  0
 22 19  1  0  0  0
 19 20  2  0  0  0
 19  1  1  0  0  0
  1  2  2  0  0  0
  2  3  1  0  0  0
  3  4  2  0  0  0
  4  5  1  0  0  0
  5  6  2  0  0  0
  6 23  1  0  0  0
 23 25  1  0  0  0
 25 26  2  0  0  0
 26 27  1  0  0  0
 27 28  2  0  0  0
 28 29  1  0  0  0
 29 30  2  0  0  0
 28 31  1  0  0  0
 31 32  1  0  0  0
 31 33  1  0  0  0
 33 34  2  0  0  0
 33 35  1  0  0  0
 35 36  1  0  0  0
 36 37  1  0  0  0
 37 38  1  0  0  0
 38 39  1  0  0  0
 39 40  1  0  0  0
 39 41  1  0  0  0
 41 42  1  0  0  0
  6 13  1  0  0  0
 13 14  2  0  0  0
 14 15  1  0  0  0
 15 16  2  0  0  0
 16 17  1  0  0  0
 17 18  2  0  0  0
  5  7  1  0  0  0
  7  8  2  0  0  0
  7  9  1  0  0  0
  9 10  1  0  0  0
 10 11  2  0  0  0
 11  1  1  0  0  0
 10  4  1  0  0  0
 30 25  1  0  0  0
 42 36  1  0  0  0
 18 13  1  0  0  0
 23 24  1  0  0  0
  9 12  1  0  0  0
M  END
> <minimizedAffinity>
-3.29504

> <CNNscore>
0.3655668795

> <CNNaffinity>
5.2316184044

> <CNN_VS>
1.9125064611

> <CNNaffinity_variance>
0.1871657372

$$$$
[H]c1c([H])c([H])c(/C(=C2/C(=O)N([H])c3c([H])c(C(=O)OC([H])([H])[H])c([H])c([H])c32)N([H])c2c([H])c([H])c(N(C(=O)C([H])([H])N3C([H])([H])C([H])([H])N(C([H])([H])[H])C([H])([H])C3([H])[H])C([H])([H])[H])c([H])c2[H])c([H])c1[H]


 42 46  0  0  0  0  0  0  0  0999 V2000
   53.2150   -4.0474   -8.2485 C   0  0  0  0  0  0  0  0  0  0  0  0
   53.3271   -4.2259   -9.5931 C   0  0  0  0  0  0  0  0  0  0  0  0
   54.5572   -4.4643  -10.2172 C   0  0  0  0  0  0  0  0  0  0  0  0
   55.6696   -4.5122   -9.4206 C   0  0  0  0  0  0  0  0  0  0  0  0
   57.0611   -4.7581   -9.7538 C   0  0  0  0  0  0  0  0  0  0  0  0
   57.6190   -4.8787  -10.9288 C   0  0  0  0  0  0  0  0  0  0  0  0
   57.7870   -4.7175   -8.4490 C   0  0  0  0  0  0  0  0  0  0  0  0
   58.9982   -4.8821   -8.2766 O   0  0  0  0  0  0  0  0  0  0  0  0
   56.8427   -4.4543   -7.4239 N   0  0  0  0  0  0  0  0  0  0  0  0
   55.5713   -4.3338   -8.0421 C   0  0  0  0  0  0  0  0  0  0  0  0
   54.3433   -4.1012   -7.4605 C   0  0  0  0  0  0  0  0  0  0  0  0
   57.0406   -4.3627   -6.3840 H   0  0  0  0  0  0  0  0  0  0  0  0
   56.9638   -4.6257  -12.1746 C   0  0  0  0  0  0  0  0  0  0  0  0
   56.6076   -5.5586  -13.1203 C   0  0  0  0  0  0  0  0  0  0  0  0
   56.0863   -5.2164  -14.3417 C   0  0  0  0  0  0  0  0  0  0  0  0
   55.9030   -3.8970  -14.6573 C   0  0  0  0  0  0  0  0  0  0  0  0
   56.2423   -2.9250  -13.7482 C   0  0  0  0  0  0  0  0  0  0  0  0
   56.7608   -3.2809  -12.5349 C   0  0  0  0  0  0  0  0  0  0  0  0
   51.9479   -3.7958   -7.5753 C   0  0  0  0  0  0  0  0  0  0  0  0
   51.4458   -4.5758   -6.7433 O   0  0  0  0  0  0  0  0  0  0  0  0
   50.1978   -2.1214   -7.1502 C   0  0  0  0  0  0  0  0  0  0  0  0
   51.2809   -2.6158   -7.8940 O   0  0  0  0  0  0  0  0  0  0  0  0
   59.0159   -5.1367  -10.9697 N   0  0  0  0  0  0  0  0  0  0  0  0
   59.3895   -5.6554  -10.1195 H   0  0  0  0  0  0  0  0  0  0  0  0
   59.8785   -4.7563  -12.0298 C   0  0  0  0  0  0  0  0  0  0  0  0
   59.5378   -3.8016  -12.9590 C   0  0  0  0  0  0  0  0  0  0  0  0
   60.4148   -3.4484  -13.9920 C   0  0  0  0  0  0  0  0  0  0  0  0
   61.6414   -4.0582  -14.0912 C   0  0  0  0  0  0  0  0  0  0  0  0
   61.9831   -5.0120  -13.1636 C   0  0  0  0  0  0  0  0  0  0  0  0
   61.1102   -5.3633  -12.1360 C   0  0  0  0  0  0  0  0  0  0  0  0
   62.5509   -3.6841  -15.1681 N   0  0  0  0  0  0  0  0  0  0  0  0
   62.6372   -4.6663  -16.2255 C   0  0  0  0  0  0  0  0  0  0  0  0
   63.2143   -2.4670  -15.1670 C   0  0  0  0  0  0  0  0  0  0  0  0
   62.8215   -1.6630  -14.1996 O   0  0  0  0  0  0  0  0  0  0  0  0
   64.2511   -1.9024  -16.0206 C   0  0  0  0  0  0  0  0  0  0  0  0
   65.1136   -0.9097  -15.5465 N   0  0  0  0  0  0  0  0  0  0  0  0
   65.7527   -1.1034  -14.2899 C   0  0  0  0  0  0  0  0  0  0  0  0
   65.1413   -0.2555  -13.1965 C   0  0  0  0  0  0  0  0  0  0  0  0
   65.0926    1.1278  -13.5184 N   0  0  0  0  0  0  0  0  0  0  0  0
   64.2266    1.9166  -12.7235 C   0  0  0  0  0  0  0  0  0  0  0  0
   65.2046    1.4674  -14.8879 C   0  0  0  0  0  0  0  0  0  0  0  0
   64.8530    0.4406  -15.8875 C   0  0  0  0  0  0  0  0  0  0  0  0
 21 22  1  0  0  0
 22 19  1  0  0  0
 19 20  2  0  0  0
 19  1  1  0  0  0
  1  2  2  0  0  0
  2  3  1  0  0  0
  3  4  2  0  0  0
  4  5  1  0  0  0
  5  6  2  0  0  0
  6 23  1  0  0  0
 23 25  1  0  0  0
 25 26  2  0  0  0
 26 27  1  0  0  0
 27 28  2  0  0  0
 28 29  1  0  0  0
 29 30  2  0  0  0
 28 31  1  0  0  0
 31 32  1  0  0  0
 31 33  1  0  0  0
 33 34  2  0  0  0
 33 35  1  0  0  0
 35 36  1  0  0  0
 36 37  1  0  0  0
 37 38  1  0  0  0
 38 39  1  0  0  0
 39 40  1  0  0  0
 39 41  1  0  0  0
 41 42  1  0  0  0
  6 13  1  0  0  0
 13 14  2  0  0  0
 14 15  1  0  0  0
 15 16  2  0  0  0
 16 17  1  0  0  0
 17 18  2  0  0  0
  5  7  1  0  0  0
  7  8  2  0  0  0
  7  9  1  0  0  0
  9 10  1  0  0  0
 10 11  2  0  0  0
 11  1  1  0  0  0
 10  4  1  0  0  0
 30 25  1  0  0  0
 42 36  1  0  0  0
 18 13  1  0  0  0
 23 24  1  0  0  0
  9 12  1  0  0  0
M  END
> <minimizedAffinity>
-5.40718

> <CNNscore>
0.3320566416

> <CNNaffinity>
5.9328598976

> <CNN_VS>
1.9700455666

> <CNNaffinity_variance>
0.1317911297

$$$$
[H]c1c([H])c([H])c(/C(=C2/C(=O)N([H])c3c([H])c(C(=O)OC([H])([H])[H])c([H])c([H])c32)N([H])c2c([H])c([H])c(N(C(=O)C([H])([H])N3C([H])([H])C([H])([H])N(C([H])([H])[H])C([H])([H])C3([H])[H])C([H])([H])[H])c([H])c2[H])c([H])c1[H]


 42 46  0  0  0  0  0  0  0  0999 V2000
   56.6944   -4.0232  -13.4343 C   0  0  0  0  0  0  0  0  0  0  0  0
   57.6192   -4.9333  -13.0237 C   0  0  0  0  0  0  0  0  0  0  0  0
   57.8555   -5.2030  -11.6706 C   0  0  0  0  0  0  0  0  0  0  0  0
   57.1157   -4.5095  -10.7509 C   0  0  0  0  0  0  0  0  0  0  0  0
   57.1081   -4.5749   -9.3006 C   0  0  0  0  0  0  0  0  0  0  0  0
   57.9009   -5.2365   -8.5005 C   0  0  0  0  0  0  0  0  0  0  0  0
   56.0599   -3.6007   -8.8724 C   0  0  0  0  0  0  0  0  0  0  0  0
   55.7245   -3.3448   -7.7122 O   0  0  0  0  0  0  0  0  0  0  0  0
   55.5040   -3.0076  -10.0347 N   0  0  0  0  0  0  0  0  0  0  0  0
   56.1633   -3.5760  -11.1551 C   0  0  0  0  0  0  0  0  0  0  0  0
   55.9562   -3.3356  -12.4966 C   0  0  0  0  0  0  0  0  0  0  0  0
   54.7365   -2.2736  -10.0703 H   0  0  0  0  0  0  0  0  0  0  0  0
   59.0806   -5.9331   -8.9110 C   0  0  0  0  0  0  0  0  0  0  0  0
   59.1482   -6.9871   -9.7918 C   0  0  0  0  0  0  0  0  0  0  0  0
   60.3090   -7.6736  -10.0408 C   0  0  0  0  0  0  0  0  0  0  0  0
   61.4630   -7.3140   -9.3983 C   0  0  0  0  0  0  0  0  0  0  0  0
   61.4502   -6.2678   -8.5085 C   0  0  0  0  0  0  0  0  0  0  0  0
   60.2860   -5.5928   -8.2701 C   0  0  0  0  0  0  0  0  0  0  0  0
   56.4311   -3.7227  -14.8352 C   0  0  0  0  0  0  0  0  0  0  0  0
   55.3810   -3.1850  -15.2364 O   0  0  0  0  0  0  0  0  0  0  0  0
   57.1353   -4.4872  -17.0638 C   0  0  0  0  0  0  0  0  0  0  0  0
   57.4187   -4.0632  -15.7559 O   0  0  0  0  0  0  0  0  0  0  0  0
   57.6580   -5.1363   -7.1039 N   0  0  0  0  0  0  0  0  0  0  0  0
   58.4828   -4.7677   -6.5424 H   0  0  0  0  0  0  0  0  0  0  0  0
   56.4391   -5.4847   -6.4674 C   0  0  0  0  0  0  0  0  0  0  0  0
   55.5349   -6.3601   -7.0215 C   0  0  0  0  0  0  0  0  0  0  0  0
   54.3414   -6.6837   -6.3644 C   0  0  0  0  0  0  0  0  0  0  0  0
   54.0553   -6.1243   -5.1431 C   0  0  0  0  0  0  0  0  0  0  0  0
   54.9577   -5.2496   -4.5883 C   0  0  0  0  0  0  0  0  0  0  0  0
   56.1451   -4.9277   -5.2424 C   0  0  0  0  0  0  0  0  0  0  0  0
   52.8117   -6.4672   -4.4631 N   0  0  0  0  0  0  0  0  0  0  0  0
   51.6256   -6.0102   -5.1521 C   0  0  0  0  0  0  0  0  0  0  0  0
   52.8062   -7.2090   -3.2922 C   0  0  0  0  0  0  0  0  0  0  0  0
   53.9951   -7.6767   -2.9688 O   0  0  0  0  0  0  0  0  0  0  0  0
   51.7522   -7.5750   -2.3555 C   0  0  0  0  0  0  0  0  0  0  0  0
   52.0197   -7.7241   -0.9916 N   0  0  0  0  0  0  0  0  0  0  0  0
   52.6195   -6.6404   -0.2909 C   0  0  0  0  0  0  0  0  0  0  0  0
   54.0823   -6.8861    0.0059 C   0  0  0  0  0  0  0  0  0  0  0  0
   54.3198   -8.1090    0.6897 N   0  0  0  0  0  0  0  0  0  0  0  0
   55.6573   -8.5725    0.6795 C   0  0  0  0  0  0  0  0  0  0  0  0
   53.2954   -9.0836    0.6262 C   0  0  0  0  0  0  0  0  0  0  0  0
   52.3396   -9.0122   -0.4956 C   0  0  0  0  0  0  0  0  0  0  0  0
 21 22  1  0  0  0
 22 19  1  0  0  0
 19 20  2  0  0  0
 19  1  1  0  0  0
  1  2  2  0  0  0
  2  3  1  0  0  0
  3  4  2  0  0  0
  4  5  1  0  0  0
  5  6  2  0  0  0
  6 23  1  0  0  0
 23 25  1  0  0  0
 25 26  2  0  0  0
 26 27  1  0  0  0
 27 28  2  0  0  0
 28 29  1  0  0  0
 29 30  2  0  0  0
 28 31  1  0  0  0
 31 32  1  0  0  0
 31 33  1  0  0  0
 33 34  2  0  0  0
 33 35  1  0  0  0
 35 36  1  0  0  0
 36 37  1  0  0  0
 37 38  1  0  0  0
 38 39  1  0  0  0
 39 40  1  0  0  0
 39 41  1  0  0  0
 41 42  1  0  0  0
  6 13  1  0  0  0
 13 14  2  0  0  0
 14 15  1  0  0  0
 15 16  2  0  0  0
 16 17  1  0  0  0
 17 18  2  0  0  0
  5  7  1  0  0  0
  7  8  2  0  0  0
  7  9  1  0  0  0
  9 10  1  0  0  0
 10 11  2  0  0  0
 11  1  1  0  0  0
 10  4  1  0  0  0
 30 25  1  0  0  0
 42 36  1  0  0  0
 18 13  1  0  0  0
 23 24  1  0  0  0
  9 12  1  0  0  0
M  END
> <minimizedAffinity>
-4.97204

> <CNNscore>
0.3147273958

> <CNNaffinity>
6.4687905312

> <CNN_VS>
2.0359055996

> <CNNaffinity_variance>
0.2017903328

$$$$
[H]C1=C([H])C([H])(F)C([H])([H])C([H])=C1N([H])C(=O)C1(C(=O)N([H])c2c([H])c([H])c(Oc3c([H])c([H])nc4c([H])c(OC([H])([H])C([H])([H])C([H])([H])N5C([H])([H])C([H])([H])OC([H])([H])C5([H])[H])c(OC([H])([H])[H])c([H])c34)c(F)c2[H])C([H])([H])C1([H])[H]


 48 53  0  0  0  0  0  0  0  0999 V2000
   56.1828   -4.4601   -9.9571 C   0  0  0  0  0  0  0  0  0  0  0  0
   55.5698   -3.7250  -10.9622 C   0  0  0  0  0  0  0  0  0  0  0  0
   56.1525   -3.4062  -12.1527 C   0  0  0  0  0  0  0  0  0  0  0  0
   57.4598   -3.8373  -12.4049 C   0  0  0  0  0  0  0  0  0  0  0  0
   58.1007   -4.5663  -11.4403 C   0  0  0  0  0  0  0  0  0  0  0  0
   57.4746   -4.8799  -10.2228 C   0  0  0  0  0  0  0  0  0  0  0  0
   58.1646   -5.6273   -9.3302 F   0  0  0  0  0  0  0  0  0  0  0  0
   58.0477   -3.5309  -13.6832 N   0  0  0  0  0  0  0  0  0  0  0  0
   57.5161   -3.9652  -14.8758 C   0  0  0  0  0  0  0  0  0  0  0  0
   56.4569   -4.7098  -14.7879 O   0  0  0  0  0  0  0  0  0  0  0  0
   58.9165   -2.9786  -13.6188 H   0  0  0  0  0  0  0  0  0  0  0  0
   57.9437   -3.7363  -16.2771 C   0  0  0  0  0  0  0  0  0  0  0  0
   58.4650   -2.3367  -16.5560 C   0  0  0  0  0  0  0  0  0  0  0  0
   57.0974   -2.6080  -16.9889 C   0  0  0  0  0  0  0  0  0  0  0  0
   58.3633   -4.7947  -17.1964 C   0  0  0  0  0  0  0  0  0  0  0  0
   59.6691   -4.9039  -17.3024 O   0  0  0  0  0  0  0  0  0  0  0  0
   57.6717   -5.7128  -17.9771 N   0  0  0  0  0  0  0  0  0  0  0  0
   56.6423   -5.7968  -18.0045 H   0  0  0  0  0  0  0  0  0  0  0  0
   58.3898   -6.6739  -18.8147 C   0  0  0  0  0  0  0  0  0  0  0  0
   58.6943   -6.2979  -20.0361 C   0  0  0  0  0  0  0  0  0  0  0  0
   59.4059   -7.0989  -21.0276 C   0  0  0  0  0  0  0  0  0  0  0  0
   59.7623   -8.4689  -20.5995 C   0  0  0  0  0  0  0  0  0  0  0  0
   61.1663   -8.6485  -20.6915 F   0  0  0  0  0  0  0  0  0  0  0  0
   59.3795   -8.7875  -19.2227 C   0  0  0  0  0  0  0  0  0  0  0  0
   58.7518   -7.9862  -18.3861 C   0  0  0  0  0  0  0  0  0  0  0  0
   55.5370   -4.7520   -8.7758 O   0  0  0  0  0  0  0  0  0  0  0  0
   53.6185   -6.2593   -5.4870 C   0  0  0  0  0  0  0  0  0  0  0  0
   54.2731   -5.7670   -6.5825 C   0  0  0  0  0  0  0  0  0  0  0  0
   53.6461   -4.8193   -7.3623 C   0  0  0  0  0  0  0  0  0  0  0  0
   54.2809   -4.2844   -8.5041 C   0  0  0  0  0  0  0  0  0  0  0  0
   53.6357   -3.3433   -9.2714 C   0  0  0  0  0  0  0  0  0  0  0  0
   52.3710   -2.9064   -8.9441 C   0  0  0  0  0  0  0  0  0  0  0  0
   51.7703   -3.4161   -7.8573 N   0  0  0  0  0  0  0  0  0  0  0  0
   52.3888   -4.3499   -7.0824 C   0  0  0  0  0  0  0  0  0  0  0  0
   51.7298   -4.8524   -5.9708 C   0  0  0  0  0  0  0  0  0  0  0  0
   52.3296   -5.7973   -5.1734 C   0  0  0  0  0  0  0  0  0  0  0  0
   55.3902   -7.8063   -4.9464 C   0  0  0  0  0  0  0  0  0  0  0  0
   54.1510   -7.2103   -4.6379 O   0  0  0  0  0  0  0  0  0  0  0  0
   51.6967   -6.2895   -4.0791 O   0  0  0  0  0  0  0  0  0  0  0  0
   51.3590   -5.5636   -2.9535 C   0  0  0  0  0  0  0  0  0  0  0  0
   52.1074   -6.0319   -1.7133 C   0  0  0  0  0  0  0  0  0  0  0  0
   53.2366   -5.0326   -1.4284 C   0  0  0  0  0  0  0  0  0  0  0  0
   54.4694   -5.7723   -1.3232 N   0  0  0  0  0  0  0  0  0  0  0  0
   55.3637   -5.1191   -0.3391 C   0  0  0  0  0  0  0  0  0  0  0  0
   56.5610   -6.0678   -0.2307 C   0  0  0  0  0  0  0  0  0  0  0  0
   56.6246   -6.9605   -1.3006 O   0  0  0  0  0  0  0  0  0  0  0  0
   55.5527   -7.8748   -1.2858 C   0  0  0  0  0  0  0  0  0  0  0  0
   54.2832   -7.1386   -0.8377 C   0  0  0  0  0  0  0  0  0  0  0  0
 37 38  1  0  0  0
 38 27  1  0  0  0
 27 28  2  0  0  0
 28 29  1  0  0  0
 29 30  2  0  0  0
 30 26  1  0  0  0
 26  1  1  0  0  0
  1  2  2  0  0  0
  2  3  1  0  0  0
  3  4  2  0  0  0
  4  8  1  0  0  0
  8  9  1  0  0  0
  9 10  2  0  0  0
  9 12  1  0  0  0
 12 13  1  0  0  0
 13 14  1  0  0  0
 12 15  1  0  0  0
 15 16  2  0  0  0
 15 17  1  0  0  0
 17 19  1  0  0  0
 19 20  2  0  0  0
 20 21  1  0  0  0
 21 22  1  0  0  0
 22 23  1  0  0  0
 22 24  1  0  0  0
 24 25  2  0  0  0
  4  5  1  0  0  0
  5  6  2  0  0  0
  6  7  1  0  0  0
 30 31  1  0  0  0
 31 32  2  0  0  0
 32 33  1  0  0  0
 33 34  2  0  0  0
 34 35  1  0  0  0
 35 36  2  0  0  0
 36 39  1  0  0  0
 39 40  1  0  0  0
 40 41  1  0  0  0
 41 42  1  0  0  0
 42 43  1  0  0  0
 43 44  1  0  0  0
 44 45  1  0  0  0
 45 46  1  0  0  0
 46 47  1  0  0  0
 47 48  1  0  0  0
 36 27  1  0  0  0
 48 43  1  0  0  0
 34 29  1  0  0  0
  6  1  1  0  0  0
 14 12  1  0  0  0
 25 19  1  0  0  0
  8 11  1  0  0  0
 17 18  1  0  0  0
M  END
> <minimizedAffinity>
-8.44961

> <CNNscore>
0.3133237362

> <CNNaffinity>
7.1028466225

> <CNN_VS>
2.2254903316

> <CNNaffinity_variance>
0.0665130019

$$$$
[H]C1=C([H])C([H])(F)C([H])([H])C([H])=C1N([H])C(=O)C1(C(=O)N([H])c2c([H])c([H])c(Oc3c([H])c([H])nc4c([H])c(OC([H])([H])C([H])([H])C([H])([H])N5C([H])([H])C([H])([H])OC([H])([H])C5([H])[H])c(OC([H])([H])[H])c([H])c34)c(F)c2[H])C([H])([H])C1([H])[H]


 48 53  0  0  0  0  0  0  0  0999 V2000
   55.4638   -5.5529   -5.4784 C   0  0  0  0  0  0  0  0  0  0  0  0
   55.8059   -4.9210   -4.2909 C   0  0  0  0  0  0  0  0  0  0  0  0
   55.1573   -5.0990   -3.1052 C   0  0  0  0  0  0  0  0  0  0  0  0
   54.0666   -5.9743   -3.0535 C   0  0  0  0  0  0  0  0  0  0  0  0
   53.6964   -6.6192   -4.2022 C   0  0  0  0  0  0  0  0  0  0  0  0
   54.3840   -6.4161   -5.4098 C   0  0  0  0  0  0  0  0  0  0  0  0
   53.9739   -7.1108   -6.4964 F   0  0  0  0  0  0  0  0  0  0  0  0
   53.4177   -6.1861   -1.7855 N   0  0  0  0  0  0  0  0  0  0  0  0
   53.4448   -7.3915   -1.1221 C   0  0  0  0  0  0  0  0  0  0  0  0
   54.0667   -8.3577   -1.7249 O   0  0  0  0  0  0  0  0  0  0  0  0
   52.9107   -5.3590   -1.4354 H   0  0  0  0  0  0  0  0  0  0  0  0
   52.8767   -7.8001    0.1853 C   0  0  0  0  0  0  0  0  0  0  0  0
   53.3654   -6.9811    1.3680 C   0  0  0  0  0  0  0  0  0  0  0  0
   53.9860   -8.2915    1.1972 C   0  0  0  0  0  0  0  0  0  0  0  0
   51.6066   -8.5079    0.3494 C   0  0  0  0  0  0  0  0  0  0  0  0
   50.5901   -7.7061    0.5776 O   0  0  0  0  0  0  0  0  0  0  0  0
   51.2476   -9.8497    0.3093 N   0  0  0  0  0  0  0  0  0  0  0  0
   51.9041  -10.6236    0.1161 H   0  0  0  0  0  0  0  0  0  0  0  0
   49.8578  -10.2588    0.5147 C   0  0  0  0  0  0  0  0  0  0  0  0
   49.0344  -10.1234   -0.4999 C   0  0  0  0  0  0  0  0  0  0  0  0
   47.6166  -10.4711   -0.5060 C   0  0  0  0  0  0  0  0  0  0  0  0
   47.0818  -10.9775    0.7764 C   0  0  0  0  0  0  0  0  0  0  0  0
   46.5291  -12.2700    0.5869 F   0  0  0  0  0  0  0  0  0  0  0  0
   48.0800  -11.0910    1.8415 C   0  0  0  0  0  0  0  0  0  0  0  0
   49.3544  -10.7696    1.7487 C   0  0  0  0  0  0  0  0  0  0  0  0
   56.1631   -5.3322   -6.6446 O   0  0  0  0  0  0  0  0  0  0  0  0
   58.3447   -5.2085  -10.1078 C   0  0  0  0  0  0  0  0  0  0  0  0
   57.6302   -5.2569   -8.9425 C   0  0  0  0  0  0  0  0  0  0  0  0
   56.3486   -4.7501   -8.9260 C   0  0  0  0  0  0  0  0  0  0  0  0
   55.5741   -4.7754   -7.7461 C   0  0  0  0  0  0  0  0  0  0  0  0
   54.2993   -4.2600   -7.7499 C   0  0  0  0  0  0  0  0  0  0  0  0
   53.7569   -3.7161   -8.8933 C   0  0  0  0  0  0  0  0  0  0  0  0
   54.4954   -3.6943  -10.0140 N   0  0  0  0  0  0  0  0  0  0  0  0
   55.7607   -4.1978  -10.0346 C   0  0  0  0  0  0  0  0  0  0  0  0
   56.4896   -4.1513  -11.2132 C   0  0  0  0  0  0  0  0  0  0  0  0
   57.7693   -4.6496  -11.2611 C   0  0  0  0  0  0  0  0  0  0  0  0
   60.2062   -6.4453   -9.1971 C   0  0  0  0  0  0  0  0  0  0  0  0
   59.6349   -5.6854  -10.2374 O   0  0  0  0  0  0  0  0  0  0  0  0
   58.4880   -4.6162  -12.4111 O   0  0  0  0  0  0  0  0  0  0  0  0
   58.8139   -3.4767  -13.1206 C   0  0  0  0  0  0  0  0  0  0  0  0
   60.2731   -3.4588  -13.5539 C   0  0  0  0  0  0  0  0  0  0  0  0
   60.3178   -3.3733  -15.0855 C   0  0  0  0  0  0  0  0  0  0  0  0
   61.3946   -4.2133  -15.5469 N   0  0  0  0  0  0  0  0  0  0  0  0
   62.3436   -3.4131  -16.3556 C   0  0  0  0  0  0  0  0  0  0  0  0
   63.4871   -4.3840  -16.6641 C   0  0  0  0  0  0  0  0  0  0  0  0
   63.1193   -5.7137  -16.4588 O   0  0  0  0  0  0  0  0  0  0  0  0
   62.8894   -5.9904  -15.0965 C   0  0  0  0  0  0  0  0  0  0  0  0
   62.1889   -4.7828  -14.4598 C   0  0  0  0  0  0  0  0  0  0  0  0
 37 38  1  0  0  0
 38 27  1  0  0  0
 27 28  2  0  0  0
 28 29  1  0  0  0
 29 30  2  0  0  0
 30 26  1  0  0  0
 26  1  1  0  0  0
  1  2  2  0  0  0
  2  3  1  0  0  0
  3  4  2  0  0  0
  4  8  1  0  0  0
  8  9  1  0  0  0
  9 10  2  0  0  0
  9 12  1  0  0  0
 12 13  1  0  0  0
 13 14  1  0  0  0
 12 15  1  0  0  0
 15 16  2  0  0  0
 15 17  1  0  0  0
 17 19  1  0  0  0
 19 20  2  0  0  0
 20 21  1  0  0  0
 21 22  1  0  0  0
 22 23  1  0  0  0
 22 24  1  0  0  0
 24 25  2  0  0  0
  4  5  1  0  0  0
  5  6  2  0  0  0
  6  7  1  0  0  0
 30 31  1  0  0  0
 31 32  2  0  0  0
 32 33  1  0  0  0
 33 34  2  0  0  0
 34 35  1  0  0  0
 35 36  2  0  0  0
 36 39  1  0  0  0
 39 40  1  0  0  0
 40 41  1  0  0  0
 41 42  1  0  0  0
 42 43  1  0  0  0
 43 44  1  0  0  0
 44 45  1  0  0  0
 45 46  1  0  0  0
 46 47  1  0  0  0
 47 48  1  0  0  0
 36 27  1  0  0  0
 48 43  1  0  0  0
 34 29  1  0  0  0
  6  1  1  0  0  0
 14 12  1  0  0  0
 25 19  1  0  0  0
  8 11  1  0  0  0
 17 18  1  0  0  0
M  END
> <minimizedAffinity>
-9.34858

> <CNNscore>
0.2511548698

> <CNNaffinity>
6.7276563644

> <CNN_VS>
1.6896836758

> <CNNaffinity_variance>
0.1695623696

$$$$
[H]C1=C([H])C([H])(F)C([H])([H])C([H])=C1N([H])C(=O)C1(C(=O)N([H])c2c([H])c([H])c(Oc3c([H])c([H])nc4c([H])c(OC([H])([H])C([H])([H])C([H])([H])N5C([H])([H])C([H])([H])OC([H])([H])C5([H])[H])c(OC([H])([H])[H])c([H])c34)c(F)c2[H])C([H])([H])C1([H])[H]


 48 53  0  0  0  0  0  0  0  0999 V2000
   56.3258   -4.5238  -10.1182 C   0  0  0  0  0  0  0  0  0  0  0  0
   55.5485   -3.8978  -11.0827 C   0  0  0  0  0  0  0  0  0  0  0  0
   55.9912   -3.5421  -12.3219 C   0  0  0  0  0  0  0  0  0  0  0  0
   57.3184   -3.8151  -12.6722 C   0  0  0  0  0  0  0  0  0  0  0  0
   58.1194   -4.4327  -11.7505 C   0  0  0  0  0  0  0  0  0  0  0  0
   57.6352   -4.7879  -10.4808 C   0  0  0  0  0  0  0  0  0  0  0  0
   58.4814   -5.4196   -9.6345 F   0  0  0  0  0  0  0  0  0  0  0  0
   57.7610   -3.4734  -13.9992 N   0  0  0  0  0  0  0  0  0  0  0  0
   57.2608   -4.0715  -15.1331 C   0  0  0  0  0  0  0  0  0  0  0  0
   56.3779   -5.0030  -14.9415 O   0  0  0  0  0  0  0  0  0  0  0  0
   58.5044   -2.7587  -14.0176 H   0  0  0  0  0  0  0  0  0  0  0  0
   57.5552   -3.8442  -16.5685 C   0  0  0  0  0  0  0  0  0  0  0  0
   57.7678   -2.3876  -16.9450 C   0  0  0  0  0  0  0  0  0  0  0  0
   56.4609   -2.9491  -17.2738 C   0  0  0  0  0  0  0  0  0  0  0  0
   58.1275   -4.8500  -17.4640 C   0  0  0  0  0  0  0  0  0  0  0  0
   59.4413   -4.8236  -17.5038 O   0  0  0  0  0  0  0  0  0  0  0  0
   57.5745   -5.8315  -18.2775 N   0  0  0  0  0  0  0  0  0  0  0  0
   56.5619   -6.0210  -18.3569 H   0  0  0  0  0  0  0  0  0  0  0  0
   58.4292   -6.7101  -19.0766 C   0  0  0  0  0  0  0  0  0  0  0  0
   59.0454   -6.1760  -20.1065 C   0  0  0  0  0  0  0  0  0  0  0  0
   59.9400   -6.8725  -21.0262 C   0  0  0  0  0  0  0  0  0  0  0  0
   60.1104   -8.3194  -20.7722 C   0  0  0  0  0  0  0  0  0  0  0  0
   61.4826   -8.6092  -20.5600 F   0  0  0  0  0  0  0  0  0  0  0  0
   59.3827   -8.8144  -19.6021 C   0  0  0  0  0  0  0  0  0  0  0  0
   58.6078   -8.1009  -18.8106 C   0  0  0  0  0  0  0  0  0  0  0  0
   55.8166   -4.8609   -8.8834 O   0  0  0  0  0  0  0  0  0  0  0  0
   54.2430   -6.5958   -5.5245 C   0  0  0  0  0  0  0  0  0  0  0  0
   54.7828   -6.0273   -6.6452 C   0  0  0  0  0  0  0  0  0  0  0  0
   54.0662   -5.0555   -7.3097 C   0  0  0  0  0  0  0  0  0  0  0  0
   54.5812   -4.4424   -8.4723 C   0  0  0  0  0  0  0  0  0  0  0  0
   53.8478   -3.4784   -9.1231 C   0  0  0  0  0  0  0  0  0  0  0  0
   52.6096   -3.0938   -8.6578 C   0  0  0  0  0  0  0  0  0  0  0  0
   52.1230   -3.6778   -7.5515 N   0  0  0  0  0  0  0  0  0  0  0  0
   52.8304   -4.6357   -6.8903 C   0  0  0  0  0  0  0  0  0  0  0  0
   52.2878   -5.2155   -5.7536 C   0  0  0  0  0  0  0  0  0  0  0  0
   52.9789   -6.1861   -5.0691 C   0  0  0  0  0  0  0  0  0  0  0  0
   56.0057   -7.2510   -4.0118 C   0  0  0  0  0  0  0  0  0  0  0  0
   54.8720   -7.5772   -4.7827 O   0  0  0  0  0  0  0  0  0  0  0  0
   52.4606   -6.7539   -3.9514 O   0  0  0  0  0  0  0  0  0  0  0  0
   52.3366   -6.1369   -2.7218 C   0  0  0  0  0  0  0  0  0  0  0  0
   51.0679   -6.5503   -1.9890 C   0  0  0  0  0  0  0  0  0  0  0  0
   51.4640   -7.4661   -0.8231 C   0  0  0  0  0  0  0  0  0  0  0  0
   50.2568   -8.0175   -0.2604 N   0  0  0  0  0  0  0  0  0  0  0  0
   49.9742   -9.3361   -0.8739 C   0  0  0  0  0  0  0  0  0  0  0  0
   48.7593   -9.8582   -0.1013 C   0  0  0  0  0  0  0  0  0  0  0  0
   48.1025   -8.8441    0.5958 O   0  0  0  0  0  0  0  0  0  0  0  0
   48.8913   -8.3326    1.6453 C   0  0  0  0  0  0  0  0  0  0  0  0
   50.3510   -8.2657    1.1771 C   0  0  0  0  0  0  0  0  0  0  0  0
 37 38  1  0  0  0
 38 27  1  0  0  0
 27 28  2  0  0  0
 28 29  1  0  0  0
 29 30  2  0  0  0
 30 26  1  0  0  0
 26  1  1  0  0  0
  1  2  2  0  0  0
  2  3  1  0  0  0
  3  4  2  0  0  0
  4  8  1  0  0  0
  8  9  1  0  0  0
  9 10  2  0  0  0
  9 12  1  0  0  0
 12 13  1  0  0  0
 13 14  1  0  0  0
 12 15  1  0  0  0
 15 16  2  0  0  0
 15 17  1  0  0  0
 17 19  1  0  0  0
 19 20  2  0  0  0
 20 21  1  0  0  0
 21 22  1  0  0  0
 22 23  1  0  0  0
 22 24  1  0  0  0
 24 25  2  0  0  0
  4  5  1  0  0  0
  5  6  2  0  0  0
  6  7  1  0  0  0
 30 31  1  0  0  0
 31 32  2  0  0  0
 32 33  1  0  0  0
 33 34  2  0  0  0
 34 35  1  0  0  0
 35 36  2  0  0  0
 36 39  1  0  0  0
 39 40  1  0  0  0
 40 41  1  0  0  0
 41 42  1  0  0  0
 42 43  1  0  0  0
 43 44  1  0  0  0
 44 45  1  0  0  0
 45 46  1  0  0  0
 46 47  1  0  0  0
 47 48  1  0  0  0
 36 27  1  0  0  0
 48 43  1  0  0  0
 34 29  1  0  0  0
  6  1  1  0  0  0
 14 12  1  0  0  0
 25 19  1  0  0  0
  8 11  1  0  0  0
 17 18  1  0  0  0
M  END
> <minimizedAffinity>
-8.98748

> <CNNscore>
0.2393307239

> <CNNaffinity>
6.7712745667

> <CNN_VS>
1.6205739975

> <CNNaffinity_variance>
0.0915875435

$$$$
[H]C1=C([H])C([H])(F)C([H])([H])C([H])=C1N([H])C(=O)C1(C(=O)N([H])c2c([H])c([H])c(Oc3c([H])c([H])nc4c([H])c(OC([H])([H])C([H])([H])C([H])([H])N5C([H])([H])C([H])([H])OC([H])([H])C5([H])[H])c(OC([H])([H])[H])c([H])c34)c(F)c2[H])C([H])([H])C1([H])[H]


 48 53  0  0  0  0  0  0  0  0999 V2000
   55.7925   -5.8812   -4.9574 C   0  0  0  0  0  0  0  0  0  0  0  0
   55.8757   -5.1903   -3.7565 C   0  0  0  0  0  0  0  0  0  0  0  0
   55.4624   -5.6787   -2.5528 C   0  0  0  0  0  0  0  0  0  0  0  0
   54.9113   -6.9638   -2.4953 C   0  0  0  0  0  0  0  0  0  0  0  0
   54.8117   -7.6802   -3.6569 C   0  0  0  0  0  0  0  0  0  0  0  0
   55.2464   -7.1509   -4.8831 C   0  0  0  0  0  0  0  0  0  0  0  0
   55.1388   -7.9314   -5.9834 F   0  0  0  0  0  0  0  0  0  0  0  0
   54.5187   -7.4841   -1.2113 N   0  0  0  0  0  0  0  0  0  0  0  0
   53.2388   -7.3744   -0.7179 C   0  0  0  0  0  0  0  0  0  0  0  0
   52.3942   -6.7344   -1.4670 O   0  0  0  0  0  0  0  0  0  0  0  0
   55.2914   -7.9225   -0.6872 H   0  0  0  0  0  0  0  0  0  0  0  0
   52.6334   -7.8618    0.5449 C   0  0  0  0  0  0  0  0  0  0  0  0
   52.9243   -6.9951    1.7585 C   0  0  0  0  0  0  0  0  0  0  0  0
   53.7191   -8.2137    1.6373 C   0  0  0  0  0  0  0  0  0  0  0  0
   51.4562   -8.7280    0.6166 C   0  0  0  0  0  0  0  0  0  0  0  0
   51.5968   -9.8527   -0.0494 O   0  0  0  0  0  0  0  0  0  0  0  0
   50.2222   -8.6143    1.2453 N   0  0  0  0  0  0  0  0  0  0  0  0
   49.9396   -7.8145    1.8351 H   0  0  0  0  0  0  0  0  0  0  0  0
   49.2233   -9.6773    1.1306 C   0  0  0  0  0  0  0  0  0  0  0  0
   48.4827   -9.6926    0.0457 C   0  0  0  0  0  0  0  0  0  0  0  0
   47.4365  -10.6621   -0.2648 C   0  0  0  0  0  0  0  0  0  0  0  0
   47.1838  -11.6792    0.7786 C   0  0  0  0  0  0  0  0  0  0  0  0
   47.3676  -12.9767    0.2360 F   0  0  0  0  0  0  0  0  0  0  0  0
   48.0621  -11.5749    1.9454 C   0  0  0  0  0  0  0  0  0  0  0  0
   49.0017  -10.6703    2.1315 C   0  0  0  0  0  0  0  0  0  0  0  0
   56.2318   -5.3318   -6.1418 O   0  0  0  0  0  0  0  0  0  0  0  0
   57.6447   -4.9603   -9.9673 C   0  0  0  0  0  0  0  0  0  0  0  0
   57.1893   -5.0891   -8.6840 C   0  0  0  0  0  0  0  0  0  0  0  0
   55.8761   -4.7736   -8.4090 C   0  0  0  0  0  0  0  0  0  0  0  0
   55.3620   -4.8880   -7.0993 C   0  0  0  0  0  0  0  0  0  0  0  0
   54.0502   -4.5633   -6.8453 C   0  0  0  0  0  0  0  0  0  0  0  0
   53.2192   -4.1263   -7.8532 C   0  0  0  0  0  0  0  0  0  0  0  0
   53.7107   -4.0195   -9.0978 N   0  0  0  0  0  0  0  0  0  0  0  0
   55.0067   -4.3343   -9.3736 C   0  0  0  0  0  0  0  0  0  0  0  0
   55.4738   -4.2054  -10.6728 C   0  0  0  0  0  0  0  0  0  0  0  0
   56.7776   -4.5135  -10.9781 C   0  0  0  0  0  0  0  0  0  0  0  0
   59.7694   -6.0084   -9.5072 C   0  0  0  0  0  0  0  0  0  0  0  0
   58.9395   -5.2473  -10.3546 O   0  0  0  0  0  0  0  0  0  0  0  0
   57.2423   -4.3986  -12.2475 O   0  0  0  0  0  0  0  0  0  0  0  0
   56.5776   -3.7876  -13.2927 C   0  0  0  0  0  0  0  0  0  0  0  0
   56.1686   -4.7740  -14.3777 C   0  0  0  0  0  0  0  0  0  0  0  0
   56.2089   -4.0460  -15.7280 C   0  0  0  0  0  0  0  0  0  0  0  0
   57.5381   -4.1841  -16.2685 N   0  0  0  0  0  0  0  0  0  0  0  0
   57.4670   -4.7478  -17.6368 C   0  0  0  0  0  0  0  0  0  0  0  0
   58.9157   -4.7164  -18.1326 C   0  0  0  0  0  0  0  0  0  0  0  0
   59.8272   -4.5666  -17.0875 O   0  0  0  0  0  0  0  0  0  0  0  0
   59.7226   -3.3011  -16.4770 C   0  0  0  0  0  0  0  0  0  0  0  0
   58.2408   -2.9095  -16.4054 C   0  0  0  0  0  0  0  0  0  0  0  0
 37 38  1  0  0  0
 38 27  1  0  0  0
 27 28  2  0  0  0
 28 29  1  0  0  0
 29 30  2  0  0  0
 30 26  1  0  0  0
 26  1  1  0  0  0
  1  2  2  0  0  0
  2  3  1  0  0  0
  3  4  2  0  0  0
  4  8  1  0  0  0
  8  9  1  0  0  0
  9 10  2  0  0  0
  9 12  1  0  0  0
 12 13  1  0  0  0
 13 14  1  0  0  0
 12 15  1  0  0  0
 15 16  2  0  0  0
 15 17  1  0  0  0
 17 19  1  0  0  0
 19 20  2  0  0  0
 20 21  1  0  0  0
 21 22  1  0  0  0
 22 23  1  0  0  0
 22 24  1  0  0  0
 24 25  2  0  0  0
  4  5  1  0  0  0
  5  6  2  0  0  0
  6  7  1  0  0  0
 30 31  1  0  0  0
 31 32  2  0  0  0
 32 33  1  0  0  0
 33 34  2  0  0  0
 34 35  1  0  0  0
 35 36  2  0  0  0
 36 39  1  0  0  0
 39 40  1  0  0  0
 40 41  1  0  0  0
 41 42  1  0  0  0
 42 43  1  0  0  0
 43 44  1  0  0  0
 44 45  1  0  0  0
 45 46  1  0  0  0
 46 47  1  0  0  0
 47 48  1  0  0  0
 36 27  1  0  0  0
 48 43  1  0  0  0
 34 29  1  0  0  0
  6  1  1  0  0  0
 14 12  1  0  0  0
 25 19  1  0  0  0
  8 11  1  0  0  0
 17 18  1  0  0  0
M  END
> <minimizedAffinity>
-10.15579

> <CNNscore>
0.2324037552

> <CNNaffinity>
6.8534712791

> <CNN_VS>
1.5927724838

> <CNNaffinity_variance>
0.0991828293

$$$$
[H]C1=C([H])C([H])(F)C([H])([H])C([H])=C1N([H])C(=O)C1(C(=O)N([H])c2c([H])c([H])c(Oc3c([H])c([H])nc4c([H])c(OC([H])([H])C([H])([H])C([H])([H])N5C([H])([H])C([H])([H])OC([H])([H])C5([H])[H])c(OC([H])([H])[H])c([H])c34)c(F)c2[H])C([H])([H])C1([H])[H]


 48 53  0  0  0  0  0  0  0  0999 V2000
   56.2280   -4.3837  -10.1685 C   0  0  0  0  0  0  0  0  0  0  0  0
   55.5392   -3.8348  -11.2411 C   0  0  0  0  0  0  0  0  0  0  0  0
   56.0784   -3.6081  -12.4724 C   0  0  0  0  0  0  0  0  0  0  0  0
   57.4185   -3.9426  -12.6979 C   0  0  0  0  0  0  0  0  0  0  0  0
   58.1342   -4.4877  -11.6668 C   0  0  0  0  0  0  0  0  0  0  0  0
   57.5515   -4.7101  -10.4084 C   0  0  0  0  0  0  0  0  0  0  0  0
   58.3171   -5.2775   -9.4476 F   0  0  0  0  0  0  0  0  0  0  0  0
   57.9634   -3.7381  -14.0151 N   0  0  0  0  0  0  0  0  0  0  0  0
   59.2875   -3.4381  -14.2399 C   0  0  0  0  0  0  0  0  0  0  0  0
   60.0286   -3.3110  -13.1823 O   0  0  0  0  0  0  0  0  0  0  0  0
   57.2641   -3.8120  -14.7696 H   0  0  0  0  0  0  0  0  0  0  0  0
   60.0407   -3.2246  -15.4993 C   0  0  0  0  0  0  0  0  0  0  0  0
   59.3527   -2.3084  -16.4971 C   0  0  0  0  0  0  0  0  0  0  0  0
   59.2522   -3.7395  -16.7678 C   0  0  0  0  0  0  0  0  0  0  0  0
   61.4898   -3.3790  -15.6317 C   0  0  0  0  0  0  0  0  0  0  0  0
   62.0672   -2.3665  -16.2399 O   0  0  0  0  0  0  0  0  0  0  0  0
   62.3853   -4.3685  -15.2448 N   0  0  0  0  0  0  0  0  0  0  0  0
   62.1216   -5.2257  -14.7319 H   0  0  0  0  0  0  0  0  0  0  0  0
   63.8154   -4.2340  -15.5238 C   0  0  0  0  0  0  0  0  0  0  0  0
   64.2707   -4.8002  -16.6183 C   0  0  0  0  0  0  0  0  0  0  0  0
   65.6556   -4.7837  -17.0799 C   0  0  0  0  0  0  0  0  0  0  0  0
   66.6138   -4.0962  -16.1877 C   0  0  0  0  0  0  0  0  0  0  0  0
   67.2571   -3.0477  -16.8940 F   0  0  0  0  0  0  0  0  0  0  0  0
   66.0054   -3.4996  -14.9971 C   0  0  0  0  0  0  0  0  0  0  0  0
   64.7301   -3.5478  -14.6698 C   0  0  0  0  0  0  0  0  0  0  0  0
   55.6233   -4.5908   -8.9482 O   0  0  0  0  0  0  0  0  0  0  0  0
   53.6541   -6.1987   -5.7379 C   0  0  0  0  0  0  0  0  0  0  0  0
   54.3255   -5.6731   -6.8074 C   0  0  0  0  0  0  0  0  0  0  0  0
   53.7144   -4.6944   -7.5612 C   0  0  0  0  0  0  0  0  0  0  0  0
   54.3669   -4.1243   -8.6757 C   0  0  0  0  0  0  0  0  0  0  0  0
   53.7375   -3.1526   -9.4175 C   0  0  0  0  0  0  0  0  0  0  0  0
   52.4716   -2.7186   -9.0906 C   0  0  0  0  0  0  0  0  0  0  0  0
   51.8541   -3.2618   -8.0298 N   0  0  0  0  0  0  0  0  0  0  0  0
   52.4568   -4.2263   -7.2805 C   0  0  0  0  0  0  0  0  0  0  0  0
   51.7807   -4.7628   -6.1953 C   0  0  0  0  0  0  0  0  0  0  0  0
   52.3643   -5.7390   -5.4242 C   0  0  0  0  0  0  0  0  0  0  0  0
   55.5531   -7.4509   -4.9317 C   0  0  0  0  0  0  0  0  0  0  0  0
   54.1697   -7.1825   -4.9162 O   0  0  0  0  0  0  0  0  0  0  0  0
   51.7147   -6.2648   -4.3556 O   0  0  0  0  0  0  0  0  0  0  0  0
   50.7572   -5.6162   -3.6003 C   0  0  0  0  0  0  0  0  0  0  0  0
   50.7510   -6.0767   -2.1493 C   0  0  0  0  0  0  0  0  0  0  0  0
   52.2033   -6.3176   -1.7161 C   0  0  0  0  0  0  0  0  0  0  0  0
   52.1950   -7.2919   -0.6536 N   0  0  0  0  0  0  0  0  0  0  0  0
   50.9240   -8.0525   -0.6808 C   0  0  0  0  0  0  0  0  0  0  0  0
   51.1034   -9.1240    0.3987 C   0  0  0  0  0  0  0  0  0  0  0  0
   52.1451   -8.8199    1.2750 O   0  0  0  0  0  0  0  0  0  0  0  0
   53.3997   -8.8673    0.6356 C   0  0  0  0  0  0  0  0  0  0  0  0
   53.2536   -8.2922   -0.7794 C   0  0  0  0  0  0  0  0  0  0  0  0
 37 38  1  0  0  0
 38 27  1  0  0  0
 27 28  2  0  0  0
 28 29  1  0  0  0
 29 30  2  0  0  0
 30 26  1  0  0  0
 26  1  1  0  0  0
  1  2  2  0  0  0
  2  3  1  0  0  0
  3  4  2  0  0  0
  4  8  1  0  0  0
  8  9  1  0  0  0
  9 10  2  0  0  0
  9 12  1  0  0  0
 12 13  1  0  0  0
 13 14  1  0  0  0
 12 15  1  0  0  0
 15 16  2  0  0  0
 15 17  1  0  0  0
 17 19  1  0  0  0
 19 20  2  0  0  0
 20 21  1  0  0  0
 21 22  1  0  0  0
 22 23  1  0  0  0
 22 24  1  0  0  0
 24 25  2  0  0  0
  4  5  1  0  0  0
  5  6  2  0  0  0
  6  7  1  0  0  0
 30 31  1  0  0  0
 31 32  2  0  0  0
 32 33  1  0  0  0
 33 34  2  0  0  0
 34 35  1  0  0  0
 35 36  2  0  0  0
 36 39  1  0  0  0
 39 40  1  0  0  0
 40 41  1  0  0  0
 41 42  1  0  0  0
 42 43  1  0  0  0
 43 44  1  0  0  0
 44 45  1  0  0  0
 45 46  1  0  0  0
 46 47  1  0  0  0
 47 48  1  0  0  0
 36 27  1  0  0  0
 48 43  1  0  0  0
 34 29  1  0  0  0
  6  1  1  0  0  0
 14 12  1  0  0  0
 25 19  1  0  0  0
  8 11  1  0  0  0
 17 18  1  0  0  0
M  END
> <minimizedAffinity>
-8.18533

> <CNNscore>
0.2166082710

> <CNNaffinity>
6.6016616821

> <CNN_VS>
1.4299745560

> <CNNaffinity_variance>
0.1123380288

$$$$
[H]C1=C([H])C([H])(F)C([H])([H])C([H])=C1N([H])C(=O)C1(C(=O)N([H])c2c([H])c([H])c(Oc3c([H])c([H])nc4c([H])c(OC([H])([H])C([H])([H])C([H])([H])N5C([H])([H])C([H])([H])OC([H])([H])C5([H])[H])c(OC([H])([H])[H])c([H])c34)c(F)c2[H])C([H])([H])C1([H])[H]


 48 53  0  0  0  0  0  0  0  0999 V2000
   56.5615   -4.5684  -10.1214 C   0  0  0  0  0  0  0  0  0  0  0  0
   55.5962   -4.0217  -10.9555 C   0  0  0  0  0  0  0  0  0  0  0  0
   55.8115   -3.6524  -12.2499 C   0  0  0  0  0  0  0  0  0  0  0  0
   57.0861   -3.8253  -12.8015 C   0  0  0  0  0  0  0  0  0  0  0  0
   58.0674   -4.3623  -12.0134 C   0  0  0  0  0  0  0  0  0  0  0  0
   57.8160   -4.7339  -10.6825 C   0  0  0  0  0  0  0  0  0  0  0  0
   58.8313   -5.2827   -9.9758 F   0  0  0  0  0  0  0  0  0  0  0  0
   57.2887   -3.4714  -14.1825 N   0  0  0  0  0  0  0  0  0  0  0  0
   56.8473   -4.2497  -15.2280 C   0  0  0  0  0  0  0  0  0  0  0  0
   56.2584   -5.3589  -14.9011 O   0  0  0  0  0  0  0  0  0  0  0  0
   57.8170   -2.5952  -14.3132 H   0  0  0  0  0  0  0  0  0  0  0  0
   56.9260   -4.0508  -16.6953 C   0  0  0  0  0  0  0  0  0  0  0  0
   57.6936   -5.1319  -17.4373 C   0  0  0  0  0  0  0  0  0  0  0  0
   58.4131   -3.8836  -17.2019 C   0  0  0  0  0  0  0  0  0  0  0  0
   55.9701   -3.2638  -17.4750 C   0  0  0  0  0  0  0  0  0  0  0  0
   55.3501   -2.3470  -16.7654 O   0  0  0  0  0  0  0  0  0  0  0  0
   55.5834   -3.2777  -18.8096 N   0  0  0  0  0  0  0  0  0  0  0  0
   55.9792   -3.9093  -19.5249 H   0  0  0  0  0  0  0  0  0  0  0  0
   54.5762   -2.3399  -19.3066 C   0  0  0  0  0  0  0  0  0  0  0  0
   53.3207   -2.7234  -19.2573 C   0  0  0  0  0  0  0  0  0  0  0  0
   52.1679   -1.9435  -19.6977 C   0  0  0  0  0  0  0  0  0  0  0  0
   52.4821   -0.6246  -20.2884 C   0  0  0  0  0  0  0  0  0  0  0  0
   51.8228    0.3962  -19.5569 F   0  0  0  0  0  0  0  0  0  0  0  0
   53.9082   -0.2931  -20.2953 C   0  0  0  0  0  0  0  0  0  0  0  0
   54.8854   -1.0583  -19.8532 C   0  0  0  0  0  0  0  0  0  0  0  0
   56.2786   -4.9244   -8.8211 O   0  0  0  0  0  0  0  0  0  0  0  0
   55.4794   -6.7623   -5.2501 C   0  0  0  0  0  0  0  0  0  0  0  0
   55.7625   -6.1564   -6.4431 C   0  0  0  0  0  0  0  0  0  0  0  0
   54.7949   -5.3775   -7.0402 C   0  0  0  0  0  0  0  0  0  0  0  0
   55.0401   -4.7348   -8.2729 C   0  0  0  0  0  0  0  0  0  0  0  0
   54.0592   -3.9661   -8.8541 C   0  0  0  0  0  0  0  0  0  0  0  0
   52.8311   -3.8075   -8.2509 C   0  0  0  0  0  0  0  0  0  0  0  0
   52.6011   -4.4190   -7.0783 N   0  0  0  0  0  0  0  0  0  0  0  0
   53.5566   -5.1862   -6.4838 C   0  0  0  0  0  0  0  0  0  0  0  0
   53.2749   -5.8030   -5.2743 C   0  0  0  0  0  0  0  0  0  0  0  0
   54.2197   -6.5846   -4.6542 C   0  0  0  0  0  0  0  0  0  0  0  0
   57.5017   -6.9852   -3.9520 C   0  0  0  0  0  0  0  0  0  0  0  0
   56.3725   -7.5638   -4.5653 O   0  0  0  0  0  0  0  0  0  0  0  0
   53.9571   -7.1859   -3.4669 O   0  0  0  0  0  0  0  0  0  0  0  0
   52.7839   -7.0637   -2.7481 C   0  0  0  0  0  0  0  0  0  0  0  0
   52.5599   -8.2316   -1.7977 C   0  0  0  0  0  0  0  0  0  0  0  0
   52.2714   -7.6651   -0.4010 C   0  0  0  0  0  0  0  0  0  0  0  0
   50.9353   -8.0580   -0.0287 N   0  0  0  0  0  0  0  0  0  0  0  0
   50.5258   -9.2473   -0.8116 C   0  0  0  0  0  0  0  0  0  0  0  0
   49.1620   -9.6300   -0.2293 C   0  0  0  0  0  0  0  0  0  0  0  0
   48.5930   -8.5909    0.5069 O   0  0  0  0  0  0  0  0  0  0  0  0
   49.3221   -8.3192    1.6815 C   0  0  0  0  0  0  0  0  0  0  0  0
   50.8194   -8.4528    1.3741 C   0  0  0  0  0  0  0  0  0  0  0  0
 37 38  1  0  0  0
 38 27  1  0  0  0
 27 28  2  0  0  0
 28 29  1  0  0  0
 29 30  2  0  0  0
 30 26  1  0  0  0
 26  1  1  0  0  0
  1  2  2  0  0  0
  2  3  1  0  0  0
  3  4  2  0  0  0
  4  8  1  0  0  0
  8  9  1  0  0  0
  9 10  2  0  0  0
  9 12  1  0  0  0
 12 13  1  0  0  0
 13 14  1  0  0  0
 12 15  1  0  0  0
 15 16  2  0  0  0
 15 17  1  0  0  0
 17 19  1  0  0  0
 19 20  2  0  0  0
 20 21  1  0  0  0
 21 22  1  0  0  0
 22 23  1  0  0  0
 22 24  1  0  0  0
 24 25  2  0  0  0
  4  5  1  0  0  0
  5  6  2  0  0  0
  6  7  1  0  0  0
 30 31  1  0  0  0
 31 32  2  0  0  0
 32 33  1  0  0  0
 33 34  2  0  0  0
 34 35  1  0  0  0
 35 36  2  0  0  0
 36 39  1  0  0  0
 39 40  1  0  0  0
 40 41  1  0  0  0
 41 42  1  0  0  0
 42 43  1  0  0  0
 43 44  1  0  0  0
 44 45  1  0  0  0
 45 46  1  0  0  0
 46 47  1  0  0  0
 47 48  1  0  0  0
 36 27  1  0  0  0
 48 43  1  0  0  0
 34 29  1  0  0  0
  6  1  1  0  0  0
 14 12  1  0  0  0
 25 19  1  0  0  0
  8 11  1  0  0  0
 17 18  1  0  0  0
M  END
> <minimizedAffinity>
-9.02312

> <CNNscore>
0.2049068511

> <CNNaffinity>
6.7250976562

> <CNN_VS>
1.3780186176

> <CNNaffinity_variance>
0.2061432600

$$$$
[H]C1=C([H])C([H])(F)C([H])([H])C([H])=C1N([H])C(=O)C1(C(=O)N([H])c2c([H])c([H])c(Oc3c([H])c([H])nc4c([H])c(OC([H])([H])C([H])([H])C([H])([H])N5C([H])([H])C([H])([H])OC([H])([H])C5([H])[H])c(OC([H])([H])[H])c([H])c34)c(F)c2[H])C([H])([H])C1([H])[H]


 48 53  0  0  0  0  0  0  0  0999 V2000
   57.1056   -4.4537  -10.5172 C   0  0  0  0  0  0  0  0  0  0  0  0
   55.8137   -3.9647  -10.6510 C   0  0  0  0  0  0  0  0  0  0  0  0
   54.8962   -3.9175   -9.6439 C   0  0  0  0  0  0  0  0  0  0  0  0
   55.2557   -4.3892   -8.3763 C   0  0  0  0  0  0  0  0  0  0  0  0
   56.5212   -4.8791   -8.2005 C   0  0  0  0  0  0  0  0  0  0  0  0
   57.4457   -4.9149   -9.2573 C   0  0  0  0  0  0  0  0  0  0  0  0
   58.6861   -5.3896   -8.9975 F   0  0  0  0  0  0  0  0  0  0  0  0
   54.2916   -4.2937   -7.3109 N   0  0  0  0  0  0  0  0  0  0  0  0
   53.1993   -5.1248   -7.2122 C   0  0  0  0  0  0  0  0  0  0  0  0
   53.0587   -5.9936   -8.1658 O   0  0  0  0  0  0  0  0  0  0  0  0
   54.4828   -3.5292   -6.6455 H   0  0  0  0  0  0  0  0  0  0  0  0
   52.1251   -5.2096   -6.1935 C   0  0  0  0  0  0  0  0  0  0  0  0
   50.7368   -5.4533   -6.7608 C   0  0  0  0  0  0  0  0  0  0  0  0
   51.0361   -4.0788   -6.3704 C   0  0  0  0  0  0  0  0  0  0  0  0
   52.3414   -5.5737   -4.7929 C   0  0  0  0  0  0  0  0  0  0  0  0
   53.5743   -5.9524   -4.5385 O   0  0  0  0  0  0  0  0  0  0  0  0
   51.5188   -5.5980   -3.6732 N   0  0  0  0  0  0  0  0  0  0  0  0
   50.5267   -5.3097   -3.6719 H   0  0  0  0  0  0  0  0  0  0  0  0
   52.0385   -6.0197   -2.3720 C   0  0  0  0  0  0  0  0  0  0  0  0
   51.6838   -7.2081   -1.9388 C   0  0  0  0  0  0  0  0  0  0  0  0
   52.0902   -7.8168   -0.6757 C   0  0  0  0  0  0  0  0  0  0  0  0
   52.9427   -6.9736    0.1899 C   0  0  0  0  0  0  0  0  0  0  0  0
   54.1666   -7.6411    0.4516 F   0  0  0  0  0  0  0  0  0  0  0  0
   53.2805   -5.6702   -0.3849 C   0  0  0  0  0  0  0  0  0  0  0  0
   52.8809   -5.2095   -1.5528 C   0  0  0  0  0  0  0  0  0  0  0  0
   57.9875   -4.4708  -11.5754 O   0  0  0  0  0  0  0  0  0  0  0  0
   60.9285   -3.3236  -14.1837 C   0  0  0  0  0  0  0  0  0  0  0  0
   59.9586   -3.7085  -13.2995 C   0  0  0  0  0  0  0  0  0  0  0  0
   58.6446   -3.7180  -13.7155 C   0  0  0  0  0  0  0  0  0  0  0  0
   57.6090   -4.1049  -12.8376 C   0  0  0  0  0  0  0  0  0  0  0  0
   56.3041   -4.1026  -13.2712 C   0  0  0  0  0  0  0  0  0  0  0  0
   55.9843   -3.7286  -14.5578 C   0  0  0  0  0  0  0  0  0  0  0  0
   56.9713   -3.3621  -15.3905 N   0  0  0  0  0  0  0  0  0  0  0  0
   58.2710   -3.3555  -14.9837 C   0  0  0  0  0  0  0  0  0  0  0  0
   59.2584   -2.9659  -15.8758 C   0  0  0  0  0  0  0  0  0  0  0  0
   60.5774   -2.9474  -15.4907 C   0  0  0  0  0  0  0  0  0  0  0  0
   63.0472   -4.4526  -13.9371 C   0  0  0  0  0  0  0  0  0  0  0  0
   62.2742   -3.2760  -13.8740 O   0  0  0  0  0  0  0  0  0  0  0  0
   61.5518   -2.5756  -16.3582 O   0  0  0  0  0  0  0  0  0  0  0  0
   61.6979   -3.0442  -17.6493 C   0  0  0  0  0  0  0  0  0  0  0  0
   61.4608   -1.9604  -18.6917 C   0  0  0  0  0  0  0  0  0  0  0  0
   60.5171   -2.5233  -19.7629 C   0  0  0  0  0  0  0  0  0  0  0  0
   59.2982   -1.7543  -19.7307 N   0  0  0  0  0  0  0  0  0  0  0  0
   58.1910   -2.5911  -19.2122 C   0  0  0  0  0  0  0  0  0  0  0  0
   57.0066   -1.6258  -19.1077 C   0  0  0  0  0  0  0  0  0  0  0  0
   57.2057   -0.4648  -19.8547 O   0  0  0  0  0  0  0  0  0  0  0  0
   58.2464    0.3259  -19.3286 C   0  0  0  0  0  0  0  0  0  0  0  0
   59.3680   -0.5990  -18.8378 C   0  0  0  0  0  0  0  0  0  0  0  0
 37 38  1  0  0  0
 38 27  1  0  0  0
 27 28  2  0  0  0
 28 29  1  0  0  0
 29 30  2  0  0  0
 30 26  1  0  0  0
 26  1  1  0  0  0
  1  2  2  0  0  0
  2  3  1  0  0  0
  3  4  2  0  0  0
  4  8  1  0  0  0
  8  9  1  0  0  0
  9 10  2  0  0  0
  9 12  1  0  0  0
 12 13  1  0  0  0
 13 14  1  0  0  0
 12 15  1  0  0  0
 15 16  2  0  0  0
 15 17  1  0  0  0
 17 19  1  0  0  0
 19 20  2  0  0  0
 20 21  1  0  0  0
 21 22  1  0  0  0
 22 23  1  0  0  0
 22 24  1  0  0  0
 24 25  2  0  0  0
  4  5  1  0  0  0
  5  6  2  0  0  0
  6  7  1  0  0  0
 30 31  1  0  0  0
 31 32  2  0  0  0
 32 33  1  0  0  0
 33 34  2  0  0  0
 34 35  1  0  0  0
 35 36  2  0  0  0
 36 39  1  0  0  0
 39 40  1  0  0  0
 40 41  1  0  0  0
 41 42  1  0  0  0
 42 43  1  0  0  0
 43 44  1  0  0  0
 44 45  1  0  0  0
 45 46  1  0  0  0
 46 47  1  0  0  0
 47 48  1  0  0  0
 36 27  1  0  0  0
 48 43  1  0  0  0
 34 29  1  0  0  0
  6  1  1  0  0  0
 14 12  1  0  0  0
 25 19  1  0  0  0
  8 11  1  0  0  0
 17 18  1  0  0  0
M  END
> <minimizedAffinity>
-8.34196

> <CNNscore>
0.2001953572

> <CNNaffinity>
6.7257218361

> <CNN_VS>
1.3464583158

> <CNNaffinity_variance>
0.1633212864

$$$$
[H]C1=C([H])C([H])(F)C([H])([H])C([H])=C1N([H])C(=O)C1(C(=O)N([H])c2c([H])c([H])c(Oc3c([H])c([H])nc4c([H])c(OC([H])([H])C([H])([H])C([H])([H])N5C([H])([H])C([H])([H])OC([H])([H])C5([H])[H])c(OC([H])([H])[H])c([H])c34)c(F)c2[H])C([H])([H])C1([H])[H]


 48 53  0  0  0  0  0  0  0  0999 V2000
   56.5830   -4.7075   -9.5043 C   0  0  0  0  0  0  0  0  0  0  0  0
   55.8860   -3.8538  -10.3478 C   0  0  0  0  0  0  0  0  0  0  0  0
   56.3353   -3.4300  -11.5630 C   0  0  0  0  0  0  0  0  0  0  0  0
   57.5838   -3.8710  -12.0160 C   0  0  0  0  0  0  0  0  0  0  0  0
   58.3040   -4.7153  -11.2153 C   0  0  0  0  0  0  0  0  0  0  0  0
   57.8151   -5.1355   -9.9675 C   0  0  0  0  0  0  0  0  0  0  0  0
   58.5747   -5.9920   -9.2458 F   0  0  0  0  0  0  0  0  0  0  0  0
   58.0273   -3.4505  -13.3199 N   0  0  0  0  0  0  0  0  0  0  0  0
   57.4102   -3.8456  -14.4847 C   0  0  0  0  0  0  0  0  0  0  0  0
   56.4100   -4.6612  -14.3491 O   0  0  0  0  0  0  0  0  0  0  0  0
   58.8642   -2.8479  -13.2993 H   0  0  0  0  0  0  0  0  0  0  0  0
   57.6872   -3.5053  -15.9011 C   0  0  0  0  0  0  0  0  0  0  0  0
   56.4644   -3.0836  -16.6984 C   0  0  0  0  0  0  0  0  0  0  0  0
   56.9244   -4.4531  -16.9090 C   0  0  0  0  0  0  0  0  0  0  0  0
   58.9897   -3.0712  -16.4072 C   0  0  0  0  0  0  0  0  0  0  0  0
   59.1855   -1.7760  -16.2959 O   0  0  0  0  0  0  0  0  0  0  0  0
   60.0662   -3.7410  -16.9759 N   0  0  0  0  0  0  0  0  0  0  0  0
   60.1071   -4.7633  -17.1195 H   0  0  0  0  0  0  0  0  0  0  0  0
   61.2654   -3.0130  -17.3917 C   0  0  0  0  0  0  0  0  0  0  0  0
   61.2319   -2.4169  -18.5619 C   0  0  0  0  0  0  0  0  0  0  0  0
   62.3141   -1.6411  -19.1603 C   0  0  0  0  0  0  0  0  0  0  0  0
   63.5624   -1.5784  -18.3698 C   0  0  0  0  0  0  0  0  0  0  0  0
   63.8857   -0.2252  -18.0934 F   0  0  0  0  0  0  0  0  0  0  0  0
   63.4950   -2.2736  -17.0830 C   0  0  0  0  0  0  0  0  0  0  0  0
   62.4584   -2.9366  -16.6120 C   0  0  0  0  0  0  0  0  0  0  0  0
   56.0712   -5.1017   -8.2876 O   0  0  0  0  0  0  0  0  0  0  0  0
   54.7140   -6.6855   -4.7636 C   0  0  0  0  0  0  0  0  0  0  0  0
   55.1829   -6.1653   -5.9384 C   0  0  0  0  0  0  0  0  0  0  0  0
   54.3456   -5.3776   -6.6987 C   0  0  0  0  0  0  0  0  0  0  0  0
   54.7843   -4.8212   -7.9197 C   0  0  0  0  0  0  0  0  0  0  0  0
   53.9313   -4.0422   -8.6656 C   0  0  0  0  0  0  0  0  0  0  0  0
   52.6456   -3.7899   -8.2402 C   0  0  0  0  0  0  0  0  0  0  0  0
   52.2317   -4.3195   -7.0783 N   0  0  0  0  0  0  0  0  0  0  0  0
   53.0579   -5.0949   -6.3228 C   0  0  0  0  0  0  0  0  0  0  0  0
   52.5876   -5.6252   -5.1310 C   0  0  0  0  0  0  0  0  0  0  0  0
   53.3992   -6.4131   -4.3508 C   0  0  0  0  0  0  0  0  0  0  0  0
   56.8511   -7.2644   -3.8034 C   0  0  0  0  0  0  0  0  0  0  0  0
   55.4648   -7.4870   -3.9253 O   0  0  0  0  0  0  0  0  0  0  0  0
   52.9515   -6.9300   -3.1792 O   0  0  0  0  0  0  0  0  0  0  0  0
   52.2942   -6.2245   -2.1902 C   0  0  0  0  0  0  0  0  0  0  0  0
   50.9607   -6.8553   -1.8143 C   0  0  0  0  0  0  0  0  0  0  0  0
   51.1889   -7.7772   -0.6089 C   0  0  0  0  0  0  0  0  0  0  0  0
   49.9039   -8.2585   -0.1672 N   0  0  0  0  0  0  0  0  0  0  0  0
   49.6996   -9.6480   -0.6391 C   0  0  0  0  0  0  0  0  0  0  0  0
   48.3759  -10.0729    0.0033 C   0  0  0  0  0  0  0  0  0  0  0  0
   47.6351   -8.9810    0.4554 O   0  0  0  0  0  0  0  0  0  0  0  0
   48.2640   -8.3312    1.5359 C   0  0  0  0  0  0  0  0  0  0  0  0
   49.7781   -8.3160    1.2881 C   0  0  0  0  0  0  0  0  0  0  0  0
 37 38  1  0  0  0
 38 27  1  0  0  0
 27 28  2  0  0  0
 28 29  1  0  0  0
 29 30  2  0  0  0
 30 26  1  0  0  0
 26  1  1  0  0  0
  1  2  2  0  0  0
  2  3  1  0  0  0
  3  4  2  0  0  0
  4  8  1  0  0  0
  8  9  1  0  0  0
  9 10  2  0  0  0
  9 12  1  0  0  0
 12 13  1  0  0  0
 13 14  1  0  0  0
 12 15  1  0  0  0
 15 16  2  0  0  0
 15 17  1  0  0  0
 17 19  1  0  0  0
 19 20  2  0  0  0
 20 21  1  0  0  0
 21 22  1  0  0  0
 22 23  1  0  0  0
 22 24  1  0  0  0
 24 25  2  0  0  0
  4  5  1  0  0  0
  5  6  2  0  0  0
  6  7  1  0  0  0
 30 31  1  0  0  0
 31 32  2  0  0  0
 32 33  1  0  0  0
 33 34  2  0  0  0
 34 35  1  0  0  0
 35 36  2  0  0  0
 36 39  1  0  0  0
 39 40  1  0  0  0
 40 41  1  0  0  0
 41 42  1  0  0  0
 42 43  1  0  0  0
 43 44  1  0  0  0
 44 45  1  0  0  0
 45 46  1  0  0  0
 46 47  1  0  0  0
 47 48  1  0  0  0
 36 27  1  0  0  0
 48 43  1  0  0  0
 34 29  1  0  0  0
  6  1  1  0  0  0
 14 12  1  0  0  0
 25 19  1  0  0  0
  8 11  1  0  0  0
 17 18  1  0  0  0
M  END
> <minimizedAffinity>
-9.41116

> <CNNscore>
0.1996986568

> <CNNaffinity>
6.6225676537

> <CNN_VS>
1.3225178719

> <CNNaffinity_variance>
0.1502126306

$$$$
[H]C1=C([H])C([H])(F)C([H])([H])C([H])=C1N([H])C(=O)C1(C(=O)N([H])c2c([H])c([H])c(Oc3c([H])c([H])nc4c([H])c(OC([H])([H])C([H])([H])C([H])([H])N5C([H])([H])C([H])([H])OC([H])([H])C5([H])[H])c(OC([H])([H])[H])c([H])c34)c(F)c2[H])C([H])([H])C1([H])[H]


 48 53  0  0  0  0  0  0  0  0999 V2000
   56.5224   -3.9715   -8.7012 C   0  0  0  0  0  0  0  0  0  0  0  0
   57.2893   -4.6845   -7.7903 C   0  0  0  0  0  0  0  0  0  0  0  0
   58.2158   -5.6256   -8.1282 C   0  0  0  0  0  0  0  0  0  0  0  0
   58.4284   -5.9128   -9.4813 C   0  0  0  0  0  0  0  0  0  0  0  0
   57.6936   -5.2313  -10.4131 C   0  0  0  0  0  0  0  0  0  0  0  0
   56.7457   -4.2664  -10.0350 C   0  0  0  0  0  0  0  0  0  0  0  0
   56.0779   -3.6164  -11.0163 F   0  0  0  0  0  0  0  0  0  0  0  0
   59.4404   -6.8775   -9.8261 N   0  0  0  0  0  0  0  0  0  0  0  0
   60.6901   -6.8908   -9.2503 C   0  0  0  0  0  0  0  0  0  0  0  0
   60.9287   -5.9498   -8.3892 O   0  0  0  0  0  0  0  0  0  0  0  0
   59.1494   -7.5393  -10.5618 H   0  0  0  0  0  0  0  0  0  0  0  0
   61.8438   -7.8029   -9.4403 C   0  0  0  0  0  0  0  0  0  0  0  0
   63.1468   -7.1054   -9.7926 C   0  0  0  0  0  0  0  0  0  0  0  0
   62.4349   -7.7301  -10.9036 C   0  0  0  0  0  0  0  0  0  0  0  0
   61.9456   -9.1396   -8.8540 C   0  0  0  0  0  0  0  0  0  0  0  0
   63.1606   -9.4398   -8.4516 O   0  0  0  0  0  0  0  0  0  0  0  0
   61.0266  -10.1571   -8.6277 N   0  0  0  0  0  0  0  0  0  0  0  0
   60.0202  -10.0946   -8.8525 H   0  0  0  0  0  0  0  0  0  0  0  0
   61.4408  -11.4143   -8.0040 C   0  0  0  0  0  0  0  0  0  0  0  0
   61.2691  -11.5274   -6.7065 C   0  0  0  0  0  0  0  0  0  0  0  0
   61.6110  -12.6914   -5.8945 C   0  0  0  0  0  0  0  0  0  0  0  0
   62.2472  -13.8095   -6.6242 C   0  0  0  0  0  0  0  0  0  0  0  0
   61.4719  -14.9866   -6.4653 F   0  0  0  0  0  0  0  0  0  0  0  0
   62.3918  -13.5834   -8.0635 C   0  0  0  0  0  0  0  0  0  0  0  0
   62.0320  -12.4987   -8.7192 C   0  0  0  0  0  0  0  0  0  0  0  0
   55.6034   -3.0293   -8.2945 O   0  0  0  0  0  0  0  0  0  0  0  0
   54.1516   -5.5818   -5.4404 C   0  0  0  0  0  0  0  0  0  0  0  0
   54.6532   -4.7323   -6.3877 C   0  0  0  0  0  0  0  0  0  0  0  0
   53.7877   -4.1637   -7.2972 C   0  0  0  0  0  0  0  0  0  0  0  0
   54.2596   -3.2833   -8.2946 C   0  0  0  0  0  0  0  0  0  0  0  0
   53.3798   -2.7307   -9.1955 C   0  0  0  0  0  0  0  0  0  0  0  0
   52.0342   -3.0203   -9.1424 C   0  0  0  0  0  0  0  0  0  0  0  0
   51.5883   -3.8571   -8.1922 N   0  0  0  0  0  0  0  0  0  0  0  0
   52.4405   -4.4174   -7.2896 C   0  0  0  0  0  0  0  0  0  0  0  0
   51.9374   -5.2796   -6.3272 C   0  0  0  0  0  0  0  0  0  0  0  0
   52.7753   -5.8608   -5.4062 C   0  0  0  0  0  0  0  0  0  0  0  0
   55.8732   -7.1750   -4.8730 C   0  0  0  0  0  0  0  0  0  0  0  0
   54.9266   -6.2069   -4.4825 O   0  0  0  0  0  0  0  0  0  0  0  0
   52.2921   -6.6994   -4.4555 O   0  0  0  0  0  0  0  0  0  0  0  0
   51.4569   -6.3379   -3.4165 C   0  0  0  0  0  0  0  0  0  0  0  0
   52.0063   -6.7506   -2.0581 C   0  0  0  0  0  0  0  0  0  0  0  0
   51.3174   -8.0560   -1.6384 C   0  0  0  0  0  0  0  0  0  0  0  0
   51.2987   -8.1061   -0.1978 N   0  0  0  0  0  0  0  0  0  0  0  0
   49.9046   -8.2552    0.2807 C   0  0  0  0  0  0  0  0  0  0  0  0
   50.0430   -8.4263    1.7963 C   0  0  0  0  0  0  0  0  0  0  0  0
   51.2911   -8.0122    2.2615 O   0  0  0  0  0  0  0  0  0  0  0  0
   52.3273   -8.8475    1.7991 C   0  0  0  0  0  0  0  0  0  0  0  0
   52.0259   -9.2501    0.3495 C   0  0  0  0  0  0  0  0  0  0  0  0
 37 38  1  0  0  0
 38 27  1  0  0  0
 27 28  2  0  0  0
 28 29  1  0  0  0
 29 30  2  0  0  0
 30 26  1  0  0  0
 26  1  1  0  0  0
  1  2  2  0  0  0
  2  3  1  0  0  0
  3  4  2  0  0  0
  4  8  1  0  0  0
  8  9  1  0  0  0
  9 10  2  0  0  0
  9 12  1  0  0  0
 12 13  1  0  0  0
 13 14  1  0  0  0
 12 15  1  0  0  0
 15 16  2  0  0  0
 15 17  1  0  0  0
 17 19  1  0  0  0
 19 20  2  0  0  0
 20 21  1  0  0  0
 21 22  1  0  0  0
 22 23  1  0  0  0
 22 24  1  0  0  0
 24 25  2  0  0  0
  4  5  1  0  0  0
  5  6  2  0  0  0
  6  7  1  0  0  0
 30 31  1  0  0  0
 31 32  2  0  0  0
 32 33  1  0  0  0
 33 34  2  0  0  0
 34 35  1  0  0  0
 35 36  2  0  0  0
 36 39  1  0  0  0
 39 40  1  0  0  0
 40 41  1  0  0  0
 41 42  1  0  0  0
 42 43  1  0  0  0
 43 44  1  0  0  0
 44 45  1  0  0  0
 45 46  1  0  0  0
 46 47  1  0  0  0
 47 48  1  0  0  0
 36 27  1  0  0  0
 48 43  1  0  0  0
 34 29  1  0  0  0
  6  1  1  0  0  0
 14 12  1  0  0  0
 25 19  1  0  0  0
  8 11  1  0  0  0
 17 18  1  0  0  0
M  END
> <minimizedAffinity>
-8.02983

> <CNNscore>
0.1971016228

> <CNNaffinity>
6.8803911209

> <CNN_VS>
1.3561362028

> <CNNaffinity_variance>
0.0909447223

$$$$
[H]/C(=C1/C(=O)N([H])c2c([H])c([H])c(F)c([H])c21)c1c(C([H])([H])[H])c(C(=O)N([H])C([H])([H])C([H])([H])N(C([H])([H])C([H])([H])[H])C([H])([H])C([H])([H])[H])c(C([H])([H])[H])n1[H]


 32 34  0  0  0  0  0  0  0  0999 V2000
   56.6537   -4.8709   -9.0658 C   0  0  0  0  0  0  0  0  0  0  0  0
   55.8840   -4.4129  -10.0912 C   0  0  0  0  0  0  0  0  0  0  0  0
   56.2956   -4.1358  -11.4961 C   0  0  0  0  0  0  0  0  0  0  0  0
   54.5850   -4.2439   -9.6831 N   0  0  0  0  0  0  0  0  0  0  0  0
   54.5060   -4.5860   -8.4153 C   0  0  0  0  0  0  0  0  0  0  0  0
   55.7809   -4.9838   -7.9951 C   0  0  0  0  0  0  0  0  0  0  0  0
   56.1412   -5.4443   -6.6297 C   0  0  0  0  0  0  0  0  0  0  0  0
   53.8240   -3.8854  -10.3140 H   0  0  0  0  0  0  0  0  0  0  0  0
   53.3724   -4.6107   -7.5293 C   0  0  0  0  0  0  0  0  0  0  0  0
   52.3997   -3.7483   -7.5846 C   0  0  0  0  0  0  0  0  0  0  0  0
   52.2031   -2.6276   -8.4784 C   0  0  0  0  0  0  0  0  0  0  0  0
   52.9550   -2.2627   -9.4211 O   0  0  0  0  0  0  0  0  0  0  0  0
   50.9729   -1.9999   -8.0885 N   0  0  0  0  0  0  0  0  0  0  0  0
   50.4026   -2.6861   -6.9942 C   0  0  0  0  0  0  0  0  0  0  0  0
   49.2569   -2.5116   -6.2513 C   0  0  0  0  0  0  0  0  0  0  0  0
   48.9179   -3.3434   -5.2069 C   0  0  0  0  0  0  0  0  0  0  0  0
   49.7460   -4.4023   -4.8727 C   0  0  0  0  0  0  0  0  0  0  0  0
   49.4559   -5.2470   -3.8550 F   0  0  0  0  0  0  0  0  0  0  0  0
   50.8859   -4.5653   -5.6221 C   0  0  0  0  0  0  0  0  0  0  0  0
   51.2330   -3.7334   -6.6732 C   0  0  0  0  0  0  0  0  0  0  0  0
   50.5576   -1.1645   -8.5417 H   0  0  0  0  0  0  0  0  0  0  0  0
   58.8451   -5.8048   -9.9573 N   0  0  0  0  0  0  0  0  0  0  0  0
   58.0810   -5.1606   -8.9750 C   0  0  0  0  0  0  0  0  0  0  0  0
   58.6285   -4.7618   -7.8753 O   0  0  0  0  0  0  0  0  0  0  0  0
   58.2872   -6.0715  -10.8634 H   0  0  0  0  0  0  0  0  0  0  0  0
   60.2075   -6.1634  -10.0359 C   0  0  0  0  0  0  0  0  0  0  0  0
   60.7250   -7.2834   -9.2057 C   0  0  0  0  0  0  0  0  0  0  0  0
   61.6064   -6.9357   -8.1658 N   0  0  0  0  0  0  0  0  0  0  0  0
   61.7638   -9.3977   -8.3075 C   0  0  0  0  0  0  0  0  0  0  0  0
   62.0837   -8.1549   -7.5018 C   0  0  0  0  0  0  0  0  0  0  0  0
   62.7593   -6.1875   -8.5631 C   0  0  0  0  0  0  0  0  0  0  0  0
   63.8285   -6.1045   -7.5210 C   0  0  0  0  0  0  0  0  0  0  0  0
 29 30  1  0  0  0
 30 28  1  0  0  0
 28 31  1  0  0  0
 31 32  1  0  0  0
 28 27  1  0  0  0
 27 26  1  0  0  0
 26 22  1  0  0  0
 22 23  1  0  0  0
 23 24  2  0  0  0
 23  1  1  0  0  0
  1  2  2  0  0  0
  2  3  1  0  0  0
  2  4  1  0  0  0
  4  5  1  0  0  0
  5  9  1  0  0  0
  9 10  2  0  0  0
 10 11  1  0  0  0
 11 12  2  0  0  0
 11 13  1  0  0  0
 13 14  1  0  0  0
 14 15  2  0  0  0
 15 16  1  0  0  0
 16 17  2  0  0  0
 17 18  1  0  0  0
 17 19  1  0  0  0
 19 20  2  0  0  0
  5  6  2  0  0  0
  6  7  1  0  0  0
  6  1  1  0  0  0
 20 10  1  0  0  0
 20 14  1  0  0  0
 22 25  1  0  0  0
  4  8  1  0  0  0
 13 21  1  0  0  0
M  END
> <minimizedAffinity>
-9.60836

> <CNNscore>
0.9105410576

> <CNNaffinity>
7.1182556152

> <CNN_VS>
6.4814639091

> <CNNaffinity_variance>
0.0501782298

$$$$
[H]/C(=C1/C(=O)N([H])c2c([H])c([H])c(F)c([H])c21)c1c(C([H])([H])[H])c(C(=O)N([H])C([H])([H])C([H])([H])N(C([H])([H])C([H])([H])[H])C([H])([H])C([H])([H])[H])c(C([H])([H])[H])n1[H]


 32 34  0  0  0  0  0  0  0  0999 V2000
   56.8393   -4.9858   -9.0308 C   0  0  0  0  0  0  0  0  0  0  0  0
   56.1184   -4.4866  -10.0723 C   0  0  0  0  0  0  0  0  0  0  0  0
   56.5843   -4.1997  -11.4581 C   0  0  0  0  0  0  0  0  0  0  0  0
   54.8126   -4.2830   -9.7034 N   0  0  0  0  0  0  0  0  0  0  0  0
   54.6814   -4.6433   -8.4450 C   0  0  0  0  0  0  0  0  0  0  0  0
   55.9287   -5.0885   -7.9909 C   0  0  0  0  0  0  0  0  0  0  0  0
   56.2294   -5.5826   -6.6229 C   0  0  0  0  0  0  0  0  0  0  0  0
   54.0843   -3.8901  -10.3521 H   0  0  0  0  0  0  0  0  0  0  0  0
   53.5191   -4.6464   -7.5966 C   0  0  0  0  0  0  0  0  0  0  0  0
   52.5617   -3.7700   -7.6881 C   0  0  0  0  0  0  0  0  0  0  0  0
   52.4114   -2.6514   -8.5934 C   0  0  0  0  0  0  0  0  0  0  0  0
   53.1991   -2.3027   -9.5126 O   0  0  0  0  0  0  0  0  0  0  0  0
   51.1786   -2.0034   -8.2472 N   0  0  0  0  0  0  0  0  0  0  0  0
   50.5626   -2.6751   -7.1688 C   0  0  0  0  0  0  0  0  0  0  0  0
   49.3958   -2.4796   -6.4649 C   0  0  0  0  0  0  0  0  0  0  0  0
   49.0104   -3.3007   -5.4281 C   0  0  0  0  0  0  0  0  0  0  0  0
   49.8111   -4.3699   -5.0616 C   0  0  0  0  0  0  0  0  0  0  0  0
   49.4752   -5.2046   -4.0498 F   0  0  0  0  0  0  0  0  0  0  0  0
   50.9724   -4.5538   -5.7723 C   0  0  0  0  0  0  0  0  0  0  0  0
   51.3662   -3.7329   -6.8156 C   0  0  0  0  0  0  0  0  0  0  0  0
   50.7909   -1.1644   -8.7179 H   0  0  0  0  0  0  0  0  0  0  0  0
   58.9494   -6.2396   -9.6975 N   0  0  0  0  0  0  0  0  0  0  0  0
   58.2531   -5.3224   -8.8990 C   0  0  0  0  0  0  0  0  0  0  0  0
   58.8580   -4.6857   -7.9521 O   0  0  0  0  0  0  0  0  0  0  0  0
   58.3473   -6.6985  -10.4915 H   0  0  0  0  0  0  0  0  0  0  0  0
   60.2890   -6.6826   -9.7102 C   0  0  0  0  0  0  0  0  0  0  0  0
   60.5845   -8.1400   -9.7026 C   0  0  0  0  0  0  0  0  0  0  0  0
   61.6444   -8.5675  -10.5230 N   0  0  0  0  0  0  0  0  0  0  0  0
   63.0297   -7.4301  -12.2241 C   0  0  0  0  0  0  0  0  0  0  0  0
   62.5427   -7.4373  -10.7892 C   0  0  0  0  0  0  0  0  0  0  0  0
   62.4418   -9.6297   -9.9916 C   0  0  0  0  0  0  0  0  0  0  0  0
   62.4561  -10.8677  -10.8302 C   0  0  0  0  0  0  0  0  0  0  0  0
 29 30  1  0  0  0
 30 28  1  0  0  0
 28 31  1  0  0  0
 31 32  1  0  0  0
 28 27  1  0  0  0
 27 26  1  0  0  0
 26 22  1  0  0  0
 22 23  1  0  0  0
 23 24  2  0  0  0
 23  1  1  0  0  0
  1  2  2  0  0  0
  2  3  1  0  0  0
  2  4  1  0  0  0
  4  5  1  0  0  0
  5  9  1  0  0  0
  9 10  2  0  0  0
 10 11  1  0  0  0
 11 12  2  0  0  0
 11 13  1  0  0  0
 13 14  1  0  0  0
 14 15  2  0  0  0
 15 16  1  0  0  0
 16 17  2  0  0  0
 17 18  1  0  0  0
 17 19  1  0  0  0
 19 20  2  0  0  0
  5  6  2  0  0  0
  6  7  1  0  0  0
  6  1  1  0  0  0
 20 10  1  0  0  0
 20 14  1  0  0  0
 22 25  1  0  0  0
  4  8  1  0  0  0
 13 21  1  0  0  0
M  END
> <minimizedAffinity>
-9.65326

> <CNNscore>
0.8634583354

> <CNNaffinity>
6.9776129723

> <CNN_VS>
6.0248780251

> <CNNaffinity_variance>
0.1533208638

$$$$
[H]/C(=C1/C(=O)N([H])c2c([H])c([H])c(F)c([H])c21)c1c(C([H])([H])[H])c(C(=O)N([H])C([H])([H])C([H])([H])N(C([H])([H])C([H])([H])[H])C([H])([H])C([H])([H])[H])c(C([H])([H])[H])n1[H]


 32 34  0  0  0  0  0  0  0  0999 V2000
   51.7538   -4.7092   -6.0819 C   0  0  0  0  0  0  0  0  0  0  0  0
   51.5612   -3.7373   -7.0157 C   0  0  0  0  0  0  0  0  0  0  0  0
   50.3713   -2.8587   -7.1951 C   0  0  0  0  0  0  0  0  0  0  0  0
   52.6647   -3.6151   -7.8218 N   0  0  0  0  0  0  0  0  0  0  0  0
   53.5628   -4.4894   -7.4222 C   0  0  0  0  0  0  0  0  0  0  0  0
   53.0281   -5.1919   -6.3355 C   0  0  0  0  0  0  0  0  0  0  0  0
   53.7082   -6.2769   -5.5830 C   0  0  0  0  0  0  0  0  0  0  0  0
   52.7245   -2.9314   -8.6185 H   0  0  0  0  0  0  0  0  0  0  0  0
   54.8889   -4.7498   -7.9163 C   0  0  0  0  0  0  0  0  0  0  0  0
   55.2924   -4.4052   -9.1044 C   0  0  0  0  0  0  0  0  0  0  0  0
   54.5830   -3.7191  -10.1624 C   0  0  0  0  0  0  0  0  0  0  0  0
   53.3977   -3.2931  -10.1346 O   0  0  0  0  0  0  0  0  0  0  0  0
   55.4937   -3.6094  -11.2661 N   0  0  0  0  0  0  0  0  0  0  0  0
   56.7337   -4.1971  -10.9332 C   0  0  0  0  0  0  0  0  0  0  0  0
   57.9232   -4.3597  -11.6066 C   0  0  0  0  0  0  0  0  0  0  0  0
   59.0140   -4.9838  -11.0423 C   0  0  0  0  0  0  0  0  0  0  0  0
   58.9344   -5.4749   -9.7495 C   0  0  0  0  0  0  0  0  0  0  0  0
   59.9788   -6.0956   -9.1518 F   0  0  0  0  0  0  0  0  0  0  0  0
   57.7417   -5.3059   -9.0888 C   0  0  0  0  0  0  0  0  0  0  0  0
   56.6413   -4.6795   -9.6494 C   0  0  0  0  0  0  0  0  0  0  0  0
   55.2784   -3.1634  -12.1773 H   0  0  0  0  0  0  0  0  0  0  0  0
   51.1218   -5.1763   -3.6630 N   0  0  0  0  0  0  0  0  0  0  0  0
   50.8820   -5.2455   -5.0419 C   0  0  0  0  0  0  0  0  0  0  0  0
   49.8152   -5.8161   -5.4941 O   0  0  0  0  0  0  0  0  0  0  0  0
   52.0398   -4.6423   -3.3885 H   0  0  0  0  0  0  0  0  0  0  0  0
   50.4051   -5.6338   -2.5369 C   0  0  0  0  0  0  0  0  0  0  0  0
   50.9047   -6.8059   -1.7703 C   0  0  0  0  0  0  0  0  0  0  0  0
   52.2954   -7.0179   -1.7876 N   0  0  0  0  0  0  0  0  0  0  0  0
   54.0403   -5.3226   -1.3543 C   0  0  0  0  0  0  0  0  0  0  0  0
   52.9311   -6.1731   -0.7691 C   0  0  0  0  0  0  0  0  0  0  0  0
   52.7139   -8.3645   -1.5462 C   0  0  0  0  0  0  0  0  0  0  0  0
   51.6386   -9.2575   -1.0150 C   0  0  0  0  0  0  0  0  0  0  0  0
 29 30  1  0  0  0
 30 28  1  0  0  0
 28 31  1  0  0  0
 31 32  1  0  0  0
 28 27  1  0  0  0
 27 26  1  0  0  0
 26 22  1  0  0  0
 22 23  1  0  0  0
 23 24  2  0  0  0
 23  1  1  0  0  0
  1  2  2  0  0  0
  2  3  1  0  0  0
  2  4  1  0  0  0
  4  5  1  0  0  0
  5  9  1  0  0  0
  9 10  2  0  0  0
 10 11  1  0  0  0
 11 12  2  0  0  0
 11 13  1  0  0  0
 13 14  1  0  0  0
 14 15  2  0  0  0
 15 16  1  0  0  0
 16 17  2  0  0  0
 17 18  1  0  0  0
 17 19  1  0  0  0
 19 20  2  0  0  0
  5  6  2  0  0  0
  6  7  1  0  0  0
  6  1  1  0  0  0
 20 10  1  0  0  0
 20 14  1  0  0  0
 22 25  1  0  0  0
  4  8  1  0  0  0
 13 21  1  0  0  0
M  END
> <minimizedAffinity>
-8.96018

> <CNNscore>
0.8204262853

> <CNNaffinity>
7.2667455673

> <CNN_VS>
5.9618291855

> <CNNaffinity_variance>
0.0612609386

$$$$
[H]/C(=C1/C(=O)N([H])c2c([H])c([H])c(F)c([H])c21)c1c(C([H])([H])[H])c(C(=O)N([H])C([H])([H])C([H])([H])N(C([H])([H])C([H])([H])[H])C([H])([H])C([H])([H])[H])c(C([H])([H])[H])n1[H]


 32 34  0  0  0  0  0  0  0  0999 V2000
   56.8325   -4.6434  -10.1595 C   0  0  0  0  0  0  0  0  0  0  0  0
   55.8847   -4.0899  -10.9651 C   0  0  0  0  0  0  0  0  0  0  0  0
   56.0351   -3.6179  -12.3702 C   0  0  0  0  0  0  0  0  0  0  0  0
   54.6760   -4.0287  -10.3188 N   0  0  0  0  0  0  0  0  0  0  0  0
   54.8296   -4.5338   -9.1138 C   0  0  0  0  0  0  0  0  0  0  0  0
   56.1660   -4.9290   -8.9783 C   0  0  0  0  0  0  0  0  0  0  0  0
   56.7713   -5.5455   -7.7702 C   0  0  0  0  0  0  0  0  0  0  0  0
   53.8086   -3.6242  -10.7542 H   0  0  0  0  0  0  0  0  0  0  0  0
   53.8720   -4.7191   -8.0558 C   0  0  0  0  0  0  0  0  0  0  0  0
   52.8189   -3.9706   -7.9022 C   0  0  0  0  0  0  0  0  0  0  0  0
   52.3566   -2.8470   -8.6879 C   0  0  0  0  0  0  0  0  0  0  0  0
   52.8948   -2.3649   -9.7199 O   0  0  0  0  0  0  0  0  0  0  0  0
   51.1515   -2.3770   -8.0664 N   0  0  0  0  0  0  0  0  0  0  0  0
   50.8508   -3.1632   -6.9327 C   0  0  0  0  0  0  0  0  0  0  0  0
   49.8360   -3.1467   -6.0026 C   0  0  0  0  0  0  0  0  0  0  0  0
   49.7688   -4.0495   -4.9643 C   0  0  0  0  0  0  0  0  0  0  0  0
   50.7483   -5.0198   -4.8304 C   0  0  0  0  0  0  0  0  0  0  0  0
   50.7257   -5.9288   -3.8271 F   0  0  0  0  0  0  0  0  0  0  0  0
   51.7550   -5.0252   -5.7653 C   0  0  0  0  0  0  0  0  0  0  0  0
   51.8291   -4.1212   -6.8116 C   0  0  0  0  0  0  0  0  0  0  0  0
   50.5797   -1.5777   -8.3979 H   0  0  0  0  0  0  0  0  0  0  0  0
   58.9742   -4.6111  -11.5311 N   0  0  0  0  0  0  0  0  0  0  0  0
   58.2583   -4.8828  -10.3574 C   0  0  0  0  0  0  0  0  0  0  0  0
   58.8542   -5.3844   -9.3272 O   0  0  0  0  0  0  0  0  0  0  0  0
   58.3773   -4.1568  -12.3315 H   0  0  0  0  0  0  0  0  0  0  0  0
   60.3275   -4.7780  -11.8939 C   0  0  0  0  0  0  0  0  0  0  0  0
   60.8029   -4.2900  -13.2157 C   0  0  0  0  0  0  0  0  0  0  0  0
   61.9548   -4.9095  -13.7338 N   0  0  0  0  0  0  0  0  0  0  0  0
   62.2853   -2.5401  -14.3527 C   0  0  0  0  0  0  0  0  0  0  0  0
   62.9391   -3.8833  -14.0989 C   0  0  0  0  0  0  0  0  0  0  0  0
   62.6054   -5.8299  -12.8528 C   0  0  0  0  0  0  0  0  0  0  0  0
   63.2126   -7.0127  -13.5372 C   0  0  0  0  0  0  0  0  0  0  0  0
 29 30  1  0  0  0
 30 28  1  0  0  0
 28 31  1  0  0  0
 31 32  1  0  0  0
 28 27  1  0  0  0
 27 26  1  0  0  0
 26 22  1  0  0  0
 22 23  1  0  0  0
 23 24  2  0  0  0
 23  1  1  0  0  0
  1  2  2  0  0  0
  2  3  1  0  0  0
  2  4  1  0  0  0
  4  5  1  0  0  0
  5  9  1  0  0  0
  9 10  2  0  0  0
 10 11  1  0  0  0
 11 12  2  0  0  0
 11 13  1  0  0  0
 13 14  1  0  0  0
 14 15  2  0  0  0
 15 16  1  0  0  0
 16 17  2  0  0  0
 17 18  1  0  0  0
 17 19  1  0  0  0
 19 20  2  0  0  0
  5  6  2  0  0  0
  6  7  1  0  0  0
  6  1  1  0  0  0
 20 10  1  0  0  0
 20 14  1  0  0  0
 22 25  1  0  0  0
  4  8  1  0  0  0
 13 21  1  0  0  0
M  END
> <minimizedAffinity>
-7.59746

> <CNNscore>
0.7633423209

> <CNNaffinity>
6.7853279114

> <CNN_VS>
5.1795277596

> <CNNaffinity_variance>
0.2944276929

$$$$
[H]/C(=C1/C(=O)N([H])c2c([H])c([H])c(F)c([H])c21)c1c(C([H])([H])[H])c(C(=O)N([H])C([H])([H])C([H])([H])N(C([H])([H])C([H])([H])[H])C([H])([H])C([H])([H])[H])c(C([H])([H])[H])n1[H]


 32 34  0  0  0  0  0  0  0  0999 V2000
   51.2438   -4.2877   -6.8657 C   0  0  0  0  0  0  0  0  0  0  0  0
   50.9921   -3.0222   -7.3000 C   0  0  0  0  0  0  0  0  0  0  0  0
   50.0271   -2.0341   -6.7411 C   0  0  0  0  0  0  0  0  0  0  0  0
   51.7943   -2.7085   -8.3680 N   0  0  0  0  0  0  0  0  0  0  0  0
   52.5573   -3.7485   -8.6266 C   0  0  0  0  0  0  0  0  0  0  0  0
   52.2410   -4.7557   -7.7070 C   0  0  0  0  0  0  0  0  0  0  0  0
   52.8641   -6.1025   -7.6452 C   0  0  0  0  0  0  0  0  0  0  0  0
   51.7554   -1.7838   -8.8670 H   0  0  0  0  0  0  0  0  0  0  0  0
   53.5776   -3.9257   -9.6258 C   0  0  0  0  0  0  0  0  0  0  0  0
   54.8384   -4.0805   -9.3441 C   0  0  0  0  0  0  0  0  0  0  0  0
   55.5041   -4.1201   -8.0601 C   0  0  0  0  0  0  0  0  0  0  0  0
   54.9726   -4.0231   -6.9220 O   0  0  0  0  0  0  0  0  0  0  0  0
   56.9034   -4.2953   -8.3261 N   0  0  0  0  0  0  0  0  0  0  0  0
   57.1282   -4.3667   -9.7182 C   0  0  0  0  0  0  0  0  0  0  0  0
   58.2529   -4.5279  -10.4955 C   0  0  0  0  0  0  0  0  0  0  0  0
   58.2022   -4.5675  -11.8716 C   0  0  0  0  0  0  0  0  0  0  0  0
   56.9847   -4.4421  -12.5201 C   0  0  0  0  0  0  0  0  0  0  0  0
   56.8837   -4.4748  -13.8700 F   0  0  0  0  0  0  0  0  0  0  0  0
   55.8704   -4.2820  -11.7326 C   0  0  0  0  0  0  0  0  0  0  0  0
   55.9135   -4.2415  -10.3492 C   0  0  0  0  0  0  0  0  0  0  0  0
   57.6458   -4.3619   -7.6049 H   0  0  0  0  0  0  0  0  0  0  0  0
   50.6327   -4.7760   -4.4455 N   0  0  0  0  0  0  0  0  0  0  0  0
   50.6373   -5.0929   -5.8106 C   0  0  0  0  0  0  0  0  0  0  0  0
   50.0703   -6.1729   -6.2349 O   0  0  0  0  0  0  0  0  0  0  0  0
   51.1135   -3.8211   -4.2000 H   0  0  0  0  0  0  0  0  0  0  0  0
   50.1080   -5.4255   -3.3081 C   0  0  0  0  0  0  0  0  0  0  0  0
   51.0237   -5.8699   -2.2239 C   0  0  0  0  0  0  0  0  0  0  0  0
   52.0599   -6.7442   -2.5995 N   0  0  0  0  0  0  0  0  0  0  0  0
   53.9784   -6.2903   -4.0894 C   0  0  0  0  0  0  0  0  0  0  0  0
   53.3041   -5.9834   -2.7675 C   0  0  0  0  0  0  0  0  0  0  0  0
   52.3304   -7.8060   -1.6797 C   0  0  0  0  0  0  0  0  0  0  0  0
   51.2527   -8.8395   -1.5983 C   0  0  0  0  0  0  0  0  0  0  0  0
 29 30  1  0  0  0
 30 28  1  0  0  0
 28 31  1  0  0  0
 31 32  1  0  0  0
 28 27  1  0  0  0
 27 26  1  0  0  0
 26 22  1  0  0  0
 22 23  1  0  0  0
 23 24  2  0  0  0
 23  1  1  0  0  0
  1  2  2  0  0  0
  2  3  1  0  0  0
  2  4  1  0  0  0
  4  5  1  0  0  0
  5  9  1  0  0  0
  9 10  2  0  0  0
 10 11  1  0  0  0
 11 12  2  0  0  0
 11 13  1  0  0  0
 13 14  1  0  0  0
 14 15  2  0  0  0
 15 16  1  0  0  0
 16 17  2  0  0  0
 17 18  1  0  0  0
 17 19  1  0  0  0
 19 20  2  0  0  0
  5  6  2  0  0  0
  6  7  1  0  0  0
  6  1  1  0  0  0
 20 10  1  0  0  0
 20 14  1  0  0  0
 22 25  1  0  0  0
  4  8  1  0  0  0
 13 21  1  0  0  0
M  END
> <minimizedAffinity>
-8.76483

> <CNNscore>
0.4790606797

> <CNNaffinity>
7.0586676598

> <CNN_VS>
3.3815300465

> <CNNaffinity_variance>
0.0786568969

$$$$
[H]/C(=C1/C(=O)N([H])c2c([H])c([H])c(F)c([H])c21)c1c(C([H])([H])[H])c(C(=O)N([H])C([H])([H])C([H])([H])N(C([H])([H])C([H])([H])[H])C([H])([H])C([H])([H])[H])c(C([H])([H])[H])n1[H]


 32 34  0  0  0  0  0  0  0  0999 V2000
   57.2406   -4.6915  -10.2879 C   0  0  0  0  0  0  0  0  0  0  0  0
   57.7948   -5.0017   -9.0837 C   0  0  0  0  0  0  0  0  0  0  0  0
   59.2385   -5.1577   -8.7497 C   0  0  0  0  0  0  0  0  0  0  0  0
   56.8231   -5.1407   -8.1251 N   0  0  0  0  0  0  0  0  0  0  0  0
   55.6554   -4.9243   -8.6910 C   0  0  0  0  0  0  0  0  0  0  0  0
   55.8772   -4.6401  -10.0439 C   0  0  0  0  0  0  0  0  0  0  0  0
   54.8283   -4.3397  -11.0517 C   0  0  0  0  0  0  0  0  0  0  0  0
   57.0304   -5.3922   -7.1254 H   0  0  0  0  0  0  0  0  0  0  0  0
   54.3334   -4.9278   -8.1227 C   0  0  0  0  0  0  0  0  0  0  0  0
   53.5381   -3.8983   -8.1497 C   0  0  0  0  0  0  0  0  0  0  0  0
   53.7431   -2.5822   -8.7148 C   0  0  0  0  0  0  0  0  0  0  0  0
   54.7626   -2.1647   -9.3259 O   0  0  0  0  0  0  0  0  0  0  0  0
   52.5509   -1.8289   -8.4489 N   0  0  0  0  0  0  0  0  0  0  0  0
   51.6202   -2.6243   -7.7456 C   0  0  0  0  0  0  0  0  0  0  0  0
   50.3521   -2.4022   -7.2579 C   0  0  0  0  0  0  0  0  0  0  0  0
   49.6355   -3.3710   -6.5905 C   0  0  0  0  0  0  0  0  0  0  0  0
   50.1912   -4.6238   -6.3902 C   0  0  0  0  0  0  0  0  0  0  0  0
   49.5265   -5.6084   -5.7404 F   0  0  0  0  0  0  0  0  0  0  0  0
   51.4570   -4.8322   -6.8820 C   0  0  0  0  0  0  0  0  0  0  0  0
   52.1833   -3.8635   -7.5539 C   0  0  0  0  0  0  0  0  0  0  0  0
   52.3903   -0.8439   -8.7310 H   0  0  0  0  0  0  0  0  0  0  0  0
   58.7119   -3.4577  -11.9558 N   0  0  0  0  0  0  0  0  0  0  0  0
   57.8305   -4.4899  -11.6073 C   0  0  0  0  0  0  0  0  0  0  0  0
   57.4743   -5.3713  -12.4816 O   0  0  0  0  0  0  0  0  0  0  0  0
   58.9722   -2.7851  -11.1293 H   0  0  0  0  0  0  0  0  0  0  0  0
   59.3642   -3.1138  -13.1588 C   0  0  0  0  0  0  0  0  0  0  0  0
   58.8520   -3.6391  -14.4524 C   0  0  0  0  0  0  0  0  0  0  0  0
   59.6705   -3.4352  -15.5782 N   0  0  0  0  0  0  0  0  0  0  0  0
   57.7115   -2.6009  -16.8324 C   0  0  0  0  0  0  0  0  0  0  0  0
   59.1320   -2.3295  -16.3799 C   0  0  0  0  0  0  0  0  0  0  0  0
   61.0389   -3.1291  -15.2947 C   0  0  0  0  0  0  0  0  0  0  0  0
   61.9718   -4.2889  -15.4387 C   0  0  0  0  0  0  0  0  0  0  0  0
 29 30  1  0  0  0
 30 28  1  0  0  0
 28 31  1  0  0  0
 31 32  1  0  0  0
 28 27  1  0  0  0
 27 26  1  0  0  0
 26 22  1  0  0  0
 22 23  1  0  0  0
 23 24  2  0  0  0
 23  1  1  0  0  0
  1  2  2  0  0  0
  2  3  1  0  0  0
  2  4  1  0  0  0
  4  5  1  0  0  0
  5  9  1  0  0  0
  9 10  2  0  0  0
 10 11  1  0  0  0
 11 12  2  0  0  0
 11 13  1  0  0  0
 13 14  1  0  0  0
 14 15  2  0  0  0
 15 16  1  0  0  0
 16 17  2  0  0  0
 17 18  1  0  0  0
 17 19  1  0  0  0
 19 20  2  0  0  0
  5  6  2  0  0  0
  6  7  1  0  0  0
  6  1  1  0  0  0
 20 10  1  0  0  0
 20 14  1  0  0  0
 22 25  1  0  0  0
  4  8  1  0  0  0
 13 21  1  0  0  0
M  END
> <minimizedAffinity>
-6.66264

> <CNNscore>
0.3936749995

> <CNNaffinity>
6.2745580673

> <CNN_VS>
2.4701366425

> <CNNaffinity_variance>
0.1166995764

$$$$
[H]/C(=C1/C(=O)N([H])c2c([H])c([H])c(F)c([H])c21)c1c(C([H])([H])[H])c(C(=O)N([H])C([H])([H])C([H])([H])N(C([H])([H])C([H])([H])[H])C([H])([H])C([H])([H])[H])c(C([H])([H])[H])n1[H]


 32 34  0  0  0  0  0  0  0  0999 V2000
   56.3949   -6.4382   -4.5575 C   0  0  0  0  0  0  0  0  0  0  0  0
   56.3059   -6.0716   -5.8657 C   0  0  0  0  0  0  0  0  0  0  0  0
   57.3594   -6.1532   -6.9161 C   0  0  0  0  0  0  0  0  0  0  0  0
   55.0467   -5.6095   -6.1542 N   0  0  0  0  0  0  0  0  0  0  0  0
   54.3251   -5.6737   -5.0562 C   0  0  0  0  0  0  0  0  0  0  0  0
   55.1353   -6.1874   -4.0364 C   0  0  0  0  0  0  0  0  0  0  0  0
   54.7185   -6.4200   -2.6298 C   0  0  0  0  0  0  0  0  0  0  0  0
   54.7635   -5.2618   -7.1053 H   0  0  0  0  0  0  0  0  0  0  0  0
   52.9459   -5.3310   -4.8303 C   0  0  0  0  0  0  0  0  0  0  0  0
   52.2358   -4.6273   -5.6632 C   0  0  0  0  0  0  0  0  0  0  0  0
   52.6030   -4.0506   -6.9384 C   0  0  0  0  0  0  0  0  0  0  0  0
   53.7178   -4.1317   -7.5196 O   0  0  0  0  0  0  0  0  0  0  0  0
   51.4440   -3.3604   -7.4280 N   0  0  0  0  0  0  0  0  0  0  0  0
   50.3785   -3.4880   -6.5102 C   0  0  0  0  0  0  0  0  0  0  0  0
   49.0789   -3.0346   -6.4888 C   0  0  0  0  0  0  0  0  0  0  0  0
   48.2174   -3.3058   -5.4486 C   0  0  0  0  0  0  0  0  0  0  0  0
   48.6529   -4.0611   -4.3723 C   0  0  0  0  0  0  0  0  0  0  0  0
   47.8440   -4.3541   -3.3267 F   0  0  0  0  0  0  0  0  0  0  0  0
   49.9518   -4.5074   -4.4064 C   0  0  0  0  0  0  0  0  0  0  0  0
   50.8234   -4.2390   -5.4484 C   0  0  0  0  0  0  0  0  0  0  0  0
   51.3904   -2.8427   -8.3251 H   0  0  0  0  0  0  0  0  0  0  0  0
   57.8068   -8.2894   -3.5335 N   0  0  0  0  0  0  0  0  0  0  0  0
   57.5105   -6.9387   -3.7611 C   0  0  0  0  0  0  0  0  0  0  0  0
   58.2513   -6.0104   -3.2538 O   0  0  0  0  0  0  0  0  0  0  0  0
   57.1326   -8.9928   -4.0375 H   0  0  0  0  0  0  0  0  0  0  0  0
   58.8217   -8.9425   -2.8025 C   0  0  0  0  0  0  0  0  0  0  0  0
   60.1766   -9.0959   -3.3960 C   0  0  0  0  0  0  0  0  0  0  0  0
   61.0720   -8.0297   -3.1945 N   0  0  0  0  0  0  0  0  0  0  0  0
   62.3457   -9.9364   -2.2731 C   0  0  0  0  0  0  0  0  0  0  0  0
   62.1133   -8.4392   -2.2441 C   0  0  0  0  0  0  0  0  0  0  0  0
   61.7322   -7.5522   -4.3704 C   0  0  0  0  0  0  0  0  0  0  0  0
   61.4511   -8.3522   -5.6020 C   0  0  0  0  0  0  0  0  0  0  0  0
 29 30  1  0  0  0
 30 28  1  0  0  0
 28 31  1  0  0  0
 31 32  1  0  0  0
 28 27  1  0  0  0
 27 26  1  0  0  0
 26 22  1  0  0  0
 22 23  1  0  0  0
 23 24  2  0  0  0
 23  1  1  0  0  0
  1  2  2  0  0  0
  2  3  1  0  0  0
  2  4  1  0  0  0
  4  5  1  0  0  0
  5  9  1  0  0  0
  9 10  2  0  0  0
 10 11  1  0  0  0
 11 12  2  0  0  0
 11 13  1  0  0  0
 13 14  1  0  0  0
 14 15  2  0  0  0
 15 16  1  0  0  0
 16 17  2  0  0  0
 17 18  1  0  0  0
 17 19  1  0  0  0
 19 20  2  0  0  0
  5  6  2  0  0  0
  6  7  1  0  0  0
  6  1  1  0  0  0
 20 10  1  0  0  0
 20 14  1  0  0  0
 22 25  1  0  0  0
  4  8  1  0  0  0
 13 21  1  0  0  0
M  END
> <minimizedAffinity>
-4.56196

> <CNNscore>
0.3536952436

> <CNNaffinity>
6.0832819939

> <CNN_VS>
2.1516280174

> <CNNaffinity_variance>
0.9822528958

$$$$
[H]/C(=C1/C(=O)N([H])c2c([H])c([H])c(F)c([H])c21)c1c(C([H])([H])[H])c(C(=O)N([H])C([H])([H])C([H])([H])N(C([H])([H])C([H])([H])[H])C([H])([H])C([H])([H])[H])c(C([H])([H])[H])n1[H]


 32 34  0  0  0  0  0  0  0  0999 V2000
   56.2508   -4.5723   -9.0777 C   0  0  0  0  0  0  0  0  0  0  0  0
   57.5237   -4.9379   -9.3931 C   0  0  0  0  0  0  0  0  0  0  0  0
   58.5803   -5.4642   -8.4839 C   0  0  0  0  0  0  0  0  0  0  0  0
   57.7505   -4.7903  -10.7382 N   0  0  0  0  0  0  0  0  0  0  0  0
   56.6465   -4.3380  -11.2925 C   0  0  0  0  0  0  0  0  0  0  0  0
   55.6864   -4.1895  -10.2843 C   0  0  0  0  0  0  0  0  0  0  0  0
   54.2973   -3.6987  -10.4731 C   0  0  0  0  0  0  0  0  0  0  0  0
   58.6733   -5.0040  -11.1947 H   0  0  0  0  0  0  0  0  0  0  0  0
   56.3546   -4.0377  -12.6692 C   0  0  0  0  0  0  0  0  0  0  0  0
   57.2667   -3.7354  -13.5466 C   0  0  0  0  0  0  0  0  0  0  0  0
   58.7020   -3.6328  -13.3950 C   0  0  0  0  0  0  0  0  0  0  0  0
   59.3753   -3.8372  -12.3500 O   0  0  0  0  0  0  0  0  0  0  0  0
   59.2258   -3.2516  -14.6755 N   0  0  0  0  0  0  0  0  0  0  0  0
   58.1755   -3.1161  -15.6095 C   0  0  0  0  0  0  0  0  0  0  0  0
   58.1230   -2.7809  -16.9436 C   0  0  0  0  0  0  0  0  0  0  0  0
   56.9393   -2.7200  -17.6456 C   0  0  0  0  0  0  0  0  0  0  0  0
   55.7436   -3.0024  -17.0059 C   0  0  0  0  0  0  0  0  0  0  0  0
   54.5550   -2.9561  -17.6528 F   0  0  0  0  0  0  0  0  0  0  0  0
   55.8101   -3.3357  -15.6747 C   0  0  0  0  0  0  0  0  0  0  0  0
   56.9961   -3.3991  -14.9627 C   0  0  0  0  0  0  0  0  0  0  0  0
   60.2288   -3.0978  -14.8900 H   0  0  0  0  0  0  0  0  0  0  0  0
   54.5560   -5.3955   -7.3691 N   0  0  0  0  0  0  0  0  0  0  0  0
   55.5463   -4.5033   -7.8016 C   0  0  0  0  0  0  0  0  0  0  0  0
   55.9137   -3.5178   -7.0520 O   0  0  0  0  0  0  0  0  0  0  0  0
   54.3447   -6.2129   -8.0696 H   0  0  0  0  0  0  0  0  0  0  0  0
   53.7818   -5.4780   -6.1924 C   0  0  0  0  0  0  0  0  0  0  0  0
   52.3018   -5.5863   -6.2888 C   0  0  0  0  0  0  0  0  0  0  0  0
   51.5710   -4.4107   -6.0373 N   0  0  0  0  0  0  0  0  0  0  0  0
   50.3202   -2.5857   -7.1380 C   0  0  0  0  0  0  0  0  0  0  0  0
   51.3239   -3.7089   -7.3029 C   0  0  0  0  0  0  0  0  0  0  0  0
   50.3040   -4.6002   -5.4006 C   0  0  0  0  0  0  0  0  0  0  0  0
   50.3872   -5.1773   -4.0236 C   0  0  0  0  0  0  0  0  0  0  0  0
 29 30  1  0  0  0
 30 28  1  0  0  0
 28 31  1  0  0  0
 31 32  1  0  0  0
 28 27  1  0  0  0
 27 26  1  0  0  0
 26 22  1  0  0  0
 22 23  1  0  0  0
 23 24  2  0  0  0
 23  1  1  0  0  0
  1  2  2  0  0  0
  2  3  1  0  0  0
  2  4  1  0  0  0
  4  5  1  0  0  0
  5  9  1  0  0  0
  9 10  2  0  0  0
 10 11  1  0  0  0
 11 12  2  0  0  0
 11 13  1  0  0  0
 13 14  1  0  0  0
 14 15  2  0  0  0
 15 16  1  0  0  0
 16 17  2  0  0  0
 17 18  1  0  0  0
 17 19  1  0  0  0
 19 20  2  0  0  0
  5  6  2  0  0  0
  6  7  1  0  0  0
  6  1  1  0  0  0
 20 10  1  0  0  0
 20 14  1  0  0  0
 22 25  1  0  0  0
  4  8  1  0  0  0
 13 21  1  0  0  0
M  END
> <minimizedAffinity>
-8.46914

> <CNNscore>
0.3211109638

> <CNNaffinity>
5.9046072960

> <CNN_VS>
1.8960341215

> <CNNaffinity_variance>
0.5311620235

$$$$
[H]/C(=C1/C(=O)N([H])c2c([H])c([H])c(F)c([H])c21)c1c(C([H])([H])[H])c(C(=O)N([H])C([H])([H])C([H])([H])N(C([H])([H])C([H])([H])[H])C([H])([H])C([H])([H])[H])c(C([H])([H])[H])n1[H]


 32 34  0  0  0  0  0  0  0  0999 V2000
   56.7731   -4.7323   -9.2291 C   0  0  0  0  0  0  0  0  0  0  0  0
   57.2552   -5.3391   -8.1098 C   0  0  0  0  0  0  0  0  0  0  0  0
   56.5738   -5.5204   -6.7972 C   0  0  0  0  0  0  0  0  0  0  0  0
   58.5167   -5.8311   -8.3312 N   0  0  0  0  0  0  0  0  0  0  0  0
   58.8531   -5.5527   -9.5722 C   0  0  0  0  0  0  0  0  0  0  0  0
   57.7868   -4.8657  -10.1649 C   0  0  0  0  0  0  0  0  0  0  0  0
   57.7486   -4.3588  -11.5605 C   0  0  0  0  0  0  0  0  0  0  0  0
   59.0804   -6.3267   -7.5947 H   0  0  0  0  0  0  0  0  0  0  0  0
   60.0538   -5.8653  -10.3010 C   0  0  0  0  0  0  0  0  0  0  0  0
   61.1065   -6.3999   -9.7540 C   0  0  0  0  0  0  0  0  0  0  0  0
   61.3380   -6.7988   -8.3826 C   0  0  0  0  0  0  0  0  0  0  0  0
   60.5320   -6.7169   -7.4178 O   0  0  0  0  0  0  0  0  0  0  0  0
   62.6755   -7.3155   -8.3235 N   0  0  0  0  0  0  0  0  0  0  0  0
   63.2774   -7.2533   -9.5993 C   0  0  0  0  0  0  0  0  0  0  0  0
   64.5134   -7.6101  -10.0890 C   0  0  0  0  0  0  0  0  0  0  0  0
   64.8620   -7.4437  -11.4113 C   0  0  0  0  0  0  0  0  0  0  0  0
   63.9507   -6.8984  -12.3007 C   0  0  0  0  0  0  0  0  0  0  0  0
   64.2464   -6.7152  -13.6093 F   0  0  0  0  0  0  0  0  0  0  0  0
   62.7210   -6.5469  -11.7990 C   0  0  0  0  0  0  0  0  0  0  0  0
   62.3635   -6.7113  -10.4714 C   0  0  0  0  0  0  0  0  0  0  0  0
   63.1376   -7.6836   -7.4710 H   0  0  0  0  0  0  0  0  0  0  0  0
   54.9282   -3.0830   -8.6417 N   0  0  0  0  0  0  0  0  0  0  0  0
   55.5238   -4.0253   -9.4910 C   0  0  0  0  0  0  0  0  0  0  0  0
   54.9716   -4.3348  -10.6167 O   0  0  0  0  0  0  0  0  0  0  0  0
   55.4977   -2.8718   -7.7282 H   0  0  0  0  0  0  0  0  0  0  0  0
   53.7452   -2.3190   -8.7302 C   0  0  0  0  0  0  0  0  0  0  0  0
   52.4268   -2.9725   -8.5154 C   0  0  0  0  0  0  0  0  0  0  0  0
   52.3336   -3.8466   -7.4170 N   0  0  0  0  0  0  0  0  0  0  0  0
   50.3181   -2.4271   -7.2450 C   0  0  0  0  0  0  0  0  0  0  0  0
   51.0273   -3.6786   -6.7685 C   0  0  0  0  0  0  0  0  0  0  0  0
   52.4815   -5.2360   -7.7242 C   0  0  0  0  0  0  0  0  0  0  0  0
   52.4936   -6.1331   -6.5279 C   0  0  0  0  0  0  0  0  0  0  0  0
 29 30  1  0  0  0
 30 28  1  0  0  0
 28 31  1  0  0  0
 31 32  1  0  0  0
 28 27  1  0  0  0
 27 26  1  0  0  0
 26 22  1  0  0  0
 22 23  1  0  0  0
 23 24  2  0  0  0
 23  1  1  0  0  0
  1  2  2  0  0  0
  2  3  1  0  0  0
  2  4  1  0  0  0
  4  5  1  0  0  0
  5  9  1  0  0  0
  9 10  2  0  0  0
 10 11  1  0  0  0
 11 12  2  0  0  0
 11 13  1  0  0  0
 13 14  1  0  0  0
 14 15  2  0  0  0
 15 16  1  0  0  0
 16 17  2  0  0  0
 17 18  1  0  0  0
 17 19  1  0  0  0
 19 20  2  0  0  0
  5  6  2  0  0  0
  6  7  1  0  0  0
  6  1  1  0  0  0
 20 10  1  0  0  0
 20 14  1  0  0  0
 22 25  1  0  0  0
  4  8  1  0  0  0
 13 21  1  0  0  0
M  END
> <minimizedAffinity>
-7.28235

> <CNNscore>
0.3024250865

> <CNNaffinity>
5.6872415543

> <CNN_VS>
1.7199645042

> <CNNaffinity_variance>
0.3756639361

$$$$
[H]c1nc(N([H])c2c([H])c([H])c(C(=O)N([H])C3([H])C([H])([H])C([H])([H])N(C([H])([H])[H])C([H])([H])C3([H])[H])c([H])c2OC([H])([H])[H])nc2c1N(C([H])([H])[H])C(=O)[C@@]([H])(C([H])([H])C([H])([H])[H])N2C1([H])C([H])([H])C([H])([H])C([H])([H])C1([H])[H]


 40 44  0  0  0  0  0  0  0  0999 V2000
   55.0362   -3.3121  -10.0662 N   0  0  0  0  0  0  0  0  0  0  0  0
   55.0228   -2.7203  -10.9717 H   0  0  0  0  0  0  0  0  0  0  0  0
   51.6123   -5.5497   -5.6993 C   0  0  0  0  0  0  0  0  0  0  0  0
   52.8994   -5.1746   -6.1901 N   0  0  0  0  0  0  0  0  0  0  0  0
   52.8643   -4.2394   -7.2730 C   0  0  0  0  0  0  0  0  0  0  0  0
   53.8276   -4.0957   -8.1617 N   0  0  0  0  0  0  0  0  0  0  0  0
   53.8726   -3.2494   -9.2359 C   0  0  0  0  0  0  0  0  0  0  0  0
   52.8175   -2.4841   -9.3950 N   0  0  0  0  0  0  0  0  0  0  0  0
   51.7713   -2.5264   -8.5699 C   0  0  0  0  0  0  0  0  0  0  0  0
   51.7628   -3.3931   -7.4979 C   0  0  0  0  0  0  0  0  0  0  0  0
   50.6357   -3.4392   -6.6524 N   0  0  0  0  0  0  0  0  0  0  0  0
   49.4601   -2.5829   -6.8273 C   0  0  0  0  0  0  0  0  0  0  0  0
   50.7146   -4.3837   -5.6001 C   0  0  0  0  0  0  0  0  0  0  0  0
   49.9615   -4.1292   -4.5960 O   0  0  0  0  0  0  0  0  0  0  0  0
   54.1833   -5.6103   -5.8111 C   0  0  0  0  0  0  0  0  0  0  0  0
   54.6038   -5.6395   -4.4151 C   0  0  0  0  0  0  0  0  0  0  0  0
   54.5372   -7.1295   -3.9730 C   0  0  0  0  0  0  0  0  0  0  0  0
   55.2603   -7.7019   -5.1722 C   0  0  0  0  0  0  0  0  0  0  0  0
   54.5267   -6.9862   -6.3325 C   0  0  0  0  0  0  0  0  0  0  0  0
   51.0383   -6.9540   -7.7287 C   0  0  0  0  0  0  0  0  0  0  0  0
   50.8435   -6.6438   -6.2546 C   0  0  0  0  0  0  0  0  0  0  0  0
   56.1962   -4.0581   -9.8477 C   0  0  0  0  0  0  0  0  0  0  0  0
   56.6282   -4.4655   -8.6032 C   0  0  0  0  0  0  0  0  0  0  0  0
   57.8230   -5.1735   -8.4943 C   0  0  0  0  0  0  0  0  0  0  0  0
   58.6072   -5.4933   -9.5760 C   0  0  0  0  0  0  0  0  0  0  0  0
   58.1437   -5.0746  -10.7962 C   0  0  0  0  0  0  0  0  0  0  0  0
   56.9874   -4.3801  -10.9746 C   0  0  0  0  0  0  0  0  0  0  0  0
   59.8508   -6.1807   -9.3993 C   0  0  0  0  0  0  0  0  0  0  0  0
   60.5294   -6.5076  -10.4039 O   0  0  0  0  0  0  0  0  0  0  0  0
   60.3395   -6.5085   -8.1224 N   0  0  0  0  0  0  0  0  0  0  0  0
   59.8070   -6.2405   -7.2697 H   0  0  0  0  0  0  0  0  0  0  0  0
   61.5854   -7.2216   -7.8996 C   0  0  0  0  0  0  0  0  0  0  0  0
   62.8042   -6.3743   -8.0464 C   0  0  0  0  0  0  0  0  0  0  0  0
   64.0043   -7.2910   -7.9451 C   0  0  0  0  0  0  0  0  0  0  0  0
   63.8110   -8.3524   -7.0167 N   0  0  0  0  0  0  0  0  0  0  0  0
   63.4951   -9.6299   -7.6096 C   0  0  0  0  0  0  0  0  0  0  0  0
   62.8868   -8.0771   -5.9526 C   0  0  0  0  0  0  0  0  0  0  0  0
   61.5144   -7.7685   -6.4928 C   0  0  0  0  0  0  0  0  0  0  0  0
   56.5473   -3.9710  -12.2235 O   0  0  0  0  0  0  0  0  0  0  0  0
   57.3924   -3.8112  -13.3233 C   0  0  0  0  0  0  0  0  0  0  0  0
 20 21  1  0  0  0
 21  3  1  0  0  0
  3  4  1  0  0  0
  4 15  1  0  0  0
 15 16  1  0  0  0
 16 17  1  0  0  0
 17 18  1  0  0  0
 18 19  1  0  0  0
  4  5  1  0  0  0
  5  6  2  0  0  0
  6  7  1  0  0  0
  7  1  1  0  0  0
  1 22  1  0  0  0
 22 23  2  0  0  0
 23 24  1  0  0  0
 24 25  2  0  0  0
 25 26  1  0  0  0
 26 27  2  0  0  0
 27 39  1  0  0  0
 39 40  1  0  0  0
 25 28  1  0  0  0
 28 29  2  0  0  0
 28 30  1  0  0  0
 30 32  1  0  0  0
 32 33  1  0  0  0
 33 34  1  0  0  0
 34 35  1  0  0  0
 35 36  1  0  0  0
 35 37  1  0  0  0
 37 38  1  0  0  0
  7  8  2  0  0  0
  8  9  1  0  0  0
  9 10  2  0  0  0
 10 11  1  0  0  0
 11 12  1  0  0  0
 11 13  1  0  0  0
 13 14  2  0  0  0
 13  3  1  0  0  0
 19 15  1  0  0  0
 10  5  1  0  0  0
 27 22  1  0  0  0
 38 32  1  0  0  0
  1  2  1  0  0  0
 30 31  1  0  0  0
M  END
> <minimizedAffinity>
-10.84795

> <CNNscore>
0.9820373654

> <CNNaffinity>
8.3111276627

> <CNN_VS>
8.1618375778

> <CNNaffinity_variance>
0.0258199014

$$$$
[H]c1nc(N([H])c2c([H])c([H])c(C(=O)N([H])C3([H])C([H])([H])C([H])([H])N(C([H])([H])[H])C([H])([H])C3([H])[H])c([H])c2OC([H])([H])[H])nc2c1N(C([H])([H])[H])C(=O)[C@@]([H])(C([H])([H])C([H])([H])[H])N2C1([H])C([H])([H])C([H])([H])C([H])([H])C1([H])[H]


 40 44  0  0  0  0  0  0  0  0999 V2000
   54.6076   -2.8951   -9.7401 N   0  0  0  0  0  0  0  0  0  0  0  0
   54.5962   -2.1124  -10.4868 H   0  0  0  0  0  0  0  0  0  0  0  0
   51.4404   -5.7710   -5.5571 C   0  0  0  0  0  0  0  0  0  0  0  0
   52.6890   -5.2674   -6.0321 N   0  0  0  0  0  0  0  0  0  0  0  0
   52.5689   -4.2331   -7.0140 C   0  0  0  0  0  0  0  0  0  0  0  0
   53.4985   -3.9402   -7.9018 N   0  0  0  0  0  0  0  0  0  0  0  0
   53.4639   -2.9900   -8.8856 C   0  0  0  0  0  0  0  0  0  0  0  0
   52.3599   -2.2815   -8.9464 N   0  0  0  0  0  0  0  0  0  0  0  0
   51.3397   -2.4726   -8.1099 C   0  0  0  0  0  0  0  0  0  0  0  0
   51.4118   -3.4407   -7.1311 C   0  0  0  0  0  0  0  0  0  0  0  0
   50.3116   -3.6428   -6.2732 N   0  0  0  0  0  0  0  0  0  0  0  0
   49.0814   -2.8501   -6.3381 C   0  0  0  0  0  0  0  0  0  0  0  0
   50.4753   -4.6805   -5.3234 C   0  0  0  0  0  0  0  0  0  0  0  0
   49.7338   -4.5759   -4.2845 O   0  0  0  0  0  0  0  0  0  0  0  0
   54.0065   -5.6558   -5.7237 C   0  0  0  0  0  0  0  0  0  0  0  0
   54.4660   -5.7887   -4.3460 C   0  0  0  0  0  0  0  0  0  0  0  0
   54.5007   -7.3146   -4.0455 C   0  0  0  0  0  0  0  0  0  0  0  0
   55.2239   -7.7267   -5.3088 C   0  0  0  0  0  0  0  0  0  0  0  0
   54.4175   -6.9531   -6.3802 C   0  0  0  0  0  0  0  0  0  0  0  0
   50.8964   -6.9950   -7.7080 C   0  0  0  0  0  0  0  0  0  0  0  0
   50.7266   -6.8512   -6.2055 C   0  0  0  0  0  0  0  0  0  0  0  0
   55.7457   -3.7041   -9.7286 C   0  0  0  0  0  0  0  0  0  0  0  0
   56.2394   -4.3567  -10.8385 C   0  0  0  0  0  0  0  0  0  0  0  0
   57.3612   -5.1721  -10.7072 C   0  0  0  0  0  0  0  0  0  0  0  0
   58.0134   -5.3648   -9.5135 C   0  0  0  0  0  0  0  0  0  0  0  0
   57.4959   -4.6973   -8.4339 C   0  0  0  0  0  0  0  0  0  0  0  0
   56.4046   -3.8866   -8.4909 C   0  0  0  0  0  0  0  0  0  0  0  0
   59.1331   -6.2532   -9.4278 C   0  0  0  0  0  0  0  0  0  0  0  0
   59.1709   -7.2783  -10.1519 O   0  0  0  0  0  0  0  0  0  0  0  0
   60.2014   -6.0134   -8.5458 N   0  0  0  0  0  0  0  0  0  0  0  0
   60.2059   -5.1664   -7.9416 H   0  0  0  0  0  0  0  0  0  0  0  0
   61.3460   -6.8984   -8.4136 C   0  0  0  0  0  0  0  0  0  0  0  0
   62.6580   -6.2354   -8.6663 C   0  0  0  0  0  0  0  0  0  0  0  0
   63.7184   -7.3152   -8.6492 C   0  0  0  0  0  0  0  0  0  0  0  0
   63.4496   -8.3373   -7.6959 N   0  0  0  0  0  0  0  0  0  0  0  0
   62.9074   -9.5564   -8.2468 C   0  0  0  0  0  0  0  0  0  0  0  0
   62.6624   -7.9315   -6.5655 C   0  0  0  0  0  0  0  0  0  0  0  0
   61.3098   -7.4288   -6.9992 C   0  0  0  0  0  0  0  0  0  0  0  0
   55.9065   -3.2261   -7.3790 O   0  0  0  0  0  0  0  0  0  0  0  0
   56.4752   -3.3221   -6.1075 C   0  0  0  0  0  0  0  0  0  0  0  0
 20 21  1  0  0  0
 21  3  1  0  0  0
  3  4  1  0  0  0
  4 15  1  0  0  0
 15 16  1  0  0  0
 16 17  1  0  0  0
 17 18  1  0  0  0
 18 19  1  0  0  0
  4  5  1  0  0  0
  5  6  2  0  0  0
  6  7  1  0  0  0
  7  1  1  0  0  0
  1 22  1  0  0  0
 22 23  2  0  0  0
 23 24  1  0  0  0
 24 25  2  0  0  0
 25 26  1  0  0  0
 26 27  2  0  0  0
 27 39  1  0  0  0
 39 40  1  0  0  0
 25 28  1  0  0  0
 28 29  2  0  0  0
 28 30  1  0  0  0
 30 32  1  0  0  0
 32 33  1  0  0  0
 33 34  1  0  0  0
 34 35  1  0  0  0
 35 36  1  0  0  0
 35 37  1  0  0  0
 37 38  1  0  0  0
  7  8  2  0  0  0
  8  9  1  0  0  0
  9 10  2  0  0  0
 10 11  1  0  0  0
 11 12  1  0  0  0
 11 13  1  0  0  0
 13 14  2  0  0  0
 13  3  1  0  0  0
 19 15  1  0  0  0
 10  5  1  0  0  0
 27 22  1  0  0  0
 38 32  1  0  0  0
  1  2  1  0  0  0
 30 31  1  0  0  0
M  END
> <minimizedAffinity>
-9.36374

> <CNNscore>
0.8710751534

> <CNNaffinity>
8.1366300583

> <CNN_VS>
7.0876164436

> <CNNaffinity_variance>
0.0747319385

$$$$
[H]c1nc(N([H])c2c([H])c([H])c(C(=O)N([H])C3([H])C([H])([H])C([H])([H])N(C([H])([H])[H])C([H])([H])C3([H])[H])c([H])c2OC([H])([H])[H])nc2c1N(C([H])([H])[H])C(=O)[C@@]([H])(C([H])([H])C([H])([H])[H])N2C1([H])C([H])([H])C([H])([H])C([H])([H])C1([H])[H]


 40 44  0  0  0  0  0  0  0  0999 V2000
   55.3881   -3.5534  -10.2243 N   0  0  0  0  0  0  0  0  0  0  0  0
   55.3546   -3.0771  -11.1950 H   0  0  0  0  0  0  0  0  0  0  0  0
   51.8613   -5.6681   -5.8781 C   0  0  0  0  0  0  0  0  0  0  0  0
   53.1606   -5.3127   -6.3511 N   0  0  0  0  0  0  0  0  0  0  0  0
   53.1539   -4.4024   -7.4555 C   0  0  0  0  0  0  0  0  0  0  0  0
   54.1359   -4.2852   -8.3274 N   0  0  0  0  0  0  0  0  0  0  0  0
   54.2085   -3.4641   -9.4195 C   0  0  0  0  0  0  0  0  0  0  0  0
   53.1621   -2.6958   -9.6174 N   0  0  0  0  0  0  0  0  0  0  0  0
   52.0992   -2.7124   -8.8131 C   0  0  0  0  0  0  0  0  0  0  0  0
   52.0630   -3.5543   -7.7220 C   0  0  0  0  0  0  0  0  0  0  0  0
   50.9187   -3.5738   -6.8988 N   0  0  0  0  0  0  0  0  0  0  0  0
   49.7529   -2.7141   -7.1170 C   0  0  0  0  0  0  0  0  0  0  0  0
   50.9699   -4.4944   -5.8238 C   0  0  0  0  0  0  0  0  0  0  0  0
   50.1984   -4.2120   -4.8413 O   0  0  0  0  0  0  0  0  0  0  0  0
   54.4335   -5.7478   -5.9362 C   0  0  0  0  0  0  0  0  0  0  0  0
   54.8330   -5.7282   -4.5339 C   0  0  0  0  0  0  0  0  0  0  0  0
   54.7422   -7.1992   -4.0361 C   0  0  0  0  0  0  0  0  0  0  0  0
   55.4762   -7.8253   -5.2015 C   0  0  0  0  0  0  0  0  0  0  0  0
   54.7684   -7.1466   -6.3994 C   0  0  0  0  0  0  0  0  0  0  0  0
   51.2080   -7.0225   -7.9175 C   0  0  0  0  0  0  0  0  0  0  0  0
   51.0963   -6.7696   -6.4240 C   0  0  0  0  0  0  0  0  0  0  0  0
   56.5875   -4.1933   -9.9052 C   0  0  0  0  0  0  0  0  0  0  0  0
   57.3815   -4.8463  -10.8240 C   0  0  0  0  0  0  0  0  0  0  0  0
   58.5405   -5.4865  -10.3909 C   0  0  0  0  0  0  0  0  0  0  0  0
   58.9423   -5.5032   -9.0772 C   0  0  0  0  0  0  0  0  0  0  0  0
   58.1297   -4.8410   -8.1940 C   0  0  0  0  0  0  0  0  0  0  0  0
   56.9852   -4.1960   -8.5482 C   0  0  0  0  0  0  0  0  0  0  0  0
   60.1177   -6.2190   -8.6818 C   0  0  0  0  0  0  0  0  0  0  0  0
   61.1531   -5.5857   -8.3599 O   0  0  0  0  0  0  0  0  0  0  0  0
   60.1508   -7.6241   -8.6460 N   0  0  0  0  0  0  0  0  0  0  0  0
   59.3058   -8.1775   -8.8948 H   0  0  0  0  0  0  0  0  0  0  0  0
   61.3274   -8.3889   -8.2699 C   0  0  0  0  0  0  0  0  0  0  0  0
   61.2859   -8.9201   -6.8768 C   0  0  0  0  0  0  0  0  0  0  0  0
   62.6354   -9.5440   -6.5928 C   0  0  0  0  0  0  0  0  0  0  0  0
   63.1980  -10.1843   -7.7327 N   0  0  0  0  0  0  0  0  0  0  0  0
   64.2297   -9.4324   -8.4061 C   0  0  0  0  0  0  0  0  0  0  0  0
   62.2495  -10.6655   -8.6976 C   0  0  0  0  0  0  0  0  0  0  0  0
   61.4162   -9.5372   -9.2481 C   0  0  0  0  0  0  0  0  0  0  0  0
   56.1854   -3.5356   -7.6290 O   0  0  0  0  0  0  0  0  0  0  0  0
   56.6068   -3.2038   -6.3399 C   0  0  0  0  0  0  0  0  0  0  0  0
 20 21  1  0  0  0
 21  3  1  0  0  0
  3  4  1  0  0  0
  4 15  1  0  0  0
 15 16  1  0  0  0
 16 17  1  0  0  0
 17 18  1  0  0  0
 18 19  1  0  0  0
  4  5  1  0  0  0
  5  6  2  0  0  0
  6  7  1  0  0  0
  7  1  1  0  0  0
  1 22  1  0  0  0
 22 23  2  0  0  0
 23 24  1  0  0  0
 24 25  2  0  0  0
 25 26  1  0  0  0
 26 27  2  0  0  0
 27 39  1  0  0  0
 39 40  1  0  0  0
 25 28  1  0  0  0
 28 29  2  0  0  0
 28 30  1  0  0  0
 30 32  1  0  0  0
 32 33  1  0  0  0
 33 34  1  0  0  0
 34 35  1  0  0  0
 35 36  1  0  0  0
 35 37  1  0  0  0
 37 38  1  0  0  0
  7  8  2  0  0  0
  8  9  1  0  0  0
  9 10  2  0  0  0
 10 11  1  0  0  0
 11 12  1  0  0  0
 11 13  1  0  0  0
 13 14  2  0  0  0
 13  3  1  0  0  0
 19 15  1  0  0  0
 10  5  1  0  0  0
 27 22  1  0  0  0
 38 32  1  0  0  0
  1  2  1  0  0  0
 30 31  1  0  0  0
M  END
> <minimizedAffinity>
-7.92711

> <CNNscore>
0.8131710887

> <CNNaffinity>
7.9528455734

> <CNN_VS>
6.4670243263

> <CNNaffinity_variance>
0.1256693453

$$$$
[H]c1nc(N([H])c2c([H])c([H])c(C(=O)N([H])C3([H])C([H])([H])C([H])([H])N(C([H])([H])[H])C([H])([H])C3([H])[H])c([H])c2OC([H])([H])[H])nc2c1N(C([H])([H])[H])C(=O)[C@@]([H])(C([H])([H])C([H])([H])[H])N2C1([H])C([H])([H])C([H])([H])C([H])([H])C1([H])[H]


 40 44  0  0  0  0  0  0  0  0999 V2000
   55.7801   -4.7687   -8.8665 N   0  0  0  0  0  0  0  0  0  0  0  0
   56.3328   -5.4129   -8.1959 H   0  0  0  0  0  0  0  0  0  0  0  0
   50.8498   -5.3974   -5.5353 C   0  0  0  0  0  0  0  0  0  0  0  0
   52.2707   -5.4562   -5.6619 N   0  0  0  0  0  0  0  0  0  0  0  0
   52.7940   -4.6956   -6.7556 C   0  0  0  0  0  0  0  0  0  0  0  0
   53.9492   -4.9377   -7.3431 N   0  0  0  0  0  0  0  0  0  0  0  0
   54.5173   -4.2827   -8.4015 C   0  0  0  0  0  0  0  0  0  0  0  0
   53.8164   -3.2848   -8.8888 N   0  0  0  0  0  0  0  0  0  0  0  0
   52.6314   -2.9316   -8.3906 C   0  0  0  0  0  0  0  0  0  0  0  0
   52.0913   -3.6164   -7.3229 C   0  0  0  0  0  0  0  0  0  0  0  0
   50.8256   -3.2421   -6.8278 N   0  0  0  0  0  0  0  0  0  0  0  0
   50.0451   -2.1266   -7.3685 C   0  0  0  0  0  0  0  0  0  0  0  0
   50.3477   -4.0275   -5.7505 C   0  0  0  0  0  0  0  0  0  0  0  0
   49.4754   -3.4485   -5.0128 O   0  0  0  0  0  0  0  0  0  0  0  0
   53.2245   -6.1740   -4.9158 C   0  0  0  0  0  0  0  0  0  0  0  0
   54.4857   -5.5720   -4.4990 C   0  0  0  0  0  0  0  0  0  0  0  0
   54.3265   -5.2327   -2.9892 C   0  0  0  0  0  0  0  0  0  0  0  0
   53.7513   -6.5670   -2.5682 C   0  0  0  0  0  0  0  0  0  0  0  0
   52.6633   -6.7774   -3.6493 C   0  0  0  0  0  0  0  0  0  0  0  0
   50.5027   -7.0134   -7.4558 C   0  0  0  0  0  0  0  0  0  0  0  0
   49.9572   -6.3014   -6.2300 C   0  0  0  0  0  0  0  0  0  0  0  0
   56.3929   -4.5034  -10.0929 C   0  0  0  0  0  0  0  0  0  0  0  0
   55.7388   -3.9671  -11.1819 C   0  0  0  0  0  0  0  0  0  0  0  0
   56.4374   -3.7791  -12.3723 C   0  0  0  0  0  0  0  0  0  0  0  0
   57.7638   -4.1038  -12.5234 C   0  0  0  0  0  0  0  0  0  0  0  0
   58.3808   -4.6310  -11.4187 C   0  0  0  0  0  0  0  0  0  0  0  0
   57.7594   -4.8414  -10.2268 C   0  0  0  0  0  0  0  0  0  0  0  0
   58.4184   -3.9339  -13.7856 C   0  0  0  0  0  0  0  0  0  0  0  0
   57.7665   -4.0781  -14.8490 O   0  0  0  0  0  0  0  0  0  0  0  0
   59.7841   -3.6113  -13.8727 N   0  0  0  0  0  0  0  0  0  0  0  0
   60.3488   -3.4729  -13.0100 H   0  0  0  0  0  0  0  0  0  0  0  0
   60.4907   -3.4494  -15.1317 C   0  0  0  0  0  0  0  0  0  0  0  0
   59.9040   -2.4113  -16.0277 C   0  0  0  0  0  0  0  0  0  0  0  0
   60.6476   -2.4808  -17.3442 C   0  0  0  0  0  0  0  0  0  0  0  0
   62.0285   -2.7851  -17.1824 N   0  0  0  0  0  0  0  0  0  0  0  0
   62.3872   -4.1547  -17.4634 C   0  0  0  0  0  0  0  0  0  0  0  0
   62.6020   -2.3882  -15.9271 C   0  0  0  0  0  0  0  0  0  0  0  0
   61.9089   -3.0686  -14.7751 C   0  0  0  0  0  0  0  0  0  0  0  0
   58.4131   -5.3772   -9.1284 O   0  0  0  0  0  0  0  0  0  0  0  0
   59.6978   -5.9209   -9.1868 C   0  0  0  0  0  0  0  0  0  0  0  0
 20 21  1  0  0  0
 21  3  1  0  0  0
  3  4  1  0  0  0
  4 15  1  0  0  0
 15 16  1  0  0  0
 16 17  1  0  0  0
 17 18  1  0  0  0
 18 19  1  0  0  0
  4  5  1  0  0  0
  5  6  2  0  0  0
  6  7  1  0  0  0
  7  1  1  0  0  0
  1 22  1  0  0  0
 22 23  2  0  0  0
 23 24  1  0  0  0
 24 25  2  0  0  0
 25 26  1  0  0  0
 26 27  2  0  0  0
 27 39  1  0  0  0
 39 40  1  0  0  0
 25 28  1  0  0  0
 28 29  2  0  0  0
 28 30  1  0  0  0
 30 32  1  0  0  0
 32 33  1  0  0  0
 33 34  1  0  0  0
 34 35  1  0  0  0
 35 36  1  0  0  0
 35 37  1  0  0  0
 37 38  1  0  0  0
  7  8  2  0  0  0
  8  9  1  0  0  0
  9 10  2  0  0  0
 10 11  1  0  0  0
 11 12  1  0  0  0
 11 13  1  0  0  0
 13 14  2  0  0  0
 13  3  1  0  0  0
 19 15  1  0  0  0
 10  5  1  0  0  0
 27 22  1  0  0  0
 38 32  1  0  0  0
  1  2  1  0  0  0
 30 31  1  0  0  0
M  END
> <minimizedAffinity>
-8.78846

> <CNNscore>
0.6744189858

> <CNNaffinity>
7.6139106750

> <CNN_VS>
5.1349658966

> <CNNaffinity_variance>
0.2139286697

$$$$
[H]c1nc(N([H])c2c([H])c([H])c(C(=O)N([H])C3([H])C([H])([H])C([H])([H])N(C([H])([H])[H])C([H])([H])C3([H])[H])c([H])c2OC([H])([H])[H])nc2c1N(C([H])([H])[H])C(=O)[C@@]([H])(C([H])([H])C([H])([H])[H])N2C1([H])C([H])([H])C([H])([H])C([H])([H])C1([H])[H]


 40 44  0  0  0  0  0  0  0  0999 V2000
   54.8503   -4.1205   -8.8289 N   0  0  0  0  0  0  0  0  0  0  0  0
   54.5477   -3.4144   -9.5905 H   0  0  0  0  0  0  0  0  0  0  0  0
   53.4775   -6.4129   -3.4753 C   0  0  0  0  0  0  0  0  0  0  0  0
   54.3228   -5.6023   -4.2919 N   0  0  0  0  0  0  0  0  0  0  0  0
   53.7160   -5.1662   -5.5125 C   0  0  0  0  0  0  0  0  0  0  0  0
   54.3870   -4.8206   -6.5935 N   0  0  0  0  0  0  0  0  0  0  0  0
   53.8959   -4.4145   -7.8042 C   0  0  0  0  0  0  0  0  0  0  0  0
   52.5867   -4.3636   -7.8930 N   0  0  0  0  0  0  0  0  0  0  0  0
   51.7870   -4.6860   -6.8763 C   0  0  0  0  0  0  0  0  0  0  0  0
   52.3197   -5.0912   -5.6711 C   0  0  0  0  0  0  0  0  0  0  0  0
   51.4555   -5.4515   -4.6171 N   0  0  0  0  0  0  0  0  0  0  0  0
   49.9951   -5.3911   -4.7144 C   0  0  0  0  0  0  0  0  0  0  0  0
   52.1022   -5.8820   -3.4329 C   0  0  0  0  0  0  0  0  0  0  0  0
   51.4009   -5.7638   -2.3679 O   0  0  0  0  0  0  0  0  0  0  0  0
   55.6613   -5.2064   -4.1090 C   0  0  0  0  0  0  0  0  0  0  0  0
   56.0965   -4.4990   -2.9103 C   0  0  0  0  0  0  0  0  0  0  0  0
   56.8330   -5.5491   -2.0301 C   0  0  0  0  0  0  0  0  0  0  0  0
   57.6950   -6.1280   -3.1303 C   0  0  0  0  0  0  0  0  0  0  0  0
   56.6464   -6.3436   -4.2487 C   0  0  0  0  0  0  0  0  0  0  0  0
   54.4559   -8.6892   -2.9447 C   0  0  0  0  0  0  0  0  0  0  0  0
   53.3839   -7.8507   -3.6191 C   0  0  0  0  0  0  0  0  0  0  0  0
   56.1365   -4.6461   -8.9675 C   0  0  0  0  0  0  0  0  0  0  0  0
   56.9175   -5.0627   -7.9102 C   0  0  0  0  0  0  0  0  0  0  0  0
   58.2043   -5.5356   -8.1578 C   0  0  0  0  0  0  0  0  0  0  0  0
   58.7466   -5.6111   -9.4178 C   0  0  0  0  0  0  0  0  0  0  0  0
   57.9395   -5.1914  -10.4432 C   0  0  0  0  0  0  0  0  0  0  0  0
   56.6750   -4.7187  -10.2729 C   0  0  0  0  0  0  0  0  0  0  0  0
   60.0929   -6.0600   -9.6081 C   0  0  0  0  0  0  0  0  0  0  0  0
   60.6486   -5.9054  -10.7234 O   0  0  0  0  0  0  0  0  0  0  0  0
   60.8189   -6.6790   -8.5754 N   0  0  0  0  0  0  0  0  0  0  0  0
   60.3911   -6.8104   -7.6362 H   0  0  0  0  0  0  0  0  0  0  0  0
   62.1786   -7.1662   -8.7319 C   0  0  0  0  0  0  0  0  0  0  0  0
   63.2217   -6.2253   -8.2304 C   0  0  0  0  0  0  0  0  0  0  0  0
   64.5683   -6.8024   -8.6105 C   0  0  0  0  0  0  0  0  0  0  0  0
   64.5986   -8.2237   -8.5418 N   0  0  0  0  0  0  0  0  0  0  0  0
   64.4944   -8.8972   -9.8143 C   0  0  0  0  0  0  0  0  0  0  0  0
   63.6775   -8.8136   -7.6114 C   0  0  0  0  0  0  0  0  0  0  0  0
   62.2543   -8.4643   -7.9623 C   0  0  0  0  0  0  0  0  0  0  0  0
   55.8849   -4.3017  -11.3325 O   0  0  0  0  0  0  0  0  0  0  0  0
   56.3968   -3.9510  -12.5833 C   0  0  0  0  0  0  0  0  0  0  0  0
 20 21  1  0  0  0
 21  3  1  0  0  0
  3  4  1  0  0  0
  4 15  1  0  0  0
 15 16  1  0  0  0
 16 17  1  0  0  0
 17 18  1  0  0  0
 18 19  1  0  0  0
  4  5  1  0  0  0
  5  6  2  0  0  0
  6  7  1  0  0  0
  7  1  1  0  0  0
  1 22  1  0  0  0
 22 23  2  0  0  0
 23 24  1  0  0  0
 24 25  2  0  0  0
 25 26  1  0  0  0
 26 27  2  0  0  0
 27 39  1  0  0  0
 39 40  1  0  0  0
 25 28  1  0  0  0
 28 29  2  0  0  0
 28 30  1  0  0  0
 30 32  1  0  0  0
 32 33  1  0  0  0
 33 34  1  0  0  0
 34 35  1  0  0  0
 35 36  1  0  0  0
 35 37  1  0  0  0
 37 38  1  0  0  0
  7  8  2  0  0  0
  8  9  1  0  0  0
  9 10  2  0  0  0
 10 11  1  0  0  0
 11 12  1  0  0  0
 11 13  1  0  0  0
 13 14  2  0  0  0
 13  3  1  0  0  0
 19 15  1  0  0  0
 10  5  1  0  0  0
 27 22  1  0  0  0
 38 32  1  0  0  0
  1  2  1  0  0  0
 30 31  1  0  0  0
M  END
> <minimizedAffinity>
-7.97674

> <CNNscore>
0.3930553198

> <CNNaffinity>
7.3619155884

> <CNN_VS>
2.8936400414

> <CNNaffinity_variance>
0.1573012173

$$$$
[H]c1nc(N([H])c2c([H])c([H])c(C(=O)N([H])C3([H])C([H])([H])C([H])([H])N(C([H])([H])[H])C([H])([H])C3([H])[H])c([H])c2OC([H])([H])[H])nc2c1N(C([H])([H])[H])C(=O)[C@@]([H])(C([H])([H])C([H])([H])[H])N2C1([H])C([H])([H])C([H])([H])C([H])([H])C1([H])[H]


 40 44  0  0  0  0  0  0  0  0999 V2000
   56.1972   -5.1834  -11.5483 N   0  0  0  0  0  0  0  0  0  0  0  0
   56.0672   -6.2304  -11.7871 H   0  0  0  0  0  0  0  0  0  0  0  0
   52.4823   -5.1430   -6.8582 C   0  0  0  0  0  0  0  0  0  0  0  0
   53.7930   -5.3251   -7.3940 N   0  0  0  0  0  0  0  0  0  0  0  0
   53.9988   -4.7004   -8.6652 C   0  0  0  0  0  0  0  0  0  0  0  0
   54.9077   -5.0809   -9.5412 N   0  0  0  0  0  0  0  0  0  0  0  0
   55.1614   -4.5618  -10.7815 C   0  0  0  0  0  0  0  0  0  0  0  0
   54.3983   -3.5543  -11.1377 N   0  0  0  0  0  0  0  0  0  0  0  0
   53.4398   -3.0683  -10.3489 C   0  0  0  0  0  0  0  0  0  0  0  0
   53.2139   -3.6184   -9.1052 C   0  0  0  0  0  0  0  0  0  0  0  0
   52.1788   -3.1052   -8.2975 N   0  0  0  0  0  0  0  0  0  0  0  0
   51.3297   -1.9788   -8.6929 C   0  0  0  0  0  0  0  0  0  0  0  0
   52.0098   -3.7595   -7.0529 C   0  0  0  0  0  0  0  0  0  0  0  0
   51.4331   -3.0546   -6.1525 O   0  0  0  0  0  0  0  0  0  0  0  0
   54.8897   -6.0535   -6.8956 C   0  0  0  0  0  0  0  0  0  0  0  0
   56.0524   -5.3912   -6.3157 C   0  0  0  0  0  0  0  0  0  0  0  0
   55.9156   -5.5457   -4.7738 C   0  0  0  0  0  0  0  0  0  0  0  0
   55.5929   -7.0237   -4.7726 C   0  0  0  0  0  0  0  0  0  0  0  0
   54.5018   -7.0919   -5.8688 C   0  0  0  0  0  0  0  0  0  0  0  0
   51.6312   -7.1475   -8.1535 C   0  0  0  0  0  0  0  0  0  0  0  0
   51.3758   -6.0265   -7.1609 C   0  0  0  0  0  0  0  0  0  0  0  0
   57.3704   -4.5950  -12.0251 C   0  0  0  0  0  0  0  0  0  0  0  0
   58.5321   -4.4855  -11.2904 C   0  0  0  0  0  0  0  0  0  0  0  0
   59.6348   -3.8438  -11.8497 C   0  0  0  0  0  0  0  0  0  0  0  0
   59.6283   -3.3053  -13.1136 C   0  0  0  0  0  0  0  0  0  0  0  0
   58.4576   -3.4365  -13.8144 C   0  0  0  0  0  0  0  0  0  0  0  0
   57.3441   -4.0501  -13.3296 C   0  0  0  0  0  0  0  0  0  0  0  0
   60.7757   -2.6136  -13.6190 C   0  0  0  0  0  0  0  0  0  0  0  0
   60.8674   -1.3700  -13.4719 O   0  0  0  0  0  0  0  0  0  0  0  0
   61.8124   -3.2899  -14.2859 N   0  0  0  0  0  0  0  0  0  0  0  0
   61.7722   -4.3217  -14.4128 H   0  0  0  0  0  0  0  0  0  0  0  0
   62.9834   -2.6244  -14.8305 C   0  0  0  0  0  0  0  0  0  0  0  0
   64.2730   -3.0849  -14.2393 C   0  0  0  0  0  0  0  0  0  0  0  0
   65.3643   -2.1916  -14.7888 C   0  0  0  0  0  0  0  0  0  0  0  0
   65.1351   -1.8081  -16.1401 N   0  0  0  0  0  0  0  0  0  0  0  0
   64.6226   -0.4701  -16.3148 C   0  0  0  0  0  0  0  0  0  0  0  0
   64.3484   -2.7267  -16.9144 C   0  0  0  0  0  0  0  0  0  0  0  0
   62.9773   -2.9050  -16.3153 C   0  0  0  0  0  0  0  0  0  0  0  0
   56.1752   -4.1654  -14.0652 O   0  0  0  0  0  0  0  0  0  0  0  0
   55.9877   -3.5655  -15.3119 C   0  0  0  0  0  0  0  0  0  0  0  0
 20 21  1  0  0  0
 21  3  1  0  0  0
  3  4  1  0  0  0
  4 15  1  0  0  0
 15 16  1  0  0  0
 16 17  1  0  0  0
 17 18  1  0  0  0
 18 19  1  0  0  0
  4  5  1  0  0  0
  5  6  2  0  0  0
  6  7  1  0  0  0
  7  1  1  0  0  0
  1 22  1  0  0  0
 22 23  2  0  0  0
 23 24  1  0  0  0
 24 25  2  0  0  0
 25 26  1  0  0  0
 26 27  2  0  0  0
 27 39  1  0  0  0
 39 40  1  0  0  0
 25 28  1  0  0  0
 28 29  2  0  0  0
 28 30  1  0  0  0
 30 32  1  0  0  0
 32 33  1  0  0  0
 33 34  1  0  0  0
 34 35  1  0  0  0
 35 36  1  0  0  0
 35 37  1  0  0  0
 37 38  1  0  0  0
  7  8  2  0  0  0
  8  9  1  0  0  0
  9 10  2  0  0  0
 10 11  1  0  0  0
 11 12  1  0  0  0
 11 13  1  0  0  0
 13 14  2  0  0  0
 13  3  1  0  0  0
 19 15  1  0  0  0
 10  5  1  0  0  0
 27 22  1  0  0  0
 38 32  1  0  0  0
  1  2  1  0  0  0
 30 31  1  0  0  0
M  END
> <minimizedAffinity>
-1.27650

> <CNNscore>
0.3915135264

> <CNNaffinity>
6.6853132248

> <CNN_VS>
2.6173906326

> <CNNaffinity_variance>
0.3583059907

$$$$
[H]c1nc(N([H])c2c([H])c([H])c(C(=O)N([H])C3([H])C([H])([H])C([H])([H])N(C([H])([H])[H])C([H])([H])C3([H])[H])c([H])c2OC([H])([H])[H])nc2c1N(C([H])([H])[H])C(=O)[C@@]([H])(C([H])([H])C([H])([H])[H])N2C1([H])C([H])([H])C([H])([H])C([H])([H])C1([H])[H]


 40 44  0  0  0  0  0  0  0  0999 V2000
   60.0608   -7.8981   -5.0544 N   0  0  0  0  0  0  0  0  0  0  0  0
   60.6136   -8.4811   -4.3300 H   0  0  0  0  0  0  0  0  0  0  0  0
   55.7582   -7.2057   -0.9546 C   0  0  0  0  0  0  0  0  0  0  0  0
   57.1420   -7.3267   -1.2844 N   0  0  0  0  0  0  0  0  0  0  0  0
   57.4484   -7.0220   -2.6489 C   0  0  0  0  0  0  0  0  0  0  0  0
   58.5055   -7.4770   -3.2921 N   0  0  0  0  0  0  0  0  0  0  0  0
   58.8666   -7.2586   -4.5937 C   0  0  0  0  0  0  0  0  0  0  0  0
   58.0512   -6.4955   -5.2844 N   0  0  0  0  0  0  0  0  0  0  0  0
   56.9454   -5.9689   -4.7582 C   0  0  0  0  0  0  0  0  0  0  0  0
   56.6147   -6.2121   -3.4421 C   0  0  0  0  0  0  0  0  0  0  0  0
   55.4277   -5.6657   -2.9130 N   0  0  0  0  0  0  0  0  0  0  0  0
   54.5197   -4.8112   -3.6820 C   0  0  0  0  0  0  0  0  0  0  0  0
   55.1646   -6.0001   -1.5622 C   0  0  0  0  0  0  0  0  0  0  0  0
   54.3947   -5.1807   -0.9490 O   0  0  0  0  0  0  0  0  0  0  0  0
   58.2350   -7.7386   -0.4986 C   0  0  0  0  0  0  0  0  0  0  0  0
   59.2215   -8.6916   -0.9936 C   0  0  0  0  0  0  0  0  0  0  0  0
   60.4782   -7.8573   -1.3738 C   0  0  0  0  0  0  0  0  0  0  0  0
   60.5361   -7.0369   -0.1040 C   0  0  0  0  0  0  0  0  0  0  0  0
   59.0604   -6.5881    0.0288 C   0  0  0  0  0  0  0  0  0  0  0  0
   54.2581   -8.9284    0.1420 C   0  0  0  0  0  0  0  0  0  0  0  0
   54.8098   -8.2873   -1.1197 C   0  0  0  0  0  0  0  0  0  0  0  0
   60.6061   -7.8544   -6.3391 C   0  0  0  0  0  0  0  0  0  0  0  0
   60.2138   -6.9610   -7.3135 C   0  0  0  0  0  0  0  0  0  0  0  0
   60.7971   -7.0301   -8.5767 C   0  0  0  0  0  0  0  0  0  0  0  0
   61.7573   -7.9542   -8.9103 C   0  0  0  0  0  0  0  0  0  0  0  0
   62.1238   -8.8229   -7.9153 C   0  0  0  0  0  0  0  0  0  0  0  0
   61.5956   -8.8117   -6.6615 C   0  0  0  0  0  0  0  0  0  0  0  0
   62.2870   -8.0102  -10.2395 C   0  0  0  0  0  0  0  0  0  0  0  0
   61.8424   -8.8587  -11.0513 O   0  0  0  0  0  0  0  0  0  0  0  0
   63.3032   -7.1381  -10.6678 N   0  0  0  0  0  0  0  0  0  0  0  0
   63.6839   -6.4157  -10.0231 H   0  0  0  0  0  0  0  0  0  0  0  0
   63.8816   -7.1739  -12.0001 C   0  0  0  0  0  0  0  0  0  0  0  0
   63.0558   -6.4925  -13.0386 C   0  0  0  0  0  0  0  0  0  0  0  0
   63.7088   -6.7578  -14.3780 C   0  0  0  0  0  0  0  0  0  0  0  0
   65.1298   -6.7868  -14.3030 N   0  0  0  0  0  0  0  0  0  0  0  0
   65.7127   -8.1073  -14.3037 C   0  0  0  0  0  0  0  0  0  0  0  0
   65.7048   -6.0105  -13.2404 C   0  0  0  0  0  0  0  0  0  0  0  0
   65.2272   -6.4944  -11.8957 C   0  0  0  0  0  0  0  0  0  0  0  0
   61.9887   -9.7053   -5.6778 O   0  0  0  0  0  0  0  0  0  0  0  0
   63.1141   -9.5183   -4.8728 C   0  0  0  0  0  0  0  0  0  0  0  0
 20 21  1  0  0  0
 21  3  1  0  0  0
  3  4  1  0  0  0
  4 15  1  0  0  0
 15 16  1  0  0  0
 16 17  1  0  0  0
 17 18  1  0  0  0
 18 19  1  0  0  0
  4  5  1  0  0  0
  5  6  2  0  0  0
  6  7  1  0  0  0
  7  1  1  0  0  0
  1 22  1  0  0  0
 22 23  2  0  0  0
 23 24  1  0  0  0
 24 25  2  0  0  0
 25 26  1  0  0  0
 26 27  2  0  0  0
 27 39  1  0  0  0
 39 40  1  0  0  0
 25 28  1  0  0  0
 28 29  2  0  0  0
 28 30  1  0  0  0
 30 32  1  0  0  0
 32 33  1  0  0  0
 33 34  1  0  0  0
 34 35  1  0  0  0
 35 36  1  0  0  0
 35 37  1  0  0  0
 37 38  1  0  0  0
  7  8  2  0  0  0
  8  9  1  0  0  0
  9 10  2  0  0  0
 10 11  1  0  0  0
 11 12  1  0  0  0
 11 13  1  0  0  0
 13 14  2  0  0  0
 13  3  1  0  0  0
 19 15  1  0  0  0
 10  5  1  0  0  0
 27 22  1  0  0  0
 38 32  1  0  0  0
  1  2  1  0  0  0
 30 31  1  0  0  0
M  END
> <minimizedAffinity>
-0.62640

> <CNNscore>
0.3855249286

> <CNNaffinity>
6.0878582001

> <CNN_VS>
2.3470211029

> <CNNaffinity_variance>
1.6465753317

$$$$
[H]c1nc(N([H])c2c([H])c([H])c(C(=O)N([H])C3([H])C([H])([H])C([H])([H])N(C([H])([H])[H])C([H])([H])C3([H])[H])c([H])c2OC([H])([H])[H])nc2c1N(C([H])([H])[H])C(=O)[C@@]([H])(C([H])([H])C([H])([H])[H])N2C1([H])C([H])([H])C([H])([H])C([H])([H])C1([H])[H]


 40 44  0  0  0  0  0  0  0  0999 V2000
   57.9698   -5.9038   -4.5108 N   0  0  0  0  0  0  0  0  0  0  0  0
   58.1327   -4.8442   -4.6557 H   0  0  0  0  0  0  0  0  0  0  0  0
   62.1491  -10.1569   -4.0167 C   0  0  0  0  0  0  0  0  0  0  0  0
   60.8581   -9.6489   -3.6798 N   0  0  0  0  0  0  0  0  0  0  0  0
   60.3507   -8.6790   -4.6019 C   0  0  0  0  0  0  0  0  0  0  0  0
   59.4490   -7.7662   -4.2984 N   0  0  0  0  0  0  0  0  0  0  0  0
   58.9239   -6.7912   -5.1019 C   0  0  0  0  0  0  0  0  0  0  0  0
   59.3807   -6.7687   -6.3329 N   0  0  0  0  0  0  0  0  0  0  0  0
   60.2944   -7.6337   -6.7734 C   0  0  0  0  0  0  0  0  0  0  0  0
   60.8003   -8.6025   -5.9332 C   0  0  0  0  0  0  0  0  0  0  0  0
   61.7842   -9.4911   -6.4125 N   0  0  0  0  0  0  0  0  0  0  0  0
   62.2912   -9.4689   -7.7866 C   0  0  0  0  0  0  0  0  0  0  0  0
   62.2594  -10.4276   -5.4622 C   0  0  0  0  0  0  0  0  0  0  0  0
   62.7689  -11.4889   -5.9665 O   0  0  0  0  0  0  0  0  0  0  0  0
   60.0335   -9.9150   -2.5703 C   0  0  0  0  0  0  0  0  0  0  0  0
   60.5492   -9.8916   -1.2064 C   0  0  0  0  0  0  0  0  0  0  0  0
   60.0678   -8.5499   -0.5835 C   0  0  0  0  0  0  0  0  0  0  0  0
   58.6258   -8.6561   -1.0287 C   0  0  0  0  0  0  0  0  0  0  0  0
   58.8009   -9.0427   -2.5175 C   0  0  0  0  0  0  0  0  0  0  0  0
   63.5950   -8.0761   -4.0123 C   0  0  0  0  0  0  0  0  0  0  0  0
   63.3813   -9.5218   -3.5983 C   0  0  0  0  0  0  0  0  0  0  0  0
   56.8454   -6.2458   -3.7567 C   0  0  0  0  0  0  0  0  0  0  0  0
   56.7429   -6.0555   -2.3949 C   0  0  0  0  0  0  0  0  0  0  0  0
   55.5890   -6.4697   -1.7334 C   0  0  0  0  0  0  0  0  0  0  0  0
   54.5303   -7.0670   -2.3737 C   0  0  0  0  0  0  0  0  0  0  0  0
   54.6673   -7.2362   -3.7271 C   0  0  0  0  0  0  0  0  0  0  0  0
   55.7651   -6.8560   -4.4352 C   0  0  0  0  0  0  0  0  0  0  0  0
   53.3892   -7.5169   -1.6350 C   0  0  0  0  0  0  0  0  0  0  0  0
   53.1440   -7.0230   -0.5069 O   0  0  0  0  0  0  0  0  0  0  0  0
   52.5274   -8.5080   -2.1366 N   0  0  0  0  0  0  0  0  0  0  0  0
   52.6961   -8.9280   -3.0733 H   0  0  0  0  0  0  0  0  0  0  0  0
   51.3710   -9.0064   -1.4120 C   0  0  0  0  0  0  0  0  0  0  0  0
   50.4843   -7.9347   -0.8735 C   0  0  0  0  0  0  0  0  0  0  0  0
   49.4317   -8.6085   -0.0197 C   0  0  0  0  0  0  0  0  0  0  0  0
   49.0256   -9.8703   -0.5381 N   0  0  0  0  0  0  0  0  0  0  0  0
   49.6016  -11.0153    0.1258 C   0  0  0  0  0  0  0  0  0  0  0  0
   49.1612  -10.0229   -1.9595 C   0  0  0  0  0  0  0  0  0  0  0  0
   50.5971   -9.8625   -2.3873 C   0  0  0  0  0  0  0  0  0  0  0  0
   55.8717   -7.0422   -5.8044 O   0  0  0  0  0  0  0  0  0  0  0  0
   54.7713   -7.2204   -6.6451 C   0  0  0  0  0  0  0  0  0  0  0  0
 20 21  1  0  0  0
 21  3  1  0  0  0
  3  4  1  0  0  0
  4 15  1  0  0  0
 15 16  1  0  0  0
 16 17  1  0  0  0
 17 18  1  0  0  0
 18 19  1  0  0  0
  4  5  1  0  0  0
  5  6  2  0  0  0
  6  7  1  0  0  0
  7  1  1  0  0  0
  1 22  1  0  0  0
 22 23  2  0  0  0
 23 24  1  0  0  0
 24 25  2  0  0  0
 25 26  1  0  0  0
 26 27  2  0  0  0
 27 39  1  0  0  0
 39 40  1  0  0  0
 25 28  1  0  0  0
 28 29  2  0  0  0
 28 30  1  0  0  0
 30 32  1  0  0  0
 32 33  1  0  0  0
 33 34  1  0  0  0
 34 35  1  0  0  0
 35 36  1  0  0  0
 35 37  1  0  0  0
 37 38  1  0  0  0
  7  8  2  0  0  0
  8  9  1  0  0  0
  9 10  2  0  0  0
 10 11  1  0  0  0
 11 12  1  0  0  0
 11 13  1  0  0  0
 13 14  2  0  0  0
 13  3  1  0  0  0
 19 15  1  0  0  0
 10  5  1  0  0  0
 27 22  1  0  0  0
 38 32  1  0  0  0
  1  2  1  0  0  0
 30 31  1  0  0  0
M  END
> <minimizedAffinity>
3.26744

> <CNNscore>
0.3399033844

> <CNNaffinity>
6.1793799400

> <CNN_VS>
2.1003921032

> <CNNaffinity_variance>
1.3045041561

$$$$
[H]c1nc(N([H])c2c([H])c([H])c(C(=O)N([H])C3([H])C([H])([H])C([H])([H])N(C([H])([H])[H])C([H])([H])C3([H])[H])c([H])c2OC([H])([H])[H])nc2c1N(C([H])([H])[H])C(=O)[C@@]([H])(C([H])([H])C([H])([H])[H])N2C1([H])C([H])([H])C([H])([H])C([H])([H])C1([H])[H]


 40 44  0  0  0  0  0  0  0  0999 V2000
   54.5747   -4.0619  -10.9929 N   0  0  0  0  0  0  0  0  0  0  0  0
   53.7092   -3.8090  -11.5906 H   0  0  0  0  0  0  0  0  0  0  0  0
   57.9870   -3.7771  -15.8994 C   0  0  0  0  0  0  0  0  0  0  0  0
   56.8236   -3.3704  -15.1789 N   0  0  0  0  0  0  0  0  0  0  0  0
   56.9104   -3.5698  -13.7642 C   0  0  0  0  0  0  0  0  0  0  0  0
   55.8684   -3.7072  -12.9682 N   0  0  0  0  0  0  0  0  0  0  0  0
   55.8545   -3.9217  -11.6170 C   0  0  0  0  0  0  0  0  0  0  0  0
   57.0347   -3.9980  -11.0462 N   0  0  0  0  0  0  0  0  0  0  0  0
   58.1711   -3.8770  -11.7326 C   0  0  0  0  0  0  0  0  0  0  0  0
   58.1444   -3.6616  -13.0940 C   0  0  0  0  0  0  0  0  0  0  0  0
   59.3580   -3.5615  -13.8041 N   0  0  0  0  0  0  0  0  0  0  0  0
   60.6748   -3.6428  -13.1673 C   0  0  0  0  0  0  0  0  0  0  0  0
   59.2208   -3.3711  -15.2008 C   0  0  0  0  0  0  0  0  0  0  0  0
   60.2332   -2.8298  -15.7683 O   0  0  0  0  0  0  0  0  0  0  0  0
   55.5989   -2.8518  -15.6406 C   0  0  0  0  0  0  0  0  0  0  0  0
   55.5152   -1.5584  -16.3089 C   0  0  0  0  0  0  0  0  0  0  0  0
   55.3613   -1.8634  -17.8266 C   0  0  0  0  0  0  0  0  0  0  0  0
   54.2759   -2.9080  -17.6873 C   0  0  0  0  0  0  0  0  0  0  0  0
   54.8581   -3.7948  -16.5598 C   0  0  0  0  0  0  0  0  0  0  0  0
   58.6122   -5.2956  -17.8291 C   0  0  0  0  0  0  0  0  0  0  0  0
   58.1852   -5.1282  -16.3811 C   0  0  0  0  0  0  0  0  0  0  0  0
   54.3073   -4.4851   -9.6893 C   0  0  0  0  0  0  0  0  0  0  0  0
   53.8237   -5.7359   -9.3684 C   0  0  0  0  0  0  0  0  0  0  0  0
   53.5539   -6.0415   -8.0363 C   0  0  0  0  0  0  0  0  0  0  0  0
   53.7464   -5.1508   -7.0082 C   0  0  0  0  0  0  0  0  0  0  0  0
   54.2312   -3.9195   -7.3655 C   0  0  0  0  0  0  0  0  0  0  0  0
   54.5155   -3.5547   -8.6451 C   0  0  0  0  0  0  0  0  0  0  0  0
   53.4056   -5.5032   -5.6628 C   0  0  0  0  0  0  0  0  0  0  0  0
   52.2002   -5.6546   -5.3455 O   0  0  0  0  0  0  0  0  0  0  0  0
   54.3887   -5.6830   -4.6739 N   0  0  0  0  0  0  0  0  0  0  0  0
   55.3969   -5.5771   -4.9078 H   0  0  0  0  0  0  0  0  0  0  0  0
   54.0853   -6.0214   -3.2940 C   0  0  0  0  0  0  0  0  0  0  0  0
   54.1590   -4.8645   -2.3553 C   0  0  0  0  0  0  0  0  0  0  0  0
   53.9788   -5.4094   -0.9548 C   0  0  0  0  0  0  0  0  0  0  0  0
   53.0598   -6.4948   -0.8991 N   0  0  0  0  0  0  0  0  0  0  0  0
   53.6658   -7.8016   -0.8069 C   0  0  0  0  0  0  0  0  0  0  0  0
   52.0569   -6.5040   -1.9269 C   0  0  0  0  0  0  0  0  0  0  0  0
   52.6833   -6.5851   -3.2949 C   0  0  0  0  0  0  0  0  0  0  0  0
   55.0047   -2.3000   -8.9725 O   0  0  0  0  0  0  0  0  0  0  0  0
   54.3338   -1.1113   -8.6785 C   0  0  0  0  0  0  0  0  0  0  0  0
 20 21  1  0  0  0
 21  3  1  0  0  0
  3  4  1  0  0  0
  4 15  1  0  0  0
 15 16  1  0  0  0
 16 17  1  0  0  0
 17 18  1  0  0  0
 18 19  1  0  0  0
  4  5  1  0  0  0
  5  6  2  0  0  0
  6  7  1  0  0  0
  7  1  1  0  0  0
  1 22  1  0  0  0
 22 23  2  0  0  0
 23 24  1  0  0  0
 24 25  2  0  0  0
 25 26  1  0  0  0
 26 27  2  0  0  0
 27 39  1  0  0  0
 39 40  1  0  0  0
 25 28  1  0  0  0
 28 29  2  0  0  0
 28 30  1  0  0  0
 30 32  1  0  0  0
 32 33  1  0  0  0
 33 34  1  0  0  0
 34 35  1  0  0  0
 35 36  1  0  0  0
 35 37  1  0  0  0
 37 38  1  0  0  0
  7  8  2  0  0  0
  8  9  1  0  0  0
  9 10  2  0  0  0
 10 11  1  0  0  0
 11 12  1  0  0  0
 11 13  1  0  0  0
 13 14  2  0  0  0
 13  3  1  0  0  0
 19 15  1  0  0  0
 10  5  1  0  0  0
 27 22  1  0  0  0
 38 32  1  0  0  0
  1  2  1  0  0  0
 30 31  1  0  0  0
M  END
> <minimizedAffinity>
3.31217

> <CNNscore>
0.3126228154

> <CNNaffinity>
6.4201555252

> <CNN_VS>
2.0070869923

> <CNNaffinity_variance>
0.3257919550

$$$$
[H]c1nc(N([H])c2c([H])c(OC([H])([H])[H])c(OC([H])([H])[H])c(OC([H])([H])[H])c2[H])nc(N([H])c2nc3c(c([H])c2[H])OC(C([H])([H])[H])(C([H])([H])[H])C(=O)N3[H])c1F


 37 40  0  0  0  0  0  0  0  0999 V2000
   53.0537   -3.3783   -9.1939 C   0  0  0  0  0  0  0  0  0  0  0  0
   52.4988   -2.1819   -8.9657 N   0  0  0  0  0  0  0  0  0  0  0  0
   51.5233   -1.9412   -8.0872 C   0  0  0  0  0  0  0  0  0  0  0  0
   51.0359   -2.9781   -7.3516 C   0  0  0  0  0  0  0  0  0  0  0  0
   50.0604   -2.8741   -6.4381 F   0  0  0  0  0  0  0  0  0  0  0  0
   51.5760   -4.2593   -7.5438 C   0  0  0  0  0  0  0  0  0  0  0  0
   52.5507   -4.3958   -8.4483 N   0  0  0  0  0  0  0  0  0  0  0  0
   54.0811   -3.6632  -10.1108 N   0  0  0  0  0  0  0  0  0  0  0  0
   53.8176   -3.5327  -11.1414 H   0  0  0  0  0  0  0  0  0  0  0  0
   57.6761   -4.6984  -10.2775 C   0  0  0  0  0  0  0  0  0  0  0  0
   56.4082   -4.2403  -10.6635 C   0  0  0  0  0  0  0  0  0  0  0  0
   55.3836   -4.0955   -9.7994 C   0  0  0  0  0  0  0  0  0  0  0  0
   55.6464   -4.4315   -8.4561 C   0  0  0  0  0  0  0  0  0  0  0  0
   56.8739   -4.8817   -8.0452 C   0  0  0  0  0  0  0  0  0  0  0  0
   57.9054   -5.0211   -8.9520 C   0  0  0  0  0  0  0  0  0  0  0  0
   58.6470   -4.0064  -12.3665 C   0  0  0  0  0  0  0  0  0  0  0  0
   58.6750   -4.8201  -11.2246 O   0  0  0  0  0  0  0  0  0  0  0  0
   57.0923   -5.1987   -6.7305 O   0  0  0  0  0  0  0  0  0  0  0  0
   56.2395   -4.6656   -5.7389 C   0  0  0  0  0  0  0  0  0  0  0  0
   59.1699   -5.4748   -8.5827 O   0  0  0  0  0  0  0  0  0  0  0  0
   59.7418   -6.5390   -9.3319 C   0  0  0  0  0  0  0  0  0  0  0  0
   51.0895   -5.3575   -6.7934 N   0  0  0  0  0  0  0  0  0  0  0  0
   50.3190   -5.9234   -7.1739 H   0  0  0  0  0  0  0  0  0  0  0  0
   51.6754   -5.6499   -5.5371 C   0  0  0  0  0  0  0  0  0  0  0  0
   51.0220   -5.2990   -4.3465 C   0  0  0  0  0  0  0  0  0  0  0  0
   51.6025   -5.5890   -3.1336 C   0  0  0  0  0  0  0  0  0  0  0  0
   52.8221   -6.2222   -3.0638 C   0  0  0  0  0  0  0  0  0  0  0  0
   53.4361   -6.5296   -1.8579 O   0  0  0  0  0  0  0  0  0  0  0  0
   54.8346   -6.7506   -1.7578 C   0  0  0  0  0  0  0  0  0  0  0  0
   55.1489   -7.5660   -0.5362 C   0  0  0  0  0  0  0  0  0  0  0  0
   55.5633   -5.4330   -1.7296 C   0  0  0  0  0  0  0  0  0  0  0  0
   55.3176   -7.5209   -2.9443 C   0  0  0  0  0  0  0  0  0  0  0  0
   56.2242   -8.4021   -2.8194 O   0  0  0  0  0  0  0  0  0  0  0  0
   54.7220   -7.2219   -4.1922 N   0  0  0  0  0  0  0  0  0  0  0  0
   53.4640   -6.5673   -4.2524 C   0  0  0  0  0  0  0  0  0  0  0  0
   52.8582   -6.2635   -5.4120 N   0  0  0  0  0  0  0  0  0  0  0  0
   55.2190   -7.4884   -5.0618 H   0  0  0  0  0  0  0  0  0  0  0  0
 16 17  1  0  0  0
 17 10  1  0  0  0
 10 11  2  0  0  0
 11 12  1  0  0  0
 12  8  1  0  0  0
  8  1  1  0  0  0
  1  2  2  0  0  0
  2  3  1  0  0  0
  3  4  2  0  0  0
  4  5  1  0  0  0
  4  6  1  0  0  0
  6 22  1  0  0  0
 22 24  1  0  0  0
 24 25  2  0  0  0
 25 26  1  0  0  0
 26 27  2  0  0  0
 27 28  1  0  0  0
 28 29  1  0  0  0
 29 30  1  0  0  0
 29 31  1  0  0  0
 29 32  1  0  0  0
 32 33  2  0  0  0
 32 34  1  0  0  0
 34 35  1  0  0  0
 35 36  2  0  0  0
  6  7  2  0  0  0
 12 13  2  0  0  0
 13 14  1  0  0  0
 14 18  1  0  0  0
 18 19  1  0  0  0
 14 15  2  0  0  0
 15 20  1  0  0  0
 20 21  1  0  0  0
 15 10  1  0  0  0
  7  1  1  0  0  0
 36 24  1  0  0  0
 35 27  1  0  0  0
  8  9  1  0  0  0
 22 23  1  0  0  0
 34 37  1  0  0  0
M  END
> <minimizedAffinity>
-9.54921

> <CNNscore>
0.7188952565

> <CNNaffinity>
7.5959396362

> <CNN_VS>
5.4606847763

> <CNNaffinity_variance>
0.1312791705

$$$$
[H]c1nc(N([H])c2c([H])c(OC([H])([H])[H])c(OC([H])([H])[H])c(OC([H])([H])[H])c2[H])nc(N([H])c2nc3c(c([H])c2[H])OC(C([H])([H])[H])(C([H])([H])[H])C(=O)N3[H])c1F


 37 40  0  0  0  0  0  0  0  0999 V2000
   58.4898   -5.3454  -10.0076 C   0  0  0  0  0  0  0  0  0  0  0  0
   58.8976   -5.1497  -11.2673 N   0  0  0  0  0  0  0  0  0  0  0  0
   58.2632   -4.4042  -12.1745 C   0  0  0  0  0  0  0  0  0  0  0  0
   57.1063   -3.7823  -11.8156 C   0  0  0  0  0  0  0  0  0  0  0  0
   56.3727   -3.0074  -12.6270 F   0  0  0  0  0  0  0  0  0  0  0  0
   56.6246   -3.9476  -10.5077 C   0  0  0  0  0  0  0  0  0  0  0  0
   57.3341   -4.7149   -9.6742 N   0  0  0  0  0  0  0  0  0  0  0  0
   59.1352   -6.1234   -9.0302 N   0  0  0  0  0  0  0  0  0  0  0  0
   58.5413   -6.3511   -8.1676 H   0  0  0  0  0  0  0  0  0  0  0  0
   62.8630   -6.4633   -8.9229 C   0  0  0  0  0  0  0  0  0  0  0  0
   61.5779   -5.9108   -8.8251 C   0  0  0  0  0  0  0  0  0  0  0  0
   60.4547   -6.6094   -9.0853 C   0  0  0  0  0  0  0  0  0  0  0  0
   60.6299   -7.9542   -9.4692 C   0  0  0  0  0  0  0  0  0  0  0  0
   61.8711   -8.5254   -9.5743 C   0  0  0  0  0  0  0  0  0  0  0  0
   63.0048   -7.7860   -9.3023 C   0  0  0  0  0  0  0  0  0  0  0  0
   64.3717   -5.5149   -7.3074 C   0  0  0  0  0  0  0  0  0  0  0  0
   63.9657   -5.6801   -8.6396 O   0  0  0  0  0  0  0  0  0  0  0  0
   62.0023   -9.8362   -9.9503 O   0  0  0  0  0  0  0  0  0  0  0  0
   62.0149  -10.8427   -8.9596 C   0  0  0  0  0  0  0  0  0  0  0  0
   64.2876   -8.3219   -9.3953 O   0  0  0  0  0  0  0  0  0  0  0  0
   64.9514   -8.2491  -10.6502 C   0  0  0  0  0  0  0  0  0  0  0  0
   55.4240   -3.3133  -10.1052 N   0  0  0  0  0  0  0  0  0  0  0  0
   55.1117   -2.4684  -10.6025 H   0  0  0  0  0  0  0  0  0  0  0  0
   54.6826   -3.8573   -9.0276 C   0  0  0  0  0  0  0  0  0  0  0  0
   55.2150   -4.8942   -8.2472 C   0  0  0  0  0  0  0  0  0  0  0  0
   54.4841   -5.4131   -7.2038 C   0  0  0  0  0  0  0  0  0  0  0  0
   53.2298   -4.9313   -6.9072 C   0  0  0  0  0  0  0  0  0  0  0  0
   52.4654   -5.4314   -5.8625 O   0  0  0  0  0  0  0  0  0  0  0  0
   51.0542   -5.2848   -5.8225 C   0  0  0  0  0  0  0  0  0  0  0  0
   50.5557   -5.4071   -4.4109 C   0  0  0  0  0  0  0  0  0  0  0  0
   50.4047   -6.3093   -6.7150 C   0  0  0  0  0  0  0  0  0  0  0  0
   50.6659   -3.9285   -6.3163 C   0  0  0  0  0  0  0  0  0  0  0  0
   49.7015   -3.2964   -5.7832 O   0  0  0  0  0  0  0  0  0  0  0  0
   51.4164   -3.3950   -7.3905 N   0  0  0  0  0  0  0  0  0  0  0  0
   52.7088   -3.9006   -7.6882 C   0  0  0  0  0  0  0  0  0  0  0  0
   53.4597   -3.4265   -8.6960 N   0  0  0  0  0  0  0  0  0  0  0  0
   51.0073   -2.6292   -7.9565 H   0  0  0  0  0  0  0  0  0  0  0  0
 16 17  1  0  0  0
 17 10  1  0  0  0
 10 11  2  0  0  0
 11 12  1  0  0  0
 12  8  1  0  0  0
  8  1  1  0  0  0
  1  2  2  0  0  0
  2  3  1  0  0  0
  3  4  2  0  0  0
  4  5  1  0  0  0
  4  6  1  0  0  0
  6 22  1  0  0  0
 22 24  1  0  0  0
 24 25  2  0  0  0
 25 26  1  0  0  0
 26 27  2  0  0  0
 27 28  1  0  0  0
 28 29  1  0  0  0
 29 30  1  0  0  0
 29 31  1  0  0  0
 29 32  1  0  0  0
 32 33  2  0  0  0
 32 34  1  0  0  0
 34 35  1  0  0  0
 35 36  2  0  0  0
  6  7  2  0  0  0
 12 13  2  0  0  0
 13 14  1  0  0  0
 14 18  1  0  0  0
 18 19  1  0  0  0
 14 15  2  0  0  0
 15 20  1  0  0  0
 20 21  1  0  0  0
 15 10  1  0  0  0
  7  1  1  0  0  0
 36 24  1  0  0  0
 35 27  1  0  0  0
  8  9  1  0  0  0
 22 23  1  0  0  0
 34 37  1  0  0  0
M  END
> <minimizedAffinity>
-8.85372

> <CNNscore>
0.7073808312

> <CNNaffinity>
7.0269455910

> <CNN_VS>
4.9707264900

> <CNNaffinity_variance>
0.1321214139

$$$$
[H]c1nc(N([H])c2c([H])c(OC([H])([H])[H])c(OC([H])([H])[H])c(OC([H])([H])[H])c2[H])nc(N([H])c2nc3c(c([H])c2[H])OC(C([H])([H])[H])(C([H])([H])[H])C(=O)N3[H])c1F


 37 40  0  0  0  0  0  0  0  0999 V2000
   58.4080   -5.3520   -9.9735 C   0  0  0  0  0  0  0  0  0  0  0  0
   58.7131   -5.2642  -11.2737 N   0  0  0  0  0  0  0  0  0  0  0  0
   58.0225   -4.5703  -12.1809 C   0  0  0  0  0  0  0  0  0  0  0  0
   56.9151   -3.8885  -11.7778 C   0  0  0  0  0  0  0  0  0  0  0  0
   56.1345   -3.1552  -12.5839 F   0  0  0  0  0  0  0  0  0  0  0  0
   56.5412   -3.9403  -10.4259 C   0  0  0  0  0  0  0  0  0  0  0  0
   57.2998   -4.6636   -9.5964 N   0  0  0  0  0  0  0  0  0  0  0  0
   59.1146   -6.0732   -8.9948 N   0  0  0  0  0  0  0  0  0  0  0  0
   58.6185   -6.1588   -8.0488 H   0  0  0  0  0  0  0  0  0  0  0  0
   61.9234   -8.4511   -9.6880 C   0  0  0  0  0  0  0  0  0  0  0  0
   60.6296   -7.9203   -9.5840 C   0  0  0  0  0  0  0  0  0  0  0  0
   60.3801   -6.6698   -9.1467 C   0  0  0  0  0  0  0  0  0  0  0  0
   61.5032   -5.8967   -8.7898 C   0  0  0  0  0  0  0  0  0  0  0  0
   62.7809   -6.3842   -8.8797 C   0  0  0  0  0  0  0  0  0  0  0  0
   63.0072   -7.6693   -9.3303 C   0  0  0  0  0  0  0  0  0  0  0  0
   62.1653  -10.7987   -9.2238 C   0  0  0  0  0  0  0  0  0  0  0  0
   62.0959   -9.7437  -10.1451 O   0  0  0  0  0  0  0  0  0  0  0  0
   63.8484   -5.6030   -8.5237 O   0  0  0  0  0  0  0  0  0  0  0  0
   64.3629   -5.6902   -7.2113 C   0  0  0  0  0  0  0  0  0  0  0  0
   64.2870   -8.2095   -9.4388 O   0  0  0  0  0  0  0  0  0  0  0  0
   64.9863   -8.0272  -10.6630 C   0  0  0  0  0  0  0  0  0  0  0  0
   55.3941   -3.2415   -9.9768 N   0  0  0  0  0  0  0  0  0  0  0  0
   55.1522   -2.3414  -10.4125 H   0  0  0  0  0  0  0  0  0  0  0  0
   54.6079   -3.7988   -8.9384 C   0  0  0  0  0  0  0  0  0  0  0  0
   55.0785   -4.8918   -8.1957 C   0  0  0  0  0  0  0  0  0  0  0  0
   54.3046   -5.4230   -7.1901 C   0  0  0  0  0  0  0  0  0  0  0  0
   53.0669   -4.8991   -6.8953 C   0  0  0  0  0  0  0  0  0  0  0  0
   52.2603   -5.4101   -5.8882 O   0  0  0  0  0  0  0  0  0  0  0  0
   50.8563   -5.2027   -5.8675 C   0  0  0  0  0  0  0  0  0  0  0  0
   50.3245   -5.3646   -4.4721 C   0  0  0  0  0  0  0  0  0  0  0  0
   50.1808   -6.1568   -6.8168 C   0  0  0  0  0  0  0  0  0  0  0  0
   50.5379   -3.8099   -6.3070 C   0  0  0  0  0  0  0  0  0  0  0  0
   49.5914   -3.1595   -5.7637 O   0  0  0  0  0  0  0  0  0  0  0  0
   51.3326   -3.2637   -7.3422 N   0  0  0  0  0  0  0  0  0  0  0  0
   52.6074   -3.8128   -7.6386 C   0  0  0  0  0  0  0  0  0  0  0  0
   53.3986   -3.3288   -8.6102 N   0  0  0  0  0  0  0  0  0  0  0  0
   50.9689   -2.4563   -7.8807 H   0  0  0  0  0  0  0  0  0  0  0  0
 16 17  1  0  0  0
 17 10  1  0  0  0
 10 11  2  0  0  0
 11 12  1  0  0  0
 12  8  1  0  0  0
  8  1  1  0  0  0
  1  2  2  0  0  0
  2  3  1  0  0  0
  3  4  2  0  0  0
  4  5  1  0  0  0
  4  6  1  0  0  0
  6 22  1  0  0  0
 22 24  1  0  0  0
 24 25  2  0  0  0
 25 26  1  0  0  0
 26 27  2  0  0  0
 27 28  1  0  0  0
 28 29  1  0  0  0
 29 30  1  0  0  0
 29 31  1  0  0  0
 29 32  1  0  0  0
 32 33  2  0  0  0
 32 34  1  0  0  0
 34 35  1  0  0  0
 35 36  2  0  0  0
  6  7  2  0  0  0
 12 13  2  0  0  0
 13 14  1  0  0  0
 14 18  1  0  0  0
 18 19  1  0  0  0
 14 15  2  0  0  0
 15 20  1  0  0  0
 20 21  1  0  0  0
 15 10  1  0  0  0
  7  1  1  0  0  0
 36 24  1  0  0  0
 35 27  1  0  0  0
  8  9  1  0  0  0
 22 23  1  0  0  0
 34 37  1  0  0  0
M  END
> <minimizedAffinity>
-8.81056

> <CNNscore>
0.7014995813

> <CNNaffinity>
7.0488481522

> <CNN_VS>
4.9447641373

> <CNNaffinity_variance>
0.1417994797

$$$$
[H]c1nc(N([H])c2c([H])c(OC([H])([H])[H])c(OC([H])([H])[H])c(OC([H])([H])[H])c2[H])nc(N([H])c2nc3c(c([H])c2[H])OC(C([H])([H])[H])(C([H])([H])[H])C(=O)N3[H])c1F


 37 40  0  0  0  0  0  0  0  0999 V2000
   52.9307   -3.1503   -8.8344 C   0  0  0  0  0  0  0  0  0  0  0  0
   53.2282   -3.3639  -10.1217 N   0  0  0  0  0  0  0  0  0  0  0  0
   54.4380   -3.6776  -10.5901 C   0  0  0  0  0  0  0  0  0  0  0  0
   55.4693   -3.7958   -9.7091 C   0  0  0  0  0  0  0  0  0  0  0  0
   56.7295   -4.1049  -10.0458 F   0  0  0  0  0  0  0  0  0  0  0  0
   55.2228   -3.5840   -8.3436 C   0  0  0  0  0  0  0  0  0  0  0  0
   53.9756   -3.2741   -7.9759 N   0  0  0  0  0  0  0  0  0  0  0  0
   51.6684   -2.8192   -8.3109 N   0  0  0  0  0  0  0  0  0  0  0  0
   51.1372   -2.0627   -8.8532 H   0  0  0  0  0  0  0  0  0  0  0  0
   50.6308   -5.0972   -5.5256 C   0  0  0  0  0  0  0  0  0  0  0  0
   51.2910   -4.6046   -6.6605 C   0  0  0  0  0  0  0  0  0  0  0  0
   51.0644   -3.3767   -7.1686 C   0  0  0  0  0  0  0  0  0  0  0  0
   50.1120   -2.5869   -6.4936 C   0  0  0  0  0  0  0  0  0  0  0  0
   49.4492   -3.0373   -5.3819 C   0  0  0  0  0  0  0  0  0  0  0  0
   49.7005   -4.2999   -4.8835 C   0  0  0  0  0  0  0  0  0  0  0  0
   52.2526   -6.7321   -4.8312 C   0  0  0  0  0  0  0  0  0  0  0  0
   50.9188   -6.3685   -5.0669 O   0  0  0  0  0  0  0  0  0  0  0  0
   48.5296   -2.2408   -4.7520 O   0  0  0  0  0  0  0  0  0  0  0  0
   47.2027   -2.7007   -4.6020 C   0  0  0  0  0  0  0  0  0  0  0  0
   49.0522   -4.8022   -3.7570 O   0  0  0  0  0  0  0  0  0  0  0  0
   49.8462   -5.1511   -2.6307 C   0  0  0  0  0  0  0  0  0  0  0  0
   56.2755   -3.6999   -7.4033 N   0  0  0  0  0  0  0  0  0  0  0  0
   57.1296   -3.1415   -7.5347 H   0  0  0  0  0  0  0  0  0  0  0  0
   56.1270   -4.5822   -6.3049 C   0  0  0  0  0  0  0  0  0  0  0  0
   55.9654   -5.9599   -6.5135 C   0  0  0  0  0  0  0  0  0  0  0  0
   55.8222   -6.8052   -5.4377 C   0  0  0  0  0  0  0  0  0  0  0  0
   55.8345   -6.3223   -4.1493 C   0  0  0  0  0  0  0  0  0  0  0  0
   55.6927   -7.1461   -3.0416 O   0  0  0  0  0  0  0  0  0  0  0  0
   55.2559   -6.6522   -1.7847 C   0  0  0  0  0  0  0  0  0  0  0  0
   55.6965   -7.5701   -0.6805 C   0  0  0  0  0  0  0  0  0  0  0  0
   53.7586   -6.4906   -1.7873 C   0  0  0  0  0  0  0  0  0  0  0  0
   55.8652   -5.3130   -1.5209 C   0  0  0  0  0  0  0  0  0  0  0  0
   56.2303   -4.9869   -0.3486 O   0  0  0  0  0  0  0  0  0  0  0  0
   56.0112   -4.4428   -2.6267 N   0  0  0  0  0  0  0  0  0  0  0  0
   55.9958   -4.9516   -3.9516 C   0  0  0  0  0  0  0  0  0  0  0  0
   56.1317   -4.1664   -5.0328 N   0  0  0  0  0  0  0  0  0  0  0  0
   56.1295   -3.4277   -2.4539 H   0  0  0  0  0  0  0  0  0  0  0  0
 16 17  1  0  0  0
 17 10  1  0  0  0
 10 11  2  0  0  0
 11 12  1  0  0  0
 12  8  1  0  0  0
  8  1  1  0  0  0
  1  2  2  0  0  0
  2  3  1  0  0  0
  3  4  2  0  0  0
  4  5  1  0  0  0
  4  6  1  0  0  0
  6 22  1  0  0  0
 22 24  1  0  0  0
 24 25  2  0  0  0
 25 26  1  0  0  0
 26 27  2  0  0  0
 27 28  1  0  0  0
 28 29  1  0  0  0
 29 30  1  0  0  0
 29 31  1  0  0  0
 29 32  1  0  0  0
 32 33  2  0  0  0
 32 34  1  0  0  0
 34 35  1  0  0  0
 35 36  2  0  0  0
  6  7  2  0  0  0
 12 13  2  0  0  0
 13 14  1  0  0  0
 14 18  1  0  0  0
 18 19  1  0  0  0
 14 15  2  0  0  0
 15 20  1  0  0  0
 20 21  1  0  0  0
 15 10  1  0  0  0
  7  1  1  0  0  0
 36 24  1  0  0  0
 35 27  1  0  0  0
  8  9  1  0  0  0
 22 23  1  0  0  0
 34 37  1  0  0  0
M  END
> <minimizedAffinity>
-8.49633

> <CNNscore>
0.6960533857

> <CNNaffinity>
7.7670440674

> <CNN_VS>
5.4062771797

> <CNNaffinity_variance>
0.0881914943

$$$$
[H]c1nc(N([H])c2c([H])c(OC([H])([H])[H])c(OC([H])([H])[H])c(OC([H])([H])[H])c2[H])nc(N([H])c2nc3c(c([H])c2[H])OC(C([H])([H])[H])(C([H])([H])[H])C(=O)N3[H])c1F


 37 40  0  0  0  0  0  0  0  0999 V2000
   52.9691   -3.4342   -9.1520 C   0  0  0  0  0  0  0  0  0  0  0  0
   52.5920   -2.1601   -8.9915 N   0  0  0  0  0  0  0  0  0  0  0  0
   51.6051   -1.7443   -8.1951 C   0  0  0  0  0  0  0  0  0  0  0  0
   50.9105   -2.6698   -7.4776 C   0  0  0  0  0  0  0  0  0  0  0  0
   49.8997   -2.3877   -6.6435 F   0  0  0  0  0  0  0  0  0  0  0  0
   51.2571   -4.0242   -7.6017 C   0  0  0  0  0  0  0  0  0  0  0  0
   52.2614   -4.3378   -8.4261 N   0  0  0  0  0  0  0  0  0  0  0  0
   54.0031   -3.9028   -9.9818 N   0  0  0  0  0  0  0  0  0  0  0  0
   53.7629   -3.9441  -11.0254 H   0  0  0  0  0  0  0  0  0  0  0  0
   56.9588   -5.0441   -7.9856 C   0  0  0  0  0  0  0  0  0  0  0  0
   55.6510   -4.6653   -8.3215 C   0  0  0  0  0  0  0  0  0  0  0  0
   55.2846   -4.3133   -9.5701 C   0  0  0  0  0  0  0  0  0  0  0  0
   56.2968   -4.3433  -10.5505 C   0  0  0  0  0  0  0  0  0  0  0  0
   57.5844   -4.7089  -10.2564 C   0  0  0  0  0  0  0  0  0  0  0  0
   57.9320   -5.0642   -8.9685 C   0  0  0  0  0  0  0  0  0  0  0  0
   56.2393   -5.8868   -5.8507 C   0  0  0  0  0  0  0  0  0  0  0  0
   57.2548   -5.3908   -6.6811 O   0  0  0  0  0  0  0  0  0  0  0  0
   58.5419   -4.7263  -11.2360 O   0  0  0  0  0  0  0  0  0  0  0  0
   58.3422   -3.9711  -12.4127 C   0  0  0  0  0  0  0  0  0  0  0  0
   59.2270   -5.4426   -8.6205 O   0  0  0  0  0  0  0  0  0  0  0  0
   59.8090   -6.5409   -9.3102 C   0  0  0  0  0  0  0  0  0  0  0  0
   50.5528   -5.0099   -6.8681 N   0  0  0  0  0  0  0  0  0  0  0  0
   49.7741   -5.5096   -7.3182 H   0  0  0  0  0  0  0  0  0  0  0  0
   50.9374   -5.2837   -5.5324 C   0  0  0  0  0  0  0  0  0  0  0  0
   50.1155   -4.9032   -4.4613 C   0  0  0  0  0  0  0  0  0  0  0  0
   50.5014   -5.1754   -3.1693 C   0  0  0  0  0  0  0  0  0  0  0  0
   51.6881   -5.8193   -2.9038 C   0  0  0  0  0  0  0  0  0  0  0  0
   52.1079   -6.1093   -1.6133 O   0  0  0  0  0  0  0  0  0  0  0  0
   53.4721   -6.3422   -1.2979 C   0  0  0  0  0  0  0  0  0  0  0  0
   53.5869   -7.1369   -0.0285 C   0  0  0  0  0  0  0  0  0  0  0  0
   54.2048   -5.0317   -1.1826 C   0  0  0  0  0  0  0  0  0  0  0  0
   54.1196   -7.1403   -2.3834 C   0  0  0  0  0  0  0  0  0  0  0  0
   54.9853   -8.0279   -2.1066 O   0  0  0  0  0  0  0  0  0  0  0  0
   53.7242   -6.8596   -3.7124 N   0  0  0  0  0  0  0  0  0  0  0  0
   52.4985   -6.1938   -3.9747 C   0  0  0  0  0  0  0  0  0  0  0  0
   52.0795   -5.9065   -5.2181 N   0  0  0  0  0  0  0  0  0  0  0  0
   54.3439   -7.1479   -4.4915 H   0  0  0  0  0  0  0  0  0  0  0  0
 16 17  1  0  0  0
 17 10  1  0  0  0
 10 11  2  0  0  0
 11 12  1  0  0  0
 12  8  1  0  0  0
  8  1  1  0  0  0
  1  2  2  0  0  0
  2  3  1  0  0  0
  3  4  2  0  0  0
  4  5  1  0  0  0
  4  6  1  0  0  0
  6 22  1  0  0  0
 22 24  1  0  0  0
 24 25  2  0  0  0
 25 26  1  0  0  0
 26 27  2  0  0  0
 27 28  1  0  0  0
 28 29  1  0  0  0
 29 30  1  0  0  0
 29 31  1  0  0  0
 29 32  1  0  0  0
 32 33  2  0  0  0
 32 34  1  0  0  0
 34 35  1  0  0  0
 35 36  2  0  0  0
  6  7  2  0  0  0
 12 13  2  0  0  0
 13 14  1  0  0  0
 14 18  1  0  0  0
 18 19  1  0  0  0
 14 15  2  0  0  0
 15 20  1  0  0  0
 20 21  1  0  0  0
 15 10  1  0  0  0
  7  1  1  0  0  0
 36 24  1  0  0  0
 35 27  1  0  0  0
  8  9  1  0  0  0
 22 23  1  0  0  0
 34 37  1  0  0  0
M  END
> <minimizedAffinity>
-9.53687

> <CNNscore>
0.6653908491

> <CNNaffinity>
7.6416754723

> <CNN_VS>
5.0847010612

> <CNNaffinity_variance>
0.1075583473

$$$$
[H]c1nc(N([H])c2c([H])c(OC([H])([H])[H])c(OC([H])([H])[H])c(OC([H])([H])[H])c2[H])nc(N([H])c2nc3c(c([H])c2[H])OC(C([H])([H])[H])(C([H])([H])[H])C(=O)N3[H])c1F


 37 40  0  0  0  0  0  0  0  0999 V2000
   53.1540   -3.0462   -9.0209 C   0  0  0  0  0  0  0  0  0  0  0  0
   53.5282   -3.2647  -10.2872 N   0  0  0  0  0  0  0  0  0  0  0  0
   54.7326   -3.6935  -10.6705 C   0  0  0  0  0  0  0  0  0  0  0  0
   55.6741   -3.9354   -9.7171 C   0  0  0  0  0  0  0  0  0  0  0  0
   56.9185   -4.3674   -9.9653 F   0  0  0  0  0  0  0  0  0  0  0  0
   55.3442   -3.7254   -8.3692 C   0  0  0  0  0  0  0  0  0  0  0  0
   54.1102   -3.2945   -8.0890 N   0  0  0  0  0  0  0  0  0  0  0  0
   51.8950   -2.5956   -8.5861 N   0  0  0  0  0  0  0  0  0  0  0  0
   51.5009   -1.7596   -9.1285 H   0  0  0  0  0  0  0  0  0  0  0  0
   49.6430   -3.0456   -5.6280 C   0  0  0  0  0  0  0  0  0  0  0  0
   50.3561   -2.4398   -6.6726 C   0  0  0  0  0  0  0  0  0  0  0  0
   51.1347   -3.1303   -7.5295 C   0  0  0  0  0  0  0  0  0  0  0  0
   51.2036   -4.5236   -7.3276 C   0  0  0  0  0  0  0  0  0  0  0  0
   50.5194   -5.1473   -6.3172 C   0  0  0  0  0  0  0  0  0  0  0  0
   49.7297   -4.4151   -5.4535 C   0  0  0  0  0  0  0  0  0  0  0  0
   47.4819   -2.4836   -4.7340 C   0  0  0  0  0  0  0  0  0  0  0  0
   48.8664   -2.2673   -4.7910 O   0  0  0  0  0  0  0  0  0  0  0  0
   50.6108   -6.5042   -6.1517 O   0  0  0  0  0  0  0  0  0  0  0  0
   50.3143   -7.3556   -7.2388 C   0  0  0  0  0  0  0  0  0  0  0  0
   49.0158   -5.0036   -4.4116 O   0  0  0  0  0  0  0  0  0  0  0  0
   49.6533   -5.1153   -3.1460 C   0  0  0  0  0  0  0  0  0  0  0  0
   56.3024   -3.9683   -7.3550 N   0  0  0  0  0  0  0  0  0  0  0  0
   57.2295   -3.5277   -7.4246 H   0  0  0  0  0  0  0  0  0  0  0  0
   55.9611   -4.8123   -6.2696 C   0  0  0  0  0  0  0  0  0  0  0  0
   55.6267   -6.1568   -6.4893 C   0  0  0  0  0  0  0  0  0  0  0  0
   55.2973   -6.9651   -5.4261 C   0  0  0  0  0  0  0  0  0  0  0  0
   55.2892   -6.4771   -4.1395 C   0  0  0  0  0  0  0  0  0  0  0  0
   54.9619   -7.2641   -3.0444 O   0  0  0  0  0  0  0  0  0  0  0  0
   54.5135   -6.7040   -1.8197 C   0  0  0  0  0  0  0  0  0  0  0  0
   54.7493   -7.6638   -0.6886 C   0  0  0  0  0  0  0  0  0  0  0  0
   53.0561   -6.3394   -1.9234 C   0  0  0  0  0  0  0  0  0  0  0  0
   55.2814   -5.4584   -1.5146 C   0  0  0  0  0  0  0  0  0  0  0  0
   55.6083   -5.1750   -0.3201 O   0  0  0  0  0  0  0  0  0  0  0  0
   55.6190   -4.6261   -2.6076 N   0  0  0  0  0  0  0  0  0  0  0  0
   55.6230   -5.1397   -3.9307 C   0  0  0  0  0  0  0  0  0  0  0  0
   55.9374   -4.3899   -4.9999 N   0  0  0  0  0  0  0  0  0  0  0  0
   55.8634   -3.6352   -2.4266 H   0  0  0  0  0  0  0  0  0  0  0  0
 16 17  1  0  0  0
 17 10  1  0  0  0
 10 11  2  0  0  0
 11 12  1  0  0  0
 12  8  1  0  0  0
  8  1  1  0  0  0
  1  2  2  0  0  0
  2  3  1  0  0  0
  3  4  2  0  0  0
  4  5  1  0  0  0
  4  6  1  0  0  0
  6 22  1  0  0  0
 22 24  1  0  0  0
 24 25  2  0  0  0
 25 26  1  0  0  0
 26 27  2  0  0  0
 27 28  1  0  0  0
 28 29  1  0  0  0
 29 30  1  0  0  0
 29 31  1  0  0  0
 29 32  1  0  0  0
 32 33  2  0  0  0
 32 34  1  0  0  0
 34 35  1  0  0  0
 35 36  2  0  0  0
  6  7  2  0  0  0
 12 13  2  0  0  0
 13 14  1  0  0  0
 14 18  1  0  0  0
 18 19  1  0  0  0
 14 15  2  0  0  0
 15 20  1  0  0  0
 20 21  1  0  0  0
 15 10  1  0  0  0
  7  1  1  0  0  0
 36 24  1  0  0  0
 35 27  1  0  0  0
  8  9  1  0  0  0
 22 23  1  0  0  0
 34 37  1  0  0  0
M  END
> <minimizedAffinity>
-8.61770

> <CNNscore>
0.6339054704

> <CNNaffinity>
7.6806192398

> <CNN_VS>
4.8687863350

> <CNNaffinity_variance>
0.1153425425

$$$$
[H]c1nc(N([H])c2c([H])c(OC([H])([H])[H])c(OC([H])([H])[H])c(OC([H])([H])[H])c2[H])nc(N([H])c2nc3c(c([H])c2[H])OC(C([H])([H])[H])(C([H])([H])[H])C(=O)N3[H])c1F


 37 40  0  0  0  0  0  0  0  0999 V2000
   52.8942   -3.4348   -8.9515 C   0  0  0  0  0  0  0  0  0  0  0  0
   51.9353   -2.6155   -8.5038 N   0  0  0  0  0  0  0  0  0  0  0  0
   51.1481   -2.8543   -7.4528 C   0  0  0  0  0  0  0  0  0  0  0  0
   51.3130   -4.0170   -6.7637 C   0  0  0  0  0  0  0  0  0  0  0  0
   50.5916   -4.3791   -5.6934 F   0  0  0  0  0  0  0  0  0  0  0  0
   52.3025   -4.9197   -7.1830 C   0  0  0  0  0  0  0  0  0  0  0  0
   53.0390   -4.5873   -8.2479 N   0  0  0  0  0  0  0  0  0  0  0  0
   53.7385   -3.2115  -10.0536 N   0  0  0  0  0  0  0  0  0  0  0  0
   53.3376   -2.5639  -10.8076 H   0  0  0  0  0  0  0  0  0  0  0  0
   57.1693   -4.6277   -9.5559 C   0  0  0  0  0  0  0  0  0  0  0  0
   55.8940   -4.1130   -9.2820 C   0  0  0  0  0  0  0  0  0  0  0  0
   55.0232   -3.7528  -10.2460 C   0  0  0  0  0  0  0  0  0  0  0  0
   55.4586   -3.9203  -11.5761 C   0  0  0  0  0  0  0  0  0  0  0  0
   56.6980   -4.4207  -11.8787 C   0  0  0  0  0  0  0  0  0  0  0  0
   57.5701   -4.7809  -10.8710 C   0  0  0  0  0  0  0  0  0  0  0  0
   57.4495   -5.3662   -7.2840 C   0  0  0  0  0  0  0  0  0  0  0  0
   58.0044   -4.9733   -8.5106 O   0  0  0  0  0  0  0  0  0  0  0  0
   57.0866   -4.5694  -13.1839 O   0  0  0  0  0  0  0  0  0  0  0  0
   56.4205   -3.8382  -14.1921 C   0  0  0  0  0  0  0  0  0  0  0  0
   58.8399   -5.2935  -11.1284 O   0  0  0  0  0  0  0  0  0  0  0  0
   59.7156   -4.5273  -11.9449 C   0  0  0  0  0  0  0  0  0  0  0  0
   52.4976   -6.1372   -6.4863 N   0  0  0  0  0  0  0  0  0  0  0  0
   52.0789   -7.0006   -6.8577 H   0  0  0  0  0  0  0  0  0  0  0  0
   53.2642   -6.1366   -5.2950 C   0  0  0  0  0  0  0  0  0  0  0  0
   52.6592   -5.8704   -4.0578 C   0  0  0  0  0  0  0  0  0  0  0  0
   53.4156   -5.8730   -2.9088 C   0  0  0  0  0  0  0  0  0  0  0  0
   54.7660   -6.1340   -2.9489 C   0  0  0  0  0  0  0  0  0  0  0  0
   55.5587   -6.1446   -1.8098 O   0  0  0  0  0  0  0  0  0  0  0  0
   56.9647   -5.9589   -1.8671 C   0  0  0  0  0  0  0  0  0  0  0  0
   57.6186   -6.5369   -0.6447 C   0  0  0  0  0  0  0  0  0  0  0  0
   57.2852   -4.4944   -2.0094 C   0  0  0  0  0  0  0  0  0  0  0  0
   57.5277   -6.6730   -3.0535 C   0  0  0  0  0  0  0  0  0  0  0  0
   58.6561   -7.2527   -2.9855 O   0  0  0  0  0  0  0  0  0  0  0  0
   56.7508   -6.6692   -4.2358 N   0  0  0  0  0  0  0  0  0  0  0  0
   55.3587   -6.3976   -4.1830 C   0  0  0  0  0  0  0  0  0  0  0  0
   54.5793   -6.3838   -5.2768 N   0  0  0  0  0  0  0  0  0  0  0  0
   57.2145   -6.8680   -5.1412 H   0  0  0  0  0  0  0  0  0  0  0  0
 16 17  1  0  0  0
 17 10  1  0  0  0
 10 11  2  0  0  0
 11 12  1  0  0  0
 12  8  1  0  0  0
  8  1  1  0  0  0
  1  2  2  0  0  0
  2  3  1  0  0  0
  3  4  2  0  0  0
  4  5  1  0  0  0
  4  6  1  0  0  0
  6 22  1  0  0  0
 22 24  1  0  0  0
 24 25  2  0  0  0
 25 26  1  0  0  0
 26 27  2  0  0  0
 27 28  1  0  0  0
 28 29  1  0  0  0
 29 30  1  0  0  0
 29 31  1  0  0  0
 29 32  1  0  0  0
 32 33  2  0  0  0
 32 34  1  0  0  0
 34 35  1  0  0  0
 35 36  2  0  0  0
  6  7  2  0  0  0
 12 13  2  0  0  0
 13 14  1  0  0  0
 14 18  1  0  0  0
 18 19  1  0  0  0
 14 15  2  0  0  0
 15 20  1  0  0  0
 20 21  1  0  0  0
 15 10  1  0  0  0
  7  1  1  0  0  0
 36 24  1  0  0  0
 35 27  1  0  0  0
  8  9  1  0  0  0
 22 23  1  0  0  0
 34 37  1  0  0  0
M  END
> <minimizedAffinity>
-8.44798

> <CNNscore>
0.3936103582

> <CNNaffinity>
7.2550864220

> <CNN_VS>
2.8556771278

> <CNNaffinity_variance>
0.1060524434

$$$$
[H]c1nc(N([H])c2c([H])c(OC([H])([H])[H])c(OC([H])([H])[H])c(OC([H])([H])[H])c2[H])nc(N([H])c2nc3c(c([H])c2[H])OC(C([H])([H])[H])(C([H])([H])[H])C(=O)N3[H])c1F


 37 40  0  0  0  0  0  0  0  0999 V2000
   55.3035   -3.9695  -10.2768 C   0  0  0  0  0  0  0  0  0  0  0  0
   56.0265   -3.9543  -11.4030 N   0  0  0  0  0  0  0  0  0  0  0  0
   57.2786   -4.4016  -11.5196 C   0  0  0  0  0  0  0  0  0  0  0  0
   57.8925   -4.9195  -10.4202 C   0  0  0  0  0  0  0  0  0  0  0  0
   59.1432   -5.4015  -10.4001 F   0  0  0  0  0  0  0  0  0  0  0  0
   57.1876   -4.9639   -9.2072 C   0  0  0  0  0  0  0  0  0  0  0  0
   55.9375   -4.4905   -9.1948 N   0  0  0  0  0  0  0  0  0  0  0  0
   53.9846   -3.5067  -10.1227 N   0  0  0  0  0  0  0  0  0  0  0  0
   53.5929   -2.9669  -10.9616 H   0  0  0  0  0  0  0  0  0  0  0  0
   51.4208   -3.0912   -7.4249 C   0  0  0  0  0  0  0  0  0  0  0  0
   52.1847   -2.8550   -8.5769 C   0  0  0  0  0  0  0  0  0  0  0  0
   53.1631   -3.6833   -8.9939 C   0  0  0  0  0  0  0  0  0  0  0  0
   53.3922   -4.8277   -8.2037 C   0  0  0  0  0  0  0  0  0  0  0  0
   52.6640   -5.0889   -7.0725 C   0  0  0  0  0  0  0  0  0  0  0  0
   51.6680   -4.2226   -6.6683 C   0  0  0  0  0  0  0  0  0  0  0  0
   49.0893   -2.5162   -7.2885 C   0  0  0  0  0  0  0  0  0  0  0  0
   50.4352   -2.1926   -7.0637 O   0  0  0  0  0  0  0  0  0  0  0  0
   52.9152   -6.2120   -6.3293 O   0  0  0  0  0  0  0  0  0  0  0  0
   53.9596   -7.0798   -6.7176 C   0  0  0  0  0  0  0  0  0  0  0  0
   50.9014   -4.4447   -5.5262 O   0  0  0  0  0  0  0  0  0  0  0  0
   50.0228   -5.5622   -5.5196 C   0  0  0  0  0  0  0  0  0  0  0  0
   57.7997   -5.4969   -8.0466 N   0  0  0  0  0  0  0  0  0  0  0  0
   58.7040   -5.9798   -8.1330 H   0  0  0  0  0  0  0  0  0  0  0  0
   57.1517   -5.3522   -6.7951 C   0  0  0  0  0  0  0  0  0  0  0  0
   56.3856   -4.2106   -6.5165 C   0  0  0  0  0  0  0  0  0  0  0  0
   55.7618   -4.0832   -5.2971 C   0  0  0  0  0  0  0  0  0  0  0  0
   55.8750   -5.0618   -4.3364 C   0  0  0  0  0  0  0  0  0  0  0  0
   55.2595   -4.9657   -3.0963 O   0  0  0  0  0  0  0  0  0  0  0  0
   55.7130   -5.7003   -1.9697 C   0  0  0  0  0  0  0  0  0  0  0  0
   54.6100   -5.8434   -0.9603 C   0  0  0  0  0  0  0  0  0  0  0  0
   56.9147   -5.0243   -1.3641 C   0  0  0  0  0  0  0  0  0  0  0  0
   56.1179   -7.0778   -2.3857 C   0  0  0  0  0  0  0  0  0  0  0  0
   55.8869   -8.0757   -1.6342 O   0  0  0  0  0  0  0  0  0  0  0  0
   56.7609   -7.2091   -3.6390 N   0  0  0  0  0  0  0  0  0  0  0  0
   56.6383   -6.1928   -4.6223 C   0  0  0  0  0  0  0  0  0  0  0  0
   57.2283   -6.2723   -5.8263 N   0  0  0  0  0  0  0  0  0  0  0  0
   57.3229   -8.0592   -3.8277 H   0  0  0  0  0  0  0  0  0  0  0  0
 16 17  1  0  0  0
 17 10  1  0  0  0
 10 11  2  0  0  0
 11 12  1  0  0  0
 12  8  1  0  0  0
  8  1  1  0  0  0
  1  2  2  0  0  0
  2  3  1  0  0  0
  3  4  2  0  0  0
  4  5  1  0  0  0
  4  6  1  0  0  0
  6 22  1  0  0  0
 22 24  1  0  0  0
 24 25  2  0  0  0
 25 26  1  0  0  0
 26 27  2  0  0  0
 27 28  1  0  0  0
 28 29  1  0  0  0
 29 30  1  0  0  0
 29 31  1  0  0  0
 29 32  1  0  0  0
 32 33  2  0  0  0
 32 34  1  0  0  0
 34 35  1  0  0  0
 35 36  2  0  0  0
  6  7  2  0  0  0
 12 13  2  0  0  0
 13 14  1  0  0  0
 14 18  1  0  0  0
 18 19  1  0  0  0
 14 15  2  0  0  0
 15 20  1  0  0  0
 20 21  1  0  0  0
 15 10  1  0  0  0
  7  1  1  0  0  0
 36 24  1  0  0  0
 35 27  1  0  0  0
  8  9  1  0  0  0
 22 23  1  0  0  0
 34 37  1  0  0  0
M  END
> <minimizedAffinity>
-8.13859

> <CNNscore>
0.3830922246

> <CNNaffinity>
7.0948700905

> <CNN_VS>
2.7179896832

> <CNNaffinity_variance>
0.2062006891

$$$$
[H]c1nc(N([H])c2c([H])c(OC([H])([H])[H])c(OC([H])([H])[H])c(OC([H])([H])[H])c2[H])nc(N([H])c2nc3c(c([H])c2[H])OC(C([H])([H])[H])(C([H])([H])[H])C(=O)N3[H])c1F


 37 40  0  0  0  0  0  0  0  0999 V2000
   58.5211   -5.5272   -9.8293 C   0  0  0  0  0  0  0  0  0  0  0  0
   58.8247   -5.1919  -11.0890 N   0  0  0  0  0  0  0  0  0  0  0  0
   58.0319   -4.5060  -11.9150 C   0  0  0  0  0  0  0  0  0  0  0  0
   56.8114   -4.1034  -11.4652 C   0  0  0  0  0  0  0  0  0  0  0  0
   55.9213   -3.4105  -12.1895 F   0  0  0  0  0  0  0  0  0  0  0  0
   56.4327   -4.4238  -10.1522 C   0  0  0  0  0  0  0  0  0  0  0  0
   57.2990   -5.1144   -9.4044 N   0  0  0  0  0  0  0  0  0  0  0  0
   59.3336   -6.2475   -8.9360 N   0  0  0  0  0  0  0  0  0  0  0  0
   58.8239   -6.6484   -8.0827 H   0  0  0  0  0  0  0  0  0  0  0  0
   62.8412   -6.5399  -10.2145 C   0  0  0  0  0  0  0  0  0  0  0  0
   61.4668   -6.2668  -10.1619 C   0  0  0  0  0  0  0  0  0  0  0  0
   60.7165   -6.4758   -9.0616 C   0  0  0  0  0  0  0  0  0  0  0  0
   61.3884   -6.9931   -7.9358 C   0  0  0  0  0  0  0  0  0  0  0  0
   62.7304   -7.2707   -7.9530 C   0  0  0  0  0  0  0  0  0  0  0  0
   63.4745   -7.0475   -9.0942 C   0  0  0  0  0  0  0  0  0  0  0  0
   62.9658   -6.6396  -12.6145 C   0  0  0  0  0  0  0  0  0  0  0  0
   63.5406   -6.2985  -11.3816 O   0  0  0  0  0  0  0  0  0  0  0  0
   63.3495   -7.7728   -6.8389 O   0  0  0  0  0  0  0  0  0  0  0  0
   62.7229   -7.6412   -5.5801 C   0  0  0  0  0  0  0  0  0  0  0  0
   64.8405   -7.3141   -9.1606 O   0  0  0  0  0  0  0  0  0  0  0  0
   65.2473   -8.6142   -9.5667 C   0  0  0  0  0  0  0  0  0  0  0  0
   55.1696   -4.0187   -9.6561 N   0  0  0  0  0  0  0  0  0  0  0  0
   54.6143   -3.3386  -10.1926 H   0  0  0  0  0  0  0  0  0  0  0  0
   54.7015   -4.5596   -8.4333 C   0  0  0  0  0  0  0  0  0  0  0  0
   53.3650   -4.3887   -8.0431 C   0  0  0  0  0  0  0  0  0  0  0  0
   52.9240   -4.9194   -6.8530 C   0  0  0  0  0  0  0  0  0  0  0  0
   53.7749   -5.6209   -6.0302 C   0  0  0  0  0  0  0  0  0  0  0  0
   53.3637   -6.1693   -4.8235 O   0  0  0  0  0  0  0  0  0  0  0  0
   54.2797   -6.4808   -3.7850 C   0  0  0  0  0  0  0  0  0  0  0  0
   53.6954   -7.5148   -2.8655 C   0  0  0  0  0  0  0  0  0  0  0  0
   54.6454   -5.2308   -3.0290 C   0  0  0  0  0  0  0  0  0  0  0  0
   55.5329   -7.0553   -4.3627 C   0  0  0  0  0  0  0  0  0  0  0  0
   56.1499   -7.9932   -3.7680 O   0  0  0  0  0  0  0  0  0  0  0  0
   55.9877   -6.5088   -5.5858 N   0  0  0  0  0  0  0  0  0  0  0  0
   55.1015   -5.7858   -6.4263 C   0  0  0  0  0  0  0  0  0  0  0  0
   55.4855   -5.2496   -7.5964 N   0  0  0  0  0  0  0  0  0  0  0  0
   56.9784   -6.6448   -5.8583 H   0  0  0  0  0  0  0  0  0  0  0  0
 16 17  1  0  0  0
 17 10  1  0  0  0
 10 11  2  0  0  0
 11 12  1  0  0  0
 12  8  1  0  0  0
  8  1  1  0  0  0
  1  2  2  0  0  0
  2  3  1  0  0  0
  3  4  2  0  0  0
  4  5  1  0  0  0
  4  6  1  0  0  0
  6 22  1  0  0  0
 22 24  1  0  0  0
 24 25  2  0  0  0
 25 26  1  0  0  0
 26 27  2  0  0  0
 27 28  1  0  0  0
 28 29  1  0  0  0
 29 30  1  0  0  0
 29 31  1  0  0  0
 29 32  1  0  0  0
 32 33  2  0  0  0
 32 34  1  0  0  0
 34 35  1  0  0  0
 35 36  2  0  0  0
  6  7  2  0  0  0
 12 13  2  0  0  0
 13 14  1  0  0  0
 14 18  1  0  0  0
 18 19  1  0  0  0
 14 15  2  0  0  0
 15 20  1  0  0  0
 20 21  1  0  0  0
 15 10  1  0  0  0
  7  1  1  0  0  0
 36 24  1  0  0  0
 35 27  1  0  0  0
  8  9  1  0  0  0
 22 23  1  0  0  0
 34 37  1  0  0  0
M  END
> <minimizedAffinity>
-7.86812

> <CNNscore>
0.2661406398

> <CNNaffinity>
5.9195337296

> <CNN_VS>
1.5754284859

> <CNNaffinity_variance>
0.4977173209

$$$$
[H]c1nc(N([H])c2c([H])c([H])c(N3C([H])([H])C([H])([H])C([H])(N(C([H])([H])[H])C([H])([H])[H])C([H])([H])C3([H])[H])c([H])c2OC([H])([H])[H])nc(N([H])c2c([H])c([H])c([H])c([H])c2S(=O)(=O)C([H])(C([H])([H])[H])C([H])([H])[H])c1Cl


 40 43  0  0  0  0  0  0  0  0999 V2000
   53.5275   -3.3599   -9.1667 C   0  0  0  0  0  0  0  0  0  0  0  0
   52.5428   -2.4679   -9.1746 N   0  0  0  0  0  0  0  0  0  0  0  0
   51.5409   -2.4736   -8.2865 C   0  0  0  0  0  0  0  0  0  0  0  0
   51.4836   -3.4237   -7.3035 C   0  0  0  0  0  0  0  0  0  0  0  0
   50.2039   -3.4728   -6.1123 Cl  0  0  0  0  0  0  0  0  0  0  0  0
   52.5050   -4.3998   -7.2458 C   0  0  0  0  0  0  0  0  0  0  0  0
   53.4325   -4.2895   -8.1709 N   0  0  0  0  0  0  0  0  0  0  0  0
   54.6262   -3.4309  -10.0652 N   0  0  0  0  0  0  0  0  0  0  0  0
   54.4909   -2.9563  -11.0288 H   0  0  0  0  0  0  0  0  0  0  0  0
   56.6602   -4.2929  -11.0057 C   0  0  0  0  0  0  0  0  0  0  0  0
   57.8704   -4.8856  -10.8203 C   0  0  0  0  0  0  0  0  0  0  0  0
   58.3566   -5.2458   -9.5915 C   0  0  0  0  0  0  0  0  0  0  0  0
   57.5660   -4.9865   -8.5018 C   0  0  0  0  0  0  0  0  0  0  0  0
   56.3207   -4.3836   -8.6273 C   0  0  0  0  0  0  0  0  0  0  0  0
   55.8565   -4.0327   -9.8675 C   0  0  0  0  0  0  0  0  0  0  0  0
   59.6374   -5.8711   -9.3994 N   0  0  0  0  0  0  0  0  0  0  0  0
   60.4506   -6.0095  -10.5827 C   0  0  0  0  0  0  0  0  0  0  0  0
   61.8395   -6.4845  -10.3589 C   0  0  0  0  0  0  0  0  0  0  0  0
   62.2804   -6.3590   -8.9333 C   0  0  0  0  0  0  0  0  0  0  0  0
   61.2896   -7.1017   -8.0609 C   0  0  0  0  0  0  0  0  0  0  0  0
   60.0115   -6.3029   -8.0927 C   0  0  0  0  0  0  0  0  0  0  0  0
   63.6326   -6.8341   -8.7684 N   0  0  0  0  0  0  0  0  0  0  0  0
   64.5172   -5.8285   -8.2612 C   0  0  0  0  0  0  0  0  0  0  0  0
   63.7063   -8.0754   -8.0339 C   0  0  0  0  0  0  0  0  0  0  0  0
   57.0555   -3.8245  -13.3362 C   0  0  0  0  0  0  0  0  0  0  0  0
   56.1810   -3.9343  -12.2505 O   0  0  0  0  0  0  0  0  0  0  0  0
   52.4382   -5.4113   -6.2627 N   0  0  0  0  0  0  0  0  0  0  0  0
   51.4806   -5.6224   -5.9146 H   0  0  0  0  0  0  0  0  0  0  0  0
   53.5186   -6.1007   -5.7194 C   0  0  0  0  0  0  0  0  0  0  0  0
   54.6845   -6.3879   -6.4298 C   0  0  0  0  0  0  0  0  0  0  0  0
   55.7888   -6.9686   -5.8243 C   0  0  0  0  0  0  0  0  0  0  0  0
   55.7749   -7.2835   -4.4945 C   0  0  0  0  0  0  0  0  0  0  0  0
   54.6314   -7.0030   -3.7977 C   0  0  0  0  0  0  0  0  0  0  0  0
   53.4885   -6.4197   -4.3610 C   0  0  0  0  0  0  0  0  0  0  0  0
   52.1072   -6.2529   -3.3640 S   0  0  0  0  0  0  0  0  0  0  0  0
   52.0200   -4.7700   -2.9338 O   0  0  0  0  0  0  0  0  0  0  0  0
   50.7878   -6.4694   -4.0640 O   0  0  0  0  0  0  0  0  0  0  0  0
   52.1399   -7.1491   -1.8458 C   0  0  0  0  0  0  0  0  0  0  0  0
   52.8476   -6.3372   -0.7565 C   0  0  0  0  0  0  0  0  0  0  0  0
   50.8312   -7.5506   -1.3042 C   0  0  0  0  0  0  0  0  0  0  0  0
 25 26  1  0  0  0
 26 10  1  0  0  0
 10 11  2  0  0  0
 11 12  1  0  0  0
 12 13  2  0  0  0
 13 14  1  0  0  0
 14 15  2  0  0  0
 15  8  1  0  0  0
  8  1  1  0  0  0
  1  2  2  0  0  0
  2  3  1  0  0  0
  3  4  2  0  0  0
  4  5  1  0  0  0
  4  6  1  0  0  0
  6 27  1  0  0  0
 27 29  1  0  0  0
 29 30  2  0  0  0
 30 31  1  0  0  0
 31 32  2  0  0  0
 32 33  1  0  0  0
 33 34  2  0  0  0
 34 35  1  0  0  0
 35 36  2  0  0  0
 35 37  2  0  0  0
 35 38  1  0  0  0
 38 39  1  0  0  0
 38 40  1  0  0  0
  6  7  2  0  0  0
 12 16  1  0  0  0
 16 17  1  0  0  0
 17 18  1  0  0  0
 18 19  1  0  0  0
 19 20  1  0  0  0
 20 21  1  0  0  0
 19 22  1  0  0  0
 22 23  1  0  0  0
 22 24  1  0  0  0
 15 10  1  0  0  0
  7  1  1  0  0  0
 21 16  1  0  0  0
 34 29  1  0  0  0
  8  9  1  0  0  0
 27 28  1  0  0  0
M  END
> <minimizedAffinity>
-8.65952

> <CNNscore>
0.8946923614

> <CNNaffinity>
8.2961330414

> <CNN_VS>
7.4224867821

> <CNNaffinity_variance>
0.0118835894

$$$$
[H]c1nc(N([H])c2c([H])c([H])c(N3C([H])([H])C([H])([H])C([H])(N(C([H])([H])[H])C([H])([H])[H])C([H])([H])C3([H])[H])c([H])c2OC([H])([H])[H])nc(N([H])c2c([H])c([H])c([H])c([H])c2S(=O)(=O)C([H])(C([H])([H])[H])C([H])([H])[H])c1Cl


 40 43  0  0  0  0  0  0  0  0999 V2000
   53.7899   -3.4998   -9.3696 C   0  0  0  0  0  0  0  0  0  0  0  0
   52.9515   -2.4717   -9.2970 N   0  0  0  0  0  0  0  0  0  0  0  0
   51.9297   -2.4181   -8.4335 C   0  0  0  0  0  0  0  0  0  0  0  0
   51.6958   -3.4474   -7.5627 C   0  0  0  0  0  0  0  0  0  0  0  0
   50.3824   -3.4262   -6.4079 Cl  0  0  0  0  0  0  0  0  0  0  0  0
   52.5561   -4.5691   -7.5945 C   0  0  0  0  0  0  0  0  0  0  0  0
   53.5214   -4.5046   -8.4846 N   0  0  0  0  0  0  0  0  0  0  0  0
   54.8962   -3.6424  -10.2501 N   0  0  0  0  0  0  0  0  0  0  0  0
   54.7685   -3.2487  -11.2505 H   0  0  0  0  0  0  0  0  0  0  0  0
   56.9537   -4.5433  -11.0986 C   0  0  0  0  0  0  0  0  0  0  0  0
   58.1629   -5.1167  -10.8552 C   0  0  0  0  0  0  0  0  0  0  0  0
   58.6257   -5.4030   -9.5983 C   0  0  0  0  0  0  0  0  0  0  0  0
   57.8115   -5.0873   -8.5414 C   0  0  0  0  0  0  0  0  0  0  0  0
   56.5658   -4.5006   -8.7263 C   0  0  0  0  0  0  0  0  0  0  0  0
   56.1254   -4.2240   -9.9936 C   0  0  0  0  0  0  0  0  0  0  0  0
   59.9056   -6.0081   -9.3450 N   0  0  0  0  0  0  0  0  0  0  0  0
   60.7717   -6.1443  -10.4904 C   0  0  0  0  0  0  0  0  0  0  0  0
   62.1561   -6.5972  -10.2021 C   0  0  0  0  0  0  0  0  0  0  0  0
   62.5324   -6.4536   -8.7597 C   0  0  0  0  0  0  0  0  0  0  0  0
   61.5149   -7.2035   -7.9248 C   0  0  0  0  0  0  0  0  0  0  0  0
   60.2283   -6.4236   -8.0195 C   0  0  0  0  0  0  0  0  0  0  0  0
   63.8827   -6.9075   -8.5318 N   0  0  0  0  0  0  0  0  0  0  0  0
   64.7974   -6.4591   -9.5383 C   0  0  0  0  0  0  0  0  0  0  0  0
   64.3448   -6.6440   -7.1891 C   0  0  0  0  0  0  0  0  0  0  0  0
   57.3783   -3.7665  -13.3399 C   0  0  0  0  0  0  0  0  0  0  0  0
   56.4982   -4.2594  -12.3713 O   0  0  0  0  0  0  0  0  0  0  0  0
   52.3036   -5.6573   -6.7306 N   0  0  0  0  0  0  0  0  0  0  0  0
   52.2448   -6.5847   -7.1988 H   0  0  0  0  0  0  0  0  0  0  0  0
   52.1025   -5.5841   -5.3551 C   0  0  0  0  0  0  0  0  0  0  0  0
   50.8457   -5.4365   -4.7676 C   0  0  0  0  0  0  0  0  0  0  0  0
   50.6672   -5.4887   -3.3933 C   0  0  0  0  0  0  0  0  0  0  0  0
   51.7279   -5.6898   -2.5553 C   0  0  0  0  0  0  0  0  0  0  0  0
   52.9606   -5.8336   -3.1311 C   0  0  0  0  0  0  0  0  0  0  0  0
   53.1959   -5.7870   -4.5118 C   0  0  0  0  0  0  0  0  0  0  0  0
   54.8204   -5.8657   -5.0448 S   0  0  0  0  0  0  0  0  0  0  0  0
   54.8947   -6.9409   -6.1540 O   0  0  0  0  0  0  0  0  0  0  0  0
   55.3181   -4.6293   -5.7528 O   0  0  0  0  0  0  0  0  0  0  0  0
   56.0006   -6.3910   -3.8447 C   0  0  0  0  0  0  0  0  0  0  0  0
   57.2275   -7.0031   -4.5280 C   0  0  0  0  0  0  0  0  0  0  0  0
   56.4917   -5.3527   -2.9238 C   0  0  0  0  0  0  0  0  0  0  0  0
 25 26  1  0  0  0
 26 10  1  0  0  0
 10 11  2  0  0  0
 11 12  1  0  0  0
 12 13  2  0  0  0
 13 14  1  0  0  0
 14 15  2  0  0  0
 15  8  1  0  0  0
  8  1  1  0  0  0
  1  2  2  0  0  0
  2  3  1  0  0  0
  3  4  2  0  0  0
  4  5  1  0  0  0
  4  6  1  0  0  0
  6 27  1  0  0  0
 27 29  1  0  0  0
 29 30  2  0  0  0
 30 31  1  0  0  0
 31 32  2  0  0  0
 32 33  1  0  0  0
 33 34  2  0  0  0
 34 35  1  0  0  0
 35 36  2  0  0  0
 35 37  2  0  0  0
 35 38  1  0  0  0
 38 39  1  0  0  0
 38 40  1  0  0  0
  6  7  2  0  0  0
 12 16  1  0  0  0
 16 17  1  0  0  0
 17 18  1  0  0  0
 18 19  1  0  0  0
 19 20  1  0  0  0
 20 21  1  0  0  0
 19 22  1  0  0  0
 22 23  1  0  0  0
 22 24  1  0  0  0
 15 10  1  0  0  0
  7  1  1  0  0  0
 21 16  1  0  0  0
 34 29  1  0  0  0
  8  9  1  0  0  0
 27 28  1  0  0  0
M  END
> <minimizedAffinity>
-9.26654

> <CNNscore>
0.8867760897

> <CNNaffinity>
8.1455869675

> <CNN_VS>
7.2233119011

> <CNNaffinity_variance>
0.0495907925

$$$$
[H]c1nc(N([H])c2c([H])c([H])c(N3C([H])([H])C([H])([H])C([H])(N(C([H])([H])[H])C([H])([H])[H])C([H])([H])C3([H])[H])c([H])c2OC([H])([H])[H])nc(N([H])c2c([H])c([H])c([H])c([H])c2S(=O)(=O)C([H])(C([H])([H])[H])C([H])([H])[H])c1Cl


 40 43  0  0  0  0  0  0  0  0999 V2000
   53.4186   -3.4435   -8.9477 C   0  0  0  0  0  0  0  0  0  0  0  0
   52.3957   -2.6034   -8.8322 N   0  0  0  0  0  0  0  0  0  0  0  0
   51.4245   -2.7509   -7.9226 C   0  0  0  0  0  0  0  0  0  0  0  0
   51.4412   -3.8019   -7.0465 C   0  0  0  0  0  0  0  0  0  0  0  0
   50.2044   -4.0379   -5.8326 Cl  0  0  0  0  0  0  0  0  0  0  0  0
   52.5060   -4.7290   -7.1224 C   0  0  0  0  0  0  0  0  0  0  0  0
   53.3972   -4.4772   -8.0556 N   0  0  0  0  0  0  0  0  0  0  0  0
   54.4896   -3.3664   -9.8785 N   0  0  0  0  0  0  0  0  0  0  0  0
   54.3215   -2.7540  -10.7554 H   0  0  0  0  0  0  0  0  0  0  0  0
   56.3855   -4.0112   -8.5540 C   0  0  0  0  0  0  0  0  0  0  0  0
   57.6053   -4.6084   -8.4782 C   0  0  0  0  0  0  0  0  0  0  0  0
   58.2362   -5.1802   -9.5511 C   0  0  0  0  0  0  0  0  0  0  0  0
   57.5870   -5.1382  -10.7579 C   0  0  0  0  0  0  0  0  0  0  0  0
   56.3398   -4.5424  -10.8983 C   0  0  0  0  0  0  0  0  0  0  0  0
   55.7294   -3.9772   -9.8100 C   0  0  0  0  0  0  0  0  0  0  0  0
   59.5254   -5.8119   -9.4666 N   0  0  0  0  0  0  0  0  0  0  0  0
   59.9408   -6.2135   -8.1450 C   0  0  0  0  0  0  0  0  0  0  0  0
   61.1818   -7.0260   -8.0779 C   0  0  0  0  0  0  0  0  0  0  0  0
   61.5667   -7.6201   -9.3976 C   0  0  0  0  0  0  0  0  0  0  0  0
   61.6885   -6.4981  -10.4079 C   0  0  0  0  0  0  0  0  0  0  0  0
   60.2894   -5.9952  -10.6569 C   0  0  0  0  0  0  0  0  0  0  0  0
   62.7767   -8.3968   -9.2798 N   0  0  0  0  0  0  0  0  0  0  0  0
   62.6144   -9.5576   -8.4569 C   0  0  0  0  0  0  0  0  0  0  0  0
   63.3832   -8.6891  -10.5575 C   0  0  0  0  0  0  0  0  0  0  0  0
   56.3997   -3.4063   -6.2214 C   0  0  0  0  0  0  0  0  0  0  0  0
   55.7595   -3.4379   -7.4643 O   0  0  0  0  0  0  0  0  0  0  0  0
   52.5160   -5.8414   -6.2526 N   0  0  0  0  0  0  0  0  0  0  0  0
   51.5844   -6.2713   -6.0793 H   0  0  0  0  0  0  0  0  0  0  0  0
   53.6308   -6.3688   -5.6069 C   0  0  0  0  0  0  0  0  0  0  0  0
   54.8498   -6.6035   -6.2436 C   0  0  0  0  0  0  0  0  0  0  0  0
   55.9752   -7.0151   -5.5456 C   0  0  0  0  0  0  0  0  0  0  0  0
   55.9306   -7.2071   -4.1932 C   0  0  0  0  0  0  0  0  0  0  0  0
   54.7350   -6.9780   -3.5686 C   0  0  0  0  0  0  0  0  0  0  0  0
   53.5690   -6.5637   -4.2263 C   0  0  0  0  0  0  0  0  0  0  0  0
   52.1341   -6.4434   -3.3010 S   0  0  0  0  0  0  0  0  0  0  0  0
   52.0493   -4.9972   -2.7597 O   0  0  0  0  0  0  0  0  0  0  0  0
   50.8550   -6.5731   -4.0913 O   0  0  0  0  0  0  0  0  0  0  0  0
   52.0593   -7.4565   -1.8598 C   0  0  0  0  0  0  0  0  0  0  0  0
   50.7205   -7.2696   -1.1392 C   0  0  0  0  0  0  0  0  0  0  0  0
   52.2357   -8.9020   -2.0762 C   0  0  0  0  0  0  0  0  0  0  0  0
 25 26  1  0  0  0
 26 10  1  0  0  0
 10 11  2  0  0  0
 11 12  1  0  0  0
 12 13  2  0  0  0
 13 14  1  0  0  0
 14 15  2  0  0  0
 15  8  1  0  0  0
  8  1  1  0  0  0
  1  2  2  0  0  0
  2  3  1  0  0  0
  3  4  2  0  0  0
  4  5  1  0  0  0
  4  6  1  0  0  0
  6 27  1  0  0  0
 27 29  1  0  0  0
 29 30  2  0  0  0
 30 31  1  0  0  0
 31 32  2  0  0  0
 32 33  1  0  0  0
 33 34  2  0  0  0
 34 35  1  0  0  0
 35 36  2  0  0  0
 35 37  2  0  0  0
 35 38  1  0  0  0
 38 39  1  0  0  0
 38 40  1  0  0  0
  6  7  2  0  0  0
 12 16  1  0  0  0
 16 17  1  0  0  0
 17 18  1  0  0  0
 18 19  1  0  0  0
 19 20  1  0  0  0
 20 21  1  0  0  0
 19 22  1  0  0  0
 22 23  1  0  0  0
 22 24  1  0  0  0
 15 10  1  0  0  0
  7  1  1  0  0  0
 21 16  1  0  0  0
 34 29  1  0  0  0
  8  9  1  0  0  0
 27 28  1  0  0  0
M  END
> <minimizedAffinity>
-7.69394

> <CNNscore>
0.7968368530

> <CNNaffinity>
8.1032066345

> <CNN_VS>
6.4569334984

> <CNNaffinity_variance>
0.0582233667

$$$$
[H]c1nc(N([H])c2c([H])c([H])c(N3C([H])([H])C([H])([H])C([H])(N(C([H])([H])[H])C([H])([H])[H])C([H])([H])C3([H])[H])c([H])c2OC([H])([H])[H])nc(N([H])c2c([H])c([H])c([H])c([H])c2S(=O)(=O)C([H])(C([H])([H])[H])C([H])([H])[H])c1Cl


 40 43  0  0  0  0  0  0  0  0999 V2000
   53.6871   -3.5936   -8.4929 C   0  0  0  0  0  0  0  0  0  0  0  0
   52.4775   -3.1025   -8.7404 N   0  0  0  0  0  0  0  0  0  0  0  0
   51.3716   -3.5276   -8.1169 C   0  0  0  0  0  0  0  0  0  0  0  0
   51.4381   -4.5138   -7.1706 C   0  0  0  0  0  0  0  0  0  0  0  0
   50.0277   -5.1004   -6.3186 Cl  0  0  0  0  0  0  0  0  0  0  0  0
   52.6997   -5.0746   -6.8654 C   0  0  0  0  0  0  0  0  0  0  0  0
   53.7091   -4.5747   -7.5432 N   0  0  0  0  0  0  0  0  0  0  0  0
   54.9104   -3.2056   -9.1030 N   0  0  0  0  0  0  0  0  0  0  0  0
   54.9189   -2.2396   -9.5919 H   0  0  0  0  0  0  0  0  0  0  0  0
   56.8820   -3.9808   -7.9729 C   0  0  0  0  0  0  0  0  0  0  0  0
   58.0555   -4.6673   -8.0153 C   0  0  0  0  0  0  0  0  0  0  0  0
   58.5264   -5.2930   -9.1390 C   0  0  0  0  0  0  0  0  0  0  0  0
   57.7591   -5.2115  -10.2723 C   0  0  0  0  0  0  0  0  0  0  0  0
   56.5515   -4.5249  -10.2913 C   0  0  0  0  0  0  0  0  0  0  0  0
   56.1021   -3.9072   -9.1543 C   0  0  0  0  0  0  0  0  0  0  0  0
   59.7672   -6.0191   -9.1793 N   0  0  0  0  0  0  0  0  0  0  0  0
   60.4019   -6.1032  -10.4719 C   0  0  0  0  0  0  0  0  0  0  0  0
   61.7658   -6.6902  -10.4837 C   0  0  0  0  0  0  0  0  0  0  0  0
   62.4012   -6.7264   -9.1281 C   0  0  0  0  0  0  0  0  0  0  0  0
   61.4791   -7.4770   -8.1895 C   0  0  0  0  0  0  0  0  0  0  0  0
   60.2762   -6.5935   -7.9773 C   0  0  0  0  0  0  0  0  0  0  0  0
   63.7209   -7.3055   -9.1929 N   0  0  0  0  0  0  0  0  0  0  0  0
   64.3102   -7.4922   -7.9011 C   0  0  0  0  0  0  0  0  0  0  0  0
   63.7745   -8.4910  -10.0161 C   0  0  0  0  0  0  0  0  0  0  0  0
   56.2854   -4.0712   -5.6400 C   0  0  0  0  0  0  0  0  0  0  0  0
   56.4177   -3.3539   -6.8331 O   0  0  0  0  0  0  0  0  0  0  0  0
   52.7794   -6.1214   -5.9209 N   0  0  0  0  0  0  0  0  0  0  0  0
   52.9763   -7.0608   -6.3228 H   0  0  0  0  0  0  0  0  0  0  0  0
   52.5902   -6.0036   -4.5469 C   0  0  0  0  0  0  0  0  0  0  0  0
   51.4967   -5.3543   -3.9733 C   0  0  0  0  0  0  0  0  0  0  0  0
   51.2751   -5.3597   -2.6043 C   0  0  0  0  0  0  0  0  0  0  0  0
   52.1292   -6.0094   -1.7580 C   0  0  0  0  0  0  0  0  0  0  0  0
   53.2022   -6.6454   -2.3201 C   0  0  0  0  0  0  0  0  0  0  0  0
   53.4731   -6.6688   -3.6948 C   0  0  0  0  0  0  0  0  0  0  0  0
   54.9275   -7.4121   -4.2064 S   0  0  0  0  0  0  0  0  0  0  0  0
   54.9641   -8.8325   -3.5957 O   0  0  0  0  0  0  0  0  0  0  0  0
   55.0132   -7.6896   -5.6873 O   0  0  0  0  0  0  0  0  0  0  0  0
   56.4182   -6.6550   -3.6462 C   0  0  0  0  0  0  0  0  0  0  0  0
   56.5342   -6.7571   -2.1221 C   0  0  0  0  0  0  0  0  0  0  0  0
   57.6673   -7.1912   -4.2116 C   0  0  0  0  0  0  0  0  0  0  0  0
 25 26  1  0  0  0
 26 10  1  0  0  0
 10 11  2  0  0  0
 11 12  1  0  0  0
 12 13  2  0  0  0
 13 14  1  0  0  0
 14 15  2  0  0  0
 15  8  1  0  0  0
  8  1  1  0  0  0
  1  2  2  0  0  0
  2  3  1  0  0  0
  3  4  2  0  0  0
  4  5  1  0  0  0
  4  6  1  0  0  0
  6 27  1  0  0  0
 27 29  1  0  0  0
 29 30  2  0  0  0
 30 31  1  0  0  0
 31 32  2  0  0  0
 32 33  1  0  0  0
 33 34  2  0  0  0
 34 35  1  0  0  0
 35 36  2  0  0  0
 35 37  2  0  0  0
 35 38  1  0  0  0
 38 39  1  0  0  0
 38 40  1  0  0  0
  6  7  2  0  0  0
 12 16  1  0  0  0
 16 17  1  0  0  0
 17 18  1  0  0  0
 18 19  1  0  0  0
 19 20  1  0  0  0
 20 21  1  0  0  0
 19 22  1  0  0  0
 22 23  1  0  0  0
 22 24  1  0  0  0
 15 10  1  0  0  0
  7  1  1  0  0  0
 21 16  1  0  0  0
 34 29  1  0  0  0
  8  9  1  0  0  0
 27 28  1  0  0  0
M  END
> <minimizedAffinity>
-7.03658

> <CNNscore>
0.6972926259

> <CNNaffinity>
7.9105653763

> <CNN_VS>
5.5159788132

> <CNNaffinity_variance>
0.1205147058

$$$$
[H]c1nc(N([H])c2c([H])c([H])c(N3C([H])([H])C([H])([H])C([H])(N(C([H])([H])[H])C([H])([H])[H])C([H])([H])C3([H])[H])c([H])c2OC([H])([H])[H])nc(N([H])c2c([H])c([H])c([H])c([H])c2S(=O)(=O)C([H])(C([H])([H])[H])C([H])([H])[H])c1Cl


 40 43  0  0  0  0  0  0  0  0999 V2000
   54.7650   -4.6062   -8.2287 C   0  0  0  0  0  0  0  0  0  0  0  0
   53.8918   -3.6906   -8.6344 N   0  0  0  0  0  0  0  0  0  0  0  0
   52.6501   -3.5927   -8.1432 C   0  0  0  0  0  0  0  0  0  0  0  0
   52.2117   -4.4542   -7.1747 C   0  0  0  0  0  0  0  0  0  0  0  0
   50.6043   -4.3661   -6.4909 Cl  0  0  0  0  0  0  0  0  0  0  0  0
   53.0979   -5.4503   -6.7038 C   0  0  0  0  0  0  0  0  0  0  0  0
   54.2879   -5.4451   -7.2624 N   0  0  0  0  0  0  0  0  0  0  0  0
   56.0968   -4.7840   -8.6912 N   0  0  0  0  0  0  0  0  0  0  0  0
   56.8023   -5.1942   -7.9797 H   0  0  0  0  0  0  0  0  0  0  0  0
   57.9785   -4.7986  -10.1825 C   0  0  0  0  0  0  0  0  0  0  0  0
   58.4951   -4.5197  -11.4095 C   0  0  0  0  0  0  0  0  0  0  0  0
   57.7681   -3.9638  -12.4286 C   0  0  0  0  0  0  0  0  0  0  0  0
   56.4502   -3.6804  -12.1788 C   0  0  0  0  0  0  0  0  0  0  0  0
   55.8657   -3.9421  -10.9459 C   0  0  0  0  0  0  0  0  0  0  0  0
   56.6140   -4.4986   -9.9426 C   0  0  0  0  0  0  0  0  0  0  0  0
   58.3178   -3.6717  -13.7251 N   0  0  0  0  0  0  0  0  0  0  0  0
   57.3707   -3.6305  -14.8122 C   0  0  0  0  0  0  0  0  0  0  0  0
   57.9024   -3.1513  -16.1131 C   0  0  0  0  0  0  0  0  0  0  0  0
   59.2056   -2.4253  -15.9832 C   0  0  0  0  0  0  0  0  0  0  0  0
   60.1905   -3.3360  -15.2795 C   0  0  0  0  0  0  0  0  0  0  0  0
   59.7208   -3.4491  -13.8515 C   0  0  0  0  0  0  0  0  0  0  0  0
   59.6797   -1.9826  -17.2718 N   0  0  0  0  0  0  0  0  0  0  0  0
   60.7654   -2.7745  -17.7669 C   0  0  0  0  0  0  0  0  0  0  0  0
   58.6161   -1.8153  -18.2345 C   0  0  0  0  0  0  0  0  0  0  0  0
   59.8608   -6.1164   -9.4567 C   0  0  0  0  0  0  0  0  0  0  0  0
   58.7222   -5.3595   -9.1628 O   0  0  0  0  0  0  0  0  0  0  0  0
   52.6472   -6.3727   -5.7341 N   0  0  0  0  0  0  0  0  0  0  0  0
   52.2920   -7.2728   -6.1165 H   0  0  0  0  0  0  0  0  0  0  0  0
   52.6126   -6.1660   -4.3580 C   0  0  0  0  0  0  0  0  0  0  0  0
   51.5466   -5.5543   -3.6979 C   0  0  0  0  0  0  0  0  0  0  0  0
   51.4892   -5.4728   -2.3146 C   0  0  0  0  0  0  0  0  0  0  0  0
   52.4859   -5.9954   -1.5392 C   0  0  0  0  0  0  0  0  0  0  0  0
   53.5320   -6.5945   -2.1863 C   0  0  0  0  0  0  0  0  0  0  0  0
   53.6397   -6.7016   -3.5793 C   0  0  0  0  0  0  0  0  0  0  0  0
   55.0778   -7.3766   -4.2162 S   0  0  0  0  0  0  0  0  0  0  0  0
   55.5274   -8.5036   -3.2574 O   0  0  0  0  0  0  0  0  0  0  0  0
   54.9116   -8.1075   -5.5261 O   0  0  0  0  0  0  0  0  0  0  0  0
   56.4661   -6.2928   -4.3010 C   0  0  0  0  0  0  0  0  0  0  0  0
   56.0494   -4.8570   -3.9671 C   0  0  0  0  0  0  0  0  0  0  0  0
   57.6018   -6.6278   -3.4261 C   0  0  0  0  0  0  0  0  0  0  0  0
 25 26  1  0  0  0
 26 10  1  0  0  0
 10 11  2  0  0  0
 11 12  1  0  0  0
 12 13  2  0  0  0
 13 14  1  0  0  0
 14 15  2  0  0  0
 15  8  1  0  0  0
  8  1  1  0  0  0
  1  2  2  0  0  0
  2  3  1  0  0  0
  3  4  2  0  0  0
  4  5  1  0  0  0
  4  6  1  0  0  0
  6 27  1  0  0  0
 27 29  1  0  0  0
 29 30  2  0  0  0
 30 31  1  0  0  0
 31 32  2  0  0  0
 32 33  1  0  0  0
 33 34  2  0  0  0
 34 35  1  0  0  0
 35 36  2  0  0  0
 35 37  2  0  0  0
 35 38  1  0  0  0
 38 39  1  0  0  0
 38 40  1  0  0  0
  6  7  2  0  0  0
 12 16  1  0  0  0
 16 17  1  0  0  0
 17 18  1  0  0  0
 18 19  1  0  0  0
 19 20  1  0  0  0
 20 21  1  0  0  0
 19 22  1  0  0  0
 22 23  1  0  0  0
 22 24  1  0  0  0
 15 10  1  0  0  0
  7  1  1  0  0  0
 21 16  1  0  0  0
 34 29  1  0  0  0
  8  9  1  0  0  0
 27 28  1  0  0  0
M  END
> <minimizedAffinity>
-8.75515

> <CNNscore>
0.3334278464

> <CNNaffinity>
7.2982110977

> <CNN_VS>
2.4334268570

> <CNNaffinity_variance>
0.0513084754

$$$$
[H]c1nc(N([H])c2c([H])c([H])c(N3C([H])([H])C([H])([H])C([H])(N(C([H])([H])[H])C([H])([H])[H])C([H])([H])C3([H])[H])c([H])c2OC([H])([H])[H])nc(N([H])c2c([H])c([H])c([H])c([H])c2S(=O)(=O)C([H])(C([H])([H])[H])C([H])([H])[H])c1Cl


 40 43  0  0  0  0  0  0  0  0999 V2000
   60.4370   -6.6293   -9.3354 C   0  0  0  0  0  0  0  0  0  0  0  0
   60.2242   -7.7786   -9.9671 N   0  0  0  0  0  0  0  0  0  0  0  0
   60.9711   -8.8724   -9.7716 C   0  0  0  0  0  0  0  0  0  0  0  0
   62.0161   -8.8563   -8.8883 C   0  0  0  0  0  0  0  0  0  0  0  0
   63.0182  -10.2578   -8.5869 Cl  0  0  0  0  0  0  0  0  0  0  0  0
   62.2905   -7.6599   -8.1866 C   0  0  0  0  0  0  0  0  0  0  0  0
   61.4882   -6.6560   -8.4640 N   0  0  0  0  0  0  0  0  0  0  0  0
   59.6993   -5.4233   -9.4792 N   0  0  0  0  0  0  0  0  0  0  0  0
   60.2444   -4.5683   -9.8587 H   0  0  0  0  0  0  0  0  0  0  0  0
   57.5017   -4.8666  -10.2701 C   0  0  0  0  0  0  0  0  0  0  0  0
   56.1879   -4.6413   -9.9989 C   0  0  0  0  0  0  0  0  0  0  0  0
   55.6508   -4.7165   -8.7412 C   0  0  0  0  0  0  0  0  0  0  0  0
   56.4994   -5.0376   -7.7133 C   0  0  0  0  0  0  0  0  0  0  0  0
   57.8508   -5.2787   -7.9273 C   0  0  0  0  0  0  0  0  0  0  0  0
   58.3640   -5.1972   -9.1948 C   0  0  0  0  0  0  0  0  0  0  0  0
   54.2608   -4.4789   -8.4587 N   0  0  0  0  0  0  0  0  0  0  0  0
   53.5546   -5.5675   -7.8289 C   0  0  0  0  0  0  0  0  0  0  0  0
   52.1753   -5.2626   -7.3713 C   0  0  0  0  0  0  0  0  0  0  0  0
   51.8983   -3.7938   -7.2798 C   0  0  0  0  0  0  0  0  0  0  0  0
   52.1893   -3.1690   -8.6287 C   0  0  0  0  0  0  0  0  0  0  0  0
   53.6850   -3.2220   -8.8089 C   0  0  0  0  0  0  0  0  0  0  0  0
   50.5480   -3.5509   -6.8336 N   0  0  0  0  0  0  0  0  0  0  0  0
   50.3023   -4.0433   -5.5114 C   0  0  0  0  0  0  0  0  0  0  0  0
   50.1357   -2.1783   -7.0121 C   0  0  0  0  0  0  0  0  0  0  0  0
   57.7819   -3.6664  -12.3408 C   0  0  0  0  0  0  0  0  0  0  0  0
   58.0314   -4.7877  -11.5433 O   0  0  0  0  0  0  0  0  0  0  0  0
   63.3905   -7.6151   -7.3022 N   0  0  0  0  0  0  0  0  0  0  0  0
   63.7410   -8.5439   -6.9905 H   0  0  0  0  0  0  0  0  0  0  0  0
   64.0001   -6.4655   -6.8077 C   0  0  0  0  0  0  0  0  0  0  0  0
   64.5644   -5.4826   -7.6212 C   0  0  0  0  0  0  0  0  0  0  0  0
   65.0552   -4.2935   -7.1031 C   0  0  0  0  0  0  0  0  0  0  0  0
   65.0024   -4.0383   -5.7614 C   0  0  0  0  0  0  0  0  0  0  0  0
   64.4499   -5.0025   -4.9632 C   0  0  0  0  0  0  0  0  0  0  0  0
   63.9422   -6.2204   -5.4350 C   0  0  0  0  0  0  0  0  0  0  0  0
   63.3988   -7.3575   -4.2768 S   0  0  0  0  0  0  0  0  0  0  0  0
   64.1631   -8.6784   -4.5273 O   0  0  0  0  0  0  0  0  0  0  0  0
   63.7628   -7.0338   -2.8484 O   0  0  0  0  0  0  0  0  0  0  0  0
   61.6973   -7.8088   -4.3794 C   0  0  0  0  0  0  0  0  0  0  0  0
   61.5539   -9.2810   -4.7774 C   0  0  0  0  0  0  0  0  0  0  0  0
   60.9019   -7.6121   -3.1563 C   0  0  0  0  0  0  0  0  0  0  0  0
 25 26  1  0  0  0
 26 10  1  0  0  0
 10 11  2  0  0  0
 11 12  1  0  0  0
 12 13  2  0  0  0
 13 14  1  0  0  0
 14 15  2  0  0  0
 15  8  1  0  0  0
  8  1  1  0  0  0
  1  2  2  0  0  0
  2  3  1  0  0  0
  3  4  2  0  0  0
  4  5  1  0  0  0
  4  6  1  0  0  0
  6 27  1  0  0  0
 27 29  1  0  0  0
 29 30  2  0  0  0
 30 31  1  0  0  0
 31 32  2  0  0  0
 32 33  1  0  0  0
 33 34  2  0  0  0
 34 35  1  0  0  0
 35 36  2  0  0  0
 35 37  2  0  0  0
 35 38  1  0  0  0
 38 39  1  0  0  0
 38 40  1  0  0  0
  6  7  2  0  0  0
 12 16  1  0  0  0
 16 17  1  0  0  0
 17 18  1  0  0  0
 18 19  1  0  0  0
 19 20  1  0  0  0
 20 21  1  0  0  0
 19 22  1  0  0  0
 22 23  1  0  0  0
 22 24  1  0  0  0
 15 10  1  0  0  0
  7  1  1  0  0  0
 21 16  1  0  0  0
 34 29  1  0  0  0
  8  9  1  0  0  0
 27 28  1  0  0  0
M  END
> <minimizedAffinity>
-8.06043

> <CNNscore>
0.2764265835

> <CNNaffinity>
6.5224266052

> <CNN_VS>
1.8029720783

> <CNNaffinity_variance>
0.3623194695

$$$$
[H]c1nc(N([H])c2c([H])c([H])c(N3C([H])([H])C([H])([H])C([H])(N(C([H])([H])[H])C([H])([H])[H])C([H])([H])C3([H])[H])c([H])c2OC([H])([H])[H])nc(N([H])c2c([H])c([H])c([H])c([H])c2S(=O)(=O)C([H])(C([H])([H])[H])C([H])([H])[H])c1Cl


 40 43  0  0  0  0  0  0  0  0999 V2000
   60.7937   -6.5096   -9.5454 C   0  0  0  0  0  0  0  0  0  0  0  0
   61.7760   -6.0373   -8.7855 N   0  0  0  0  0  0  0  0  0  0  0  0
   62.7217   -6.8141   -8.2426 C   0  0  0  0  0  0  0  0  0  0  0  0
   62.7199   -8.1665   -8.4511 C   0  0  0  0  0  0  0  0  0  0  0  0
   63.9352   -9.2269   -7.7747 Cl  0  0  0  0  0  0  0  0  0  0  0  0
   61.6978   -8.7262   -9.2519 C   0  0  0  0  0  0  0  0  0  0  0  0
   60.8286   -7.8625   -9.7281 N   0  0  0  0  0  0  0  0  0  0  0  0
   59.7519   -5.7637  -10.1601 N   0  0  0  0  0  0  0  0  0  0  0  0
   59.9429   -5.4088  -11.1650 H   0  0  0  0  0  0  0  0  0  0  0  0
   57.5312   -4.9277  -10.5262 C   0  0  0  0  0  0  0  0  0  0  0  0
   56.3132   -4.5947  -10.0203 C   0  0  0  0  0  0  0  0  0  0  0  0
   55.9841   -4.7174   -8.6964 C   0  0  0  0  0  0  0  0  0  0  0  0
   56.9479   -5.2038   -7.8514 C   0  0  0  0  0  0  0  0  0  0  0  0
   58.2103   -5.5609   -8.3086 C   0  0  0  0  0  0  0  0  0  0  0  0
   58.5151   -5.4289   -9.6375 C   0  0  0  0  0  0  0  0  0  0  0  0
   54.6946   -4.3655   -8.1656 N   0  0  0  0  0  0  0  0  0  0  0  0
   54.0874   -3.1837   -8.7271 C   0  0  0  0  0  0  0  0  0  0  0  0
   52.6848   -2.9219   -8.3162 C   0  0  0  0  0  0  0  0  0  0  0  0
   52.0153   -4.1197   -7.7166 C   0  0  0  0  0  0  0  0  0  0  0  0
   52.8563   -4.6032   -6.5532 C   0  0  0  0  0  0  0  0  0  0  0  0
   54.1153   -5.1802   -7.1484 C   0  0  0  0  0  0  0  0  0  0  0  0
   50.6585   -3.8138   -7.3334 N   0  0  0  0  0  0  0  0  0  0  0  0
   50.2311   -4.5389   -6.1747 C   0  0  0  0  0  0  0  0  0  0  0  0
   50.4083   -2.3947   -7.2372 C   0  0  0  0  0  0  0  0  0  0  0  0
   56.9471   -4.2037  -12.7492 C   0  0  0  0  0  0  0  0  0  0  0  0
   57.8509   -4.7995  -11.8638 O   0  0  0  0  0  0  0  0  0  0  0  0
   61.6585  -10.1248   -9.4429 N   0  0  0  0  0  0  0  0  0  0  0  0
   61.6587  -10.4321  -10.4370 H   0  0  0  0  0  0  0  0  0  0  0  0
   61.5894  -11.0886   -8.4408 C   0  0  0  0  0  0  0  0  0  0  0  0
   60.8501  -10.9287   -7.2686 C   0  0  0  0  0  0  0  0  0  0  0  0
   60.7043  -11.9547   -6.3470 C   0  0  0  0  0  0  0  0  0  0  0  0
   61.2856  -13.1738   -6.5567 C   0  0  0  0  0  0  0  0  0  0  0  0
   62.0114  -13.3306   -7.7058 C   0  0  0  0  0  0  0  0  0  0  0  0
   62.1916  -12.3272   -8.6672 C   0  0  0  0  0  0  0  0  0  0  0  0
   63.2317  -12.6649   -9.9839 S   0  0  0  0  0  0  0  0  0  0  0  0
   63.9881  -11.3601  -10.3260 O   0  0  0  0  0  0  0  0  0  0  0  0
   64.3554  -13.6244   -9.6768 O   0  0  0  0  0  0  0  0  0  0  0  0
   62.4416  -13.1226  -11.4924 C   0  0  0  0  0  0  0  0  0  0  0  0
   63.2230  -14.2388  -12.1924 C   0  0  0  0  0  0  0  0  0  0  0  0
   61.0461  -13.5776  -11.3786 C   0  0  0  0  0  0  0  0  0  0  0  0
 25 26  1  0  0  0
 26 10  1  0  0  0
 10 11  2  0  0  0
 11 12  1  0  0  0
 12 13  2  0  0  0
 13 14  1  0  0  0
 14 15  2  0  0  0
 15  8  1  0  0  0
  8  1  1  0  0  0
  1  2  2  0  0  0
  2  3  1  0  0  0
  3  4  2  0  0  0
  4  5  1  0  0  0
  4  6  1  0  0  0
  6 27  1  0  0  0
 27 29  1  0  0  0
 29 30  2  0  0  0
 30 31  1  0  0  0
 31 32  2  0  0  0
 32 33  1  0  0  0
 33 34  2  0  0  0
 34 35  1  0  0  0
 35 36  2  0  0  0
 35 37  2  0  0  0
 35 38  1  0  0  0
 38 39  1  0  0  0
 38 40  1  0  0  0
  6  7  2  0  0  0
 12 16  1  0  0  0
 16 17  1  0  0  0
 17 18  1  0  0  0
 18 19  1  0  0  0
 19 20  1  0  0  0
 20 21  1  0  0  0
 19 22  1  0  0  0
 22 23  1  0  0  0
 22 24  1  0  0  0
 15 10  1  0  0  0
  7  1  1  0  0  0
 21 16  1  0  0  0
 34 29  1  0  0  0
  8  9  1  0  0  0
 27 28  1  0  0  0
M  END
> <minimizedAffinity>
-7.95673

> <CNNscore>
0.2523784637

> <CNNaffinity>
6.3286085129

> <CNN_VS>
1.5972044468

> <CNNaffinity_variance>
0.2868877053

$$$$
[H]c1nc(N([H])c2c([H])c([H])c(N3C([H])([H])C([H])([H])C([H])(N(C([H])([H])[H])C([H])([H])[H])C([H])([H])C3([H])[H])c([H])c2OC([H])([H])[H])nc(N([H])c2c([H])c([H])c([H])c([H])c2S(=O)(=O)C([H])(C([H])([H])[H])C([H])([H])[H])c1Cl


 40 43  0  0  0  0  0  0  0  0999 V2000
   50.3736   -5.0709   -3.4649 C   0  0  0  0  0  0  0  0  0  0  0  0
   49.4748   -4.0998   -3.5849 N   0  0  0  0  0  0  0  0  0  0  0  0
   49.2468   -3.4490   -4.7326 C   0  0  0  0  0  0  0  0  0  0  0  0
   49.9480   -3.7627   -5.8650 C   0  0  0  0  0  0  0  0  0  0  0  0
   49.6848   -2.9522   -7.3924 Cl  0  0  0  0  0  0  0  0  0  0  0  0
   50.9186   -4.7886   -5.7973 C   0  0  0  0  0  0  0  0  0  0  0  0
   51.0506   -5.3523   -4.6170 N   0  0  0  0  0  0  0  0  0  0  0  0
   50.6817   -5.8129   -2.2928 N   0  0  0  0  0  0  0  0  0  0  0  0
   49.8435   -6.2557   -1.7698 H   0  0  0  0  0  0  0  0  0  0  0  0
   52.2500   -7.3753   -1.3632 C   0  0  0  0  0  0  0  0  0  0  0  0
   53.4680   -7.6118   -0.8058 C   0  0  0  0  0  0  0  0  0  0  0  0
   54.3988   -6.6334   -0.5770 C   0  0  0  0  0  0  0  0  0  0  0  0
   54.0660   -5.3527   -0.9360 C   0  0  0  0  0  0  0  0  0  0  0  0
   52.8375   -5.0486   -1.5092 C   0  0  0  0  0  0  0  0  0  0  0  0
   51.9234   -6.0451   -1.7279 C   0  0  0  0  0  0  0  0  0  0  0  0
   55.6862   -6.8878    0.0113 N   0  0  0  0  0  0  0  0  0  0  0  0
   55.9139   -8.2398    0.4596 C   0  0  0  0  0  0  0  0  0  0  0  0
   57.2986   -8.5497    0.8970 C   0  0  0  0  0  0  0  0  0  0  0  0
   58.3014   -7.5399    0.4310 C   0  0  0  0  0  0  0  0  0  0  0  0
   57.8584   -6.1725    0.9090 C   0  0  0  0  0  0  0  0  0  0  0  0
   56.6274   -5.8211    0.1129 C   0  0  0  0  0  0  0  0  0  0  0  0
   59.6277   -7.8845    0.8823 N   0  0  0  0  0  0  0  0  0  0  0  0
   59.9694   -9.2490    0.6135 C   0  0  0  0  0  0  0  0  0  0  0  0
   60.6339   -6.9503    0.4345 C   0  0  0  0  0  0  0  0  0  0  0  0
   51.6495   -9.7090   -1.3508 C   0  0  0  0  0  0  0  0  0  0  0  0
   51.3197   -8.3710   -1.5889 O   0  0  0  0  0  0  0  0  0  0  0  0
   51.6792   -5.0961   -6.9468 N   0  0  0  0  0  0  0  0  0  0  0  0
   51.5510   -6.0619   -7.3122 H   0  0  0  0  0  0  0  0  0  0  0  0
   52.5790   -4.2485   -7.5868 C   0  0  0  0  0  0  0  0  0  0  0  0
   52.1898   -3.1472   -8.3497 C   0  0  0  0  0  0  0  0  0  0  0  0
   53.1124   -2.2538   -8.8731 C   0  0  0  0  0  0  0  0  0  0  0  0
   54.4515   -2.4214   -8.6572 C   0  0  0  0  0  0  0  0  0  0  0  0
   54.8336   -3.5018   -7.9098 C   0  0  0  0  0  0  0  0  0  0  0  0
   53.9436   -4.4345   -7.3604 C   0  0  0  0  0  0  0  0  0  0  0  0
   54.6092   -5.7903   -6.5553 S   0  0  0  0  0  0  0  0  0  0  0  0
   53.7702   -7.0266   -6.9542 O   0  0  0  0  0  0  0  0  0  0  0  0
   55.9973   -6.1776   -7.0031 O   0  0  0  0  0  0  0  0  0  0  0  0
   54.5301   -5.7560   -4.7941 C   0  0  0  0  0  0  0  0  0  0  0  0
   54.5083   -7.1793   -4.2283 C   0  0  0  0  0  0  0  0  0  0  0  0
   55.6185   -5.0363   -4.1123 C   0  0  0  0  0  0  0  0  0  0  0  0
 25 26  1  0  0  0
 26 10  1  0  0  0
 10 11  2  0  0  0
 11 12  1  0  0  0
 12 13  2  0  0  0
 13 14  1  0  0  0
 14 15  2  0  0  0
 15  8  1  0  0  0
  8  1  1  0  0  0
  1  2  2  0  0  0
  2  3  1  0  0  0
  3  4  2  0  0  0
  4  5  1  0  0  0
  4  6  1  0  0  0
  6 27  1  0  0  0
 27 29  1  0  0  0
 29 30  2  0  0  0
 30 31  1  0  0  0
 31 32  2  0  0  0
 32 33  1  0  0  0
 33 34  2  0  0  0
 34 35  1  0  0  0
 35 36  2  0  0  0
 35 37  2  0  0  0
 35 38  1  0  0  0
 38 39  1  0  0  0
 38 40  1  0  0  0
  6  7  2  0  0  0
 12 16  1  0  0  0
 16 17  1  0  0  0
 17 18  1  0  0  0
 18 19  1  0  0  0
 19 20  1  0  0  0
 20 21  1  0  0  0
 19 22  1  0  0  0
 22 23  1  0  0  0
 22 24  1  0  0  0
 15 10  1  0  0  0
  7  1  1  0  0  0
 21 16  1  0  0  0
 34 29  1  0  0  0
  8  9  1  0  0  0
 27 28  1  0  0  0
M  END
> <minimizedAffinity>
-8.63039

> <CNNscore>
0.2356534004

> <CNNaffinity>
7.5201964378

> <CNN_VS>
1.7721598148

> <CNNaffinity_variance>
0.2988102138

$$$$
[H]c1nc(N([H])c2c([H])c([H])c(N3C([H])([H])C([H])([H])C([H])(N(C([H])([H])[H])C([H])([H])[H])C([H])([H])C3([H])[H])c([H])c2OC([H])([H])[H])nc(N([H])c2c([H])c([H])c([H])c([H])c2S(=O)(=O)C([H])(C([H])([H])[H])C([H])([H])[H])c1Cl


 40 43  0  0  0  0  0  0  0  0999 V2000
   60.1512   -6.2366   -9.4711 C   0  0  0  0  0  0  0  0  0  0  0  0
   60.9136   -5.9139   -8.4318 N   0  0  0  0  0  0  0  0  0  0  0  0
   61.8069   -6.7508   -7.8895 C   0  0  0  0  0  0  0  0  0  0  0  0
   61.9803   -8.0108   -8.3943 C   0  0  0  0  0  0  0  0  0  0  0  0
   63.1387   -9.1414   -7.7317 Cl  0  0  0  0  0  0  0  0  0  0  0  0
   61.1959   -8.4102   -9.5008 C   0  0  0  0  0  0  0  0  0  0  0  0
   60.3554   -7.5015   -9.9436 N   0  0  0  0  0  0  0  0  0  0  0  0
   59.1813   -5.4171  -10.1092 N   0  0  0  0  0  0  0  0  0  0  0  0
   59.4766   -4.9639  -11.0471 H   0  0  0  0  0  0  0  0  0  0  0  0
   56.9978   -4.5637  -10.6274 C   0  0  0  0  0  0  0  0  0  0  0  0
   55.7350   -4.2674  -10.2177 C   0  0  0  0  0  0  0  0  0  0  0  0
   55.2842   -4.4776   -8.9416 C   0  0  0  0  0  0  0  0  0  0  0  0
   56.1685   -5.0166   -8.0431 C   0  0  0  0  0  0  0  0  0  0  0  0
   57.4712   -5.3400   -8.4017 C   0  0  0  0  0  0  0  0  0  0  0  0
   57.8982   -5.1201   -9.6846 C   0  0  0  0  0  0  0  0  0  0  0  0
   53.9477   -4.1642   -8.5127 N   0  0  0  0  0  0  0  0  0  0  0  0
   53.2597   -5.2081   -7.7932 C   0  0  0  0  0  0  0  0  0  0  0  0
   51.9566   -4.8265   -7.1924 C   0  0  0  0  0  0  0  0  0  0  0  0
   51.7673   -3.3443   -7.0933 C   0  0  0  0  0  0  0  0  0  0  0  0
   51.9403   -2.7484   -8.4752 C   0  0  0  0  0  0  0  0  0  0  0  0
   53.4024   -2.8819   -8.8167 C   0  0  0  0  0  0  0  0  0  0  0  0
   50.4885   -3.0262   -6.5060 N   0  0  0  0  0  0  0  0  0  0  0  0
   49.4940   -2.6987   -7.4830 C   0  0  0  0  0  0  0  0  0  0  0  0
   50.0437   -4.0195   -5.5566 C   0  0  0  0  0  0  0  0  0  0  0  0
   56.5345   -3.9913  -12.9218 C   0  0  0  0  0  0  0  0  0  0  0  0
   57.4405   -4.3469  -11.9176 O   0  0  0  0  0  0  0  0  0  0  0  0
   61.3338   -9.7211  -10.0074 N   0  0  0  0  0  0  0  0  0  0  0  0
   60.5114  -10.3397   -9.8537 H   0  0  0  0  0  0  0  0  0  0  0  0
   62.4567  -10.2409  -10.6451 C   0  0  0  0  0  0  0  0  0  0  0  0
   63.2152   -9.5261  -11.5724 C   0  0  0  0  0  0  0  0  0  0  0  0
   64.3962  -10.0285  -12.0981 C   0  0  0  0  0  0  0  0  0  0  0  0
   64.8654  -11.2557  -11.7216 C   0  0  0  0  0  0  0  0  0  0  0  0
   64.1212  -11.9573  -10.8129 C   0  0  0  0  0  0  0  0  0  0  0  0
   62.9217  -11.4972  -10.2534 C   0  0  0  0  0  0  0  0  0  0  0  0
   62.0641  -12.5624   -9.2241 S   0  0  0  0  0  0  0  0  0  0  0  0
   63.0992  -13.2652   -8.3151 O   0  0  0  0  0  0  0  0  0  0  0  0
   61.1553  -11.8879   -8.2257 O   0  0  0  0  0  0  0  0  0  0  0  0
   61.2111  -13.8840  -10.0211 C   0  0  0  0  0  0  0  0  0  0  0  0
   61.0049  -13.5732  -11.5069 C   0  0  0  0  0  0  0  0  0  0  0  0
   61.8510  -15.2074   -9.9410 C   0  0  0  0  0  0  0  0  0  0  0  0
 25 26  1  0  0  0
 26 10  1  0  0  0
 10 11  2  0  0  0
 11 12  1  0  0  0
 12 13  2  0  0  0
 13 14  1  0  0  0
 14 15  2  0  0  0
 15  8  1  0  0  0
  8  1  1  0  0  0
  1  2  2  0  0  0
  2  3  1  0  0  0
  3  4  2  0  0  0
  4  5  1  0  0  0
  4  6  1  0  0  0
  6 27  1  0  0  0
 27 29  1  0  0  0
 29 30  2  0  0  0
 30 31  1  0  0  0
 31 32  2  0  0  0
 32 33  1  0  0  0
 33 34  2  0  0  0
 34 35  1  0  0  0
 35 36  2  0  0  0
 35 37  2  0  0  0
 35 38  1  0  0  0
 38 39  1  0  0  0
 38 40  1  0  0  0
  6  7  2  0  0  0
 12 16  1  0  0  0
 16 17  1  0  0  0
 17 18  1  0  0  0
 18 19  1  0  0  0
 19 20  1  0  0  0
 20 21  1  0  0  0
 19 22  1  0  0  0
 22 23  1  0  0  0
 22 24  1  0  0  0
 15 10  1  0  0  0
  7  1  1  0  0  0
 21 16  1  0  0  0
 34 29  1  0  0  0
  8  9  1  0  0  0
 27 28  1  0  0  0
M  END
> <minimizedAffinity>
-8.21697

> <CNNscore>
0.2324961126

> <CNNaffinity>
6.2324457169

> <CNN_VS>
1.4490194321

> <CNNaffinity_variance>
0.2689290941

$$$$
[H]c1nc(N([H])c2c([H])c([H])c(C(=O)N([H])C3([H])C([H])([H])C([H])([H])N(C([H])([H])[H])C([H])([H])C3([H])[H])c([H])c2[H])nc2c1N(C([H])([H])[H])C(=O)[C@@]([H])(C([H])([H])C([H])([H])[H])N2C1([H])C([H])([H])C([H])([H])C([H])([H])C1([H])[H]


 38 42  0  0  0  0  0  0  0  0999 V2000
   52.7309   -5.3132   -4.1995 C   0  0  0  0  0  0  0  0  0  0  0  0
   53.5986   -5.5972   -5.2780 N   0  0  0  0  0  0  0  0  0  0  0  0
   53.3348   -4.8166   -6.4756 C   0  0  0  0  0  0  0  0  0  0  0  0
   54.3187   -4.5460   -7.3539 N   0  0  0  0  0  0  0  0  0  0  0  0
   54.0882   -3.8156   -8.4892 C   0  0  0  0  0  0  0  0  0  0  0  0
   52.8625   -3.3635   -8.7277 N   0  0  0  0  0  0  0  0  0  0  0  0
   51.8315   -3.5883   -7.9070 C   0  0  0  0  0  0  0  0  0  0  0  0
   52.0816   -4.3235   -6.7728 C   0  0  0  0  0  0  0  0  0  0  0  0
   51.0086   -4.5881   -5.8779 N   0  0  0  0  0  0  0  0  0  0  0  0
   49.6597   -4.1003   -6.1277 C   0  0  0  0  0  0  0  0  0  0  0  0
   51.3092   -5.3556   -4.7216 C   0  0  0  0  0  0  0  0  0  0  0  0
   50.4038   -6.0341   -4.1762 O   0  0  0  0  0  0  0  0  0  0  0  0
   54.6840   -6.5350   -5.3580 C   0  0  0  0  0  0  0  0  0  0  0  0
   54.5130   -7.8109   -4.6113 C   0  0  0  0  0  0  0  0  0  0  0  0
   55.7655   -8.0451   -3.8219 C   0  0  0  0  0  0  0  0  0  0  0  0
   56.6856   -6.8959   -4.0548 C   0  0  0  0  0  0  0  0  0  0  0  0
   56.0128   -5.9218   -4.9667 C   0  0  0  0  0  0  0  0  0  0  0  0
   53.5776   -5.3287   -1.9464 C   0  0  0  0  0  0  0  0  0  0  0  0
   52.7511   -6.1201   -2.9794 C   0  0  0  0  0  0  0  0  0  0  0  0
   55.1525   -3.5311   -9.3694 N   0  0  0  0  0  0  0  0  0  0  0  0
   55.0125   -2.6986  -10.0491 H   0  0  0  0  0  0  0  0  0  0  0  0
   56.3777   -4.1826   -9.4819 C   0  0  0  0  0  0  0  0  0  0  0  0
   57.0400   -4.5721   -8.3136 C   0  0  0  0  0  0  0  0  0  0  0  0
   58.2381   -5.2361   -8.3426 C   0  0  0  0  0  0  0  0  0  0  0  0
   58.8535   -5.5554   -9.5342 C   0  0  0  0  0  0  0  0  0  0  0  0
   58.2163   -5.1810  -10.6893 C   0  0  0  0  0  0  0  0  0  0  0  0
   56.9858   -4.4990  -10.6615 C   0  0  0  0  0  0  0  0  0  0  0  0
   60.1291   -6.2610   -9.6189 C   0  0  0  0  0  0  0  0  0  0  0  0
   60.8640   -6.0486  -10.6157 O   0  0  0  0  0  0  0  0  0  0  0  0
   60.5621   -7.1640   -8.6308 N   0  0  0  0  0  0  0  0  0  0  0  0
   60.0074   -7.3989   -7.7655 H   0  0  0  0  0  0  0  0  0  0  0  0
   61.8417   -7.8322   -8.7735 C   0  0  0  0  0  0  0  0  0  0  0  0
   61.5391   -9.2195   -9.3307 C   0  0  0  0  0  0  0  0  0  0  0  0
   62.6177  -10.1483   -8.8133 C   0  0  0  0  0  0  0  0  0  0  0  0
   62.2903  -10.4016   -7.4144 N   0  0  0  0  0  0  0  0  0  0  0  0
   61.0668  -11.1857   -7.3513 C   0  0  0  0  0  0  0  0  0  0  0  0
   62.1661   -9.1800   -6.6805 C   0  0  0  0  0  0  0  0  0  0  0  0
   62.5633   -7.9553   -7.4689 C   0  0  0  0  0  0  0  0  0  0  0  0
 18 19  1  0  0  0
 19  1  1  0  0  0
  1  2  1  0  0  0
  2 13  1  0  0  0
 13 14  1  0  0  0
 14 15  1  0  0  0
 15 16  1  0  0  0
 16 17  1  0  0  0
  2  3  1  0  0  0
  3  4  2  0  0  0
  4  5  1  0  0  0
  5 20  1  0  0  0
 20 22  1  0  0  0
 22 23  2  0  0  0
 23 24  1  0  0  0
 24 25  2  0  0  0
 25 26  1  0  0  0
 26 27  2  0  0  0
 25 28  1  0  0  0
 28 29  2  0  0  0
 28 30  1  0  0  0
 30 32  1  0  0  0
 32 33  1  0  0  0
 33 34  1  0  0  0
 34 35  1  0  0  0
 35 36  1  0  0  0
 35 37  1  0  0  0
 37 38  1  0  0  0
  5  6  2  0  0  0
  6  7  1  0  0  0
  7  8  2  0  0  0
  8  9  1  0  0  0
  9 10  1  0  0  0
  9 11  1  0  0  0
 11 12  2  0  0  0
 11  1  1  0  0  0
 17 13  1  0  0  0
  8  3  1  0  0  0
 27 22  1  0  0  0
 38 32  1  0  0  0
 20 21  1  0  0  0
 30 31  1  0  0  0
M  END
> <minimizedAffinity>
-9.05253

> <CNNscore>
0.7206383348

> <CNNaffinity>
7.6445608139

> <CNN_VS>
5.5089635849

> <CNNaffinity_variance>
0.0812916309

$$$$
[H]c1nc(N([H])c2c([H])c([H])c(C(=O)N([H])C3([H])C([H])([H])C([H])([H])N(C([H])([H])[H])C([H])([H])C3([H])[H])c([H])c2[H])nc2c1N(C([H])([H])[H])C(=O)[C@@]([H])(C([H])([H])C([H])([H])[H])N2C1([H])C([H])([H])C([H])([H])C([H])([H])C1([H])[H]


 38 42  0  0  0  0  0  0  0  0999 V2000
   64.2192   -2.3664  -16.0190 C   0  0  0  0  0  0  0  0  0  0  0  0
   64.1632   -2.6202  -14.6301 N   0  0  0  0  0  0  0  0  0  0  0  0
   63.8429   -3.9965  -14.2889 C   0  0  0  0  0  0  0  0  0  0  0  0
   64.2633   -4.5360  -13.1293 N   0  0  0  0  0  0  0  0  0  0  0  0
   63.9681   -5.8295  -12.7892 C   0  0  0  0  0  0  0  0  0  0  0  0
   63.2493   -6.5685  -13.6263 N   0  0  0  0  0  0  0  0  0  0  0  0
   62.7941   -6.1085  -14.7960 C   0  0  0  0  0  0  0  0  0  0  0  0
   63.0997   -4.8081  -15.1202 C   0  0  0  0  0  0  0  0  0  0  0  0
   62.6284   -4.2813  -16.3541 N   0  0  0  0  0  0  0  0  0  0  0  0
   61.8380   -5.0794  -17.2803 C   0  0  0  0  0  0  0  0  0  0  0  0
   62.9620   -2.9324  -16.6473 C   0  0  0  0  0  0  0  0  0  0  0  0
   62.2184   -2.2614  -17.4051 O   0  0  0  0  0  0  0  0  0  0  0  0
   64.3708   -1.7246  -13.5261 C   0  0  0  0  0  0  0  0  0  0  0  0
   63.3683   -0.6377  -13.3577 C   0  0  0  0  0  0  0  0  0  0  0  0
   64.1191    0.6454  -13.1667 C   0  0  0  0  0  0  0  0  0  0  0  0
   65.5774    0.3505  -13.2566 C   0  0  0  0  0  0  0  0  0  0  0  0
   65.7545   -1.1079  -13.5295 C   0  0  0  0  0  0  0  0  0  0  0  0
   65.7407   -0.9475  -17.2296 C   0  0  0  0  0  0  0  0  0  0  0  0
   64.3661   -1.0051  -16.5342 C   0  0  0  0  0  0  0  0  0  0  0  0
   64.4511   -6.3647  -11.5774 N   0  0  0  0  0  0  0  0  0  0  0  0
   64.9506   -5.6759  -10.9060 H   0  0  0  0  0  0  0  0  0  0  0  0
   64.3683   -7.6768  -11.1192 C   0  0  0  0  0  0  0  0  0  0  0  0
   64.9010   -7.9834   -9.8632 C   0  0  0  0  0  0  0  0  0  0  0  0
   64.8390   -9.2459   -9.3344 C   0  0  0  0  0  0  0  0  0  0  0  0
   64.2436  -10.2831  -10.0201 C   0  0  0  0  0  0  0  0  0  0  0  0
   63.7155   -9.9986  -11.2533 C   0  0  0  0  0  0  0  0  0  0  0  0
   63.7781   -8.7026  -11.7978 C   0  0  0  0  0  0  0  0  0  0  0  0
   64.1521  -11.6450   -9.5012 C   0  0  0  0  0  0  0  0  0  0  0  0
   64.8316  -12.5432  -10.0583 O   0  0  0  0  0  0  0  0  0  0  0  0
   63.3361  -11.9851   -8.4068 N   0  0  0  0  0  0  0  0  0  0  0  0
   62.7353  -11.2940   -7.8844 H   0  0  0  0  0  0  0  0  0  0  0  0
   63.2907  -13.3573   -7.9385 C   0  0  0  0  0  0  0  0  0  0  0  0
   61.9001  -13.5602   -7.3455 C   0  0  0  0  0  0  0  0  0  0  0  0
   62.0347  -14.5940   -6.2469 C   0  0  0  0  0  0  0  0  0  0  0  0
   62.6508  -13.9022   -5.1200 N   0  0  0  0  0  0  0  0  0  0  0  0
   61.7093  -12.9259   -4.5945 C   0  0  0  0  0  0  0  0  0  0  0  0
   63.8845  -13.2859   -5.5002 C   0  0  0  0  0  0  0  0  0  0  0  0
   64.3309  -13.6344   -6.8997 C   0  0  0  0  0  0  0  0  0  0  0  0
 18 19  1  0  0  0
 19  1  1  0  0  0
  1  2  1  0  0  0
  2 13  1  0  0  0
 13 14  1  0  0  0
 14 15  1  0  0  0
 15 16  1  0  0  0
 16 17  1  0  0  0
  2  3  1  0  0  0
  3  4  2  0  0  0
  4  5  1  0  0  0
  5 20  1  0  0  0
 20 22  1  0  0  0
 22 23  2  0  0  0
 23 24  1  0  0  0
 24 25  2  0  0  0
 25 26  1  0  0  0
 26 27  2  0  0  0
 25 28  1  0  0  0
 28 29  2  0  0  0
 28 30  1  0  0  0
 30 32  1  0  0  0
 32 33  1  0  0  0
 33 34  1  0  0  0
 34 35  1  0  0  0
 35 36  1  0  0  0
 35 37  1  0  0  0
 37 38  1  0  0  0
  5  6  2  0  0  0
  6  7  1  0  0  0
  7  8  2  0  0  0
  8  9  1  0  0  0
  9 10  1  0  0  0
  9 11  1  0  0  0
 11 12  2  0  0  0
 11  1  1  0  0  0
 17 13  1  0  0  0
  8  3  1  0  0  0
 27 22  1  0  0  0
 38 32  1  0  0  0
 20 21  1  0  0  0
 30 31  1  0  0  0
M  END
> <minimizedAffinity>
-3.35605

> <CNNscore>
0.5124264359

> <CNNaffinity>
5.0965147018

> <CNN_VS>
2.6115889549

> <CNNaffinity_variance>
0.3869965374

$$$$
[H]c1nc(N([H])c2c([H])c([H])c(C(=O)N([H])C3([H])C([H])([H])C([H])([H])N(C([H])([H])[H])C([H])([H])C3([H])[H])c([H])c2[H])nc2c1N(C([H])([H])[H])C(=O)[C@@]([H])(C([H])([H])C([H])([H])[H])N2C1([H])C([H])([H])C([H])([H])C([H])([H])C1([H])[H]


 38 42  0  0  0  0  0  0  0  0999 V2000
   53.0657   -5.3908   -4.5422 C   0  0  0  0  0  0  0  0  0  0  0  0
   54.0156   -5.7352   -5.5300 N   0  0  0  0  0  0  0  0  0  0  0  0
   53.8332   -5.0463   -6.7970 C   0  0  0  0  0  0  0  0  0  0  0  0
   54.8771   -4.8214   -7.6170 N   0  0  0  0  0  0  0  0  0  0  0  0
   54.7238   -4.1775   -8.8160 C   0  0  0  0  0  0  0  0  0  0  0  0
   53.5141   -3.7650   -9.1768 N   0  0  0  0  0  0  0  0  0  0  0  0
   52.4271   -3.9492   -8.4208 C   0  0  0  0  0  0  0  0  0  0  0  0
   52.6000   -4.5976   -7.2212 C   0  0  0  0  0  0  0  0  0  0  0  0
   51.4659   -4.8169   -6.3917 N   0  0  0  0  0  0  0  0  0  0  0  0
   50.1338   -4.3719   -6.7754 C   0  0  0  0  0  0  0  0  0  0  0  0
   51.6880   -5.4951   -5.1639 C   0  0  0  0  0  0  0  0  0  0  0  0
   50.7525   -6.1491   -4.6399 O   0  0  0  0  0  0  0  0  0  0  0  0
   55.1153   -6.6571   -5.4614 C   0  0  0  0  0  0  0  0  0  0  0  0
   54.8773   -7.9165   -4.7051 C   0  0  0  0  0  0  0  0  0  0  0  0
   56.0349   -8.1107   -3.7730 C   0  0  0  0  0  0  0  0  0  0  0  0
   56.9603   -6.9529   -3.9307 C   0  0  0  0  0  0  0  0  0  0  0  0
   56.3828   -6.0129   -4.9386 C   0  0  0  0  0  0  0  0  0  0  0  0
   53.8055   -5.2688   -2.2549 C   0  0  0  0  0  0  0  0  0  0  0  0
   53.0038   -6.1086   -3.2690 C   0  0  0  0  0  0  0  0  0  0  0  0
   55.8478   -3.9374   -9.6329 N   0  0  0  0  0  0  0  0  0  0  0  0
   55.7453   -3.1658  -10.3871 H   0  0  0  0  0  0  0  0  0  0  0  0
   57.0903   -4.5645   -9.5981 C   0  0  0  0  0  0  0  0  0  0  0  0
   57.6225   -4.9304   -8.3579 C   0  0  0  0  0  0  0  0  0  0  0  0
   58.8288   -5.5699   -8.2431 C   0  0  0  0  0  0  0  0  0  0  0  0
   59.5821   -5.8865   -9.3535 C   0  0  0  0  0  0  0  0  0  0  0  0
   59.0737   -5.5350  -10.5776 C   0  0  0  0  0  0  0  0  0  0  0  0
   57.8350   -4.8783  -10.6973 C   0  0  0  0  0  0  0  0  0  0  0  0
   60.8726   -6.5664   -9.2848 C   0  0  0  0  0  0  0  0  0  0  0  0
   61.2748   -6.9727   -8.1660 O   0  0  0  0  0  0  0  0  0  0  0  0
   61.6764   -6.7817  -10.4192 N   0  0  0  0  0  0  0  0  0  0  0  0
   61.4142   -6.4729  -11.3926 H   0  0  0  0  0  0  0  0  0  0  0  0
   62.9485   -7.4656  -10.2841 C   0  0  0  0  0  0  0  0  0  0  0  0
   64.0263   -6.4001  -10.4559 C   0  0  0  0  0  0  0  0  0  0  0  0
   65.2354   -7.0874  -11.0556 C   0  0  0  0  0  0  0  0  0  0  0  0
   64.9169   -7.3010  -12.4632 N   0  0  0  0  0  0  0  0  0  0  0  0
   64.8554   -6.0114  -13.1333 C   0  0  0  0  0  0  0  0  0  0  0  0
   63.6938   -8.0271  -12.6148 C   0  0  0  0  0  0  0  0  0  0  0  0
   63.1256   -8.5375  -11.3124 C   0  0  0  0  0  0  0  0  0  0  0  0
 18 19  1  0  0  0
 19  1  1  0  0  0
  1  2  1  0  0  0
  2 13  1  0  0  0
 13 14  1  0  0  0
 14 15  1  0  0  0
 15 16  1  0  0  0
 16 17  1  0  0  0
  2  3  1  0  0  0
  3  4  2  0  0  0
  4  5  1  0  0  0
  5 20  1  0  0  0
 20 22  1  0  0  0
 22 23  2  0  0  0
 23 24  1  0  0  0
 24 25  2  0  0  0
 25 26  1  0  0  0
 26 27  2  0  0  0
 25 28  1  0  0  0
 28 29  2  0  0  0
 28 30  1  0  0  0
 30 32  1  0  0  0
 32 33  1  0  0  0
 33 34  1  0  0  0
 34 35  1  0  0  0
 35 36  1  0  0  0
 35 37  1  0  0  0
 37 38  1  0  0  0
  5  6  2  0  0  0
  6  7  1  0  0  0
  7  8  2  0  0  0
  8  9  1  0  0  0
  9 10  1  0  0  0
  9 11  1  0  0  0
 11 12  2  0  0  0
 11  1  1  0  0  0
 17 13  1  0  0  0
  8  3  1  0  0  0
 27 22  1  0  0  0
 38 32  1  0  0  0
 20 21  1  0  0  0
 30 31  1  0  0  0
M  END
> <minimizedAffinity>
-8.12041

> <CNNscore>
0.4811756015

> <CNNaffinity>
7.1045808792

> <CNN_VS>
3.4185509682

> <CNNaffinity_variance>
0.3253184855

$$$$
[H]c1nc(N([H])c2c([H])c([H])c(C(=O)N([H])C3([H])C([H])([H])C([H])([H])N(C([H])([H])[H])C([H])([H])C3([H])[H])c([H])c2[H])nc2c1N(C([H])([H])[H])C(=O)[C@@]([H])(C([H])([H])C([H])([H])[H])N2C1([H])C([H])([H])C([H])([H])C([H])([H])C1([H])[H]


 38 42  0  0  0  0  0  0  0  0999 V2000
   63.7092   -4.1541  -15.5145 C   0  0  0  0  0  0  0  0  0  0  0  0
   63.8303   -5.2566  -14.6390 N   0  0  0  0  0  0  0  0  0  0  0  0
   63.5641   -6.5430  -15.2615 C   0  0  0  0  0  0  0  0  0  0  0  0
   64.1306   -7.6691  -14.7887 N   0  0  0  0  0  0  0  0  0  0  0  0
   63.8885   -8.8902  -15.3597 C   0  0  0  0  0  0  0  0  0  0  0  0
   63.0744   -8.9630  -16.4063 N   0  0  0  0  0  0  0  0  0  0  0  0
   62.4725   -7.8932  -16.9357 C   0  0  0  0  0  0  0  0  0  0  0  0
   62.7269   -6.6762  -16.3493 C   0  0  0  0  0  0  0  0  0  0  0  0
   62.1005   -5.5157  -16.8812 N   0  0  0  0  0  0  0  0  0  0  0  0
   61.2045   -5.5809  -18.0269 C   0  0  0  0  0  0  0  0  0  0  0  0
   62.3863   -4.2800  -16.2423 C   0  0  0  0  0  0  0  0  0  0  0  0
   61.5490   -3.3456  -16.2987 O   0  0  0  0  0  0  0  0  0  0  0  0
   64.1701   -5.2851  -13.2434 C   0  0  0  0  0  0  0  0  0  0  0  0
   65.5282   -5.7893  -12.9027 C   0  0  0  0  0  0  0  0  0  0  0  0
   65.3753   -6.7927  -11.7998 C   0  0  0  0  0  0  0  0  0  0  0  0
   63.9234   -6.9307  -11.4924 C   0  0  0  0  0  0  0  0  0  0  0  0
   63.1530   -6.0399  -12.4123 C   0  0  0  0  0  0  0  0  0  0  0  0
   65.2297   -2.3069  -15.2511 C   0  0  0  0  0  0  0  0  0  0  0  0
   63.7817   -2.7806  -15.0162 C   0  0  0  0  0  0  0  0  0  0  0  0
   64.5237  -10.0417  -14.8509 N   0  0  0  0  0  0  0  0  0  0  0  0
   65.4072  -10.3831  -15.3778 H   0  0  0  0  0  0  0  0  0  0  0  0
   64.1659  -10.8079  -13.7448 C   0  0  0  0  0  0  0  0  0  0  0  0
   64.0597  -10.1800  -12.5000 C   0  0  0  0  0  0  0  0  0  0  0  0
   63.6918  -10.8614  -11.3697 C   0  0  0  0  0  0  0  0  0  0  0  0
   63.4058  -12.2095  -11.4051 C   0  0  0  0  0  0  0  0  0  0  0  0
   63.5045  -12.8400  -12.6189 C   0  0  0  0  0  0  0  0  0  0  0  0
   63.8821  -12.1418  -13.7807 C   0  0  0  0  0  0  0  0  0  0  0  0
   63.0100  -12.9807  -10.2300 C   0  0  0  0  0  0  0  0  0  0  0  0
   62.5594  -14.1411  -10.4012 O   0  0  0  0  0  0  0  0  0  0  0  0
   63.1148  -12.4746   -8.9216 N   0  0  0  0  0  0  0  0  0  0  0  0
   63.4809  -11.5131   -8.6908 H   0  0  0  0  0  0  0  0  0  0  0  0
   62.7057  -13.2925   -7.7956 C   0  0  0  0  0  0  0  0  0  0  0  0
   61.3676  -12.7318   -7.3246 C   0  0  0  0  0  0  0  0  0  0  0  0
   61.2786  -12.9933   -5.8354 C   0  0  0  0  0  0  0  0  0  0  0  0
   62.1569  -12.0143   -5.2042 N   0  0  0  0  0  0  0  0  0  0  0  0
   61.5874  -10.6875   -5.3805 C   0  0  0  0  0  0  0  0  0  0  0  0
   63.4833  -12.0879   -5.7347 C   0  0  0  0  0  0  0  0  0  0  0  0
   63.6968  -13.2490   -6.6760 C   0  0  0  0  0  0  0  0  0  0  0  0
 18 19  1  0  0  0
 19  1  1  0  0  0
  1  2  1  0  0  0
  2 13  1  0  0  0
 13 14  1  0  0  0
 14 15  1  0  0  0
 15 16  1  0  0  0
 16 17  1  0  0  0
  2  3  1  0  0  0
  3  4  2  0  0  0
  4  5  1  0  0  0
  5 20  1  0  0  0
 20 22  1  0  0  0
 22 23  2  0  0  0
 23 24  1  0  0  0
 24 25  2  0  0  0
 25 26  1  0  0  0
 26 27  2  0  0  0
 25 28  1  0  0  0
 28 29  2  0  0  0
 28 30  1  0  0  0
 30 32  1  0  0  0
 32 33  1  0  0  0
 33 34  1  0  0  0
 34 35  1  0  0  0
 35 36  1  0  0  0
 35 37  1  0  0  0
 37 38  1  0  0  0
  5  6  2  0  0  0
  6  7  1  0  0  0
  7  8  2  0  0  0
  8  9  1  0  0  0
  9 10  1  0  0  0
  9 11  1  0  0  0
 11 12  2  0  0  0
 11  1  1  0  0  0
 17 13  1  0  0  0
  8  3  1  0  0  0
 27 22  1  0  0  0
 38 32  1  0  0  0
 20 21  1  0  0  0
 30 31  1  0  0  0
M  END
> <minimizedAffinity>
-2.74274

> <CNNscore>
0.4742933512

> <CNNaffinity>
5.2862577438

> <CNN_VS>
2.5072369576

> <CNNaffinity_variance>
0.0590647049

$$$$
[H]c1nc(N([H])c2c([H])c([H])c(C(=O)N([H])C3([H])C([H])([H])C([H])([H])N(C([H])([H])[H])C([H])([H])C3([H])[H])c([H])c2[H])nc2c1N(C([H])([H])[H])C(=O)[C@@]([H])(C([H])([H])C([H])([H])[H])N2C1([H])C([H])([H])C([H])([H])C([H])([H])C1([H])[H]


 38 42  0  0  0  0  0  0  0  0999 V2000
   53.1391   -5.4678   -4.0394 C   0  0  0  0  0  0  0  0  0  0  0  0
   54.0304   -5.8115   -5.0806 N   0  0  0  0  0  0  0  0  0  0  0  0
   53.7467   -5.1572   -6.3473 C   0  0  0  0  0  0  0  0  0  0  0  0
   54.7278   -4.9256   -7.2397 N   0  0  0  0  0  0  0  0  0  0  0  0
   54.4788   -4.3140   -8.4396 C   0  0  0  0  0  0  0  0  0  0  0  0
   53.2375   -3.9404   -8.7278 N   0  0  0  0  0  0  0  0  0  0  0  0
   52.2080   -4.1338   -7.8973 C   0  0  0  0  0  0  0  0  0  0  0  0
   52.4767   -4.7495   -6.6981 C   0  0  0  0  0  0  0  0  0  0  0  0
   51.4061   -4.9774   -5.7904 N   0  0  0  0  0  0  0  0  0  0  0  0
   50.0403   -4.5748   -6.0940 C   0  0  0  0  0  0  0  0  0  0  0  0
   51.7266   -5.6209   -4.5657 C   0  0  0  0  0  0  0  0  0  0  0  0
   50.8453   -6.2855   -3.9664 O   0  0  0  0  0  0  0  0  0  0  0  0
   55.1562   -6.7039   -5.0654 C   0  0  0  0  0  0  0  0  0  0  0  0
   54.9490   -8.0200   -4.4024 C   0  0  0  0  0  0  0  0  0  0  0  0
   56.1037   -8.2462   -3.4739 C   0  0  0  0  0  0  0  0  0  0  0  0
   56.9959   -7.0540   -3.5397 C   0  0  0  0  0  0  0  0  0  0  0  0
   56.3997   -6.0620   -4.4850 C   0  0  0  0  0  0  0  0  0  0  0  0
   53.9841   -5.2508   -1.7961 C   0  0  0  0  0  0  0  0  0  0  0  0
   53.1804   -6.1569   -2.7497 C   0  0  0  0  0  0  0  0  0  0  0  0
   55.5397   -4.0652   -9.3345 N   0  0  0  0  0  0  0  0  0  0  0  0
   55.3550   -3.3399  -10.1184 H   0  0  0  0  0  0  0  0  0  0  0  0
   56.8116   -4.6312   -9.3446 C   0  0  0  0  0  0  0  0  0  0  0  0
   57.4454   -4.8348  -10.5743 C   0  0  0  0  0  0  0  0  0  0  0  0
   58.7049   -5.3664  -10.6652 C   0  0  0  0  0  0  0  0  0  0  0  0
   59.4143   -5.7288   -9.5400 C   0  0  0  0  0  0  0  0  0  0  0  0
   58.8069   -5.5347   -8.3259 C   0  0  0  0  0  0  0  0  0  0  0  0
   57.5134   -4.9888   -8.2307 C   0  0  0  0  0  0  0  0  0  0  0  0
   60.7578   -6.2991   -9.5831 C   0  0  0  0  0  0  0  0  0  0  0  0
   61.2260   -6.6409  -10.6978 O   0  0  0  0  0  0  0  0  0  0  0  0
   61.5419   -6.4781   -8.4287 N   0  0  0  0  0  0  0  0  0  0  0  0
   61.2251   -6.2192   -7.4570 H   0  0  0  0  0  0  0  0  0  0  0  0
   62.8707   -7.0494   -8.5393 C   0  0  0  0  0  0  0  0  0  0  0  0
   63.0014   -8.0505   -7.3961 C   0  0  0  0  0  0  0  0  0  0  0  0
   64.4656   -8.0927   -7.0110 C   0  0  0  0  0  0  0  0  0  0  0  0
   64.7161   -6.8697   -6.2563 N   0  0  0  0  0  0  0  0  0  0  0  0
   63.9999   -6.9409   -4.9922 C   0  0  0  0  0  0  0  0  0  0  0  0
   64.3394   -5.7106   -7.0053 C   0  0  0  0  0  0  0  0  0  0  0  0
   63.9426   -6.0116   -8.4306 C   0  0  0  0  0  0  0  0  0  0  0  0
 18 19  1  0  0  0
 19  1  1  0  0  0
  1  2  1  0  0  0
  2 13  1  0  0  0
 13 14  1  0  0  0
 14 15  1  0  0  0
 15 16  1  0  0  0
 16 17  1  0  0  0
  2  3  1  0  0  0
  3  4  2  0  0  0
  4  5  1  0  0  0
  5 20  1  0  0  0
 20 22  1  0  0  0
 22 23  2  0  0  0
 23 24  1  0  0  0
 24 25  2  0  0  0
 25 26  1  0  0  0
 26 27  2  0  0  0
 25 28  1  0  0  0
 28 29  2  0  0  0
 28 30  1  0  0  0
 30 32  1  0  0  0
 32 33  1  0  0  0
 33 34  1  0  0  0
 34 35  1  0  0  0
 35 36  1  0  0  0
 35 37  1  0  0  0
 37 38  1  0  0  0
  5  6  2  0  0  0
  6  7  1  0  0  0
  7  8  2  0  0  0
  8  9  1  0  0  0
  9 10  1  0  0  0
  9 11  1  0  0  0
 11 12  2  0  0  0
 11  1  1  0  0  0
 17 13  1  0  0  0
  8  3  1  0  0  0
 27 22  1  0  0  0
 38 32  1  0  0  0
 20 21  1  0  0  0
 30 31  1  0  0  0
M  END
> <minimizedAffinity>
-8.54182

> <CNNscore>
0.4485144019

> <CNNaffinity>
7.2055916786

> <CNN_VS>
3.2318115234

> <CNNaffinity_variance>
0.1651105881

$$$$
[H]c1nc(N([H])c2c([H])c([H])c(C(=O)N([H])C3([H])C([H])([H])C([H])([H])N(C([H])([H])[H])C([H])([H])C3([H])[H])c([H])c2[H])nc2c1N(C([H])([H])[H])C(=O)[C@@]([H])(C([H])([H])C([H])([H])[H])N2C1([H])C([H])([H])C([H])([H])C([H])([H])C1([H])[H]


 38 42  0  0  0  0  0  0  0  0999 V2000
   62.3071   -3.6624  -16.1216 C   0  0  0  0  0  0  0  0  0  0  0  0
   62.9497   -4.9080  -16.3006 N   0  0  0  0  0  0  0  0  0  0  0  0
   63.7886   -5.3110  -15.1839 C   0  0  0  0  0  0  0  0  0  0  0  0
   64.0197   -6.6125  -14.9285 N   0  0  0  0  0  0  0  0  0  0  0  0
   64.8102   -7.0108  -13.8834 C   0  0  0  0  0  0  0  0  0  0  0  0
   65.3613   -6.0883  -13.1032 N   0  0  0  0  0  0  0  0  0  0  0  0
   65.1818   -4.7766  -13.2890 C   0  0  0  0  0  0  0  0  0  0  0  0
   64.3859   -4.3956  -14.3429 C   0  0  0  0  0  0  0  0  0  0  0  0
   64.1758   -3.0086  -14.5757 N   0  0  0  0  0  0  0  0  0  0  0  0
   64.7751   -1.9864  -13.7297 C   0  0  0  0  0  0  0  0  0  0  0  0
   63.3516   -2.6585  -15.6779 C   0  0  0  0  0  0  0  0  0  0  0  0
   63.5105   -1.5474  -16.2416 O   0  0  0  0  0  0  0  0  0  0  0  0
   62.8950   -5.8154  -17.4131 C   0  0  0  0  0  0  0  0  0  0  0  0
   61.9896   -6.9875  -17.2676 C   0  0  0  0  0  0  0  0  0  0  0  0
   62.7598   -8.2079  -17.6727 C   0  0  0  0  0  0  0  0  0  0  0  0
   64.1452   -7.7885  -18.0284 C   0  0  0  0  0  0  0  0  0  0  0  0
   64.2650   -6.3129  -17.8260 C   0  0  0  0  0  0  0  0  0  0  0  0
   60.0742   -3.3651  -16.9698 C   0  0  0  0  0  0  0  0  0  0  0  0
   61.5601   -3.0328  -17.2105 C   0  0  0  0  0  0  0  0  0  0  0  0
   65.0045   -8.3850  -13.6339 N   0  0  0  0  0  0  0  0  0  0  0  0
   65.8037   -8.8707  -14.1816 H   0  0  0  0  0  0  0  0  0  0  0  0
   64.3003   -9.2126  -12.7636 C   0  0  0  0  0  0  0  0  0  0  0  0
   64.2396  -10.5816  -13.0415 C   0  0  0  0  0  0  0  0  0  0  0  0
   63.5847  -11.4628  -12.2220 C   0  0  0  0  0  0  0  0  0  0  0  0
   62.9490  -11.0393  -11.0743 C   0  0  0  0  0  0  0  0  0  0  0  0
   62.9999   -9.6994  -10.7869 C   0  0  0  0  0  0  0  0  0  0  0  0
   63.6722   -8.7930  -11.6275 C   0  0  0  0  0  0  0  0  0  0  0  0
   62.2378  -11.9373  -10.1687 C   0  0  0  0  0  0  0  0  0  0  0  0
   61.9294  -13.0825  -10.5834 O   0  0  0  0  0  0  0  0  0  0  0  0
   61.8880  -11.5686   -8.8568 N   0  0  0  0  0  0  0  0  0  0  0  0
   62.1080  -10.6291   -8.4318 H   0  0  0  0  0  0  0  0  0  0  0  0
   61.1824  -12.5081   -8.0061 C   0  0  0  0  0  0  0  0  0  0  0  0
   60.4399  -11.6710   -6.9695 C   0  0  0  0  0  0  0  0  0  0  0  0
   60.3415  -12.5098   -5.7123 C   0  0  0  0  0  0  0  0  0  0  0  0
   61.6677  -12.4780   -5.1054 N   0  0  0  0  0  0  0  0  0  0  0  0
   61.9358  -11.1299   -4.6294 C   0  0  0  0  0  0  0  0  0  0  0  0
   62.6712  -12.9158   -6.0261 C   0  0  0  0  0  0  0  0  0  0  0  0
   62.1127  -13.4577   -7.3199 C   0  0  0  0  0  0  0  0  0  0  0  0
 18 19  1  0  0  0
 19  1  1  0  0  0
  1  2  1  0  0  0
  2 13  1  0  0  0
 13 14  1  0  0  0
 14 15  1  0  0  0
 15 16  1  0  0  0
 16 17  1  0  0  0
  2  3  1  0  0  0
  3  4  2  0  0  0
  4  5  1  0  0  0
  5 20  1  0  0  0
 20 22  1  0  0  0
 22 23  2  0  0  0
 23 24  1  0  0  0
 24 25  2  0  0  0
 25 26  1  0  0  0
 26 27  2  0  0  0
 25 28  1  0  0  0
 28 29  2  0  0  0
 28 30  1  0  0  0
 30 32  1  0  0  0
 32 33  1  0  0  0
 33 34  1  0  0  0
 34 35  1  0  0  0
 35 36  1  0  0  0
 35 37  1  0  0  0
 37 38  1  0  0  0
  5  6  2  0  0  0
  6  7  1  0  0  0
  7  8  2  0  0  0
  8  9  1  0  0  0
  9 10  1  0  0  0
  9 11  1  0  0  0
 11 12  2  0  0  0
 11  1  1  0  0  0
 17 13  1  0  0  0
  8  3  1  0  0  0
 27 22  1  0  0  0
 38 32  1  0  0  0
 20 21  1  0  0  0
 30 31  1  0  0  0
M  END
> <minimizedAffinity>
-3.41839

> <CNNscore>
0.4229424298

> <CNNaffinity>
5.2489876747

> <CNN_VS>
2.2200195789

> <CNNaffinity_variance>
0.2577466369

$$$$
[H]c1nc(N([H])c2c([H])c([H])c(C(=O)N([H])C3([H])C([H])([H])C([H])([H])N(C([H])([H])[H])C([H])([H])C3([H])[H])c([H])c2[H])nc2c1N(C([H])([H])[H])C(=O)[C@@]([H])(C([H])([H])C([H])([H])[H])N2C1([H])C([H])([H])C([H])([H])C([H])([H])C1([H])[H]


 38 42  0  0  0  0  0  0  0  0999 V2000
   63.0536   -3.4440  -14.9659 C   0  0  0  0  0  0  0  0  0  0  0  0
   63.2724   -4.7759  -14.5478 N   0  0  0  0  0  0  0  0  0  0  0  0
   62.9785   -5.7743  -15.5627 C   0  0  0  0  0  0  0  0  0  0  0  0
   63.6064   -6.9652  -15.5617 N   0  0  0  0  0  0  0  0  0  0  0  0
   63.3398   -7.9194  -16.5074 C   0  0  0  0  0  0  0  0  0  0  0  0
   62.4392   -7.6610  -17.4485 N   0  0  0  0  0  0  0  0  0  0  0  0
   61.7723   -6.5046  -17.5195 C   0  0  0  0  0  0  0  0  0  0  0  0
   62.0526   -5.5591  -16.5619 C   0  0  0  0  0  0  0  0  0  0  0  0
   61.3593   -4.3182  -16.6014 N   0  0  0  0  0  0  0  0  0  0  0  0
   60.3683   -4.0221  -17.6261 C   0  0  0  0  0  0  0  0  0  0  0  0
   61.6751   -3.3721  -15.5905 C   0  0  0  0  0  0  0  0  0  0  0  0
   60.8176   -2.5196  -15.2508 O   0  0  0  0  0  0  0  0  0  0  0  0
   63.7330   -5.2745  -13.2817 C   0  0  0  0  0  0  0  0  0  0  0  0
   65.0890   -5.8875  -13.2650 C   0  0  0  0  0  0  0  0  0  0  0  0
   64.9846   -7.1986  -12.5462 C   0  0  0  0  0  0  0  0  0  0  0  0
   63.5607   -7.4056  -12.1575 C   0  0  0  0  0  0  0  0  0  0  0  0
   62.7573   -6.2454  -12.6489 C   0  0  0  0  0  0  0  0  0  0  0  0
   64.2639   -1.4079  -14.5382 C   0  0  0  0  0  0  0  0  0  0  0  0
   63.1419   -2.3302  -14.0216 C   0  0  0  0  0  0  0  0  0  0  0  0
   64.0397   -9.1433  -16.4868 N   0  0  0  0  0  0  0  0  0  0  0  0
   64.8525   -9.2510  -17.1957 H   0  0  0  0  0  0  0  0  0  0  0  0
   63.8265  -10.2463  -15.6644 C   0  0  0  0  0  0  0  0  0  0  0  0
   64.3710  -10.2378  -14.3765 C   0  0  0  0  0  0  0  0  0  0  0  0
   64.1870  -11.2757  -13.5012 C   0  0  0  0  0  0  0  0  0  0  0  0
   63.4500  -12.3873  -13.8503 C   0  0  0  0  0  0  0  0  0  0  0  0
   62.9085  -12.4107  -15.1100 C   0  0  0  0  0  0  0  0  0  0  0  0
   63.0964  -11.3457  -16.0101 C   0  0  0  0  0  0  0  0  0  0  0  0
   63.2250  -13.5189  -12.9553 C   0  0  0  0  0  0  0  0  0  0  0  0
   62.8817  -14.6184  -13.4573 O   0  0  0  0  0  0  0  0  0  0  0  0
   63.3781  -13.4230  -11.5601 N   0  0  0  0  0  0  0  0  0  0  0  0
   63.6621  -12.5397  -11.0593 H   0  0  0  0  0  0  0  0  0  0  0  0
   63.1407  -14.5855  -10.7256 C   0  0  0  0  0  0  0  0  0  0  0  0
   61.8390  -14.3156   -9.9778 C   0  0  0  0  0  0  0  0  0  0  0  0
   61.9331  -15.0402   -8.6511 C   0  0  0  0  0  0  0  0  0  0  0  0
   62.8280  -14.2408   -7.8215 N   0  0  0  0  0  0  0  0  0  0  0  0
   62.1773  -12.9784   -7.5072 C   0  0  0  0  0  0  0  0  0  0  0  0
   64.0875  -14.0325   -8.4671 C   0  0  0  0  0  0  0  0  0  0  0  0
   64.2496  -14.8151   -9.7480 C   0  0  0  0  0  0  0  0  0  0  0  0
 18 19  1  0  0  0
 19  1  1  0  0  0
  1  2  1  0  0  0
  2 13  1  0  0  0
 13 14  1  0  0  0
 14 15  1  0  0  0
 15 16  1  0  0  0
 16 17  1  0  0  0
  2  3  1  0  0  0
  3  4  2  0  0  0
  4  5  1  0  0  0
  5 20  1  0  0  0
 20 22  1  0  0  0
 22 23  2  0  0  0
 23 24  1  0  0  0
 24 25  2  0  0  0
 25 26  1  0  0  0
 26 27  2  0  0  0
 25 28  1  0  0  0
 28 29  2  0  0  0
 28 30  1  0  0  0
 30 32  1  0  0  0
 32 33  1  0  0  0
 33 34  1  0  0  0
 34 35  1  0  0  0
 35 36  1  0  0  0
 35 37  1  0  0  0
 37 38  1  0  0  0
  5  6  2  0  0  0
  6  7  1  0  0  0
  7  8  2  0  0  0
  8  9  1  0  0  0
  9 10  1  0  0  0
  9 11  1  0  0  0
 11 12  2  0  0  0
 11  1  1  0  0  0
 17 13  1  0  0  0
  8  3  1  0  0  0
 27 22  1  0  0  0
 38 32  1  0  0  0
 20 21  1  0  0  0
 30 31  1  0  0  0
M  END
> <minimizedAffinity>
-3.19860

> <CNNscore>
0.3977562487

> <CNNaffinity>
4.9970760345

> <CNN_VS>
1.9876182079

> <CNNaffinity_variance>
0.2835897803

$$$$
[H]c1nc(N([H])c2c([H])c([H])c(C(=O)N([H])C3([H])C([H])([H])C([H])([H])N(C([H])([H])[H])C([H])([H])C3([H])[H])c([H])c2[H])nc2c1N(C([H])([H])[H])C(=O)[C@@]([H])(C([H])([H])C([H])([H])[H])N2C1([H])C([H])([H])C([H])([H])C([H])([H])C1([H])[H]


 38 42  0  0  0  0  0  0  0  0999 V2000
   64.6143   -1.8799  -15.9761 C   0  0  0  0  0  0  0  0  0  0  0  0
   64.5297   -2.3118  -14.6334 N   0  0  0  0  0  0  0  0  0  0  0  0
   64.4293   -3.7535  -14.4769 C   0  0  0  0  0  0  0  0  0  0  0  0
   64.8738   -4.3592  -13.3597 N   0  0  0  0  0  0  0  0  0  0  0  0
   64.7841   -5.7157  -13.1931 C   0  0  0  0  0  0  0  0  0  0  0  0
   64.2450   -6.4501  -14.1593 N   0  0  0  0  0  0  0  0  0  0  0  0
   63.7801   -5.9264  -15.2980 C   0  0  0  0  0  0  0  0  0  0  0  0
   63.8781   -4.5636  -15.4475 C   0  0  0  0  0  0  0  0  0  0  0  0
   63.3894   -3.9690  -16.6432 N   0  0  0  0  0  0  0  0  0  0  0  0
   62.7944   -4.7616  -17.7098 C   0  0  0  0  0  0  0  0  0  0  0  0
   63.5052   -2.5580  -16.7544 C   0  0  0  0  0  0  0  0  0  0  0  0
   62.6993   -1.9261  -17.4815 O   0  0  0  0  0  0  0  0  0  0  0  0
   64.5254   -1.5401  -13.4216 C   0  0  0  0  0  0  0  0  0  0  0  0
   63.3195   -0.7041  -13.1732 C   0  0  0  0  0  0  0  0  0  0  0  0
   63.7895    0.6677  -12.7942 C   0  0  0  0  0  0  0  0  0  0  0  0
   65.2790    0.6821  -12.8479 C   0  0  0  0  0  0  0  0  0  0  0  0
   65.7548   -0.6656  -13.2842 C   0  0  0  0  0  0  0  0  0  0  0  0
   65.7550   -0.1845  -17.2480 C   0  0  0  0  0  0  0  0  0  0  0  0
   64.5557   -0.4591  -16.3192 C   0  0  0  0  0  0  0  0  0  0  0  0
   65.2869   -6.3138  -12.0193 N   0  0  0  0  0  0  0  0  0  0  0  0
   66.3648   -6.3387  -11.9091 H   0  0  0  0  0  0  0  0  0  0  0  0
   64.5748   -6.8813  -10.9661 C   0  0  0  0  0  0  0  0  0  0  0  0
   65.0892   -8.0251  -10.3479 C   0  0  0  0  0  0  0  0  0  0  0  0
   64.4582   -8.6286   -9.2921 C   0  0  0  0  0  0  0  0  0  0  0  0
   63.2764   -8.1332   -8.7836 C   0  0  0  0  0  0  0  0  0  0  0  0
   62.7590   -7.0112   -9.3784 C   0  0  0  0  0  0  0  0  0  0  0  0
   63.4057   -6.3901  -10.4628 C   0  0  0  0  0  0  0  0  0  0  0  0
   62.5651   -8.7389   -7.6613 C   0  0  0  0  0  0  0  0  0  0  0  0
   61.6072   -8.1066   -7.1501 O   0  0  0  0  0  0  0  0  0  0  0  0
   62.9114   -9.9971   -7.1356 N   0  0  0  0  0  0  0  0  0  0  0  0
   63.7002  -10.5915   -7.5046 H   0  0  0  0  0  0  0  0  0  0  0  0
   62.1636  -10.5445   -6.0197 C   0  0  0  0  0  0  0  0  0  0  0  0
   63.1193  -11.4761   -5.2812 C   0  0  0  0  0  0  0  0  0  0  0  0
   62.2765  -12.5673   -4.6544 C   0  0  0  0  0  0  0  0  0  0  0  0
   61.9038  -13.4613   -5.7454 N   0  0  0  0  0  0  0  0  0  0  0  0
   63.0959  -14.1443   -6.2232 C   0  0  0  0  0  0  0  0  0  0  0  0
   61.2516  -12.7493   -6.8009 C   0  0  0  0  0  0  0  0  0  0  0  0
   60.9567  -11.3065   -6.4679 C   0  0  0  0  0  0  0  0  0  0  0  0
 18 19  1  0  0  0
 19  1  1  0  0  0
  1  2  1  0  0  0
  2 13  1  0  0  0
 13 14  1  0  0  0
 14 15  1  0  0  0
 15 16  1  0  0  0
 16 17  1  0  0  0
  2  3  1  0  0  0
  3  4  2  0  0  0
  4  5  1  0  0  0
  5 20  1  0  0  0
 20 22  1  0  0  0
 22 23  2  0  0  0
 23 24  1  0  0  0
 24 25  2  0  0  0
 25 26  1  0  0  0
 26 27  2  0  0  0
 25 28  1  0  0  0
 28 29  2  0  0  0
 28 30  1  0  0  0
 30 32  1  0  0  0
 32 33  1  0  0  0
 33 34  1  0  0  0
 34 35  1  0  0  0
 35 36  1  0  0  0
 35 37  1  0  0  0
 37 38  1  0  0  0
  5  6  2  0  0  0
  6  7  1  0  0  0
  7  8  2  0  0  0
  8  9  1  0  0  0
  9 10  1  0  0  0
  9 11  1  0  0  0
 11 12  2  0  0  0
 11  1  1  0  0  0
 17 13  1  0  0  0
  8  3  1  0  0  0
 27 22  1  0  0  0
 38 32  1  0  0  0
 20 21  1  0  0  0
 30 31  1  0  0  0
M  END
> <minimizedAffinity>
-3.33460

> <CNNscore>
0.3518323600

> <CNNaffinity>
5.0028352737

> <CNN_VS>
1.7601593733

> <CNNaffinity_variance>
0.2224942893

$$$$
[H]c1nc(N([H])c2c([H])c([H])c(C(=O)N([H])C3([H])C([H])([H])C([H])([H])N(C([H])([H])[H])C([H])([H])C3([H])[H])c([H])c2[H])nc2c1N(C([H])([H])[H])C(=O)[C@@]([H])(C([H])([H])C([H])([H])[H])N2C1([H])C([H])([H])C([H])([H])C([H])([H])C1([H])[H]


 38 42  0  0  0  0  0  0  0  0999 V2000
   55.1199   -3.7314   -8.6078 C   0  0  0  0  0  0  0  0  0  0  0  0
   55.9232   -4.7929   -8.1339 N   0  0  0  0  0  0  0  0  0  0  0  0
   57.1215   -5.0303   -8.9218 C   0  0  0  0  0  0  0  0  0  0  0  0
   58.2187   -5.5746   -8.3628 N   0  0  0  0  0  0  0  0  0  0  0  0
   59.3553   -5.8090   -9.0901 C   0  0  0  0  0  0  0  0  0  0  0  0
   59.3735   -5.4901  -10.3792 N   0  0  0  0  0  0  0  0  0  0  0  0
   58.3271   -4.9468  -11.0092 C   0  0  0  0  0  0  0  0  0  0  0  0
   57.1951   -4.7192  -10.2634 C   0  0  0  0  0  0  0  0  0  0  0  0
   56.0594   -4.1473  -10.9000 N   0  0  0  0  0  0  0  0  0  0  0  0
   56.0646   -3.7946  -12.3125 C   0  0  0  0  0  0  0  0  0  0  0  0
   54.9094   -3.9340  -10.0945 C   0  0  0  0  0  0  0  0  0  0  0  0
   53.7729   -3.9200  -10.6291 O   0  0  0  0  0  0  0  0  0  0  0  0
   55.7244   -5.6585   -7.0046 C   0  0  0  0  0  0  0  0  0  0  0  0
   54.4453   -6.4183   -6.9698 C   0  0  0  0  0  0  0  0  0  0  0  0
   53.8556   -6.2499   -5.6021 C   0  0  0  0  0  0  0  0  0  0  0  0
   54.7523   -5.3576   -4.8139 C   0  0  0  0  0  0  0  0  0  0  0  0
   55.8936   -4.9383   -5.6826 C   0  0  0  0  0  0  0  0  0  0  0  0
   53.3490   -2.1013   -8.5912 C   0  0  0  0  0  0  0  0  0  0  0  0
   53.8015   -3.4650   -8.0326 C   0  0  0  0  0  0  0  0  0  0  0  0
   60.4922   -6.3554   -8.4599 N   0  0  0  0  0  0  0  0  0  0  0  0
   60.6441   -6.0942   -7.4190 H   0  0  0  0  0  0  0  0  0  0  0  0
   61.4574   -7.2001   -9.0013 C   0  0  0  0  0  0  0  0  0  0  0  0
   61.0602   -8.4521   -9.4808 C   0  0  0  0  0  0  0  0  0  0  0  0
   61.9469   -9.3299  -10.0468 C   0  0  0  0  0  0  0  0  0  0  0  0
   63.2841   -9.0189  -10.1724 C   0  0  0  0  0  0  0  0  0  0  0  0
   63.6897   -7.7941   -9.7077 C   0  0  0  0  0  0  0  0  0  0  0  0
   62.7804   -6.8913   -9.1262 C   0  0  0  0  0  0  0  0  0  0  0  0
   64.2686   -9.9186  -10.7671 C   0  0  0  0  0  0  0  0  0  0  0  0
   65.4316   -9.9296  -10.2917 O   0  0  0  0  0  0  0  0  0  0  0  0
   63.9634  -10.7684  -11.8460 N   0  0  0  0  0  0  0  0  0  0  0  0
   63.0147  -10.8205  -12.3031 H   0  0  0  0  0  0  0  0  0  0  0  0
   64.9867  -11.6402  -12.3909 C   0  0  0  0  0  0  0  0  0  0  0  0
   64.8283  -11.5890  -13.9070 C   0  0  0  0  0  0  0  0  0  0  0  0
   65.2827  -12.9302  -14.4444 C   0  0  0  0  0  0  0  0  0  0  0  0
   64.2044  -13.8666  -14.1464 N   0  0  0  0  0  0  0  0  0  0  0  0
   63.0437  -13.5205  -14.9518 C   0  0  0  0  0  0  0  0  0  0  0  0
   63.8896  -13.8695  -12.7509 C   0  0  0  0  0  0  0  0  0  0  0  0
   64.8410  -13.0501  -11.9125 C   0  0  0  0  0  0  0  0  0  0  0  0
 18 19  1  0  0  0
 19  1  1  0  0  0
  1  2  1  0  0  0
  2 13  1  0  0  0
 13 14  1  0  0  0
 14 15  1  0  0  0
 15 16  1  0  0  0
 16 17  1  0  0  0
  2  3  1  0  0  0
  3  4  2  0  0  0
  4  5  1  0  0  0
  5 20  1  0  0  0
 20 22  1  0  0  0
 22 23  2  0  0  0
 23 24  1  0  0  0
 24 25  2  0  0  0
 25 26  1  0  0  0
 26 27  2  0  0  0
 25 28  1  0  0  0
 28 29  2  0  0  0
 28 30  1  0  0  0
 30 32  1  0  0  0
 32 33  1  0  0  0
 33 34  1  0  0  0
 34 35  1  0  0  0
 35 36  1  0  0  0
 35 37  1  0  0  0
 37 38  1  0  0  0
  5  6  2  0  0  0
  6  7  1  0  0  0
  7  8  2  0  0  0
  8  9  1  0  0  0
  9 10  1  0  0  0
  9 11  1  0  0  0
 11 12  2  0  0  0
 11  1  1  0  0  0
 17 13  1  0  0  0
  8  3  1  0  0  0
 27 22  1  0  0  0
 38 32  1  0  0  0
 20 21  1  0  0  0
 30 31  1  0  0  0
M  END
> <minimizedAffinity>
-6.56550

> <CNNscore>
0.3413147330

> <CNNaffinity>
6.0904116631

> <CNN_VS>
2.0787472725

> <CNNaffinity_variance>
0.0468890965

$$$$
[H]O[C@@]([H])(C([H])([H])N([H])C(=O)c1c(C([H])([H])[H])c(/C([H])=C2\C(=O)N([H])c3c([H])c([H])c(F)c([H])c32)n([H])c1C([H])([H])[H])C([H])([H])N1C([H])([H])C([H])([H])OC([H])([H])C1([H])[H]


 36 39  0  0  0  0  0  0  0  0999 V2000
   56.3846   -3.9644  -12.0844 C   0  0  0  0  0  0  0  0  0  0  0  0
   56.0662   -4.3541  -10.6855 C   0  0  0  0  0  0  0  0  0  0  0  0
   54.8163   -4.2493  -10.1160 N   0  0  0  0  0  0  0  0  0  0  0  0
   54.8724   -4.6463   -8.8625 C   0  0  0  0  0  0  0  0  0  0  0  0
   56.1609   -5.0115   -8.6085 C   0  0  0  0  0  0  0  0  0  0  0  0
   56.7000   -5.5280   -7.3105 C   0  0  0  0  0  0  0  0  0  0  0  0
   56.9645   -4.8353   -9.7738 C   0  0  0  0  0  0  0  0  0  0  0  0
   53.9877   -3.8825  -10.6664 H   0  0  0  0  0  0  0  0  0  0  0  0
   53.8033   -4.7250   -7.8955 C   0  0  0  0  0  0  0  0  0  0  0  0
   52.7600   -3.9206   -7.8316 C   0  0  0  0  0  0  0  0  0  0  0  0
   52.4625   -2.8019   -8.7137 C   0  0  0  0  0  0  0  0  0  0  0  0
   53.1163   -2.3965   -9.7171 O   0  0  0  0  0  0  0  0  0  0  0  0
   51.2467   -2.2353   -8.2104 N   0  0  0  0  0  0  0  0  0  0  0  0
   50.7898   -2.9511   -7.0704 C   0  0  0  0  0  0  0  0  0  0  0  0
   49.6799   -2.8017   -6.2347 C   0  0  0  0  0  0  0  0  0  0  0  0
   49.4863   -3.6634   -5.1800 C   0  0  0  0  0  0  0  0  0  0  0  0
   50.3653   -4.6897   -4.9126 C   0  0  0  0  0  0  0  0  0  0  0  0
   50.1616   -5.5384   -3.8629 F   0  0  0  0  0  0  0  0  0  0  0  0
   51.4501   -4.8135   -5.7524 C   0  0  0  0  0  0  0  0  0  0  0  0
   51.6817   -3.9701   -6.8215 C   0  0  0  0  0  0  0  0  0  0  0  0
   50.7837   -1.4121   -8.6411 H   0  0  0  0  0  0  0  0  0  0  0  0
   58.3646   -5.1705   -9.8352 C   0  0  0  0  0  0  0  0  0  0  0  0
   58.9608   -4.9675  -10.9448 O   0  0  0  0  0  0  0  0  0  0  0  0
   59.1374   -5.6908   -8.8060 N   0  0  0  0  0  0  0  0  0  0  0  0
   58.6165   -5.8194   -7.8740 H   0  0  0  0  0  0  0  0  0  0  0  0
   60.5243   -6.0416   -8.8551 C   0  0  0  0  0  0  0  0  0  0  0  0
   60.9558   -7.4313   -8.9697 C   0  0  0  0  0  0  0  0  0  0  0  0
   60.2373   -8.3088   -9.7528 O   0  0  0  0  0  0  0  0  0  0  0  0
   59.7453   -8.9153   -9.1454 H   0  0  0  0  0  0  0  0  0  0  0  0
   61.6070   -8.1280   -7.8371 C   0  0  0  0  0  0  0  0  0  0  0  0
   61.7539   -7.4340   -6.5923 N   0  0  0  0  0  0  0  0  0  0  0  0
   61.3310   -8.3777   -5.5479 C   0  0  0  0  0  0  0  0  0  0  0  0
   61.5459   -7.8410   -4.1782 C   0  0  0  0  0  0  0  0  0  0  0  0
   62.4125   -6.7272   -4.1815 O   0  0  0  0  0  0  0  0  0  0  0  0
   63.5206   -7.1497   -4.9144 C   0  0  0  0  0  0  0  0  0  0  0  0
   63.1374   -7.0692   -6.3890 C   0  0  0  0  0  0  0  0  0  0  0  0
  1  2  1  0  0  0
  2  3  1  0  0  0
  3  4  1  0  0  0
  4  9  1  0  0  0
  9 10  2  0  0  0
 10 11  1  0  0  0
 11 12  2  0  0  0
 11 13  1  0  0  0
 13 14  1  0  0  0
 14 15  2  0  0  0
 15 16  1  0  0  0
 16 17  2  0  0  0
 17 18  1  0  0  0
 17 19  1  0  0  0
 19 20  2  0  0  0
  4  5  2  0  0  0
  5  6  1  0  0  0
  5  7  1  0  0  0
  7 22  1  0  0  0
 22 23  2  0  0  0
 22 24  1  0  0  0
 24 26  1  0  0  0
 26 27  1  0  0  0
 27 28  1  0  0  0
 27 30  1  0  0  0
 30 31  1  0  0  0
 31 32  1  0  0  0
 32 33  1  0  0  0
 33 34  1  0  0  0
 34 35  1  0  0  0
 35 36  1  0  0  0
  7  2  2  0  0  0
 36 31  1  0  0  0
 20 10  1  0  0  0
 20 14  1  0  0  0
  3  8  1  0  0  0
 13 21  1  0  0  0
 24 25  1  0  0  0
 28 29  1  0  0  0
M  END
> <minimizedAffinity>
-11.34461

> <CNNscore>
0.9419409633

> <CNNaffinity>
7.0812163353

> <CNN_VS>
6.6700878143

> <CNNaffinity_variance>
0.0318301208

$$$$
[H]O[C@@]([H])(C([H])([H])N([H])C(=O)c1c(C([H])([H])[H])c(/C([H])=C2\C(=O)N([H])c3c([H])c([H])c(F)c([H])c32)n([H])c1C([H])([H])[H])C([H])([H])N1C([H])([H])C([H])([H])OC([H])([H])C1([H])[H]


 36 39  0  0  0  0  0  0  0  0999 V2000
   56.3745   -3.9091  -12.0083 C   0  0  0  0  0  0  0  0  0  0  0  0
   56.0256   -4.3185  -10.6223 C   0  0  0  0  0  0  0  0  0  0  0  0
   54.7689   -4.1992  -10.0708 N   0  0  0  0  0  0  0  0  0  0  0  0
   54.7966   -4.6205   -8.8244 C   0  0  0  0  0  0  0  0  0  0  0  0
   56.0734   -5.0162   -8.5569 C   0  0  0  0  0  0  0  0  0  0  0  0
   56.5809   -5.5676   -7.2604 C   0  0  0  0  0  0  0  0  0  0  0  0
   56.8992   -4.8345   -9.7056 C   0  0  0  0  0  0  0  0  0  0  0  0
   53.9568   -3.8056  -10.6274 H   0  0  0  0  0  0  0  0  0  0  0  0
   53.7106   -4.6958   -7.8762 C   0  0  0  0  0  0  0  0  0  0  0  0
   52.6813   -3.8733   -7.8153 C   0  0  0  0  0  0  0  0  0  0  0  0
   52.4188   -2.7345   -8.6826 C   0  0  0  0  0  0  0  0  0  0  0  0
   53.0963   -2.3243   -9.6681 O   0  0  0  0  0  0  0  0  0  0  0  0
   51.2055   -2.1541   -8.1893 N   0  0  0  0  0  0  0  0  0  0  0  0
   50.7169   -2.8805   -7.0693 C   0  0  0  0  0  0  0  0  0  0  0  0
   49.5963   -2.7247   -6.2491 C   0  0  0  0  0  0  0  0  0  0  0  0
   49.3697   -3.6005   -5.2127 C   0  0  0  0  0  0  0  0  0  0  0  0
   50.2252   -4.6473   -4.9490 C   0  0  0  0  0  0  0  0  0  0  0  0
   49.9889   -5.5098   -3.9175 F   0  0  0  0  0  0  0  0  0  0  0  0
   51.3213   -4.7769   -5.7732 C   0  0  0  0  0  0  0  0  0  0  0  0
   51.5858   -3.9200   -6.8237 C   0  0  0  0  0  0  0  0  0  0  0  0
   50.7647   -1.3152   -8.6130 H   0  0  0  0  0  0  0  0  0  0  0  0
   58.2933   -5.1965   -9.7510 C   0  0  0  0  0  0  0  0  0  0  0  0
   58.9113   -4.9851  -10.8470 O   0  0  0  0  0  0  0  0  0  0  0  0
   59.0387   -5.7512   -8.7196 N   0  0  0  0  0  0  0  0  0  0  0  0
   58.5003   -5.8865   -7.7986 H   0  0  0  0  0  0  0  0  0  0  0  0
   60.4190   -6.1288   -8.7533 C   0  0  0  0  0  0  0  0  0  0  0  0
   60.8871   -7.2346   -9.5831 C   0  0  0  0  0  0  0  0  0  0  0  0
   60.5159   -8.5259   -9.2759 O   0  0  0  0  0  0  0  0  0  0  0  0
   61.3086   -8.9813   -8.8978 H   0  0  0  0  0  0  0  0  0  0  0  0
   62.2165   -7.1958  -10.2338 C   0  0  0  0  0  0  0  0  0  0  0  0
   62.2963   -7.3797  -11.6524 N   0  0  0  0  0  0  0  0  0  0  0  0
   62.7968   -6.1108  -12.1998 C   0  0  0  0  0  0  0  0  0  0  0  0
   63.0534   -6.1863  -13.6622 C   0  0  0  0  0  0  0  0  0  0  0  0
   63.0993   -7.5209  -14.1183 O   0  0  0  0  0  0  0  0  0  0  0  0
   63.9875   -8.1555  -13.2511 C   0  0  0  0  0  0  0  0  0  0  0  0
   63.2234   -8.4441  -11.9624 C   0  0  0  0  0  0  0  0  0  0  0  0
  1  2  1  0  0  0
  2  3  1  0  0  0
  3  4  1  0  0  0
  4  9  1  0  0  0
  9 10  2  0  0  0
 10 11  1  0  0  0
 11 12  2  0  0  0
 11 13  1  0  0  0
 13 14  1  0  0  0
 14 15  2  0  0  0
 15 16  1  0  0  0
 16 17  2  0  0  0
 17 18  1  0  0  0
 17 19  1  0  0  0
 19 20  2  0  0  0
  4  5  2  0  0  0
  5  6  1  0  0  0
  5  7  1  0  0  0
  7 22  1  0  0  0
 22 23  2  0  0  0
 22 24  1  0  0  0
 24 26  1  0  0  0
 26 27  1  0  0  0
 27 28  1  0  0  0
 27 30  1  0  0  0
 30 31  1  0  0  0
 31 32  1  0  0  0
 32 33  1  0  0  0
 33 34  1  0  0  0
 34 35  1  0  0  0
 35 36  1  0  0  0
  7  2  2  0  0  0
 36 31  1  0  0  0
 20 10  1  0  0  0
 20 14  1  0  0  0
  3  8  1  0  0  0
 13 21  1  0  0  0
 24 25  1  0  0  0
 28 29  1  0  0  0
M  END
> <minimizedAffinity>
-11.10087

> <CNNscore>
0.8974884152

> <CNNaffinity>
6.8321847916

> <CNN_VS>
6.1318068504

> <CNNaffinity_variance>
0.0962102190

$$$$
[H]O[C@@]([H])(C([H])([H])N([H])C(=O)c1c(C([H])([H])[H])c(/C([H])=C2\C(=O)N([H])c3c([H])c([H])c(F)c([H])c32)n([H])c1C([H])([H])[H])C([H])([H])N1C([H])([H])C([H])([H])OC([H])([H])C1([H])[H]


 36 39  0  0  0  0  0  0  0  0999 V2000
   56.6007   -4.1356  -11.5385 C   0  0  0  0  0  0  0  0  0  0  0  0
   56.1240   -4.4447  -10.1646 C   0  0  0  0  0  0  0  0  0  0  0  0
   54.8207   -4.2968   -9.7437 N   0  0  0  0  0  0  0  0  0  0  0  0
   54.7321   -4.6247   -8.4722 C   0  0  0  0  0  0  0  0  0  0  0  0
   55.9790   -4.9875   -8.0577 C   0  0  0  0  0  0  0  0  0  0  0  0
   56.3637   -5.4369   -6.6820 C   0  0  0  0  0  0  0  0  0  0  0  0
   56.9087   -4.8834   -9.1344 C   0  0  0  0  0  0  0  0  0  0  0  0
   54.0637   -3.9530  -10.4015 H   0  0  0  0  0  0  0  0  0  0  0  0
   53.5619   -4.6399   -7.6269 C   0  0  0  0  0  0  0  0  0  0  0  0
   52.5579   -3.7864   -7.6839 C   0  0  0  0  0  0  0  0  0  0  0  0
   52.4122   -2.6671   -8.6025 C   0  0  0  0  0  0  0  0  0  0  0  0
   53.1898   -2.3065   -9.5319 O   0  0  0  0  0  0  0  0  0  0  0  0
   51.1777   -2.0371   -8.2396 N   0  0  0  0  0  0  0  0  0  0  0  0
   50.5659   -2.7151   -7.1502 C   0  0  0  0  0  0  0  0  0  0  0  0
   49.3803   -2.5022   -6.4417 C   0  0  0  0  0  0  0  0  0  0  0  0
   49.0321   -3.3396   -5.4073 C   0  0  0  0  0  0  0  0  0  0  0  0
   49.8263   -4.4023   -5.0371 C   0  0  0  0  0  0  0  0  0  0  0  0
   49.4692   -5.2262   -4.0087 F   0  0  0  0  0  0  0  0  0  0  0  0
   50.9886   -4.5884   -5.7525 C   0  0  0  0  0  0  0  0  0  0  0  0
   51.3753   -3.7715   -6.7970 C   0  0  0  0  0  0  0  0  0  0  0  0
   50.8044   -1.1990   -8.7250 H   0  0  0  0  0  0  0  0  0  0  0  0
   58.3018   -5.2347   -9.0220 C   0  0  0  0  0  0  0  0  0  0  0  0
   58.9187   -4.8313   -7.9806 O   0  0  0  0  0  0  0  0  0  0  0  0
   59.0456   -5.9733   -9.9321 N   0  0  0  0  0  0  0  0  0  0  0  0
   58.4911   -6.3281  -10.7825 H   0  0  0  0  0  0  0  0  0  0  0  0
   60.4318   -6.3185   -9.8417 C   0  0  0  0  0  0  0  0  0  0  0  0
   60.9067   -7.3267   -8.8990 C   0  0  0  0  0  0  0  0  0  0  0  0
   60.9009   -7.0567   -7.5475 O   0  0  0  0  0  0  0  0  0  0  0  0
   61.8391   -6.9109   -7.2692 H   0  0  0  0  0  0  0  0  0  0  0  0
   62.0002   -8.2580   -9.2584 C   0  0  0  0  0  0  0  0  0  0  0  0
   61.7047   -9.6543   -9.3828 N   0  0  0  0  0  0  0  0  0  0  0  0
   62.4602  -10.1276  -10.5513 C   0  0  0  0  0  0  0  0  0  0  0  0
   62.3531  -11.5988  -10.7375 C   0  0  0  0  0  0  0  0  0  0  0  0
   61.8603  -12.2393   -9.5807 O   0  0  0  0  0  0  0  0  0  0  0  0
   62.6588  -11.7537   -8.5462 C   0  0  0  0  0  0  0  0  0  0  0  0
   62.1424  -10.3604   -8.2003 C   0  0  0  0  0  0  0  0  0  0  0  0
  1  2  1  0  0  0
  2  3  1  0  0  0
  3  4  1  0  0  0
  4  9  1  0  0  0
  9 10  2  0  0  0
 10 11  1  0  0  0
 11 12  2  0  0  0
 11 13  1  0  0  0
 13 14  1  0  0  0
 14 15  2  0  0  0
 15 16  1  0  0  0
 16 17  2  0  0  0
 17 18  1  0  0  0
 17 19  1  0  0  0
 19 20  2  0  0  0
  4  5  2  0  0  0
  5  6  1  0  0  0
  5  7  1  0  0  0
  7 22  1  0  0  0
 22 23  2  0  0  0
 22 24  1  0  0  0
 24 26  1  0  0  0
 26 27  1  0  0  0
 27 28  1  0  0  0
 27 30  1  0  0  0
 30 31  1  0  0  0
 31 32  1  0  0  0
 32 33  1  0  0  0
 33 34  1  0  0  0
 34 35  1  0  0  0
 35 36  1  0  0  0
  7  2  2  0  0  0
 36 31  1  0  0  0
 20 10  1  0  0  0
 20 14  1  0  0  0
  3  8  1  0  0  0
 13 21  1  0  0  0
 24 25  1  0  0  0
 28 29  1  0  0  0
M  END
> <minimizedAffinity>
-10.58021

> <CNNscore>
0.8553954363

> <CNNaffinity>
6.8359351158

> <CNN_VS>
5.8474278450

> <CNNaffinity_variance>
0.1626977324

$$$$
[H]O[C@@]([H])(C([H])([H])N([H])C(=O)c1c(C([H])([H])[H])c(/C([H])=C2\C(=O)N([H])c3c([H])c([H])c(F)c([H])c32)n([H])c1C([H])([H])[H])C([H])([H])N1C([H])([H])C([H])([H])OC([H])([H])C1([H])[H]


 36 39  0  0  0  0  0  0  0  0999 V2000
   50.4022   -2.9506   -7.1566 C   0  0  0  0  0  0  0  0  0  0  0  0
   51.6210   -3.7904   -7.0158 C   0  0  0  0  0  0  0  0  0  0  0  0
   52.7461   -3.6631   -7.8004 N   0  0  0  0  0  0  0  0  0  0  0  0
   53.6318   -4.5692   -7.4447 C   0  0  0  0  0  0  0  0  0  0  0  0
   53.0872   -5.2928   -6.4259 C   0  0  0  0  0  0  0  0  0  0  0  0
   53.7308   -6.4350   -5.7024 C   0  0  0  0  0  0  0  0  0  0  0  0
   51.7796   -4.8115   -6.1205 C   0  0  0  0  0  0  0  0  0  0  0  0
   52.8071   -2.9297   -8.5635 H   0  0  0  0  0  0  0  0  0  0  0  0
   54.9549   -4.7912   -7.9779 C   0  0  0  0  0  0  0  0  0  0  0  0
   55.3742   -4.4324   -9.1758 C   0  0  0  0  0  0  0  0  0  0  0  0
   54.6070   -3.7389  -10.1999 C   0  0  0  0  0  0  0  0  0  0  0  0
   53.4142   -3.3240  -10.1425 O   0  0  0  0  0  0  0  0  0  0  0  0
   55.4947   -3.6115  -11.3172 N   0  0  0  0  0  0  0  0  0  0  0  0
   56.7601   -4.1898  -11.0255 C   0  0  0  0  0  0  0  0  0  0  0  0
   57.9393   -4.3213  -11.7638 C   0  0  0  0  0  0  0  0  0  0  0  0
   59.0357   -4.9427  -11.2123 C   0  0  0  0  0  0  0  0  0  0  0  0
   59.0127   -5.4504   -9.9321 C   0  0  0  0  0  0  0  0  0  0  0  0
   60.1078   -6.0647   -9.3962 F   0  0  0  0  0  0  0  0  0  0  0  0
   57.8377   -5.3068   -9.2276 C   0  0  0  0  0  0  0  0  0  0  0  0
   56.7145   -4.6904   -9.7436 C   0  0  0  0  0  0  0  0  0  0  0  0
   55.2230   -3.1532  -12.2080 H   0  0  0  0  0  0  0  0  0  0  0  0
   50.9596   -5.3466   -5.0632 C   0  0  0  0  0  0  0  0  0  0  0  0
   49.9439   -6.0363   -5.4104 O   0  0  0  0  0  0  0  0  0  0  0  0
   51.1628   -5.1919   -3.6987 N   0  0  0  0  0  0  0  0  0  0  0  0
   52.0445   -4.6349   -3.4361 H   0  0  0  0  0  0  0  0  0  0  0  0
   50.3507   -5.7049   -2.6374 C   0  0  0  0  0  0  0  0  0  0  0  0
   50.8653   -6.6901   -1.6913 C   0  0  0  0  0  0  0  0  0  0  0  0
   50.0043   -7.3074   -0.8097 O   0  0  0  0  0  0  0  0  0  0  0  0
   50.1739   -6.9266    0.0875 H   0  0  0  0  0  0  0  0  0  0  0  0
   52.2257   -6.5671   -1.1199 C   0  0  0  0  0  0  0  0  0  0  0  0
   53.3475   -6.5289   -2.0103 N   0  0  0  0  0  0  0  0  0  0  0  0
   54.1914   -5.4154   -1.5541 C   0  0  0  0  0  0  0  0  0  0  0  0
   55.4686   -5.3256   -2.3098 C   0  0  0  0  0  0  0  0  0  0  0  0
   55.7360   -6.5092   -3.0301 O   0  0  0  0  0  0  0  0  0  0  0  0
   55.5856   -7.5297   -2.0922 C   0  0  0  0  0  0  0  0  0  0  0  0
   54.0875   -7.7675   -1.9278 C   0  0  0  0  0  0  0  0  0  0  0  0
  1  2  1  0  0  0
  2  3  1  0  0  0
  3  4  1  0  0  0
  4  9  1  0  0  0
  9 10  2  0  0  0
 10 11  1  0  0  0
 11 12  2  0  0  0
 11 13  1  0  0  0
 13 14  1  0  0  0
 14 15  2  0  0  0
 15 16  1  0  0  0
 16 17  2  0  0  0
 17 18  1  0  0  0
 17 19  1  0  0  0
 19 20  2  0  0  0
  4  5  2  0  0  0
  5  6  1  0  0  0
  5  7  1  0  0  0
  7 22  1  0  0  0
 22 23  2  0  0  0
 22 24  1  0  0  0
 24 26  1  0  0  0
 26 27  1  0  0  0
 27 28  1  0  0  0
 27 30  1  0  0  0
 30 31  1  0  0  0
 31 32  1  0  0  0
 32 33  1  0  0  0
 33 34  1  0  0  0
 34 35  1  0  0  0
 35 36  1  0  0  0
  7  2  2  0  0  0
 36 31  1  0  0  0
 20 10  1  0  0  0
 20 14  1  0  0  0
  3  8  1  0  0  0
 13 21  1  0  0  0
 24 25  1  0  0  0
 28 29  1  0  0  0
M  END
> <minimizedAffinity>
-10.00050

> <CNNscore>
0.8447710872

> <CNNaffinity>
7.3517975807

> <CNN_VS>
6.2105860710

> <CNNaffinity_variance>
0.0988064557

$$$$
[H]O[C@@]([H])(C([H])([H])N([H])C(=O)c1c(C([H])([H])[H])c(/C([H])=C2\C(=O)N([H])c3c([H])c([H])c(F)c([H])c32)n([H])c1C([H])([H])[H])C([H])([H])N1C([H])([H])C([H])([H])OC([H])([H])C1([H])[H]


 36 39  0  0  0  0  0  0  0  0999 V2000
   56.5779   -4.2501  -11.4578 C   0  0  0  0  0  0  0  0  0  0  0  0
   56.0937   -4.5237  -10.0790 C   0  0  0  0  0  0  0  0  0  0  0  0
   54.7852   -4.3798   -9.6731 N   0  0  0  0  0  0  0  0  0  0  0  0
   54.6902   -4.6703   -8.3930 C   0  0  0  0  0  0  0  0  0  0  0  0
   55.9380   -5.0045   -7.9579 C   0  0  0  0  0  0  0  0  0  0  0  0
   56.3169   -5.4073   -6.5662 C   0  0  0  0  0  0  0  0  0  0  0  0
   56.8753   -4.9211   -9.0299 C   0  0  0  0  0  0  0  0  0  0  0  0
   54.0294   -4.0657  -10.3470 H   0  0  0  0  0  0  0  0  0  0  0  0
   53.5133   -4.6749   -7.5570 C   0  0  0  0  0  0  0  0  0  0  0  0
   52.5176   -3.8123   -7.6217 C   0  0  0  0  0  0  0  0  0  0  0  0
   52.3893   -2.6916   -8.5412 C   0  0  0  0  0  0  0  0  0  0  0  0
   53.1774   -2.3380   -9.4644 O   0  0  0  0  0  0  0  0  0  0  0  0
   51.1578   -2.0505   -8.1878 N   0  0  0  0  0  0  0  0  0  0  0  0
   50.5312   -2.7230   -7.1034 C   0  0  0  0  0  0  0  0  0  0  0  0
   49.3421   -2.4994   -6.4043 C   0  0  0  0  0  0  0  0  0  0  0  0
   48.9781   -3.3336   -5.3727 C   0  0  0  0  0  0  0  0  0  0  0  0
   49.7597   -4.4037   -4.9965 C   0  0  0  0  0  0  0  0  0  0  0  0
   49.3871   -5.2244   -3.9712 F   0  0  0  0  0  0  0  0  0  0  0  0
   50.9259   -4.6002   -5.7029 C   0  0  0  0  0  0  0  0  0  0  0  0
   51.3282   -3.7867   -6.7441 C   0  0  0  0  0  0  0  0  0  0  0  0
   50.7960   -1.2089   -8.6760 H   0  0  0  0  0  0  0  0  0  0  0  0
   58.2716   -5.2510   -8.8958 C   0  0  0  0  0  0  0  0  0  0  0  0
   58.9210   -4.6576   -7.9716 O   0  0  0  0  0  0  0  0  0  0  0  0
   58.9869   -6.1547   -9.6696 N   0  0  0  0  0  0  0  0  0  0  0  0
   58.4061   -6.6639  -10.4178 H   0  0  0  0  0  0  0  0  0  0  0  0
   60.3758   -6.4829   -9.5581 C   0  0  0  0  0  0  0  0  0  0  0  0
   60.8441   -7.8616   -9.6596 C   0  0  0  0  0  0  0  0  0  0  0  0
   60.1141   -8.7811  -10.3816 O   0  0  0  0  0  0  0  0  0  0  0  0
   59.6733   -9.3854   -9.7340 H   0  0  0  0  0  0  0  0  0  0  0  0
   61.5742   -8.5076   -8.5453 C   0  0  0  0  0  0  0  0  0  0  0  0
   62.9757   -8.2498   -8.3969 N   0  0  0  0  0  0  0  0  0  0  0  0
   63.5125   -8.1225   -9.7592 C   0  0  0  0  0  0  0  0  0  0  0  0
   64.9457   -7.7272   -9.7689 C   0  0  0  0  0  0  0  0  0  0  0  0
   65.3607   -7.2286   -8.5157 O   0  0  0  0  0  0  0  0  0  0  0  0
   64.4053   -6.2673   -8.1891 C   0  0  0  0  0  0  0  0  0  0  0  0
   63.1782   -7.0142   -7.6752 C   0  0  0  0  0  0  0  0  0  0  0  0
  1  2  1  0  0  0
  2  3  1  0  0  0
  3  4  1  0  0  0
  4  9  1  0  0  0
  9 10  2  0  0  0
 10 11  1  0  0  0
 11 12  2  0  0  0
 11 13  1  0  0  0
 13 14  1  0  0  0
 14 15  2  0  0  0
 15 16  1  0  0  0
 16 17  2  0  0  0
 17 18  1  0  0  0
 17 19  1  0  0  0
 19 20  2  0  0  0
  4  5  2  0  0  0
  5  6  1  0  0  0
  5  7  1  0  0  0
  7 22  1  0  0  0
 22 23  2  0  0  0
 22 24  1  0  0  0
 24 26  1  0  0  0
 26 27  1  0  0  0
 27 28  1  0  0  0
 27 30  1  0  0  0
 30 31  1  0  0  0
 31 32  1  0  0  0
 32 33  1  0  0  0
 33 34  1  0  0  0
 34 35  1  0  0  0
 35 36  1  0  0  0
  7  2  2  0  0  0
 36 31  1  0  0  0
 20 10  1  0  0  0
 20 14  1  0  0  0
  3  8  1  0  0  0
 13 21  1  0  0  0
 24 25  1  0  0  0
 28 29  1  0  0  0
M  END
> <minimizedAffinity>
-10.33577

> <CNNscore>
0.8411093354

> <CNNaffinity>
6.8898758888

> <CNN_VS>
5.7951388359

> <CNNaffinity_variance>
0.1821127385

$$$$
[H]O[C@@]([H])(C([H])([H])N([H])C(=O)c1c(C([H])([H])[H])c(/C([H])=C2\C(=O)N([H])c3c([H])c([H])c(F)c([H])c32)n([H])c1C([H])([H])[H])C([H])([H])N1C([H])([H])C([H])([H])OC([H])([H])C1([H])[H]


 36 39  0  0  0  0  0  0  0  0999 V2000
   57.9145   -5.0109  -11.6158 C   0  0  0  0  0  0  0  0  0  0  0  0
   57.2684   -5.1638  -10.2856 C   0  0  0  0  0  0  0  0  0  0  0  0
   55.9173   -5.0212  -10.0579 N   0  0  0  0  0  0  0  0  0  0  0  0
   55.6699   -5.1885   -8.7762 C   0  0  0  0  0  0  0  0  0  0  0  0
   56.8602   -5.4405   -8.1615 C   0  0  0  0  0  0  0  0  0  0  0  0
   57.0711   -5.6942   -6.7008 C   0  0  0  0  0  0  0  0  0  0  0  0
   57.9212   -5.4331   -9.1148 C   0  0  0  0  0  0  0  0  0  0  0  0
   55.2451   -4.7974  -10.8467 H   0  0  0  0  0  0  0  0  0  0  0  0
   54.3988   -5.1478   -8.0930 C   0  0  0  0  0  0  0  0  0  0  0  0
   53.5006   -4.1869   -8.1911 C   0  0  0  0  0  0  0  0  0  0  0  0
   53.5929   -2.9826   -9.0030 C   0  0  0  0  0  0  0  0  0  0  0  0
   54.5224   -2.6307   -9.7844 O   0  0  0  0  0  0  0  0  0  0  0  0
   52.3879   -2.2541   -8.7386 N   0  0  0  0  0  0  0  0  0  0  0  0
   51.5687   -2.9525   -7.8103 C   0  0  0  0  0  0  0  0  0  0  0  0
   50.3237   -2.6724   -7.2410 C   0  0  0  0  0  0  0  0  0  0  0  0
   49.7562   -3.5530   -6.3493 C   0  0  0  0  0  0  0  0  0  0  0  0
   50.3841   -4.7252   -5.9901 C   0  0  0  0  0  0  0  0  0  0  0  0
   49.8101   -5.5910   -5.1042 F   0  0  0  0  0  0  0  0  0  0  0  0
   51.6098   -4.9756   -6.5666 C   0  0  0  0  0  0  0  0  0  0  0  0
   52.2145   -4.1186   -7.4653 C   0  0  0  0  0  0  0  0  0  0  0  0
   52.1688   -1.3407   -9.1805 H   0  0  0  0  0  0  0  0  0  0  0  0
   59.2961   -5.7056   -8.7798 C   0  0  0  0  0  0  0  0  0  0  0  0
   60.0664   -4.6994   -8.6311 O   0  0  0  0  0  0  0  0  0  0  0  0
   59.8720   -6.9555   -8.5978 N   0  0  0  0  0  0  0  0  0  0  0  0
   59.1914   -7.7823   -8.6963 H   0  0  0  0  0  0  0  0  0  0  0  0
   61.2375   -7.2430   -8.2789 C   0  0  0  0  0  0  0  0  0  0  0  0
   62.0353   -8.1541   -9.0937 C   0  0  0  0  0  0  0  0  0  0  0  0
   62.7978   -7.6574  -10.1289 O   0  0  0  0  0  0  0  0  0  0  0  0
   62.3503   -7.9084  -10.9749 H   0  0  0  0  0  0  0  0  0  0  0  0
   61.5758   -9.5331   -9.3756 C   0  0  0  0  0  0  0  0  0  0  0  0
   61.7184  -10.5300   -8.3566 N   0  0  0  0  0  0  0  0  0  0  0  0
   61.5311  -11.8253   -9.0255 C   0  0  0  0  0  0  0  0  0  0  0  0
   61.7748  -12.9744   -8.1141 C   0  0  0  0  0  0  0  0  0  0  0  0
   62.4595  -12.5802   -6.9448 O   0  0  0  0  0  0  0  0  0  0  0  0
   63.5543  -11.8532   -7.4101 C   0  0  0  0  0  0  0  0  0  0  0  0
   63.0427  -10.4648   -7.7818 C   0  0  0  0  0  0  0  0  0  0  0  0
  1  2  1  0  0  0
  2  3  1  0  0  0
  3  4  1  0  0  0
  4  9  1  0  0  0
  9 10  2  0  0  0
 10 11  1  0  0  0
 11 12  2  0  0  0
 11 13  1  0  0  0
 13 14  1  0  0  0
 14 15  2  0  0  0
 15 16  1  0  0  0
 16 17  2  0  0  0
 17 18  1  0  0  0
 17 19  1  0  0  0
 19 20  2  0  0  0
  4  5  2  0  0  0
  5  6  1  0  0  0
  5  7  1  0  0  0
  7 22  1  0  0  0
 22 23  2  0  0  0
 22 24  1  0  0  0
 24 26  1  0  0  0
 26 27  1  0  0  0
 27 28  1  0  0  0
 27 30  1  0  0  0
 30 31  1  0  0  0
 31 32  1  0  0  0
 32 33  1  0  0  0
 33 34  1  0  0  0
 34 35  1  0  0  0
 35 36  1  0  0  0
  7  2  2  0  0  0
 36 31  1  0  0  0
 20 10  1  0  0  0
 20 14  1  0  0  0
  3  8  1  0  0  0
 13 21  1  0  0  0
 24 25  1  0  0  0
 28 29  1  0  0  0
M  END
> <minimizedAffinity>
-5.68918

> <CNNscore>
0.6215773225

> <CNNaffinity>
6.4047675133

> <CNN_VS>
3.9810583591

> <CNNaffinity_variance>
0.5445449948

$$$$
[H]O[C@@]([H])(C([H])([H])N([H])C(=O)c1c(C([H])([H])[H])c(/C([H])=C2\C(=O)N([H])c3c([H])c([H])c(F)c([H])c32)n([H])c1C([H])([H])[H])C([H])([H])N1C([H])([H])C([H])([H])OC([H])([H])C1([H])[H]


 36 39  0  0  0  0  0  0  0  0999 V2000
   50.0217   -2.5270   -6.4056 C   0  0  0  0  0  0  0  0  0  0  0  0
   51.0822   -3.3752   -7.0107 C   0  0  0  0  0  0  0  0  0  0  0  0
   51.7813   -3.0476   -8.1516 N   0  0  0  0  0  0  0  0  0  0  0  0
   52.6243   -4.0159   -8.4409 C   0  0  0  0  0  0  0  0  0  0  0  0
   52.4778   -4.9809   -7.4892 C   0  0  0  0  0  0  0  0  0  0  0  0
   53.2299   -6.2733   -7.4094 C   0  0  0  0  0  0  0  0  0  0  0  0
   51.4832   -4.5955   -6.5421 C   0  0  0  0  0  0  0  0  0  0  0  0
   51.6004   -2.1398   -8.6685 H   0  0  0  0  0  0  0  0  0  0  0  0
   53.5672   -4.0914   -9.5315 C   0  0  0  0  0  0  0  0  0  0  0  0
   54.8781   -4.1764   -9.4136 C   0  0  0  0  0  0  0  0  0  0  0  0
   55.6443   -4.2194   -8.1770 C   0  0  0  0  0  0  0  0  0  0  0  0
   55.2174   -4.2106   -6.9870 O   0  0  0  0  0  0  0  0  0  0  0  0
   57.0168   -4.2790   -8.5835 N   0  0  0  0  0  0  0  0  0  0  0  0
   57.1245   -4.2755  -10.0009 C   0  0  0  0  0  0  0  0  0  0  0  0
   58.2158   -4.3198  -10.8726 C   0  0  0  0  0  0  0  0  0  0  0  0
   58.0159   -4.3028  -12.2335 C   0  0  0  0  0  0  0  0  0  0  0  0
   56.7527   -4.2425  -12.7793 C   0  0  0  0  0  0  0  0  0  0  0  0
   56.5678   -4.2266  -14.1319 F   0  0  0  0  0  0  0  0  0  0  0  0
   55.6958   -4.1999  -11.8969 C   0  0  0  0  0  0  0  0  0  0  0  0
   55.8525   -4.2147  -10.5247 C   0  0  0  0  0  0  0  0  0  0  0  0
   57.8064   -4.3189   -7.9108 H   0  0  0  0  0  0  0  0  0  0  0  0
   51.1265   -5.3885   -5.3930 C   0  0  0  0  0  0  0  0  0  0  0  0
   50.1983   -6.2498   -5.5491 O   0  0  0  0  0  0  0  0  0  0  0  0
   51.6931   -5.3148   -4.1278 N   0  0  0  0  0  0  0  0  0  0  0  0
   52.4950   -4.6042   -4.0355 H   0  0  0  0  0  0  0  0  0  0  0  0
   51.3409   -6.0848   -2.9738 C   0  0  0  0  0  0  0  0  0  0  0  0
   51.9109   -5.7962   -1.6613 C   0  0  0  0  0  0  0  0  0  0  0  0
   52.3496   -4.5223   -1.3707 O   0  0  0  0  0  0  0  0  0  0  0  0
   53.3388   -4.5417   -1.3687 H   0  0  0  0  0  0  0  0  0  0  0  0
   52.6882   -6.8163   -0.9216 C   0  0  0  0  0  0  0  0  0  0  0  0
   52.0266   -8.0139   -0.4964 N   0  0  0  0  0  0  0  0  0  0  0  0
   50.6007   -7.6746   -0.3878 C   0  0  0  0  0  0  0  0  0  0  0  0
   49.7587   -8.8587   -0.0729 C   0  0  0  0  0  0  0  0  0  0  0  0
   50.4503  -10.0683   -0.2964 O   0  0  0  0  0  0  0  0  0  0  0  0
   50.9683   -9.9410   -1.5844 C   0  0  0  0  0  0  0  0  0  0  0  0
   52.2065   -9.0555   -1.4819 C   0  0  0  0  0  0  0  0  0  0  0  0
  1  2  1  0  0  0
  2  3  1  0  0  0
  3  4  1  0  0  0
  4  9  1  0  0  0
  9 10  2  0  0  0
 10 11  1  0  0  0
 11 12  2  0  0  0
 11 13  1  0  0  0
 13 14  1  0  0  0
 14 15  2  0  0  0
 15 16  1  0  0  0
 16 17  2  0  0  0
 17 18  1  0  0  0
 17 19  1  0  0  0
 19 20  2  0  0  0
  4  5  2  0  0  0
  5  6  1  0  0  0
  5  7  1  0  0  0
  7 22  1  0  0  0
 22 23  2  0  0  0
 22 24  1  0  0  0
 24 26  1  0  0  0
 26 27  1  0  0  0
 27 28  1  0  0  0
 27 30  1  0  0  0
 30 31  1  0  0  0
 31 32  1  0  0  0
 32 33  1  0  0  0
 33 34  1  0  0  0
 34 35  1  0  0  0
 35 36  1  0  0  0
  7  2  2  0  0  0
 36 31  1  0  0  0
 20 10  1  0  0  0
 20 14  1  0  0  0
  3  8  1  0  0  0
 13 21  1  0  0  0
 24 25  1  0  0  0
 28 29  1  0  0  0
M  END
> <minimizedAffinity>
-9.60559

> <CNNscore>
0.5486090183

> <CNNaffinity>
6.8720755577

> <CNN_VS>
3.7700827122

> <CNNaffinity_variance>
0.0493425056

$$$$
[H]O[C@@]([H])(C([H])([H])N([H])C(=O)c1c(C([H])([H])[H])c(/C([H])=C2\C(=O)N([H])c3c([H])c([H])c(F)c([H])c32)n([H])c1C([H])([H])[H])C([H])([H])N1C([H])([H])C([H])([H])OC([H])([H])C1([H])[H]


 36 39  0  0  0  0  0  0  0  0999 V2000
   49.9695   -1.9809   -6.7396 C   0  0  0  0  0  0  0  0  0  0  0  0
   50.9640   -2.9526   -7.2659 C   0  0  0  0  0  0  0  0  0  0  0  0
   51.8135   -2.6995   -8.3204 N   0  0  0  0  0  0  0  0  0  0  0  0
   52.5452   -3.7672   -8.5583 C   0  0  0  0  0  0  0  0  0  0  0  0
   52.1751   -4.7228   -7.6593 C   0  0  0  0  0  0  0  0  0  0  0  0
   52.7363   -6.1068   -7.5500 C   0  0  0  0  0  0  0  0  0  0  0  0
   51.1491   -4.2255   -6.8022 C   0  0  0  0  0  0  0  0  0  0  0  0
   51.8088   -1.7651   -8.8212 H   0  0  0  0  0  0  0  0  0  0  0  0
   53.5762   -3.9475   -9.5526 C   0  0  0  0  0  0  0  0  0  0  0  0
   54.8590   -4.1339   -9.3089 C   0  0  0  0  0  0  0  0  0  0  0  0
   55.5005   -4.2045   -8.0045 C   0  0  0  0  0  0  0  0  0  0  0  0
   54.9668   -4.1291   -6.8609 O   0  0  0  0  0  0  0  0  0  0  0  0
   56.8953   -4.3848   -8.2774 N   0  0  0  0  0  0  0  0  0  0  0  0
   57.1345   -4.4284   -9.6780 C   0  0  0  0  0  0  0  0  0  0  0  0
   58.2949   -4.5835  -10.4409 C   0  0  0  0  0  0  0  0  0  0  0  0
   58.2249   -4.5876  -11.8148 C   0  0  0  0  0  0  0  0  0  0  0  0
   57.0272   -4.4414  -12.4793 C   0  0  0  0  0  0  0  0  0  0  0  0
   56.9711   -4.4474  -13.8433 F   0  0  0  0  0  0  0  0  0  0  0  0
   55.8998   -4.2903  -11.7023 C   0  0  0  0  0  0  0  0  0  0  0  0
   55.9262   -4.2802  -10.3214 C   0  0  0  0  0  0  0  0  0  0  0  0
   57.6128   -4.4694   -7.5320 H   0  0  0  0  0  0  0  0  0  0  0  0
   50.5744   -4.9863   -5.7216 C   0  0  0  0  0  0  0  0  0  0  0  0
   49.9544   -6.0572   -6.0327 O   0  0  0  0  0  0  0  0  0  0  0  0
   50.6283   -4.6754   -4.3698 N   0  0  0  0  0  0  0  0  0  0  0  0
   51.1856   -3.7861   -4.1352 H   0  0  0  0  0  0  0  0  0  0  0  0
   50.0513   -5.4125   -3.2868 C   0  0  0  0  0  0  0  0  0  0  0  0
   50.8815   -6.1412   -2.3326 C   0  0  0  0  0  0  0  0  0  0  0  0
   50.2931   -6.7851   -1.2654 O   0  0  0  0  0  0  0  0  0  0  0  0
   50.4957   -6.2592   -0.4523 H   0  0  0  0  0  0  0  0  0  0  0  0
   52.2488   -5.6821   -1.9985 C   0  0  0  0  0  0  0  0  0  0  0  0
   53.3674   -6.3750   -2.5653 N   0  0  0  0  0  0  0  0  0  0  0  0
   54.4198   -5.3659   -2.7507 C   0  0  0  0  0  0  0  0  0  0  0  0
   55.6990   -5.9607   -3.2200 C   0  0  0  0  0  0  0  0  0  0  0  0
   55.7222   -7.3607   -3.0438 O   0  0  0  0  0  0  0  0  0  0  0  0
   55.3451   -7.5512   -1.7153 C   0  0  0  0  0  0  0  0  0  0  0  0
   53.8282   -7.3991   -1.6557 C   0  0  0  0  0  0  0  0  0  0  0  0
  1  2  1  0  0  0
  2  3  1  0  0  0
  3  4  1  0  0  0
  4  9  1  0  0  0
  9 10  2  0  0  0
 10 11  1  0  0  0
 11 12  2  0  0  0
 11 13  1  0  0  0
 13 14  1  0  0  0
 14 15  2  0  0  0
 15 16  1  0  0  0
 16 17  2  0  0  0
 17 18  1  0  0  0
 17 19  1  0  0  0
 19 20  2  0  0  0
  4  5  2  0  0  0
  5  6  1  0  0  0
  5  7  1  0  0  0
  7 22  1  0  0  0
 22 23  2  0  0  0
 22 24  1  0  0  0
 24 26  1  0  0  0
 26 27  1  0  0  0
 27 28  1  0  0  0
 27 30  1  0  0  0
 30 31  1  0  0  0
 31 32  1  0  0  0
 32 33  1  0  0  0
 33 34  1  0  0  0
 34 35  1  0  0  0
 35 36  1  0  0  0
  7  2  2  0  0  0
 36 31  1  0  0  0
 20 10  1  0  0  0
 20 14  1  0  0  0
  3  8  1  0  0  0
 13 21  1  0  0  0
 24 25  1  0  0  0
 28 29  1  0  0  0
M  END
> <minimizedAffinity>
-9.83976

> <CNNscore>
0.4730213881

> <CNNaffinity>
6.9081048965

> <CNN_VS>
3.2676813602

> <CNNaffinity_variance>
0.1126801148

$$$$
[H]O[C@@]([H])(C([H])([H])N([H])C(=O)c1c(C([H])([H])[H])c(/C([H])=C2\C(=O)N([H])c3c([H])c([H])c(F)c([H])c32)n([H])c1C([H])([H])[H])C([H])([H])N1C([H])([H])C([H])([H])OC([H])([H])C1([H])[H]


 36 39  0  0  0  0  0  0  0  0999 V2000
   52.2925   -4.8858   -6.2054 C   0  0  0  0  0  0  0  0  0  0  0  0
   53.7207   -5.0420   -6.5878 C   0  0  0  0  0  0  0  0  0  0  0  0
   54.2349   -4.7077   -7.8213 N   0  0  0  0  0  0  0  0  0  0  0  0
   55.5194   -4.9927   -7.8513 C   0  0  0  0  0  0  0  0  0  0  0  0
   55.8487   -5.5154   -6.6361 C   0  0  0  0  0  0  0  0  0  0  0  0
   57.2040   -5.9870   -6.2081 C   0  0  0  0  0  0  0  0  0  0  0  0
   54.7019   -5.5605   -5.7891 C   0  0  0  0  0  0  0  0  0  0  0  0
   53.6210   -4.2995   -8.5832 H   0  0  0  0  0  0  0  0  0  0  0  0
   56.4600   -4.7925   -8.9280 C   0  0  0  0  0  0  0  0  0  0  0  0
   56.1649   -4.3667  -10.1409 C   0  0  0  0  0  0  0  0  0  0  0  0
   54.8485   -4.0049  -10.6451 C   0  0  0  0  0  0  0  0  0  0  0  0
   53.7447   -4.0001  -10.0287 O   0  0  0  0  0  0  0  0  0  0  0  0
   55.0542   -3.6414  -12.0155 N   0  0  0  0  0  0  0  0  0  0  0  0
   56.4256   -3.7622  -12.3698 C   0  0  0  0  0  0  0  0  0  0  0  0
   57.1257   -3.5321  -13.5571 C   0  0  0  0  0  0  0  0  0  0  0  0
   58.4848   -3.7380  -13.6104 C   0  0  0  0  0  0  0  0  0  0  0  0
   59.1953   -4.1717  -12.5129 C   0  0  0  0  0  0  0  0  0  0  0  0
   60.5441   -4.3719  -12.5788 F   0  0  0  0  0  0  0  0  0  0  0  0
   58.4798   -4.3903  -11.3563 C   0  0  0  0  0  0  0  0  0  0  0  0
   57.1157   -4.1964  -11.2602 C   0  0  0  0  0  0  0  0  0  0  0  0
   54.2860   -3.3343  -12.6424 H   0  0  0  0  0  0  0  0  0  0  0  0
   54.7351   -6.0269   -4.4260 C   0  0  0  0  0  0  0  0  0  0  0  0
   54.2238   -7.1724   -4.1931 O   0  0  0  0  0  0  0  0  0  0  0  0
   55.2714   -5.3574   -3.3346 N   0  0  0  0  0  0  0  0  0  0  0  0
   55.7248   -4.4104   -3.5670 H   0  0  0  0  0  0  0  0  0  0  0  0
   55.2997   -5.8005   -1.9738 C   0  0  0  0  0  0  0  0  0  0  0  0
   54.3196   -5.3322   -0.9988 C   0  0  0  0  0  0  0  0  0  0  0  0
   54.6915   -4.4127   -0.0417 O   0  0  0  0  0  0  0  0  0  0  0  0
   54.7508   -4.8905    0.8226 H   0  0  0  0  0  0  0  0  0  0  0  0
   53.2453   -6.2223   -0.5030 C   0  0  0  0  0  0  0  0  0  0  0  0
   51.9594   -6.1692   -1.1324 N   0  0  0  0  0  0  0  0  0  0  0  0
   51.9429   -4.9285   -1.9202 C   0  0  0  0  0  0  0  0  0  0  0  0
   50.7086   -4.7927   -2.7379 C   0  0  0  0  0  0  0  0  0  0  0  0
   50.0146   -6.0166   -2.8470 O   0  0  0  0  0  0  0  0  0  0  0  0
   50.9849   -6.9329   -3.2500 C   0  0  0  0  0  0  0  0  0  0  0  0
   51.7896   -7.3058   -2.0086 C   0  0  0  0  0  0  0  0  0  0  0  0
  1  2  1  0  0  0
  2  3  1  0  0  0
  3  4  1  0  0  0
  4  9  1  0  0  0
  9 10  2  0  0  0
 10 11  1  0  0  0
 11 12  2  0  0  0
 11 13  1  0  0  0
 13 14  1  0  0  0
 14 15  2  0  0  0
 15 16  1  0  0  0
 16 17  2  0  0  0
 17 18  1  0  0  0
 17 19  1  0  0  0
 19 20  2  0  0  0
  4  5  2  0  0  0
  5  6  1  0  0  0
  5  7  1  0  0  0
  7 22  1  0  0  0
 22 23  2  0  0  0
 22 24  1  0  0  0
 24 26  1  0  0  0
 26 27  1  0  0  0
 27 28  1  0  0  0
 27 30  1  0  0  0
 30 31  1  0  0  0
 31 32  1  0  0  0
 32 33  1  0  0  0
 33 34  1  0  0  0
 34 35  1  0  0  0
 35 36  1  0  0  0
  7  2  2  0  0  0
 36 31  1  0  0  0
 20 10  1  0  0  0
 20 14  1  0  0  0
  3  8  1  0  0  0
 13 21  1  0  0  0
 24 25  1  0  0  0
 28 29  1  0  0  0
M  END
> <minimizedAffinity>
-6.58975

> <CNNscore>
0.3970348835

> <CNNaffinity>
6.4652643204

> <CNN_VS>
2.5669355392

> <CNNaffinity_variance>
0.2246504277

$$$$
[H]C1=C([H])C([H])(F)C([H])([H])C([H])=C1N([H])C(=O)C1(C(=O)N([H])c2c([H])c([H])c(Oc3c([H])c([H])nc4c([H])c(OC([H])([H])C([H])([H])C([H])([H])N5C([H])([H])C([H])([H])C([H])([H])C5([H])[H])c(OC([H])([H])[H])c([H])c34)c(F)c2[H])C([H])([H])C1([H])[H]


 47 52  0  0  0  0  0  0  0  0999 V2000
   55.4483   -4.2776   -9.5766 C   0  0  0  0  0  0  0  0  0  0  0  0
   55.8809   -4.3547   -8.2598 C   0  0  0  0  0  0  0  0  0  0  0  0
   57.1550   -4.7625   -7.9613 C   0  0  0  0  0  0  0  0  0  0  0  0
   58.0916   -5.1230   -8.9438 C   0  0  0  0  0  0  0  0  0  0  0  0
   57.6638   -5.0471  -10.2401 C   0  0  0  0  0  0  0  0  0  0  0  0
   56.3547   -4.6272  -10.5431 C   0  0  0  0  0  0  0  0  0  0  0  0
   56.0209   -4.5662  -11.8574 F   0  0  0  0  0  0  0  0  0  0  0  0
   59.3888   -5.5599   -8.5376 N   0  0  0  0  0  0  0  0  0  0  0  0
   60.1319   -6.6098   -9.0624 C   0  0  0  0  0  0  0  0  0  0  0  0
   59.5913   -7.2795  -10.0144 O   0  0  0  0  0  0  0  0  0  0  0  0
   59.7515   -5.0073   -7.6876 H   0  0  0  0  0  0  0  0  0  0  0  0
   61.4580   -7.0351   -8.6332 C   0  0  0  0  0  0  0  0  0  0  0  0
   62.4336   -5.9241   -8.2544 C   0  0  0  0  0  0  0  0  0  0  0  0
   62.5638   -6.5511   -9.5870 C   0  0  0  0  0  0  0  0  0  0  0  0
   61.7062   -8.3483   -7.9849 C   0  0  0  0  0  0  0  0  0  0  0  0
   62.5312   -8.2597   -6.9914 O   0  0  0  0  0  0  0  0  0  0  0  0
   61.1301   -9.5372   -8.3713 N   0  0  0  0  0  0  0  0  0  0  0  0
   60.3886   -9.4772   -9.1354 H   0  0  0  0  0  0  0  0  0  0  0  0
   61.3069  -10.8651   -7.8473 C   0  0  0  0  0  0  0  0  0  0  0  0
   60.7642  -11.2770   -6.7311 C   0  0  0  0  0  0  0  0  0  0  0  0
   60.9406  -12.6371   -6.1875 C   0  0  0  0  0  0  0  0  0  0  0  0
   61.7929  -13.5601   -6.9553 C   0  0  0  0  0  0  0  0  0  0  0  0
   62.8578  -13.9590   -6.1246 F   0  0  0  0  0  0  0  0  0  0  0  0
   62.3583  -13.0280   -8.1829 C   0  0  0  0  0  0  0  0  0  0  0  0
   62.1481  -11.8169   -8.5967 C   0  0  0  0  0  0  0  0  0  0  0  0
   54.1742   -3.8682   -9.8996 O   0  0  0  0  0  0  0  0  0  0  0  0
   53.3355   -6.2439   -6.6730 C   0  0  0  0  0  0  0  0  0  0  0  0
   53.5926   -5.4276   -7.7468 C   0  0  0  0  0  0  0  0  0  0  0  0
   52.9023   -4.2626   -7.9704 C   0  0  0  0  0  0  0  0  0  0  0  0
   53.1852   -3.4491   -9.0677 C   0  0  0  0  0  0  0  0  0  0  0  0
   52.4270   -2.3095   -9.1802 C   0  0  0  0  0  0  0  0  0  0  0  0
   51.4517   -1.9901   -8.2694 C   0  0  0  0  0  0  0  0  0  0  0  0
   51.2222   -2.7959   -7.2448 N   0  0  0  0  0  0  0  0  0  0  0  0
   51.9232   -3.9449   -7.0535 C   0  0  0  0  0  0  0  0  0  0  0  0
   51.6405   -4.7437   -5.9653 C   0  0  0  0  0  0  0  0  0  0  0  0
   52.3576   -5.8973   -5.7849 C   0  0  0  0  0  0  0  0  0  0  0  0
   55.2258   -7.4831   -5.7032 C   0  0  0  0  0  0  0  0  0  0  0  0
   54.0610   -7.4193   -6.4822 O   0  0  0  0  0  0  0  0  0  0  0  0
   52.0430   -6.6730   -4.6779 O   0  0  0  0  0  0  0  0  0  0  0  0
   52.4355   -6.3802   -3.3740 C   0  0  0  0  0  0  0  0  0  0  0  0
   51.2276   -6.4277   -2.4744 C   0  0  0  0  0  0  0  0  0  0  0  0
   51.5430   -7.0481   -1.1435 C   0  0  0  0  0  0  0  0  0  0  0  0
   50.6932   -8.1663   -0.8844 N   0  0  0  0  0  0  0  0  0  0  0  0
   51.2917   -9.4486   -1.0656 C   0  0  0  0  0  0  0  0  0  0  0  0
   50.7059  -10.3700    0.0085 C   0  0  0  0  0  0  0  0  0  0  0  0
   49.4766   -9.5872    0.4312 C   0  0  0  0  0  0  0  0  0  0  0  0
   50.0274   -8.1545    0.3819 C   0  0  0  0  0  0  0  0  0  0  0  0
 37 38  1  0  0  0
 38 27  1  0  0  0
 27 28  2  0  0  0
 28 29  1  0  0  0
 29 30  2  0  0  0
 30 26  1  0  0  0
 26  1  1  0  0  0
  1  2  2  0  0  0
  2  3  1  0  0  0
  3  4  2  0  0  0
  4  8  1  0  0  0
  8  9  1  0  0  0
  9 10  2  0  0  0
  9 12  1  0  0  0
 12 13  1  0  0  0
 13 14  1  0  0  0
 12 15  1  0  0  0
 15 16  2  0  0  0
 15 17  1  0  0  0
 17 19  1  0  0  0
 19 20  2  0  0  0
 20 21  1  0  0  0
 21 22  1  0  0  0
 22 23  1  0  0  0
 22 24  1  0  0  0
 24 25  2  0  0  0
  4  5  1  0  0  0
  5  6  2  0  0  0
  6  7  1  0  0  0
 30 31  1  0  0  0
 31 32  2  0  0  0
 32 33  1  0  0  0
 33 34  2  0  0  0
 34 35  1  0  0  0
 35 36  2  0  0  0
 36 39  1  0  0  0
 39 40  1  0  0  0
 40 41  1  0  0  0
 41 42  1  0  0  0
 42 43  1  0  0  0
 43 44  1  0  0  0
 44 45  1  0  0  0
 45 46  1  0  0  0
 46 47  1  0  0  0
 36 27  1  0  0  0
 47 43  1  0  0  0
 34 29  1  0  0  0
  6  1  1  0  0  0
 14 12  1  0  0  0
 25 19  1  0  0  0
  8 11  1  0  0  0
 17 18  1  0  0  0
M  END
> <minimizedAffinity>
-9.42692

> <CNNscore>
0.6330657005

> <CNNaffinity>
7.5046439171

> <CNN_VS>
4.7509326935

> <CNNaffinity_variance>
0.0769872814

$$$$
[H]C1=C([H])C([H])(F)C([H])([H])C([H])=C1N([H])C(=O)C1(C(=O)N([H])c2c([H])c([H])c(Oc3c([H])c([H])nc4c([H])c(OC([H])([H])C([H])([H])C([H])([H])N5C([H])([H])C([H])([H])C([H])([H])C5([H])[H])c(OC([H])([H])[H])c([H])c34)c(F)c2[H])C([H])([H])C1([H])[H]


 47 52  0  0  0  0  0  0  0  0999 V2000
   55.4025   -4.1559   -9.4759 C   0  0  0  0  0  0  0  0  0  0  0  0
   55.8799   -4.1541   -8.1724 C   0  0  0  0  0  0  0  0  0  0  0  0
   57.1479   -4.5897   -7.8877 C   0  0  0  0  0  0  0  0  0  0  0  0
   58.0337   -5.0581   -8.8718 C   0  0  0  0  0  0  0  0  0  0  0  0
   57.5618   -5.0598  -10.1550 C   0  0  0  0  0  0  0  0  0  0  0  0
   56.2590   -4.6111  -10.4439 C   0  0  0  0  0  0  0  0  0  0  0  0
   55.8797   -4.6327  -11.7470 F   0  0  0  0  0  0  0  0  0  0  0  0
   59.3277   -5.5158   -8.4784 N   0  0  0  0  0  0  0  0  0  0  0  0
   60.0678   -6.5487   -9.0399 C   0  0  0  0  0  0  0  0  0  0  0  0
   59.5271   -7.1799  -10.0178 O   0  0  0  0  0  0  0  0  0  0  0  0
   59.6902   -4.9970   -7.6073 H   0  0  0  0  0  0  0  0  0  0  0  0
   61.3906   -6.9957   -8.6229 C   0  0  0  0  0  0  0  0  0  0  0  0
   62.3955   -5.9003   -8.2772 C   0  0  0  0  0  0  0  0  0  0  0  0
   62.4922   -6.5519   -9.6008 C   0  0  0  0  0  0  0  0  0  0  0  0
   61.6200   -8.3033   -7.9565 C   0  0  0  0  0  0  0  0  0  0  0  0
   62.3500   -8.1933   -6.8932 O   0  0  0  0  0  0  0  0  0  0  0  0
   61.1172   -9.5076   -8.3939 N   0  0  0  0  0  0  0  0  0  0  0  0
   60.4453   -9.4672   -9.2210 H   0  0  0  0  0  0  0  0  0  0  0  0
   61.2870  -10.8315   -7.8575 C   0  0  0  0  0  0  0  0  0  0  0  0
   60.8178  -11.2031   -6.6948 C   0  0  0  0  0  0  0  0  0  0  0  0
   60.9876  -12.5587   -6.1381 C   0  0  0  0  0  0  0  0  0  0  0  0
   61.7451  -13.5260   -6.9496 C   0  0  0  0  0  0  0  0  0  0  0  0
   62.8563  -13.9488   -6.1946 F   0  0  0  0  0  0  0  0  0  0  0  0
   62.2325  -13.0372   -8.2276 C   0  0  0  0  0  0  0  0  0  0  0  0
   62.0338  -11.8269   -8.6492 C   0  0  0  0  0  0  0  0  0  0  0  0
   54.1335   -3.7205   -9.7851 O   0  0  0  0  0  0  0  0  0  0  0  0
   53.4935   -6.2145   -6.6025 C   0  0  0  0  0  0  0  0  0  0  0  0
   53.6827   -5.3604   -7.6609 C   0  0  0  0  0  0  0  0  0  0  0  0
   52.9090   -4.2437   -7.8559 C   0  0  0  0  0  0  0  0  0  0  0  0
   53.1240   -3.3901   -8.9381 C   0  0  0  0  0  0  0  0  0  0  0  0
   52.2853   -2.3058   -9.0219 C   0  0  0  0  0  0  0  0  0  0  0  0
   51.2972   -2.0754   -8.0982 C   0  0  0  0  0  0  0  0  0  0  0  0
   51.1344   -2.9159   -7.0889 N   0  0  0  0  0  0  0  0  0  0  0  0
   51.9173   -4.0154   -6.9260 C   0  0  0  0  0  0  0  0  0  0  0  0
   51.7015   -4.8541   -5.8526 C   0  0  0  0  0  0  0  0  0  0  0  0
   52.5007   -5.9566   -5.7009 C   0  0  0  0  0  0  0  0  0  0  0  0
   55.4410   -7.3518   -5.6210 C   0  0  0  0  0  0  0  0  0  0  0  0
   54.3027   -7.3384   -6.4409 O   0  0  0  0  0  0  0  0  0  0  0  0
   52.2514   -6.7749   -4.6079 O   0  0  0  0  0  0  0  0  0  0  0  0
   52.1193   -6.3206   -3.2979 C   0  0  0  0  0  0  0  0  0  0  0  0
   53.4292   -6.5092   -2.5774 C   0  0  0  0  0  0  0  0  0  0  0  0
   54.2115   -5.2301   -2.4909 C   0  0  0  0  0  0  0  0  0  0  0  0
   55.5142   -5.4608   -1.9529 N   0  0  0  0  0  0  0  0  0  0  0  0
   56.5878   -4.8303   -2.6495 C   0  0  0  0  0  0  0  0  0  0  0  0
   57.6145   -4.4050   -1.5956 C   0  0  0  0  0  0  0  0  0  0  0  0
   57.1891   -5.2513   -0.4101 C   0  0  0  0  0  0  0  0  0  0  0  0
   55.6617   -5.1886   -0.5561 C   0  0  0  0  0  0  0  0  0  0  0  0
 37 38  1  0  0  0
 38 27  1  0  0  0
 27 28  2  0  0  0
 28 29  1  0  0  0
 29 30  2  0  0  0
 30 26  1  0  0  0
 26  1  1  0  0  0
  1  2  2  0  0  0
  2  3  1  0  0  0
  3  4  2  0  0  0
  4  8  1  0  0  0
  8  9  1  0  0  0
  9 10  2  0  0  0
  9 12  1  0  0  0
 12 13  1  0  0  0
 13 14  1  0  0  0
 12 15  1  0  0  0
 15 16  2  0  0  0
 15 17  1  0  0  0
 17 19  1  0  0  0
 19 20  2  0  0  0
 20 21  1  0  0  0
 21 22  1  0  0  0
 22 23  1  0  0  0
 22 24  1  0  0  0
 24 25  2  0  0  0
  4  5  1  0  0  0
  5  6  2  0  0  0
  6  7  1  0  0  0
 30 31  1  0  0  0
 31 32  2  0  0  0
 32 33  1  0  0  0
 33 34  2  0  0  0
 34 35  1  0  0  0
 35 36  2  0  0  0
 36 39  1  0  0  0
 39 40  1  0  0  0
 40 41  1  0  0  0
 41 42  1  0  0  0
 42 43  1  0  0  0
 43 44  1  0  0  0
 44 45  1  0  0  0
 45 46  1  0  0  0
 46 47  1  0  0  0
 36 27  1  0  0  0
 47 43  1  0  0  0
 34 29  1  0  0  0
  6  1  1  0  0  0
 14 12  1  0  0  0
 25 19  1  0  0  0
  8 11  1  0  0  0
 17 18  1  0  0  0
M  END
> <minimizedAffinity>
-9.50167

> <CNNscore>
0.5059806705

> <CNNaffinity>
7.6491255760

> <CNN_VS>
3.8703095913

> <CNNaffinity_variance>
0.0745159909

$$$$
[H]C1=C([H])C([H])(F)C([H])([H])C([H])=C1N([H])C(=O)C1(C(=O)N([H])c2c([H])c([H])c(Oc3c([H])c([H])nc4c([H])c(OC([H])([H])C([H])([H])C([H])([H])N5C([H])([H])C([H])([H])C([H])([H])C5([H])[H])c(OC([H])([H])[H])c([H])c34)c(F)c2[H])C([H])([H])C1([H])[H]


 47 52  0  0  0  0  0  0  0  0999 V2000
   54.4988   -5.7202   -5.2457 C   0  0  0  0  0  0  0  0  0  0  0  0
   55.8595   -5.6403   -4.9833 C   0  0  0  0  0  0  0  0  0  0  0  0
   56.3217   -5.5221   -3.6982 C   0  0  0  0  0  0  0  0  0  0  0  0
   55.4710   -5.4746   -2.5818 C   0  0  0  0  0  0  0  0  0  0  0  0
   54.1311   -5.5528   -2.8420 C   0  0  0  0  0  0  0  0  0  0  0  0
   53.6599   -5.6748   -4.1631 C   0  0  0  0  0  0  0  0  0  0  0  0
   52.3154   -5.7622   -4.3271 F   0  0  0  0  0  0  0  0  0  0  0  0
   56.0416   -5.3249   -1.2816 N   0  0  0  0  0  0  0  0  0  0  0  0
   56.3053   -6.3232   -0.3522 C   0  0  0  0  0  0  0  0  0  0  0  0
   55.9895   -7.5211   -0.6875 O   0  0  0  0  0  0  0  0  0  0  0  0
   56.2115   -4.2910   -1.0334 H   0  0  0  0  0  0  0  0  0  0  0  0
   56.8932   -6.1463    0.9695 C   0  0  0  0  0  0  0  0  0  0  0  0
   55.9397   -6.2708    2.1547 C   0  0  0  0  0  0  0  0  0  0  0  0
   56.3259   -4.9176    1.7013 C   0  0  0  0  0  0  0  0  0  0  0  0
   58.3154   -6.4604    1.2611 C   0  0  0  0  0  0  0  0  0  0  0  0
   58.4613   -7.0902    2.3824 O   0  0  0  0  0  0  0  0  0  0  0  0
   59.3752   -6.1381    0.4441 N   0  0  0  0  0  0  0  0  0  0  0  0
   59.1304   -5.7113   -0.5020 H   0  0  0  0  0  0  0  0  0  0  0  0
   60.7847   -6.3616    0.6246 C   0  0  0  0  0  0  0  0  0  0  0  0
   61.4853   -7.1784   -0.1185 C   0  0  0  0  0  0  0  0  0  0  0  0
   62.9309   -7.4126    0.0602 C   0  0  0  0  0  0  0  0  0  0  0  0
   63.5972   -6.6857    1.1537 C   0  0  0  0  0  0  0  0  0  0  0  0
   64.1522   -7.6369    2.0314 F   0  0  0  0  0  0  0  0  0  0  0  0
   62.7514   -5.7982    1.9326 C   0  0  0  0  0  0  0  0  0  0  0  0
   61.4840   -5.6424    1.7058 C   0  0  0  0  0  0  0  0  0  0  0  0
   54.0125   -5.8419   -6.5280 O   0  0  0  0  0  0  0  0  0  0  0  0
   56.6930   -4.9234   -9.4825 C   0  0  0  0  0  0  0  0  0  0  0  0
   55.7748   -5.2077   -8.5019 C   0  0  0  0  0  0  0  0  0  0  0  0
   54.5764   -4.5468   -8.3987 C   0  0  0  0  0  0  0  0  0  0  0  0
   53.6591   -4.8569   -7.3945 C   0  0  0  0  0  0  0  0  0  0  0  0
   52.4960   -4.1268   -7.3988 C   0  0  0  0  0  0  0  0  0  0  0  0
   52.2504   -3.1526   -8.3334 C   0  0  0  0  0  0  0  0  0  0  0  0
   53.1536   -2.8965   -9.2664 N   0  0  0  0  0  0  0  0  0  0  0  0
   54.3330   -3.5687   -9.3391 C   0  0  0  0  0  0  0  0  0  0  0  0
   55.2347   -3.2592  -10.3359 C   0  0  0  0  0  0  0  0  0  0  0  0
   56.4179   -3.9474  -10.3974 C   0  0  0  0  0  0  0  0  0  0  0  0
   58.9446   -5.4347   -8.6351 C   0  0  0  0  0  0  0  0  0  0  0  0
   57.8991   -5.6194   -9.5521 O   0  0  0  0  0  0  0  0  0  0  0  0
   57.2977   -3.6063  -11.4151 O   0  0  0  0  0  0  0  0  0  0  0  0
   57.5665   -4.4048  -12.5242 C   0  0  0  0  0  0  0  0  0  0  0  0
   57.7219   -3.5250  -13.7376 C   0  0  0  0  0  0  0  0  0  0  0  0
   56.6604   -3.7937  -14.7655 C   0  0  0  0  0  0  0  0  0  0  0  0
   57.0251   -3.2488  -16.0342 N   0  0  0  0  0  0  0  0  0  0  0  0
   58.3791   -2.8148  -16.1509 C   0  0  0  0  0  0  0  0  0  0  0  0
   58.8268   -3.1299  -17.5813 C   0  0  0  0  0  0  0  0  0  0  0  0
   57.4906   -3.3313  -18.2717 C   0  0  0  0  0  0  0  0  0  0  0  0
   56.7138   -4.0640  -17.1680 C   0  0  0  0  0  0  0  0  0  0  0  0
 37 38  1  0  0  0
 38 27  1  0  0  0
 27 28  2  0  0  0
 28 29  1  0  0  0
 29 30  2  0  0  0
 30 26  1  0  0  0
 26  1  1  0  0  0
  1  2  2  0  0  0
  2  3  1  0  0  0
  3  4  2  0  0  0
  4  8  1  0  0  0
  8  9  1  0  0  0
  9 10  2  0  0  0
  9 12  1  0  0  0
 12 13  1  0  0  0
 13 14  1  0  0  0
 12 15  1  0  0  0
 15 16  2  0  0  0
 15 17  1  0  0  0
 17 19  1  0  0  0
 19 20  2  0  0  0
 20 21  1  0  0  0
 21 22  1  0  0  0
 22 23  1  0  0  0
 22 24  1  0  0  0
 24 25  2  0  0  0
  4  5  1  0  0  0
  5  6  2  0  0  0
  6  7  1  0  0  0
 30 31  1  0  0  0
 31 32  2  0  0  0
 32 33  1  0  0  0
 33 34  2  0  0  0
 34 35  1  0  0  0
 35 36  2  0  0  0
 36 39  1  0  0  0
 39 40  1  0  0  0
 40 41  1  0  0  0
 41 42  1  0  0  0
 42 43  1  0  0  0
 43 44  1  0  0  0
 44 45  1  0  0  0
 45 46  1  0  0  0
 46 47  1  0  0  0
 36 27  1  0  0  0
 47 43  1  0  0  0
 34 29  1  0  0  0
  6  1  1  0  0  0
 14 12  1  0  0  0
 25 19  1  0  0  0
  8 11  1  0  0  0
 17 18  1  0  0  0
M  END
> <minimizedAffinity>
-7.60179

> <CNNscore>
0.3254347146

> <CNNaffinity>
7.0513701439

> <CNN_VS>
2.2947607040

> <CNNaffinity_variance>
0.4296353459

$$$$
[H]C1=C([H])C([H])(F)C([H])([H])C([H])=C1N([H])C(=O)C1(C(=O)N([H])c2c([H])c([H])c(Oc3c([H])c([H])nc4c([H])c(OC([H])([H])C([H])([H])C([H])([H])N5C([H])([H])C([H])([H])C([H])([H])C5([H])[H])c(OC([H])([H])[H])c([H])c34)c(F)c2[H])C([H])([H])C1([H])[H]


 47 52  0  0  0  0  0  0  0  0999 V2000
   55.4158   -5.4057   -5.8017 C   0  0  0  0  0  0  0  0  0  0  0  0
   55.8342   -4.8330   -4.6084 C   0  0  0  0  0  0  0  0  0  0  0  0
   55.1921   -5.1147   -3.4305 C   0  0  0  0  0  0  0  0  0  0  0  0
   54.0909   -5.9824   -3.3493 C   0  0  0  0  0  0  0  0  0  0  0  0
   53.6797   -6.5451   -4.5256 C   0  0  0  0  0  0  0  0  0  0  0  0
   54.3419   -6.2542   -5.7334 C   0  0  0  0  0  0  0  0  0  0  0  0
   53.8762   -6.8699   -6.8498 F   0  0  0  0  0  0  0  0  0  0  0  0
   53.4693   -6.1967   -2.0819 N   0  0  0  0  0  0  0  0  0  0  0  0
   53.6604   -7.2649   -1.2145 C   0  0  0  0  0  0  0  0  0  0  0  0
   54.4789   -8.1772   -1.5950 O   0  0  0  0  0  0  0  0  0  0  0  0
   52.7397   -5.4371   -1.8580 H   0  0  0  0  0  0  0  0  0  0  0  0
   53.0166   -7.4601    0.0781 C   0  0  0  0  0  0  0  0  0  0  0  0
   53.4844   -6.5492    1.2099 C   0  0  0  0  0  0  0  0  0  0  0  0
   54.0056   -7.9319    1.1580 C   0  0  0  0  0  0  0  0  0  0  0  0
   51.6320   -7.9812    0.2116 C   0  0  0  0  0  0  0  0  0  0  0  0
   50.8318   -7.4884   -0.6784 O   0  0  0  0  0  0  0  0  0  0  0  0
   51.2226   -8.8919    1.1591 N   0  0  0  0  0  0  0  0  0  0  0  0
   51.9863   -9.3080    1.7762 H   0  0  0  0  0  0  0  0  0  0  0  0
   49.9195   -9.4487    1.4058 C   0  0  0  0  0  0  0  0  0  0  0  0
   49.6425  -10.7199    1.2730 C   0  0  0  0  0  0  0  0  0  0  0  0
   48.3089  -11.2984    1.5245 C   0  0  0  0  0  0  0  0  0  0  0  0
   47.2417  -10.3695    1.9322 C   0  0  0  0  0  0  0  0  0  0  0  0
   46.2098  -10.4489    0.9771 F   0  0  0  0  0  0  0  0  0  0  0  0
   47.6288   -8.9751    2.0576 C   0  0  0  0  0  0  0  0  0  0  0  0
   48.8303   -8.5463    1.8239 C   0  0  0  0  0  0  0  0  0  0  0  0
   56.0473   -5.1392   -6.9957 O   0  0  0  0  0  0  0  0  0  0  0  0
   58.4449   -5.1084  -10.3136 C   0  0  0  0  0  0  0  0  0  0  0  0
   57.6180   -5.1032   -9.2173 C   0  0  0  0  0  0  0  0  0  0  0  0
   56.3413   -4.6010   -9.2581 C   0  0  0  0  0  0  0  0  0  0  0  0
   55.5200   -4.6103   -8.1306 C   0  0  0  0  0  0  0  0  0  0  0  0
   54.2639   -4.0817   -8.2997 C   0  0  0  0  0  0  0  0  0  0  0  0
   53.8419   -3.5759   -9.5035 C   0  0  0  0  0  0  0  0  0  0  0  0
   54.6600   -3.5906  -10.5437 N   0  0  0  0  0  0  0  0  0  0  0  0
   55.9208   -4.0936  -10.4689 C   0  0  0  0  0  0  0  0  0  0  0  0
   56.7271   -4.0839  -11.5879 C   0  0  0  0  0  0  0  0  0  0  0  0
   57.9943   -4.5970  -11.4970 C   0  0  0  0  0  0  0  0  0  0  0  0
   60.1661   -6.4435   -9.1714 C   0  0  0  0  0  0  0  0  0  0  0  0
   59.7357   -5.6289  -10.2294 O   0  0  0  0  0  0  0  0  0  0  0  0
   58.7737   -4.5689  -12.6451 O   0  0  0  0  0  0  0  0  0  0  0  0
   59.2988   -3.4102  -13.2122 C   0  0  0  0  0  0  0  0  0  0  0  0
   60.6853   -3.6992  -13.7268 C   0  0  0  0  0  0  0  0  0  0  0  0
   60.9420   -3.0375  -15.0503 C   0  0  0  0  0  0  0  0  0  0  0  0
   62.3305   -2.7486  -15.2188 N   0  0  0  0  0  0  0  0  0  0  0  0
   62.9926   -2.2208  -14.0705 C   0  0  0  0  0  0  0  0  0  0  0  0
   64.4128   -2.7943  -14.0717 C   0  0  0  0  0  0  0  0  0  0  0  0
   64.5384   -3.2699  -15.5072 C   0  0  0  0  0  0  0  0  0  0  0  0
   63.1233   -3.8171  -15.7448 C   0  0  0  0  0  0  0  0  0  0  0  0
 37 38  1  0  0  0
 38 27  1  0  0  0
 27 28  2  0  0  0
 28 29  1  0  0  0
 29 30  2  0  0  0
 30 26  1  0  0  0
 26  1  1  0  0  0
  1  2  2  0  0  0
  2  3  1  0  0  0
  3  4  2  0  0  0
  4  8  1  0  0  0
  8  9  1  0  0  0
  9 10  2  0  0  0
  9 12  1  0  0  0
 12 13  1  0  0  0
 13 14  1  0  0  0
 12 15  1  0  0  0
 15 16  2  0  0  0
 15 17  1  0  0  0
 17 19  1  0  0  0
 19 20  2  0  0  0
 20 21  1  0  0  0
 21 22  1  0  0  0
 22 23  1  0  0  0
 22 24  1  0  0  0
 24 25  2  0  0  0
  4  5  1  0  0  0
  5  6  2  0  0  0
  6  7  1  0  0  0
 30 31  1  0  0  0
 31 32  2  0  0  0
 32 33  1  0  0  0
 33 34  2  0  0  0
 34 35  1  0  0  0
 35 36  2  0  0  0
 36 39  1  0  0  0
 39 40  1  0  0  0
 40 41  1  0  0  0
 41 42  1  0  0  0
 42 43  1  0  0  0
 43 44  1  0  0  0
 44 45  1  0  0  0
 45 46  1  0  0  0
 46 47  1  0  0  0
 36 27  1  0  0  0
 47 43  1  0  0  0
 34 29  1  0  0  0
  6  1  1  0  0  0
 14 12  1  0  0  0
 25 19  1  0  0  0
  8 11  1  0  0  0
 17 18  1  0  0  0
M  END
> <minimizedAffinity>
-8.83590

> <CNNscore>
0.3172937930

> <CNNaffinity>
6.8534140587

> <CNN_VS>
2.1745457649

> <CNNaffinity_variance>
0.1572983265

$$$$
[H]C1=C([H])C([H])(F)C([H])([H])C([H])=C1N([H])C(=O)C1(C(=O)N([H])c2c([H])c([H])c(Oc3c([H])c([H])nc4c([H])c(OC([H])([H])C([H])([H])C([H])([H])N5C([H])([H])C([H])([H])C([H])([H])C5([H])[H])c(OC([H])([H])[H])c([H])c34)c(F)c2[H])C([H])([H])C1([H])[H]


 47 52  0  0  0  0  0  0  0  0999 V2000
   55.7853   -5.8859   -5.4226 C   0  0  0  0  0  0  0  0  0  0  0  0
   55.3542   -7.1985   -5.2878 C   0  0  0  0  0  0  0  0  0  0  0  0
   54.8966   -7.6678   -4.0839 C   0  0  0  0  0  0  0  0  0  0  0  0
   54.8329   -6.8724   -2.9282 C   0  0  0  0  0  0  0  0  0  0  0  0
   55.2584   -5.5801   -3.0626 C   0  0  0  0  0  0  0  0  0  0  0  0
   55.7272   -5.1012   -4.3007 C   0  0  0  0  0  0  0  0  0  0  0  0
   56.1143   -3.8010   -4.3466 F   0  0  0  0  0  0  0  0  0  0  0  0
   54.3653   -7.4545   -1.7112 N   0  0  0  0  0  0  0  0  0  0  0  0
   54.9572   -7.3842   -0.4563 C   0  0  0  0  0  0  0  0  0  0  0  0
   56.0608   -6.7341   -0.3751 O   0  0  0  0  0  0  0  0  0  0  0  0
   53.4798   -8.0480   -1.8633 H   0  0  0  0  0  0  0  0  0  0  0  0
   54.4581   -7.9842    0.7743 C   0  0  0  0  0  0  0  0  0  0  0  0
   55.3247   -7.7969    2.0166 C   0  0  0  0  0  0  0  0  0  0  0  0
   55.3870   -9.0905    1.3034 C   0  0  0  0  0  0  0  0  0  0  0  0
   53.0101   -8.1906    1.0336 C   0  0  0  0  0  0  0  0  0  0  0  0
   52.5310   -7.3268    1.8701 O   0  0  0  0  0  0  0  0  0  0  0  0
   52.2405   -9.1748    0.4560 N   0  0  0  0  0  0  0  0  0  0  0  0
   52.7139   -9.7660   -0.2947 H   0  0  0  0  0  0  0  0  0  0  0  0
   50.8498   -9.4915    0.6425 C   0  0  0  0  0  0  0  0  0  0  0  0
   49.9806   -9.5210   -0.3342 C   0  0  0  0  0  0  0  0  0  0  0  0
   48.5531   -9.8451   -0.1509 C   0  0  0  0  0  0  0  0  0  0  0  0
   48.1022  -10.1332    1.2208 C   0  0  0  0  0  0  0  0  0  0  0  0
   47.1045   -9.1970    1.5546 F   0  0  0  0  0  0  0  0  0  0  0  0
   49.1269  -10.0807    2.2490 C   0  0  0  0  0  0  0  0  0  0  0  0
   50.3675   -9.7932    2.0033 C   0  0  0  0  0  0  0  0  0  0  0  0
   56.2463   -5.3926   -6.6225 O   0  0  0  0  0  0  0  0  0  0  0  0
   58.0746   -5.1659  -10.2781 C   0  0  0  0  0  0  0  0  0  0  0  0
   57.4360   -5.2261   -9.0640 C   0  0  0  0  0  0  0  0  0  0  0  0
   56.1632   -4.7487   -8.8748 C   0  0  0  0  0  0  0  0  0  0  0  0
   55.5354   -4.8248   -7.6315 C   0  0  0  0  0  0  0  0  0  0  0  0
   54.2618   -4.3148   -7.5710 C   0  0  0  0  0  0  0  0  0  0  0  0
   53.6440   -3.7648   -8.6658 C   0  0  0  0  0  0  0  0  0  0  0  0
   54.2831   -3.7166   -9.8238 N   0  0  0  0  0  0  0  0  0  0  0  0
   55.5458   -4.1968   -9.9769 C   0  0  0  0  0  0  0  0  0  0  0  0
   56.1601   -4.1210  -11.2093 C   0  0  0  0  0  0  0  0  0  0  0  0
   57.4319   -4.6117  -11.3481 C   0  0  0  0  0  0  0  0  0  0  0  0
   60.1105   -6.2010   -9.3653 C   0  0  0  0  0  0  0  0  0  0  0  0
   59.3686   -5.6633  -10.4275 O   0  0  0  0  0  0  0  0  0  0  0  0
   58.0147   -4.5169  -12.6041 O   0  0  0  0  0  0  0  0  0  0  0  0
   57.5354   -3.7133  -13.6359 C   0  0  0  0  0  0  0  0  0  0  0  0
   56.8482   -4.5822  -14.6573 C   0  0  0  0  0  0  0  0  0  0  0  0
   55.9016   -3.7954  -15.5178 C   0  0  0  0  0  0  0  0  0  0  0  0
   56.5179   -3.4235  -16.7513 N   0  0  0  0  0  0  0  0  0  0  0  0
   57.2543   -4.4551  -17.4064 C   0  0  0  0  0  0  0  0  0  0  0  0
   57.0535   -4.2590  -18.9121 C   0  0  0  0  0  0  0  0  0  0  0  0
   56.5486   -2.8288  -18.9592 C   0  0  0  0  0  0  0  0  0  0  0  0
   55.6543   -2.8071  -17.7110 C   0  0  0  0  0  0  0  0  0  0  0  0
 37 38  1  0  0  0
 38 27  1  0  0  0
 27 28  2  0  0  0
 28 29  1  0  0  0
 29 30  2  0  0  0
 30 26  1  0  0  0
 26  1  1  0  0  0
  1  2  2  0  0  0
  2  3  1  0  0  0
  3  4  2  0  0  0
  4  8  1  0  0  0
  8  9  1  0  0  0
  9 10  2  0  0  0
  9 12  1  0  0  0
 12 13  1  0  0  0
 13 14  1  0  0  0
 12 15  1  0  0  0
 15 16  2  0  0  0
 15 17  1  0  0  0
 17 19  1  0  0  0
 19 20  2  0  0  0
 20 21  1  0  0  0
 21 22  1  0  0  0
 22 23  1  0  0  0
 22 24  1  0  0  0
 24 25  2  0  0  0
  4  5  1  0  0  0
  5  6  2  0  0  0
  6  7  1  0  0  0
 30 31  1  0  0  0
 31 32  2  0  0  0
 32 33  1  0  0  0
 33 34  2  0  0  0
 34 35  1  0  0  0
 35 36  2  0  0  0
 36 39  1  0  0  0
 39 40  1  0  0  0
 40 41  1  0  0  0
 41 42  1  0  0  0
 42 43  1  0  0  0
 43 44  1  0  0  0
 44 45  1  0  0  0
 45 46  1  0  0  0
 46 47  1  0  0  0
 36 27  1  0  0  0
 47 43  1  0  0  0
 34 29  1  0  0  0
  6  1  1  0  0  0
 14 12  1  0  0  0
 25 19  1  0  0  0
  8 11  1  0  0  0
 17 18  1  0  0  0
M  END
> <minimizedAffinity>
-8.89034

> <CNNscore>
0.2906291485

> <CNNaffinity>
6.8104772568

> <CNN_VS>
1.9793231487

> <CNNaffinity_variance>
0.1616455615

$$$$
[H]C1=C([H])C([H])(F)C([H])([H])C([H])=C1N([H])C(=O)C1(C(=O)N([H])c2c([H])c([H])c(Oc3c([H])c([H])nc4c([H])c(OC([H])([H])C([H])([H])C([H])([H])N5C([H])([H])C([H])([H])C([H])([H])C5([H])[H])c(OC([H])([H])[H])c([H])c34)c(F)c2[H])C([H])([H])C1([H])[H]


 47 52  0  0  0  0  0  0  0  0999 V2000
   52.9875   -5.7793   -5.2267 C   0  0  0  0  0  0  0  0  0  0  0  0
   54.3141   -5.7268   -4.8212 C   0  0  0  0  0  0  0  0  0  0  0  0
   54.6482   -5.8261   -3.4956 C   0  0  0  0  0  0  0  0  0  0  0  0
   53.6943   -5.9844   -2.4771 C   0  0  0  0  0  0  0  0  0  0  0  0
   52.3883   -6.0354   -2.8781 C   0  0  0  0  0  0  0  0  0  0  0  0
   52.0486   -5.9336   -4.2406 C   0  0  0  0  0  0  0  0  0  0  0  0
   50.7291   -6.0104   -4.5492 F   0  0  0  0  0  0  0  0  0  0  0  0
   54.1340   -6.0538   -1.1205 N   0  0  0  0  0  0  0  0  0  0  0  0
   54.1034   -7.1561   -0.2754 C   0  0  0  0  0  0  0  0  0  0  0  0
   53.6112   -8.2388   -0.7577 O   0  0  0  0  0  0  0  0  0  0  0  0
   54.4631   -5.0960   -0.7547 H   0  0  0  0  0  0  0  0  0  0  0  0
   54.5625   -7.2038    1.1068 C   0  0  0  0  0  0  0  0  0  0  0  0
   54.0193   -8.3473    1.9595 C   0  0  0  0  0  0  0  0  0  0  0  0
   53.4137   -7.0070    2.1110 C   0  0  0  0  0  0  0  0  0  0  0  0
   55.8791   -6.6629    1.5316 C   0  0  0  0  0  0  0  0  0  0  0  0
   55.7732   -5.8151    2.5040 O   0  0  0  0  0  0  0  0  0  0  0  0
   57.0891   -7.0138    0.9773 N   0  0  0  0  0  0  0  0  0  0  0  0
   57.0684   -7.7959    0.2528 H   0  0  0  0  0  0  0  0  0  0  0  0
   58.4158   -6.5471    1.2792 C   0  0  0  0  0  0  0  0  0  0  0  0
   59.1503   -7.0388    2.2429 C   0  0  0  0  0  0  0  0  0  0  0  0
   60.5117   -6.5658    2.5584 C   0  0  0  0  0  0  0  0  0  0  0  0
   61.0459   -5.4664    1.7374 C   0  0  0  0  0  0  0  0  0  0  0  0
   61.3411   -4.3891    2.5950 F   0  0  0  0  0  0  0  0  0  0  0  0
   60.1699   -4.9757    0.6878 C   0  0  0  0  0  0  0  0  0  0  0  0
   58.9837   -5.4525    0.4700 C   0  0  0  0  0  0  0  0  0  0  0  0
   52.6292   -5.6842   -6.5526 O   0  0  0  0  0  0  0  0  0  0  0  0
   55.8316   -4.7928   -8.9417 C   0  0  0  0  0  0  0  0  0  0  0  0
   54.7431   -5.0647   -8.1501 C   0  0  0  0  0  0  0  0  0  0  0  0
   53.6246   -4.2695   -8.1345 C   0  0  0  0  0  0  0  0  0  0  0  0
   52.5303   -4.5697   -7.3232 C   0  0  0  0  0  0  0  0  0  0  0  0
   51.4712   -3.6986   -7.3988 C   0  0  0  0  0  0  0  0  0  0  0  0
   51.4876   -2.6009   -8.2219 C   0  0  0  0  0  0  0  0  0  0  0  0
   52.5508   -2.3602   -8.9727 N   0  0  0  0  0  0  0  0  0  0  0  0
   53.6446   -3.1675   -8.9626 C   0  0  0  0  0  0  0  0  0  0  0  0
   54.7223   -2.8668   -9.7690 C   0  0  0  0  0  0  0  0  0  0  0  0
   55.8161   -3.6917   -9.7495 C   0  0  0  0  0  0  0  0  0  0  0  0
   58.1421   -5.2997   -8.2676 C   0  0  0  0  0  0  0  0  0  0  0  0
   56.9485   -5.6274   -8.9278 O   0  0  0  0  0  0  0  0  0  0  0  0
   56.8794   -3.3546  -10.5755 O   0  0  0  0  0  0  0  0  0  0  0  0
   57.2733   -4.0891  -11.6914 C   0  0  0  0  0  0  0  0  0  0  0  0
   56.6866   -3.4582  -12.9276 C   0  0  0  0  0  0  0  0  0  0  0  0
   56.3148   -4.4845  -13.9592 C   0  0  0  0  0  0  0  0  0  0  0  0
   56.9773   -4.2296  -15.1985 N   0  0  0  0  0  0  0  0  0  0  0  0
   56.1252   -3.9059  -16.2961 C   0  0  0  0  0  0  0  0  0  0  0  0
   56.8657   -2.8677  -17.1444 C   0  0  0  0  0  0  0  0  0  0  0  0
   58.2882   -3.0372  -16.6439 C   0  0  0  0  0  0  0  0  0  0  0  0
   58.0322   -3.2646  -15.1469 C   0  0  0  0  0  0  0  0  0  0  0  0
 37 38  1  0  0  0
 38 27  1  0  0  0
 27 28  2  0  0  0
 28 29  1  0  0  0
 29 30  2  0  0  0
 30 26  1  0  0  0
 26  1  1  0  0  0
  1  2  2  0  0  0
  2  3  1  0  0  0
  3  4  2  0  0  0
  4  8  1  0  0  0
  8  9  1  0  0  0
  9 10  2  0  0  0
  9 12  1  0  0  0
 12 13  1  0  0  0
 13 14  1  0  0  0
 12 15  1  0  0  0
 15 16  2  0  0  0
 15 17  1  0  0  0
 17 19  1  0  0  0
 19 20  2  0  0  0
 20 21  1  0  0  0
 21 22  1  0  0  0
 22 23  1  0  0  0
 22 24  1  0  0  0
 24 25  2  0  0  0
  4  5  1  0  0  0
  5  6  2  0  0  0
  6  7  1  0  0  0
 30 31  1  0  0  0
 31 32  2  0  0  0
 32 33  1  0  0  0
 33 34  2  0  0  0
 34 35  1  0  0  0
 35 36  2  0  0  0
 36 39  1  0  0  0
 39 40  1  0  0  0
 40 41  1  0  0  0
 41 42  1  0  0  0
 42 43  1  0  0  0
 43 44  1  0  0  0
 44 45  1  0  0  0
 45 46  1  0  0  0
 46 47  1  0  0  0
 36 27  1  0  0  0
 47 43  1  0  0  0
 34 29  1  0  0  0
  6  1  1  0  0  0
 14 12  1  0  0  0
 25 19  1  0  0  0
  8 11  1  0  0  0
 17 18  1  0  0  0
M  END
> <minimizedAffinity>
-8.39318

> <CNNscore>
0.2595856190

> <CNNaffinity>
7.1906499863

> <CNN_VS>
1.8665893078

> <CNNaffinity_variance>
0.1176588684

$$$$
[H]C1=C([H])C([H])(F)C([H])([H])C([H])=C1N([H])C(=O)C1(C(=O)N([H])c2c([H])c([H])c(Oc3c([H])c([H])nc4c([H])c(OC([H])([H])C([H])([H])C([H])([H])N5C([H])([H])C([H])([H])C([H])([H])C5([H])[H])c(OC([H])([H])[H])c([H])c34)c(F)c2[H])C([H])([H])C1([H])[H]


 47 52  0  0  0  0  0  0  0  0999 V2000
   55.9521   -4.5869   -9.5049 C   0  0  0  0  0  0  0  0  0  0  0  0
   55.4369   -3.8890  -10.5886 C   0  0  0  0  0  0  0  0  0  0  0  0
   56.2362   -3.5459  -11.6479 C   0  0  0  0  0  0  0  0  0  0  0  0
   57.6016   -3.8686  -11.7106 C   0  0  0  0  0  0  0  0  0  0  0  0
   58.1076   -4.5555  -10.6422 C   0  0  0  0  0  0  0  0  0  0  0  0
   57.2836   -4.9068   -9.5561 C   0  0  0  0  0  0  0  0  0  0  0  0
   57.8662   -5.6020   -8.5463 F   0  0  0  0  0  0  0  0  0  0  0  0
   58.3620   -3.4476  -12.8434 N   0  0  0  0  0  0  0  0  0  0  0  0
   59.6368   -3.8612  -13.2091 C   0  0  0  0  0  0  0  0  0  0  0  0
   60.2112   -4.7101  -12.4368 O   0  0  0  0  0  0  0  0  0  0  0  0
   57.8560   -2.6809  -13.4052 H   0  0  0  0  0  0  0  0  0  0  0  0
   60.3923   -3.4196  -14.3743 C   0  0  0  0  0  0  0  0  0  0  0  0
   61.8804   -3.7588  -14.3824 C   0  0  0  0  0  0  0  0  0  0  0  0
   61.4732   -2.3864  -14.0124 C   0  0  0  0  0  0  0  0  0  0  0  0
   59.7712   -3.2489  -15.7128 C   0  0  0  0  0  0  0  0  0  0  0  0
   60.1724   -4.1415  -16.5600 O   0  0  0  0  0  0  0  0  0  0  0  0
   58.8627   -2.2676  -16.0385 N   0  0  0  0  0  0  0  0  0  0  0  0
   58.5263   -1.6496  -15.2372 H   0  0  0  0  0  0  0  0  0  0  0  0
   58.2158   -1.9838  -17.2916 C   0  0  0  0  0  0  0  0  0  0  0  0
   58.7097   -1.1713  -18.1894 C   0  0  0  0  0  0  0  0  0  0  0  0
   58.0525   -0.8755  -19.4766 C   0  0  0  0  0  0  0  0  0  0  0  0
   56.7606   -1.5326  -19.7358 C   0  0  0  0  0  0  0  0  0  0  0  0
   55.7940   -0.5269  -19.9294 F   0  0  0  0  0  0  0  0  0  0  0  0
   56.2799   -2.4199  -18.6910 C   0  0  0  0  0  0  0  0  0  0  0  0
   56.9242   -2.6325  -17.5857 C   0  0  0  0  0  0  0  0  0  0  0  0
   55.1672   -4.9441   -8.4316 O   0  0  0  0  0  0  0  0  0  0  0  0
   53.4716   -6.4857   -5.0395 C   0  0  0  0  0  0  0  0  0  0  0  0
   54.0135   -5.9516   -6.1826 C   0  0  0  0  0  0  0  0  0  0  0  0
   53.3604   -5.0116   -6.9398 C   0  0  0  0  0  0  0  0  0  0  0  0
   53.9344   -4.4823   -8.0958 C   0  0  0  0  0  0  0  0  0  0  0  0
   53.1825   -3.5478   -8.7646 C   0  0  0  0  0  0  0  0  0  0  0  0
   51.9431   -3.1579   -8.3232 C   0  0  0  0  0  0  0  0  0  0  0  0
   51.4428   -3.6905   -7.2196 N   0  0  0  0  0  0  0  0  0  0  0  0
   52.1156   -4.6222   -6.4934 C   0  0  0  0  0  0  0  0  0  0  0  0
   51.5437   -5.1398   -5.3500 C   0  0  0  0  0  0  0  0  0  0  0  0
   52.2356   -6.0762   -4.6276 C   0  0  0  0  0  0  0  0  0  0  0  0
   55.5685   -7.5403   -4.3045 C   0  0  0  0  0  0  0  0  0  0  0  0
   54.1693   -7.4387   -4.2986 O   0  0  0  0  0  0  0  0  0  0  0  0
   51.6259   -6.5719   -3.4835 O   0  0  0  0  0  0  0  0  0  0  0  0
   51.4833   -5.8592   -2.2954 C   0  0  0  0  0  0  0  0  0  0  0  0
   52.1877   -6.6012   -1.1892 C   0  0  0  0  0  0  0  0  0  0  0  0
   52.2651   -8.0759   -1.4631 C   0  0  0  0  0  0  0  0  0  0  0  0
   51.5401   -8.8187   -0.4821 N   0  0  0  0  0  0  0  0  0  0  0  0
   51.4685   -8.2222    0.8120 C   0  0  0  0  0  0  0  0  0  0  0  0
   50.0854   -8.5540    1.3801 C   0  0  0  0  0  0  0  0  0  0  0  0
   49.6656   -9.7039    0.4834 C   0  0  0  0  0  0  0  0  0  0  0  0
   50.2227   -9.2243   -0.8649 C   0  0  0  0  0  0  0  0  0  0  0  0
 37 38  1  0  0  0
 38 27  1  0  0  0
 27 28  2  0  0  0
 28 29  1  0  0  0
 29 30  2  0  0  0
 30 26  1  0  0  0
 26  1  1  0  0  0
  1  2  2  0  0  0
  2  3  1  0  0  0
  3  4  2  0  0  0
  4  8  1  0  0  0
  8  9  1  0  0  0
  9 10  2  0  0  0
  9 12  1  0  0  0
 12 13  1  0  0  0
 13 14  1  0  0  0
 12 15  1  0  0  0
 15 16  2  0  0  0
 15 17  1  0  0  0
 17 19  1  0  0  0
 19 20  2  0  0  0
 20 21  1  0  0  0
 21 22  1  0  0  0
 22 23  1  0  0  0
 22 24  1  0  0  0
 24 25  2  0  0  0
  4  5  1  0  0  0
  5  6  2  0  0  0
  6  7  1  0  0  0
 30 31  1  0  0  0
 31 32  2  0  0  0
 32 33  1  0  0  0
 33 34  2  0  0  0
 34 35  1  0  0  0
 35 36  2  0  0  0
 36 39  1  0  0  0
 39 40  1  0  0  0
 40 41  1  0  0  0
 41 42  1  0  0  0
 42 43  1  0  0  0
 43 44  1  0  0  0
 44 45  1  0  0  0
 45 46  1  0  0  0
 46 47  1  0  0  0
 36 27  1  0  0  0
 47 43  1  0  0  0
 34 29  1  0  0  0
  6  1  1  0  0  0
 14 12  1  0  0  0
 25 19  1  0  0  0
  8 11  1  0  0  0
 17 18  1  0  0  0
M  END
> <minimizedAffinity>
-9.08728

> <CNNscore>
0.2553538084

> <CNNaffinity>
6.8648834229

> <CNN_VS>
1.7529741526

> <CNNaffinity_variance>
0.1959385425

$$$$
[H]C1=C([H])C([H])(F)C([H])([H])C([H])=C1N([H])C(=O)C1(C(=O)N([H])c2c([H])c([H])c(Oc3c([H])c([H])nc4c([H])c(OC([H])([H])C([H])([H])C([H])([H])N5C([H])([H])C([H])([H])C([H])([H])C5([H])[H])c(OC([H])([H])[H])c([H])c34)c(F)c2[H])C([H])([H])C1([H])[H]


 47 52  0  0  0  0  0  0  0  0999 V2000
   54.0395   -6.3988   -5.1141 C   0  0  0  0  0  0  0  0  0  0  0  0
   55.2597   -7.0369   -5.2897 C   0  0  0  0  0  0  0  0  0  0  0  0
   56.1380   -7.1733   -4.2462 C   0  0  0  0  0  0  0  0  0  0  0  0
   55.8720   -6.6884   -2.9553 C   0  0  0  0  0  0  0  0  0  0  0  0
   54.6700   -6.0598   -2.7842 C   0  0  0  0  0  0  0  0  0  0  0  0
   53.7700   -5.9219   -3.8580 C   0  0  0  0  0  0  0  0  0  0  0  0
   52.5936   -5.2985   -3.5937 F   0  0  0  0  0  0  0  0  0  0  0  0
   56.8577   -6.8542   -1.9359 N   0  0  0  0  0  0  0  0  0  0  0  0
   57.1917   -5.9596   -0.9268 C   0  0  0  0  0  0  0  0  0  0  0  0
   56.5545   -4.8457   -0.9098 O   0  0  0  0  0  0  0  0  0  0  0  0
   57.4067   -7.7732   -2.0527 H   0  0  0  0  0  0  0  0  0  0  0  0
   58.2005   -6.1532    0.1068 C   0  0  0  0  0  0  0  0  0  0  0  0
   58.4143   -4.9874    1.0683 C   0  0  0  0  0  0  0  0  0  0  0  0
   59.3788   -5.1745   -0.0365 C   0  0  0  0  0  0  0  0  0  0  0  0
   58.5479   -7.4936    0.6445 C   0  0  0  0  0  0  0  0  0  0  0  0
   58.0532   -7.6952    1.8235 O   0  0  0  0  0  0  0  0  0  0  0  0
   59.3006   -8.4358   -0.0189 N   0  0  0  0  0  0  0  0  0  0  0  0
   59.5705   -8.2035   -1.0240 H   0  0  0  0  0  0  0  0  0  0  0  0
   59.7233   -9.7455    0.3999 C   0  0  0  0  0  0  0  0  0  0  0  0
   59.0365  -10.8333    0.1650 C   0  0  0  0  0  0  0  0  0  0  0  0
   59.4634  -12.1797    0.5909 C   0  0  0  0  0  0  0  0  0  0  0  0
   60.7305  -12.2767    1.3346 C   0  0  0  0  0  0  0  0  0  0  0  0
   60.4521  -12.8448    2.5928 F   0  0  0  0  0  0  0  0  0  0  0  0
   61.4337  -11.0249    1.5547 C   0  0  0  0  0  0  0  0  0  0  0  0
   60.9923   -9.8782    1.1397 C   0  0  0  0  0  0  0  0  0  0  0  0
   53.1411   -6.2528   -6.1471 O   0  0  0  0  0  0  0  0  0  0  0  0
   55.9289   -4.8795   -8.8117 C   0  0  0  0  0  0  0  0  0  0  0  0
   54.9753   -5.3147   -7.9246 C   0  0  0  0  0  0  0  0  0  0  0  0
   53.7806   -4.6631   -7.7466 C   0  0  0  0  0  0  0  0  0  0  0  0
   52.8269   -5.1278   -6.8408 C   0  0  0  0  0  0  0  0  0  0  0  0
   51.6718   -4.3900   -6.7555 C   0  0  0  0  0  0  0  0  0  0  0  0
   51.4674   -3.2653   -7.5146 C   0  0  0  0  0  0  0  0  0  0  0  0
   52.4041   -2.8660   -8.3602 N   0  0  0  0  0  0  0  0  0  0  0  0
   53.5788   -3.5336   -8.5108 C   0  0  0  0  0  0  0  0  0  0  0  0
   54.5166   -3.0706   -9.4098 C   0  0  0  0  0  0  0  0  0  0  0  0
   55.6944   -3.7561   -9.5520 C   0  0  0  0  0  0  0  0  0  0  0  0
   58.3013   -5.2342   -8.2682 C   0  0  0  0  0  0  0  0  0  0  0  0
   57.1299   -5.5716   -8.9625 O   0  0  0  0  0  0  0  0  0  0  0  0
   56.6115   -3.2580  -10.4670 O   0  0  0  0  0  0  0  0  0  0  0  0
   56.3905   -3.1787  -11.8398 C   0  0  0  0  0  0  0  0  0  0  0  0
   57.0857   -4.3311  -12.5174 C   0  0  0  0  0  0  0  0  0  0  0  0
   58.0472   -3.8645  -13.5726 C   0  0  0  0  0  0  0  0  0  0  0  0
   57.3536   -3.4354  -14.7450 N   0  0  0  0  0  0  0  0  0  0  0  0
   58.1773   -3.1258  -15.8681 C   0  0  0  0  0  0  0  0  0  0  0  0
   57.4117   -3.5692  -17.1183 C   0  0  0  0  0  0  0  0  0  0  0  0
   56.0026   -3.7009  -16.5709 C   0  0  0  0  0  0  0  0  0  0  0  0
   56.2959   -4.2926  -15.1845 C   0  0  0  0  0  0  0  0  0  0  0  0
 37 38  1  0  0  0
 38 27  1  0  0  0
 27 28  2  0  0  0
 28 29  1  0  0  0
 29 30  2  0  0  0
 30 26  1  0  0  0
 26  1  1  0  0  0
  1  2  2  0  0  0
  2  3  1  0  0  0
  3  4  2  0  0  0
  4  8  1  0  0  0
  8  9  1  0  0  0
  9 10  2  0  0  0
  9 12  1  0  0  0
 12 13  1  0  0  0
 13 14  1  0  0  0
 12 15  1  0  0  0
 15 16  2  0  0  0
 15 17  1  0  0  0
 17 19  1  0  0  0
 19 20  2  0  0  0
 20 21  1  0  0  0
 21 22  1  0  0  0
 22 23  1  0  0  0
 22 24  1  0  0  0
 24 25  2  0  0  0
  4  5  1  0  0  0
  5  6  2  0  0  0
  6  7  1  0  0  0
 30 31  1  0  0  0
 31 32  2  0  0  0
 32 33  1  0  0  0
 33 34  2  0  0  0
 34 35  1  0  0  0
 35 36  2  0  0  0
 36 39  1  0  0  0
 39 40  1  0  0  0
 40 41  1  0  0  0
 41 42  1  0  0  0
 42 43  1  0  0  0
 43 44  1  0  0  0
 44 45  1  0  0  0
 45 46  1  0  0  0
 46 47  1  0  0  0
 36 27  1  0  0  0
 47 43  1  0  0  0
 34 29  1  0  0  0
  6  1  1  0  0  0
 14 12  1  0  0  0
 25 19  1  0  0  0
  8 11  1  0  0  0
 17 18  1  0  0  0
M  END
> <minimizedAffinity>
-7.49845

> <CNNscore>
0.2523463368

> <CNNaffinity>
7.0370383263

> <CNN_VS>
1.7757709026

> <CNNaffinity_variance>
0.2999103069

$$$$
[H]C1=C([H])C([H])(F)C([H])([H])C([H])=C1N([H])C(=O)C1(C(=O)N([H])c2c([H])c([H])c(Oc3c([H])c([H])nc4c([H])c(OC([H])([H])C([H])([H])C([H])([H])N5C([H])([H])C([H])([H])C([H])([H])C5([H])[H])c(OC([H])([H])[H])c([H])c34)c(F)c2[H])C([H])([H])C1([H])[H]


 47 52  0  0  0  0  0  0  0  0999 V2000
   55.4602   -6.0116   -4.7951 C   0  0  0  0  0  0  0  0  0  0  0  0
   55.4643   -5.1956   -3.6722 C   0  0  0  0  0  0  0  0  0  0  0  0
   55.1006   -5.6866   -2.4452 C   0  0  0  0  0  0  0  0  0  0  0  0
   54.7070   -7.0192   -2.2418 C   0  0  0  0  0  0  0  0  0  0  0  0
   54.7029   -7.8215   -3.3488 C   0  0  0  0  0  0  0  0  0  0  0  0
   55.0777   -7.3141   -4.6074 C   0  0  0  0  0  0  0  0  0  0  0  0
   55.0597   -8.1854   -5.6481 F   0  0  0  0  0  0  0  0  0  0  0  0
   54.3206   -7.4355   -0.9318 N   0  0  0  0  0  0  0  0  0  0  0  0
   53.0314   -7.6004   -0.4411 C   0  0  0  0  0  0  0  0  0  0  0  0
   52.0692   -7.3366   -1.2483 O   0  0  0  0  0  0  0  0  0  0  0  0
   55.1708   -7.5660   -0.2840 H   0  0  0  0  0  0  0  0  0  0  0  0
   52.6613   -8.0311    0.9009 C   0  0  0  0  0  0  0  0  0  0  0  0
   53.4036   -7.3609    2.0538 C   0  0  0  0  0  0  0  0  0  0  0  0
   53.8264   -8.7150    1.6370 C   0  0  0  0  0  0  0  0  0  0  0  0
   51.3086   -8.5489    1.2304 C   0  0  0  0  0  0  0  0  0  0  0  0
   50.7430   -7.8795    2.1830 O   0  0  0  0  0  0  0  0  0  0  0  0
   50.6993   -9.6117    0.6030 N   0  0  0  0  0  0  0  0  0  0  0  0
   51.2135  -10.0242   -0.2353 H   0  0  0  0  0  0  0  0  0  0  0  0
   49.4178  -10.2188    0.8448 C   0  0  0  0  0  0  0  0  0  0  0  0
   49.1044  -10.8180    1.9640 C   0  0  0  0  0  0  0  0  0  0  0  0
   47.7925  -11.4426    2.2195 C   0  0  0  0  0  0  0  0  0  0  0  0
   46.8017  -11.3887    1.1317 C   0  0  0  0  0  0  0  0  0  0  0  0
   46.4636  -12.7117    0.7875 F   0  0  0  0  0  0  0  0  0  0  0  0
   47.2254  -10.7060   -0.0784 C   0  0  0  0  0  0  0  0  0  0  0  0
   48.3999  -10.1748   -0.2216 C   0  0  0  0  0  0  0  0  0  0  0  0
   55.8241   -5.5405   -6.0365 O   0  0  0  0  0  0  0  0  0  0  0  0
   57.4792   -5.0302   -9.7457 C   0  0  0  0  0  0  0  0  0  0  0  0
   56.8973   -5.1866   -8.5118 C   0  0  0  0  0  0  0  0  0  0  0  0
   55.6077   -4.7973   -8.2491 C   0  0  0  0  0  0  0  0  0  0  0  0
   55.0388   -4.9702   -6.9872 C   0  0  0  0  0  0  0  0  0  0  0  0
   53.7409   -4.5424   -6.8512 C   0  0  0  0  0  0  0  0  0  0  0  0
   53.0459   -3.9801   -7.8921 C   0  0  0  0  0  0  0  0  0  0  0  0
   53.6313   -3.8384   -9.0707 N   0  0  0  0  0  0  0  0  0  0  0  0
   54.9125   -4.2328   -9.2971 C   0  0  0  0  0  0  0  0  0  0  0  0
   55.4685   -4.0615  -10.5476 C   0  0  0  0  0  0  0  0  0  0  0  0
   56.7600   -4.4665  -10.7606 C   0  0  0  0  0  0  0  0  0  0  0  0
   59.6940   -5.7275   -8.9348 C   0  0  0  0  0  0  0  0  0  0  0  0
   58.7928   -5.4400   -9.9707 O   0  0  0  0  0  0  0  0  0  0  0  0
   57.2823   -4.2771  -12.0325 O   0  0  0  0  0  0  0  0  0  0  0  0
   56.6636   -4.6951  -13.2082 C   0  0  0  0  0  0  0  0  0  0  0  0
   56.5286   -3.5175  -14.1386 C   0  0  0  0  0  0  0  0  0  0  0  0
   56.3443   -3.9479  -15.5656 C   0  0  0  0  0  0  0  0  0  0  0  0
   57.6039   -4.1192  -16.2166 N   0  0  0  0  0  0  0  0  0  0  0  0
   57.5396   -4.5107  -17.5870 C   0  0  0  0  0  0  0  0  0  0  0  0
   58.6976   -3.8115  -18.3053 C   0  0  0  0  0  0  0  0  0  0  0  0
   59.5781   -3.4183  -17.1336 C   0  0  0  0  0  0  0  0  0  0  0  0
   58.5108   -3.0184  -16.1043 C   0  0  0  0  0  0  0  0  0  0  0  0
 37 38  1  0  0  0
 38 27  1  0  0  0
 27 28  2  0  0  0
 28 29  1  0  0  0
 29 30  2  0  0  0
 30 26  1  0  0  0
 26  1  1  0  0  0
  1  2  2  0  0  0
  2  3  1  0  0  0
  3  4  2  0  0  0
  4  8  1  0  0  0
  8  9  1  0  0  0
  9 10  2  0  0  0
  9 12  1  0  0  0
 12 13  1  0  0  0
 13 14  1  0  0  0
 12 15  1  0  0  0
 15 16  2  0  0  0
 15 17  1  0  0  0
 17 19  1  0  0  0
 19 20  2  0  0  0
 20 21  1  0  0  0
 21 22  1  0  0  0
 22 23  1  0  0  0
 22 24  1  0  0  0
 24 25  2  0  0  0
  4  5  1  0  0  0
  5  6  2  0  0  0
  6  7  1  0  0  0
 30 31  1  0  0  0
 31 32  2  0  0  0
 32 33  1  0  0  0
 33 34  2  0  0  0
 34 35  1  0  0  0
 35 36  2  0  0  0
 36 39  1  0  0  0
 39 40  1  0  0  0
 40 41  1  0  0  0
 41 42  1  0  0  0
 42 43  1  0  0  0
 43 44  1  0  0  0
 44 45  1  0  0  0
 45 46  1  0  0  0
 46 47  1  0  0  0
 36 27  1  0  0  0
 47 43  1  0  0  0
 34 29  1  0  0  0
  6  1  1  0  0  0
 14 12  1  0  0  0
 25 19  1  0  0  0
  8 11  1  0  0  0
 17 18  1  0  0  0
M  END
> <minimizedAffinity>
-9.57076

> <CNNscore>
0.2427390814

> <CNNaffinity>
6.8261351585

> <CNN_VS>
1.6569697857

> <CNNaffinity_variance>
0.0871138722

$$$$
[H]O[C@@]([H])(C([H])([H])N([H])C(=O)c1c(C([H])([H])[H])c(/C([H])=C2\C(=O)N([H])c3c([H])c([H])c(F)c([H])c32)n([H])c1C([H])([H])[H])C([H])([H])N1C([H])([H])C([H])([H])C([H])([H])C1([H])[H]


 35 38  0  0  0  0  0  0  0  0999 V2000
   56.5819   -3.9532  -12.0998 C   0  0  0  0  0  0  0  0  0  0  0  0
   56.2241   -4.3416  -10.6989 C   0  0  0  0  0  0  0  0  0  0  0  0
   54.9754   -4.1948  -10.1616 N   0  0  0  0  0  0  0  0  0  0  0  0
   54.9302   -4.6263   -8.8977 C   0  0  0  0  0  0  0  0  0  0  0  0
   56.2151   -5.0644   -8.6355 C   0  0  0  0  0  0  0  0  0  0  0  0
   56.6302   -5.6394   -7.3264 C   0  0  0  0  0  0  0  0  0  0  0  0
   57.0355   -4.8939   -9.7481 C   0  0  0  0  0  0  0  0  0  0  0  0
   54.1783   -3.8086  -10.7018 H   0  0  0  0  0  0  0  0  0  0  0  0
   53.8444   -4.6557   -7.9263 C   0  0  0  0  0  0  0  0  0  0  0  0
   52.8255   -3.8199   -7.8911 C   0  0  0  0  0  0  0  0  0  0  0  0
   52.5748   -2.7162   -8.7815 C   0  0  0  0  0  0  0  0  0  0  0  0
   53.2891   -2.3259   -9.7354 O   0  0  0  0  0  0  0  0  0  0  0  0
   51.3254   -2.1335   -8.3569 N   0  0  0  0  0  0  0  0  0  0  0  0
   50.8324   -2.8574   -7.2447 C   0  0  0  0  0  0  0  0  0  0  0  0
   49.6749   -2.7022   -6.4706 C   0  0  0  0  0  0  0  0  0  0  0  0
   49.3760   -3.5305   -5.4110 C   0  0  0  0  0  0  0  0  0  0  0  0
   50.2619   -4.5498   -5.1124 C   0  0  0  0  0  0  0  0  0  0  0  0
   49.9673   -5.3663   -4.0678 F   0  0  0  0  0  0  0  0  0  0  0  0
   51.4053   -4.7068   -5.8741 C   0  0  0  0  0  0  0  0  0  0  0  0
   51.6945   -3.8748   -6.9287 C   0  0  0  0  0  0  0  0  0  0  0  0
   50.8932   -1.3165   -8.8191 H   0  0  0  0  0  0  0  0  0  0  0  0
   58.4390   -5.2529   -9.7657 C   0  0  0  0  0  0  0  0  0  0  0  0
   59.1032   -4.9997  -10.8456 O   0  0  0  0  0  0  0  0  0  0  0  0
   59.1751   -5.8469   -8.7485 N   0  0  0  0  0  0  0  0  0  0  0  0
   58.6378   -6.0846   -7.8564 H   0  0  0  0  0  0  0  0  0  0  0  0
   60.5527   -6.2082   -8.6983 C   0  0  0  0  0  0  0  0  0  0  0  0
   61.0190   -7.3663   -9.4919 C   0  0  0  0  0  0  0  0  0  0  0  0
   60.0704   -8.2667   -9.9027 O   0  0  0  0  0  0  0  0  0  0  0  0
   59.7465   -8.7626   -9.0853 H   0  0  0  0  0  0  0  0  0  0  0  0
   62.0681   -8.1338   -8.6741 C   0  0  0  0  0  0  0  0  0  0  0  0
   61.5951   -8.6319   -7.4528 N   0  0  0  0  0  0  0  0  0  0  0  0
   62.0717   -8.0846   -6.2394 C   0  0  0  0  0  0  0  0  0  0  0  0
   62.0438   -9.1873   -5.1944 C   0  0  0  0  0  0  0  0  0  0  0  0
   61.2520  -10.3000   -5.8397 C   0  0  0  0  0  0  0  0  0  0  0  0
   61.5114  -10.0481   -7.3199 C   0  0  0  0  0  0  0  0  0  0  0  0
  1  2  1  0  0  0
  2  3  1  0  0  0
  3  4  1  0  0  0
  4  9  1  0  0  0
  9 10  2  0  0  0
 10 11  1  0  0  0
 11 12  2  0  0  0
 11 13  1  0  0  0
 13 14  1  0  0  0
 14 15  2  0  0  0
 15 16  1  0  0  0
 16 17  2  0  0  0
 17 18  1  0  0  0
 17 19  1  0  0  0
 19 20  2  0  0  0
  4  5  2  0  0  0
  5  6  1  0  0  0
  5  7  1  0  0  0
  7 22  1  0  0  0
 22 23  2  0  0  0
 22 24  1  0  0  0
 24 26  1  0  0  0
 26 27  1  0  0  0
 27 28  1  0  0  0
 27 30  1  0  0  0
 30 31  1  0  0  0
 31 32  1  0  0  0
 32 33  1  0  0  0
 33 34  1  0  0  0
 34 35  1  0  0  0
  7  2  2  0  0  0
 35 31  1  0  0  0
 20 10  1  0  0  0
 20 14  1  0  0  0
  3  8  1  0  0  0
 13 21  1  0  0  0
 24 25  1  0  0  0
 28 29  1  0  0  0
M  END
> <minimizedAffinity>
-10.86235

> <CNNscore>
0.9340463877

> <CNNaffinity>
7.1746811867

> <CNN_VS>
6.7014851570

> <CNNaffinity_variance>
0.0820921883

$$$$
[H]O[C@@]([H])(C([H])([H])N([H])C(=O)c1c(C([H])([H])[H])c(/C([H])=C2\C(=O)N([H])c3c([H])c([H])c(F)c([H])c32)n([H])c1C([H])([H])[H])C([H])([H])N1C([H])([H])C([H])([H])C([H])([H])C1([H])[H]


 35 38  0  0  0  0  0  0  0  0999 V2000
   56.3583   -3.9101  -12.0279 C   0  0  0  0  0  0  0  0  0  0  0  0
   56.0131   -4.2983  -10.6237 C   0  0  0  0  0  0  0  0  0  0  0  0
   54.7687   -4.1531  -10.0759 N   0  0  0  0  0  0  0  0  0  0  0  0
   54.7350   -4.5840   -8.8113 C   0  0  0  0  0  0  0  0  0  0  0  0
   56.0228   -5.0199   -8.5599 C   0  0  0  0  0  0  0  0  0  0  0  0
   56.4499   -5.5935   -7.2541 C   0  0  0  0  0  0  0  0  0  0  0  0
   56.8333   -4.8487   -9.6796 C   0  0  0  0  0  0  0  0  0  0  0  0
   53.9664   -3.7685  -10.6094 H   0  0  0  0  0  0  0  0  0  0  0  0
   53.6576   -4.6144   -7.8307 C   0  0  0  0  0  0  0  0  0  0  0  0
   52.6438   -3.7732   -7.7803 C   0  0  0  0  0  0  0  0  0  0  0  0
   52.3917   -2.6614   -8.6602 C   0  0  0  0  0  0  0  0  0  0  0  0
   53.0998   -2.2679   -9.6173 O   0  0  0  0  0  0  0  0  0  0  0  0
   51.1494   -2.0748   -8.2203 N   0  0  0  0  0  0  0  0  0  0  0  0
   50.6620   -2.8042   -7.1092 C   0  0  0  0  0  0  0  0  0  0  0  0
   49.5123   -2.6482   -6.3239 C   0  0  0  0  0  0  0  0  0  0  0  0
   49.2179   -3.4828   -5.2679 C   0  0  0  0  0  0  0  0  0  0  0  0
   50.1004   -4.5093   -4.9847 C   0  0  0  0  0  0  0  0  0  0  0  0
   49.8104   -5.3320   -3.9437 F   0  0  0  0  0  0  0  0  0  0  0  0
   51.2363   -4.6671   -5.7576 C   0  0  0  0  0  0  0  0  0  0  0  0
   51.5210   -3.8289   -6.8085 C   0  0  0  0  0  0  0  0  0  0  0  0
   50.7180   -1.2518   -8.6725 H   0  0  0  0  0  0  0  0  0  0  0  0
   58.2372   -5.2056   -9.7090 C   0  0  0  0  0  0  0  0  0  0  0  0
   58.8769   -5.0085  -10.8150 O   0  0  0  0  0  0  0  0  0  0  0  0
   58.9971   -5.7437   -8.6782 N   0  0  0  0  0  0  0  0  0  0  0  0
   58.4800   -5.9350   -7.7633 H   0  0  0  0  0  0  0  0  0  0  0  0
   60.3765   -6.0993   -8.6393 C   0  0  0  0  0  0  0  0  0  0  0  0
   60.8504   -7.2239   -9.4754 C   0  0  0  0  0  0  0  0  0  0  0  0
   60.9523   -8.4517   -8.8743 O   0  0  0  0  0  0  0  0  0  0  0  0
   61.7235   -8.4098   -8.2241 H   0  0  0  0  0  0  0  0  0  0  0  0
   62.2312   -6.8669  -10.0450 C   0  0  0  0  0  0  0  0  0  0  0  0
   62.4218   -7.2529  -11.3785 N   0  0  0  0  0  0  0  0  0  0  0  0
   63.1495   -8.4290  -11.6718 C   0  0  0  0  0  0  0  0  0  0  0  0
   63.8354   -8.2240  -13.0120 C   0  0  0  0  0  0  0  0  0  0  0  0
   63.2069   -6.9691  -13.5705 C   0  0  0  0  0  0  0  0  0  0  0  0
   62.7992   -6.2337  -12.2999 C   0  0  0  0  0  0  0  0  0  0  0  0
  1  2  1  0  0  0
  2  3  1  0  0  0
  3  4  1  0  0  0
  4  9  1  0  0  0
  9 10  2  0  0  0
 10 11  1  0  0  0
 11 12  2  0  0  0
 11 13  1  0  0  0
 13 14  1  0  0  0
 14 15  2  0  0  0
 15 16  1  0  0  0
 16 17  2  0  0  0
 17 18  1  0  0  0
 17 19  1  0  0  0
 19 20  2  0  0  0
  4  5  2  0  0  0
  5  6  1  0  0  0
  5  7  1  0  0  0
  7 22  1  0  0  0
 22 23  2  0  0  0
 22 24  1  0  0  0
 24 26  1  0  0  0
 26 27  1  0  0  0
 27 28  1  0  0  0
 27 30  1  0  0  0
 30 31  1  0  0  0
 31 32  1  0  0  0
 32 33  1  0  0  0
 33 34  1  0  0  0
 34 35  1  0  0  0
  7  2  2  0  0  0
 35 31  1  0  0  0
 20 10  1  0  0  0
 20 14  1  0  0  0
  3  8  1  0  0  0
 13 21  1  0  0  0
 24 25  1  0  0  0
 28 29  1  0  0  0
M  END
> <minimizedAffinity>
-10.92935

> <CNNscore>
0.8994530439

> <CNNaffinity>
6.9288315773

> <CNN_VS>
6.2321586609

> <CNNaffinity_variance>
0.1034099013

$$$$
[H]O[C@@]([H])(C([H])([H])N([H])C(=O)c1c(C([H])([H])[H])c(/C([H])=C2\C(=O)N([H])c3c([H])c([H])c(F)c([H])c32)n([H])c1C([H])([H])[H])C([H])([H])N1C([H])([H])C([H])([H])C([H])([H])C1([H])[H]


 35 38  0  0  0  0  0  0  0  0999 V2000
   56.3696   -4.1030  -11.5358 C   0  0  0  0  0  0  0  0  0  0  0  0
   55.9333   -4.3948  -10.1337 C   0  0  0  0  0  0  0  0  0  0  0  0
   54.6513   -4.2373   -9.6851 N   0  0  0  0  0  0  0  0  0  0  0  0
   54.5361   -4.5751   -8.3972 C   0  0  0  0  0  0  0  0  0  0  0  0
   55.8103   -4.9631   -8.0260 C   0  0  0  0  0  0  0  0  0  0  0  0
   56.1543   -5.4300   -6.6548 C   0  0  0  0  0  0  0  0  0  0  0  0
   56.6944   -4.8565   -9.0970 C   0  0  0  0  0  0  0  0  0  0  0  0
   53.8821   -3.9105  -10.2997 H   0  0  0  0  0  0  0  0  0  0  0  0
   53.3932   -4.5574   -7.4934 C   0  0  0  0  0  0  0  0  0  0  0  0
   52.3950   -3.6975   -7.5379 C   0  0  0  0  0  0  0  0  0  0  0  0
   52.2260   -2.6082   -8.4646 C   0  0  0  0  0  0  0  0  0  0  0  0
   53.0060   -2.2560   -9.3811 O   0  0  0  0  0  0  0  0  0  0  0  0
   50.9679   -1.9872   -8.1292 N   0  0  0  0  0  0  0  0  0  0  0  0
   50.3909   -2.6743   -7.0343 C   0  0  0  0  0  0  0  0  0  0  0  0
   49.1929   -2.4749   -6.3357 C   0  0  0  0  0  0  0  0  0  0  0  0
   48.8101   -3.2723   -5.2793 C   0  0  0  0  0  0  0  0  0  0  0  0
   49.6508   -4.3051   -4.9061 C   0  0  0  0  0  0  0  0  0  0  0  0
   49.2736   -5.0910   -3.8646 F   0  0  0  0  0  0  0  0  0  0  0  0
   50.8340   -4.5057   -5.5932 C   0  0  0  0  0  0  0  0  0  0  0  0
   51.2069   -3.7044   -6.6453 C   0  0  0  0  0  0  0  0  0  0  0  0
   50.5849   -1.1707   -8.6337 H   0  0  0  0  0  0  0  0  0  0  0  0
   58.1027   -5.1837   -9.0031 C   0  0  0  0  0  0  0  0  0  0  0  0
   58.7308   -4.8040   -7.9387 O   0  0  0  0  0  0  0  0  0  0  0  0
   58.8782   -5.8671   -9.9310 N   0  0  0  0  0  0  0  0  0  0  0  0
   58.3818   -6.1688  -10.8274 H   0  0  0  0  0  0  0  0  0  0  0  0
   60.2551   -6.2319   -9.8906 C   0  0  0  0  0  0  0  0  0  0  0  0
   60.6858   -7.3030   -8.9657 C   0  0  0  0  0  0  0  0  0  0  0  0
   60.9278   -6.9467   -7.6642 O   0  0  0  0  0  0  0  0  0  0  0  0
   61.7685   -6.3880   -7.6523 H   0  0  0  0  0  0  0  0  0  0  0  0
   61.9653   -7.9472   -9.5190 C   0  0  0  0  0  0  0  0  0  0  0  0
   61.8504   -9.3173   -9.7889 N   0  0  0  0  0  0  0  0  0  0  0  0
   61.8420  -10.2448   -8.7219 C   0  0  0  0  0  0  0  0  0  0  0  0
   62.4562  -11.5380   -9.2309 C   0  0  0  0  0  0  0  0  0  0  0  0
   62.5412  -11.3530  -10.7276 C   0  0  0  0  0  0  0  0  0  0  0  0
   62.6492   -9.8379  -10.8478 C   0  0  0  0  0  0  0  0  0  0  0  0
  1  2  1  0  0  0
  2  3  1  0  0  0
  3  4  1  0  0  0
  4  9  1  0  0  0
  9 10  2  0  0  0
 10 11  1  0  0  0
 11 12  2  0  0  0
 11 13  1  0  0  0
 13 14  1  0  0  0
 14 15  2  0  0  0
 15 16  1  0  0  0
 16 17  2  0  0  0
 17 18  1  0  0  0
 17 19  1  0  0  0
 19 20  2  0  0  0
  4  5  2  0  0  0
  5  6  1  0  0  0
  5  7  1  0  0  0
  7 22  1  0  0  0
 22 23  2  0  0  0
 22 24  1  0  0  0
 24 26  1  0  0  0
 26 27  1  0  0  0
 27 28  1  0  0  0
 27 30  1  0  0  0
 30 31  1  0  0  0
 31 32  1  0  0  0
 32 33  1  0  0  0
 33 34  1  0  0  0
 34 35  1  0  0  0
  7  2  2  0  0  0
 35 31  1  0  0  0
 20 10  1  0  0  0
 20 14  1  0  0  0
  3  8  1  0  0  0
 13 21  1  0  0  0
 24 25  1  0  0  0
 28 29  1  0  0  0
M  END
> <minimizedAffinity>
-10.34197

> <CNNscore>
0.8716410398

> <CNNaffinity>
6.9389181137

> <CNN_VS>
6.0482459068

> <CNNaffinity_variance>
0.1478457749

$$$$
[H]O[C@@]([H])(C([H])([H])N([H])C(=O)c1c(C([H])([H])[H])c(/C([H])=C2\C(=O)N([H])c3c([H])c([H])c(F)c([H])c32)n([H])c1C([H])([H])[H])C([H])([H])N1C([H])([H])C([H])([H])C([H])([H])C1([H])[H]


 35 38  0  0  0  0  0  0  0  0999 V2000
   50.3644   -2.8352   -7.1444 C   0  0  0  0  0  0  0  0  0  0  0  0
   51.5670   -3.7150   -6.9987 C   0  0  0  0  0  0  0  0  0  0  0  0
   52.6817   -3.6200   -7.7848 N   0  0  0  0  0  0  0  0  0  0  0  0
   53.6067   -4.5196   -7.4368 C   0  0  0  0  0  0  0  0  0  0  0  0
   53.0394   -5.2084   -6.3807 C   0  0  0  0  0  0  0  0  0  0  0  0
   53.7281   -6.3182   -5.6663 C   0  0  0  0  0  0  0  0  0  0  0  0
   51.7670   -4.7197   -6.0944 C   0  0  0  0  0  0  0  0  0  0  0  0
   52.7733   -2.9133   -8.5387 H   0  0  0  0  0  0  0  0  0  0  0  0
   54.9256   -4.8088   -7.9848 C   0  0  0  0  0  0  0  0  0  0  0  0
   55.3451   -4.4735   -9.1887 C   0  0  0  0  0  0  0  0  0  0  0  0
   54.6036   -3.7707  -10.2037 C   0  0  0  0  0  0  0  0  0  0  0  0
   53.4160   -3.3724  -10.1452 O   0  0  0  0  0  0  0  0  0  0  0  0
   55.5025   -3.6127  -11.3208 N   0  0  0  0  0  0  0  0  0  0  0  0
   56.7491   -4.2006  -10.9974 C   0  0  0  0  0  0  0  0  0  0  0  0
   57.9413   -4.3162  -11.7241 C   0  0  0  0  0  0  0  0  0  0  0  0
   59.0610   -4.9377  -11.2159 C   0  0  0  0  0  0  0  0  0  0  0  0
   58.9902   -5.4623   -9.9382 C   0  0  0  0  0  0  0  0  0  0  0  0
   60.0939   -6.0751   -9.4373 F   0  0  0  0  0  0  0  0  0  0  0  0
   57.8154   -5.3500   -9.2173 C   0  0  0  0  0  0  0  0  0  0  0  0
   56.7039   -4.7286   -9.7335 C   0  0  0  0  0  0  0  0  0  0  0  0
   55.2382   -3.1390  -12.2003 H   0  0  0  0  0  0  0  0  0  0  0  0
   50.9256   -5.2554   -5.0435 C   0  0  0  0  0  0  0  0  0  0  0  0
   49.8473   -5.8716   -5.4024 O   0  0  0  0  0  0  0  0  0  0  0  0
   51.1359   -5.1887   -3.6721 N   0  0  0  0  0  0  0  0  0  0  0  0
   52.0103   -4.6632   -3.3555 H   0  0  0  0  0  0  0  0  0  0  0  0
   50.3596   -5.7060   -2.5948 C   0  0  0  0  0  0  0  0  0  0  0  0
   50.9197   -6.7964   -1.7669 C   0  0  0  0  0  0  0  0  0  0  0  0
   50.1270   -7.2918   -0.7642 O   0  0  0  0  0  0  0  0  0  0  0  0
   50.0566   -6.5803   -0.0515 H   0  0  0  0  0  0  0  0  0  0  0  0
   52.2289   -6.3085   -1.1293 C   0  0  0  0  0  0  0  0  0  0  0  0
   53.3515   -6.4216   -1.9601 N   0  0  0  0  0  0  0  0  0  0  0  0
   53.9278   -7.6915   -2.1928 C   0  0  0  0  0  0  0  0  0  0  0  0
   55.4157   -7.4868   -2.4232 C   0  0  0  0  0  0  0  0  0  0  0  0
   55.5714   -5.9932   -2.5851 C   0  0  0  0  0  0  0  0  0  0  0  0
   54.3937   -5.4681   -1.7734 C   0  0  0  0  0  0  0  0  0  0  0  0
  1  2  1  0  0  0
  2  3  1  0  0  0
  3  4  1  0  0  0
  4  9  1  0  0  0
  9 10  2  0  0  0
 10 11  1  0  0  0
 11 12  2  0  0  0
 11 13  1  0  0  0
 13 14  1  0  0  0
 14 15  2  0  0  0
 15 16  1  0  0  0
 16 17  2  0  0  0
 17 18  1  0  0  0
 17 19  1  0  0  0
 19 20  2  0  0  0
  4  5  2  0  0  0
  5  6  1  0  0  0
  5  7  1  0  0  0
  7 22  1  0  0  0
 22 23  2  0  0  0
 22 24  1  0  0  0
 24 26  1  0  0  0
 26 27  1  0  0  0
 27 28  1  0  0  0
 27 30  1  0  0  0
 30 31  1  0  0  0
 31 32  1  0  0  0
 32 33  1  0  0  0
 33 34  1  0  0  0
 34 35  1  0  0  0
  7  2  2  0  0  0
 35 31  1  0  0  0
 20 10  1  0  0  0
 20 14  1  0  0  0
  3  8  1  0  0  0
 13 21  1  0  0  0
 24 25  1  0  0  0
 28 29  1  0  0  0
M  END
> <minimizedAffinity>
-9.76991

> <CNNscore>
0.8020474315

> <CNNaffinity>
7.4191031456

> <CNN_VS>
5.9504728317

> <CNNaffinity_variance>
0.0776752383

$$$$
[H]O[C@@]([H])(C([H])([H])N([H])C(=O)c1c(C([H])([H])[H])c(/C([H])=C2\C(=O)N([H])c3c([H])c([H])c(F)c([H])c32)n([H])c1C([H])([H])[H])C([H])([H])N1C([H])([H])C([H])([H])C([H])([H])C1([H])[H]


 35 38  0  0  0  0  0  0  0  0999 V2000
   50.3973   -3.2612   -6.9127 C   0  0  0  0  0  0  0  0  0  0  0  0
   51.6754   -4.0339   -6.8085 C   0  0  0  0  0  0  0  0  0  0  0  0
   52.7193   -3.9035   -7.6820 N   0  0  0  0  0  0  0  0  0  0  0  0
   53.7375   -4.7045   -7.3543 C   0  0  0  0  0  0  0  0  0  0  0  0
   53.3060   -5.3660   -6.2194 C   0  0  0  0  0  0  0  0  0  0  0  0
   54.1330   -6.3709   -5.4964 C   0  0  0  0  0  0  0  0  0  0  0  0
   52.0216   -4.9600   -5.8652 C   0  0  0  0  0  0  0  0  0  0  0  0
   52.6981   -3.2418   -8.4807 H   0  0  0  0  0  0  0  0  0  0  0  0
   55.0330   -4.9253   -7.9840 C   0  0  0  0  0  0  0  0  0  0  0  0
   55.3738   -4.5285   -9.1941 C   0  0  0  0  0  0  0  0  0  0  0  0
   54.5544   -3.8132  -10.1379 C   0  0  0  0  0  0  0  0  0  0  0  0
   53.3593   -3.4598   -9.9991 O   0  0  0  0  0  0  0  0  0  0  0  0
   55.3843   -3.5800  -11.2944 N   0  0  0  0  0  0  0  0  0  0  0  0
   56.6657   -4.1356  -11.0632 C   0  0  0  0  0  0  0  0  0  0  0  0
   57.8191   -4.1805  -11.8573 C   0  0  0  0  0  0  0  0  0  0  0  0
   58.9852   -4.7814  -11.4362 C   0  0  0  0  0  0  0  0  0  0  0  0
   59.0027   -5.3577  -10.1791 C   0  0  0  0  0  0  0  0  0  0  0  0
   60.1521   -5.9502   -9.7640 F   0  0  0  0  0  0  0  0  0  0  0  0
   57.8665   -5.3153   -9.3918 C   0  0  0  0  0  0  0  0  0  0  0  0
   56.7081   -4.7139   -9.8214 C   0  0  0  0  0  0  0  0  0  0  0  0
   55.0561   -3.0819  -12.1383 H   0  0  0  0  0  0  0  0  0  0  0  0
   51.3047   -5.4906   -4.7235 C   0  0  0  0  0  0  0  0  0  0  0  0
   50.0132   -5.4907   -4.7810 O   0  0  0  0  0  0  0  0  0  0  0  0
   51.8410   -6.0093   -3.5518 N   0  0  0  0  0  0  0  0  0  0  0  0
   52.9065   -5.9965   -3.4764 H   0  0  0  0  0  0  0  0  0  0  0  0
   51.1944   -6.5577   -2.4064 C   0  0  0  0  0  0  0  0  0  0  0  0
   51.6895   -6.1933   -1.0609 C   0  0  0  0  0  0  0  0  0  0  0  0
   52.5812   -5.1550   -0.9818 O   0  0  0  0  0  0  0  0  0  0  0  0
   53.4518   -5.4695   -1.3843 H   0  0  0  0  0  0  0  0  0  0  0  0
   52.3512   -7.4263   -0.4285 C   0  0  0  0  0  0  0  0  0  0  0  0
   51.4611   -8.4637   -0.1205 N   0  0  0  0  0  0  0  0  0  0  0  0
   51.4765   -9.6525   -0.8857 C   0  0  0  0  0  0  0  0  0  0  0  0
   50.0652  -10.2153   -0.8906 C   0  0  0  0  0  0  0  0  0  0  0  0
   49.3338   -9.4118    0.1587 C   0  0  0  0  0  0  0  0  0  0  0  0
   50.1086   -8.0999    0.1415 C   0  0  0  0  0  0  0  0  0  0  0  0
  1  2  1  0  0  0
  2  3  1  0  0  0
  3  4  1  0  0  0
  4  9  1  0  0  0
  9 10  2  0  0  0
 10 11  1  0  0  0
 11 12  2  0  0  0
 11 13  1  0  0  0
 13 14  1  0  0  0
 14 15  2  0  0  0
 15 16  1  0  0  0
 16 17  2  0  0  0
 17 18  1  0  0  0
 17 19  1  0  0  0
 19 20  2  0  0  0
  4  5  2  0  0  0
  5  6  1  0  0  0
  5  7  1  0  0  0
  7 22  1  0  0  0
 22 23  2  0  0  0
 22 24  1  0  0  0
 24 26  1  0  0  0
 26 27  1  0  0  0
 27 28  1  0  0  0
 27 30  1  0  0  0
 30 31  1  0  0  0
 31 32  1  0  0  0
 32 33  1  0  0  0
 33 34  1  0  0  0
 34 35  1  0  0  0
  7  2  2  0  0  0
 35 31  1  0  0  0
 20 10  1  0  0  0
 20 14  1  0  0  0
  3  8  1  0  0  0
 13 21  1  0  0  0
 24 25  1  0  0  0
 28 29  1  0  0  0
M  END
> <minimizedAffinity>
-9.06540

> <CNNscore>
0.7366429567

> <CNNaffinity>
7.0188002586

> <CNN_VS>
5.1703495979

> <CNNaffinity_variance>
0.1661915481

$$$$
[H]O[C@@]([H])(C([H])([H])N([H])C(=O)c1c(C([H])([H])[H])c(/C([H])=C2\C(=O)N([H])c3c([H])c([H])c(F)c([H])c32)n([H])c1C([H])([H])[H])C([H])([H])N1C([H])([H])C([H])([H])C([H])([H])C1([H])[H]


 35 38  0  0  0  0  0  0  0  0999 V2000
   49.9265   -2.2736   -6.4731 C   0  0  0  0  0  0  0  0  0  0  0  0
   50.9711   -3.1747   -7.0548 C   0  0  0  0  0  0  0  0  0  0  0  0
   51.7420   -2.8506   -8.1365 N   0  0  0  0  0  0  0  0  0  0  0  0
   52.5973   -3.8309   -8.4420 C   0  0  0  0  0  0  0  0  0  0  0  0
   52.3466   -4.8141   -7.5027 C   0  0  0  0  0  0  0  0  0  0  0  0
   53.0824   -6.1076   -7.4589 C   0  0  0  0  0  0  0  0  0  0  0  0
   51.3349   -4.4214   -6.6297 C   0  0  0  0  0  0  0  0  0  0  0  0
   51.6600   -1.9398   -8.6263 H   0  0  0  0  0  0  0  0  0  0  0  0
   53.5880   -3.9511   -9.5039 C   0  0  0  0  0  0  0  0  0  0  0  0
   54.8896   -4.0637   -9.3277 C   0  0  0  0  0  0  0  0  0  0  0  0
   55.5992   -4.0842   -8.0747 C   0  0  0  0  0  0  0  0  0  0  0  0
   55.1188   -3.9704   -6.9221 O   0  0  0  0  0  0  0  0  0  0  0  0
   56.9923   -4.2603   -8.4050 N   0  0  0  0  0  0  0  0  0  0  0  0
   57.1267   -4.3430   -9.8118 C   0  0  0  0  0  0  0  0  0  0  0  0
   58.2498   -4.5116  -10.6323 C   0  0  0  0  0  0  0  0  0  0  0  0
   58.1616   -4.5676  -12.0061 C   0  0  0  0  0  0  0  0  0  0  0  0
   56.9098   -4.4516  -12.5827 C   0  0  0  0  0  0  0  0  0  0  0  0
   56.8229   -4.5065  -13.9369 F   0  0  0  0  0  0  0  0  0  0  0  0
   55.7986   -4.2854  -11.7764 C   0  0  0  0  0  0  0  0  0  0  0  0
   55.8974   -4.2305  -10.4071 C   0  0  0  0  0  0  0  0  0  0  0  0
   57.7423   -4.3122   -7.6959 H   0  0  0  0  0  0  0  0  0  0  0  0
   50.8494   -5.2530   -5.5472 C   0  0  0  0  0  0  0  0  0  0  0  0
   50.0425   -6.2155   -5.8538 O   0  0  0  0  0  0  0  0  0  0  0  0
   51.1475   -5.1440   -4.1949 N   0  0  0  0  0  0  0  0  0  0  0  0
   51.7948   -4.3402   -3.9195 H   0  0  0  0  0  0  0  0  0  0  0  0
   50.7180   -5.9351   -3.0902 C   0  0  0  0  0  0  0  0  0  0  0  0
   51.7359   -6.5411   -2.2041 C   0  0  0  0  0  0  0  0  0  0  0  0
   51.3407   -6.8786   -0.9356 O   0  0  0  0  0  0  0  0  0  0  0  0
   51.1864   -6.0210   -0.4259 H   0  0  0  0  0  0  0  0  0  0  0  0
   52.9219   -5.5732   -2.0817 C   0  0  0  0  0  0  0  0  0  0  0  0
   53.8894   -5.7176   -3.0849 N   0  0  0  0  0  0  0  0  0  0  0  0
   54.1044   -6.9838   -3.6760 C   0  0  0  0  0  0  0  0  0  0  0  0
   55.5645   -7.0567   -4.0903 C   0  0  0  0  0  0  0  0  0  0  0  0
   56.0694   -5.6403   -3.9473 C   0  0  0  0  0  0  0  0  0  0  0  0
   55.1496   -5.0903   -2.8642 C   0  0  0  0  0  0  0  0  0  0  0  0
  1  2  1  0  0  0
  2  3  1  0  0  0
  3  4  1  0  0  0
  4  9  1  0  0  0
  9 10  2  0  0  0
 10 11  1  0  0  0
 11 12  2  0  0  0
 11 13  1  0  0  0
 13 14  1  0  0  0
 14 15  2  0  0  0
 15 16  1  0  0  0
 16 17  2  0  0  0
 17 18  1  0  0  0
 17 19  1  0  0  0
 19 20  2  0  0  0
  4  5  2  0  0  0
  5  6  1  0  0  0
  5  7  1  0  0  0
  7 22  1  0  0  0
 22 23  2  0  0  0
 22 24  1  0  0  0
 24 26  1  0  0  0
 26 27  1  0  0  0
 27 28  1  0  0  0
 27 30  1  0  0  0
 30 31  1  0  0  0
 31 32  1  0  0  0
 32 33  1  0  0  0
 33 34  1  0  0  0
 34 35  1  0  0  0
  7  2  2  0  0  0
 35 31  1  0  0  0
 20 10  1  0  0  0
 20 14  1  0  0  0
  3  8  1  0  0  0
 13 21  1  0  0  0
 24 25  1  0  0  0
 28 29  1  0  0  0
M  END
> <minimizedAffinity>
-9.58647

> <CNNscore>
0.6842786670

> <CNNaffinity>
7.3014893532

> <CNN_VS>
4.9962534904

> <CNNaffinity_variance>
0.0796357989

$$$$
[H]O[C@@]([H])(C([H])([H])N([H])C(=O)c1c(C([H])([H])[H])c(/C([H])=C2\C(=O)N([H])c3c([H])c([H])c(F)c([H])c32)n([H])c1C([H])([H])[H])C([H])([H])N1C([H])([H])C([H])([H])C([H])([H])C1([H])[H]


 35 38  0  0  0  0  0  0  0  0999 V2000
   58.7548   -4.9508   -9.0507 C   0  0  0  0  0  0  0  0  0  0  0  0
   57.2695   -4.8053   -9.1705 C   0  0  0  0  0  0  0  0  0  0  0  0
   56.4103   -4.8497   -8.1078 N   0  0  0  0  0  0  0  0  0  0  0  0
   55.1415   -4.6865   -8.4943 C   0  0  0  0  0  0  0  0  0  0  0  0
   55.2149   -4.5320   -9.8663 C   0  0  0  0  0  0  0  0  0  0  0  0
   54.0204   -4.3164  -10.7284 C   0  0  0  0  0  0  0  0  0  0  0  0
   56.5349   -4.6037  -10.3050 C   0  0  0  0  0  0  0  0  0  0  0  0
   56.7375   -4.9781   -7.1317 H   0  0  0  0  0  0  0  0  0  0  0  0
   53.8959   -4.6775   -7.7381 C   0  0  0  0  0  0  0  0  0  0  0  0
   52.9732   -3.7376   -7.7932 C   0  0  0  0  0  0  0  0  0  0  0  0
   52.9999   -2.5383   -8.5900 C   0  0  0  0  0  0  0  0  0  0  0  0
   53.9135   -2.1493   -9.3557 O   0  0  0  0  0  0  0  0  0  0  0  0
   51.7550   -1.8569   -8.3319 N   0  0  0  0  0  0  0  0  0  0  0  0
   50.9962   -2.6151   -7.4081 C   0  0  0  0  0  0  0  0  0  0  0  0
   49.7350   -2.3980   -6.8377 C   0  0  0  0  0  0  0  0  0  0  0  0
   49.1659   -3.2771   -5.9425 C   0  0  0  0  0  0  0  0  0  0  0  0
   49.8786   -4.4129   -5.6038 C   0  0  0  0  0  0  0  0  0  0  0  0
   49.3176   -5.2795   -4.7212 F   0  0  0  0  0  0  0  0  0  0  0  0
   51.1236   -4.6313   -6.1648 C   0  0  0  0  0  0  0  0  0  0  0  0
   51.6827   -3.7480   -7.0565 C   0  0  0  0  0  0  0  0  0  0  0  0
   51.4969   -0.9584   -8.7724 H   0  0  0  0  0  0  0  0  0  0  0  0
   56.9193   -4.4875  -11.6970 C   0  0  0  0  0  0  0  0  0  0  0  0
   57.8950   -5.2299  -12.1075 O   0  0  0  0  0  0  0  0  0  0  0  0
   56.3608   -3.6626  -12.6649 N   0  0  0  0  0  0  0  0  0  0  0  0
   55.5682   -3.0250  -12.3389 H   0  0  0  0  0  0  0  0  0  0  0  0
   56.6810   -3.5145  -14.0456 C   0  0  0  0  0  0  0  0  0  0  0  0
   56.0765   -4.4439  -15.0250 C   0  0  0  0  0  0  0  0  0  0  0  0
   56.4420   -5.7627  -14.9449 O   0  0  0  0  0  0  0  0  0  0  0  0
   57.4039   -5.8313  -15.2435 H   0  0  0  0  0  0  0  0  0  0  0  0
   56.4093   -3.9524  -16.4414 C   0  0  0  0  0  0  0  0  0  0  0  0
   57.5278   -3.1113  -16.5114 N   0  0  0  0  0  0  0  0  0  0  0  0
   57.5275   -2.0158  -17.4051 C   0  0  0  0  0  0  0  0  0  0  0  0
   58.9636   -1.7756  -17.8396 C   0  0  0  0  0  0  0  0  0  0  0  0
   59.7891   -2.6283  -16.9053 C   0  0  0  0  0  0  0  0  0  0  0  0
   58.8073   -3.7372  -16.5475 C   0  0  0  0  0  0  0  0  0  0  0  0
  1  2  1  0  0  0
  2  3  1  0  0  0
  3  4  1  0  0  0
  4  9  1  0  0  0
  9 10  2  0  0  0
 10 11  1  0  0  0
 11 12  2  0  0  0
 11 13  1  0  0  0
 13 14  1  0  0  0
 14 15  2  0  0  0
 15 16  1  0  0  0
 16 17  2  0  0  0
 17 18  1  0  0  0
 17 19  1  0  0  0
 19 20  2  0  0  0
  4  5  2  0  0  0
  5  6  1  0  0  0
  5  7  1  0  0  0
  7 22  1  0  0  0
 22 23  2  0  0  0
 22 24  1  0  0  0
 24 26  1  0  0  0
 26 27  1  0  0  0
 27 28  1  0  0  0
 27 30  1  0  0  0
 30 31  1  0  0  0
 31 32  1  0  0  0
 32 33  1  0  0  0
 33 34  1  0  0  0
 34 35  1  0  0  0
  7  2  2  0  0  0
 35 31  1  0  0  0
 20 10  1  0  0  0
 20 14  1  0  0  0
  3  8  1  0  0  0
 13 21  1  0  0  0
 24 25  1  0  0  0
 28 29  1  0  0  0
M  END
> <minimizedAffinity>
-9.09553

> <CNNscore>
0.6066118479

> <CNNaffinity>
6.7645454407

> <CNN_VS>
4.1034536362

> <CNNaffinity_variance>
0.1318105757

$$$$
[H]O[C@@]([H])(C([H])([H])N([H])C(=O)c1c(C([H])([H])[H])c(/C([H])=C2\C(=O)N([H])c3c([H])c([H])c(F)c([H])c32)n([H])c1C([H])([H])[H])C([H])([H])N1C([H])([H])C([H])([H])C([H])([H])C1([H])[H]


 35 38  0  0  0  0  0  0  0  0999 V2000
   55.5749   -3.9232  -11.3304 C   0  0  0  0  0  0  0  0  0  0  0  0
   55.4438   -4.3996   -9.9172 C   0  0  0  0  0  0  0  0  0  0  0  0
   54.2700   -4.3944   -9.2159 N   0  0  0  0  0  0  0  0  0  0  0  0
   54.4331   -4.8783   -7.9809 C   0  0  0  0  0  0  0  0  0  0  0  0
   55.7755   -5.2017   -7.9104 C   0  0  0  0  0  0  0  0  0  0  0  0
   56.4117   -5.7861   -6.6979 C   0  0  0  0  0  0  0  0  0  0  0  0
   56.4211   -4.9093   -9.1095 C   0  0  0  0  0  0  0  0  0  0  0  0
   53.3766   -4.0649   -9.6274 H   0  0  0  0  0  0  0  0  0  0  0  0
   53.4939   -5.0501   -6.8800 C   0  0  0  0  0  0  0  0  0  0  0  0
   52.3688   -4.3815   -6.7219 C   0  0  0  0  0  0  0  0  0  0  0  0
   51.8398   -3.3536   -7.5806 C   0  0  0  0  0  0  0  0  0  0  0  0
   52.3604   -2.8824   -8.6195 O   0  0  0  0  0  0  0  0  0  0  0  0
   50.5767   -2.9605   -7.0054 N   0  0  0  0  0  0  0  0  0  0  0  0
   50.3448   -3.7226   -5.8352 C   0  0  0  0  0  0  0  0  0  0  0  0
   49.2821   -3.7283   -4.9222 C   0  0  0  0  0  0  0  0  0  0  0  0
   49.2503   -4.5650   -3.8280 C   0  0  0  0  0  0  0  0  0  0  0  0
   50.3151   -5.4267   -3.6370 C   0  0  0  0  0  0  0  0  0  0  0  0
   50.2839   -6.2513   -2.5583 F   0  0  0  0  0  0  0  0  0  0  0  0
   51.3659   -5.4245   -4.5360 C   0  0  0  0  0  0  0  0  0  0  0  0
   51.3883   -4.5857   -5.6240 C   0  0  0  0  0  0  0  0  0  0  0  0
   49.9679   -2.2326   -7.4146 H   0  0  0  0  0  0  0  0  0  0  0  0
   57.8361   -5.1316   -9.3273 C   0  0  0  0  0  0  0  0  0  0  0  0
   58.3243   -4.7744  -10.4699 O   0  0  0  0  0  0  0  0  0  0  0  0
   58.7521   -5.6914   -8.4458 N   0  0  0  0  0  0  0  0  0  0  0  0
   58.3625   -6.0137   -7.5048 H   0  0  0  0  0  0  0  0  0  0  0  0
   60.1508   -5.9210   -8.5933 C   0  0  0  0  0  0  0  0  0  0  0  0
   60.7365   -7.1590   -8.0341 C   0  0  0  0  0  0  0  0  0  0  0  0
   60.6577   -7.3312   -6.6763 O   0  0  0  0  0  0  0  0  0  0  0  0
   61.2793   -6.6614   -6.2474 H   0  0  0  0  0  0  0  0  0  0  0  0
   62.2195   -7.2241   -8.4276 C   0  0  0  0  0  0  0  0  0  0  0  0
   62.6004   -8.4243   -9.0423 N   0  0  0  0  0  0  0  0  0  0  0  0
   63.8485   -8.5107   -9.7008 C   0  0  0  0  0  0  0  0  0  0  0  0
   63.7009   -9.5067  -10.8387 C   0  0  0  0  0  0  0  0  0  0  0  0
   62.3705  -10.1756  -10.5858 C   0  0  0  0  0  0  0  0  0  0  0  0
   61.6159   -9.0900   -9.8283 C   0  0  0  0  0  0  0  0  0  0  0  0
  1  2  1  0  0  0
  2  3  1  0  0  0
  3  4  1  0  0  0
  4  9  1  0  0  0
  9 10  2  0  0  0
 10 11  1  0  0  0
 11 12  2  0  0  0
 11 13  1  0  0  0
 13 14  1  0  0  0
 14 15  2  0  0  0
 15 16  1  0  0  0
 16 17  2  0  0  0
 17 18  1  0  0  0
 17 19  1  0  0  0
 19 20  2  0  0  0
  4  5  2  0  0  0
  5  6  1  0  0  0
  5  7  1  0  0  0
  7 22  1  0  0  0
 22 23  2  0  0  0
 22 24  1  0  0  0
 24 26  1  0  0  0
 26 27  1  0  0  0
 27 28  1  0  0  0
 27 30  1  0  0  0
 30 31  1  0  0  0
 31 32  1  0  0  0
 32 33  1  0  0  0
 33 34  1  0  0  0
 34 35  1  0  0  0
  7  2  2  0  0  0
 35 31  1  0  0  0
 20 10  1  0  0  0
 20 14  1  0  0  0
  3  8  1  0  0  0
 13 21  1  0  0  0
 24 25  1  0  0  0
 28 29  1  0  0  0
M  END
> <minimizedAffinity>
-8.58329

> <CNNscore>
0.5831895471

> <CNNaffinity>
6.7573394775

> <CNN_VS>
3.9408097267

> <CNNaffinity_variance>
0.3705933690

$$$$
[H]O[C@@]([H])(C([H])([H])N([H])C(=O)c1c(C([H])([H])[H])c(/C([H])=C2\C(=O)N([H])c3c([H])c([H])c(F)c([H])c32)n([H])c1C([H])([H])[H])C([H])([H])N1C([H])([H])C([H])([H])C([H])([H])C1([H])[H]


 35 38  0  0  0  0  0  0  0  0999 V2000
   50.4971   -6.1095   -6.1201 C   0  0  0  0  0  0  0  0  0  0  0  0
   51.9871   -5.9637   -6.1084 C   0  0  0  0  0  0  0  0  0  0  0  0
   52.7538   -5.8732   -7.2369 N   0  0  0  0  0  0  0  0  0  0  0  0
   54.0506   -5.7436   -6.9411 C   0  0  0  0  0  0  0  0  0  0  0  0
   54.0928   -5.7532   -5.5591 C   0  0  0  0  0  0  0  0  0  0  0  0
   55.3555   -5.6287   -4.7804 C   0  0  0  0  0  0  0  0  0  0  0  0
   52.8145   -5.8901   -5.0234 C   0  0  0  0  0  0  0  0  0  0  0  0
   52.3457   -5.8886   -8.1906 H   0  0  0  0  0  0  0  0  0  0  0  0
   55.2281   -5.6323   -7.7923 C   0  0  0  0  0  0  0  0  0  0  0  0
   55.3318   -4.8654   -8.8596 C   0  0  0  0  0  0  0  0  0  0  0  0
   54.3226   -3.9964   -9.4075 C   0  0  0  0  0  0  0  0  0  0  0  0
   53.1515   -3.8275   -8.9924 O   0  0  0  0  0  0  0  0  0  0  0  0
   54.9258   -3.3488  -10.5467 N   0  0  0  0  0  0  0  0  0  0  0  0
   56.2571   -3.8090  -10.6884 C   0  0  0  0  0  0  0  0  0  0  0  0
   57.2565   -3.4975  -11.6195 C   0  0  0  0  0  0  0  0  0  0  0  0
   58.5099   -4.0683  -11.5795 C   0  0  0  0  0  0  0  0  0  0  0  0
   58.7767   -4.9817  -10.5758 C   0  0  0  0  0  0  0  0  0  0  0  0
   60.0121   -5.5446  -10.5364 F   0  0  0  0  0  0  0  0  0  0  0  0
   57.7931   -5.2917   -9.6545 C   0  0  0  0  0  0  0  0  0  0  0  0
   56.5459   -4.7171   -9.7034 C   0  0  0  0  0  0  0  0  0  0  0  0
   54.4292   -2.6635  -11.1397 H   0  0  0  0  0  0  0  0  0  0  0  0
   52.5485   -5.9434   -3.6002 C   0  0  0  0  0  0  0  0  0  0  0  0
   52.1085   -4.8658   -3.0376 O   0  0  0  0  0  0  0  0  0  0  0  0
   52.7103   -7.0278   -2.7474 N   0  0  0  0  0  0  0  0  0  0  0  0
   53.0948   -7.9207   -3.1899 H   0  0  0  0  0  0  0  0  0  0  0  0
   52.4530   -7.1480   -1.3509 C   0  0  0  0  0  0  0  0  0  0  0  0
   53.3200   -6.4217   -0.3974 C   0  0  0  0  0  0  0  0  0  0  0  0
   52.8656   -5.2150    0.0681 O   0  0  0  0  0  0  0  0  0  0  0  0
   52.9003   -4.5596   -0.6989 H   0  0  0  0  0  0  0  0  0  0  0  0
   54.6863   -6.1833   -1.0567 C   0  0  0  0  0  0  0  0  0  0  0  0
   55.7489   -6.8580   -0.4410 N   0  0  0  0  0  0  0  0  0  0  0  0
   57.0783   -6.5831   -0.8360 C   0  0  0  0  0  0  0  0  0  0  0  0
   57.8888   -7.8534   -0.6404 C   0  0  0  0  0  0  0  0  0  0  0  0
   56.9825   -8.7614    0.1568 C   0  0  0  0  0  0  0  0  0  0  0  0
   55.6028   -8.2631   -0.2553 C   0  0  0  0  0  0  0  0  0  0  0  0
  1  2  1  0  0  0
  2  3  1  0  0  0
  3  4  1  0  0  0
  4  9  1  0  0  0
  9 10  2  0  0  0
 10 11  1  0  0  0
 11 12  2  0  0  0
 11 13  1  0  0  0
 13 14  1  0  0  0
 14 15  2  0  0  0
 15 16  1  0  0  0
 16 17  2  0  0  0
 17 18  1  0  0  0
 17 19  1  0  0  0
 19 20  2  0  0  0
  4  5  2  0  0  0
  5  6  1  0  0  0
  5  7  1  0  0  0
  7 22  1  0  0  0
 22 23  2  0  0  0
 22 24  1  0  0  0
 24 26  1  0  0  0
 26 27  1  0  0  0
 27 28  1  0  0  0
 27 30  1  0  0  0
 30 31  1  0  0  0
 31 32  1  0  0  0
 32 33  1  0  0  0
 33 34  1  0  0  0
 34 35  1  0  0  0
  7  2  2  0  0  0
 35 31  1  0  0  0
 20 10  1  0  0  0
 20 14  1  0  0  0
  3  8  1  0  0  0
 13 21  1  0  0  0
 24 25  1  0  0  0
 28 29  1  0  0  0
M  END
> <minimizedAffinity>
-7.94351

> <CNNscore>
0.4243816435

> <CNNaffinity>
6.4492225647

> <CNN_VS>
2.7369315624

> <CNNaffinity_variance>
0.3191099167

$$$$
[H]c1nc(N([H])c2c([H])c([H])c(S(=O)(=O)N([H])C([H])([H])[H])c([H])c2[H])nc2c1N(C([H])([H])[H])C(=O)[C@@]([H])(C([H])([H])C([H])([H])[H])N2C1([H])C([H])([H])C([H])([H])C([H])([H])C1([H])[H]


 33 36  0  0  0  0  0  0  0  0999 V2000
   51.7823   -5.7489   -5.9296 C   0  0  0  0  0  0  0  0  0  0  0  0
   53.0905   -5.3206   -6.3627 N   0  0  0  0  0  0  0  0  0  0  0  0
   53.0930   -4.3729   -7.4453 C   0  0  0  0  0  0  0  0  0  0  0  0
   54.1483   -4.2416   -8.2557 N   0  0  0  0  0  0  0  0  0  0  0  0
   54.2036   -3.3553   -9.3016 C   0  0  0  0  0  0  0  0  0  0  0  0
   53.1549   -2.5863   -9.5226 N   0  0  0  0  0  0  0  0  0  0  0  0
   52.0672   -2.6768   -8.7387 C   0  0  0  0  0  0  0  0  0  0  0  0
   51.9990   -3.5640   -7.6836 C   0  0  0  0  0  0  0  0  0  0  0  0
   50.8435   -3.6437   -6.8690 N   0  0  0  0  0  0  0  0  0  0  0  0
   49.6779   -2.8083   -7.0926 C   0  0  0  0  0  0  0  0  0  0  0  0
   50.8400   -4.5802   -5.7978 C   0  0  0  0  0  0  0  0  0  0  0  0
   50.0905   -4.4375   -4.7973 O   0  0  0  0  0  0  0  0  0  0  0  0
   54.3328   -5.7349   -5.8342 C   0  0  0  0  0  0  0  0  0  0  0  0
   54.3855   -5.5844   -4.3172 C   0  0  0  0  0  0  0  0  0  0  0  0
   54.5072   -7.0181   -3.8571 C   0  0  0  0  0  0  0  0  0  0  0  0
   55.4959   -7.5676   -4.8951 C   0  0  0  0  0  0  0  0  0  0  0  0
   54.7492   -7.1331   -6.1663 C   0  0  0  0  0  0  0  0  0  0  0  0
   49.6737   -6.4941   -6.8820 C   0  0  0  0  0  0  0  0  0  0  0  0
   51.1881   -6.6059   -7.0374 C   0  0  0  0  0  0  0  0  0  0  0  0
   55.3496   -3.3373  -10.0774 N   0  0  0  0  0  0  0  0  0  0  0  0
   55.3698   -2.6857  -10.9327 H   0  0  0  0  0  0  0  0  0  0  0  0
   56.5253   -4.0871   -9.8896 C   0  0  0  0  0  0  0  0  0  0  0  0
   57.3319   -4.3779  -11.0099 C   0  0  0  0  0  0  0  0  0  0  0  0
   58.4630   -5.1195  -10.8767 C   0  0  0  0  0  0  0  0  0  0  0  0
   58.8943   -5.6299   -9.6631 C   0  0  0  0  0  0  0  0  0  0  0  0
   58.1113   -5.3486   -8.5727 C   0  0  0  0  0  0  0  0  0  0  0  0
   56.9485   -4.5909   -8.6877 C   0  0  0  0  0  0  0  0  0  0  0  0
   60.3511   -6.5814   -9.5073 S   0  0  0  0  0  0  0  0  0  0  0  0
   60.9352   -6.4366   -8.1327 O   0  0  0  0  0  0  0  0  0  0  0  0
   61.3583   -6.0465  -10.4932 O   0  0  0  0  0  0  0  0  0  0  0  0
   60.0548   -8.2476   -9.8349 N   0  0  0  0  0  0  0  0  0  0  0  0
   61.2837   -8.9836   -9.7888 C   0  0  0  0  0  0  0  0  0  0  0  0
   59.6191   -8.3334  -10.7802 H   0  0  0  0  0  0  0  0  0  0  0  0
 18 19  1  0  0  0
 19  1  1  0  0  0
  1  2  1  0  0  0
  2 13  1  0  0  0
 13 14  1  0  0  0
 14 15  1  0  0  0
 15 16  1  0  0  0
 16 17  1  0  0  0
  2  3  1  0  0  0
  3  4  2  0  0  0
  4  5  1  0  0  0
  5 20  1  0  0  0
 20 22  1  0  0  0
 22 23  2  0  0  0
 23 24  1  0  0  0
 24 25  2  0  0  0
 25 26  1  0  0  0
 26 27  2  0  0  0
 25 28  1  0  0  0
 28 29  2  0  0  0
 28 30  2  0  0  0
 28 31  1  0  0  0
 31 32  1  0  0  0
  5  6  2  0  0  0
  6  7  1  0  0  0
  7  8  2  0  0  0
  8  9  1  0  0  0
  9 10  1  0  0  0
  9 11  1  0  0  0
 11 12  2  0  0  0
 11  1  1  0  0  0
 17 13  1  0  0  0
  8  3  1  0  0  0
 27 22  1  0  0  0
 20 21  1  0  0  0
 31 33  1  0  0  0
M  END
> <minimizedAffinity>
-10.18234

> <CNNscore>
0.9893640280

> <CNNaffinity>
8.0488042831

> <CNN_VS>
7.9631972313

> <CNNaffinity_variance>
0.0336326882

$$$$
[H]c1nc(N([H])c2c([H])c([H])c(S(=O)(=O)N([H])C([H])([H])[H])c([H])c2[H])nc2c1N(C([H])([H])[H])C(=O)[C@@]([H])(C([H])([H])C([H])([H])[H])N2C1([H])C([H])([H])C([H])([H])C([H])([H])C1([H])[H]


 33 36  0  0  0  0  0  0  0  0999 V2000
   51.9743   -5.7360   -6.0388 C   0  0  0  0  0  0  0  0  0  0  0  0
   53.3322   -5.4752   -6.4514 N   0  0  0  0  0  0  0  0  0  0  0  0
   53.4717   -4.5123   -7.5115 C   0  0  0  0  0  0  0  0  0  0  0  0
   54.5439   -4.5040   -8.3103 N   0  0  0  0  0  0  0  0  0  0  0  0
   54.7272   -3.6097   -9.3347 C   0  0  0  0  0  0  0  0  0  0  0  0
   53.7919   -2.7039   -9.5457 N   0  0  0  0  0  0  0  0  0  0  0  0
   52.6933   -2.6669   -8.7725 C   0  0  0  0  0  0  0  0  0  0  0  0
   52.4969   -3.5606   -7.7392 C   0  0  0  0  0  0  0  0  0  0  0  0
   51.3323   -3.5046   -6.9356 N   0  0  0  0  0  0  0  0  0  0  0  0
   50.2899   -2.5174   -7.1486 C   0  0  0  0  0  0  0  0  0  0  0  0
   51.1934   -4.4560   -5.8868 C   0  0  0  0  0  0  0  0  0  0  0  0
   50.4587   -4.2376   -4.8891 O   0  0  0  0  0  0  0  0  0  0  0  0
   54.5031   -6.0622   -5.9232 C   0  0  0  0  0  0  0  0  0  0  0  0
   54.8727   -5.4738   -4.5653 C   0  0  0  0  0  0  0  0  0  0  0  0
   54.7070   -6.6611   -3.6460 C   0  0  0  0  0  0  0  0  0  0  0  0
   55.3123   -7.7768   -4.5096 C   0  0  0  0  0  0  0  0  0  0  0  0
   54.4792   -7.5514   -5.7814 C   0  0  0  0  0  0  0  0  0  0  0  0
   49.8272   -6.6338   -6.7408 C   0  0  0  0  0  0  0  0  0  0  0  0
   51.2839   -6.4819   -7.1709 C   0  0  0  0  0  0  0  0  0  0  0  0
   55.8738   -3.7264  -10.1009 N   0  0  0  0  0  0  0  0  0  0  0  0
   55.9012   -3.2191  -11.0486 H   0  0  0  0  0  0  0  0  0  0  0  0
   57.0417   -4.4486   -9.7938 C   0  0  0  0  0  0  0  0  0  0  0  0
   57.6891   -5.1633  -10.8236 C   0  0  0  0  0  0  0  0  0  0  0  0
   58.8060   -5.8933  -10.5653 C   0  0  0  0  0  0  0  0  0  0  0  0
   59.3745   -5.9858   -9.3053 C   0  0  0  0  0  0  0  0  0  0  0  0
   58.7465   -5.2921   -8.3027 C   0  0  0  0  0  0  0  0  0  0  0  0
   57.6009   -4.5384   -8.5461 C   0  0  0  0  0  0  0  0  0  0  0  0
   60.8111   -6.9281   -8.9886 S   0  0  0  0  0  0  0  0  0  0  0  0
   60.5618   -8.3830   -9.2582 O   0  0  0  0  0  0  0  0  0  0  0  0
   61.1443   -6.7824   -7.5256 O   0  0  0  0  0  0  0  0  0  0  0  0
   62.1436   -6.3860   -9.9385 N   0  0  0  0  0  0  0  0  0  0  0  0
   62.4131   -7.3245  -10.9875 C   0  0  0  0  0  0  0  0  0  0  0  0
   62.9799   -6.2865   -9.3209 H   0  0  0  0  0  0  0  0  0  0  0  0
 18 19  1  0  0  0
 19  1  1  0  0  0
  1  2  1  0  0  0
  2 13  1  0  0  0
 13 14  1  0  0  0
 14 15  1  0  0  0
 15 16  1  0  0  0
 16 17  1  0  0  0
  2  3  1  0  0  0
  3  4  2  0  0  0
  4  5  1  0  0  0
  5 20  1  0  0  0
 20 22  1  0  0  0
 22 23  2  0  0  0
 23 24  1  0  0  0
 24 25  2  0  0  0
 25 26  1  0  0  0
 26 27  2  0  0  0
 25 28  1  0  0  0
 28 29  2  0  0  0
 28 30  2  0  0  0
 28 31  1  0  0  0
 31 32  1  0  0  0
  5  6  2  0  0  0
  6  7  1  0  0  0
  7  8  2  0  0  0
  8  9  1  0  0  0
  9 10  1  0  0  0
  9 11  1  0  0  0
 11 12  2  0  0  0
 11  1  1  0  0  0
 17 13  1  0  0  0
  8  3  1  0  0  0
 27 22  1  0  0  0
 20 21  1  0  0  0
 31 33  1  0  0  0
M  END
> <minimizedAffinity>
-7.90390

> <CNNscore>
0.8260703087

> <CNNaffinity>
7.6914877892

> <CNN_VS>
6.3537096977

> <CNNaffinity_variance>
0.1814906150

$$$$
[H]c1nc(N([H])c2c([H])c([H])c(S(=O)(=O)N([H])C([H])([H])[H])c([H])c2[H])nc2c1N(C([H])([H])[H])C(=O)[C@@]([H])(C([H])([H])C([H])([H])[H])N2C1([H])C([H])([H])C([H])([H])C([H])([H])C1([H])[H]


 33 36  0  0  0  0  0  0  0  0999 V2000
   52.2974   -5.6879   -6.2149 C   0  0  0  0  0  0  0  0  0  0  0  0
   53.6908   -5.5187   -6.5496 N   0  0  0  0  0  0  0  0  0  0  0  0
   53.9427   -4.7229   -7.7217 C   0  0  0  0  0  0  0  0  0  0  0  0
   55.0727   -4.8533   -8.4244 N   0  0  0  0  0  0  0  0  0  0  0  0
   55.3632   -4.1213   -9.5478 C   0  0  0  0  0  0  0  0  0  0  0  0
   54.4770   -3.2359   -9.9609 N   0  0  0  0  0  0  0  0  0  0  0  0
   53.3240   -3.0639   -9.2922 C   0  0  0  0  0  0  0  0  0  0  0  0
   53.0199   -3.7937   -8.1610 C   0  0  0  0  0  0  0  0  0  0  0  0
   51.7994   -3.5971   -7.4703 N   0  0  0  0  0  0  0  0  0  0  0  0
   50.8093   -2.6293   -7.9056 C   0  0  0  0  0  0  0  0  0  0  0  0
   51.5494   -4.3830   -6.3110 C   0  0  0  0  0  0  0  0  0  0  0  0
   50.7477   -4.0066   -5.4173 O   0  0  0  0  0  0  0  0  0  0  0  0
   54.7978   -6.0475   -5.8502 C   0  0  0  0  0  0  0  0  0  0  0  0
   54.8556   -5.5450   -4.4111 C   0  0  0  0  0  0  0  0  0  0  0  0
   54.6423   -6.8140   -3.6199 C   0  0  0  0  0  0  0  0  0  0  0  0
   55.5001   -7.7998   -4.4256 C   0  0  0  0  0  0  0  0  0  0  0  0
   54.8938   -7.5402   -5.8139 C   0  0  0  0  0  0  0  0  0  0  0  0
   50.1779   -6.6083   -6.9696 C   0  0  0  0  0  0  0  0  0  0  0  0
   51.6720   -6.5753   -7.2808 C   0  0  0  0  0  0  0  0  0  0  0  0
   56.5609   -4.3722  -10.1944 N   0  0  0  0  0  0  0  0  0  0  0  0
   57.3621   -4.8050   -9.6225 H   0  0  0  0  0  0  0  0  0  0  0  0
   56.8776   -4.1223  -11.5424 C   0  0  0  0  0  0  0  0  0  0  0  0
   58.2224   -3.8748  -11.8898 C   0  0  0  0  0  0  0  0  0  0  0  0
   58.5684   -3.6053  -13.1761 C   0  0  0  0  0  0  0  0  0  0  0  0
   57.6496   -3.5553  -14.2118 C   0  0  0  0  0  0  0  0  0  0  0  0
   56.3416   -3.7952  -13.8762 C   0  0  0  0  0  0  0  0  0  0  0  0
   55.9660   -4.0730  -12.5642 C   0  0  0  0  0  0  0  0  0  0  0  0
   58.1094   -3.2079  -15.8610 S   0  0  0  0  0  0  0  0  0  0  0  0
   57.0117   -2.4752  -16.5751 O   0  0  0  0  0  0  0  0  0  0  0  0
   58.3193   -4.5230  -16.5675 O   0  0  0  0  0  0  0  0  0  0  0  0
   59.5607   -2.2803  -15.9296 N   0  0  0  0  0  0  0  0  0  0  0  0
   60.6639   -3.1200  -16.2928 C   0  0  0  0  0  0  0  0  0  0  0  0
   59.7299   -1.8485  -14.9938 H   0  0  0  0  0  0  0  0  0  0  0  0
 18 19  1  0  0  0
 19  1  1  0  0  0
  1  2  1  0  0  0
  2 13  1  0  0  0
 13 14  1  0  0  0
 14 15  1  0  0  0
 15 16  1  0  0  0
 16 17  1  0  0  0
  2  3  1  0  0  0
  3  4  2  0  0  0
  4  5  1  0  0  0
  5 20  1  0  0  0
 20 22  1  0  0  0
 22 23  2  0  0  0
 23 24  1  0  0  0
 24 25  2  0  0  0
 25 26  1  0  0  0
 26 27  2  0  0  0
 25 28  1  0  0  0
 28 29  2  0  0  0
 28 30  2  0  0  0
 28 31  1  0  0  0
 31 32  1  0  0  0
  5  6  2  0  0  0
  6  7  1  0  0  0
  7  8  2  0  0  0
  8  9  1  0  0  0
  9 10  1  0  0  0
  9 11  1  0  0  0
 11 12  2  0  0  0
 11  1  1  0  0  0
 17 13  1  0  0  0
  8  3  1  0  0  0
 27 22  1  0  0  0
 20 21  1  0  0  0
 31 33  1  0  0  0
M  END
> <minimizedAffinity>
-8.53771

> <CNNscore>
0.7988129258

> <CNNaffinity>
7.4483156204

> <CNN_VS>
5.9498109818

> <CNNaffinity_variance>
0.1418595463

$$$$
[H]c1nc(N([H])c2c([H])c([H])c(S(=O)(=O)N([H])C([H])([H])[H])c([H])c2[H])nc2c1N(C([H])([H])[H])C(=O)[C@@]([H])(C([H])([H])C([H])([H])[H])N2C1([H])C([H])([H])C([H])([H])C([H])([H])C1([H])[H]


 33 36  0  0  0  0  0  0  0  0999 V2000
   57.1221   -5.2566   -7.6408 C   0  0  0  0  0  0  0  0  0  0  0  0
   55.6820   -5.3455   -7.6176 N   0  0  0  0  0  0  0  0  0  0  0  0
   55.0094   -4.5933   -8.6434 C   0  0  0  0  0  0  0  0  0  0  0  0
   53.7452   -4.1845   -8.4938 N   0  0  0  0  0  0  0  0  0  0  0  0
   53.0573   -3.4656   -9.4385 C   0  0  0  0  0  0  0  0  0  0  0  0
   53.6777   -3.1584  -10.5613 N   0  0  0  0  0  0  0  0  0  0  0  0
   54.9491   -3.5440  -10.7640 C   0  0  0  0  0  0  0  0  0  0  0  0
   55.6519   -4.2674   -9.8219 C   0  0  0  0  0  0  0  0  0  0  0  0
   56.9910   -4.6646  -10.0549 N   0  0  0  0  0  0  0  0  0  0  0  0
   57.6943   -4.3385  -11.2819 C   0  0  0  0  0  0  0  0  0  0  0  0
   57.6570   -5.4088   -9.0415 C   0  0  0  0  0  0  0  0  0  0  0  0
   58.6379   -6.1520   -9.3037 O   0  0  0  0  0  0  0  0  0  0  0  0
   54.8959   -6.0837   -6.7059 C   0  0  0  0  0  0  0  0  0  0  0  0
   55.7417   -7.0311   -5.8610 C   0  0  0  0  0  0  0  0  0  0  0  0
   55.5649   -6.4656   -4.4715 C   0  0  0  0  0  0  0  0  0  0  0  0
   54.0681   -6.1247   -4.4909 C   0  0  0  0  0  0  0  0  0  0  0  0
   54.0488   -5.2772   -5.7728 C   0  0  0  0  0  0  0  0  0  0  0  0
   56.4990   -3.4381   -6.1530 C   0  0  0  0  0  0  0  0  0  0  0  0
   57.5031   -3.8423   -7.2294 C   0  0  0  0  0  0  0  0  0  0  0  0
   51.7589   -3.0856   -9.1467 N   0  0  0  0  0  0  0  0  0  0  0  0
   51.1803   -2.6251   -9.9275 H   0  0  0  0  0  0  0  0  0  0  0  0
   51.0787   -3.2230   -7.9227 C   0  0  0  0  0  0  0  0  0  0  0  0
   51.1434   -4.4583   -7.2444 C   0  0  0  0  0  0  0  0  0  0  0  0
   50.4815   -4.6414   -6.0716 C   0  0  0  0  0  0  0  0  0  0  0  0
   49.7156   -3.6541   -5.4733 C   0  0  0  0  0  0  0  0  0  0  0  0
   49.6510   -2.4525   -6.1313 C   0  0  0  0  0  0  0  0  0  0  0  0
   50.3213   -2.2444   -7.3341 C   0  0  0  0  0  0  0  0  0  0  0  0
   48.8706   -3.9040   -3.9648 S   0  0  0  0  0  0  0  0  0  0  0  0
   49.6846   -3.3982   -2.8102 O   0  0  0  0  0  0  0  0  0  0  0  0
   48.6855   -5.3888   -3.7810 O   0  0  0  0  0  0  0  0  0  0  0  0
   47.3309   -3.1288   -3.9679 N   0  0  0  0  0  0  0  0  0  0  0  0
   46.3444   -3.9933   -3.3906 C   0  0  0  0  0  0  0  0  0  0  0  0
   47.0728   -2.8949   -4.9525 H   0  0  0  0  0  0  0  0  0  0  0  0
 18 19  1  0  0  0
 19  1  1  0  0  0
  1  2  1  0  0  0
  2 13  1  0  0  0
 13 14  1  0  0  0
 14 15  1  0  0  0
 15 16  1  0  0  0
 16 17  1  0  0  0
  2  3  1  0  0  0
  3  4  2  0  0  0
  4  5  1  0  0  0
  5 20  1  0  0  0
 20 22  1  0  0  0
 22 23  2  0  0  0
 23 24  1  0  0  0
 24 25  2  0  0  0
 25 26  1  0  0  0
 26 27  2  0  0  0
 25 28  1  0  0  0
 28 29  2  0  0  0
 28 30  2  0  0  0
 28 31  1  0  0  0
 31 32  1  0  0  0
  5  6  2  0  0  0
  6  7  1  0  0  0
  7  8  2  0  0  0
  8  9  1  0  0  0
  9 10  1  0  0  0
  9 11  1  0  0  0
 11 12  2  0  0  0
 11  1  1  0  0  0
 17 13  1  0  0  0
  8  3  1  0  0  0
 27 22  1  0  0  0
 20 21  1  0  0  0
 31 33  1  0  0  0
M  END
> <minimizedAffinity>
-6.28336

> <CNNscore>
0.6556604505

> <CNNaffinity>
7.3974905014

> <CNN_VS>
4.8502421379

> <CNNaffinity_variance>
0.3781796992

$$$$
[H]c1nc(N([H])c2c([H])c([H])c(S(=O)(=O)N([H])C([H])([H])[H])c([H])c2[H])nc2c1N(C([H])([H])[H])C(=O)[C@@]([H])(C([H])([H])C([H])([H])[H])N2C1([H])C([H])([H])C([H])([H])C([H])([H])C1([H])[H]


 33 36  0  0  0  0  0  0  0  0999 V2000
   50.5990   -5.0969   -6.1114 C   0  0  0  0  0  0  0  0  0  0  0  0
   52.0168   -5.3649   -6.1001 N   0  0  0  0  0  0  0  0  0  0  0  0
   52.7750   -4.6722   -7.1080 C   0  0  0  0  0  0  0  0  0  0  0  0
   53.9512   -5.1385   -7.5403 N   0  0  0  0  0  0  0  0  0  0  0  0
   54.7140   -4.5189   -8.4977 C   0  0  0  0  0  0  0  0  0  0  0  0
   54.2624   -3.3970   -9.0243 N   0  0  0  0  0  0  0  0  0  0  0  0
   53.0859   -2.8836   -8.6265 C   0  0  0  0  0  0  0  0  0  0  0  0
   52.3092   -3.4969   -7.6645 C   0  0  0  0  0  0  0  0  0  0  0  0
   51.0723   -2.9394   -7.2588 N   0  0  0  0  0  0  0  0  0  0  0  0
   50.5550   -1.7065   -7.8235 C   0  0  0  0  0  0  0  0  0  0  0  0
   50.3220   -3.6232   -6.2620 C   0  0  0  0  0  0  0  0  0  0  0  0
   49.4749   -3.0275   -5.5473 O   0  0  0  0  0  0  0  0  0  0  0  0
   52.7078   -6.2202   -5.2139 C   0  0  0  0  0  0  0  0  0  0  0  0
   54.0640   -5.6491   -4.8122 C   0  0  0  0  0  0  0  0  0  0  0  0
   53.8862   -5.4134   -3.3307 C   0  0  0  0  0  0  0  0  0  0  0  0
   53.1176   -6.6808   -2.9307 C   0  0  0  0  0  0  0  0  0  0  0  0
   51.9794   -6.5854   -3.9591 C   0  0  0  0  0  0  0  0  0  0  0  0
   50.3159   -7.2257   -7.2503 C   0  0  0  0  0  0  0  0  0  0  0  0
   50.0200   -5.7327   -7.3665 C   0  0  0  0  0  0  0  0  0  0  0  0
   55.9028   -5.1215   -8.8707 N   0  0  0  0  0  0  0  0  0  0  0  0
   56.2480   -5.9585   -8.2906 H   0  0  0  0  0  0  0  0  0  0  0  0
   56.7466   -4.7671   -9.9395 C   0  0  0  0  0  0  0  0  0  0  0  0
   58.0814   -5.2238   -9.9317 C   0  0  0  0  0  0  0  0  0  0  0  0
   58.9365   -4.8849  -10.9321 C   0  0  0  0  0  0  0  0  0  0  0  0
   58.5688   -4.0874  -12.0036 C   0  0  0  0  0  0  0  0  0  0  0  0
   57.2717   -3.6420  -12.0130 C   0  0  0  0  0  0  0  0  0  0  0  0
   56.3797   -3.9775  -10.9975 C   0  0  0  0  0  0  0  0  0  0  0  0
   59.6793   -3.6604  -13.2828 S   0  0  0  0  0  0  0  0  0  0  0  0
   60.2314   -2.2817  -13.0683 O   0  0  0  0  0  0  0  0  0  0  0  0
   58.9081   -3.6500  -14.5781 O   0  0  0  0  0  0  0  0  0  0  0  0
   60.9770   -4.7896  -13.3954 N   0  0  0  0  0  0  0  0  0  0  0  0
   61.9781   -4.2995  -14.2963 C   0  0  0  0  0  0  0  0  0  0  0  0
   60.6013   -5.7024  -13.7367 H   0  0  0  0  0  0  0  0  0  0  0  0
 18 19  1  0  0  0
 19  1  1  0  0  0
  1  2  1  0  0  0
  2 13  1  0  0  0
 13 14  1  0  0  0
 14 15  1  0  0  0
 15 16  1  0  0  0
 16 17  1  0  0  0
  2  3  1  0  0  0
  3  4  2  0  0  0
  4  5  1  0  0  0
  5 20  1  0  0  0
 20 22  1  0  0  0
 22 23  2  0  0  0
 23 24  1  0  0  0
 24 25  2  0  0  0
 25 26  1  0  0  0
 26 27  2  0  0  0
 25 28  1  0  0  0
 28 29  2  0  0  0
 28 30  2  0  0  0
 28 31  1  0  0  0
 31 32  1  0  0  0
  5  6  2  0  0  0
  6  7  1  0  0  0
  7  8  2  0  0  0
  8  9  1  0  0  0
  9 10  1  0  0  0
  9 11  1  0  0  0
 11 12  2  0  0  0
 11  1  1  0  0  0
 17 13  1  0  0  0
  8  3  1  0  0  0
 27 22  1  0  0  0
 20 21  1  0  0  0
 31 33  1  0  0  0
M  END
> <minimizedAffinity>
-8.10841

> <CNNscore>
0.4903111458

> <CNNaffinity>
7.2599701881

> <CNN_VS>
3.5596442223

> <CNNaffinity_variance>
0.2916688323

$$$$
[H]c1nc(N([H])c2c([H])c([H])c(S(=O)(=O)N([H])C([H])([H])[H])c([H])c2[H])nc2c1N(C([H])([H])[H])C(=O)[C@@]([H])(C([H])([H])C([H])([H])[H])N2C1([H])C([H])([H])C([H])([H])C([H])([H])C1([H])[H]


 33 36  0  0  0  0  0  0  0  0999 V2000
   56.3210   -3.9919  -13.1699 C   0  0  0  0  0  0  0  0  0  0  0  0
   57.0687   -4.0416  -11.9368 N   0  0  0  0  0  0  0  0  0  0  0  0
   58.4575   -4.3892  -12.0809 C   0  0  0  0  0  0  0  0  0  0  0  0
   59.1501   -4.9296  -11.0730 N   0  0  0  0  0  0  0  0  0  0  0  0
   60.4742   -5.2796  -11.1562 C   0  0  0  0  0  0  0  0  0  0  0  0
   61.1030   -5.0716  -12.2970 N   0  0  0  0  0  0  0  0  0  0  0  0
   60.4548   -4.5311  -13.3428 C   0  0  0  0  0  0  0  0  0  0  0  0
   59.1233   -4.1748  -13.2720 C   0  0  0  0  0  0  0  0  0  0  0  0
   58.4585   -3.6062  -14.3855 N   0  0  0  0  0  0  0  0  0  0  0  0
   59.1291   -3.3678  -15.6504 C   0  0  0  0  0  0  0  0  0  0  0  0
   57.0853   -3.2616  -14.2440 C   0  0  0  0  0  0  0  0  0  0  0  0
   56.5423   -2.3947  -14.9766 O   0  0  0  0  0  0  0  0  0  0  0  0
   56.5749   -3.7862  -10.6386 C   0  0  0  0  0  0  0  0  0  0  0  0
   55.1012   -3.3929  -10.6567 C   0  0  0  0  0  0  0  0  0  0  0  0
   54.4545   -4.5395   -9.9157 C   0  0  0  0  0  0  0  0  0  0  0  0
   55.4715   -4.7589   -8.7867 C   0  0  0  0  0  0  0  0  0  0  0  0
   56.7360   -4.8970   -9.6492 C   0  0  0  0  0  0  0  0  0  0  0  0
   55.9408   -5.2937  -15.1873 C   0  0  0  0  0  0  0  0  0  0  0  0
   56.1884   -5.4170  -13.6861 C   0  0  0  0  0  0  0  0  0  0  0  0
   61.0656   -5.8519  -10.0435 N   0  0  0  0  0  0  0  0  0  0  0  0
   60.9409   -5.3589   -9.0960 H   0  0  0  0  0  0  0  0  0  0  0  0
   61.8363   -7.0278   -9.9902 C   0  0  0  0  0  0  0  0  0  0  0  0
   61.3704   -8.1767  -10.6635 C   0  0  0  0  0  0  0  0  0  0  0  0
   62.0717   -9.3400  -10.6177 C   0  0  0  0  0  0  0  0  0  0  0  0
   63.2634   -9.4779   -9.9247 C   0  0  0  0  0  0  0  0  0  0  0  0
   63.7179   -8.3622   -9.2691 C   0  0  0  0  0  0  0  0  0  0  0  0
   63.0144   -7.1609   -9.3031 C   0  0  0  0  0  0  0  0  0  0  0  0
   64.1542  -10.9798   -9.8753 S   0  0  0  0  0  0  0  0  0  0  0  0
   65.5212  -10.7674   -9.2939 O   0  0  0  0  0  0  0  0  0  0  0  0
   64.3277  -11.4595  -11.2939 O   0  0  0  0  0  0  0  0  0  0  0  0
   63.3192  -12.1792   -8.9610 N   0  0  0  0  0  0  0  0  0  0  0  0
   64.1524  -13.3321   -8.7860 C   0  0  0  0  0  0  0  0  0  0  0  0
   62.4441  -12.4409   -9.4673 H   0  0  0  0  0  0  0  0  0  0  0  0
 18 19  1  0  0  0
 19  1  1  0  0  0
  1  2  1  0  0  0
  2 13  1  0  0  0
 13 14  1  0  0  0
 14 15  1  0  0  0
 15 16  1  0  0  0
 16 17  1  0  0  0
  2  3  1  0  0  0
  3  4  2  0  0  0
  4  5  1  0  0  0
  5 20  1  0  0  0
 20 22  1  0  0  0
 22 23  2  0  0  0
 23 24  1  0  0  0
 24 25  2  0  0  0
 25 26  1  0  0  0
 26 27  2  0  0  0
 25 28  1  0  0  0
 28 29  2  0  0  0
 28 30  2  0  0  0
 28 31  1  0  0  0
 31 32  1  0  0  0
  5  6  2  0  0  0
  6  7  1  0  0  0
  7  8  2  0  0  0
  8  9  1  0  0  0
  9 10  1  0  0  0
  9 11  1  0  0  0
 11 12  2  0  0  0
 11  1  1  0  0  0
 17 13  1  0  0  0
  8  3  1  0  0  0
 27 22  1  0  0  0
 20 21  1  0  0  0
 31 33  1  0  0  0
M  END
> <minimizedAffinity>
0.05763

> <CNNscore>
0.4315598309

> <CNNaffinity>
5.6895289421

> <CNN_VS>
2.4553720951

> <CNNaffinity_variance>
0.3275242448

$$$$
[H]c1nc(N([H])c2c([H])c([H])c(S(=O)(=O)N([H])C([H])([H])[H])c([H])c2[H])nc2c1N(C([H])([H])[H])C(=O)[C@@]([H])(C([H])([H])C([H])([H])[H])N2C1([H])C([H])([H])C([H])([H])C([H])([H])C1([H])[H]


 33 36  0  0  0  0  0  0  0  0999 V2000
   56.6097   -4.4467  -13.4630 C   0  0  0  0  0  0  0  0  0  0  0  0
   57.8511   -4.2196  -12.7634 N   0  0  0  0  0  0  0  0  0  0  0  0
   58.9604   -3.8431  -13.5990 C   0  0  0  0  0  0  0  0  0  0  0  0
   60.2245   -4.0545  -13.2182 N   0  0  0  0  0  0  0  0  0  0  0  0
   61.3178   -3.7157  -13.9748 C   0  0  0  0  0  0  0  0  0  0  0  0
   61.1120   -3.1477  -15.1474 N   0  0  0  0  0  0  0  0  0  0  0  0
   59.8615   -2.9120  -15.5795 C   0  0  0  0  0  0  0  0  0  0  0  0
   58.7536   -3.2479  -14.8282 C   0  0  0  0  0  0  0  0  0  0  0  0
   57.4439   -2.9908  -15.3014 N   0  0  0  0  0  0  0  0  0  0  0  0
   57.1927   -2.3671  -16.5877 C   0  0  0  0  0  0  0  0  0  0  0  0
   56.3463   -3.3623  -14.4759 C   0  0  0  0  0  0  0  0  0  0  0  0
   55.2195   -2.8137  -14.5877 O   0  0  0  0  0  0  0  0  0  0  0  0
   58.0692   -4.3294  -11.3724 C   0  0  0  0  0  0  0  0  0  0  0  0
   57.9930   -2.9749  -10.6750 C   0  0  0  0  0  0  0  0  0  0  0  0
   56.7817   -3.1392   -9.7876 C   0  0  0  0  0  0  0  0  0  0  0  0
   56.9917   -4.5733   -9.2813 C   0  0  0  0  0  0  0  0  0  0  0  0
   57.1611   -5.2677  -10.6419 C   0  0  0  0  0  0  0  0  0  0  0  0
   55.4856   -5.8495  -15.0994 C   0  0  0  0  0  0  0  0  0  0  0  0
   56.7697   -5.7172  -14.2847 C   0  0  0  0  0  0  0  0  0  0  0  0
   62.5726   -4.0114  -13.4714 N   0  0  0  0  0  0  0  0  0  0  0  0
   63.2899   -3.2132  -13.4031 H   0  0  0  0  0  0  0  0  0  0  0  0
   63.0476   -5.2596  -13.0287 C   0  0  0  0  0  0  0  0  0  0  0  0
   64.4391   -5.4476  -12.8924 C   0  0  0  0  0  0  0  0  0  0  0  0
   64.9415   -6.6449  -12.4909 C   0  0  0  0  0  0  0  0  0  0  0  0
   64.1443   -7.7384  -12.1941 C   0  0  0  0  0  0  0  0  0  0  0  0
   62.7912   -7.5579  -12.3263 C   0  0  0  0  0  0  0  0  0  0  0  0
   62.2561   -6.3394  -12.7367 C   0  0  0  0  0  0  0  0  0  0  0  0
   64.8046   -9.2714  -11.6786 S   0  0  0  0  0  0  0  0  0  0  0  0
   65.7528   -9.8139  -12.7072 O   0  0  0  0  0  0  0  0  0  0  0  0
   63.6611  -10.2452  -11.5487 O   0  0  0  0  0  0  0  0  0  0  0  0
   65.6158   -9.1320  -10.1639 N   0  0  0  0  0  0  0  0  0  0  0  0
   65.5447  -10.3739   -9.4523 C   0  0  0  0  0  0  0  0  0  0  0  0
   65.1640   -8.3721   -9.6078 H   0  0  0  0  0  0  0  0  0  0  0  0
 18 19  1  0  0  0
 19  1  1  0  0  0
  1  2  1  0  0  0
  2 13  1  0  0  0
 13 14  1  0  0  0
 14 15  1  0  0  0
 15 16  1  0  0  0
 16 17  1  0  0  0
  2  3  1  0  0  0
  3  4  2  0  0  0
  4  5  1  0  0  0
  5 20  1  0  0  0
 20 22  1  0  0  0
 22 23  2  0  0  0
 23 24  1  0  0  0
 24 25  2  0  0  0
 25 26  1  0  0  0
 26 27  2  0  0  0
 25 28  1  0  0  0
 28 29  2  0  0  0
 28 30  2  0  0  0
 28 31  1  0  0  0
 31 32  1  0  0  0
  5  6  2  0  0  0
  6  7  1  0  0  0
  7  8  2  0  0  0
  8  9  1  0  0  0
  9 10  1  0  0  0
  9 11  1  0  0  0
 11 12  2  0  0  0
 11  1  1  0  0  0
 17 13  1  0  0  0
  8  3  1  0  0  0
 27 22  1  0  0  0
 20 21  1  0  0  0
 31 33  1  0  0  0
M  END
> <minimizedAffinity>
3.05269

> <CNNscore>
0.3759188056

> <CNNaffinity>
5.5469641685

> <CNN_VS>
2.0852081776

> <CNNaffinity_variance>
0.6221610904

$$$$
[H]c1nc(N([H])c2c([H])c([H])c(S(=O)(=O)N([H])C([H])([H])[H])c([H])c2[H])nc2c1N(C([H])([H])[H])C(=O)[C@@]([H])(C([H])([H])C([H])([H])[H])N2C1([H])C([H])([H])C([H])([H])C([H])([H])C1([H])[H]


 33 36  0  0  0  0  0  0  0  0999 V2000
   63.6877   -9.3903   -9.7425 C   0  0  0  0  0  0  0  0  0  0  0  0
   63.7207   -8.1451  -10.4709 N   0  0  0  0  0  0  0  0  0  0  0  0
   64.1442   -8.2531  -11.8418 C   0  0  0  0  0  0  0  0  0  0  0  0
   64.6739   -7.2123  -12.4928 N   0  0  0  0  0  0  0  0  0  0  0  0
   65.0938   -7.2603  -13.7982 C   0  0  0  0  0  0  0  0  0  0  0  0
   64.9684   -8.3994  -14.4514 N   0  0  0  0  0  0  0  0  0  0  0  0
   64.4425   -9.4774  -13.8452 C   0  0  0  0  0  0  0  0  0  0  0  0
   64.0165   -9.4422  -12.5329 C   0  0  0  0  0  0  0  0  0  0  0  0
   63.4646  -10.5892  -11.9124 N   0  0  0  0  0  0  0  0  0  0  0  0
   63.3166  -11.8530  -12.6106 C   0  0  0  0  0  0  0  0  0  0  0  0
   63.0451  -10.4835  -10.5570 C   0  0  0  0  0  0  0  0  0  0  0  0
   62.1850  -11.2611  -10.0685 O   0  0  0  0  0  0  0  0  0  0  0  0
   63.3836   -6.8668   -9.9742 C   0  0  0  0  0  0  0  0  0  0  0  0
   62.0900   -6.8923   -9.1663 C   0  0  0  0  0  0  0  0  0  0  0  0
   62.5705   -6.5308   -7.7805 C   0  0  0  0  0  0  0  0  0  0  0  0
   63.5842   -5.4258   -8.1097 C   0  0  0  0  0  0  0  0  0  0  0  0
   64.4275   -6.1957   -9.1384 C   0  0  0  0  0  0  0  0  0  0  0  0
   65.1557  -10.5466   -8.1879 C   0  0  0  0  0  0  0  0  0  0  0  0
   65.1256   -9.8460   -9.5438 C   0  0  0  0  0  0  0  0  0  0  0  0
   65.6457   -6.1150  -14.3451 N   0  0  0  0  0  0  0  0  0  0  0  0
   66.5057   -6.2235  -14.9815 H   0  0  0  0  0  0  0  0  0  0  0  0
   65.2178   -4.7865  -14.1673 C   0  0  0  0  0  0  0  0  0  0  0  0
   65.7540   -4.0371  -13.0990 C   0  0  0  0  0  0  0  0  0  0  0  0
   65.3503   -2.7586  -12.8769 C   0  0  0  0  0  0  0  0  0  0  0  0
   64.4078   -2.1157  -13.6629 C   0  0  0  0  0  0  0  0  0  0  0  0
   63.8849   -2.8425  -14.7017 C   0  0  0  0  0  0  0  0  0  0  0  0
   64.2847   -4.1539  -14.9463 C   0  0  0  0  0  0  0  0  0  0  0  0
   63.8990   -0.4712  -13.3653 S   0  0  0  0  0  0  0  0  0  0  0  0
   64.6051    0.0947  -12.1683 O   0  0  0  0  0  0  0  0  0  0  0  0
   62.4229   -0.4937  -13.0599 O   0  0  0  0  0  0  0  0  0  0  0  0
   64.1875    0.5363  -14.7340 N   0  0  0  0  0  0  0  0  0  0  0  0
   65.3554    1.3381  -14.5166 C   0  0  0  0  0  0  0  0  0  0  0  0
   63.3542    1.1476  -14.8848 H   0  0  0  0  0  0  0  0  0  0  0  0
 18 19  1  0  0  0
 19  1  1  0  0  0
  1  2  1  0  0  0
  2 13  1  0  0  0
 13 14  1  0  0  0
 14 15  1  0  0  0
 15 16  1  0  0  0
 16 17  1  0  0  0
  2  3  1  0  0  0
  3  4  2  0  0  0
  4  5  1  0  0  0
  5 20  1  0  0  0
 20 22  1  0  0  0
 22 23  2  0  0  0
 23 24  1  0  0  0
 24 25  2  0  0  0
 25 26  1  0  0  0
 26 27  2  0  0  0
 25 28  1  0  0  0
 28 29  2  0  0  0
 28 30  2  0  0  0
 28 31  1  0  0  0
 31 32  1  0  0  0
  5  6  2  0  0  0
  6  7  1  0  0  0
  7  8  2  0  0  0
  8  9  1  0  0  0
  9 10  1  0  0  0
  9 11  1  0  0  0
 11 12  2  0  0  0
 11  1  1  0  0  0
 17 13  1  0  0  0
  8  3  1  0  0  0
 27 22  1  0  0  0
 20 21  1  0  0  0
 31 33  1  0  0  0
M  END
> <minimizedAffinity>
-2.99159

> <CNNscore>
0.3347316086

> <CNNaffinity>
5.1555051804

> <CNN_VS>
1.7257105112

> <CNNaffinity_variance>
0.1449576169

$$$$
[H]c1nc(N([H])c2c([H])c([H])c(S(=O)(=O)N([H])C([H])([H])[H])c([H])c2[H])nc2c1N(C([H])([H])[H])C(=O)[C@@]([H])(C([H])([H])C([H])([H])[H])N2C1([H])C([H])([H])C([H])([H])C([H])([H])C1([H])[H]


 33 36  0  0  0  0  0  0  0  0999 V2000
   55.8084   -3.9749  -13.9230 C   0  0  0  0  0  0  0  0  0  0  0  0
   55.6696   -3.9054  -12.4884 N   0  0  0  0  0  0  0  0  0  0  0  0
   56.8406   -4.2872  -11.7446 C   0  0  0  0  0  0  0  0  0  0  0  0
   56.7546   -4.7285  -10.4854 N   0  0  0  0  0  0  0  0  0  0  0  0
   57.8374   -5.1053   -9.7317 C   0  0  0  0  0  0  0  0  0  0  0  0
   59.0349   -5.0285  -10.2795 N   0  0  0  0  0  0  0  0  0  0  0  0
   59.1790   -4.5917  -11.5422 C   0  0  0  0  0  0  0  0  0  0  0  0
   58.0981   -4.2098  -12.3108 C   0  0  0  0  0  0  0  0  0  0  0  0
   58.2712   -3.7520  -13.6396 N   0  0  0  0  0  0  0  0  0  0  0  0
   59.5783   -3.6588  -14.2636 C   0  0  0  0  0  0  0  0  0  0  0  0
   57.1141   -3.3737  -14.3759 C   0  0  0  0  0  0  0  0  0  0  0  0
   57.1806   -2.5809  -15.3507 O   0  0  0  0  0  0  0  0  0  0  0  0
   54.5214   -3.5068  -11.7692 C   0  0  0  0  0  0  0  0  0  0  0  0
   53.6440   -4.6962  -11.3919 C   0  0  0  0  0  0  0  0  0  0  0  0
   53.7295   -4.6917   -9.8837 C   0  0  0  0  0  0  0  0  0  0  0  0
   53.6409   -3.1859   -9.5978 C   0  0  0  0  0  0  0  0  0  0  0  0
   54.7734   -2.7158  -10.5244 C   0  0  0  0  0  0  0  0  0  0  0  0
   55.8609   -6.2197  -12.9919 C   0  0  0  0  0  0  0  0  0  0  0  0
   55.9019   -5.4443  -14.3061 C   0  0  0  0  0  0  0  0  0  0  0  0
   57.6057   -5.5658   -8.4472 N   0  0  0  0  0  0  0  0  0  0  0  0
   58.4263   -6.0142   -7.9162 H   0  0  0  0  0  0  0  0  0  0  0  0
   56.3982   -5.5268   -7.7261 C   0  0  0  0  0  0  0  0  0  0  0  0
   55.7307   -6.7392   -7.4525 C   0  0  0  0  0  0  0  0  0  0  0  0
   54.5498   -6.7447   -6.7799 C   0  0  0  0  0  0  0  0  0  0  0  0
   53.9324   -5.5903   -6.3263 C   0  0  0  0  0  0  0  0  0  0  0  0
   54.5794   -4.4105   -6.5916 C   0  0  0  0  0  0  0  0  0  0  0  0
   55.7900   -4.3830   -7.2795 C   0  0  0  0  0  0  0  0  0  0  0  0
   52.4141   -5.6130   -5.4624 S   0  0  0  0  0  0  0  0  0  0  0  0
   51.8897   -4.2198   -5.2740 O   0  0  0  0  0  0  0  0  0  0  0  0
   52.6702   -6.1963   -4.0961 O   0  0  0  0  0  0  0  0  0  0  0  0
   51.2353   -6.5664   -6.2828 N   0  0  0  0  0  0  0  0  0  0  0  0
   50.1685   -5.7322   -6.7518 C   0  0  0  0  0  0  0  0  0  0  0  0
   50.8656   -7.2869   -5.6233 H   0  0  0  0  0  0  0  0  0  0  0  0
 18 19  1  0  0  0
 19  1  1  0  0  0
  1  2  1  0  0  0
  2 13  1  0  0  0
 13 14  1  0  0  0
 14 15  1  0  0  0
 15 16  1  0  0  0
 16 17  1  0  0  0
  2  3  1  0  0  0
  3  4  2  0  0  0
  4  5  1  0  0  0
  5 20  1  0  0  0
 20 22  1  0  0  0
 22 23  2  0  0  0
 23 24  1  0  0  0
 24 25  2  0  0  0
 25 26  1  0  0  0
 26 27  2  0  0  0
 25 28  1  0  0  0
 28 29  2  0  0  0
 28 30  2  0  0  0
 28 31  1  0  0  0
 31 32  1  0  0  0
  5  6  2  0  0  0
  6  7  1  0  0  0
  7  8  2  0  0  0
  8  9  1  0  0  0
  9 10  1  0  0  0
  9 11  1  0  0  0
 11 12  2  0  0  0
 11  1  1  0  0  0
 17 13  1  0  0  0
  8  3  1  0  0  0
 27 22  1  0  0  0
 20 21  1  0  0  0
 31 33  1  0  0  0
M  END
> <minimizedAffinity>
4.96287

> <CNNscore>
0.3302212656

> <CNNaffinity>
6.0563554764

> <CNN_VS>
1.9999374151

> <CNNaffinity_variance>
0.2428868115

$$$$
[H]c1nn(C([H])([H])[H])c([H])c1-c1c([H])c([H])c2c(nc([H])n2-c2sc(C(=O)N([H])[H])c(O[C@@]([H])(c3c([H])c([H])c([H])c([H])c3C(F)(F)F)C([H])([H])[H])c2[H])c1[H]


 38 42  0  0  0  0  0  0  0  0999 V2000
   51.8812   -5.1408   -4.2800 C   0  0  0  0  0  0  0  0  0  0  0  0
   52.5688   -4.8290   -5.3913 C   0  0  0  0  0  0  0  0  0  0  0  0
   51.8590   -4.2701   -6.4332 C   0  0  0  0  0  0  0  0  0  0  0  0
   50.2714   -4.2071   -5.8122 S   0  0  0  0  0  0  0  0  0  0  0  0
   50.5407   -4.8784   -4.2757 C   0  0  0  0  0  0  0  0  0  0  0  0
   52.3753   -3.8658   -7.7076 N   0  0  0  0  0  0  0  0  0  0  0  0
   51.7296   -3.1468   -8.6375 C   0  0  0  0  0  0  0  0  0  0  0  0
   52.5342   -2.9582   -9.7020 N   0  0  0  0  0  0  0  0  0  0  0  0
   53.7121   -3.5634   -9.4534 C   0  0  0  0  0  0  0  0  0  0  0  0
   54.8821   -3.6923  -10.1703 C   0  0  0  0  0  0  0  0  0  0  0  0
   55.9795   -4.3673   -9.7069 C   0  0  0  0  0  0  0  0  0  0  0  0
   55.8777   -4.9356   -8.4576 C   0  0  0  0  0  0  0  0  0  0  0  0
   54.7037   -4.8171   -7.7164 C   0  0  0  0  0  0  0  0  0  0  0  0
   53.5914   -4.1359   -8.1787 C   0  0  0  0  0  0  0  0  0  0  0  0
   57.1994   -4.4763  -10.4986 C   0  0  0  0  0  0  0  0  0  0  0  0
   58.2935   -5.3000  -10.2617 C   0  0  0  0  0  0  0  0  0  0  0  0
   59.1763   -5.0641  -11.2434 N   0  0  0  0  0  0  0  0  0  0  0  0
   58.7239   -4.1558  -12.0810 N   0  0  0  0  0  0  0  0  0  0  0  0
   59.4713   -3.6984  -13.2478 C   0  0  0  0  0  0  0  0  0  0  0  0
   57.5279   -3.7856  -11.6494 C   0  0  0  0  0  0  0  0  0  0  0  0
   49.5686   -5.1265   -3.1866 C   0  0  0  0  0  0  0  0  0  0  0  0
   49.9988   -5.9536   -2.1262 N   0  0  0  0  0  0  0  0  0  0  0  0
   48.4195   -4.6420   -3.1806 O   0  0  0  0  0  0  0  0  0  0  0  0
   50.0388   -5.6032   -1.1528 H   0  0  0  0  0  0  0  0  0  0  0  0
   50.2817   -6.9310   -2.3160 H   0  0  0  0  0  0  0  0  0  0  0  0
   52.4828   -5.7212   -3.1329 O   0  0  0  0  0  0  0  0  0  0  0  0
   52.8970   -8.0153   -2.6144 C   0  0  0  0  0  0  0  0  0  0  0  0
   53.5108   -6.6968   -3.2171 C   0  0  0  0  0  0  0  0  0  0  0  0
   54.6464   -6.2900   -2.3906 C   0  0  0  0  0  0  0  0  0  0  0  0
   54.4214   -6.1299   -1.0226 C   0  0  0  0  0  0  0  0  0  0  0  0
   55.4382   -5.7512   -0.1738 C   0  0  0  0  0  0  0  0  0  0  0  0
   56.7154   -5.5150   -0.6350 C   0  0  0  0  0  0  0  0  0  0  0  0
   56.9228   -5.6760   -1.9832 C   0  0  0  0  0  0  0  0  0  0  0  0
   55.9005   -6.0626   -2.8748 C   0  0  0  0  0  0  0  0  0  0  0  0
   56.1925   -6.2036   -4.3080 C   0  0  0  0  0  0  0  0  0  0  0  0
   55.4612   -7.3364   -4.7521 F   0  0  0  0  0  0  0  0  0  0  0  0
   55.7609   -5.1612   -5.0908 F   0  0  0  0  0  0  0  0  0  0  0  0
   57.5026   -6.5868   -4.5737 F   0  0  0  0  0  0  0  0  0  0  0  0
 27 28  1  0  0  0
 28 26  1  0  0  0
 26  1  1  0  0  0
  1  2  1  0  0  0
  2  3  2  0  0  0
  3  4  1  0  0  0
  4  5  1  0  0  0
  5 21  1  0  0  0
 21 22  1  0  0  0
 21 23  2  0  0  0
  3  6  1  0  0  0
  6  7  1  0  0  0
  7  8  2  0  0  0
  8  9  1  0  0  0
  9 10  2  0  0  0
 10 11  1  0  0  0
 11 12  2  0  0  0
 12 13  1  0  0  0
 13 14  2  0  0  0
 11 15  1  0  0  0
 15 16  1  0  0  0
 16 17  2  0  0  0
 17 18  1  0  0  0
 18 19  1  0  0  0
 18 20  1  0  0  0
 28 29  1  0  0  0
 29 30  2  0  0  0
 30 31  1  0  0  0
 31 32  2  0  0  0
 32 33  1  0  0  0
 33 34  2  0  0  0
 34 35  1  0  0  0
 35 36  1  0  0  0
 35 37  1  0  0  0
 35 38  1  0  0  0
  5  1  2  0  0  0
 14  6  1  0  0  0
 20 15  2  0  0  0
 34 29  1  0  0  0
 14  9  1  0  0  0
 22 24  1  0  0  0
 22 25  1  0  0  0
M  END
> <minimizedAffinity>
-8.71164

> <CNNscore>
0.6391278505

> <CNNaffinity>
7.9178171158

> <CNN_VS>
5.0604972839

> <CNNaffinity_variance>
0.2353963554

$$$$
[H]c1nn(C([H])([H])[H])c([H])c1-c1c([H])c([H])c2c(nc([H])n2-c2sc(C(=O)N([H])[H])c(O[C@@]([H])(c3c([H])c([H])c([H])c([H])c3C(F)(F)F)C([H])([H])[H])c2[H])c1[H]


 38 42  0  0  0  0  0  0  0  0999 V2000
   52.8028   -4.0459   -7.5216 C   0  0  0  0  0  0  0  0  0  0  0  0
   53.9587   -4.4445   -8.0784 C   0  0  0  0  0  0  0  0  0  0  0  0
   54.2908   -3.8947   -9.2986 C   0  0  0  0  0  0  0  0  0  0  0  0
   52.9773   -2.8511   -9.6079 S   0  0  0  0  0  0  0  0  0  0  0  0
   52.0561   -3.1318   -8.2092 C   0  0  0  0  0  0  0  0  0  0  0  0
   55.4612   -4.1717  -10.0780 N   0  0  0  0  0  0  0  0  0  0  0  0
   55.6121   -3.9581  -11.3933 C   0  0  0  0  0  0  0  0  0  0  0  0
   56.8483   -4.3363  -11.7737 N   0  0  0  0  0  0  0  0  0  0  0  0
   57.5007   -4.7989  -10.6893 C   0  0  0  0  0  0  0  0  0  0  0  0
   58.7667   -5.3050  -10.4884 C   0  0  0  0  0  0  0  0  0  0  0  0
   59.2266   -5.7227   -9.2683 C   0  0  0  0  0  0  0  0  0  0  0  0
   58.3560   -5.6193   -8.2074 C   0  0  0  0  0  0  0  0  0  0  0  0
   57.0715   -5.1104   -8.3892 C   0  0  0  0  0  0  0  0  0  0  0  0
   56.6009   -4.6862   -9.6193 C   0  0  0  0  0  0  0  0  0  0  0  0
   60.5762   -6.2494   -9.1004 C   0  0  0  0  0  0  0  0  0  0  0  0
   61.1578   -6.7363   -7.9358 C   0  0  0  0  0  0  0  0  0  0  0  0
   62.4062   -7.1100   -8.2528 N   0  0  0  0  0  0  0  0  0  0  0  0
   62.6570   -6.8967   -9.5267 N   0  0  0  0  0  0  0  0  0  0  0  0
   63.9370   -7.2077  -10.1547 C   0  0  0  0  0  0  0  0  0  0  0  0
   61.5625   -6.3757  -10.0599 C   0  0  0  0  0  0  0  0  0  0  0  0
   50.7571   -2.5389   -7.8174 C   0  0  0  0  0  0  0  0  0  0  0  0
   49.6520   -3.4153   -7.7504 N   0  0  0  0  0  0  0  0  0  0  0  0
   50.6168   -1.3280   -7.5543 O   0  0  0  0  0  0  0  0  0  0  0  0
   49.1333   -3.5603   -6.8662 H   0  0  0  0  0  0  0  0  0  0  0  0
   49.3472   -3.9272   -8.5967 H   0  0  0  0  0  0  0  0  0  0  0  0
   52.3371   -4.5290   -6.2709 O   0  0  0  0  0  0  0  0  0  0  0  0
   51.1947   -6.6000   -6.6013 C   0  0  0  0  0  0  0  0  0  0  0  0
   52.4163   -5.8972   -5.8998 C   0  0  0  0  0  0  0  0  0  0  0  0
   52.2606   -6.0257   -4.4516 C   0  0  0  0  0  0  0  0  0  0  0  0
   53.3004   -6.6309   -3.7443 C   0  0  0  0  0  0  0  0  0  0  0  0
   53.2339   -6.7885   -2.3773 C   0  0  0  0  0  0  0  0  0  0  0  0
   52.1441   -6.3579   -1.6517 C   0  0  0  0  0  0  0  0  0  0  0  0
   51.1281   -5.7643   -2.3602 C   0  0  0  0  0  0  0  0  0  0  0  0
   51.1697   -5.5904   -3.7594 C   0  0  0  0  0  0  0  0  0  0  0  0
   50.0397   -4.9572   -4.4531 C   0  0  0  0  0  0  0  0  0  0  0  0
   48.9899   -4.8681   -3.5016 F   0  0  0  0  0  0  0  0  0  0  0  0
   50.2658   -3.6679   -4.8684 F   0  0  0  0  0  0  0  0  0  0  0  0
   49.4688   -5.7602   -5.4345 F   0  0  0  0  0  0  0  0  0  0  0  0
 27 28  1  0  0  0
 28 26  1  0  0  0
 26  1  1  0  0  0
  1  2  1  0  0  0
  2  3  2  0  0  0
  3  4  1  0  0  0
  4  5  1  0  0  0
  5 21  1  0  0  0
 21 22  1  0  0  0
 21 23  2  0  0  0
  3  6  1  0  0  0
  6  7  1  0  0  0
  7  8  2  0  0  0
  8  9  1  0  0  0
  9 10  2  0  0  0
 10 11  1  0  0  0
 11 12  2  0  0  0
 12 13  1  0  0  0
 13 14  2  0  0  0
 11 15  1  0  0  0
 15 16  1  0  0  0
 16 17  2  0  0  0
 17 18  1  0  0  0
 18 19  1  0  0  0
 18 20  1  0  0  0
 28 29  1  0  0  0
 29 30  2  0  0  0
 30 31  1  0  0  0
 31 32  2  0  0  0
 32 33  1  0  0  0
 33 34  2  0  0  0
 34 35  1  0  0  0
 35 36  1  0  0  0
 35 37  1  0  0  0
 35 38  1  0  0  0
  5  1  2  0  0  0
 14  6  1  0  0  0
 20 15  2  0  0  0
 34 29  1  0  0  0
 14  9  1  0  0  0
 22 24  1  0  0  0
 22 25  1  0  0  0
M  END
> <minimizedAffinity>
-9.60519

> <CNNscore>
0.5645954609

> <CNNaffinity>
7.5634374619

> <CNN_VS>
4.2702822685

> <CNNaffinity_variance>
0.2142730057

$$$$
[H]c1nn(C([H])([H])[H])c([H])c1-c1c([H])c([H])c2c(nc([H])n2-c2sc(C(=O)N([H])[H])c(O[C@@]([H])(c3c([H])c([H])c([H])c([H])c3C(F)(F)F)C([H])([H])[H])c2[H])c1[H]


 38 42  0  0  0  0  0  0  0  0999 V2000
   52.7457   -4.0608   -7.5415 C   0  0  0  0  0  0  0  0  0  0  0  0
   53.8932   -4.4760   -8.1035 C   0  0  0  0  0  0  0  0  0  0  0  0
   54.2543   -3.8921   -9.2995 C   0  0  0  0  0  0  0  0  0  0  0  0
   52.9782   -2.7953   -9.5799 S   0  0  0  0  0  0  0  0  0  0  0  0
   52.0354   -3.0978   -8.2003 C   0  0  0  0  0  0  0  0  0  0  0  0
   55.4224   -4.1781  -10.0792 N   0  0  0  0  0  0  0  0  0  0  0  0
   55.5707   -3.9755  -11.3966 C   0  0  0  0  0  0  0  0  0  0  0  0
   56.8053   -4.3594  -11.7767 N   0  0  0  0  0  0  0  0  0  0  0  0
   57.4591   -4.8145  -10.6900 C   0  0  0  0  0  0  0  0  0  0  0  0
   58.7245   -5.3218  -10.4878 C   0  0  0  0  0  0  0  0  0  0  0  0
   59.1863   -5.7305   -9.2654 C   0  0  0  0  0  0  0  0  0  0  0  0
   58.3183   -5.6166   -8.2034 C   0  0  0  0  0  0  0  0  0  0  0  0
   57.0345   -5.1064   -8.3864 C   0  0  0  0  0  0  0  0  0  0  0  0
   56.5620   -4.6913   -9.6189 C   0  0  0  0  0  0  0  0  0  0  0  0
   60.5351   -6.2586   -9.0962 C   0  0  0  0  0  0  0  0  0  0  0  0
   61.5296   -6.3697  -10.0607 C   0  0  0  0  0  0  0  0  0  0  0  0
   62.5979   -6.9095   -9.4558 N   0  0  0  0  0  0  0  0  0  0  0  0
   62.3545   -7.1474   -8.1848 N   0  0  0  0  0  0  0  0  0  0  0  0
   63.3351   -7.7333   -7.2768 C   0  0  0  0  0  0  0  0  0  0  0  0
   61.1108   -6.7610   -7.9449 C   0  0  0  0  0  0  0  0  0  0  0  0
   50.7527   -2.4777   -7.7970 C   0  0  0  0  0  0  0  0  0  0  0  0
   49.6872   -3.3555   -7.5004 N   0  0  0  0  0  0  0  0  0  0  0  0
   50.5928   -1.2437   -7.7152 O   0  0  0  0  0  0  0  0  0  0  0  0
   49.2466   -3.3695   -6.5636 H   0  0  0  0  0  0  0  0  0  0  0  0
   49.3329   -4.0013   -8.2275 H   0  0  0  0  0  0  0  0  0  0  0  0
   52.2530   -4.5748   -6.3137 O   0  0  0  0  0  0  0  0  0  0  0  0
   50.8957   -6.5341   -6.4635 C   0  0  0  0  0  0  0  0  0  0  0  0
   52.2835   -5.9578   -5.9941 C   0  0  0  0  0  0  0  0  0  0  0  0
   52.3941   -6.1276   -4.5460 C   0  0  0  0  0  0  0  0  0  0  0  0
   51.2156   -6.0734   -3.8003 C   0  0  0  0  0  0  0  0  0  0  0  0
   51.2321   -6.2264   -2.4313 C   0  0  0  0  0  0  0  0  0  0  0  0
   52.4061   -6.4386   -1.7412 C   0  0  0  0  0  0  0  0  0  0  0  0
   53.5584   -6.4895   -2.4872 C   0  0  0  0  0  0  0  0  0  0  0  0
   53.5706   -6.3360   -3.8893 C   0  0  0  0  0  0  0  0  0  0  0  0
   54.8436   -6.3899   -4.6213 C   0  0  0  0  0  0  0  0  0  0  0  0
   55.8474   -6.6517   -3.6523 F   0  0  0  0  0  0  0  0  0  0  0  0
   54.9425   -7.4112   -5.5339 F   0  0  0  0  0  0  0  0  0  0  0  0
   55.2475   -5.1587   -5.1261 F   0  0  0  0  0  0  0  0  0  0  0  0
 27 28  1  0  0  0
 28 26  1  0  0  0
 26  1  1  0  0  0
  1  2  1  0  0  0
  2  3  2  0  0  0
  3  4  1  0  0  0
  4  5  1  0  0  0
  5 21  1  0  0  0
 21 22  1  0  0  0
 21 23  2  0  0  0
  3  6  1  0  0  0
  6  7  1  0  0  0
  7  8  2  0  0  0
  8  9  1  0  0  0
  9 10  2  0  0  0
 10 11  1  0  0  0
 11 12  2  0  0  0
 12 13  1  0  0  0
 13 14  2  0  0  0
 11 15  1  0  0  0
 15 16  1  0  0  0
 16 17  2  0  0  0
 17 18  1  0  0  0
 18 19  1  0  0  0
 18 20  1  0  0  0
 28 29  1  0  0  0
 29 30  2  0  0  0
 30 31  1  0  0  0
 31 32  2  0  0  0
 32 33  1  0  0  0
 33 34  2  0  0  0
 34 35  1  0  0  0
 35 36  1  0  0  0
 35 37  1  0  0  0
 35 38  1  0  0  0
  5  1  2  0  0  0
 14  6  1  0  0  0
 20 15  2  0  0  0
 34 29  1  0  0  0
 14  9  1  0  0  0
 22 24  1  0  0  0
 22 25  1  0  0  0
M  END
> <minimizedAffinity>
-9.27720

> <CNNscore>
0.5473362803

> <CNNaffinity>
7.6281270981

> <CNN_VS>
4.1751508713

> <CNNaffinity_variance>
0.3165662289

$$$$
[H]c1nn(C([H])([H])[H])c([H])c1-c1c([H])c([H])c2c(nc([H])n2-c2sc(C(=O)N([H])[H])c(O[C@@]([H])(c3c([H])c([H])c([H])c([H])c3C(F)(F)F)C([H])([H])[H])c2[H])c1[H]


 38 42  0  0  0  0  0  0  0  0999 V2000
   51.0686   -4.8685   -5.0098 C   0  0  0  0  0  0  0  0  0  0  0  0
   51.9783   -4.8155   -5.9971 C   0  0  0  0  0  0  0  0  0  0  0  0
   51.7278   -3.9440   -7.0361 C   0  0  0  0  0  0  0  0  0  0  0  0
   50.2392   -3.2434   -6.5851 S   0  0  0  0  0  0  0  0  0  0  0  0
   49.9753   -4.0569   -5.1180 C   0  0  0  0  0  0  0  0  0  0  0  0
   52.5463   -3.7242   -8.1918 N   0  0  0  0  0  0  0  0  0  0  0  0
   52.2031   -3.0404   -9.2933 C   0  0  0  0  0  0  0  0  0  0  0  0
   53.2309   -3.0421  -10.1648 N   0  0  0  0  0  0  0  0  0  0  0  0
   54.2478   -3.7358   -9.6169 C   0  0  0  0  0  0  0  0  0  0  0  0
   55.5184   -4.0540  -10.0457 C   0  0  0  0  0  0  0  0  0  0  0  0
   56.4035   -4.7870   -9.3014 C   0  0  0  0  0  0  0  0  0  0  0  0
   55.9725   -5.2138   -8.0660 C   0  0  0  0  0  0  0  0  0  0  0  0
   54.6916   -4.9030   -7.6137 C   0  0  0  0  0  0  0  0  0  0  0  0
   53.7926   -4.1623   -8.3607 C   0  0  0  0  0  0  0  0  0  0  0  0
   57.7407   -5.0982   -9.7934 C   0  0  0  0  0  0  0  0  0  0  0  0
   58.2770   -4.7977  -11.0398 C   0  0  0  0  0  0  0  0  0  0  0  0
   59.5305   -5.2744  -11.0478 N   0  0  0  0  0  0  0  0  0  0  0  0
   59.8264   -5.8520   -9.9032 N   0  0  0  0  0  0  0  0  0  0  0  0
   61.1227   -6.4613   -9.6243 C   0  0  0  0  0  0  0  0  0  0  0  0
   58.7569   -5.7571   -9.1282 C   0  0  0  0  0  0  0  0  0  0  0  0
   48.8404   -3.9291   -4.1756 C   0  0  0  0  0  0  0  0  0  0  0  0
   48.7299   -4.9191   -3.1749 N   0  0  0  0  0  0  0  0  0  0  0  0
   48.0075   -3.0032   -4.2395 O   0  0  0  0  0  0  0  0  0  0  0  0
   48.7690   -4.6745   -2.1696 H   0  0  0  0  0  0  0  0  0  0  0  0
   48.6072   -5.9116   -3.4419 H   0  0  0  0  0  0  0  0  0  0  0  0
   51.1978   -5.7193   -3.8810 O   0  0  0  0  0  0  0  0  0  0  0  0
   53.3239   -6.7745   -4.1451 C   0  0  0  0  0  0  0  0  0  0  0  0
   52.4267   -5.8988   -3.1930 C   0  0  0  0  0  0  0  0  0  0  0  0
   52.1954   -6.6421   -1.9551 C   0  0  0  0  0  0  0  0  0  0  0  0
   51.0663   -7.4604   -1.8979 C   0  0  0  0  0  0  0  0  0  0  0  0
   50.7772   -8.1961   -0.7696 C   0  0  0  0  0  0  0  0  0  0  0  0
   51.5853   -8.1571    0.3462 C   0  0  0  0  0  0  0  0  0  0  0  0
   52.6929   -7.3476    0.2764 C   0  0  0  0  0  0  0  0  0  0  0  0
   53.0127   -6.5837   -0.8654 C   0  0  0  0  0  0  0  0  0  0  0  0
   54.2084   -5.7297   -0.8645 C   0  0  0  0  0  0  0  0  0  0  0  0
   53.7414   -4.3936   -0.9748 F   0  0  0  0  0  0  0  0  0  0  0  0
   54.9426   -5.7647    0.2954 F   0  0  0  0  0  0  0  0  0  0  0  0
   54.9840   -5.8572   -2.0117 F   0  0  0  0  0  0  0  0  0  0  0  0
 27 28  1  0  0  0
 28 26  1  0  0  0
 26  1  1  0  0  0
  1  2  1  0  0  0
  2  3  2  0  0  0
  3  4  1  0  0  0
  4  5  1  0  0  0
  5 21  1  0  0  0
 21 22  1  0  0  0
 21 23  2  0  0  0
  3  6  1  0  0  0
  6  7  1  0  0  0
  7  8  2  0  0  0
  8  9  1  0  0  0
  9 10  2  0  0  0
 10 11  1  0  0  0
 11 12  2  0  0  0
 12 13  1  0  0  0
 13 14  2  0  0  0
 11 15  1  0  0  0
 15 16  1  0  0  0
 16 17  2  0  0  0
 17 18  1  0  0  0
 18 19  1  0  0  0
 18 20  1  0  0  0
 28 29  1  0  0  0
 29 30  2  0  0  0
 30 31  1  0  0  0
 31 32  2  0  0  0
 32 33  1  0  0  0
 33 34  2  0  0  0
 34 35  1  0  0  0
 35 36  1  0  0  0
 35 37  1  0  0  0
 35 38  1  0  0  0
  5  1  2  0  0  0
 14  6  1  0  0  0
 20 15  2  0  0  0
 34 29  1  0  0  0
 14  9  1  0  0  0
 22 24  1  0  0  0
 22 25  1  0  0  0
M  END
> <minimizedAffinity>
-9.83250

> <CNNscore>
0.5147011876

> <CNNaffinity>
7.6552743912

> <CNN_VS>
3.9401788712

> <CNNaffinity_variance>
0.1992889792

$$$$
[H]c1nn(C([H])([H])[H])c([H])c1-c1c([H])c([H])c2c(nc([H])n2-c2sc(C(=O)N([H])[H])c(O[C@@]([H])(c3c([H])c([H])c([H])c([H])c3C(F)(F)F)C([H])([H])[H])c2[H])c1[H]


 38 42  0  0  0  0  0  0  0  0999 V2000
   53.6328   -4.4119   -7.0860 C   0  0  0  0  0  0  0  0  0  0  0  0
   54.7970   -4.6430   -7.7155 C   0  0  0  0  0  0  0  0  0  0  0  0
   54.8619   -4.3209   -9.0547 C   0  0  0  0  0  0  0  0  0  0  0  0
   53.2992   -3.7130   -9.3688 S   0  0  0  0  0  0  0  0  0  0  0  0
   52.6142   -3.8787   -7.8237 C   0  0  0  0  0  0  0  0  0  0  0  0
   55.9882   -4.4839   -9.9259 N   0  0  0  0  0  0  0  0  0  0  0  0
   56.0372   -4.1790  -11.2310 C   0  0  0  0  0  0  0  0  0  0  0  0
   57.2616   -4.4646  -11.7161 N   0  0  0  0  0  0  0  0  0  0  0  0
   58.0093   -4.9594  -10.7103 C   0  0  0  0  0  0  0  0  0  0  0  0
   59.3098   -5.4080  -10.6272 C   0  0  0  0  0  0  0  0  0  0  0  0
   59.8729   -5.8770   -9.4707 C   0  0  0  0  0  0  0  0  0  0  0  0
   59.0734   -5.8888   -8.3506 C   0  0  0  0  0  0  0  0  0  0  0  0
   57.7557   -5.4397   -8.4131 C   0  0  0  0  0  0  0  0  0  0  0  0
   57.1809   -4.9641   -9.5785 C   0  0  0  0  0  0  0  0  0  0  0  0
   61.2554   -6.3394   -9.4274 C   0  0  0  0  0  0  0  0  0  0  0  0
   62.1063   -6.5708  -10.5016 C   0  0  0  0  0  0  0  0  0  0  0  0
   63.2742   -6.9855   -9.9888 N   0  0  0  0  0  0  0  0  0  0  0  0
   63.2257   -7.0336   -8.6748 N   0  0  0  0  0  0  0  0  0  0  0  0
   64.3522   -7.4499   -7.8459 C   0  0  0  0  0  0  0  0  0  0  0  0
   62.0122   -6.6464   -8.3128 C   0  0  0  0  0  0  0  0  0  0  0  0
   51.2468   -3.5349   -7.3716 C   0  0  0  0  0  0  0  0  0  0  0  0
   50.7978   -2.2240   -7.6429 N   0  0  0  0  0  0  0  0  0  0  0  0
   50.5061   -4.3434   -6.7776 O   0  0  0  0  0  0  0  0  0  0  0  0
   49.9633   -2.0522   -8.2312 H   0  0  0  0  0  0  0  0  0  0  0  0
   51.3066   -1.4125   -7.2505 H   0  0  0  0  0  0  0  0  0  0  0  0
   53.4249   -4.6954   -5.7109 O   0  0  0  0  0  0  0  0  0  0  0  0
   52.5005   -6.4017   -4.3190 C   0  0  0  0  0  0  0  0  0  0  0  0
   53.7725   -5.9404   -5.1236 C   0  0  0  0  0  0  0  0  0  0  0  0
   54.8767   -5.7518   -4.1838 C   0  0  0  0  0  0  0  0  0  0  0  0
   55.3273   -4.4476   -3.9745 C   0  0  0  0  0  0  0  0  0  0  0  0
   56.3613   -4.1832   -3.1034 C   0  0  0  0  0  0  0  0  0  0  0  0
   56.9930   -5.1888   -2.4039 C   0  0  0  0  0  0  0  0  0  0  0  0
   56.5397   -6.4674   -2.6194 C   0  0  0  0  0  0  0  0  0  0  0  0
   55.4836   -6.7667   -3.5052 C   0  0  0  0  0  0  0  0  0  0  0  0
   55.0593   -8.1606   -3.6954 C   0  0  0  0  0  0  0  0  0  0  0  0
   56.1031   -8.9677   -3.1715 F   0  0  0  0  0  0  0  0  0  0  0  0
   53.9334   -8.5222   -2.9973 F   0  0  0  0  0  0  0  0  0  0  0  0
   55.0326   -8.5570   -5.0280 F   0  0  0  0  0  0  0  0  0  0  0  0
 27 28  1  0  0  0
 28 26  1  0  0  0
 26  1  1  0  0  0
  1  2  1  0  0  0
  2  3  2  0  0  0
  3  4  1  0  0  0
  4  5  1  0  0  0
  5 21  1  0  0  0
 21 22  1  0  0  0
 21 23  2  0  0  0
  3  6  1  0  0  0
  6  7  1  0  0  0
  7  8  2  0  0  0
  8  9  1  0  0  0
  9 10  2  0  0  0
 10 11  1  0  0  0
 11 12  2  0  0  0
 12 13  1  0  0  0
 13 14  2  0  0  0
 11 15  1  0  0  0
 15 16  1  0  0  0
 16 17  2  0  0  0
 17 18  1  0  0  0
 18 19  1  0  0  0
 18 20  1  0  0  0
 28 29  1  0  0  0
 29 30  2  0  0  0
 30 31  1  0  0  0
 31 32  2  0  0  0
 32 33  1  0  0  0
 33 34  2  0  0  0
 34 35  1  0  0  0
 35 36  1  0  0  0
 35 37  1  0  0  0
 35 38  1  0  0  0
  5  1  2  0  0  0
 14  6  1  0  0  0
 20 15  2  0  0  0
 34 29  1  0  0  0
 14  9  1  0  0  0
 22 24  1  0  0  0
 22 25  1  0  0  0
M  END
> <minimizedAffinity>
-7.83114

> <CNNscore>
0.4208677113

> <CNNaffinity>
7.5147428513

> <CNN_VS>
3.1627125740

> <CNNaffinity_variance>
0.2768201828

$$$$
[H]c1nn(C([H])([H])[H])c([H])c1-c1c([H])c([H])c2c(nc([H])n2-c2sc(C(=O)N([H])[H])c(O[C@@]([H])(c3c([H])c([H])c([H])c([H])c3C(F)(F)F)C([H])([H])[H])c2[H])c1[H]


 38 42  0  0  0  0  0  0  0  0999 V2000
   52.7757   -4.2057   -7.2428 C   0  0  0  0  0  0  0  0  0  0  0  0
   54.0055   -4.6833   -7.4972 C   0  0  0  0  0  0  0  0  0  0  0  0
   54.6841   -4.1346   -8.5649 C   0  0  0  0  0  0  0  0  0  0  0  0
   53.5757   -2.9823   -9.1596 S   0  0  0  0  0  0  0  0  0  0  0  0
   52.3026   -3.2195   -8.0610 C   0  0  0  0  0  0  0  0  0  0  0  0
   55.9949   -4.4872   -9.0249 N   0  0  0  0  0  0  0  0  0  0  0  0
   56.9176   -5.1838   -8.3453 C   0  0  0  0  0  0  0  0  0  0  0  0
   58.0249   -5.3237   -9.1004 N   0  0  0  0  0  0  0  0  0  0  0  0
   57.8116   -4.7093  -10.2805 C   0  0  0  0  0  0  0  0  0  0  0  0
   58.5783   -4.5380  -11.4129 C   0  0  0  0  0  0  0  0  0  0  0  0
   58.1443   -3.8624  -12.5219 C   0  0  0  0  0  0  0  0  0  0  0  0
   56.8726   -3.3387  -12.4723 C   0  0  0  0  0  0  0  0  0  0  0  0
   56.0810   -3.5005  -11.3369 C   0  0  0  0  0  0  0  0  0  0  0  0
   56.5134   -4.1825  -10.2132 C   0  0  0  0  0  0  0  0  0  0  0  0
   58.9888   -3.7078  -13.7008 C   0  0  0  0  0  0  0  0  0  0  0  0
   58.5829   -3.4909  -15.0122 C   0  0  0  0  0  0  0  0  0  0  0  0
   59.6967   -3.4138  -15.7552 N   0  0  0  0  0  0  0  0  0  0  0  0
   60.7735   -3.5651  -15.0142 N   0  0  0  0  0  0  0  0  0  0  0  0
   62.1291   -3.5279  -15.5530 C   0  0  0  0  0  0  0  0  0  0  0  0
   60.3685   -3.7446  -13.7662 C   0  0  0  0  0  0  0  0  0  0  0  0
   50.9922   -2.5331   -7.9947 C   0  0  0  0  0  0  0  0  0  0  0  0
   49.8496   -3.3538   -7.8739 N   0  0  0  0  0  0  0  0  0  0  0  0
   50.8740   -1.2926   -8.0415 O   0  0  0  0  0  0  0  0  0  0  0  0
   49.2173   -3.2787   -7.0576 H   0  0  0  0  0  0  0  0  0  0  0  0
   49.6317   -4.0471   -8.6110 H   0  0  0  0  0  0  0  0  0  0  0  0
   51.9653   -4.6778   -6.1775 O   0  0  0  0  0  0  0  0  0  0  0  0
   50.5381   -6.5879   -6.3118 C   0  0  0  0  0  0  0  0  0  0  0  0
   51.9220   -6.0443   -5.7945 C   0  0  0  0  0  0  0  0  0  0  0  0
   51.9496   -6.1495   -4.3364 C   0  0  0  0  0  0  0  0  0  0  0  0
   50.7566   -5.9127   -3.6519 C   0  0  0  0  0  0  0  0  0  0  0  0
   50.6964   -5.9939   -2.2780 C   0  0  0  0  0  0  0  0  0  0  0  0
   51.8048   -6.3109   -1.5227 C   0  0  0  0  0  0  0  0  0  0  0  0
   52.9722   -6.5413   -2.2090 C   0  0  0  0  0  0  0  0  0  0  0  0
   53.0624   -6.4648   -3.6145 C   0  0  0  0  0  0  0  0  0  0  0  0
   54.3485   -6.7121   -4.2809 C   0  0  0  0  0  0  0  0  0  0  0  0
   54.8842   -5.4355   -4.5951 F   0  0  0  0  0  0  0  0  0  0  0  0
   55.2970   -7.3228   -3.4978 F   0  0  0  0  0  0  0  0  0  0  0  0
   54.2208   -7.2867   -5.5408 F   0  0  0  0  0  0  0  0  0  0  0  0
 27 28  1  0  0  0
 28 26  1  0  0  0
 26  1  1  0  0  0
  1  2  1  0  0  0
  2  3  2  0  0  0
  3  4  1  0  0  0
  4  5  1  0  0  0
  5 21  1  0  0  0
 21 22  1  0  0  0
 21 23  2  0  0  0
  3  6  1  0  0  0
  6  7  1  0  0  0
  7  8  2  0  0  0
  8  9  1  0  0  0
  9 10  2  0  0  0
 10 11  1  0  0  0
 11 12  2  0  0  0
 12 13  1  0  0  0
 13 14  2  0  0  0
 11 15  1  0  0  0
 15 16  1  0  0  0
 16 17  2  0  0  0
 17 18  1  0  0  0
 18 19  1  0  0  0
 18 20  1  0  0  0
 28 29  1  0  0  0
 29 30  2  0  0  0
 30 31  1  0  0  0
 31 32  2  0  0  0
 32 33  1  0  0  0
 33 34  2  0  0  0
 34 35  1  0  0  0
 35 36  1  0  0  0
 35 37  1  0  0  0
 35 38  1  0  0  0
  5  1  2  0  0  0
 14  6  1  0  0  0
 20 15  2  0  0  0
 34 29  1  0  0  0
 14  9  1  0  0  0
 22 24  1  0  0  0
 22 25  1  0  0  0
M  END
> <minimizedAffinity>
-8.66515

> <CNNscore>
0.3920970261

> <CNNaffinity>
7.3365416527

> <CNN_VS>
2.8766362667

> <CNNaffinity_variance>
0.1047188044

$$$$
[H]c1nn(C([H])([H])[H])c([H])c1-c1c([H])c([H])c2c(nc([H])n2-c2sc(C(=O)N([H])[H])c(O[C@@]([H])(c3c([H])c([H])c([H])c([H])c3C(F)(F)F)C([H])([H])[H])c2[H])c1[H]


 38 42  0  0  0  0  0  0  0  0999 V2000
   53.0063   -4.4025   -7.1307 C   0  0  0  0  0  0  0  0  0  0  0  0
   54.2583   -4.8033   -7.4080 C   0  0  0  0  0  0  0  0  0  0  0  0
   54.8310   -4.3196   -8.5655 C   0  0  0  0  0  0  0  0  0  0  0  0
   53.5975   -3.3318   -9.2080 S   0  0  0  0  0  0  0  0  0  0  0  0
   52.4079   -3.5518   -8.0162 C   0  0  0  0  0  0  0  0  0  0  0  0
   56.1421   -4.6123   -9.0648 N   0  0  0  0  0  0  0  0  0  0  0  0
   57.1110   -5.2777   -8.4189 C   0  0  0  0  0  0  0  0  0  0  0  0
   58.2021   -5.3628   -9.2050 N   0  0  0  0  0  0  0  0  0  0  0  0
   57.9316   -4.7445  -10.3712 C   0  0  0  0  0  0  0  0  0  0  0  0
   58.6594   -4.5288  -11.5215 C   0  0  0  0  0  0  0  0  0  0  0  0
   58.1679   -3.8593  -12.6100 C   0  0  0  0  0  0  0  0  0  0  0  0
   56.8775   -3.3894  -12.5199 C   0  0  0  0  0  0  0  0  0  0  0  0
   56.1245   -3.5967  -11.3658 C   0  0  0  0  0  0  0  0  0  0  0  0
   56.6151   -4.2729  -10.2627 C   0  0  0  0  0  0  0  0  0  0  0  0
   58.9728   -3.6563  -13.8091 C   0  0  0  0  0  0  0  0  0  0  0  0
   58.5265   -3.5361  -15.1198 C   0  0  0  0  0  0  0  0  0  0  0  0
   59.6140   -3.3636  -15.8855 N   0  0  0  0  0  0  0  0  0  0  0  0
   60.7114   -3.3655  -15.1594 N   0  0  0  0  0  0  0  0  0  0  0  0
   62.0464   -3.1978  -15.7241 C   0  0  0  0  0  0  0  0  0  0  0  0
   60.3469   -3.5414  -13.8985 C   0  0  0  0  0  0  0  0  0  0  0  0
   51.0479   -2.9708   -7.9422 C   0  0  0  0  0  0  0  0  0  0  0  0
   50.9399   -1.5769   -8.1403 N   0  0  0  0  0  0  0  0  0  0  0  0
   50.0300   -3.6551   -7.7170 O   0  0  0  0  0  0  0  0  0  0  0  0
   50.3778   -1.1859   -8.9168 H   0  0  0  0  0  0  0  0  0  0  0  0
   51.4289   -0.9254   -7.5017 H   0  0  0  0  0  0  0  0  0  0  0  0
   52.2957   -4.8212   -5.9756 O   0  0  0  0  0  0  0  0  0  0  0  0
   50.8696   -6.7020   -6.3389 C   0  0  0  0  0  0  0  0  0  0  0  0
   52.1655   -6.1866   -5.6086 C   0  0  0  0  0  0  0  0  0  0  0  0
   51.9612   -6.2923   -4.1646 C   0  0  0  0  0  0  0  0  0  0  0  0
   52.9282   -6.9768   -3.4269 C   0  0  0  0  0  0  0  0  0  0  0  0
   52.8125   -7.1195   -2.0615 C   0  0  0  0  0  0  0  0  0  0  0  0
   51.7433   -6.5955   -1.3675 C   0  0  0  0  0  0  0  0  0  0  0  0
   50.7991   -5.9245   -2.1057 C   0  0  0  0  0  0  0  0  0  0  0  0
   50.8921   -5.7637   -3.5040 C   0  0  0  0  0  0  0  0  0  0  0  0
   49.8373   -5.0438   -4.2307 C   0  0  0  0  0  0  0  0  0  0  0  0
   50.4219   -3.8300   -4.6784 F   0  0  0  0  0  0  0  0  0  0  0  0
   49.3860   -5.6715   -5.3656 F   0  0  0  0  0  0  0  0  0  0  0  0
   48.8127   -4.5826   -3.4114 F   0  0  0  0  0  0  0  0  0  0  0  0
 27 28  1  0  0  0
 28 26  1  0  0  0
 26  1  1  0  0  0
  1  2  1  0  0  0
  2  3  2  0  0  0
  3  4  1  0  0  0
  4  5  1  0  0  0
  5 21  1  0  0  0
 21 22  1  0  0  0
 21 23  2  0  0  0
  3  6  1  0  0  0
  6  7  1  0  0  0
  7  8  2  0  0  0
  8  9  1  0  0  0
  9 10  2  0  0  0
 10 11  1  0  0  0
 11 12  2  0  0  0
 12 13  1  0  0  0
 13 14  2  0  0  0
 11 15  1  0  0  0
 15 16  1  0  0  0
 16 17  2  0  0  0
 17 18  1  0  0  0
 18 19  1  0  0  0
 18 20  1  0  0  0
 28 29  1  0  0  0
 29 30  2  0  0  0
 30 31  1  0  0  0
 31 32  2  0  0  0
 32 33  1  0  0  0
 33 34  2  0  0  0
 34 35  1  0  0  0
 35 36  1  0  0  0
 35 37  1  0  0  0
 35 38  1  0  0  0
  5  1  2  0  0  0
 14  6  1  0  0  0
 20 15  2  0  0  0
 34 29  1  0  0  0
 14  9  1  0  0  0
 22 24  1  0  0  0
 22 25  1  0  0  0
M  END
> <minimizedAffinity>
-9.13438

> <CNNscore>
0.3764856160

> <CNNaffinity>
7.2110252380

> <CNN_VS>
2.7148473263

> <CNNaffinity_variance>
0.2133263648

$$$$
[H]c1nn(C([H])([H])[H])c([H])c1-c1c([H])c([H])c2c(nc([H])n2-c2sc(C(=O)N([H])[H])c(O[C@@]([H])(c3c([H])c([H])c([H])c([H])c3C(F)(F)F)C([H])([H])[H])c2[H])c1[H]


 38 42  0  0  0  0  0  0  0  0999 V2000
   54.6139   -4.9517   -6.3506 C   0  0  0  0  0  0  0  0  0  0  0  0
   55.2733   -4.8045   -7.5119 C   0  0  0  0  0  0  0  0  0  0  0  0
   56.5470   -5.3283   -7.5820 C   0  0  0  0  0  0  0  0  0  0  0  0
   56.7611   -5.9989   -6.0281 S   0  0  0  0  0  0  0  0  0  0  0  0
   55.2590   -5.6063   -5.3400 C   0  0  0  0  0  0  0  0  0  0  0  0
   57.4347   -5.2860   -8.7064 N   0  0  0  0  0  0  0  0  0  0  0  0
   58.7165   -5.6800   -8.7253 C   0  0  0  0  0  0  0  0  0  0  0  0
   59.2279   -5.4951   -9.9583 N   0  0  0  0  0  0  0  0  0  0  0  0
   58.2628   -4.9757  -10.7422 C   0  0  0  0  0  0  0  0  0  0  0  0
   58.2189   -4.5945  -12.0659 C   0  0  0  0  0  0  0  0  0  0  0  0
   57.1005   -4.0805  -12.6655 C   0  0  0  0  0  0  0  0  0  0  0  0
   55.9784   -3.9498  -11.8794 C   0  0  0  0  0  0  0  0  0  0  0  0
   56.0017   -4.3292  -10.5387 C   0  0  0  0  0  0  0  0  0  0  0  0
   57.1284   -4.8497   -9.9269 C   0  0  0  0  0  0  0  0  0  0  0  0
   57.0976   -3.6927  -14.0714 C   0  0  0  0  0  0  0  0  0  0  0  0
   58.1912   -3.3582  -14.8610 C   0  0  0  0  0  0  0  0  0  0  0  0
   57.7150   -3.0709  -16.0814 N   0  0  0  0  0  0  0  0  0  0  0  0
   56.4060   -3.1984  -16.1227 N   0  0  0  0  0  0  0  0  0  0  0  0
   55.6139   -2.9503  -17.3228 C   0  0  0  0  0  0  0  0  0  0  0  0
   56.0105   -3.5742  -14.9161 C   0  0  0  0  0  0  0  0  0  0  0  0
   54.7571   -5.8952   -3.9772 C   0  0  0  0  0  0  0  0  0  0  0  0
   54.9501   -4.8922   -3.0023 N   0  0  0  0  0  0  0  0  0  0  0  0
   54.1884   -6.9636   -3.6768 O   0  0  0  0  0  0  0  0  0  0  0  0
   54.1483   -4.4508   -2.5185 H   0  0  0  0  0  0  0  0  0  0  0  0
   55.9086   -4.5856   -2.7599 H   0  0  0  0  0  0  0  0  0  0  0  0
   53.2986   -4.4626   -6.1380 O   0  0  0  0  0  0  0  0  0  0  0  0
   51.9403   -6.0076   -7.3510 C   0  0  0  0  0  0  0  0  0  0  0  0
   52.1819   -5.3201   -5.9555 C   0  0  0  0  0  0  0  0  0  0  0  0
   51.0013   -4.5275   -5.6146 C   0  0  0  0  0  0  0  0  0  0  0  0
   50.5310   -3.6292   -6.5736 C   0  0  0  0  0  0  0  0  0  0  0  0
   49.4230   -2.8468   -6.3328 C   0  0  0  0  0  0  0  0  0  0  0  0
   48.7336   -2.9160   -5.1414 C   0  0  0  0  0  0  0  0  0  0  0  0
   49.2073   -3.8039   -4.2065 C   0  0  0  0  0  0  0  0  0  0  0  0
   50.3389   -4.6167   -4.4263 C   0  0  0  0  0  0  0  0  0  0  0  0
   50.7962   -5.5359   -3.3751 C   0  0  0  0  0  0  0  0  0  0  0  0
   49.7281   -5.6382   -2.4456 F   0  0  0  0  0  0  0  0  0  0  0  0
   51.0377   -6.8206   -3.7959 F   0  0  0  0  0  0  0  0  0  0  0  0
   51.8145   -5.0144   -2.5845 F   0  0  0  0  0  0  0  0  0  0  0  0
 27 28  1  0  0  0
 28 26  1  0  0  0
 26  1  1  0  0  0
  1  2  1  0  0  0
  2  3  2  0  0  0
  3  4  1  0  0  0
  4  5  1  0  0  0
  5 21  1  0  0  0
 21 22  1  0  0  0
 21 23  2  0  0  0
  3  6  1  0  0  0
  6  7  1  0  0  0
  7  8  2  0  0  0
  8  9  1  0  0  0
  9 10  2  0  0  0
 10 11  1  0  0  0
 11 12  2  0  0  0
 12 13  1  0  0  0
 13 14  2  0  0  0
 11 15  1  0  0  0
 15 16  1  0  0  0
 16 17  2  0  0  0
 17 18  1  0  0  0
 18 19  1  0  0  0
 18 20  1  0  0  0
 28 29  1  0  0  0
 29 30  2  0  0  0
 30 31  1  0  0  0
 31 32  2  0  0  0
 32 33  1  0  0  0
 33 34  2  0  0  0
 34 35  1  0  0  0
 35 36  1  0  0  0
 35 37  1  0  0  0
 35 38  1  0  0  0
  5  1  2  0  0  0
 14  6  1  0  0  0
 20 15  2  0  0  0
 34 29  1  0  0  0
 14  9  1  0  0  0
 22 24  1  0  0  0
 22 25  1  0  0  0
M  END
> <minimizedAffinity>
-10.67881

> <CNNscore>
0.3464428186

> <CNNaffinity>
7.1113319397

> <CNN_VS>
2.4636697769

> <CNNaffinity_variance>
0.3301455379

$$$$
[H]c1nn(C([H])([H])[H])c([H])c1-c1c([H])c([H])c2c(nc([H])n2-c2sc(C(=O)N([H])[H])c(O[C@@]([H])(c3c([H])c([H])c([H])c([H])c3C(F)(F)F)C([H])([H])[H])c2[H])c1[H]


 38 42  0  0  0  0  0  0  0  0999 V2000
   57.7349   -5.3584   -9.8470 C   0  0  0  0  0  0  0  0  0  0  0  0
   58.7175   -5.9134   -9.1179 C   0  0  0  0  0  0  0  0  0  0  0  0
   59.9696   -5.9728   -9.6928 C   0  0  0  0  0  0  0  0  0  0  0  0
   59.7147   -5.2529  -11.2182 S   0  0  0  0  0  0  0  0  0  0  0  0
   58.0581   -4.9007  -11.0928 C   0  0  0  0  0  0  0  0  0  0  0  0
   61.1588   -6.5220   -9.1113 N   0  0  0  0  0  0  0  0  0  0  0  0
   61.9606   -5.9216   -8.2195 C   0  0  0  0  0  0  0  0  0  0  0  0
   62.9771   -6.7462   -7.8987 N   0  0  0  0  0  0  0  0  0  0  0  0
   62.8270   -7.8912   -8.5929 C   0  0  0  0  0  0  0  0  0  0  0  0
   63.5513   -9.0618   -8.6595 C   0  0  0  0  0  0  0  0  0  0  0  0
   63.2011  -10.1207   -9.4537 C   0  0  0  0  0  0  0  0  0  0  0  0
   62.0621   -9.9780  -10.2129 C   0  0  0  0  0  0  0  0  0  0  0  0
   61.3154   -8.8026  -10.1602 C   0  0  0  0  0  0  0  0  0  0  0  0
   61.6637   -7.7291   -9.3595 C   0  0  0  0  0  0  0  0  0  0  0  0
   63.9958  -11.3429   -9.4910 C   0  0  0  0  0  0  0  0  0  0  0  0
   65.3324  -11.4964   -9.1423 C   0  0  0  0  0  0  0  0  0  0  0  0
   65.6377  -12.7880   -9.3355 N   0  0  0  0  0  0  0  0  0  0  0  0
   64.5975  -13.4609   -9.7788 N   0  0  0  0  0  0  0  0  0  0  0  0
   64.6347  -14.8886  -10.0781 C   0  0  0  0  0  0  0  0  0  0  0  0
   63.5917  -12.6056   -9.8806 C   0  0  0  0  0  0  0  0  0  0  0  0
   57.1673   -4.2563  -12.0846 C   0  0  0  0  0  0  0  0  0  0  0  0
   56.1527   -3.4158  -11.5770 N   0  0  0  0  0  0  0  0  0  0  0  0
   57.2842   -4.4299  -13.3140 O   0  0  0  0  0  0  0  0  0  0  0  0
   56.1096   -2.4124  -11.8283 H   0  0  0  0  0  0  0  0  0  0  0  0
   55.4334   -3.8015  -10.9404 H   0  0  0  0  0  0  0  0  0  0  0  0
   56.4001   -5.2321   -9.3813 O   0  0  0  0  0  0  0  0  0  0  0  0
   57.1170   -4.1727   -7.3645 C   0  0  0  0  0  0  0  0  0  0  0  0
   55.9983   -4.2192   -8.4712 C   0  0  0  0  0  0  0  0  0  0  0  0
   54.7334   -4.5950   -7.8412 C   0  0  0  0  0  0  0  0  0  0  0  0
   54.7418   -5.7032   -6.9928 C   0  0  0  0  0  0  0  0  0  0  0  0
   53.5932   -6.1220   -6.3579 C   0  0  0  0  0  0  0  0  0  0  0  0
   52.3918   -5.4692   -6.5311 C   0  0  0  0  0  0  0  0  0  0  0  0
   52.3976   -4.3806   -7.3687 C   0  0  0  0  0  0  0  0  0  0  0  0
   53.5584   -3.9301   -8.0314 C   0  0  0  0  0  0  0  0  0  0  0  0
   53.4874   -2.7644   -8.9232 C   0  0  0  0  0  0  0  0  0  0  0  0
   52.2514   -2.1250   -8.6422 F   0  0  0  0  0  0  0  0  0  0  0  0
   54.4499   -1.8098   -8.7040 F   0  0  0  0  0  0  0  0  0  0  0  0
   53.3381   -3.0986  -10.2648 F   0  0  0  0  0  0  0  0  0  0  0  0
 27 28  1  0  0  0
 28 26  1  0  0  0
 26  1  1  0  0  0
  1  2  1  0  0  0
  2  3  2  0  0  0
  3  4  1  0  0  0
  4  5  1  0  0  0
  5 21  1  0  0  0
 21 22  1  0  0  0
 21 23  2  0  0  0
  3  6  1  0  0  0
  6  7  1  0  0  0
  7  8  2  0  0  0
  8  9  1  0  0  0
  9 10  2  0  0  0
 10 11  1  0  0  0
 11 12  2  0  0  0
 12 13  1  0  0  0
 13 14  2  0  0  0
 11 15  1  0  0  0
 15 16  1  0  0  0
 16 17  2  0  0  0
 17 18  1  0  0  0
 18 19  1  0  0  0
 18 20  1  0  0  0
 28 29  1  0  0  0
 29 30  2  0  0  0
 30 31  1  0  0  0
 31 32  2  0  0  0
 32 33  1  0  0  0
 33 34  2  0  0  0
 34 35  1  0  0  0
 35 36  1  0  0  0
 35 37  1  0  0  0
 35 38  1  0  0  0
  5  1  2  0  0  0
 14  6  1  0  0  0
 20 15  2  0  0  0
 34 29  1  0  0  0
 14  9  1  0  0  0
 22 24  1  0  0  0
 22 25  1  0  0  0
M  END
> <minimizedAffinity>
-7.21696

> <CNNscore>
0.3368789554

> <CNNaffinity>
6.2287373543

> <CNN_VS>
2.0983304977

> <CNNaffinity_variance>
0.3101497889

$$$$
[H]O[C@]([H])(C([H])([H])N([H])C(=O)c1c(C([H])([H])[H])c(/C([H])=C2\C(=O)N([H])c3c([H])c([H])c(F)c([H])c32)n([H])c1C([H])([H])[H])C([H])([H])N1C([H])([H])C([H])([H])OC([H])([H])C1([H])[H]


 36 39  0  0  0  0  0  0  0  0999 V2000
   56.6270   -4.0015  -11.8775 C   0  0  0  0  0  0  0  0  0  0  0  0
   56.1227   -4.3525  -10.5148 C   0  0  0  0  0  0  0  0  0  0  0  0
   54.8947   -4.1864  -10.0348 N   0  0  0  0  0  0  0  0  0  0  0  0
   54.8238   -4.6101   -8.7825 C   0  0  0  0  0  0  0  0  0  0  0  0
   56.1044   -5.0872   -8.4215 C   0  0  0  0  0  0  0  0  0  0  0  0
   56.4366   -5.6741   -7.0943 C   0  0  0  0  0  0  0  0  0  0  0  0
   56.9043   -4.9282   -9.4892 C   0  0  0  0  0  0  0  0  0  0  0  0
   54.1117   -3.7508  -10.6158 H   0  0  0  0  0  0  0  0  0  0  0  0
   53.7152   -4.6630   -7.8482 C   0  0  0  0  0  0  0  0  0  0  0  0
   52.6923   -3.8364   -7.8234 C   0  0  0  0  0  0  0  0  0  0  0  0
   52.4400   -2.7137   -8.7071 C   0  0  0  0  0  0  0  0  0  0  0  0
   53.1564   -2.3333   -9.6875 O   0  0  0  0  0  0  0  0  0  0  0  0
   51.2240   -2.1197   -8.2617 N   0  0  0  0  0  0  0  0  0  0  0  0
   50.6955   -2.8273   -7.1265 C   0  0  0  0  0  0  0  0  0  0  0  0
   49.5680   -2.6498   -6.3510 C   0  0  0  0  0  0  0  0  0  0  0  0
   49.2978   -3.4909   -5.3039 C   0  0  0  0  0  0  0  0  0  0  0  0
   50.1629   -4.5295   -5.0195 C   0  0  0  0  0  0  0  0  0  0  0  0
   49.8867   -5.3640   -3.9738 F   0  0  0  0  0  0  0  0  0  0  0  0
   51.2840   -4.6934   -5.8034 C   0  0  0  0  0  0  0  0  0  0  0  0
   51.5705   -3.8577   -6.8586 C   0  0  0  0  0  0  0  0  0  0  0  0
   50.7854   -1.2984   -8.6927 H   0  0  0  0  0  0  0  0  0  0  0  0
   58.3125   -5.2957   -9.6599 C   0  0  0  0  0  0  0  0  0  0  0  0
   58.7683   -5.1771  -10.8524 O   0  0  0  0  0  0  0  0  0  0  0  0
   59.1762   -5.7447   -8.6702 N   0  0  0  0  0  0  0  0  0  0  0  0
   58.7629   -5.8131   -7.6721 H   0  0  0  0  0  0  0  0  0  0  0  0
   60.5571   -6.1119   -8.7600 C   0  0  0  0  0  0  0  0  0  0  0  0
   60.8060   -7.5447   -9.0608 C   0  0  0  0  0  0  0  0  0  0  0  0
   60.0142   -8.0732  -10.0541 O   0  0  0  0  0  0  0  0  0  0  0  0
   59.3511   -8.7348   -9.7495 H   0  0  0  0  0  0  0  0  0  0  0  0
   62.2864   -7.6933   -9.4151 C   0  0  0  0  0  0  0  0  0  0  0  0
   62.4948   -7.9938  -10.7843 N   0  0  0  0  0  0  0  0  0  0  0  0
   62.7791   -6.9125  -11.6244 C   0  0  0  0  0  0  0  0  0  0  0  0
   63.6184   -7.1766  -12.8233 C   0  0  0  0  0  0  0  0  0  0  0  0
   63.7229   -8.4936  -13.1878 O   0  0  0  0  0  0  0  0  0  0  0  0
   64.2212   -9.1742  -12.0523 C   0  0  0  0  0  0  0  0  0  0  0  0
   63.0487   -9.2532  -11.0996 C   0  0  0  0  0  0  0  0  0  0  0  0
  1  2  1  0  0  0
  2  3  1  0  0  0
  3  4  1  0  0  0
  4  9  1  0  0  0
  9 10  2  0  0  0
 10 11  1  0  0  0
 11 12  2  0  0  0
 11 13  1  0  0  0
 13 14  1  0  0  0
 14 15  2  0  0  0
 15 16  1  0  0  0
 16 17  2  0  0  0
 17 18  1  0  0  0
 17 19  1  0  0  0
 19 20  2  0  0  0
  4  5  2  0  0  0
  5  6  1  0  0  0
  5  7  1  0  0  0
  7 22  1  0  0  0
 22 23  2  0  0  0
 22 24  1  0  0  0
 24 26  1  0  0  0
 26 27  1  0  0  0
 27 28  1  0  0  0
 27 30  1  0  0  0
 30 31  1  0  0  0
 31 32  1  0  0  0
 32 33  1  0  0  0
 33 34  1  0  0  0
 34 35  1  0  0  0
 35 36  1  0  0  0
  7  2  2  0  0  0
 36 31  1  0  0  0
 20 10  1  0  0  0
 20 14  1  0  0  0
  3  8  1  0  0  0
 13 21  1  0  0  0
 24 25  1  0  0  0
 28 29  1  0  0  0
M  END
> <minimizedAffinity>
-10.90715

> <CNNscore>
0.9205654263

> <CNNaffinity>
6.8814568520

> <CNN_VS>
6.3348312378

> <CNNaffinity_variance>
0.0900041014

$$$$
[H]O[C@]([H])(C([H])([H])N([H])C(=O)c1c(C([H])([H])[H])c(/C([H])=C2\C(=O)N([H])c3c([H])c([H])c(F)c([H])c32)n([H])c1C([H])([H])[H])C([H])([H])N1C([H])([H])C([H])([H])OC([H])([H])C1([H])[H]


 36 39  0  0  0  0  0  0  0  0999 V2000
   56.8790   -4.2401  -11.4114 C   0  0  0  0  0  0  0  0  0  0  0  0
   56.2543   -4.5012  -10.0787 C   0  0  0  0  0  0  0  0  0  0  0  0
   54.9908   -4.3001   -9.7198 N   0  0  0  0  0  0  0  0  0  0  0  0
   54.8068   -4.6425   -8.4542 C   0  0  0  0  0  0  0  0  0  0  0  0
   56.0465   -5.1004   -7.9527 C   0  0  0  0  0  0  0  0  0  0  0  0
   56.2561   -5.6023   -6.5670 C   0  0  0  0  0  0  0  0  0  0  0  0
   56.9380   -5.0130   -8.9541 C   0  0  0  0  0  0  0  0  0  0  0  0
   54.2655   -3.8996  -10.3937 H   0  0  0  0  0  0  0  0  0  0  0  0
   53.6204   -4.6313   -7.6192 C   0  0  0  0  0  0  0  0  0  0  0  0
   52.6236   -3.7782   -7.7135 C   0  0  0  0  0  0  0  0  0  0  0  0
   52.4815   -2.6837   -8.6554 C   0  0  0  0  0  0  0  0  0  0  0  0
   53.2907   -2.3594   -9.5822 O   0  0  0  0  0  0  0  0  0  0  0  0
   51.2492   -2.0421   -8.3395 N   0  0  0  0  0  0  0  0  0  0  0  0
   50.6041   -2.6922   -7.2306 C   0  0  0  0  0  0  0  0  0  0  0  0
   49.4193   -2.4564   -6.5636 C   0  0  0  0  0  0  0  0  0  0  0  0
   49.0353   -3.2499   -5.5149 C   0  0  0  0  0  0  0  0  0  0  0  0
   49.8420   -4.2989   -5.1190 C   0  0  0  0  0  0  0  0  0  0  0  0
   49.4522   -5.0857   -4.0725 F   0  0  0  0  0  0  0  0  0  0  0  0
   51.0216   -4.5213   -5.7954 C   0  0  0  0  0  0  0  0  0  0  0  0
   51.4224   -3.7339   -6.8506 C   0  0  0  0  0  0  0  0  0  0  0  0
   50.8735   -1.2267   -8.8363 H   0  0  0  0  0  0  0  0  0  0  0  0
   58.3522   -5.3960   -8.9770 C   0  0  0  0  0  0  0  0  0  0  0  0
   59.0503   -4.9710   -7.9890 O   0  0  0  0  0  0  0  0  0  0  0  0
   58.9863   -6.1623   -9.9455 N   0  0  0  0  0  0  0  0  0  0  0  0
   58.3619   -6.5206  -10.7538 H   0  0  0  0  0  0  0  0  0  0  0  0
   60.3528   -6.5810  -10.0295 C   0  0  0  0  0  0  0  0  0  0  0  0
   60.6222   -7.9472   -9.5137 C   0  0  0  0  0  0  0  0  0  0  0  0
   60.7707   -8.9125  -10.4827 O   0  0  0  0  0  0  0  0  0  0  0  0
   60.0445   -9.5768  -10.5228 H   0  0  0  0  0  0  0  0  0  0  0  0
   61.8698   -7.8719   -8.6321 C   0  0  0  0  0  0  0  0  0  0  0  0
   62.7975   -6.8974   -9.0772 N   0  0  0  0  0  0  0  0  0  0  0  0
   63.2209   -5.9601   -8.1298 C   0  0  0  0  0  0  0  0  0  0  0  0
   64.5830   -5.3860   -8.2931 C   0  0  0  0  0  0  0  0  0  0  0  0
   65.1413   -5.5439   -9.5348 O   0  0  0  0  0  0  0  0  0  0  0  0
   65.1366   -6.9352   -9.7902 C   0  0  0  0  0  0  0  0  0  0  0  0
   63.6944   -7.2694  -10.1016 C   0  0  0  0  0  0  0  0  0  0  0  0
  1  2  1  0  0  0
  2  3  1  0  0  0
  3  4  1  0  0  0
  4  9  1  0  0  0
  9 10  2  0  0  0
 10 11  1  0  0  0
 11 12  2  0  0  0
 11 13  1  0  0  0
 13 14  1  0  0  0
 14 15  2  0  0  0
 15 16  1  0  0  0
 16 17  2  0  0  0
 17 18  1  0  0  0
 17 19  1  0  0  0
 19 20  2  0  0  0
  4  5  2  0  0  0
  5  6  1  0  0  0
  5  7  1  0  0  0
  7 22  1  0  0  0
 22 23  2  0  0  0
 22 24  1  0  0  0
 24 26  1  0  0  0
 26 27  1  0  0  0
 27 28  1  0  0  0
 27 30  1  0  0  0
 30 31  1  0  0  0
 31 32  1  0  0  0
 32 33  1  0  0  0
 33 34  1  0  0  0
 34 35  1  0  0  0
 35 36  1  0  0  0
  7  2  2  0  0  0
 36 31  1  0  0  0
 20 10  1  0  0  0
 20 14  1  0  0  0
  3  8  1  0  0  0
 13 21  1  0  0  0
 24 25  1  0  0  0
 28 29  1  0  0  0
M  END
> <minimizedAffinity>
-10.39732

> <CNNscore>
0.8529719710

> <CNNaffinity>
6.8663611412

> <CNN_VS>
5.8568134308

> <CNNaffinity_variance>
0.1435017884

$$$$
[H]O[C@]([H])(C([H])([H])N([H])C(=O)c1c(C([H])([H])[H])c(/C([H])=C2\C(=O)N([H])c3c([H])c([H])c(F)c([H])c32)n([H])c1C([H])([H])[H])C([H])([H])N1C([H])([H])C([H])([H])OC([H])([H])C1([H])[H]


 36 39  0  0  0  0  0  0  0  0999 V2000
   56.7657   -4.3102  -11.3491 C   0  0  0  0  0  0  0  0  0  0  0  0
   56.1550   -4.5452  -10.0051 C   0  0  0  0  0  0  0  0  0  0  0  0
   54.8869   -4.3733   -9.6471 N   0  0  0  0  0  0  0  0  0  0  0  0
   54.7191   -4.6774   -8.3696 C   0  0  0  0  0  0  0  0  0  0  0  0
   55.9751   -5.0767   -7.8586 C   0  0  0  0  0  0  0  0  0  0  0  0
   56.2063   -5.5231   -6.4574 C   0  0  0  0  0  0  0  0  0  0  0  0
   56.8594   -4.9950   -8.8668 C   0  0  0  0  0  0  0  0  0  0  0  0
   54.1463   -4.0204  -10.3309 H   0  0  0  0  0  0  0  0  0  0  0  0
   53.5361   -4.6761   -7.5297 C   0  0  0  0  0  0  0  0  0  0  0  0
   52.5431   -3.8167   -7.6040 C   0  0  0  0  0  0  0  0  0  0  0  0
   52.4024   -2.7042   -8.5247 C   0  0  0  0  0  0  0  0  0  0  0  0
   53.2095   -2.3665   -9.4486 O   0  0  0  0  0  0  0  0  0  0  0  0
   51.1746   -2.0628   -8.1919 N   0  0  0  0  0  0  0  0  0  0  0  0
   50.5308   -2.7303   -7.0926 C   0  0  0  0  0  0  0  0  0  0  0  0
   49.3498   -2.5014   -6.4165 C   0  0  0  0  0  0  0  0  0  0  0  0
   48.9661   -3.3125   -5.3812 C   0  0  0  0  0  0  0  0  0  0  0  0
   49.7694   -4.3725   -5.0083 C   0  0  0  0  0  0  0  0  0  0  0  0
   49.3800   -5.1768   -3.9750 F   0  0  0  0  0  0  0  0  0  0  0  0
   50.9452   -4.5878   -5.6935 C   0  0  0  0  0  0  0  0  0  0  0  0
   51.3455   -3.7829   -6.7354 C   0  0  0  0  0  0  0  0  0  0  0  0
   50.8008   -1.2365   -8.6718 H   0  0  0  0  0  0  0  0  0  0  0  0
   58.2854   -5.3320   -8.8833 C   0  0  0  0  0  0  0  0  0  0  0  0
   58.9868   -4.7890   -7.9575 O   0  0  0  0  0  0  0  0  0  0  0  0
   58.9273   -6.1689   -9.7859 N   0  0  0  0  0  0  0  0  0  0  0  0
   58.3006   -6.6255  -10.5412 H   0  0  0  0  0  0  0  0  0  0  0  0
   60.3057   -6.5490   -9.8588 C   0  0  0  0  0  0  0  0  0  0  0  0
   60.5951   -7.9412   -9.4305 C   0  0  0  0  0  0  0  0  0  0  0  0
   60.3194   -8.9053  -10.3726 O   0  0  0  0  0  0  0  0  0  0  0  0
   59.5593   -9.4931  -10.1559 H   0  0  0  0  0  0  0  0  0  0  0  0
   62.0650   -8.0011   -9.0121 C   0  0  0  0  0  0  0  0  0  0  0  0
   62.2439   -8.5417   -7.7144 N   0  0  0  0  0  0  0  0  0  0  0  0
   61.8077   -7.7539   -6.6445 C   0  0  0  0  0  0  0  0  0  0  0  0
   61.3560   -8.4563   -5.4140 C   0  0  0  0  0  0  0  0  0  0  0  0
   61.7503   -9.7645   -5.3069 O   0  0  0  0  0  0  0  0  0  0  0  0
   61.2746  -10.4117   -6.4713 C   0  0  0  0  0  0  0  0  0  0  0  0
   62.1936   -9.9458   -7.5791 C   0  0  0  0  0  0  0  0  0  0  0  0
  1  2  1  0  0  0
  2  3  1  0  0  0
  3  4  1  0  0  0
  4  9  1  0  0  0
  9 10  2  0  0  0
 10 11  1  0  0  0
 11 12  2  0  0  0
 11 13  1  0  0  0
 13 14  1  0  0  0
 14 15  2  0  0  0
 15 16  1  0  0  0
 16 17  2  0  0  0
 17 18  1  0  0  0
 17 19  1  0  0  0
 19 20  2  0  0  0
  4  5  2  0  0  0
  5  6  1  0  0  0
  5  7  1  0  0  0
  7 22  1  0  0  0
 22 23  2  0  0  0
 22 24  1  0  0  0
 24 26  1  0  0  0
 26 27  1  0  0  0
 27 28  1  0  0  0
 27 30  1  0  0  0
 30 31  1  0  0  0
 31 32  1  0  0  0
 32 33  1  0  0  0
 33 34  1  0  0  0
 34 35  1  0  0  0
 35 36  1  0  0  0
  7  2  2  0  0  0
 36 31  1  0  0  0
 20 10  1  0  0  0
 20 14  1  0  0  0
  3  8  1  0  0  0
 13 21  1  0  0  0
 24 25  1  0  0  0
 28 29  1  0  0  0
M  END
> <minimizedAffinity>
-10.42157

> <CNNscore>
0.8113985658

> <CNNaffinity>
6.8698196411

> <CNN_VS>
5.5741620064

> <CNNaffinity_variance>
0.1010150462

$$$$
[H]O[C@]([H])(C([H])([H])N([H])C(=O)c1c(C([H])([H])[H])c(/C([H])=C2\C(=O)N([H])c3c([H])c([H])c(F)c([H])c32)n([H])c1C([H])([H])[H])C([H])([H])N1C([H])([H])C([H])([H])OC([H])([H])C1([H])[H]


 36 39  0  0  0  0  0  0  0  0999 V2000
   50.3996   -3.0012   -6.9458 C   0  0  0  0  0  0  0  0  0  0  0  0
   51.6570   -3.8095   -6.9428 C   0  0  0  0  0  0  0  0  0  0  0  0
   52.7269   -3.6513   -7.7150 N   0  0  0  0  0  0  0  0  0  0  0  0
   53.6450   -4.5614   -7.4295 C   0  0  0  0  0  0  0  0  0  0  0  0
   53.1314   -5.3734   -6.3927 C   0  0  0  0  0  0  0  0  0  0  0  0
   53.8723   -6.5035   -5.7682 C   0  0  0  0  0  0  0  0  0  0  0  0
   51.9064   -4.9096   -6.0934 C   0  0  0  0  0  0  0  0  0  0  0  0
   52.7819   -2.8884   -8.4603 H   0  0  0  0  0  0  0  0  0  0  0  0
   54.9723   -4.7884   -7.9693 C   0  0  0  0  0  0  0  0  0  0  0  0
   55.3842   -4.4352   -9.1676 C   0  0  0  0  0  0  0  0  0  0  0  0
   54.6269   -3.7482  -10.1970 C   0  0  0  0  0  0  0  0  0  0  0  0
   53.4239   -3.3404  -10.1209 O   0  0  0  0  0  0  0  0  0  0  0  0
   55.5004   -3.6157  -11.3147 N   0  0  0  0  0  0  0  0  0  0  0  0
   56.7862   -4.1939  -11.0298 C   0  0  0  0  0  0  0  0  0  0  0  0
   57.9456   -4.3156  -11.7680 C   0  0  0  0  0  0  0  0  0  0  0  0
   59.0523   -4.9263  -11.2397 C   0  0  0  0  0  0  0  0  0  0  0  0
   59.0091   -5.4268   -9.9530 C   0  0  0  0  0  0  0  0  0  0  0  0
   60.1167   -6.0344   -9.4332 F   0  0  0  0  0  0  0  0  0  0  0  0
   57.8441   -5.2972   -9.2289 C   0  0  0  0  0  0  0  0  0  0  0  0
   56.7236   -4.6867   -9.7443 C   0  0  0  0  0  0  0  0  0  0  0  0
   55.2461   -3.1683  -12.2023 H   0  0  0  0  0  0  0  0  0  0  0  0
   50.9636   -5.3657   -5.0685 C   0  0  0  0  0  0  0  0  0  0  0  0
   49.8523   -5.8254   -5.5130 O   0  0  0  0  0  0  0  0  0  0  0  0
   51.1630   -5.3492   -3.6947 N   0  0  0  0  0  0  0  0  0  0  0  0
   52.1202   -4.9734   -3.3567 H   0  0  0  0  0  0  0  0  0  0  0  0
   50.2972   -5.7829   -2.6403 C   0  0  0  0  0  0  0  0  0  0  0  0
   50.9548   -6.5910   -1.5821 C   0  0  0  0  0  0  0  0  0  0  0  0
   50.0941   -7.3060   -0.7815 O   0  0  0  0  0  0  0  0  0  0  0  0
   50.0338   -6.9909    0.1498 H   0  0  0  0  0  0  0  0  0  0  0  0
   51.9554   -7.5239   -2.2661 C   0  0  0  0  0  0  0  0  0  0  0  0
   53.2827   -7.3358   -1.8067 N   0  0  0  0  0  0  0  0  0  0  0  0
   54.2899   -7.9893   -2.5237 C   0  0  0  0  0  0  0  0  0  0  0  0
   55.6365   -7.3586   -2.5461 C   0  0  0  0  0  0  0  0  0  0  0  0
   55.8582   -6.4141   -1.5781 O   0  0  0  0  0  0  0  0  0  0  0  0
   54.8364   -5.4484   -1.7343 C   0  0  0  0  0  0  0  0  0  0  0  0
   53.5905   -6.1069   -1.1842 C   0  0  0  0  0  0  0  0  0  0  0  0
  1  2  1  0  0  0
  2  3  1  0  0  0
  3  4  1  0  0  0
  4  9  1  0  0  0
  9 10  2  0  0  0
 10 11  1  0  0  0
 11 12  2  0  0  0
 11 13  1  0  0  0
 13 14  1  0  0  0
 14 15  2  0  0  0
 15 16  1  0  0  0
 16 17  2  0  0  0
 17 18  1  0  0  0
 17 19  1  0  0  0
 19 20  2  0  0  0
  4  5  2  0  0  0
  5  6  1  0  0  0
  5  7  1  0  0  0
  7 22  1  0  0  0
 22 23  2  0  0  0
 22 24  1  0  0  0
 24 26  1  0  0  0
 26 27  1  0  0  0
 27 28  1  0  0  0
 27 30  1  0  0  0
 30 31  1  0  0  0
 31 32  1  0  0  0
 32 33  1  0  0  0
 33 34  1  0  0  0
 34 35  1  0  0  0
 35 36  1  0  0  0
  7  2  2  0  0  0
 36 31  1  0  0  0
 20 10  1  0  0  0
 20 14  1  0  0  0
  3  8  1  0  0  0
 13 21  1  0  0  0
 24 25  1  0  0  0
 28 29  1  0  0  0
M  END
> <minimizedAffinity>
-9.85842

> <CNNscore>
0.8059764504

> <CNNaffinity>
7.2628431320

> <CNN_VS>
5.8536806107

> <CNNaffinity_variance>
0.0857770070

$$$$
[H]O[C@]([H])(C([H])([H])N([H])C(=O)c1c(C([H])([H])[H])c(/C([H])=C2\C(=O)N([H])c3c([H])c([H])c(F)c([H])c32)n([H])c1C([H])([H])[H])C([H])([H])N1C([H])([H])C([H])([H])OC([H])([H])C1([H])[H]


 36 39  0  0  0  0  0  0  0  0999 V2000
   57.4131   -4.5112  -11.3512 C   0  0  0  0  0  0  0  0  0  0  0  0
   56.7053   -4.7122  -10.0500 C   0  0  0  0  0  0  0  0  0  0  0  0
   55.4177   -4.5164   -9.7863 N   0  0  0  0  0  0  0  0  0  0  0  0
   55.1553   -4.7937   -8.5187 C   0  0  0  0  0  0  0  0  0  0  0  0
   56.3658   -5.2000   -7.9125 C   0  0  0  0  0  0  0  0  0  0  0  0
   56.4905   -5.6225   -6.4905 C   0  0  0  0  0  0  0  0  0  0  0  0
   57.3205   -5.1495   -8.8565 C   0  0  0  0  0  0  0  0  0  0  0  0
   54.7327   -4.1668  -10.5274 H   0  0  0  0  0  0  0  0  0  0  0  0
   53.9159   -4.7604   -7.7652 C   0  0  0  0  0  0  0  0  0  0  0  0
   52.9673   -3.8574   -7.8877 C   0  0  0  0  0  0  0  0  0  0  0  0
   52.9396   -2.7192   -8.7871 C   0  0  0  0  0  0  0  0  0  0  0  0
   53.8246   -2.3958   -9.6423 O   0  0  0  0  0  0  0  0  0  0  0  0
   51.7186   -2.0330   -8.5259 N   0  0  0  0  0  0  0  0  0  0  0  0
   50.9701   -2.6970   -7.4928 C   0  0  0  0  0  0  0  0  0  0  0  0
   49.7540   -2.4327   -6.8966 C   0  0  0  0  0  0  0  0  0  0  0  0
   49.2634   -3.2498   -5.9125 C   0  0  0  0  0  0  0  0  0  0  0  0
   49.9930   -4.3518   -5.5109 C   0  0  0  0  0  0  0  0  0  0  0  0
   49.4971   -5.1618   -4.5290 F   0  0  0  0  0  0  0  0  0  0  0  0
   51.2052   -4.6021   -6.1161 C   0  0  0  0  0  0  0  0  0  0  0  0
   51.7126   -3.7916   -7.1059 C   0  0  0  0  0  0  0  0  0  0  0  0
   51.4150   -1.1807   -9.0097 H   0  0  0  0  0  0  0  0  0  0  0  0
   58.7389   -5.5059   -8.7655 C   0  0  0  0  0  0  0  0  0  0  0  0
   59.4649   -4.6937   -8.0892 O   0  0  0  0  0  0  0  0  0  0  0  0
   59.3503   -6.6183   -9.3277 N   0  0  0  0  0  0  0  0  0  0  0  0
   58.7032   -7.2923   -9.8742 H   0  0  0  0  0  0  0  0  0  0  0  0
   60.7194   -7.0334   -9.2742 C   0  0  0  0  0  0  0  0  0  0  0  0
   61.3021   -7.4402  -10.5781 C   0  0  0  0  0  0  0  0  0  0  0  0
   61.6506   -6.3982  -11.4062 O   0  0  0  0  0  0  0  0  0  0  0  0
   61.0946   -6.3048  -12.2138 H   0  0  0  0  0  0  0  0  0  0  0  0
   62.5142   -8.3266  -10.2876 C   0  0  0  0  0  0  0  0  0  0  0  0
   62.1699   -9.6926  -10.1334 N   0  0  0  0  0  0  0  0  0  0  0  0
   62.8378  -10.6017  -10.9599 C   0  0  0  0  0  0  0  0  0  0  0  0
   63.0378  -11.9815  -10.4424 C   0  0  0  0  0  0  0  0  0  0  0  0
   62.2412  -12.3323   -9.3838 O   0  0  0  0  0  0  0  0  0  0  0  0
   62.4817  -11.3669   -8.3782 C   0  0  0  0  0  0  0  0  0  0  0  0
   61.7630  -10.1230   -8.8522 C   0  0  0  0  0  0  0  0  0  0  0  0
  1  2  1  0  0  0
  2  3  1  0  0  0
  3  4  1  0  0  0
  4  9  1  0  0  0
  9 10  2  0  0  0
 10 11  1  0  0  0
 11 12  2  0  0  0
 11 13  1  0  0  0
 13 14  1  0  0  0
 14 15  2  0  0  0
 15 16  1  0  0  0
 16 17  2  0  0  0
 17 18  1  0  0  0
 17 19  1  0  0  0
 19 20  2  0  0  0
  4  5  2  0  0  0
  5  6  1  0  0  0
  5  7  1  0  0  0
  7 22  1  0  0  0
 22 23  2  0  0  0
 22 24  1  0  0  0
 24 26  1  0  0  0
 26 27  1  0  0  0
 27 28  1  0  0  0
 27 30  1  0  0  0
 30 31  1  0  0  0
 31 32  1  0  0  0
 32 33  1  0  0  0
 33 34  1  0  0  0
 34 35  1  0  0  0
 35 36  1  0  0  0
  7  2  2  0  0  0
 36 31  1  0  0  0
 20 10  1  0  0  0
 20 14  1  0  0  0
  3  8  1  0  0  0
 13 21  1  0  0  0
 24 25  1  0  0  0
 28 29  1  0  0  0
M  END
> <minimizedAffinity>
-9.25516

> <CNNscore>
0.6986153722

> <CNNaffinity>
6.6112012863

> <CNN_VS>
4.6186866760

> <CNNaffinity_variance>
0.2937011719

$$$$
[H]O[C@]([H])(C([H])([H])N([H])C(=O)c1c(C([H])([H])[H])c(/C([H])=C2\C(=O)N([H])c3c([H])c([H])c(F)c([H])c32)n([H])c1C([H])([H])[H])C([H])([H])N1C([H])([H])C([H])([H])OC([H])([H])C1([H])[H]


 36 39  0  0  0  0  0  0  0  0999 V2000
   50.0331   -2.3911   -6.3212 C   0  0  0  0  0  0  0  0  0  0  0  0
   51.0485   -3.2356   -7.0214 C   0  0  0  0  0  0  0  0  0  0  0  0
   51.7731   -2.9180   -8.0890 N   0  0  0  0  0  0  0  0  0  0  0  0
   52.5637   -3.9237   -8.4302 C   0  0  0  0  0  0  0  0  0  0  0  0
   52.3340   -4.9753   -7.5141 C   0  0  0  0  0  0  0  0  0  0  0  0
   53.0488   -6.2809   -7.5407 C   0  0  0  0  0  0  0  0  0  0  0  0
   51.4003   -4.5508   -6.6464 C   0  0  0  0  0  0  0  0  0  0  0  0
   51.6809   -1.9729   -8.5777 H   0  0  0  0  0  0  0  0  0  0  0  0
   53.5436   -4.0571   -9.4918 C   0  0  0  0  0  0  0  0  0  0  0  0
   54.8452   -4.1523   -9.3273 C   0  0  0  0  0  0  0  0  0  0  0  0
   55.5815   -4.1528   -8.0771 C   0  0  0  0  0  0  0  0  0  0  0  0
   55.0982   -4.0817   -6.9022 O   0  0  0  0  0  0  0  0  0  0  0  0
   56.9595   -4.2530   -8.4249 N   0  0  0  0  0  0  0  0  0  0  0  0
   57.1229   -4.3171   -9.8524 C   0  0  0  0  0  0  0  0  0  0  0  0
   58.2320   -4.4188  -10.6671 C   0  0  0  0  0  0  0  0  0  0  0  0
   58.0992   -4.4621  -12.0300 C   0  0  0  0  0  0  0  0  0  0  0  0
   56.8411   -4.4036  -12.5973 C   0  0  0  0  0  0  0  0  0  0  0  0
   56.7168   -4.4473  -13.9570 F   0  0  0  0  0  0  0  0  0  0  0  0
   55.7439   -4.3024  -11.7702 C   0  0  0  0  0  0  0  0  0  0  0  0
   55.8595   -4.2576  -10.3995 C   0  0  0  0  0  0  0  0  0  0  0  0
   57.7304   -4.2762   -7.7482 H   0  0  0  0  0  0  0  0  0  0  0  0
   50.8336   -5.2347   -5.4808 C   0  0  0  0  0  0  0  0  0  0  0  0
   49.6928   -5.7877   -5.6720 O   0  0  0  0  0  0  0  0  0  0  0  0
   51.4092   -5.3385   -4.2218 N   0  0  0  0  0  0  0  0  0  0  0  0
   52.3812   -4.8773   -4.1027 H   0  0  0  0  0  0  0  0  0  0  0  0
   50.9222   -5.9934   -3.0455 C   0  0  0  0  0  0  0  0  0  0  0  0
   51.9423   -6.2304   -1.9926 C   0  0  0  0  0  0  0  0  0  0  0  0
   51.4505   -6.7498   -0.8173 O   0  0  0  0  0  0  0  0  0  0  0  0
   51.4768   -6.1353   -0.0479 H   0  0  0  0  0  0  0  0  0  0  0  0
   53.0120   -7.1507   -2.5828 C   0  0  0  0  0  0  0  0  0  0  0  0
   53.9908   -6.4464   -3.3272 N   0  0  0  0  0  0  0  0  0  0  0  0
   54.7252   -5.4788   -2.6344 C   0  0  0  0  0  0  0  0  0  0  0  0
   56.1108   -5.2049   -3.0999 C   0  0  0  0  0  0  0  0  0  0  0  0
   56.4030   -5.6459   -4.3642 O   0  0  0  0  0  0  0  0  0  0  0  0
   56.1253   -7.0329   -4.3672 C   0  0  0  0  0  0  0  0  0  0  0  0
   54.6157   -7.1280   -4.3936 C   0  0  0  0  0  0  0  0  0  0  0  0
  1  2  1  0  0  0
  2  3  1  0  0  0
  3  4  1  0  0  0
  4  9  1  0  0  0
  9 10  2  0  0  0
 10 11  1  0  0  0
 11 12  2  0  0  0
 11 13  1  0  0  0
 13 14  1  0  0  0
 14 15  2  0  0  0
 15 16  1  0  0  0
 16 17  2  0  0  0
 17 18  1  0  0  0
 17 19  1  0  0  0
 19 20  2  0  0  0
  4  5  2  0  0  0
  5  6  1  0  0  0
  5  7  1  0  0  0
  7 22  1  0  0  0
 22 23  2  0  0  0
 22 24  1  0  0  0
 24 26  1  0  0  0
 26 27  1  0  0  0
 27 28  1  0  0  0
 27 30  1  0  0  0
 30 31  1  0  0  0
 31 32  1  0  0  0
 32 33  1  0  0  0
 33 34  1  0  0  0
 34 35  1  0  0  0
 35 36  1  0  0  0
  7  2  2  0  0  0
 36 31  1  0  0  0
 20 10  1  0  0  0
 20 14  1  0  0  0
  3  8  1  0  0  0
 13 21  1  0  0  0
 24 25  1  0  0  0
 28 29  1  0  0  0
M  END
> <minimizedAffinity>
-9.39758

> <CNNscore>
0.6803848147

> <CNNaffinity>
7.0602731705

> <CNN_VS>
4.8037028313

> <CNNaffinity_variance>
0.1315145791

$$$$
[H]O[C@]([H])(C([H])([H])N([H])C(=O)c1c(C([H])([H])[H])c(/C([H])=C2\C(=O)N([H])c3c([H])c([H])c(F)c([H])c32)n([H])c1C([H])([H])[H])C([H])([H])N1C([H])([H])C([H])([H])OC([H])([H])C1([H])[H]


 36 39  0  0  0  0  0  0  0  0999 V2000
   55.9855   -4.0995  -11.1504 C   0  0  0  0  0  0  0  0  0  0  0  0
   55.7235   -4.5776   -9.7586 C   0  0  0  0  0  0  0  0  0  0  0  0
   54.5767   -4.5393   -9.0883 N   0  0  0  0  0  0  0  0  0  0  0  0
   54.7295   -5.0488   -7.8760 C   0  0  0  0  0  0  0  0  0  0  0  0
   56.0795   -5.4479   -7.7492 C   0  0  0  0  0  0  0  0  0  0  0  0
   56.6522   -6.0933   -6.5361 C   0  0  0  0  0  0  0  0  0  0  0  0
   56.6914   -5.1571   -8.9094 C   0  0  0  0  0  0  0  0  0  0  0  0
   53.6856   -4.1284   -9.5099 H   0  0  0  0  0  0  0  0  0  0  0  0
   53.7854   -5.2491   -6.7927 C   0  0  0  0  0  0  0  0  0  0  0  0
   52.6092   -4.6705   -6.6829 C   0  0  0  0  0  0  0  0  0  0  0  0
   51.9975   -3.7279   -7.6007 C   0  0  0  0  0  0  0  0  0  0  0  0
   52.4813   -3.3012   -8.6975 O   0  0  0  0  0  0  0  0  0  0  0  0
   50.7401   -3.3745   -7.0314 N   0  0  0  0  0  0  0  0  0  0  0  0
   50.5324   -4.0611   -5.7849 C   0  0  0  0  0  0  0  0  0  0  0  0
   49.4973   -4.0583   -4.8723 C   0  0  0  0  0  0  0  0  0  0  0  0
   49.5593   -4.8265   -3.7396 C   0  0  0  0  0  0  0  0  0  0  0  0
   50.6701   -5.6138   -3.5065 C   0  0  0  0  0  0  0  0  0  0  0  0
   50.7245   -6.3770   -2.3747 F   0  0  0  0  0  0  0  0  0  0  0  0
   51.6949   -5.6056   -4.4273 C   0  0  0  0  0  0  0  0  0  0  0  0
   51.6488   -4.8400   -5.5700 C   0  0  0  0  0  0  0  0  0  0  0  0
   50.0735   -2.7189   -7.4541 H   0  0  0  0  0  0  0  0  0  0  0  0
   58.0774   -5.4022   -9.3174 C   0  0  0  0  0  0  0  0  0  0  0  0
   58.3304   -5.1827  -10.5550 O   0  0  0  0  0  0  0  0  0  0  0  0
   59.1153   -5.8350   -8.5033 N   0  0  0  0  0  0  0  0  0  0  0  0
   58.8699   -5.9905   -7.4606 H   0  0  0  0  0  0  0  0  0  0  0  0
   60.4870   -6.0864   -8.8273 C   0  0  0  0  0  0  0  0  0  0  0  0
   61.2013   -6.9786   -7.8792 C   0  0  0  0  0  0  0  0  0  0  0  0
   60.5135   -7.2620   -6.7218 O   0  0  0  0  0  0  0  0  0  0  0  0
   60.8930   -6.8644   -5.9045 H   0  0  0  0  0  0  0  0  0  0  0  0
   61.5502   -8.2659   -8.6279 C   0  0  0  0  0  0  0  0  0  0  0  0
   62.7902   -8.8179   -8.2206 N   0  0  0  0  0  0  0  0  0  0  0  0
   63.8699   -7.9331   -8.1364 C   0  0  0  0  0  0  0  0  0  0  0  0
   64.9357   -8.2426   -7.1466 C   0  0  0  0  0  0  0  0  0  0  0  0
   64.9483   -9.5318   -6.6817 O   0  0  0  0  0  0  0  0  0  0  0  0
   63.6621   -9.7635   -6.1404 C   0  0  0  0  0  0  0  0  0  0  0  0
   62.7565   -9.9220   -7.3417 C   0  0  0  0  0  0  0  0  0  0  0  0
  1  2  1  0  0  0
  2  3  1  0  0  0
  3  4  1  0  0  0
  4  9  1  0  0  0
  9 10  2  0  0  0
 10 11  1  0  0  0
 11 12  2  0  0  0
 11 13  1  0  0  0
 13 14  1  0  0  0
 14 15  2  0  0  0
 15 16  1  0  0  0
 16 17  2  0  0  0
 17 18  1  0  0  0
 17 19  1  0  0  0
 19 20  2  0  0  0
  4  5  2  0  0  0
  5  6  1  0  0  0
  5  7  1  0  0  0
  7 22  1  0  0  0
 22 23  2  0  0  0
 22 24  1  0  0  0
 24 26  1  0  0  0
 26 27  1  0  0  0
 27 28  1  0  0  0
 27 30  1  0  0  0
 30 31  1  0  0  0
 31 32  1  0  0  0
 32 33  1  0  0  0
 33 34  1  0  0  0
 34 35  1  0  0  0
 35 36  1  0  0  0
  7  2  2  0  0  0
 36 31  1  0  0  0
 20 10  1  0  0  0
 20 14  1  0  0  0
  3  8  1  0  0  0
 13 21  1  0  0  0
 24 25  1  0  0  0
 28 29  1  0  0  0
M  END
> <minimizedAffinity>
-8.65493

> <CNNscore>
0.6288370490

> <CNNaffinity>
6.6328125000

> <CNN_VS>
4.1709580421

> <CNNaffinity_variance>
0.2860094607

$$$$
[H]O[C@]([H])(C([H])([H])N([H])C(=O)c1c(C([H])([H])[H])c(/C([H])=C2\C(=O)N([H])c3c([H])c([H])c(F)c([H])c32)n([H])c1C([H])([H])[H])C([H])([H])N1C([H])([H])C([H])([H])OC([H])([H])C1([H])[H]


 36 39  0  0  0  0  0  0  0  0999 V2000
   56.1279   -3.2365  -13.6410 C   0  0  0  0  0  0  0  0  0  0  0  0
   56.3795   -3.7933  -12.2768 C   0  0  0  0  0  0  0  0  0  0  0  0
   55.4895   -4.0310  -11.3190 N   0  0  0  0  0  0  0  0  0  0  0  0
   56.0846   -4.5204  -10.2425 C   0  0  0  0  0  0  0  0  0  0  0  0
   57.4674   -4.6062  -10.5225 C   0  0  0  0  0  0  0  0  0  0  0  0
   58.4840   -5.1329   -9.5711 C   0  0  0  0  0  0  0  0  0  0  0  0
   57.6484   -4.1580  -11.7760 C   0  0  0  0  0  0  0  0  0  0  0  0
   54.4496   -3.8230  -11.4453 H   0  0  0  0  0  0  0  0  0  0  0  0
   55.5520   -4.9540   -8.9645 C   0  0  0  0  0  0  0  0  0  0  0  0
   54.3672   -4.6467   -8.4827 C   0  0  0  0  0  0  0  0  0  0  0  0
   53.3431   -3.8295   -9.1060 C   0  0  0  0  0  0  0  0  0  0  0  0
   53.3959   -3.2738  -10.2495 O   0  0  0  0  0  0  0  0  0  0  0  0
   52.2593   -3.7740   -8.1829 N   0  0  0  0  0  0  0  0  0  0  0  0
   52.5598   -4.5286   -6.9960 C   0  0  0  0  0  0  0  0  0  0  0  0
   51.8525   -4.7782   -5.8377 C   0  0  0  0  0  0  0  0  0  0  0  0
   52.3890   -5.5506   -4.8414 C   0  0  0  0  0  0  0  0  0  0  0  0
   53.6526   -6.0867   -4.9962 C   0  0  0  0  0  0  0  0  0  0  0  0
   54.1807   -6.8558   -3.9983 F   0  0  0  0  0  0  0  0  0  0  0  0
   54.3456   -5.8283   -6.1586 C   0  0  0  0  0  0  0  0  0  0  0  0
   53.8217   -5.0547   -7.1691 C   0  0  0  0  0  0  0  0  0  0  0  0
   51.3833   -3.2645   -8.3438 H   0  0  0  0  0  0  0  0  0  0  0  0
   58.8803   -4.0734  -12.5652 C   0  0  0  0  0  0  0  0  0  0  0  0
   59.8509   -4.7975  -12.1439 O   0  0  0  0  0  0  0  0  0  0  0  0
   59.0834   -3.3028  -13.7019 N   0  0  0  0  0  0  0  0  0  0  0  0
   58.2362   -2.7201  -14.0402 H   0  0  0  0  0  0  0  0  0  0  0  0
   60.2484   -3.1767  -14.5244 C   0  0  0  0  0  0  0  0  0  0  0  0
   61.5402   -3.2405  -13.7948 C   0  0  0  0  0  0  0  0  0  0  0  0
   62.1099   -4.4915  -13.7356 O   0  0  0  0  0  0  0  0  0  0  0  0
   62.1191   -4.9023  -12.8404 H   0  0  0  0  0  0  0  0  0  0  0  0
   62.4947   -2.2442  -14.4549 C   0  0  0  0  0  0  0  0  0  0  0  0
   63.4012   -1.6614  -13.5345 N   0  0  0  0  0  0  0  0  0  0  0  0
   64.7623   -1.8210  -13.8129 C   0  0  0  0  0  0  0  0  0  0  0  0
   65.6893   -0.7594  -13.3384 C   0  0  0  0  0  0  0  0  0  0  0  0
   65.1850    0.0705  -12.3713 O   0  0  0  0  0  0  0  0  0  0  0  0
   64.0021    0.6262  -12.9124 C   0  0  0  0  0  0  0  0  0  0  0  0
   62.9860   -0.4933  -12.8597 C   0  0  0  0  0  0  0  0  0  0  0  0
  1  2  1  0  0  0
  2  3  1  0  0  0
  3  4  1  0  0  0
  4  9  1  0  0  0
  9 10  2  0  0  0
 10 11  1  0  0  0
 11 12  2  0  0  0
 11 13  1  0  0  0
 13 14  1  0  0  0
 14 15  2  0  0  0
 15 16  1  0  0  0
 16 17  2  0  0  0
 17 18  1  0  0  0
 17 19  1  0  0  0
 19 20  2  0  0  0
  4  5  2  0  0  0
  5  6  1  0  0  0
  5  7  1  0  0  0
  7 22  1  0  0  0
 22 23  2  0  0  0
 22 24  1  0  0  0
 24 26  1  0  0  0
 26 27  1  0  0  0
 27 28  1  0  0  0
 27 30  1  0  0  0
 30 31  1  0  0  0
 31 32  1  0  0  0
 32 33  1  0  0  0
 33 34  1  0  0  0
 34 35  1  0  0  0
 35 36  1  0  0  0
  7  2  2  0  0  0
 36 31  1  0  0  0
 20 10  1  0  0  0
 20 14  1  0  0  0
  3  8  1  0  0  0
 13 21  1  0  0  0
 24 25  1  0  0  0
 28 29  1  0  0  0
M  END
> <minimizedAffinity>
-8.43475

> <CNNscore>
0.5957946777

> <CNNaffinity>
6.2012495995

> <CNN_VS>
3.6946713924

> <CNNaffinity_variance>
0.4060381055

$$$$
[H]O[C@]([H])(C([H])([H])N([H])C(=O)c1c(C([H])([H])[H])c(/C([H])=C2\C(=O)N([H])c3c([H])c([H])c(F)c([H])c32)n([H])c1C([H])([H])[H])C([H])([H])N1C([H])([H])C([H])([H])OC([H])([H])C1([H])[H]


 36 39  0  0  0  0  0  0  0  0999 V2000
   52.1663   -2.5467   -8.6170 C   0  0  0  0  0  0  0  0  0  0  0  0
   53.2196   -3.5309   -8.2215 C   0  0  0  0  0  0  0  0  0  0  0  0
   54.4989   -3.5411   -8.5811 N   0  0  0  0  0  0  0  0  0  0  0  0
   55.1263   -4.5727   -8.0381 C   0  0  0  0  0  0  0  0  0  0  0  0
   54.1816   -5.2878   -7.2674 C   0  0  0  0  0  0  0  0  0  0  0  0
   54.4980   -6.5069   -6.4737 C   0  0  0  0  0  0  0  0  0  0  0  0
   53.0070   -4.6455   -7.3809 C   0  0  0  0  0  0  0  0  0  0  0  0
   54.9113   -2.8036   -9.2342 H   0  0  0  0  0  0  0  0  0  0  0  0
   56.5114   -4.9988   -8.1073 C   0  0  0  0  0  0  0  0  0  0  0  0
   57.2556   -5.0166   -9.1918 C   0  0  0  0  0  0  0  0  0  0  0  0
   56.8742   -4.6176  -10.5336 C   0  0  0  0  0  0  0  0  0  0  0  0
   55.7488   -4.1546  -10.9054 O   0  0  0  0  0  0  0  0  0  0  0  0
   58.0147   -4.8435  -11.3571 N   0  0  0  0  0  0  0  0  0  0  0  0
   59.1068   -5.3711  -10.5842 C   0  0  0  0  0  0  0  0  0  0  0  0
   60.3941   -5.7453  -10.9110 C   0  0  0  0  0  0  0  0  0  0  0  0
   61.2483   -6.2277   -9.9546 C   0  0  0  0  0  0  0  0  0  0  0  0
   60.8177   -6.3415   -8.6471 C   0  0  0  0  0  0  0  0  0  0  0  0
   61.6751   -6.8233   -7.6991 F   0  0  0  0  0  0  0  0  0  0  0  0
   59.5296   -5.9634   -8.3369 C   0  0  0  0  0  0  0  0  0  0  0  0
   58.6588   -5.4771   -9.2852 C   0  0  0  0  0  0  0  0  0  0  0  0
   58.0513   -4.6551  -12.3651 H   0  0  0  0  0  0  0  0  0  0  0  0
   51.7178   -4.9456   -6.7522 C   0  0  0  0  0  0  0  0  0  0  0  0
   51.0948   -5.9561   -7.2365 O   0  0  0  0  0  0  0  0  0  0  0  0
   51.1281   -4.2540   -5.7027 N   0  0  0  0  0  0  0  0  0  0  0  0
   51.6916   -3.4194   -5.3058 H   0  0  0  0  0  0  0  0  0  0  0  0
   49.8839   -4.4924   -5.0358 C   0  0  0  0  0  0  0  0  0  0  0  0
   50.0003   -4.8300   -3.5944 C   0  0  0  0  0  0  0  0  0  0  0  0
   48.8011   -4.9816   -2.9372 O   0  0  0  0  0  0  0  0  0  0  0  0
   48.5972   -4.2798   -2.2768 H   0  0  0  0  0  0  0  0  0  0  0  0
   50.8407   -6.1030   -3.4832 C   0  0  0  0  0  0  0  0  0  0  0  0
   52.1353   -5.8612   -2.9599 N   0  0  0  0  0  0  0  0  0  0  0  0
   52.2105   -5.0233   -1.8429 C   0  0  0  0  0  0  0  0  0  0  0  0
   53.3320   -5.2457   -0.8919 C   0  0  0  0  0  0  0  0  0  0  0  0
   54.3757   -5.9886   -1.3789 O   0  0  0  0  0  0  0  0  0  0  0  0
   53.8151   -7.2146   -1.8074 C   0  0  0  0  0  0  0  0  0  0  0  0
   53.0972   -6.8851   -3.0975 C   0  0  0  0  0  0  0  0  0  0  0  0
  1  2  1  0  0  0
  2  3  1  0  0  0
  3  4  1  0  0  0
  4  9  1  0  0  0
  9 10  2  0  0  0
 10 11  1  0  0  0
 11 12  2  0  0  0
 11 13  1  0  0  0
 13 14  1  0  0  0
 14 15  2  0  0  0
 15 16  1  0  0  0
 16 17  2  0  0  0
 17 18  1  0  0  0
 17 19  1  0  0  0
 19 20  2  0  0  0
  4  5  2  0  0  0
  5  6  1  0  0  0
  5  7  1  0  0  0
  7 22  1  0  0  0
 22 23  2  0  0  0
 22 24  1  0  0  0
 24 26  1  0  0  0
 26 27  1  0  0  0
 27 28  1  0  0  0
 27 30  1  0  0  0
 30 31  1  0  0  0
 31 32  1  0  0  0
 32 33  1  0  0  0
 33 34  1  0  0  0
 34 35  1  0  0  0
 35 36  1  0  0  0
  7  2  2  0  0  0
 36 31  1  0  0  0
 20 10  1  0  0  0
 20 14  1  0  0  0
  3  8  1  0  0  0
 13 21  1  0  0  0
 24 25  1  0  0  0
 28 29  1  0  0  0
M  END
> <minimizedAffinity>
-8.38105

> <CNNscore>
0.3651155233

> <CNNaffinity>
6.7343597412

> <CNN_VS>
2.4588193893

> <CNNaffinity_variance>
0.0608851202

$$$$
[H]C1=C([H])C([H])(F)C([H])([H])C([H])=C1N([H])C(=O)C1(C(=O)N([H])c2c([H])c([H])c(Oc3c([H])c([H])nc4c([H])c(OC([H])([H])C([H])([H])C([H])([H])N5C([H])([H])C([H])([H])C([H])([H])C([H])([H])C5([H])[H])c(OC([H])([H])[H])c([H])c34)c(F)c2[H])C([H])([H])C1([H])[H]


 48 53  0  0  0  0  0  0  0  0999 V2000
   51.2807   -5.3986   -5.5563 C   0  0  0  0  0  0  0  0  0  0  0  0
   52.2403   -6.2753   -5.0964 C   0  0  0  0  0  0  0  0  0  0  0  0
   52.3215   -6.5851   -3.7382 C   0  0  0  0  0  0  0  0  0  0  0  0
   51.4792   -6.0525   -2.8128 C   0  0  0  0  0  0  0  0  0  0  0  0
   50.5158   -5.1717   -3.2768 C   0  0  0  0  0  0  0  0  0  0  0  0
   50.4269   -4.8584   -4.6160 C   0  0  0  0  0  0  0  0  0  0  0  0
   49.4645   -3.9572   -4.9975 F   0  0  0  0  0  0  0  0  0  0  0  0
   51.5331   -6.3015   -1.4121 N   0  0  0  0  0  0  0  0  0  0  0  0
   51.5121   -7.5788   -0.8637 C   0  0  0  0  0  0  0  0  0  0  0  0
   51.4748   -8.5467   -1.7215 O   0  0  0  0  0  0  0  0  0  0  0  0
   51.6243   -5.4143   -0.8424 H   0  0  0  0  0  0  0  0  0  0  0  0
   51.5341   -8.0145    0.5512 C   0  0  0  0  0  0  0  0  0  0  0  0
   52.8623   -8.4828    1.0661 C   0  0  0  0  0  0  0  0  0  0  0  0
   52.4121   -7.1172    1.3921 C   0  0  0  0  0  0  0  0  0  0  0  0
   50.3992   -8.6634    1.2265 C   0  0  0  0  0  0  0  0  0  0  0  0
   50.3757   -8.4399    2.5158 O   0  0  0  0  0  0  0  0  0  0  0  0
   49.3935   -9.4572    0.6938 N   0  0  0  0  0  0  0  0  0  0  0  0
   49.3787   -9.7198   -0.3065 H   0  0  0  0  0  0  0  0  0  0  0  0
   48.3411  -10.0080    1.5011 C   0  0  0  0  0  0  0  0  0  0  0  0
   47.0958   -9.5901    1.3908 C   0  0  0  0  0  0  0  0  0  0  0  0
   46.0018  -10.1469    2.2159 C   0  0  0  0  0  0  0  0  0  0  0  0
   46.3518  -11.2316    3.1467 C   0  0  0  0  0  0  0  0  0  0  0  0
   45.5586  -12.3511    2.8319 F   0  0  0  0  0  0  0  0  0  0  0  0
   47.7636  -11.6159    3.1902 C   0  0  0  0  0  0  0  0  0  0  0  0
   48.6765  -11.0559    2.4360 C   0  0  0  0  0  0  0  0  0  0  0  0
   51.1807   -5.0737   -6.8987 O   0  0  0  0  0  0  0  0  0  0  0  0
   55.2888   -5.4121   -7.1325 C   0  0  0  0  0  0  0  0  0  0  0  0
   53.9174   -5.3023   -7.0532 C   0  0  0  0  0  0  0  0  0  0  0  0
   53.2605   -4.2102   -7.5865 C   0  0  0  0  0  0  0  0  0  0  0  0
   51.8663   -4.0749   -7.5207 C   0  0  0  0  0  0  0  0  0  0  0  0
   51.2325   -2.9793   -8.0606 C   0  0  0  0  0  0  0  0  0  0  0  0
   51.9793   -1.9915   -8.6787 C   0  0  0  0  0  0  0  0  0  0  0  0
   53.3143   -2.1246   -8.7390 N   0  0  0  0  0  0  0  0  0  0  0  0
   53.9483   -3.1956   -8.2139 C   0  0  0  0  0  0  0  0  0  0  0  0
   55.3315   -3.3191   -8.2865 C   0  0  0  0  0  0  0  0  0  0  0  0
   56.0047   -4.4133   -7.7538 C   0  0  0  0  0  0  0  0  0  0  0  0
   56.1280   -6.6360   -5.1956 C   0  0  0  0  0  0  0  0  0  0  0  0
   55.9557   -6.5086   -6.5985 O   0  0  0  0  0  0  0  0  0  0  0  0
   57.3840   -4.5408   -7.8228 O   0  0  0  0  0  0  0  0  0  0  0  0
   57.8968   -5.6916   -8.4805 C   0  0  0  0  0  0  0  0  0  0  0  0
   58.8895   -5.2381   -9.5407 C   0  0  0  0  0  0  0  0  0  0  0  0
   58.1809   -5.1801  -10.8549 C   0  0  0  0  0  0  0  0  0  0  0  0
   58.1734   -3.8445  -11.3665 N   0  0  0  0  0  0  0  0  0  0  0  0
   58.8415   -3.8036  -12.6694 C   0  0  0  0  0  0  0  0  0  0  0  0
   57.8697   -3.6227  -13.7893 C   0  0  0  0  0  0  0  0  0  0  0  0
   56.5812   -4.3992  -13.6194 C   0  0  0  0  0  0  0  0  0  0  0  0
   55.9393   -4.1763  -12.2910 C   0  0  0  0  0  0  0  0  0  0  0  0
   56.8393   -3.2974  -11.4659 C   0  0  0  0  0  0  0  0  0  0  0  0
 37 38  1  0  0  0
 38 27  1  0  0  0
 27 28  2  0  0  0
 28 29  1  0  0  0
 29 30  2  0  0  0
 30 26  1  0  0  0
 26  1  1  0  0  0
  1  2  2  0  0  0
  2  3  1  0  0  0
  3  4  2  0  0  0
  4  8  1  0  0  0
  8  9  1  0  0  0
  9 10  2  0  0  0
  9 12  1  0  0  0
 12 13  1  0  0  0
 13 14  1  0  0  0
 12 15  1  0  0  0
 15 16  2  0  0  0
 15 17  1  0  0  0
 17 19  1  0  0  0
 19 20  2  0  0  0
 20 21  1  0  0  0
 21 22  1  0  0  0
 22 23  1  0  0  0
 22 24  1  0  0  0
 24 25  2  0  0  0
  4  5  1  0  0  0
  5  6  2  0  0  0
  6  7  1  0  0  0
 30 31  1  0  0  0
 31 32  2  0  0  0
 32 33  1  0  0  0
 33 34  2  0  0  0
 34 35  1  0  0  0
 35 36  2  0  0  0
 36 39  1  0  0  0
 39 40  1  0  0  0
 40 41  1  0  0  0
 41 42  1  0  0  0
 42 43  1  0  0  0
 43 44  1  0  0  0
 44 45  1  0  0  0
 45 46  1  0  0  0
 46 47  1  0  0  0
 47 48  1  0  0  0
 36 27  1  0  0  0
 48 43  1  0  0  0
 34 29  1  0  0  0
  6  1  1  0  0  0
 14 12  1  0  0  0
 25 19  1  0  0  0
  8 11  1  0  0  0
 17 18  1  0  0  0
M  END
> <minimizedAffinity>
-9.39359

> <CNNscore>
0.3936784863

> <CNNaffinity>
7.4868736267

> <CNN_VS>
2.9474210739

> <CNNaffinity_variance>
0.0800858364

$$$$
[H]C1=C([H])C([H])(F)C([H])([H])C([H])=C1N([H])C(=O)C1(C(=O)N([H])c2c([H])c([H])c(Oc3c([H])c([H])nc4c([H])c(OC([H])([H])C([H])([H])C([H])([H])N5C([H])([H])C([H])([H])C([H])([H])C([H])([H])C5([H])[H])c(OC([H])([H])[H])c([H])c34)c(F)c2[H])C([H])([H])C1([H])[H]


 48 53  0  0  0  0  0  0  0  0999 V2000
   51.8855   -5.7536   -4.5092 C   0  0  0  0  0  0  0  0  0  0  0  0
   53.1820   -6.0407   -4.1387 C   0  0  0  0  0  0  0  0  0  0  0  0
   53.5490   -6.0386   -2.7923 C   0  0  0  0  0  0  0  0  0  0  0  0
   52.6699   -5.7597   -1.7929 C   0  0  0  0  0  0  0  0  0  0  0  0
   51.3676   -5.4712   -2.1673 C   0  0  0  0  0  0  0  0  0  0  0  0
   50.9944   -5.4701   -3.4940 C   0  0  0  0  0  0  0  0  0  0  0  0
   49.6934   -5.1484   -3.7901 F   0  0  0  0  0  0  0  0  0  0  0  0
   52.9903   -5.7078   -0.4067 N   0  0  0  0  0  0  0  0  0  0  0  0
   53.5913   -6.7587    0.2765 C   0  0  0  0  0  0  0  0  0  0  0  0
   53.8786   -7.7932   -0.4455 O   0  0  0  0  0  0  0  0  0  0  0  0
   52.7525   -4.7750    0.0331 H   0  0  0  0  0  0  0  0  0  0  0  0
   53.9661   -6.8841    1.7034 C   0  0  0  0  0  0  0  0  0  0  0  0
   53.2979   -5.9200    2.6376 C   0  0  0  0  0  0  0  0  0  0  0  0
   52.7857   -7.2997    2.5502 C   0  0  0  0  0  0  0  0  0  0  0  0
   55.3003   -7.2964    2.1671 C   0  0  0  0  0  0  0  0  0  0  0  0
   55.6995   -6.6387    3.2258 O   0  0  0  0  0  0  0  0  0  0  0  0
   56.1597   -8.2510    1.6422 N   0  0  0  0  0  0  0  0  0  0  0  0
   55.9339   -8.7707    0.7769 H   0  0  0  0  0  0  0  0  0  0  0  0
   57.4365   -8.5420    2.2318 C   0  0  0  0  0  0  0  0  0  0  0  0
   57.6437   -9.6481    2.9184 C   0  0  0  0  0  0  0  0  0  0  0  0
   58.9526   -9.9609    3.5323 C   0  0  0  0  0  0  0  0  0  0  0  0
   60.0435   -8.9993    3.3076 C   0  0  0  0  0  0  0  0  0  0  0  0
   61.1094   -9.6828    2.6926 F   0  0  0  0  0  0  0  0  0  0  0  0
   59.7030   -7.8045    2.5332 C   0  0  0  0  0  0  0  0  0  0  0  0
   58.5083   -7.5939    2.0393 C   0  0  0  0  0  0  0  0  0  0  0  0
   51.4969   -5.7474   -5.8383 O   0  0  0  0  0  0  0  0  0  0  0  0
   55.1617   -5.0800   -7.6186 C   0  0  0  0  0  0  0  0  0  0  0  0
   53.9396   -5.3057   -7.0231 C   0  0  0  0  0  0  0  0  0  0  0  0
   52.8621   -4.4794   -7.2780 C   0  0  0  0  0  0  0  0  0  0  0  0
   51.6078   -4.6878   -6.6867 C   0  0  0  0  0  0  0  0  0  0  0  0
   50.5475   -3.8534   -6.9566 C   0  0  0  0  0  0  0  0  0  0  0  0
   50.7174   -2.7887   -7.8246 C   0  0  0  0  0  0  0  0  0  0  0  0
   51.9204   -2.5924   -8.3884 N   0  0  0  0  0  0  0  0  0  0  0  0
   52.9687   -3.4048   -8.1324 C   0  0  0  0  0  0  0  0  0  0  0  0
   54.2075   -3.1886   -8.7260 C   0  0  0  0  0  0  0  0  0  0  0  0
   55.2999   -4.0129   -8.4778 C   0  0  0  0  0  0  0  0  0  0  0  0
   56.6529   -6.1849   -6.0346 C   0  0  0  0  0  0  0  0  0  0  0  0
   56.2495   -5.9078   -7.3667 O   0  0  0  0  0  0  0  0  0  0  0  0
   56.5376   -3.8011   -9.0665 O   0  0  0  0  0  0  0  0  0  0  0  0
   56.8046   -4.4897  -10.2808 C   0  0  0  0  0  0  0  0  0  0  0  0
   55.7204   -4.1310  -11.2863 C   0  0  0  0  0  0  0  0  0  0  0  0
   56.3781   -3.5991  -12.5180 C   0  0  0  0  0  0  0  0  0  0  0  0
   56.9373   -4.6636  -13.2922 N   0  0  0  0  0  0  0  0  0  0  0  0
   55.9511   -5.1514  -14.2592 C   0  0  0  0  0  0  0  0  0  0  0  0
   56.2840   -4.7339  -15.6543 C   0  0  0  0  0  0  0  0  0  0  0  0
   56.8237   -3.3238  -15.7641 C   0  0  0  0  0  0  0  0  0  0  0  0
   57.9528   -3.0591  -14.8252 C   0  0  0  0  0  0  0  0  0  0  0  0
   58.1563   -4.2770  -13.9657 C   0  0  0  0  0  0  0  0  0  0  0  0
 37 38  1  0  0  0
 38 27  1  0  0  0
 27 28  2  0  0  0
 28 29  1  0  0  0
 29 30  2  0  0  0
 30 26  1  0  0  0
 26  1  1  0  0  0
  1  2  2  0  0  0
  2  3  1  0  0  0
  3  4  2  0  0  0
  4  8  1  0  0  0
  8  9  1  0  0  0
  9 10  2  0  0  0
  9 12  1  0  0  0
 12 13  1  0  0  0
 13 14  1  0  0  0
 12 15  1  0  0  0
 15 16  2  0  0  0
 15 17  1  0  0  0
 17 19  1  0  0  0
 19 20  2  0  0  0
 20 21  1  0  0  0
 21 22  1  0  0  0
 22 23  1  0  0  0
 22 24  1  0  0  0
 24 25  2  0  0  0
  4  5  1  0  0  0
  5  6  2  0  0  0
  6  7  1  0  0  0
 30 31  1  0  0  0
 31 32  2  0  0  0
 32 33  1  0  0  0
 33 34  2  0  0  0
 34 35  1  0  0  0
 35 36  2  0  0  0
 36 39  1  0  0  0
 39 40  1  0  0  0
 40 41  1  0  0  0
 41 42  1  0  0  0
 42 43  1  0  0  0
 43 44  1  0  0  0
 44 45  1  0  0  0
 45 46  1  0  0  0
 46 47  1  0  0  0
 47 48  1  0  0  0
 36 27  1  0  0  0
 48 43  1  0  0  0
 34 29  1  0  0  0
  6  1  1  0  0  0
 14 12  1  0  0  0
 25 19  1  0  0  0
  8 11  1  0  0  0
 17 18  1  0  0  0
M  END
> <minimizedAffinity>
-8.19661

> <CNNscore>
0.3864728808

> <CNNaffinity>
7.4754805565

> <CNN_VS>
2.8890705109

> <CNNaffinity_variance>
0.0807694122

$$$$
[H]C1=C([H])C([H])(F)C([H])([H])C([H])=C1N([H])C(=O)C1(C(=O)N([H])c2c([H])c([H])c(Oc3c([H])c([H])nc4c([H])c(OC([H])([H])C([H])([H])C([H])([H])N5C([H])([H])C([H])([H])C([H])([H])C([H])([H])C5([H])[H])c(OC([H])([H])[H])c([H])c34)c(F)c2[H])C([H])([H])C1([H])[H]


 48 53  0  0  0  0  0  0  0  0999 V2000
   55.8755   -6.0232   -5.1776 C   0  0  0  0  0  0  0  0  0  0  0  0
   55.4942   -7.3466   -5.2425 C   0  0  0  0  0  0  0  0  0  0  0  0
   55.0784   -8.0192   -4.0927 C   0  0  0  0  0  0  0  0  0  0  0  0
   55.0269   -7.4221   -2.8719 C   0  0  0  0  0  0  0  0  0  0  0  0
   55.4106   -6.0925   -2.8087 C   0  0  0  0  0  0  0  0  0  0  0  0
   55.8234   -5.4187   -3.9380 C   0  0  0  0  0  0  0  0  0  0  0  0
   56.2142   -4.1110   -3.7930 F   0  0  0  0  0  0  0  0  0  0  0  0
   54.6457   -8.0626   -1.6588 N   0  0  0  0  0  0  0  0  0  0  0  0
   53.3728   -7.9590   -1.1097 C   0  0  0  0  0  0  0  0  0  0  0  0
   52.5300   -7.2602   -1.7990 O   0  0  0  0  0  0  0  0  0  0  0  0
   55.4233   -8.6485   -1.2441 H   0  0  0  0  0  0  0  0  0  0  0  0
   52.8191   -8.5289    0.1398 C   0  0  0  0  0  0  0  0  0  0  0  0
   53.8297   -9.0002    1.1423 C   0  0  0  0  0  0  0  0  0  0  0  0
   53.1863   -7.6886    1.3406 C   0  0  0  0  0  0  0  0  0  0  0  0
   51.5545   -9.2778    0.2088 C   0  0  0  0  0  0  0  0  0  0  0  0
   51.5396  -10.3290   -0.5708 O   0  0  0  0  0  0  0  0  0  0  0  0
   50.4168   -9.0190    0.9597 N   0  0  0  0  0  0  0  0  0  0  0  0
   50.3371   -8.1777    1.5562 H   0  0  0  0  0  0  0  0  0  0  0  0
   49.2597   -9.8688    0.9187 C   0  0  0  0  0  0  0  0  0  0  0  0
   48.4424   -9.8726   -0.1156 C   0  0  0  0  0  0  0  0  0  0  0  0
   47.2465  -10.7412   -0.1717 C   0  0  0  0  0  0  0  0  0  0  0  0
   47.0237  -11.6466    0.9666 C   0  0  0  0  0  0  0  0  0  0  0  0
   46.9743  -12.9644    0.4742 F   0  0  0  0  0  0  0  0  0  0  0  0
   47.9909  -11.5585    2.0619 C   0  0  0  0  0  0  0  0  0  0  0  0
   49.0166  -10.7440    2.0409 C   0  0  0  0  0  0  0  0  0  0  0  0
   56.2937   -5.3343   -6.3037 O   0  0  0  0  0  0  0  0  0  0  0  0
   57.8298   -5.0517  -10.1255 C   0  0  0  0  0  0  0  0  0  0  0  0
   57.3199   -5.1477   -8.8488 C   0  0  0  0  0  0  0  0  0  0  0  0
   56.0210   -4.7667   -8.5726 C   0  0  0  0  0  0  0  0  0  0  0  0
   55.4773   -4.8557   -7.2831 C   0  0  0  0  0  0  0  0  0  0  0  0
   54.1800   -4.4726   -7.0308 C   0  0  0  0  0  0  0  0  0  0  0  0
   53.3953   -3.9896   -8.0636 C   0  0  0  0  0  0  0  0  0  0  0  0
   53.9200   -3.9054   -9.2970 N   0  0  0  0  0  0  0  0  0  0  0  0
   55.1916   -4.2792   -9.5578 C   0  0  0  0  0  0  0  0  0  0  0  0
   55.7191   -4.1875  -10.8411 C   0  0  0  0  0  0  0  0  0  0  0  0
   57.0248   -4.5676  -11.1324 C   0  0  0  0  0  0  0  0  0  0  0  0
   59.9254   -6.0910   -9.4313 C   0  0  0  0  0  0  0  0  0  0  0  0
   59.1356   -5.4338  -10.4102 O   0  0  0  0  0  0  0  0  0  0  0  0
   57.5560   -4.4772  -12.4104 O   0  0  0  0  0  0  0  0  0  0  0  0
   56.8725   -3.6469  -13.3395 C   0  0  0  0  0  0  0  0  0  0  0  0
   56.3475   -4.5197  -14.4699 C   0  0  0  0  0  0  0  0  0  0  0  0
   56.5775   -3.8051  -15.7619 C   0  0  0  0  0  0  0  0  0  0  0  0
   57.7684   -4.2789  -16.3965 N   0  0  0  0  0  0  0  0  0  0  0  0
   57.4586   -4.7668  -17.7424 C   0  0  0  0  0  0  0  0  0  0  0  0
   57.9545   -3.8369  -18.8009 C   0  0  0  0  0  0  0  0  0  0  0  0
   57.7811   -2.3710  -18.4648 C   0  0  0  0  0  0  0  0  0  0  0  0
   58.3223   -2.0151  -17.1206 C   0  0  0  0  0  0  0  0  0  0  0  0
   58.8046   -3.2728  -16.4505 C   0  0  0  0  0  0  0  0  0  0  0  0
 37 38  1  0  0  0
 38 27  1  0  0  0
 27 28  2  0  0  0
 28 29  1  0  0  0
 29 30  2  0  0  0
 30 26  1  0  0  0
 26  1  1  0  0  0
  1  2  2  0  0  0
  2  3  1  0  0  0
  3  4  2  0  0  0
  4  8  1  0  0  0
  8  9  1  0  0  0
  9 10  2  0  0  0
  9 12  1  0  0  0
 12 13  1  0  0  0
 13 14  1  0  0  0
 12 15  1  0  0  0
 15 16  2  0  0  0
 15 17  1  0  0  0
 17 19  1  0  0  0
 19 20  2  0  0  0
 20 21  1  0  0  0
 21 22  1  0  0  0
 22 23  1  0  0  0
 22 24  1  0  0  0
 24 25  2  0  0  0
  4  5  1  0  0  0
  5  6  2  0  0  0
  6  7  1  0  0  0
 30 31  1  0  0  0
 31 32  2  0  0  0
 32 33  1  0  0  0
 33 34  2  0  0  0
 34 35  1  0  0  0
 35 36  2  0  0  0
 36 39  1  0  0  0
 39 40  1  0  0  0
 40 41  1  0  0  0
 41 42  1  0  0  0
 42 43  1  0  0  0
 43 44  1  0  0  0
 44 45  1  0  0  0
 45 46  1  0  0  0
 46 47  1  0  0  0
 47 48  1  0  0  0
 36 27  1  0  0  0
 48 43  1  0  0  0
 34 29  1  0  0  0
  6  1  1  0  0  0
 14 12  1  0  0  0
 25 19  1  0  0  0
  8 11  1  0  0  0
 17 18  1  0  0  0
M  END
> <minimizedAffinity>
-10.29608

> <CNNscore>
0.3680571914

> <CNNaffinity>
6.9122328758

> <CNN_VS>
2.5440969467

> <CNNaffinity_variance>
0.1145529896

$$$$
[H]C1=C([H])C([H])(F)C([H])([H])C([H])=C1N([H])C(=O)C1(C(=O)N([H])c2c([H])c([H])c(Oc3c([H])c([H])nc4c([H])c(OC([H])([H])C([H])([H])C([H])([H])N5C([H])([H])C([H])([H])C([H])([H])C([H])([H])C5([H])[H])c(OC([H])([H])[H])c([H])c34)c(F)c2[H])C([H])([H])C1([H])[H]


 48 53  0  0  0  0  0  0  0  0999 V2000
   57.4756   -4.0644  -14.6708 C   0  0  0  0  0  0  0  0  0  0  0  0
   58.1993   -3.3810  -13.7169 C   0  0  0  0  0  0  0  0  0  0  0  0
   57.7041   -3.2423  -12.4196 C   0  0  0  0  0  0  0  0  0  0  0  0
   56.5082   -3.7606  -12.0316 C   0  0  0  0  0  0  0  0  0  0  0  0
   55.7824   -4.4467  -12.9916 C   0  0  0  0  0  0  0  0  0  0  0  0
   56.2617   -4.5894  -14.2760 C   0  0  0  0  0  0  0  0  0  0  0  0
   55.4747   -5.2586  -15.1796 F   0  0  0  0  0  0  0  0  0  0  0  0
   55.9341   -3.6236  -10.7360 N   0  0  0  0  0  0  0  0  0  0  0  0
   56.2572   -4.4525   -9.6677 C   0  0  0  0  0  0  0  0  0  0  0  0
   57.1537   -5.3509   -9.9183 O   0  0  0  0  0  0  0  0  0  0  0  0
   55.2655   -2.8060  -10.6696 H   0  0  0  0  0  0  0  0  0  0  0  0
   55.7446   -4.4689   -8.2787 C   0  0  0  0  0  0  0  0  0  0  0  0
   56.3405   -5.5099   -7.3788 C   0  0  0  0  0  0  0  0  0  0  0  0
   56.8292   -4.1220   -7.2854 C   0  0  0  0  0  0  0  0  0  0  0  0
   54.3636   -4.1191   -7.9107 C   0  0  0  0  0  0  0  0  0  0  0  0
   53.9353   -3.0343   -8.5045 O   0  0  0  0  0  0  0  0  0  0  0  0
   53.4929   -4.7625   -7.0428 N   0  0  0  0  0  0  0  0  0  0  0  0
   53.7810   -5.5935   -6.4985 H   0  0  0  0  0  0  0  0  0  0  0  0
   52.1581   -4.2896   -6.8034 C   0  0  0  0  0  0  0  0  0  0  0  0
   51.3658   -4.8737   -5.9266 C   0  0  0  0  0  0  0  0  0  0  0  0
   49.9886   -4.3988   -5.6702 C   0  0  0  0  0  0  0  0  0  0  0  0
   49.5443   -3.2058   -6.4083 C   0  0  0  0  0  0  0  0  0  0  0  0
   49.1619   -2.2284   -5.4702 F   0  0  0  0  0  0  0  0  0  0  0  0
   50.5032   -2.6387   -7.3580 C   0  0  0  0  0  0  0  0  0  0  0  0
   51.7019   -3.1346   -7.5398 C   0  0  0  0  0  0  0  0  0  0  0  0
   57.9442   -4.2142  -15.9653 O   0  0  0  0  0  0  0  0  0  0  0  0
   61.0632   -2.2037  -17.7749 C   0  0  0  0  0  0  0  0  0  0  0  0
   60.0244   -2.8765  -17.1690 C   0  0  0  0  0  0  0  0  0  0  0  0
   58.7240   -2.7181  -17.6077 C   0  0  0  0  0  0  0  0  0  0  0  0
   57.6493   -3.3920  -17.0101 C   0  0  0  0  0  0  0  0  0  0  0  0
   56.3619   -3.2208  -17.4648 C   0  0  0  0  0  0  0  0  0  0  0  0
   56.1187   -2.3696  -18.5287 C   0  0  0  0  0  0  0  0  0  0  0  0
   57.1507   -1.7256  -19.0979 N   0  0  0  0  0  0  0  0  0  0  0  0
   58.4190   -1.8858  -18.6616 C   0  0  0  0  0  0  0  0  0  0  0  0
   59.4767   -1.2130  -19.2634 C   0  0  0  0  0  0  0  0  0  0  0  0
   60.7901   -1.3638  -18.8314 C   0  0  0  0  0  0  0  0  0  0  0  0
   62.7854   -3.5586  -16.7016 C   0  0  0  0  0  0  0  0  0  0  0  0
   62.3738   -2.3591  -17.3386 O   0  0  0  0  0  0  0  0  0  0  0  0
   61.8484   -0.6944  -19.4275 O   0  0  0  0  0  0  0  0  0  0  0  0
   62.4816   -1.3322  -20.5283 C   0  0  0  0  0  0  0  0  0  0  0  0
   63.4411   -0.3421  -21.1719 C   0  0  0  0  0  0  0  0  0  0  0  0
   63.9736    0.5585  -20.1052 C   0  0  0  0  0  0  0  0  0  0  0  0
   64.9551   -0.1186  -19.3155 N   0  0  0  0  0  0  0  0  0  0  0  0
   66.2759    0.0166  -19.9341 C   0  0  0  0  0  0  0  0  0  0  0  0
   67.1532    0.9585  -19.1762 C   0  0  0  0  0  0  0  0  0  0  0  0
   66.4335    2.1800  -18.6453 C   0  0  0  0  0  0  0  0  0  0  0  0
   65.1987    1.8399  -17.8799 C   0  0  0  0  0  0  0  0  0  0  0  0
   64.9870    0.3520  -17.9493 C   0  0  0  0  0  0  0  0  0  0  0  0
 37 38  1  0  0  0
 38 27  1  0  0  0
 27 28  2  0  0  0
 28 29  1  0  0  0
 29 30  2  0  0  0
 30 26  1  0  0  0
 26  1  1  0  0  0
  1  2  2  0  0  0
  2  3  1  0  0  0
  3  4  2  0  0  0
  4  8  1  0  0  0
  8  9  1  0  0  0
  9 10  2  0  0  0
  9 12  1  0  0  0
 12 13  1  0  0  0
 13 14  1  0  0  0
 12 15  1  0  0  0
 15 16  2  0  0  0
 15 17  1  0  0  0
 17 19  1  0  0  0
 19 20  2  0  0  0
 20 21  1  0  0  0
 21 22  1  0  0  0
 22 23  1  0  0  0
 22 24  1  0  0  0
 24 25  2  0  0  0
  4  5  1  0  0  0
  5  6  2  0  0  0
  6  7  1  0  0  0
 30 31  1  0  0  0
 31 32  2  0  0  0
 32 33  1  0  0  0
 33 34  2  0  0  0
 34 35  1  0  0  0
 35 36  2  0  0  0
 36 39  1  0  0  0
 39 40  1  0  0  0
 40 41  1  0  0  0
 41 42  1  0  0  0
 42 43  1  0  0  0
 43 44  1  0  0  0
 44 45  1  0  0  0
 45 46  1  0  0  0
 46 47  1  0  0  0
 47 48  1  0  0  0
 36 27  1  0  0  0
 48 43  1  0  0  0
 34 29  1  0  0  0
  6  1  1  0  0  0
 14 12  1  0  0  0
 25 19  1  0  0  0
  8 11  1  0  0  0
 17 18  1  0  0  0
M  END
> <minimizedAffinity>
-7.38270

> <CNNscore>
0.3184030652

> <CNNaffinity>
7.0229620934

> <CNN_VS>
2.2361326218

> <CNNaffinity_variance>
0.5659304857

$$$$
[H]C1=C([H])C([H])(F)C([H])([H])C([H])=C1N([H])C(=O)C1(C(=O)N([H])c2c([H])c([H])c(Oc3c([H])c([H])nc4c([H])c(OC([H])([H])C([H])([H])C([H])([H])N5C([H])([H])C([H])([H])C([H])([H])C([H])([H])C5([H])[H])c(OC([H])([H])[H])c([H])c34)c(F)c2[H])C([H])([H])C1([H])[H]


 48 53  0  0  0  0  0  0  0  0999 V2000
   51.3468   -5.4162   -5.4723 C   0  0  0  0  0  0  0  0  0  0  0  0
   52.3674   -6.2190   -5.0088 C   0  0  0  0  0  0  0  0  0  0  0  0
   52.4479   -6.5485   -3.6551 C   0  0  0  0  0  0  0  0  0  0  0  0
   51.5461   -6.1069   -2.7379 C   0  0  0  0  0  0  0  0  0  0  0  0
   50.5216   -5.3003   -3.2055 C   0  0  0  0  0  0  0  0  0  0  0  0
   50.4327   -4.9683   -4.5403 C   0  0  0  0  0  0  0  0  0  0  0  0
   49.4057   -4.1429   -4.9250 F   0  0  0  0  0  0  0  0  0  0  0  0
   51.5935   -6.3791   -1.3412 N   0  0  0  0  0  0  0  0  0  0  0  0
   51.3905   -7.6451   -0.8041 C   0  0  0  0  0  0  0  0  0  0  0  0
   51.1863   -8.5850   -1.6694 O   0  0  0  0  0  0  0  0  0  0  0  0
   51.8321   -5.5234   -0.7660 H   0  0  0  0  0  0  0  0  0  0  0  0
   51.3782   -8.0969    0.6059 C   0  0  0  0  0  0  0  0  0  0  0  0
   52.6751   -8.6425    1.1244 C   0  0  0  0  0  0  0  0  0  0  0  0
   52.2974   -7.2582    1.4629 C   0  0  0  0  0  0  0  0  0  0  0  0
   50.2047   -8.6906    1.2659 C   0  0  0  0  0  0  0  0  0  0  0  0
   49.8358   -8.0368    2.3379 O   0  0  0  0  0  0  0  0  0  0  0  0
   49.4715   -9.8153    0.9154 N   0  0  0  0  0  0  0  0  0  0  0  0
   49.7373  -10.4108    0.1126 H   0  0  0  0  0  0  0  0  0  0  0  0
   48.3321  -10.2554    1.6710 C   0  0  0  0  0  0  0  0  0  0  0  0
   47.1094   -9.8711    1.3630 C   0  0  0  0  0  0  0  0  0  0  0  0
   45.9267  -10.3151    2.1323 C   0  0  0  0  0  0  0  0  0  0  0  0
   46.1640  -11.2507    3.2430 C   0  0  0  0  0  0  0  0  0  0  0  0
   45.4050  -12.4123    3.0063 F   0  0  0  0  0  0  0  0  0  0  0  0
   47.5600  -11.6095    3.4991 C   0  0  0  0  0  0  0  0  0  0  0  0
   48.5548  -11.1541    2.7788 C   0  0  0  0  0  0  0  0  0  0  0  0
   51.2460   -5.0735   -6.8102 O   0  0  0  0  0  0  0  0  0  0  0  0
   55.3339   -5.6382   -6.9372 C   0  0  0  0  0  0  0  0  0  0  0  0
   53.9690   -5.4528   -6.8934 C   0  0  0  0  0  0  0  0  0  0  0  0
   53.3846   -4.3414   -7.4696 C   0  0  0  0  0  0  0  0  0  0  0  0
   51.9987   -4.1297   -7.4406 C   0  0  0  0  0  0  0  0  0  0  0  0
   51.4376   -3.0164   -8.0229 C   0  0  0  0  0  0  0  0  0  0  0  0
   52.2507   -2.0868   -8.6477 C   0  0  0  0  0  0  0  0  0  0  0  0
   53.5776   -2.2930   -8.6727 N   0  0  0  0  0  0  0  0  0  0  0  0
   54.1405   -3.3822   -8.1057 C   0  0  0  0  0  0  0  0  0  0  0  0
   55.5162   -3.5817   -8.1421 C   0  0  0  0  0  0  0  0  0  0  0  0
   56.1168   -4.6960   -7.5661 C   0  0  0  0  0  0  0  0  0  0  0  0
   56.3791   -6.7179   -5.0148 C   0  0  0  0  0  0  0  0  0  0  0  0
   55.9280   -6.7544   -6.3599 O   0  0  0  0  0  0  0  0  0  0  0  0
   57.4883   -4.8993   -7.5988 O   0  0  0  0  0  0  0  0  0  0  0  0
   58.0413   -5.3983   -8.8092 C   0  0  0  0  0  0  0  0  0  0  0  0
   59.5537   -5.4650   -8.6563 C   0  0  0  0  0  0  0  0  0  0  0  0
   60.0749   -6.5127   -9.5855 C   0  0  0  0  0  0  0  0  0  0  0  0
   61.5004   -6.5960   -9.5046 N   0  0  0  0  0  0  0  0  0  0  0  0
   61.9106   -6.8303   -8.1181 C   0  0  0  0  0  0  0  0  0  0  0  0
   62.3935   -8.2281   -7.9078 C   0  0  0  0  0  0  0  0  0  0  0  0
   61.5927   -9.2759   -8.6514 C   0  0  0  0  0  0  0  0  0  0  0  0
   61.4287   -8.9614  -10.1008 C   0  0  0  0  0  0  0  0  0  0  0  0
   62.0453   -7.6160  -10.3715 C   0  0  0  0  0  0  0  0  0  0  0  0
 37 38  1  0  0  0
 38 27  1  0  0  0
 27 28  2  0  0  0
 28 29  1  0  0  0
 29 30  2  0  0  0
 30 26  1  0  0  0
 26  1  1  0  0  0
  1  2  2  0  0  0
  2  3  1  0  0  0
  3  4  2  0  0  0
  4  8  1  0  0  0
  8  9  1  0  0  0
  9 10  2  0  0  0
  9 12  1  0  0  0
 12 13  1  0  0  0
 13 14  1  0  0  0
 12 15  1  0  0  0
 15 16  2  0  0  0
 15 17  1  0  0  0
 17 19  1  0  0  0
 19 20  2  0  0  0
 20 21  1  0  0  0
 21 22  1  0  0  0
 22 23  1  0  0  0
 22 24  1  0  0  0
 24 25  2  0  0  0
  4  5  1  0  0  0
  5  6  2  0  0  0
  6  7  1  0  0  0
 30 31  1  0  0  0
 31 32  2  0  0  0
 32 33  1  0  0  0
 33 34  2  0  0  0
 34 35  1  0  0  0
 35 36  2  0  0  0
 36 39  1  0  0  0
 39 40  1  0  0  0
 40 41  1  0  0  0
 41 42  1  0  0  0
 42 43  1  0  0  0
 43 44  1  0  0  0
 44 45  1  0  0  0
 45 46  1  0  0  0
 46 47  1  0  0  0
 47 48  1  0  0  0
 36 27  1  0  0  0
 48 43  1  0  0  0
 34 29  1  0  0  0
  6  1  1  0  0  0
 14 12  1  0  0  0
 25 19  1  0  0  0
  8 11  1  0  0  0
 17 18  1  0  0  0
M  END
> <minimizedAffinity>
-9.54841

> <CNNscore>
0.3134116530

> <CNNaffinity>
7.2853255272

> <CNN_VS>
2.2833058834

> <CNNaffinity_variance>
0.0756463110

$$$$
[H]C1=C([H])C([H])(F)C([H])([H])C([H])=C1N([H])C(=O)C1(C(=O)N([H])c2c([H])c([H])c(Oc3c([H])c([H])nc4c([H])c(OC([H])([H])C([H])([H])C([H])([H])N5C([H])([H])C([H])([H])C([H])([H])C([H])([H])C5([H])[H])c(OC([H])([H])[H])c([H])c34)c(F)c2[H])C([H])([H])C1([H])[H]


 48 53  0  0  0  0  0  0  0  0999 V2000
   55.4975   -5.5036   -5.3585 C   0  0  0  0  0  0  0  0  0  0  0  0
   55.7755   -4.7872   -4.2138 C   0  0  0  0  0  0  0  0  0  0  0  0
   55.1054   -5.0702   -3.0229 C   0  0  0  0  0  0  0  0  0  0  0  0
   54.1623   -6.0452   -2.9259 C   0  0  0  0  0  0  0  0  0  0  0  0
   53.8842   -6.7638   -4.0772 C   0  0  0  0  0  0  0  0  0  0  0  0
   54.5397   -6.4924   -5.2588 C   0  0  0  0  0  0  0  0  0  0  0  0
   54.1919   -7.2276   -6.3644 F   0  0  0  0  0  0  0  0  0  0  0  0
   53.4208   -6.3580   -1.7514 N   0  0  0  0  0  0  0  0  0  0  0  0
   53.8084   -7.3369   -0.8436 C   0  0  0  0  0  0  0  0  0  0  0  0
   54.9229   -7.9336   -1.1183 O   0  0  0  0  0  0  0  0  0  0  0  0
   52.5675   -5.7437   -1.6311 H   0  0  0  0  0  0  0  0  0  0  0  0
   53.1529   -7.8047    0.3990 C   0  0  0  0  0  0  0  0  0  0  0  0
   54.0559   -8.4534    1.4051 C   0  0  0  0  0  0  0  0  0  0  0  0
   53.6553   -7.0490    1.6070 C   0  0  0  0  0  0  0  0  0  0  0  0
   51.7744   -8.3163    0.4556 C   0  0  0  0  0  0  0  0  0  0  0  0
   51.0522   -7.9550   -0.5743 O   0  0  0  0  0  0  0  0  0  0  0  0
   51.1632   -9.0965    1.4267 N   0  0  0  0  0  0  0  0  0  0  0  0
   51.6559   -9.3740    2.2927 H   0  0  0  0  0  0  0  0  0  0  0  0
   49.7963   -9.5243    1.3199 C   0  0  0  0  0  0  0  0  0  0  0  0
   49.4828  -10.7388    0.9144 C   0  0  0  0  0  0  0  0  0  0  0  0
   48.0800  -11.1931    0.7984 C   0  0  0  0  0  0  0  0  0  0  0  0
   47.0331  -10.2405    1.2007 C   0  0  0  0  0  0  0  0  0  0  0  0
   46.2649  -10.8385    2.2175 F   0  0  0  0  0  0  0  0  0  0  0  0
   47.4924   -8.9195    1.6329 C   0  0  0  0  0  0  0  0  0  0  0  0
   48.7589   -8.5900    1.6882 C   0  0  0  0  0  0  0  0  0  0  0  0
   56.1473   -5.2408   -6.5527 O   0  0  0  0  0  0  0  0  0  0  0  0
   58.3291   -5.2505  -10.0577 C   0  0  0  0  0  0  0  0  0  0  0  0
   57.6033   -5.2492   -8.8863 C   0  0  0  0  0  0  0  0  0  0  0  0
   56.3294   -4.7163   -8.8410 C   0  0  0  0  0  0  0  0  0  0  0  0
   55.5691   -4.7039   -7.6628 C   0  0  0  0  0  0  0  0  0  0  0  0
   54.3012   -4.1697   -7.6408 C   0  0  0  0  0  0  0  0  0  0  0  0
   53.7636   -3.6336   -8.7981 C   0  0  0  0  0  0  0  0  0  0  0  0
   54.4953   -3.6470   -9.9243 N   0  0  0  0  0  0  0  0  0  0  0  0
   55.7405   -4.1693   -9.9591 C   0  0  0  0  0  0  0  0  0  0  0  0
   56.4843   -4.1770  -11.1340 C   0  0  0  0  0  0  0  0  0  0  0  0
   57.7674   -4.7103  -11.1930 C   0  0  0  0  0  0  0  0  0  0  0  0
   60.2762   -6.1843   -8.9217 C   0  0  0  0  0  0  0  0  0  0  0  0
   59.6109   -5.7855  -10.1102 O   0  0  0  0  0  0  0  0  0  0  0  0
   58.5137   -4.7196  -12.3620 O   0  0  0  0  0  0  0  0  0  0  0  0
   58.8129   -3.4610  -12.9504 C   0  0  0  0  0  0  0  0  0  0  0  0
   60.2401   -3.5023  -13.4763 C   0  0  0  0  0  0  0  0  0  0  0  0
   60.2124   -3.1918  -14.9376 C   0  0  0  0  0  0  0  0  0  0  0  0
   61.5032   -2.7742  -15.3901 N   0  0  0  0  0  0  0  0  0  0  0  0
   62.5384   -3.2768  -14.4839 C   0  0  0  0  0  0  0  0  0  0  0  0
   63.3216   -4.3922  -15.0953 C   0  0  0  0  0  0  0  0  0  0  0  0
   62.4867   -5.3595  -15.9072 C   0  0  0  0  0  0  0  0  0  0  0  0
   61.6211   -4.6774  -16.9132 C   0  0  0  0  0  0  0  0  0  0  0  0
   61.7752   -3.1901  -16.7473 C   0  0  0  0  0  0  0  0  0  0  0  0
 37 38  1  0  0  0
 38 27  1  0  0  0
 27 28  2  0  0  0
 28 29  1  0  0  0
 29 30  2  0  0  0
 30 26  1  0  0  0
 26  1  1  0  0  0
  1  2  2  0  0  0
  2  3  1  0  0  0
  3  4  2  0  0  0
  4  8  1  0  0  0
  8  9  1  0  0  0
  9 10  2  0  0  0
  9 12  1  0  0  0
 12 13  1  0  0  0
 13 14  1  0  0  0
 12 15  1  0  0  0
 15 16  2  0  0  0
 15 17  1  0  0  0
 17 19  1  0  0  0
 19 20  2  0  0  0
 20 21  1  0  0  0
 21 22  1  0  0  0
 22 23  1  0  0  0
 22 24  1  0  0  0
 24 25  2  0  0  0
  4  5  1  0  0  0
  5  6  2  0  0  0
  6  7  1  0  0  0
 30 31  1  0  0  0
 31 32  2  0  0  0
 32 33  1  0  0  0
 33 34  2  0  0  0
 34 35  1  0  0  0
 35 36  2  0  0  0
 36 39  1  0  0  0
 39 40  1  0  0  0
 40 41  1  0  0  0
 41 42  1  0  0  0
 42 43  1  0  0  0
 43 44  1  0  0  0
 44 45  1  0  0  0
 45 46  1  0  0  0
 46 47  1  0  0  0
 47 48  1  0  0  0
 36 27  1  0  0  0
 48 43  1  0  0  0
 34 29  1  0  0  0
  6  1  1  0  0  0
 14 12  1  0  0  0
 25 19  1  0  0  0
  8 11  1  0  0  0
 17 18  1  0  0  0
M  END
> <minimizedAffinity>
-9.47169

> <CNNscore>
0.3107818067

> <CNNaffinity>
6.8541593552

> <CNN_VS>
2.1301479340

> <CNNaffinity_variance>
0.1170987934

$$$$
[H]C1=C([H])C([H])(F)C([H])([H])C([H])=C1N([H])C(=O)C1(C(=O)N([H])c2c([H])c([H])c(Oc3c([H])c([H])nc4c([H])c(OC([H])([H])C([H])([H])C([H])([H])N5C([H])([H])C([H])([H])C([H])([H])C([H])([H])C5([H])[H])c(OC([H])([H])[H])c([H])c34)c(F)c2[H])C([H])([H])C1([H])[H]


 48 53  0  0  0  0  0  0  0  0999 V2000
   51.4829   -5.7790   -4.7954 C   0  0  0  0  0  0  0  0  0  0  0  0
   52.7052   -6.3329   -4.4791 C   0  0  0  0  0  0  0  0  0  0  0  0
   53.0743   -6.5157   -3.1458 C   0  0  0  0  0  0  0  0  0  0  0  0
   52.2689   -6.1662   -2.1072 C   0  0  0  0  0  0  0  0  0  0  0  0
   51.0412   -5.6096   -2.4271 C   0  0  0  0  0  0  0  0  0  0  0  0
   50.6668   -5.4241   -3.7404 C   0  0  0  0  0  0  0  0  0  0  0  0
   49.4469   -4.8421   -3.9796 F   0  0  0  0  0  0  0  0  0  0  0  0
   52.6018   -6.2950   -0.7290 N   0  0  0  0  0  0  0  0  0  0  0  0
   53.8091   -5.8620   -0.1929 C   0  0  0  0  0  0  0  0  0  0  0  0
   54.6126   -5.2928   -1.0320 O   0  0  0  0  0  0  0  0  0  0  0  0
   51.8201   -6.7227   -0.1580 H   0  0  0  0  0  0  0  0  0  0  0  0
   54.3246   -5.9394    1.1930 C   0  0  0  0  0  0  0  0  0  0  0  0
   53.3110   -5.7203    2.2762 C   0  0  0  0  0  0  0  0  0  0  0  0
   53.7148   -7.0991    1.9454 C   0  0  0  0  0  0  0  0  0  0  0  0
   55.6801   -5.5246    1.5874 C   0  0  0  0  0  0  0  0  0  0  0  0
   56.0305   -5.9756    2.7650 O   0  0  0  0  0  0  0  0  0  0  0  0
   56.5967   -4.7409    0.9011 N   0  0  0  0  0  0  0  0  0  0  0  0
   56.3685   -4.3064   -0.0094 H   0  0  0  0  0  0  0  0  0  0  0  0
   57.8971   -4.4384    1.4304 C   0  0  0  0  0  0  0  0  0  0  0  0
   58.9868   -5.0019    0.9480 C   0  0  0  0  0  0  0  0  0  0  0  0
   60.3324   -4.7013    1.4834 C   0  0  0  0  0  0  0  0  0  0  0  0
   60.4157   -3.7021    2.5604 C   0  0  0  0  0  0  0  0  0  0  0  0
   61.2699   -2.6682    2.1328 F   0  0  0  0  0  0  0  0  0  0  0  0
   59.1447   -3.1413    3.0218 C   0  0  0  0  0  0  0  0  0  0  0  0
   57.9894   -3.4779    2.5043 C   0  0  0  0  0  0  0  0  0  0  0  0
   51.0943   -5.5856   -6.1103 O   0  0  0  0  0  0  0  0  0  0  0  0
   54.7073   -4.8252   -7.9577 C   0  0  0  0  0  0  0  0  0  0  0  0
   53.5024   -5.0821   -7.3403 C   0  0  0  0  0  0  0  0  0  0  0  0
   52.4562   -4.1836   -7.4232 C   0  0  0  0  0  0  0  0  0  0  0  0
   51.2198   -4.4215   -6.8059 C   0  0  0  0  0  0  0  0  0  0  0  0
   50.1905   -3.5135   -6.9033 C   0  0  0  0  0  0  0  0  0  0  0  0
   50.3743   -2.3441   -7.6204 C   0  0  0  0  0  0  0  0  0  0  0  0
   51.5602   -2.1198   -8.2097 N   0  0  0  0  0  0  0  0  0  0  0  0
   52.5780   -3.0036   -8.1224 C   0  0  0  0  0  0  0  0  0  0  0  0
   53.7992   -2.7570   -8.7402 C   0  0  0  0  0  0  0  0  0  0  0  0
   54.8600   -3.6531   -8.6643 C   0  0  0  0  0  0  0  0  0  0  0  0
   56.6660   -5.6851   -6.7840 C   0  0  0  0  0  0  0  0  0  0  0  0
   55.7636   -5.7252   -7.8785 O   0  0  0  0  0  0  0  0  0  0  0  0
   56.0802   -3.4116   -9.2778 O   0  0  0  0  0  0  0  0  0  0  0  0
   56.5120   -4.3495  -10.2544 C   0  0  0  0  0  0  0  0  0  0  0  0
   55.7153   -4.1180  -11.5298 C   0  0  0  0  0  0  0  0  0  0  0  0
   56.6350   -3.5538  -12.5634 C   0  0  0  0  0  0  0  0  0  0  0  0
   57.1478   -4.5911  -13.4040 N   0  0  0  0  0  0  0  0  0  0  0  0
   56.0550   -5.2129  -14.1555 C   0  0  0  0  0  0  0  0  0  0  0  0
   56.0782   -4.8249  -15.5978 C   0  0  0  0  0  0  0  0  0  0  0  0
   56.4397   -3.3750  -15.8408 C   0  0  0  0  0  0  0  0  0  0  0  0
   57.6899   -2.9623  -15.1387 C   0  0  0  0  0  0  0  0  0  0  0  0
   58.1740   -4.1171  -14.3047 C   0  0  0  0  0  0  0  0  0  0  0  0
 37 38  1  0  0  0
 38 27  1  0  0  0
 27 28  2  0  0  0
 28 29  1  0  0  0
 29 30  2  0  0  0
 30 26  1  0  0  0
 26  1  1  0  0  0
  1  2  2  0  0  0
  2  3  1  0  0  0
  3  4  2  0  0  0
  4  8  1  0  0  0
  8  9  1  0  0  0
  9 10  2  0  0  0
  9 12  1  0  0  0
 12 13  1  0  0  0
 13 14  1  0  0  0
 12 15  1  0  0  0
 15 16  2  0  0  0
 15 17  1  0  0  0
 17 19  1  0  0  0
 19 20  2  0  0  0
 20 21  1  0  0  0
 21 22  1  0  0  0
 22 23  1  0  0  0
 22 24  1  0  0  0
 24 25  2  0  0  0
  4  5  1  0  0  0
  5  6  2  0  0  0
  6  7  1  0  0  0
 30 31  1  0  0  0
 31 32  2  0  0  0
 32 33  1  0  0  0
 33 34  2  0  0  0
 34 35  1  0  0  0
 35 36  2  0  0  0
 36 39  1  0  0  0
 39 40  1  0  0  0
 40 41  1  0  0  0
 41 42  1  0  0  0
 42 43  1  0  0  0
 43 44  1  0  0  0
 44 45  1  0  0  0
 45 46  1  0  0  0
 46 47  1  0  0  0
 47 48  1  0  0  0
 36 27  1  0  0  0
 48 43  1  0  0  0
 34 29  1  0  0  0
  6  1  1  0  0  0
 14 12  1  0  0  0
 25 19  1  0  0  0
  8 11  1  0  0  0
 17 18  1  0  0  0
M  END
> <minimizedAffinity>
-9.34689

> <CNNscore>
0.3086848259

> <CNNaffinity>
7.5251207352

> <CNN_VS>
2.3228905201

> <CNNaffinity_variance>
0.0740915760

$$$$
[H]C1=C([H])C([H])(F)C([H])([H])C([H])=C1N([H])C(=O)C1(C(=O)N([H])c2c([H])c([H])c(Oc3c([H])c([H])nc4c([H])c(OC([H])([H])C([H])([H])C([H])([H])N5C([H])([H])C([H])([H])C([H])([H])C([H])([H])C5([H])[H])c(OC([H])([H])[H])c([H])c34)c(F)c2[H])C([H])([H])C1([H])[H]


 48 53  0  0  0  0  0  0  0  0999 V2000
   50.2445   -5.3494   -4.8598 C   0  0  0  0  0  0  0  0  0  0  0  0
   51.0697   -6.4439   -4.7118 C   0  0  0  0  0  0  0  0  0  0  0  0
   51.4821   -6.8513   -3.4424 C   0  0  0  0  0  0  0  0  0  0  0  0
   51.1028   -6.2073   -2.3062 C   0  0  0  0  0  0  0  0  0  0  0  0
   50.2738   -5.1077   -2.4570 C   0  0  0  0  0  0  0  0  0  0  0  0
   49.8608   -4.6964   -3.7059 C   0  0  0  0  0  0  0  0  0  0  0  0
   49.0622   -3.5825   -3.7786 F   0  0  0  0  0  0  0  0  0  0  0  0
   51.5167   -6.5524   -0.9884 N   0  0  0  0  0  0  0  0  0  0  0  0
   52.8385   -6.8179   -0.6497 C   0  0  0  0  0  0  0  0  0  0  0  0
   53.6905   -6.6964   -1.6157 O   0  0  0  0  0  0  0  0  0  0  0  0
   50.7170   -6.5506   -0.2953 H   0  0  0  0  0  0  0  0  0  0  0  0
   53.4346   -7.2118    0.6472 C   0  0  0  0  0  0  0  0  0  0  0  0
   52.4607   -7.6108    1.7153 C   0  0  0  0  0  0  0  0  0  0  0  0
   53.1639   -8.6647    0.9613 C   0  0  0  0  0  0  0  0  0  0  0  0
   54.6712   -6.6288    1.1914 C   0  0  0  0  0  0  0  0  0  0  0  0
   54.5267   -6.1664    2.4072 O   0  0  0  0  0  0  0  0  0  0  0  0
   55.9210   -6.5045    0.6014 N   0  0  0  0  0  0  0  0  0  0  0  0
   56.0943   -6.7984   -0.3750 H   0  0  0  0  0  0  0  0  0  0  0  0
   57.0377   -5.9142    1.2849 C   0  0  0  0  0  0  0  0  0  0  0  0
   58.1148   -6.6144    1.5800 C   0  0  0  0  0  0  0  0  0  0  0  0
   59.2720   -6.0207    2.2845 C   0  0  0  0  0  0  0  0  0  0  0  0
   59.1939   -4.5876    2.6090 C   0  0  0  0  0  0  0  0  0  0  0  0
   60.2922   -3.9428    2.0095 F   0  0  0  0  0  0  0  0  0  0  0  0
   57.9518   -3.9074    2.2383 C   0  0  0  0  0  0  0  0  0  0  0  0
   56.9627   -4.5145    1.6309 C   0  0  0  0  0  0  0  0  0  0  0  0
   49.8229   -4.9241   -6.1084 O   0  0  0  0  0  0  0  0  0  0  0  0
   53.5834   -5.3046   -7.7695 C   0  0  0  0  0  0  0  0  0  0  0  0
   52.3283   -5.1809   -7.2142 C   0  0  0  0  0  0  0  0  0  0  0  0
   51.6071   -4.0096   -7.3433 C   0  0  0  0  0  0  0  0  0  0  0  0
   50.3277   -3.8583   -6.7896 C   0  0  0  0  0  0  0  0  0  0  0  0
   49.6261   -2.6832   -6.9322 C   0  0  0  0  0  0  0  0  0  0  0  0
   50.1889   -1.6300   -7.6320 C   0  0  0  0  0  0  0  0  0  0  0  0
   51.4147   -1.7789   -8.1603 N   0  0  0  0  0  0  0  0  0  0  0  0
   52.1131   -2.9275   -8.0282 C   0  0  0  0  0  0  0  0  0  0  0  0
   53.3807   -3.0660   -8.5830 C   0  0  0  0  0  0  0  0  0  0  0  0
   54.1169   -4.2395   -8.4603 C   0  0  0  0  0  0  0  0  0  0  0  0
   54.0464   -7.3872   -6.5853 C   0  0  0  0  0  0  0  0  0  0  0  0
   54.3140   -6.4804   -7.6437 O   0  0  0  0  0  0  0  0  0  0  0  0
   55.3818   -4.3824   -9.0109 O   0  0  0  0  0  0  0  0  0  0  0  0
   56.4837   -4.3813   -8.1134 C   0  0  0  0  0  0  0  0  0  0  0  0
   56.0853   -3.6120   -6.8626 C   0  0  0  0  0  0  0  0  0  0  0  0
   56.7603   -4.2419   -5.6877 C   0  0  0  0  0  0  0  0  0  0  0  0
   56.0136   -5.3684   -5.2199 N   0  0  0  0  0  0  0  0  0  0  0  0
   56.9201   -6.4766   -4.9106 C   0  0  0  0  0  0  0  0  0  0  0  0
   57.0608   -6.6881   -3.4386 C   0  0  0  0  0  0  0  0  0  0  0  0
   57.1238   -5.4069   -2.6345 C   0  0  0  0  0  0  0  0  0  0  0  0
   56.0102   -4.4661   -2.9524 C   0  0  0  0  0  0  0  0  0  0  0  0
   55.1940   -5.0514   -4.0725 C   0  0  0  0  0  0  0  0  0  0  0  0
 37 38  1  0  0  0
 38 27  1  0  0  0
 27 28  2  0  0  0
 28 29  1  0  0  0
 29 30  2  0  0  0
 30 26  1  0  0  0
 26  1  1  0  0  0
  1  2  2  0  0  0
  2  3  1  0  0  0
  3  4  2  0  0  0
  4  8  1  0  0  0
  8  9  1  0  0  0
  9 10  2  0  0  0
  9 12  1  0  0  0
 12 13  1  0  0  0
 13 14  1  0  0  0
 12 15  1  0  0  0
 15 16  2  0  0  0
 15 17  1  0  0  0
 17 19  1  0  0  0
 19 20  2  0  0  0
 20 21  1  0  0  0
 21 22  1  0  0  0
 22 23  1  0  0  0
 22 24  1  0  0  0
 24 25  2  0  0  0
  4  5  1  0  0  0
  5  6  2  0  0  0
  6  7  1  0  0  0
 30 31  1  0  0  0
 31 32  2  0  0  0
 32 33  1  0  0  0
 33 34  2  0  0  0
 34 35  1  0  0  0
 35 36  2  0  0  0
 36 39  1  0  0  0
 39 40  1  0  0  0
 40 41  1  0  0  0
 41 42  1  0  0  0
 42 43  1  0  0  0
 43 44  1  0  0  0
 44 45  1  0  0  0
 45 46  1  0  0  0
 46 47  1  0  0  0
 47 48  1  0  0  0
 36 27  1  0  0  0
 48 43  1  0  0  0
 34 29  1  0  0  0
  6  1  1  0  0  0
 14 12  1  0  0  0
 25 19  1  0  0  0
  8 11  1  0  0  0
 17 18  1  0  0  0
M  END
> <minimizedAffinity>
-7.78112

> <CNNscore>
0.2937891781

> <CNNaffinity>
7.9677362442

> <CNN_VS>
2.3408346176

> <CNNaffinity_variance>
0.1513487101

$$$$
[H]C1=C([H])C([H])(F)C([H])([H])C([H])=C1N([H])C(=O)C1(C(=O)N([H])c2c([H])c([H])c(Oc3c([H])c([H])nc4c([H])c(OC([H])([H])C([H])([H])C([H])([H])N5C([H])([H])C([H])([H])C([H])([H])C([H])([H])C5([H])[H])c(OC([H])([H])[H])c([H])c34)c(F)c2[H])C([H])([H])C1([H])[H]


 48 53  0  0  0  0  0  0  0  0999 V2000
   54.7726   -5.7246   -4.8615 C   0  0  0  0  0  0  0  0  0  0  0  0
   55.9211   -5.0008   -4.6206 C   0  0  0  0  0  0  0  0  0  0  0  0
   56.3281   -4.7363   -3.3123 C   0  0  0  0  0  0  0  0  0  0  0  0
   55.6318   -5.1667   -2.2263 C   0  0  0  0  0  0  0  0  0  0  0  0
   54.4780   -5.8935   -2.4704 C   0  0  0  0  0  0  0  0  0  0  0  0
   54.0666   -6.1602   -3.7585 C   0  0  0  0  0  0  0  0  0  0  0  0
   52.8990   -6.8630   -3.9224 F   0  0  0  0  0  0  0  0  0  0  0  0
   55.9756   -4.9004   -0.8706 N   0  0  0  0  0  0  0  0  0  0  0  0
   56.9840   -5.5762   -0.1933 C   0  0  0  0  0  0  0  0  0  0  0  0
   57.6261   -6.4544   -0.8935 O   0  0  0  0  0  0  0  0  0  0  0  0
   55.4051   -4.1139   -0.4512 H   0  0  0  0  0  0  0  0  0  0  0  0
   57.4511   -5.4477    1.2059 C   0  0  0  0  0  0  0  0  0  0  0  0
   56.5718   -4.6391    2.1125 C   0  0  0  0  0  0  0  0  0  0  0  0
   56.4954   -6.1103    2.1706 C   0  0  0  0  0  0  0  0  0  0  0  0
   58.8692   -5.4005    1.5954 C   0  0  0  0  0  0  0  0  0  0  0  0
   59.0666   -5.7249    2.8478 O   0  0  0  0  0  0  0  0  0  0  0  0
   59.9808   -5.0625    0.8367 N   0  0  0  0  0  0  0  0  0  0  0  0
   59.8951   -4.7444   -0.1438 H   0  0  0  0  0  0  0  0  0  0  0  0
   61.3123   -5.0806    1.3747 C   0  0  0  0  0  0  0  0  0  0  0  0
   62.1193   -6.1056    1.1855 C   0  0  0  0  0  0  0  0  0  0  0  0
   63.4924   -6.1391    1.7342 C   0  0  0  0  0  0  0  0  0  0  0  0
   63.9468   -4.9499    2.4722 C   0  0  0  0  0  0  0  0  0  0  0  0
   65.1071   -4.4612    1.8425 F   0  0  0  0  0  0  0  0  0  0  0  0
   62.9692   -3.8711    2.6250 C   0  0  0  0  0  0  0  0  0  0  0  0
   61.7612   -3.9297    2.1220 C   0  0  0  0  0  0  0  0  0  0  0  0
   54.3466   -5.9987   -6.1503 O   0  0  0  0  0  0  0  0  0  0  0  0
   56.5603   -4.7115   -9.3888 C   0  0  0  0  0  0  0  0  0  0  0  0
   55.8239   -5.1434   -8.3071 C   0  0  0  0  0  0  0  0  0  0  0  0
   54.5419   -4.6767   -8.0890 C   0  0  0  0  0  0  0  0  0  0  0  0
   53.7708   -5.1012   -6.9974 C   0  0  0  0  0  0  0  0  0  0  0  0
   52.4950   -4.6248   -6.8006 C   0  0  0  0  0  0  0  0  0  0  0  0
   51.9602   -3.7105   -7.6915 C   0  0  0  0  0  0  0  0  0  0  0  0
   52.7023   -3.3061   -8.7353 N   0  0  0  0  0  0  0  0  0  0  0  0
   53.9553   -3.7670   -8.9402 C   0  0  0  0  0  0  0  0  0  0  0  0
   54.7098   -3.3395  -10.0272 C   0  0  0  0  0  0  0  0  0  0  0  0
   56.0011   -3.8015  -10.2580 C   0  0  0  0  0  0  0  0  0  0  0  0
   58.6889   -5.5362   -8.5269 C   0  0  0  0  0  0  0  0  0  0  0  0
   57.8504   -5.1775   -9.6142 O   0  0  0  0  0  0  0  0  0  0  0  0
   56.7581   -3.3777  -11.3401 O   0  0  0  0  0  0  0  0  0  0  0  0
   56.5267   -4.0220  -12.5856 C   0  0  0  0  0  0  0  0  0  0  0  0
   57.8327   -4.0450  -13.3659 C   0  0  0  0  0  0  0  0  0  0  0  0
   57.6453   -3.2554  -14.6205 C   0  0  0  0  0  0  0  0  0  0  0  0
   57.4314   -4.1235  -15.7368 N   0  0  0  0  0  0  0  0  0  0  0  0
   56.1039   -3.8862  -16.3086 C   0  0  0  0  0  0  0  0  0  0  0  0
   56.1799   -3.1693  -17.6168 C   0  0  0  0  0  0  0  0  0  0  0  0
   57.2337   -2.0835  -17.6649 C   0  0  0  0  0  0  0  0  0  0  0  0
   58.5760   -2.5563  -17.2166 C   0  0  0  0  0  0  0  0  0  0  0  0
   58.4508   -3.9816  -16.7516 C   0  0  0  0  0  0  0  0  0  0  0  0
 37 38  1  0  0  0
 38 27  1  0  0  0
 27 28  2  0  0  0
 28 29  1  0  0  0
 29 30  2  0  0  0
 30 26  1  0  0  0
 26  1  1  0  0  0
  1  2  2  0  0  0
  2  3  1  0  0  0
  3  4  2  0  0  0
  4  8  1  0  0  0
  8  9  1  0  0  0
  9 10  2  0  0  0
  9 12  1  0  0  0
 12 13  1  0  0  0
 13 14  1  0  0  0
 12 15  1  0  0  0
 15 16  2  0  0  0
 15 17  1  0  0  0
 17 19  1  0  0  0
 19 20  2  0  0  0
 20 21  1  0  0  0
 21 22  1  0  0  0
 22 23  1  0  0  0
 22 24  1  0  0  0
 24 25  2  0  0  0
  4  5  1  0  0  0
  5  6  2  0  0  0
  6  7  1  0  0  0
 30 31  1  0  0  0
 31 32  2  0  0  0
 32 33  1  0  0  0
 33 34  2  0  0  0
 34 35  1  0  0  0
 35 36  2  0  0  0
 36 39  1  0  0  0
 39 40  1  0  0  0
 40 41  1  0  0  0
 41 42  1  0  0  0
 42 43  1  0  0  0
 43 44  1  0  0  0
 44 45  1  0  0  0
 45 46  1  0  0  0
 46 47  1  0  0  0
 47 48  1  0  0  0
 36 27  1  0  0  0
 48 43  1  0  0  0
 34 29  1  0  0  0
  6  1  1  0  0  0
 14 12  1  0  0  0
 25 19  1  0  0  0
  8 11  1  0  0  0
 17 18  1  0  0  0
M  END
> <minimizedAffinity>
-7.89236

> <CNNscore>
0.2387817204

> <CNNaffinity>
6.9258294106

> <CNN_VS>
1.6537615061

> <CNNaffinity_variance>
0.1734379381

$$$$
[H]c1nn(C([H])([H])[H])c([H])c1-c1c([H])c([H])c2c(nc([H])n2-c2sc(C(=O)N([H])[H])c(O[C@@]([H])(c3c([H])c([H])c([H])c([H])c3Cl)C([H])([H])[H])c2[H])c1[H]


 35 39  0  0  0  0  0  0  0  0999 V2000
   50.7973   -4.5674   -4.8208 C   0  0  0  0  0  0  0  0  0  0  0  0
   51.7575   -4.5617   -5.7558 C   0  0  0  0  0  0  0  0  0  0  0  0
   51.5730   -3.8048   -6.8642 C   0  0  0  0  0  0  0  0  0  0  0  0
   50.0409   -3.1012   -6.5835 S   0  0  0  0  0  0  0  0  0  0  0  0
   49.6880   -3.7942   -5.0658 C   0  0  0  0  0  0  0  0  0  0  0  0
   52.4374   -3.6217   -8.0056 N   0  0  0  0  0  0  0  0  0  0  0  0
   52.0738   -2.9315   -9.1016 C   0  0  0  0  0  0  0  0  0  0  0  0
   53.0716   -2.9237  -10.0019 N   0  0  0  0  0  0  0  0  0  0  0  0
   54.0990   -3.6256   -9.4702 C   0  0  0  0  0  0  0  0  0  0  0  0
   55.3486   -3.9269   -9.9588 C   0  0  0  0  0  0  0  0  0  0  0  0
   56.2129   -4.6766   -9.1845 C   0  0  0  0  0  0  0  0  0  0  0  0
   55.8086   -5.1043   -7.9476 C   0  0  0  0  0  0  0  0  0  0  0  0
   54.5335   -4.7900   -7.4631 C   0  0  0  0  0  0  0  0  0  0  0  0
   53.6717   -4.0523   -8.2149 C   0  0  0  0  0  0  0  0  0  0  0  0
   57.5425   -4.9975   -9.7074 C   0  0  0  0  0  0  0  0  0  0  0  0
   58.0457   -4.7425  -10.9593 C   0  0  0  0  0  0  0  0  0  0  0  0
   59.3044   -5.2135  -10.9802 N   0  0  0  0  0  0  0  0  0  0  0  0
   59.6131   -5.7467   -9.8131 N   0  0  0  0  0  0  0  0  0  0  0  0
   60.8619   -6.3621   -9.4119 C   0  0  0  0  0  0  0  0  0  0  0  0
   58.5440   -5.6276   -9.0073 C   0  0  0  0  0  0  0  0  0  0  0  0
   48.4891   -3.5876   -4.2624 C   0  0  0  0  0  0  0  0  0  0  0  0
   48.0336   -4.5429   -3.3248 N   0  0  0  0  0  0  0  0  0  0  0  0
   47.8403   -2.5311   -4.4057 O   0  0  0  0  0  0  0  0  0  0  0  0
   47.0836   -4.9698   -3.3572 H   0  0  0  0  0  0  0  0  0  0  0  0
   48.6791   -4.8340   -2.5653 H   0  0  0  0  0  0  0  0  0  0  0  0
   50.8356   -5.3032   -3.6063 O   0  0  0  0  0  0  0  0  0  0  0  0
   50.8390   -7.3680   -2.4833 C   0  0  0  0  0  0  0  0  0  0  0  0
   51.6377   -6.4174   -3.3842 C   0  0  0  0  0  0  0  0  0  0  0  0
   52.8908   -6.0192   -2.7400 C   0  0  0  0  0  0  0  0  0  0  0  0
   52.9403   -5.3885   -1.5041 C   0  0  0  0  0  0  0  0  0  0  0  0
   54.1004   -5.0050   -0.8857 C   0  0  0  0  0  0  0  0  0  0  0  0
   55.3025   -5.2458   -1.5021 C   0  0  0  0  0  0  0  0  0  0  0  0
   55.2864   -5.8701   -2.7292 C   0  0  0  0  0  0  0  0  0  0  0  0
   54.0934   -6.2578   -3.3517 C   0  0  0  0  0  0  0  0  0  0  0  0
   54.2610   -7.0356   -4.8959 Cl  0  0  0  0  0  0  0  0  0  0  0  0
 27 28  1  0  0  0
 28 26  1  0  0  0
 26  1  1  0  0  0
  1  2  1  0  0  0
  2  3  2  0  0  0
  3  4  1  0  0  0
  4  5  1  0  0  0
  5 21  1  0  0  0
 21 22  1  0  0  0
 21 23  2  0  0  0
  3  6  1  0  0  0
  6  7  1  0  0  0
  7  8  2  0  0  0
  8  9  1  0  0  0
  9 10  2  0  0  0
 10 11  1  0  0  0
 11 12  2  0  0  0
 12 13  1  0  0  0
 13 14  2  0  0  0
 11 15  1  0  0  0
 15 16  1  0  0  0
 16 17  2  0  0  0
 17 18  1  0  0  0
 18 19  1  0  0  0
 18 20  1  0  0  0
 28 29  1  0  0  0
 29 30  2  0  0  0
 30 31  1  0  0  0
 31 32  2  0  0  0
 32 33  1  0  0  0
 33 34  2  0  0  0
 34 35  1  0  0  0
  5  1  2  0  0  0
 14  6  1  0  0  0
 20 15  2  0  0  0
 34 29  1  0  0  0
 14  9  1  0  0  0
 22 24  1  0  0  0
 22 25  1  0  0  0
M  END
> <minimizedAffinity>
-9.74520

> <CNNscore>
0.6595780849

> <CNNaffinity>
7.9421982765

> <CNN_VS>
5.2385001183

> <CNNaffinity_variance>
0.1679745018

$$$$
[H]c1nn(C([H])([H])[H])c([H])c1-c1c([H])c([H])c2c(nc([H])n2-c2sc(C(=O)N([H])[H])c(O[C@@]([H])(c3c([H])c([H])c([H])c([H])c3Cl)C([H])([H])[H])c2[H])c1[H]


 35 39  0  0  0  0  0  0  0  0999 V2000
   56.6988   -5.4597   -7.2459 C   0  0  0  0  0  0  0  0  0  0  0  0
   55.4718   -4.9998   -6.9646 C   0  0  0  0  0  0  0  0  0  0  0  0
   54.7786   -4.3720   -7.9448 C   0  0  0  0  0  0  0  0  0  0  0  0
   55.8630   -4.4323   -9.2645 S   0  0  0  0  0  0  0  0  0  0  0  0
   57.1607   -5.2542   -8.5237 C   0  0  0  0  0  0  0  0  0  0  0  0
   53.4572   -3.7921   -7.9084 N   0  0  0  0  0  0  0  0  0  0  0  0
   52.9927   -2.9579   -8.8561 C   0  0  0  0  0  0  0  0  0  0  0  0
   51.7377   -2.5738   -8.5668 N   0  0  0  0  0  0  0  0  0  0  0  0
   51.3898   -3.1762   -7.4061 C   0  0  0  0  0  0  0  0  0  0  0  0
   50.2318   -3.1321   -6.6659 C   0  0  0  0  0  0  0  0  0  0  0  0
   50.1509   -3.8625   -5.4960 C   0  0  0  0  0  0  0  0  0  0  0  0
   51.2240   -4.6147   -5.0973 C   0  0  0  0  0  0  0  0  0  0  0  0
   52.3965   -4.6499   -5.8610 C   0  0  0  0  0  0  0  0  0  0  0  0
   52.4903   -3.9357   -7.0155 C   0  0  0  0  0  0  0  0  0  0  0  0
   48.9173   -3.8129   -4.7086 C   0  0  0  0  0  0  0  0  0  0  0  0
   48.4123   -4.7690   -3.8622 C   0  0  0  0  0  0  0  0  0  0  0  0
   47.2632   -4.2835   -3.3620 N   0  0  0  0  0  0  0  0  0  0  0  0
   47.0243   -3.0803   -3.8485 N   0  0  0  0  0  0  0  0  0  0  0  0
   45.9012   -2.2083   -3.5699 C   0  0  0  0  0  0  0  0  0  0  0  0
   48.0292   -2.7636   -4.6830 C   0  0  0  0  0  0  0  0  0  0  0  0
   58.4305   -5.6256   -9.1362 C   0  0  0  0  0  0  0  0  0  0  0  0
   59.5503   -6.0259   -8.3713 N   0  0  0  0  0  0  0  0  0  0  0  0
   58.5351   -5.5897  -10.3794 O   0  0  0  0  0  0  0  0  0  0  0  0
   60.4753   -5.5484   -8.4164 H   0  0  0  0  0  0  0  0  0  0  0  0
   59.4451   -6.8372   -7.7318 H   0  0  0  0  0  0  0  0  0  0  0  0
   57.5524   -6.1376   -6.3350 O   0  0  0  0  0  0  0  0  0  0  0  0
   55.6421   -7.3117   -5.6301 C   0  0  0  0  0  0  0  0  0  0  0  0
   57.1135   -6.9957   -5.3325 C   0  0  0  0  0  0  0  0  0  0  0  0
   57.2544   -6.3579   -4.0221 C   0  0  0  0  0  0  0  0  0  0  0  0
   56.3652   -5.4050   -3.5436 C   0  0  0  0  0  0  0  0  0  0  0  0
   56.4804   -4.7940   -2.3235 C   0  0  0  0  0  0  0  0  0  0  0  0
   57.5291   -5.1240   -1.5024 C   0  0  0  0  0  0  0  0  0  0  0  0
   58.4282   -6.0664   -1.9488 C   0  0  0  0  0  0  0  0  0  0  0  0
   58.2999   -6.6845   -3.1989 C   0  0  0  0  0  0  0  0  0  0  0  0
   59.5234   -7.8513   -3.5977 Cl  0  0  0  0  0  0  0  0  0  0  0  0
 27 28  1  0  0  0
 28 26  1  0  0  0
 26  1  1  0  0  0
  1  2  1  0  0  0
  2  3  2  0  0  0
  3  4  1  0  0  0
  4  5  1  0  0  0
  5 21  1  0  0  0
 21 22  1  0  0  0
 21 23  2  0  0  0
  3  6  1  0  0  0
  6  7  1  0  0  0
  7  8  2  0  0  0
  8  9  1  0  0  0
  9 10  2  0  0  0
 10 11  1  0  0  0
 11 12  2  0  0  0
 12 13  1  0  0  0
 13 14  2  0  0  0
 11 15  1  0  0  0
 15 16  1  0  0  0
 16 17  2  0  0  0
 17 18  1  0  0  0
 18 19  1  0  0  0
 18 20  1  0  0  0
 28 29  1  0  0  0
 29 30  2  0  0  0
 30 31  1  0  0  0
 31 32  2  0  0  0
 32 33  1  0  0  0
 33 34  2  0  0  0
 34 35  1  0  0  0
  5  1  2  0  0  0
 14  6  1  0  0  0
 20 15  2  0  0  0
 34 29  1  0  0  0
 14  9  1  0  0  0
 22 24  1  0  0  0
 22 25  1  0  0  0
M  END
> <minimizedAffinity>
-5.60210

> <CNNscore>
0.6103653908

> <CNNaffinity>
7.6200914383

> <CNN_VS>
4.6510400772

> <CNNaffinity_variance>
0.2505425215

$$$$
[H]c1nn(C([H])([H])[H])c([H])c1-c1c([H])c([H])c2c(nc([H])n2-c2sc(C(=O)N([H])[H])c(O[C@@]([H])(c3c([H])c([H])c([H])c([H])c3Cl)C([H])([H])[H])c2[H])c1[H]


 35 39  0  0  0  0  0  0  0  0999 V2000
   54.3513   -4.1008   -7.7251 C   0  0  0  0  0  0  0  0  0  0  0  0
   55.5168   -4.5359   -8.2237 C   0  0  0  0  0  0  0  0  0  0  0  0
   55.8193   -4.2364   -9.5098 C   0  0  0  0  0  0  0  0  0  0  0  0
   54.4546   -3.3393  -10.0139 S   0  0  0  0  0  0  0  0  0  0  0  0
   53.5464   -3.3762   -8.5709 C   0  0  0  0  0  0  0  0  0  0  0  0
   56.9914   -4.5764  -10.2808 N   0  0  0  0  0  0  0  0  0  0  0  0
   57.0771   -4.3921  -11.6106 C   0  0  0  0  0  0  0  0  0  0  0  0
   58.2767   -4.7958  -12.0624 N   0  0  0  0  0  0  0  0  0  0  0  0
   58.9763   -5.2496  -10.9967 C   0  0  0  0  0  0  0  0  0  0  0  0
   60.2440   -5.7719  -10.8920 C   0  0  0  0  0  0  0  0  0  0  0  0
   60.7124   -6.1623   -9.6523 C   0  0  0  0  0  0  0  0  0  0  0  0
   59.9061   -6.0216   -8.5540 C   0  0  0  0  0  0  0  0  0  0  0  0
   58.6177   -5.4882   -8.6757 C   0  0  0  0  0  0  0  0  0  0  0  0
   58.1432   -5.0994   -9.8904 C   0  0  0  0  0  0  0  0  0  0  0  0
   62.0621   -6.7197   -9.5433 C   0  0  0  0  0  0  0  0  0  0  0  0
   62.9543   -6.9848  -10.5529 C   0  0  0  0  0  0  0  0  0  0  0  0
   64.0608   -7.4861   -9.9778 N   0  0  0  0  0  0  0  0  0  0  0  0
   63.9083   -7.5480   -8.6684 N   0  0  0  0  0  0  0  0  0  0  0  0
   64.8539   -8.0213   -7.6780 C   0  0  0  0  0  0  0  0  0  0  0  0
   62.6834   -7.0812   -8.3713 C   0  0  0  0  0  0  0  0  0  0  0  0
   52.2398   -2.7725   -8.3389 C   0  0  0  0  0  0  0  0  0  0  0  0
   51.2315   -3.4184   -7.5870 N   0  0  0  0  0  0  0  0  0  0  0  0
   52.0006   -1.6460   -8.8200 O   0  0  0  0  0  0  0  0  0  0  0  0
   50.2829   -3.6295   -7.9629 H   0  0  0  0  0  0  0  0  0  0  0  0
   51.4477   -3.6967   -6.6102 H   0  0  0  0  0  0  0  0  0  0  0  0
   53.8863   -4.3274   -6.4021 O   0  0  0  0  0  0  0  0  0  0  0  0
   54.8203   -6.4781   -6.2385 C   0  0  0  0  0  0  0  0  0  0  0  0
   53.6340   -5.5825   -5.8590 C   0  0  0  0  0  0  0  0  0  0  0  0
   52.3821   -6.1229   -6.3923 C   0  0  0  0  0  0  0  0  0  0  0  0
   52.3040   -6.8031   -7.6001 C   0  0  0  0  0  0  0  0  0  0  0  0
   51.1437   -7.3132   -8.1184 C   0  0  0  0  0  0  0  0  0  0  0  0
   49.9709   -7.1573   -7.4233 C   0  0  0  0  0  0  0  0  0  0  0  0
   50.0157   -6.4870   -6.2215 C   0  0  0  0  0  0  0  0  0  0  0  0
   51.2087   -5.9697   -5.7015 C   0  0  0  0  0  0  0  0  0  0  0  0
   51.0802   -5.1561   -4.1721 Cl  0  0  0  0  0  0  0  0  0  0  0  0
 27 28  1  0  0  0
 28 26  1  0  0  0
 26  1  1  0  0  0
  1  2  1  0  0  0
  2  3  2  0  0  0
  3  4  1  0  0  0
  4  5  1  0  0  0
  5 21  1  0  0  0
 21 22  1  0  0  0
 21 23  2  0  0  0
  3  6  1  0  0  0
  6  7  1  0  0  0
  7  8  2  0  0  0
  8  9  1  0  0  0
  9 10  2  0  0  0
 10 11  1  0  0  0
 11 12  2  0  0  0
 12 13  1  0  0  0
 13 14  2  0  0  0
 11 15  1  0  0  0
 15 16  1  0  0  0
 16 17  2  0  0  0
 17 18  1  0  0  0
 18 19  1  0  0  0
 18 20  1  0  0  0
 28 29  1  0  0  0
 29 30  2  0  0  0
 30 31  1  0  0  0
 31 32  2  0  0  0
 32 33  1  0  0  0
 33 34  2  0  0  0
 34 35  1  0  0  0
  5  1  2  0  0  0
 14  6  1  0  0  0
 20 15  2  0  0  0
 34 29  1  0  0  0
 14  9  1  0  0  0
 22 24  1  0  0  0
 22 25  1  0  0  0
M  END
> <minimizedAffinity>
-6.82171

> <CNNscore>
0.5829758644

> <CNNaffinity>
7.2712173462

> <CNN_VS>
4.2389440536

> <CNNaffinity_variance>
0.2851529717

$$$$
[H]c1nn(C([H])([H])[H])c([H])c1-c1c([H])c([H])c2c(nc([H])n2-c2sc(C(=O)N([H])[H])c(O[C@@]([H])(c3c([H])c([H])c([H])c([H])c3Cl)C([H])([H])[H])c2[H])c1[H]


 35 39  0  0  0  0  0  0  0  0999 V2000
   56.2249   -5.6173   -7.1331 C   0  0  0  0  0  0  0  0  0  0  0  0
   54.9867   -5.1354   -6.9579 C   0  0  0  0  0  0  0  0  0  0  0  0
   54.4796   -4.3043   -7.9000 C   0  0  0  0  0  0  0  0  0  0  0  0
   55.7547   -4.2046   -9.0336 S   0  0  0  0  0  0  0  0  0  0  0  0
   56.8890   -5.2237   -8.2699 C   0  0  0  0  0  0  0  0  0  0  0  0
   53.1910   -3.6560   -7.9552 N   0  0  0  0  0  0  0  0  0  0  0  0
   52.8163   -2.8469   -8.9625 C   0  0  0  0  0  0  0  0  0  0  0  0
   51.5717   -2.3848   -8.7530 N   0  0  0  0  0  0  0  0  0  0  0  0
   51.1388   -2.9103   -7.5836 C   0  0  0  0  0  0  0  0  0  0  0  0
   49.9519   -2.7701   -6.9035 C   0  0  0  0  0  0  0  0  0  0  0  0
   49.7779   -3.4366   -5.7059 C   0  0  0  0  0  0  0  0  0  0  0  0
   50.7894   -4.2224   -5.2206 C   0  0  0  0  0  0  0  0  0  0  0  0
   51.9924   -4.3558   -5.9239 C   0  0  0  0  0  0  0  0  0  0  0  0
   52.1776   -3.7052   -7.1047 C   0  0  0  0  0  0  0  0  0  0  0  0
   48.5137   -3.2847   -4.9826 C   0  0  0  0  0  0  0  0  0  0  0  0
   47.6673   -2.2035   -4.9721 C   0  0  0  0  0  0  0  0  0  0  0  0
   46.6355   -2.5202   -4.1711 N   0  0  0  0  0  0  0  0  0  0  0  0
   46.7915   -3.7362   -3.6827 N   0  0  0  0  0  0  0  0  0  0  0  0
   45.9144   -4.4601   -2.7851 C   0  0  0  0  0  0  0  0  0  0  0  0
   47.9429   -4.2327   -4.1668 C   0  0  0  0  0  0  0  0  0  0  0  0
   58.2247   -5.5641   -8.7448 C   0  0  0  0  0  0  0  0  0  0  0  0
   58.5103   -5.7705  -10.1141 N   0  0  0  0  0  0  0  0  0  0  0  0
   59.1502   -5.6779   -7.9152 O   0  0  0  0  0  0  0  0  0  0  0  0
   58.9200   -6.6529  -10.4873 H   0  0  0  0  0  0  0  0  0  0  0  0
   58.3008   -5.0034  -10.7819 H   0  0  0  0  0  0  0  0  0  0  0  0
   56.8995   -6.4961   -6.2438 O   0  0  0  0  0  0  0  0  0  0  0  0
   58.0430   -7.3358   -4.3699 C   0  0  0  0  0  0  0  0  0  0  0  0
   57.0840   -6.2557   -4.8865 C   0  0  0  0  0  0  0  0  0  0  0  0
   55.8018   -6.3177   -4.1822 C   0  0  0  0  0  0  0  0  0  0  0  0
   54.9000   -7.3614   -4.3405 C   0  0  0  0  0  0  0  0  0  0  0  0
   53.6950   -7.4372   -3.6945 C   0  0  0  0  0  0  0  0  0  0  0  0
   53.3298   -6.4342   -2.8322 C   0  0  0  0  0  0  0  0  0  0  0  0
   54.2033   -5.3849   -2.6538 C   0  0  0  0  0  0  0  0  0  0  0  0
   55.4333   -5.3185   -3.3201 C   0  0  0  0  0  0  0  0  0  0  0  0
   56.4100   -3.9245   -2.9733 Cl  0  0  0  0  0  0  0  0  0  0  0  0
 27 28  1  0  0  0
 28 26  1  0  0  0
 26  1  1  0  0  0
  1  2  1  0  0  0
  2  3  2  0  0  0
  3  4  1  0  0  0
  4  5  1  0  0  0
  5 21  1  0  0  0
 21 22  1  0  0  0
 21 23  2  0  0  0
  3  6  1  0  0  0
  6  7  1  0  0  0
  7  8  2  0  0  0
  8  9  1  0  0  0
  9 10  2  0  0  0
 10 11  1  0  0  0
 11 12  2  0  0  0
 12 13  1  0  0  0
 13 14  2  0  0  0
 11 15  1  0  0  0
 15 16  1  0  0  0
 16 17  2  0  0  0
 17 18  1  0  0  0
 18 19  1  0  0  0
 18 20  1  0  0  0
 28 29  1  0  0  0
 29 30  2  0  0  0
 30 31  1  0  0  0
 31 32  2  0  0  0
 32 33  1  0  0  0
 33 34  2  0  0  0
 34 35  1  0  0  0
  5  1  2  0  0  0
 14  6  1  0  0  0
 20 15  2  0  0  0
 34 29  1  0  0  0
 14  9  1  0  0  0
 22 24  1  0  0  0
 22 25  1  0  0  0
M  END
> <minimizedAffinity>
-6.63842

> <CNNscore>
0.5747953653

> <CNNaffinity>
7.6893563271

> <CNN_VS>
4.4198064804

> <CNNaffinity_variance>
0.2024261951

$$$$
[H]c1nn(C([H])([H])[H])c([H])c1-c1c([H])c([H])c2c(nc([H])n2-c2sc(C(=O)N([H])[H])c(O[C@@]([H])(c3c([H])c([H])c([H])c([H])c3Cl)C([H])([H])[H])c2[H])c1[H]


 35 39  0  0  0  0  0  0  0  0999 V2000
   52.7292   -4.0995   -7.4105 C   0  0  0  0  0  0  0  0  0  0  0  0
   53.8876   -4.5205   -7.9368 C   0  0  0  0  0  0  0  0  0  0  0  0
   54.2974   -3.9786   -9.1089 C   0  0  0  0  0  0  0  0  0  0  0  0
   53.0437   -2.8734   -9.4664 S   0  0  0  0  0  0  0  0  0  0  0  0
   52.0415   -3.1388   -8.1123 C   0  0  0  0  0  0  0  0  0  0  0  0
   55.4880   -4.2488   -9.8791 N   0  0  0  0  0  0  0  0  0  0  0  0
   55.5811   -4.0087  -11.1995 C   0  0  0  0  0  0  0  0  0  0  0  0
   56.7980   -4.3545  -11.6531 N   0  0  0  0  0  0  0  0  0  0  0  0
   57.5013   -4.8275  -10.5983 C   0  0  0  0  0  0  0  0  0  0  0  0
   58.7845   -5.3119  -10.4998 C   0  0  0  0  0  0  0  0  0  0  0  0
   59.2529   -5.7362   -9.2713 C   0  0  0  0  0  0  0  0  0  0  0  0
   58.4312   -5.6660   -8.1776 C   0  0  0  0  0  0  0  0  0  0  0  0
   57.1271   -5.1706   -8.2929 C   0  0  0  0  0  0  0  0  0  0  0  0
   56.6525   -4.7492   -9.4966 C   0  0  0  0  0  0  0  0  0  0  0  0
   60.6192   -6.2530   -9.1690 C   0  0  0  0  0  0  0  0  0  0  0  0
   61.2517   -6.7652   -8.0631 C   0  0  0  0  0  0  0  0  0  0  0  0
   62.4919   -7.1138   -8.4461 N   0  0  0  0  0  0  0  0  0  0  0  0
   62.6673   -6.8480   -9.7268 N   0  0  0  0  0  0  0  0  0  0  0  0
   63.8502   -7.0692  -10.5336 C   0  0  0  0  0  0  0  0  0  0  0  0
   61.5273   -6.3156  -10.1994 C   0  0  0  0  0  0  0  0  0  0  0  0
   50.7736   -2.4834   -7.8150 C   0  0  0  0  0  0  0  0  0  0  0  0
   49.6024   -3.2103   -7.5002 N   0  0  0  0  0  0  0  0  0  0  0  0
   50.7177   -1.2368   -7.8387 O   0  0  0  0  0  0  0  0  0  0  0  0
   48.7131   -3.1240   -8.0362 H   0  0  0  0  0  0  0  0  0  0  0  0
   49.6304   -3.8637   -6.6936 H   0  0  0  0  0  0  0  0  0  0  0  0
   52.1610   -4.5637   -6.1941 O   0  0  0  0  0  0  0  0  0  0  0  0
   50.8220   -6.4919   -6.3122 C   0  0  0  0  0  0  0  0  0  0  0  0
   52.1363   -5.8950   -5.7928 C   0  0  0  0  0  0  0  0  0  0  0  0
   52.2084   -5.9855   -4.3331 C   0  0  0  0  0  0  0  0  0  0  0  0
   51.0894   -6.1508   -3.5280 C   0  0  0  0  0  0  0  0  0  0  0  0
   51.1341   -6.2343   -2.1619 C   0  0  0  0  0  0  0  0  0  0  0  0
   52.3455   -6.1525   -1.5224 C   0  0  0  0  0  0  0  0  0  0  0  0
   53.4741   -5.9885   -2.2938 C   0  0  0  0  0  0  0  0  0  0  0  0
   53.4158   -5.9044   -3.6904 C   0  0  0  0  0  0  0  0  0  0  0  0
   54.9377   -5.7009   -4.5028 Cl  0  0  0  0  0  0  0  0  0  0  0  0
 27 28  1  0  0  0
 28 26  1  0  0  0
 26  1  1  0  0  0
  1  2  1  0  0  0
  2  3  2  0  0  0
  3  4  1  0  0  0
  4  5  1  0  0  0
  5 21  1  0  0  0
 21 22  1  0  0  0
 21 23  2  0  0  0
  3  6  1  0  0  0
  6  7  1  0  0  0
  7  8  2  0  0  0
  8  9  1  0  0  0
  9 10  2  0  0  0
 10 11  1  0  0  0
 11 12  2  0  0  0
 12 13  1  0  0  0
 13 14  2  0  0  0
 11 15  1  0  0  0
 15 16  1  0  0  0
 16 17  2  0  0  0
 17 18  1  0  0  0
 18 19  1  0  0  0
 18 20  1  0  0  0
 28 29  1  0  0  0
 29 30  2  0  0  0
 30 31  1  0  0  0
 31 32  2  0  0  0
 32 33  1  0  0  0
 33 34  2  0  0  0
 34 35  1  0  0  0
  5  1  2  0  0  0
 14  6  1  0  0  0
 20 15  2  0  0  0
 34 29  1  0  0  0
 14  9  1  0  0  0
 22 24  1  0  0  0
 22 25  1  0  0  0
M  END
> <minimizedAffinity>
-9.16895

> <CNNscore>
0.5190740824

> <CNNaffinity>
7.4345521927

> <CNN_VS>
3.8590834141

> <CNNaffinity_variance>
0.2420893461

$$$$
[H]c1nn(C([H])([H])[H])c([H])c1-c1c([H])c([H])c2c(nc([H])n2-c2sc(C(=O)N([H])[H])c(O[C@@]([H])(c3c([H])c([H])c([H])c([H])c3Cl)C([H])([H])[H])c2[H])c1[H]


 35 39  0  0  0  0  0  0  0  0999 V2000
   52.8928   -4.2947   -7.2097 C   0  0  0  0  0  0  0  0  0  0  0  0
   54.1162   -4.7639   -7.4913 C   0  0  0  0  0  0  0  0  0  0  0  0
   54.7744   -4.2483   -8.5574 C   0  0  0  0  0  0  0  0  0  0  0  0
   53.6621   -3.0999   -9.1615 S   0  0  0  0  0  0  0  0  0  0  0  0
   52.3983   -3.3151   -8.0369 C   0  0  0  0  0  0  0  0  0  0  0  0
   56.0842   -4.5702   -9.0716 N   0  0  0  0  0  0  0  0  0  0  0  0
   56.9899   -5.2878   -8.3826 C   0  0  0  0  0  0  0  0  0  0  0  0
   58.1162   -5.4331   -9.1013 N   0  0  0  0  0  0  0  0  0  0  0  0
   57.9277   -4.7934  -10.2787 C   0  0  0  0  0  0  0  0  0  0  0  0
   58.7479   -4.6296  -11.3703 C   0  0  0  0  0  0  0  0  0  0  0  0
   58.2871   -3.9144  -12.4589 C   0  0  0  0  0  0  0  0  0  0  0  0
   57.0247   -3.3836  -12.4292 C   0  0  0  0  0  0  0  0  0  0  0  0
   56.2010   -3.5584  -11.3110 C   0  0  0  0  0  0  0  0  0  0  0  0
   56.6416   -4.2605  -10.2318 C   0  0  0  0  0  0  0  0  0  0  0  0
   59.1627   -3.7400  -13.6196 C   0  0  0  0  0  0  0  0  0  0  0  0
   58.8051   -3.4955  -14.9226 C   0  0  0  0  0  0  0  0  0  0  0  0
   59.9429   -3.4087  -15.6326 N   0  0  0  0  0  0  0  0  0  0  0  0
   60.9879   -3.5850  -14.8461 N   0  0  0  0  0  0  0  0  0  0  0  0
   62.3916   -3.5680  -15.2045 C   0  0  0  0  0  0  0  0  0  0  0  0
   60.5364   -3.7917  -13.5971 C   0  0  0  0  0  0  0  0  0  0  0  0
   51.1229   -2.6097   -8.0020 C   0  0  0  0  0  0  0  0  0  0  0  0
   49.9091   -3.2580   -7.6769 N   0  0  0  0  0  0  0  0  0  0  0  0
   51.0992   -1.3906   -8.2683 O   0  0  0  0  0  0  0  0  0  0  0  0
   49.0803   -3.2725   -8.3082 H   0  0  0  0  0  0  0  0  0  0  0  0
   49.8405   -3.7446   -6.7622 H   0  0  0  0  0  0  0  0  0  0  0  0
   52.0738   -4.7262   -6.1323 O   0  0  0  0  0  0  0  0  0  0  0  0
   50.5339   -6.4935   -6.3054 C   0  0  0  0  0  0  0  0  0  0  0  0
   51.8979   -6.0540   -5.7581 C   0  0  0  0  0  0  0  0  0  0  0  0
   51.9387   -6.1789   -4.2997 C   0  0  0  0  0  0  0  0  0  0  0  0
   50.8415   -5.9281   -3.4868 C   0  0  0  0  0  0  0  0  0  0  0  0
   50.8589   -6.0356   -2.1218 C   0  0  0  0  0  0  0  0  0  0  0  0
   52.0182   -6.4122   -1.4915 C   0  0  0  0  0  0  0  0  0  0  0  0
   53.1241   -6.6681   -2.2708 C   0  0  0  0  0  0  0  0  0  0  0  0
   53.0940   -6.5548   -3.6663 C   0  0  0  0  0  0  0  0  0  0  0  0
   54.5798   -6.9186   -4.4895 Cl  0  0  0  0  0  0  0  0  0  0  0  0
 27 28  1  0  0  0
 28 26  1  0  0  0
 26  1  1  0  0  0
  1  2  1  0  0  0
  2  3  2  0  0  0
  3  4  1  0  0  0
  4  5  1  0  0  0
  5 21  1  0  0  0
 21 22  1  0  0  0
 21 23  2  0  0  0
  3  6  1  0  0  0
  6  7  1  0  0  0
  7  8  2  0  0  0
  8  9  1  0  0  0
  9 10  2  0  0  0
 10 11  1  0  0  0
 11 12  2  0  0  0
 12 13  1  0  0  0
 13 14  2  0  0  0
 11 15  1  0  0  0
 15 16  1  0  0  0
 16 17  2  0  0  0
 17 18  1  0  0  0
 18 19  1  0  0  0
 18 20  1  0  0  0
 28 29  1  0  0  0
 29 30  2  0  0  0
 30 31  1  0  0  0
 31 32  2  0  0  0
 32 33  1  0  0  0
 33 34  2  0  0  0
 34 35  1  0  0  0
  5  1  2  0  0  0
 14  6  1  0  0  0
 20 15  2  0  0  0
 34 29  1  0  0  0
 14  9  1  0  0  0
 22 24  1  0  0  0
 22 25  1  0  0  0
M  END
> <minimizedAffinity>
-8.50191

> <CNNscore>
0.4719153643

> <CNNaffinity>
7.2050600052

> <CNN_VS>
3.4001784325

> <CNNaffinity_variance>
0.0891713947

$$$$
[H]c1nn(C([H])([H])[H])c([H])c1-c1c([H])c([H])c2c(nc([H])n2-c2sc(C(=O)N([H])[H])c(O[C@@]([H])(c3c([H])c([H])c([H])c([H])c3Cl)C([H])([H])[H])c2[H])c1[H]


 35 39  0  0  0  0  0  0  0  0999 V2000
   53.6329   -6.1523   -4.0308 C   0  0  0  0  0  0  0  0  0  0  0  0
   53.9583   -5.7469   -5.2661 C   0  0  0  0  0  0  0  0  0  0  0  0
   53.0130   -5.1225   -6.0092 C   0  0  0  0  0  0  0  0  0  0  0  0
   51.6638   -5.1091   -4.9601 S   0  0  0  0  0  0  0  0  0  0  0  0
   52.3489   -5.8982   -3.6124 C   0  0  0  0  0  0  0  0  0  0  0  0
   53.1000   -4.5926   -7.3491 N   0  0  0  0  0  0  0  0  0  0  0  0
   52.0658   -4.0041   -7.9768 C   0  0  0  0  0  0  0  0  0  0  0  0
   52.4304   -3.6076   -9.2082 N   0  0  0  0  0  0  0  0  0  0  0  0
   53.7290   -3.9503   -9.3733 C   0  0  0  0  0  0  0  0  0  0  0  0
   54.5899   -3.7828  -10.4325 C   0  0  0  0  0  0  0  0  0  0  0  0
   55.8893   -4.2395  -10.3243 C   0  0  0  0  0  0  0  0  0  0  0  0
   56.2935   -4.8490   -9.1661 C   0  0  0  0  0  0  0  0  0  0  0  0
   55.4061   -5.0127   -8.0961 C   0  0  0  0  0  0  0  0  0  0  0  0
   54.1234   -4.5678   -8.1886 C   0  0  0  0  0  0  0  0  0  0  0  0
   56.8039   -4.0613  -11.4539 C   0  0  0  0  0  0  0  0  0  0  0  0
   56.4917   -3.7894  -12.7631 C   0  0  0  0  0  0  0  0  0  0  0  0
   57.6528   -3.7109  -13.4357 N   0  0  0  0  0  0  0  0  0  0  0  0
   58.6693   -3.9183  -12.6199 N   0  0  0  0  0  0  0  0  0  0  0  0
   60.0837   -3.9199  -12.9339 C   0  0  0  0  0  0  0  0  0  0  0  0
   58.1751   -4.1374  -11.3894 C   0  0  0  0  0  0  0  0  0  0  0  0
   51.6933   -6.2066   -2.3472 C   0  0  0  0  0  0  0  0  0  0  0  0
   52.3209   -5.9918   -1.0986 N   0  0  0  0  0  0  0  0  0  0  0  0
   50.5374   -6.6769   -2.3645 O   0  0  0  0  0  0  0  0  0  0  0  0
   52.4701   -6.7457   -0.3950 H   0  0  0  0  0  0  0  0  0  0  0  0
   52.6502   -5.0335   -0.8714 H   0  0  0  0  0  0  0  0  0  0  0  0
   54.5036   -6.8180   -3.1272 O   0  0  0  0  0  0  0  0  0  0  0  0
   55.8315   -4.8797   -3.1929 C   0  0  0  0  0  0  0  0  0  0  0  0
   55.5848   -6.2201   -2.4888 C   0  0  0  0  0  0  0  0  0  0  0  0
   56.7658   -7.0810   -2.5791 C   0  0  0  0  0  0  0  0  0  0  0  0
   57.6729   -7.0152   -3.6281 C   0  0  0  0  0  0  0  0  0  0  0  0
   58.7811   -7.8127   -3.7337 C   0  0  0  0  0  0  0  0  0  0  0  0
   59.0358   -8.7429   -2.7576 C   0  0  0  0  0  0  0  0  0  0  0  0
   58.1542   -8.8322   -1.7037 C   0  0  0  0  0  0  0  0  0  0  0  0
   57.0241   -8.0110   -1.6066 C   0  0  0  0  0  0  0  0  0  0  0  0
   56.0236   -8.2589   -0.2084 Cl  0  0  0  0  0  0  0  0  0  0  0  0
 27 28  1  0  0  0
 28 26  1  0  0  0
 26  1  1  0  0  0
  1  2  1  0  0  0
  2  3  2  0  0  0
  3  4  1  0  0  0
  4  5  1  0  0  0
  5 21  1  0  0  0
 21 22  1  0  0  0
 21 23  2  0  0  0
  3  6  1  0  0  0
  6  7  1  0  0  0
  7  8  2  0  0  0
  8  9  1  0  0  0
  9 10  2  0  0  0
 10 11  1  0  0  0
 11 12  2  0  0  0
 12 13  1  0  0  0
 13 14  2  0  0  0
 11 15  1  0  0  0
 15 16  1  0  0  0
 16 17  2  0  0  0
 17 18  1  0  0  0
 18 19  1  0  0  0
 18 20  1  0  0  0
 28 29  1  0  0  0
 29 30  2  0  0  0
 30 31  1  0  0  0
 31 32  2  0  0  0
 32 33  1  0  0  0
 33 34  2  0  0  0
 34 35  1  0  0  0
  5  1  2  0  0  0
 14  6  1  0  0  0
 20 15  2  0  0  0
 34 29  1  0  0  0
 14  9  1  0  0  0
 22 24  1  0  0  0
 22 25  1  0  0  0
M  END
> <minimizedAffinity>
-8.18289

> <CNNscore>
0.3473520577

> <CNNaffinity>
7.1657676697

> <CNN_VS>
2.4890441895

> <CNNaffinity_variance>
0.2178149670

$$$$
[H]c1nn(C([H])([H])[H])c([H])c1-c1c([H])c([H])c2c(nc([H])n2-c2sc(C(=O)N([H])[H])c(O[C@@]([H])(c3c([H])c([H])c([H])c([H])c3Cl)C([H])([H])[H])c2[H])c1[H]


 35 39  0  0  0  0  0  0  0  0999 V2000
   54.4191   -4.8925   -6.5315 C   0  0  0  0  0  0  0  0  0  0  0  0
   55.1276   -4.7588   -7.6613 C   0  0  0  0  0  0  0  0  0  0  0  0
   56.4156   -5.1786   -7.6675 C   0  0  0  0  0  0  0  0  0  0  0  0
   56.6244   -5.7625   -6.0749 S   0  0  0  0  0  0  0  0  0  0  0  0
   55.0658   -5.4525   -5.4561 C   0  0  0  0  0  0  0  0  0  0  0  0
   57.3853   -5.1514   -8.7365 N   0  0  0  0  0  0  0  0  0  0  0  0
   58.6471   -5.5970   -8.5977 C   0  0  0  0  0  0  0  0  0  0  0  0
   59.3242   -5.4503   -9.7493 N   0  0  0  0  0  0  0  0  0  0  0  0
   58.4762   -4.8976  -10.6473 C   0  0  0  0  0  0  0  0  0  0  0  0
   58.6474   -4.5379  -11.9635 C   0  0  0  0  0  0  0  0  0  0  0  0
   57.5876   -3.9829  -12.6544 C   0  0  0  0  0  0  0  0  0  0  0  0
   56.3894   -3.8021  -12.0158 C   0  0  0  0  0  0  0  0  0  0  0  0
   56.2297   -4.1731  -10.6755 C   0  0  0  0  0  0  0  0  0  0  0  0
   57.2648   -4.7209   -9.9826 C   0  0  0  0  0  0  0  0  0  0  0  0
   57.7727   -3.5992  -14.0554 C   0  0  0  0  0  0  0  0  0  0  0  0
   58.9397   -3.2609  -14.6951 C   0  0  0  0  0  0  0  0  0  0  0  0
   58.6224   -2.9864  -15.9720 N   0  0  0  0  0  0  0  0  0  0  0  0
   57.3251   -3.1346  -16.1634 N   0  0  0  0  0  0  0  0  0  0  0  0
   56.5725   -2.9419  -17.3864 C   0  0  0  0  0  0  0  0  0  0  0  0
   56.7746   -3.5127  -14.9970 C   0  0  0  0  0  0  0  0  0  0  0  0
   54.5836   -5.7303   -4.1085 C   0  0  0  0  0  0  0  0  0  0  0  0
   53.9278   -6.9374   -3.7742 N   0  0  0  0  0  0  0  0  0  0  0  0
   54.7546   -4.8737   -3.2171 O   0  0  0  0  0  0  0  0  0  0  0  0
   52.9707   -6.9750   -3.3640 H   0  0  0  0  0  0  0  0  0  0  0  0
   54.4256   -7.8323   -3.9467 H   0  0  0  0  0  0  0  0  0  0  0  0
   53.0634   -4.5048   -6.3595 O   0  0  0  0  0  0  0  0  0  0  0  0
   51.5418   -2.9398   -7.2314 C   0  0  0  0  0  0  0  0  0  0  0  0
   52.1534   -4.3368   -7.3977 C   0  0  0  0  0  0  0  0  0  0  0  0
   51.1174   -5.3696   -7.3353 C   0  0  0  0  0  0  0  0  0  0  0  0
   49.8152   -5.1130   -6.9279 C   0  0  0  0  0  0  0  0  0  0  0  0
   48.8326   -6.0642   -6.8591 C   0  0  0  0  0  0  0  0  0  0  0  0
   49.1241   -7.3589   -7.2081 C   0  0  0  0  0  0  0  0  0  0  0  0
   50.4074   -7.6451   -7.6168 C   0  0  0  0  0  0  0  0  0  0  0  0
   51.4041   -6.6636   -7.6831 C   0  0  0  0  0  0  0  0  0  0  0  0
   52.9649   -7.2021   -8.2229 Cl  0  0  0  0  0  0  0  0  0  0  0  0
 27 28  1  0  0  0
 28 26  1  0  0  0
 26  1  1  0  0  0
  1  2  1  0  0  0
  2  3  2  0  0  0
  3  4  1  0  0  0
  4  5  1  0  0  0
  5 21  1  0  0  0
 21 22  1  0  0  0
 21 23  2  0  0  0
  3  6  1  0  0  0
  6  7  1  0  0  0
  7  8  2  0  0  0
  8  9  1  0  0  0
  9 10  2  0  0  0
 10 11  1  0  0  0
 11 12  2  0  0  0
 12 13  1  0  0  0
 13 14  2  0  0  0
 11 15  1  0  0  0
 15 16  1  0  0  0
 16 17  2  0  0  0
 17 18  1  0  0  0
 18 19  1  0  0  0
 18 20  1  0  0  0
 28 29  1  0  0  0
 29 30  2  0  0  0
 30 31  1  0  0  0
 31 32  2  0  0  0
 32 33  1  0  0  0
 33 34  2  0  0  0
 34 35  1  0  0  0
  5  1  2  0  0  0
 14  6  1  0  0  0
 20 15  2  0  0  0
 34 29  1  0  0  0
 14  9  1  0  0  0
 22 24  1  0  0  0
 22 25  1  0  0  0
M  END
> <minimizedAffinity>
-4.35373

> <CNNscore>
0.3413852751

> <CNNaffinity>
6.9577722549

> <CNN_VS>
2.3752810955

> <CNNaffinity_variance>
0.2299064696

$$$$
[H]c1nn(C([H])([H])[H])c([H])c1-c1c([H])c([H])c2c(nc([H])n2-c2sc(C(=O)N([H])[H])c(O[C@@]([H])(c3c([H])c([H])c([H])c([H])c3Cl)C([H])([H])[H])c2[H])c1[H]


 35 39  0  0  0  0  0  0  0  0999 V2000
   62.2039   -7.1116  -10.0828 C   0  0  0  0  0  0  0  0  0  0  0  0
   61.2569   -7.0086   -9.1400 C   0  0  0  0  0  0  0  0  0  0  0  0
   60.1746   -6.2350   -9.3959 C   0  0  0  0  0  0  0  0  0  0  0  0
   60.4968   -5.6532  -10.9703 S   0  0  0  0  0  0  0  0  0  0  0  0
   61.9973   -6.4143  -11.2487 C   0  0  0  0  0  0  0  0  0  0  0  0
   59.0267   -5.9580   -8.5656 N   0  0  0  0  0  0  0  0  0  0  0  0
   58.9595   -6.2963   -7.2652 C   0  0  0  0  0  0  0  0  0  0  0  0
   57.7799   -5.9181   -6.7439 N   0  0  0  0  0  0  0  0  0  0  0  0
   57.0745   -5.3233   -7.7337 C   0  0  0  0  0  0  0  0  0  0  0  0
   55.8202   -4.7599   -7.7495 C   0  0  0  0  0  0  0  0  0  0  0  0
   55.3409   -4.2136   -8.9244 C   0  0  0  0  0  0  0  0  0  0  0  0
   56.1232   -4.2441  -10.0484 C   0  0  0  0  0  0  0  0  0  0  0  0
   57.3982   -4.8211  -10.0175 C   0  0  0  0  0  0  0  0  0  0  0  0
   57.8832   -5.3629   -8.8673 C   0  0  0  0  0  0  0  0  0  0  0  0
   54.0044   -3.6155   -8.9393 C   0  0  0  0  0  0  0  0  0  0  0  0
   53.3976   -2.9201   -9.9561 C   0  0  0  0  0  0  0  0  0  0  0  0
   52.1777   -2.5664   -9.5167 N   0  0  0  0  0  0  0  0  0  0  0  0
   51.9906   -3.0018   -8.2850 N   0  0  0  0  0  0  0  0  0  0  0  0
   50.8205   -2.8405   -7.4461 C   0  0  0  0  0  0  0  0  0  0  0  0
   53.1022   -3.6533   -7.9025 C   0  0  0  0  0  0  0  0  0  0  0  0
   62.8228   -6.3184  -12.4466 C   0  0  0  0  0  0  0  0  0  0  0  0
   64.2238   -6.1373  -12.3866 N   0  0  0  0  0  0  0  0  0  0  0  0
   62.2757   -6.3987  -13.5654 O   0  0  0  0  0  0  0  0  0  0  0  0
   64.7182   -5.3386  -12.8375 H   0  0  0  0  0  0  0  0  0  0  0  0
   64.7887   -6.8362  -11.8662 H   0  0  0  0  0  0  0  0  0  0  0  0
   63.3944   -7.8788   -9.9730 O   0  0  0  0  0  0  0  0  0  0  0  0
   64.9838   -9.0638   -8.7104 C   0  0  0  0  0  0  0  0  0  0  0  0
   63.5274   -9.0206   -9.1904 C   0  0  0  0  0  0  0  0  0  0  0  0
   63.2022  -10.2132   -9.9751 C   0  0  0  0  0  0  0  0  0  0  0  0
   63.7375  -10.4629  -11.2315 C   0  0  0  0  0  0  0  0  0  0  0  0
   63.4444  -11.5693  -11.9831 C   0  0  0  0  0  0  0  0  0  0  0  0
   62.5709  -12.5056  -11.4895 C   0  0  0  0  0  0  0  0  0  0  0  0
   62.0231  -12.2864  -10.2455 C   0  0  0  0  0  0  0  0  0  0  0  0
   62.3307  -11.1507   -9.4861 C   0  0  0  0  0  0  0  0  0  0  0  0
   61.5502  -11.0385   -7.9383 Cl  0  0  0  0  0  0  0  0  0  0  0  0
 27 28  1  0  0  0
 28 26  1  0  0  0
 26  1  1  0  0  0
  1  2  1  0  0  0
  2  3  2  0  0  0
  3  4  1  0  0  0
  4  5  1  0  0  0
  5 21  1  0  0  0
 21 22  1  0  0  0
 21 23  2  0  0  0
  3  6  1  0  0  0
  6  7  1  0  0  0
  7  8  2  0  0  0
  8  9  1  0  0  0
  9 10  2  0  0  0
 10 11  1  0  0  0
 11 12  2  0  0  0
 12 13  1  0  0  0
 13 14  2  0  0  0
 11 15  1  0  0  0
 15 16  1  0  0  0
 16 17  2  0  0  0
 17 18  1  0  0  0
 18 19  1  0  0  0
 18 20  1  0  0  0
 28 29  1  0  0  0
 29 30  2  0  0  0
 30 31  1  0  0  0
 31 32  2  0  0  0
 32 33  1  0  0  0
 33 34  2  0  0  0
 34 35  1  0  0  0
  5  1  2  0  0  0
 14  6  1  0  0  0
 20 15  2  0  0  0
 34 29  1  0  0  0
 14  9  1  0  0  0
 22 24  1  0  0  0
 22 25  1  0  0  0
M  END
> <minimizedAffinity>
-3.97215

> <CNNscore>
0.3336925507

> <CNNaffinity>
6.2152752876

> <CNN_VS>
2.0739910603

> <CNNaffinity_variance>
0.3067662716

$$$$
[H]c1nc(N([H])c2c([H])c([H])c(N3C([H])([H])C([H])([H])C([H])(N4C([H])([H])C([H])([H])C([H])([H])C4([H])[H])C([H])([H])C3([H])[H])c([H])c2OC([H])([H])[H])nc(N([H])c2c([H])c([H])c([H])c([H])c2S(=O)(=O)C([H])(C([H])([H])[H])C([H])([H])[H])c1Cl


 42 46  0  0  0  0  0  0  0  0999 V2000
   55.1252   -3.3217   -9.7146 N   0  0  0  0  0  0  0  0  0  0  0  0
   55.1456   -2.5887  -10.5251 H   0  0  0  0  0  0  0  0  0  0  0  0
   53.9129   -3.3418   -9.0221 C   0  0  0  0  0  0  0  0  0  0  0  0
   53.0331   -2.3527   -9.0881 N   0  0  0  0  0  0  0  0  0  0  0  0
   51.8732   -2.3566   -8.4262 C   0  0  0  0  0  0  0  0  0  0  0  0
   51.6008   -3.4456   -7.6477 C   0  0  0  0  0  0  0  0  0  0  0  0
   50.1007   -3.5209   -6.7572 Cl  0  0  0  0  0  0  0  0  0  0  0  0
   52.5061   -4.5186   -7.5480 C   0  0  0  0  0  0  0  0  0  0  0  0
   53.6080   -4.3959   -8.2451 N   0  0  0  0  0  0  0  0  0  0  0  0
   52.2386   -5.6215   -6.7184 N   0  0  0  0  0  0  0  0  0  0  0  0
   52.2250   -6.5570   -7.2546 H   0  0  0  0  0  0  0  0  0  0  0  0
   52.0272   -5.6380   -5.3247 C   0  0  0  0  0  0  0  0  0  0  0  0
   50.8211   -5.3826   -4.7266 C   0  0  0  0  0  0  0  0  0  0  0  0
   50.6213   -5.2912   -3.3498 C   0  0  0  0  0  0  0  0  0  0  0  0
   51.6981   -5.4669   -2.5349 C   0  0  0  0  0  0  0  0  0  0  0  0
   52.9210   -5.7253   -3.0998 C   0  0  0  0  0  0  0  0  0  0  0  0
   53.1238   -5.8195   -4.4836 C   0  0  0  0  0  0  0  0  0  0  0  0
   54.6945   -6.2625   -5.0262 S   0  0  0  0  0  0  0  0  0  0  0  0
   54.6929   -7.0948   -6.2941 O   0  0  0  0  0  0  0  0  0  0  0  0
   55.4074   -4.9704   -5.4876 O   0  0  0  0  0  0  0  0  0  0  0  0
   55.7648   -6.9392   -3.8089 C   0  0  0  0  0  0  0  0  0  0  0  0
   57.2184   -6.9125   -4.0592 C   0  0  0  0  0  0  0  0  0  0  0  0
   55.3012   -8.3702   -3.5401 C   0  0  0  0  0  0  0  0  0  0  0  0
   57.0608   -4.3745  -10.6800 C   0  0  0  0  0  0  0  0  0  0  0  0
   58.2141   -5.1169  -10.5608 C   0  0  0  0  0  0  0  0  0  0  0  0
   58.6405   -5.5840   -9.3358 C   0  0  0  0  0  0  0  0  0  0  0  0
   57.9137   -5.3132   -8.2000 C   0  0  0  0  0  0  0  0  0  0  0  0
   56.7441   -4.5574   -8.3381 C   0  0  0  0  0  0  0  0  0  0  0  0
   56.2967   -4.0827   -9.5319 C   0  0  0  0  0  0  0  0  0  0  0  0
   59.8198   -6.3585   -9.1892 N   0  0  0  0  0  0  0  0  0  0  0  0
   60.7778   -6.0631   -8.1175 C   0  0  0  0  0  0  0  0  0  0  0  0
   62.0710   -6.8076   -8.3480 C   0  0  0  0  0  0  0  0  0  0  0  0
   62.5257   -6.6148   -9.7915 C   0  0  0  0  0  0  0  0  0  0  0  0
   61.4682   -7.0197  -10.7566 C   0  0  0  0  0  0  0  0  0  0  0  0
   60.1932   -7.4762  -10.0308 C   0  0  0  0  0  0  0  0  0  0  0  0
   63.8005   -7.2073  -10.0431 N   0  0  0  0  0  0  0  0  0  0  0  0
   64.5541   -7.5743   -8.9035 C   0  0  0  0  0  0  0  0  0  0  0  0
   65.6624   -6.5588   -8.7150 C   0  0  0  0  0  0  0  0  0  0  0  0
   65.7362   -5.8701  -10.0512 C   0  0  0  0  0  0  0  0  0  0  0  0
   64.6412   -6.4584  -10.9086 C   0  0  0  0  0  0  0  0  0  0  0  0
   57.5842   -3.9618  -12.9951 C   0  0  0  0  0  0  0  0  0  0  0  0
   56.6830   -3.9344  -11.9249 O   0  0  0  0  0  0  0  0  0  0  0  0
 41 42  1  0  0  0
 42 24  1  0  0  0
 24 25  2  0  0  0
 25 26  1  0  0  0
 26 27  2  0  0  0
 27 28  1  0  0  0
 28 29  2  0  0  0
 29  1  1  0  0  0
  1  3  1  0  0  0
  3  4  2  0  0  0
  4  5  1  0  0  0
  5  6  2  0  0  0
  6  7  1  0  0  0
  6  8  1  0  0  0
  8 10  1  0  0  0
 10 12  1  0  0  0
 12 13  2  0  0  0
 13 14  1  0  0  0
 14 15  2  0  0  0
 15 16  1  0  0  0
 16 17  2  0  0  0
 17 18  1  0  0  0
 18 19  2  0  0  0
 18 20  2  0  0  0
 18 21  1  0  0  0
 21 22  1  0  0  0
 21 23  1  0  0  0
  8  9  2  0  0  0
 26 30  1  0  0  0
 30 31  1  0  0  0
 31 32  1  0  0  0
 32 33  1  0  0  0
 33 34  1  0  0  0
 34 35  1  0  0  0
 33 36  1  0  0  0
 36 37  1  0  0  0
 37 38  1  0  0  0
 38 39  1  0  0  0
 39 40  1  0  0  0
 29 24  1  0  0  0
  9  3  1  0  0  0
 35 30  1  0  0  0
 40 36  1  0  0  0
 17 12  1  0  0  0
  1  2  1  0  0  0
 10 11  1  0  0  0
M  END
> <minimizedAffinity>
-9.03065

> <CNNscore>
0.9144412279

> <CNNaffinity>
8.1091842651

> <CNN_VS>
7.4153723717

> <CNNaffinity_variance>
0.0809451565

$$$$
[H]c1nc(N([H])c2c([H])c([H])c(N3C([H])([H])C([H])([H])C([H])(N4C([H])([H])C([H])([H])C([H])([H])C4([H])[H])C([H])([H])C3([H])[H])c([H])c2OC([H])([H])[H])nc(N([H])c2c([H])c([H])c([H])c([H])c2S(=O)(=O)C([H])(C([H])([H])[H])C([H])([H])[H])c1Cl


 42 46  0  0  0  0  0  0  0  0999 V2000
   55.0124   -3.2714   -9.6155 N   0  0  0  0  0  0  0  0  0  0  0  0
   55.0144   -2.5447  -10.4319 H   0  0  0  0  0  0  0  0  0  0  0  0
   53.8178   -3.2828   -8.8928 C   0  0  0  0  0  0  0  0  0  0  0  0
   52.8264   -2.4365   -9.1332 N   0  0  0  0  0  0  0  0  0  0  0  0
   51.6815   -2.4328   -8.4456 C   0  0  0  0  0  0  0  0  0  0  0  0
   51.5474   -3.3569   -7.4486 C   0  0  0  0  0  0  0  0  0  0  0  0
   50.0754   -3.4130   -6.5110 Cl  0  0  0  0  0  0  0  0  0  0  0  0
   52.5744   -4.2746   -7.1587 C   0  0  0  0  0  0  0  0  0  0  0  0
   53.6472   -4.1771   -7.9034 N   0  0  0  0  0  0  0  0  0  0  0  0
   52.4473   -5.2010   -6.1090 N   0  0  0  0  0  0  0  0  0  0  0  0
   51.4345   -5.2935   -5.7505 H   0  0  0  0  0  0  0  0  0  0  0  0
   53.4473   -6.0048   -5.5247 C   0  0  0  0  0  0  0  0  0  0  0  0
   54.5671   -6.4398   -6.1838 C   0  0  0  0  0  0  0  0  0  0  0  0
   55.5091   -7.3199   -5.6530 C   0  0  0  0  0  0  0  0  0  0  0  0
   55.3078   -7.7850   -4.3890 C   0  0  0  0  0  0  0  0  0  0  0  0
   54.1974   -7.3694   -3.6994 C   0  0  0  0  0  0  0  0  0  0  0  0
   53.2500   -6.4831   -4.2305 C   0  0  0  0  0  0  0  0  0  0  0  0
   51.9755   -5.9715   -3.1953 S   0  0  0  0  0  0  0  0  0  0  0  0
   51.0353   -4.9658   -3.8316 O   0  0  0  0  0  0  0  0  0  0  0  0
   51.0459   -7.1861   -2.9690 O   0  0  0  0  0  0  0  0  0  0  0  0
   52.4509   -5.4797   -1.5774 C   0  0  0  0  0  0  0  0  0  0  0  0
   53.7666   -4.8375   -1.3970 C   0  0  0  0  0  0  0  0  0  0  0  0
   52.3345   -6.7079   -0.6758 C   0  0  0  0  0  0  0  0  0  0  0  0
   56.8898   -4.3855  -10.6259 C   0  0  0  0  0  0  0  0  0  0  0  0
   58.0424   -5.1325  -10.5298 C   0  0  0  0  0  0  0  0  0  0  0  0
   58.5261   -5.5467   -9.3072 C   0  0  0  0  0  0  0  0  0  0  0  0
   57.8591   -5.2172   -8.1505 C   0  0  0  0  0  0  0  0  0  0  0  0
   56.6894   -4.4576   -8.2653 C   0  0  0  0  0  0  0  0  0  0  0  0
   56.1862   -4.0341   -9.4561 C   0  0  0  0  0  0  0  0  0  0  0  0
   59.7058   -6.3246   -9.1835 N   0  0  0  0  0  0  0  0  0  0  0  0
   60.4728   -6.3230   -7.9324 C   0  0  0  0  0  0  0  0  0  0  0  0
   61.8212   -6.9696   -8.1411 C   0  0  0  0  0  0  0  0  0  0  0  0
   62.4814   -6.3922   -9.3894 C   0  0  0  0  0  0  0  0  0  0  0  0
   61.6052   -6.5288  -10.5842 C   0  0  0  0  0  0  0  0  0  0  0  0
   60.2582   -7.1720  -10.2199 C   0  0  0  0  0  0  0  0  0  0  0  0
   63.8072   -6.8870   -9.5809 N   0  0  0  0  0  0  0  0  0  0  0  0
   64.0159   -7.6844  -10.7306 C   0  0  0  0  0  0  0  0  0  0  0  0
   64.1137   -9.1329  -10.2975 C   0  0  0  0  0  0  0  0  0  0  0  0
   64.3793   -9.0383   -8.8191 C   0  0  0  0  0  0  0  0  0  0  0  0
   64.3513   -7.5714   -8.4618 C   0  0  0  0  0  0  0  0  0  0  0  0
   57.1733   -4.3474  -13.0180 C   0  0  0  0  0  0  0  0  0  0  0  0
   56.4533   -3.9996  -11.8695 O   0  0  0  0  0  0  0  0  0  0  0  0
 41 42  1  0  0  0
 42 24  1  0  0  0
 24 25  2  0  0  0
 25 26  1  0  0  0
 26 27  2  0  0  0
 27 28  1  0  0  0
 28 29  2  0  0  0
 29  1  1  0  0  0
  1  3  1  0  0  0
  3  4  2  0  0  0
  4  5  1  0  0  0
  5  6  2  0  0  0
  6  7  1  0  0  0
  6  8  1  0  0  0
  8 10  1  0  0  0
 10 12  1  0  0  0
 12 13  2  0  0  0
 13 14  1  0  0  0
 14 15  2  0  0  0
 15 16  1  0  0  0
 16 17  2  0  0  0
 17 18  1  0  0  0
 18 19  2  0  0  0
 18 20  2  0  0  0
 18 21  1  0  0  0
 21 22  1  0  0  0
 21 23  1  0  0  0
  8  9  2  0  0  0
 26 30  1  0  0  0
 30 31  1  0  0  0
 31 32  1  0  0  0
 32 33  1  0  0  0
 33 34  1  0  0  0
 34 35  1  0  0  0
 33 36  1  0  0  0
 36 37  1  0  0  0
 37 38  1  0  0  0
 38 39  1  0  0  0
 39 40  1  0  0  0
 29 24  1  0  0  0
  9  3  1  0  0  0
 35 30  1  0  0  0
 40 36  1  0  0  0
 17 12  1  0  0  0
  1  2  1  0  0  0
 10 11  1  0  0  0
M  END
> <minimizedAffinity>
-8.47513

> <CNNscore>
0.9003320336

> <CNNaffinity>
8.3176498413

> <CNN_VS>
7.4886465073

> <CNNaffinity_variance>
0.0157802086

$$$$
[H]c1nc(N([H])c2c([H])c([H])c(N3C([H])([H])C([H])([H])C([H])(N4C([H])([H])C([H])([H])C([H])([H])C4([H])[H])C([H])([H])C3([H])[H])c([H])c2OC([H])([H])[H])nc(N([H])c2c([H])c([H])c([H])c([H])c2S(=O)(=O)C([H])(C([H])([H])[H])C([H])([H])[H])c1Cl


 42 46  0  0  0  0  0  0  0  0999 V2000
   55.3561   -3.6341  -10.2931 N   0  0  0  0  0  0  0  0  0  0  0  0
   55.2002   -3.0913  -11.2289 H   0  0  0  0  0  0  0  0  0  0  0  0
   54.2479   -3.5965   -9.4446 C   0  0  0  0  0  0  0  0  0  0  0  0
   53.3316   -2.6406   -9.5040 N   0  0  0  0  0  0  0  0  0  0  0  0
   52.2706   -2.5894   -8.6946 C   0  0  0  0  0  0  0  0  0  0  0  0
   52.1437   -3.5832   -7.7660 C   0  0  0  0  0  0  0  0  0  0  0  0
   50.7787   -3.5826   -6.6771 Cl  0  0  0  0  0  0  0  0  0  0  0  0
   53.0927   -4.6177   -7.6671 C   0  0  0  0  0  0  0  0  0  0  0  0
   54.0873   -4.5564   -8.5170 N   0  0  0  0  0  0  0  0  0  0  0  0
   52.9779   -5.6192   -6.6872 N   0  0  0  0  0  0  0  0  0  0  0  0
   52.0045   -6.0828   -6.6724 H   0  0  0  0  0  0  0  0  0  0  0  0
   53.9602   -6.0804   -5.7873 C   0  0  0  0  0  0  0  0  0  0  0  0
   55.2875   -6.2148   -6.1001 C   0  0  0  0  0  0  0  0  0  0  0  0
   56.2498   -6.7681   -5.2565 C   0  0  0  0  0  0  0  0  0  0  0  0
   55.8486   -7.2091   -4.0323 C   0  0  0  0  0  0  0  0  0  0  0  0
   54.5270   -7.0892   -3.6855 C   0  0  0  0  0  0  0  0  0  0  0  0
   53.5582   -6.5315   -4.5313 C   0  0  0  0  0  0  0  0  0  0  0  0
   51.9677   -6.3489   -3.9028 S   0  0  0  0  0  0  0  0  0  0  0  0
   50.8748   -6.5299   -4.9386 O   0  0  0  0  0  0  0  0  0  0  0  0
   51.7078   -7.5358   -2.9466 O   0  0  0  0  0  0  0  0  0  0  0  0
   51.6921   -4.9241   -2.9132 C   0  0  0  0  0  0  0  0  0  0  0  0
   52.2349   -4.9064   -1.5416 C   0  0  0  0  0  0  0  0  0  0  0  0
   50.1853   -4.6719   -2.8883 C   0  0  0  0  0  0  0  0  0  0  0  0
   57.4620   -4.2872  -11.2553 C   0  0  0  0  0  0  0  0  0  0  0  0
   58.7013   -4.8782  -11.1546 C   0  0  0  0  0  0  0  0  0  0  0  0
   59.1328   -5.4371   -9.9706 C   0  0  0  0  0  0  0  0  0  0  0  0
   58.3245   -5.4132   -8.8582 C   0  0  0  0  0  0  0  0  0  0  0  0
   57.0681   -4.8088   -8.9770 C   0  0  0  0  0  0  0  0  0  0  0  0
   56.6132   -4.2492  -10.1306 C   0  0  0  0  0  0  0  0  0  0  0  0
   60.4012   -6.0598   -9.8449 N   0  0  0  0  0  0  0  0  0  0  0  0
   61.3616   -6.0268  -10.9540 C   0  0  0  0  0  0  0  0  0  0  0  0
   62.4908   -6.9967  -10.7010 C   0  0  0  0  0  0  0  0  0  0  0  0
   61.9234   -8.3495  -10.2819 C   0  0  0  0  0  0  0  0  0  0  0  0
   61.0211   -8.2232   -9.1055 C   0  0  0  0  0  0  0  0  0  0  0  0
   60.8743   -6.7578   -8.6676 C   0  0  0  0  0  0  0  0  0  0  0  0
   62.9394   -9.3416  -10.1316 N   0  0  0  0  0  0  0  0  0  0  0  0
   63.2643  -10.0831  -11.2918 C   0  0  0  0  0  0  0  0  0  0  0  0
   62.6503  -11.4624  -11.1662 C   0  0  0  0  0  0  0  0  0  0  0  0
   62.3440  -11.5759   -9.6970 C   0  0  0  0  0  0  0  0  0  0  0  0
   62.7212  -10.2562   -9.0674 C   0  0  0  0  0  0  0  0  0  0  0  0
   56.5803   -4.5595  -13.4808 C   0  0  0  0  0  0  0  0  0  0  0  0
   57.0831   -3.7457  -12.4593 O   0  0  0  0  0  0  0  0  0  0  0  0
 41 42  1  0  0  0
 42 24  1  0  0  0
 24 25  2  0  0  0
 25 26  1  0  0  0
 26 27  2  0  0  0
 27 28  1  0  0  0
 28 29  2  0  0  0
 29  1  1  0  0  0
  1  3  1  0  0  0
  3  4  2  0  0  0
  4  5  1  0  0  0
  5  6  2  0  0  0
  6  7  1  0  0  0
  6  8  1  0  0  0
  8 10  1  0  0  0
 10 12  1  0  0  0
 12 13  2  0  0  0
 13 14  1  0  0  0
 14 15  2  0  0  0
 15 16  1  0  0  0
 16 17  2  0  0  0
 17 18  1  0  0  0
 18 19  2  0  0  0
 18 20  2  0  0  0
 18 21  1  0  0  0
 21 22  1  0  0  0
 21 23  1  0  0  0
  8  9  2  0  0  0
 26 30  1  0  0  0
 30 31  1  0  0  0
 31 32  1  0  0  0
 32 33  1  0  0  0
 33 34  1  0  0  0
 34 35  1  0  0  0
 33 36  1  0  0  0
 36 37  1  0  0  0
 37 38  1  0  0  0
 38 39  1  0  0  0
 39 40  1  0  0  0
 29 24  1  0  0  0
  9  3  1  0  0  0
 35 30  1  0  0  0
 40 36  1  0  0  0
 17 12  1  0  0  0
  1  2  1  0  0  0
 10 11  1  0  0  0
M  END
> <minimizedAffinity>
-8.53333

> <CNNscore>
0.7952367067

> <CNNaffinity>
8.0159778595

> <CNN_VS>
6.3745999336

> <CNNaffinity_variance>
0.0090514878

$$$$
[H]c1nc(N([H])c2c([H])c([H])c(N3C([H])([H])C([H])([H])C([H])(N4C([H])([H])C([H])([H])C([H])([H])C4([H])[H])C([H])([H])C3([H])[H])c([H])c2OC([H])([H])[H])nc(N([H])c2c([H])c([H])c([H])c([H])c2S(=O)(=O)C([H])(C([H])([H])[H])C([H])([H])[H])c1Cl


 42 46  0  0  0  0  0  0  0  0999 V2000
   55.2828   -3.3640   -9.5921 N   0  0  0  0  0  0  0  0  0  0  0  0
   55.2866   -2.5581  -10.3304 H   0  0  0  0  0  0  0  0  0  0  0  0
   54.0869   -3.4483   -8.8766 C   0  0  0  0  0  0  0  0  0  0  0  0
   53.0343   -2.6897   -9.1475 N   0  0  0  0  0  0  0  0  0  0  0  0
   51.8870   -2.7560   -8.4672 C   0  0  0  0  0  0  0  0  0  0  0  0
   51.8174   -3.6588   -7.4444 C   0  0  0  0  0  0  0  0  0  0  0  0
   50.3467   -3.8031   -6.5144 Cl  0  0  0  0  0  0  0  0  0  0  0  0
   52.9106   -4.4844   -7.1216 C   0  0  0  0  0  0  0  0  0  0  0  0
   53.9787   -4.3245   -7.8624 N   0  0  0  0  0  0  0  0  0  0  0  0
   52.8477   -5.3874   -6.0460 N   0  0  0  0  0  0  0  0  0  0  0  0
   51.8379   -5.5940   -5.7294 H   0  0  0  0  0  0  0  0  0  0  0  0
   53.9095   -6.0429   -5.3899 C   0  0  0  0  0  0  0  0  0  0  0  0
   55.1231   -6.3095   -5.9676 C   0  0  0  0  0  0  0  0  0  0  0  0
   56.1422   -7.0486   -5.3684 C   0  0  0  0  0  0  0  0  0  0  0  0
   55.9222   -7.5446   -4.1194 C   0  0  0  0  0  0  0  0  0  0  0  0
   54.7186   -7.2959   -3.5106 C   0  0  0  0  0  0  0  0  0  0  0  0
   53.6933   -6.5515   -4.1104 C   0  0  0  0  0  0  0  0  0  0  0  0
   52.2898   -6.2332   -3.1687 S   0  0  0  0  0  0  0  0  0  0  0  0
   51.2299   -5.4319   -3.8998 O   0  0  0  0  0  0  0  0  0  0  0  0
   51.5722   -7.5827   -2.9351 O   0  0  0  0  0  0  0  0  0  0  0  0
   52.5752   -5.6066   -1.5527 C   0  0  0  0  0  0  0  0  0  0  0  0
   53.8254   -4.8661   -1.2976 C   0  0  0  0  0  0  0  0  0  0  0  0
   52.4478   -6.7789   -0.5810 C   0  0  0  0  0  0  0  0  0  0  0  0
   57.1149   -4.4428  -10.7176 C   0  0  0  0  0  0  0  0  0  0  0  0
   58.2648   -5.1996  -10.6962 C   0  0  0  0  0  0  0  0  0  0  0  0
   58.7892   -5.6699   -9.5112 C   0  0  0  0  0  0  0  0  0  0  0  0
   58.1665   -5.3880   -8.3178 C   0  0  0  0  0  0  0  0  0  0  0  0
   56.9989   -4.6177   -8.3567 C   0  0  0  0  0  0  0  0  0  0  0  0
   56.4562   -4.1394   -9.5089 C   0  0  0  0  0  0  0  0  0  0  0  0
   59.9670   -6.4590   -9.4645 N   0  0  0  0  0  0  0  0  0  0  0  0
   60.0068   -7.7786  -10.1054 C   0  0  0  0  0  0  0  0  0  0  0  0
   61.2357   -8.5390   -9.6679 C   0  0  0  0  0  0  0  0  0  0  0  0
   61.3683   -8.4735   -8.1495 C   0  0  0  0  0  0  0  0  0  0  0  0
   61.3779   -7.0678   -7.6617 C   0  0  0  0  0  0  0  0  0  0  0  0
   61.2046   -6.0725   -8.8193 C   0  0  0  0  0  0  0  0  0  0  0  0
   62.4535   -9.2648   -7.6643 N   0  0  0  0  0  0  0  0  0  0  0  0
   62.2215  -10.6578   -7.5800 C   0  0  0  0  0  0  0  0  0  0  0  0
   62.0097  -11.0208   -6.1246 C   0  0  0  0  0  0  0  0  0  0  0  0
   62.5647   -9.8338   -5.3841 C   0  0  0  0  0  0  0  0  0  0  0  0
   62.9964   -8.8299   -6.4262 C   0  0  0  0  0  0  0  0  0  0  0  0
   57.4533   -4.0084  -13.0631 C   0  0  0  0  0  0  0  0  0  0  0  0
   56.6367   -4.0001  -11.9266 O   0  0  0  0  0  0  0  0  0  0  0  0
 41 42  1  0  0  0
 42 24  1  0  0  0
 24 25  2  0  0  0
 25 26  1  0  0  0
 26 27  2  0  0  0
 27 28  1  0  0  0
 28 29  2  0  0  0
 29  1  1  0  0  0
  1  3  1  0  0  0
  3  4  2  0  0  0
  4  5  1  0  0  0
  5  6  2  0  0  0
  6  7  1  0  0  0
  6  8  1  0  0  0
  8 10  1  0  0  0
 10 12  1  0  0  0
 12 13  2  0  0  0
 13 14  1  0  0  0
 14 15  2  0  0  0
 15 16  1  0  0  0
 16 17  2  0  0  0
 17 18  1  0  0  0
 18 19  2  0  0  0
 18 20  2  0  0  0
 18 21  1  0  0  0
 21 22  1  0  0  0
 21 23  1  0  0  0
  8  9  2  0  0  0
 26 30  1  0  0  0
 30 31  1  0  0  0
 31 32  1  0  0  0
 32 33  1  0  0  0
 33 34  1  0  0  0
 34 35  1  0  0  0
 33 36  1  0  0  0
 36 37  1  0  0  0
 37 38  1  0  0  0
 38 39  1  0  0  0
 39 40  1  0  0  0
 29 24  1  0  0  0
  9  3  1  0  0  0
 35 30  1  0  0  0
 40 36  1  0  0  0
 17 12  1  0  0  0
  1  2  1  0  0  0
 10 11  1  0  0  0
M  END
> <minimizedAffinity>
-8.60254

> <CNNscore>
0.7839308381

> <CNNaffinity>
8.1710844040

> <CNN_VS>
6.4055652618

> <CNNaffinity_variance>
0.0214274414

$$$$
[H]c1nc(N([H])c2c([H])c([H])c(N3C([H])([H])C([H])([H])C([H])(N4C([H])([H])C([H])([H])C([H])([H])C4([H])[H])C([H])([H])C3([H])[H])c([H])c2OC([H])([H])[H])nc(N([H])c2c([H])c([H])c([H])c([H])c2S(=O)(=O)C([H])(C([H])([H])[H])C([H])([H])[H])c1Cl


 42 46  0  0  0  0  0  0  0  0999 V2000
   55.6387   -3.5128   -9.7360 N   0  0  0  0  0  0  0  0  0  0  0  0
   55.6758   -2.7130  -10.4801 H   0  0  0  0  0  0  0  0  0  0  0  0
   54.4135   -3.5881   -9.0706 C   0  0  0  0  0  0  0  0  0  0  0  0
   53.4763   -2.6581   -9.1867 N   0  0  0  0  0  0  0  0  0  0  0  0
   52.3031   -2.7149   -8.5512 C   0  0  0  0  0  0  0  0  0  0  0  0
   52.0794   -3.7954   -7.7460 C   0  0  0  0  0  0  0  0  0  0  0  0
   50.5656   -3.9379   -6.8875 Cl  0  0  0  0  0  0  0  0  0  0  0  0
   53.0464   -4.8066   -7.5931 C   0  0  0  0  0  0  0  0  0  0  0  0
   54.1553   -4.6360   -8.2687 N   0  0  0  0  0  0  0  0  0  0  0  0
   52.8272   -5.8993   -6.7363 N   0  0  0  0  0  0  0  0  0  0  0  0
   52.9292   -6.8505   -7.2339 H   0  0  0  0  0  0  0  0  0  0  0  0
   52.5332   -5.8857   -5.3575 C   0  0  0  0  0  0  0  0  0  0  0  0
   51.2657   -5.8127   -4.8420 C   0  0  0  0  0  0  0  0  0  0  0  0
   50.9661   -5.6918   -3.4857 C   0  0  0  0  0  0  0  0  0  0  0  0
   52.0030   -5.6417   -2.6044 C   0  0  0  0  0  0  0  0  0  0  0  0
   53.2854   -5.7132   -3.0857 C   0  0  0  0  0  0  0  0  0  0  0  0
   53.5888   -5.8367   -4.4487 C   0  0  0  0  0  0  0  0  0  0  0  0
   55.2430   -6.0293   -4.8781 S   0  0  0  0  0  0  0  0  0  0  0  0
   55.4667   -6.9616   -6.0533 O   0  0  0  0  0  0  0  0  0  0  0  0
   55.7371   -4.6760   -5.4395 O   0  0  0  0  0  0  0  0  0  0  0  0
   56.3440   -6.3798   -3.5551 C   0  0  0  0  0  0  0  0  0  0  0  0
   56.8086   -5.2610   -2.7133 C   0  0  0  0  0  0  0  0  0  0  0  0
   57.5383   -7.1297   -4.1434 C   0  0  0  0  0  0  0  0  0  0  0  0
   57.4563   -4.6920  -10.7814 C   0  0  0  0  0  0  0  0  0  0  0  0
   58.5993   -5.4557  -10.7057 C   0  0  0  0  0  0  0  0  0  0  0  0
   59.1241   -5.8387   -9.4898 C   0  0  0  0  0  0  0  0  0  0  0  0
   58.5087   -5.4602   -8.3195 C   0  0  0  0  0  0  0  0  0  0  0  0
   57.3481   -4.6842   -8.4137 C   0  0  0  0  0  0  0  0  0  0  0  0
   56.8052   -4.2906   -9.5974 C   0  0  0  0  0  0  0  0  0  0  0  0
   60.2949   -6.6329   -9.3865 N   0  0  0  0  0  0  0  0  0  0  0  0
   60.3239   -7.9938   -9.9349 C   0  0  0  0  0  0  0  0  0  0  0  0
   61.5454   -8.7330   -9.4436 C   0  0  0  0  0  0  0  0  0  0  0  0
   61.6764   -8.5641   -7.9330 C   0  0  0  0  0  0  0  0  0  0  0  0
   61.6978   -7.1283   -7.5432 C   0  0  0  0  0  0  0  0  0  0  0  0
   61.5349   -6.2137   -8.7670 C   0  0  0  0  0  0  0  0  0  0  0  0
   62.7540   -9.3295   -7.3923 N   0  0  0  0  0  0  0  0  0  0  0  0
   63.0802  -10.5214   -8.0811 C   0  0  0  0  0  0  0  0  0  0  0  0
   62.5536  -11.6958   -7.2820 C   0  0  0  0  0  0  0  0  0  0  0  0
   62.3074  -11.1081   -5.9184 C   0  0  0  0  0  0  0  0  0  0  0  0
   62.6285   -9.6356   -6.0113 C   0  0  0  0  0  0  0  0  0  0  0  0
   57.8175   -3.7406  -12.9651 C   0  0  0  0  0  0  0  0  0  0  0  0
   56.9774   -4.3389  -12.0192 O   0  0  0  0  0  0  0  0  0  0  0  0
 41 42  1  0  0  0
 42 24  1  0  0  0
 24 25  2  0  0  0
 25 26  1  0  0  0
 26 27  2  0  0  0
 27 28  1  0  0  0
 28 29  2  0  0  0
 29  1  1  0  0  0
  1  3  1  0  0  0
  3  4  2  0  0  0
  4  5  1  0  0  0
  5  6  2  0  0  0
  6  7  1  0  0  0
  6  8  1  0  0  0
  8 10  1  0  0  0
 10 12  1  0  0  0
 12 13  2  0  0  0
 13 14  1  0  0  0
 14 15  2  0  0  0
 15 16  1  0  0  0
 16 17  2  0  0  0
 17 18  1  0  0  0
 18 19  2  0  0  0
 18 20  2  0  0  0
 18 21  1  0  0  0
 21 22  1  0  0  0
 21 23  1  0  0  0
  8  9  2  0  0  0
 26 30  1  0  0  0
 30 31  1  0  0  0
 31 32  1  0  0  0
 32 33  1  0  0  0
 33 34  1  0  0  0
 34 35  1  0  0  0
 33 36  1  0  0  0
 36 37  1  0  0  0
 37 38  1  0  0  0
 38 39  1  0  0  0
 39 40  1  0  0  0
 29 24  1  0  0  0
  9  3  1  0  0  0
 35 30  1  0  0  0
 40 36  1  0  0  0
 17 12  1  0  0  0
  1  2  1  0  0  0
 10 11  1  0  0  0
M  END
> <minimizedAffinity>
-9.13983

> <CNNscore>
0.7663582563

> <CNNaffinity>
7.9194688797

> <CNN_VS>
6.0691504478

> <CNNaffinity_variance>
0.1560720503

$$$$
[H]c1nc(N([H])c2c([H])c([H])c(N3C([H])([H])C([H])([H])C([H])(N4C([H])([H])C([H])([H])C([H])([H])C4([H])[H])C([H])([H])C3([H])[H])c([H])c2OC([H])([H])[H])nc(N([H])c2c([H])c([H])c([H])c([H])c2S(=O)(=O)C([H])(C([H])([H])[H])C([H])([H])[H])c1Cl


 42 46  0  0  0  0  0  0  0  0999 V2000
   55.5494   -3.5423   -9.8376 N   0  0  0  0  0  0  0  0  0  0  0  0
   55.5388   -2.8222  -10.6598 H   0  0  0  0  0  0  0  0  0  0  0  0
   54.3619   -3.5559   -9.1034 C   0  0  0  0  0  0  0  0  0  0  0  0
   53.3527   -2.7350   -9.3573 N   0  0  0  0  0  0  0  0  0  0  0  0
   52.2143   -2.7334   -8.6590 C   0  0  0  0  0  0  0  0  0  0  0  0
   52.1067   -3.6320   -7.6358 C   0  0  0  0  0  0  0  0  0  0  0  0
   50.6447   -3.6893   -6.6828 Cl  0  0  0  0  0  0  0  0  0  0  0  0
   53.1533   -4.5222   -7.3308 C   0  0  0  0  0  0  0  0  0  0  0  0
   54.2172   -4.4255   -8.0882 N   0  0  0  0  0  0  0  0  0  0  0  0
   53.0532   -5.4215   -6.2549 N   0  0  0  0  0  0  0  0  0  0  0  0
   52.1898   -6.0639   -6.3231 H   0  0  0  0  0  0  0  0  0  0  0  0
   53.9339   -5.5860   -5.1664 C   0  0  0  0  0  0  0  0  0  0  0  0
   55.2768   -5.3183   -5.2163 C   0  0  0  0  0  0  0  0  0  0  0  0
   56.1766   -5.5758   -4.1829 C   0  0  0  0  0  0  0  0  0  0  0  0
   55.6927   -6.1337   -3.0388 C   0  0  0  0  0  0  0  0  0  0  0  0
   54.3528   -6.4140   -2.9538 C   0  0  0  0  0  0  0  0  0  0  0  0
   53.4461   -6.1543   -3.9909 C   0  0  0  0  0  0  0  0  0  0  0  0
   51.7815   -6.4582   -3.6831 S   0  0  0  0  0  0  0  0  0  0  0  0
   50.9717   -6.7550   -4.9306 O   0  0  0  0  0  0  0  0  0  0  0  0
   51.6891   -7.7946   -2.9110 O   0  0  0  0  0  0  0  0  0  0  0  0
   50.9685   -5.2982   -2.6443 C   0  0  0  0  0  0  0  0  0  0  0  0
   49.9830   -4.3830   -3.2505 C   0  0  0  0  0  0  0  0  0  0  0  0
   52.0509   -4.5022   -1.9165 C   0  0  0  0  0  0  0  0  0  0  0  0
   57.4346   -4.6360  -10.8560 C   0  0  0  0  0  0  0  0  0  0  0  0
   58.5934   -5.3738  -10.7652 C   0  0  0  0  0  0  0  0  0  0  0  0
   59.0824   -5.7898   -9.5453 C   0  0  0  0  0  0  0  0  0  0  0  0
   58.4144   -5.4713   -8.3860 C   0  0  0  0  0  0  0  0  0  0  0  0
   57.2383   -4.7209   -8.4955 C   0  0  0  0  0  0  0  0  0  0  0  0
   56.7298   -4.2960   -9.6836 C   0  0  0  0  0  0  0  0  0  0  0  0
   60.2687   -6.5584   -9.4270 N   0  0  0  0  0  0  0  0  0  0  0  0
   60.3493   -7.9011  -10.0138 C   0  0  0  0  0  0  0  0  0  0  0  0
   61.5725   -8.6252   -9.5046 C   0  0  0  0  0  0  0  0  0  0  0  0
   61.6508   -8.4988   -7.9862 C   0  0  0  0  0  0  0  0  0  0  0  0
   61.6238   -7.0753   -7.5540 C   0  0  0  0  0  0  0  0  0  0  0  0
   61.4774   -6.1283   -8.7551 C   0  0  0  0  0  0  0  0  0  0  0  0
   62.7292   -9.2540   -7.4332 N   0  0  0  0  0  0  0  0  0  0  0  0
   63.7964   -9.5539   -8.3120 C   0  0  0  0  0  0  0  0  0  0  0  0
   63.6906  -11.0106   -8.7144 C   0  0  0  0  0  0  0  0  0  0  0  0
   62.7702  -11.5938   -7.6761 C   0  0  0  0  0  0  0  0  0  0  0  0
   62.3391  -10.4549   -6.7833 C   0  0  0  0  0  0  0  0  0  0  0  0
   57.8907   -3.7595  -13.0533 C   0  0  0  0  0  0  0  0  0  0  0  0
   56.9930   -4.2479  -12.0972 O   0  0  0  0  0  0  0  0  0  0  0  0
 41 42  1  0  0  0
 42 24  1  0  0  0
 24 25  2  0  0  0
 25 26  1  0  0  0
 26 27  2  0  0  0
 27 28  1  0  0  0
 28 29  2  0  0  0
 29  1  1  0  0  0
  1  3  1  0  0  0
  3  4  2  0  0  0
  4  5  1  0  0  0
  5  6  2  0  0  0
  6  7  1  0  0  0
  6  8  1  0  0  0
  8 10  1  0  0  0
 10 12  1  0  0  0
 12 13  2  0  0  0
 13 14  1  0  0  0
 14 15  2  0  0  0
 15 16  1  0  0  0
 16 17  2  0  0  0
 17 18  1  0  0  0
 18 19  2  0  0  0
 18 20  2  0  0  0
 18 21  1  0  0  0
 21 22  1  0  0  0
 21 23  1  0  0  0
  8  9  2  0  0  0
 26 30  1  0  0  0
 30 31  1  0  0  0
 31 32  1  0  0  0
 32 33  1  0  0  0
 33 34  1  0  0  0
 34 35  1  0  0  0
 33 36  1  0  0  0
 36 37  1  0  0  0
 37 38  1  0  0  0
 38 39  1  0  0  0
 39 40  1  0  0  0
 29 24  1  0  0  0
  9  3  1  0  0  0
 35 30  1  0  0  0
 40 36  1  0  0  0
 17 12  1  0  0  0
  1  2  1  0  0  0
 10 11  1  0  0  0
M  END
> <minimizedAffinity>
-8.40969

> <CNNscore>
0.6178294420

> <CNNaffinity>
7.8796019554

> <CNN_VS>
4.8682498932

> <CNNaffinity_variance>
0.0167539250

$$$$
[H]c1nc(N([H])c2c([H])c([H])c(N3C([H])([H])C([H])([H])C([H])(N4C([H])([H])C([H])([H])C([H])([H])C4([H])[H])C([H])([H])C3([H])[H])c([H])c2OC([H])([H])[H])nc(N([H])c2c([H])c([H])c([H])c([H])c2S(=O)(=O)C([H])(C([H])([H])[H])C([H])([H])[H])c1Cl


 42 46  0  0  0  0  0  0  0  0999 V2000
   56.2718   -3.9538  -11.8335 N   0  0  0  0  0  0  0  0  0  0  0  0
   55.2986   -3.8716  -12.3244 H   0  0  0  0  0  0  0  0  0  0  0  0
   56.1768   -4.2158  -10.4654 C   0  0  0  0  0  0  0  0  0  0  0  0
   57.2372   -4.2829   -9.6730 N   0  0  0  0  0  0  0  0  0  0  0  0
   57.1608   -4.5388   -8.3645 C   0  0  0  0  0  0  0  0  0  0  0  0
   55.9163   -4.7382   -7.8376 C   0  0  0  0  0  0  0  0  0  0  0  0
   55.7403   -5.0732   -6.1330 Cl  0  0  0  0  0  0  0  0  0  0  0  0
   54.7629   -4.6765   -8.6418 C   0  0  0  0  0  0  0  0  0  0  0  0
   54.9696   -4.4179   -9.9089 N   0  0  0  0  0  0  0  0  0  0  0  0
   53.4868   -4.9170   -8.1033 N   0  0  0  0  0  0  0  0  0  0  0  0
   53.3521   -5.9373   -7.7814 H   0  0  0  0  0  0  0  0  0  0  0  0
   52.4276   -4.0049   -7.9199 C   0  0  0  0  0  0  0  0  0  0  0  0
   52.3565   -2.7772   -8.5244 C   0  0  0  0  0  0  0  0  0  0  0  0
   51.3713   -1.8236   -8.2714 C   0  0  0  0  0  0  0  0  0  0  0  0
   50.4076   -2.1275   -7.3585 C   0  0  0  0  0  0  0  0  0  0  0  0
   50.4475   -3.3484   -6.7347 C   0  0  0  0  0  0  0  0  0  0  0  0
   51.4360   -4.3093   -6.9890 C   0  0  0  0  0  0  0  0  0  0  0  0
   51.2786   -5.8338   -6.2087 S   0  0  0  0  0  0  0  0  0  0  0  0
   50.4875   -6.8522   -7.0069 O   0  0  0  0  0  0  0  0  0  0  0  0
   52.6833   -6.4784   -6.1627 O   0  0  0  0  0  0  0  0  0  0  0  0
   50.7657   -5.7876   -4.5293 C   0  0  0  0  0  0  0  0  0  0  0  0
   49.7489   -4.7950   -4.1330 C   0  0  0  0  0  0  0  0  0  0  0  0
   52.0218   -5.6275   -3.6741 C   0  0  0  0  0  0  0  0  0  0  0  0
   57.1715   -3.5467  -14.0271 C   0  0  0  0  0  0  0  0  0  0  0  0
   58.2395   -3.3747  -14.8787 C   0  0  0  0  0  0  0  0  0  0  0  0
   59.5376   -3.4287  -14.4176 C   0  0  0  0  0  0  0  0  0  0  0  0
   59.7905   -3.6572  -13.0851 C   0  0  0  0  0  0  0  0  0  0  0  0
   58.6941   -3.8298  -12.2329 C   0  0  0  0  0  0  0  0  0  0  0  0
   57.4023   -3.7827  -12.6567 C   0  0  0  0  0  0  0  0  0  0  0  0
   60.6541   -3.2639  -15.2768 N   0  0  0  0  0  0  0  0  0  0  0  0
   60.4684   -3.1526  -16.7283 C   0  0  0  0  0  0  0  0  0  0  0  0
   61.7929   -3.2898  -17.4401 C   0  0  0  0  0  0  0  0  0  0  0  0
   62.5427   -4.5050  -16.9028 C   0  0  0  0  0  0  0  0  0  0  0  0
   62.7067   -4.4370  -15.4255 C   0  0  0  0  0  0  0  0  0  0  0  0
   62.0340   -3.1836  -14.8448 C   0  0  0  0  0  0  0  0  0  0  0  0
   63.7575   -4.7509  -17.6121 N   0  0  0  0  0  0  0  0  0  0  0  0
   63.6323   -5.4245  -18.8498 C   0  0  0  0  0  0  0  0  0  0  0  0
   64.0802   -6.8594  -18.6616 C   0  0  0  0  0  0  0  0  0  0  0  0
   64.8588   -6.8163  -17.3742 C   0  0  0  0  0  0  0  0  0  0  0  0
   64.7652   -5.4024  -16.8525 C   0  0  0  0  0  0  0  0  0  0  0  0
   55.6898   -3.4210  -15.9227 C   0  0  0  0  0  0  0  0  0  0  0  0
   55.8992   -3.4829  -14.5403 O   0  0  0  0  0  0  0  0  0  0  0  0
 41 42  1  0  0  0
 42 24  1  0  0  0
 24 25  2  0  0  0
 25 26  1  0  0  0
 26 27  2  0  0  0
 27 28  1  0  0  0
 28 29  2  0  0  0
 29  1  1  0  0  0
  1  3  1  0  0  0
  3  4  2  0  0  0
  4  5  1  0  0  0
  5  6  2  0  0  0
  6  7  1  0  0  0
  6  8  1  0  0  0
  8 10  1  0  0  0
 10 12  1  0  0  0
 12 13  2  0  0  0
 13 14  1  0  0  0
 14 15  2  0  0  0
 15 16  1  0  0  0
 16 17  2  0  0  0
 17 18  1  0  0  0
 18 19  2  0  0  0
 18 20  2  0  0  0
 18 21  1  0  0  0
 21 22  1  0  0  0
 21 23  1  0  0  0
  8  9  2  0  0  0
 26 30  1  0  0  0
 30 31  1  0  0  0
 31 32  1  0  0  0
 32 33  1  0  0  0
 33 34  1  0  0  0
 34 35  1  0  0  0
 33 36  1  0  0  0
 36 37  1  0  0  0
 37 38  1  0  0  0
 38 39  1  0  0  0
 39 40  1  0  0  0
 29 24  1  0  0  0
  9  3  1  0  0  0
 35 30  1  0  0  0
 40 36  1  0  0  0
 17 12  1  0  0  0
  1  2  1  0  0  0
 10 11  1  0  0  0
M  END
> <minimizedAffinity>
-8.65407

> <CNNscore>
0.3436335325

> <CNNaffinity>
7.1722860336

> <CNN_VS>
2.4646379948

> <CNNaffinity_variance>
0.1292311400

$$$$
[H]c1nc(N([H])c2c([H])c([H])c(N3C([H])([H])C([H])([H])C([H])(N4C([H])([H])C([H])([H])C([H])([H])C4([H])[H])C([H])([H])C3([H])[H])c([H])c2OC([H])([H])[H])nc(N([H])c2c([H])c([H])c([H])c([H])c2S(=O)(=O)C([H])(C([H])([H])[H])C([H])([H])[H])c1Cl


 42 46  0  0  0  0  0  0  0  0999 V2000
   56.3402   -3.7112  -11.8328 N   0  0  0  0  0  0  0  0  0  0  0  0
   55.3988   -3.3967  -12.2905 H   0  0  0  0  0  0  0  0  0  0  0  0
   56.2057   -4.0695  -10.4900 C   0  0  0  0  0  0  0  0  0  0  0  0
   57.2454   -4.2371   -9.6851 N   0  0  0  0  0  0  0  0  0  0  0  0
   57.1310   -4.5856   -8.4010 C   0  0  0  0  0  0  0  0  0  0  0  0
   55.8687   -4.7736   -7.9139 C   0  0  0  0  0  0  0  0  0  0  0  0
   55.6432   -5.2261   -6.2426 Cl  0  0  0  0  0  0  0  0  0  0  0  0
   54.7361   -4.6067   -8.7326 C   0  0  0  0  0  0  0  0  0  0  0  0
   54.9799   -4.2638   -9.9728 N   0  0  0  0  0  0  0  0  0  0  0  0
   53.4404   -4.8353   -8.2374 N   0  0  0  0  0  0  0  0  0  0  0  0
   53.2614   -5.8695   -7.9904 H   0  0  0  0  0  0  0  0  0  0  0  0
   52.4114   -3.8984   -8.0116 C   0  0  0  0  0  0  0  0  0  0  0  0
   52.2845   -2.7162   -8.6928 C   0  0  0  0  0  0  0  0  0  0  0  0
   51.3367   -1.7340   -8.4085 C   0  0  0  0  0  0  0  0  0  0  0  0
   50.4719   -1.9591   -7.3810 C   0  0  0  0  0  0  0  0  0  0  0  0
   50.5697   -3.1327   -6.6780 C   0  0  0  0  0  0  0  0  0  0  0  0
   51.5207   -4.1224   -6.9633 C   0  0  0  0  0  0  0  0  0  0  0  0
   51.4370   -5.5851   -6.0626 S   0  0  0  0  0  0  0  0  0  0  0  0
   50.3884   -6.5572   -6.5683 O   0  0  0  0  0  0  0  0  0  0  0  0
   52.7492   -6.3623   -6.3173 O   0  0  0  0  0  0  0  0  0  0  0  0
   51.3675   -5.4087   -4.3163 C   0  0  0  0  0  0  0  0  0  0  0  0
   51.8673   -6.5152   -3.4785 C   0  0  0  0  0  0  0  0  0  0  0  0
   49.9212   -5.0797   -3.9493 C   0  0  0  0  0  0  0  0  0  0  0  0
   57.2556   -3.5642  -14.0525 C   0  0  0  0  0  0  0  0  0  0  0  0
   58.3290   -3.5432  -14.9144 C   0  0  0  0  0  0  0  0  0  0  0  0
   59.6223   -3.6460  -14.4484 C   0  0  0  0  0  0  0  0  0  0  0  0
   59.8650   -3.7722  -13.1006 C   0  0  0  0  0  0  0  0  0  0  0  0
   58.7634   -3.7918  -12.2380 C   0  0  0  0  0  0  0  0  0  0  0  0
   57.4759   -3.6930  -12.6662 C   0  0  0  0  0  0  0  0  0  0  0  0
   60.7435   -3.6363  -15.3173 N   0  0  0  0  0  0  0  0  0  0  0  0
   62.0893   -3.3710  -14.7957 C   0  0  0  0  0  0  0  0  0  0  0  0
   63.0522   -3.1152  -15.9302 C   0  0  0  0  0  0  0  0  0  0  0  0
   62.4466   -2.1070  -16.9021 C   0  0  0  0  0  0  0  0  0  0  0  0
   61.1132   -2.5513  -17.3904 C   0  0  0  0  0  0  0  0  0  0  0  0
   60.6950   -3.8810  -16.7439 C   0  0  0  0  0  0  0  0  0  0  0  0
   63.3547   -1.7421  -17.9420 N   0  0  0  0  0  0  0  0  0  0  0  0
   64.5713   -1.1500  -17.5291 C   0  0  0  0  0  0  0  0  0  0  0  0
   64.4979    0.3378  -17.8054 C   0  0  0  0  0  0  0  0  0  0  0  0
   63.3577    0.4560  -18.7808 C   0  0  0  0  0  0  0  0  0  0  0  0
   62.7911   -0.9317  -18.9630 C   0  0  0  0  0  0  0  0  0  0  0  0
   55.7522   -3.6912  -15.9308 C   0  0  0  0  0  0  0  0  0  0  0  0
   55.9884   -3.4580  -14.5713 O   0  0  0  0  0  0  0  0  0  0  0  0
 41 42  1  0  0  0
 42 24  1  0  0  0
 24 25  2  0  0  0
 25 26  1  0  0  0
 26 27  2  0  0  0
 27 28  1  0  0  0
 28 29  2  0  0  0
 29  1  1  0  0  0
  1  3  1  0  0  0
  3  4  2  0  0  0
  4  5  1  0  0  0
  5  6  2  0  0  0
  6  7  1  0  0  0
  6  8  1  0  0  0
  8 10  1  0  0  0
 10 12  1  0  0  0
 12 13  2  0  0  0
 13 14  1  0  0  0
 14 15  2  0  0  0
 15 16  1  0  0  0
 16 17  2  0  0  0
 17 18  1  0  0  0
 18 19  2  0  0  0
 18 20  2  0  0  0
 18 21  1  0  0  0
 21 22  1  0  0  0
 21 23  1  0  0  0
  8  9  2  0  0  0
 26 30  1  0  0  0
 30 31  1  0  0  0
 31 32  1  0  0  0
 32 33  1  0  0  0
 33 34  1  0  0  0
 34 35  1  0  0  0
 33 36  1  0  0  0
 36 37  1  0  0  0
 37 38  1  0  0  0
 38 39  1  0  0  0
 39 40  1  0  0  0
 29 24  1  0  0  0
  9  3  1  0  0  0
 35 30  1  0  0  0
 40 36  1  0  0  0
 17 12  1  0  0  0
  1  2  1  0  0  0
 10 11  1  0  0  0
M  END
> <minimizedAffinity>
-8.14621

> <CNNscore>
0.3374282122

> <CNNaffinity>
7.1223287582

> <CNN_VS>
2.4032747746

> <CNNaffinity_variance>
0.0343552269

$$$$
[H]c1nc(N([H])c2c([H])c([H])c(N3C([H])([H])C([H])([H])C([H])(N4C([H])([H])C([H])([H])C([H])([H])C4([H])[H])C([H])([H])C3([H])[H])c([H])c2OC([H])([H])[H])nc(N([H])c2c([H])c([H])c([H])c([H])c2S(=O)(=O)C([H])(C([H])([H])[H])C([H])([H])[H])c1Cl


 42 46  0  0  0  0  0  0  0  0999 V2000
   56.6626   -4.3539   -7.1919 N   0  0  0  0  0  0  0  0  0  0  0  0
   56.9268   -3.4234   -6.6831 H   0  0  0  0  0  0  0  0  0  0  0  0
   56.2251   -5.3524   -6.3194 C   0  0  0  0  0  0  0  0  0  0  0  0
   57.0581   -6.0947   -5.6040 N   0  0  0  0  0  0  0  0  0  0  0  0
   56.6533   -7.0567   -4.7708 C   0  0  0  0  0  0  0  0  0  0  0  0
   55.3078   -7.2687   -4.6665 C   0  0  0  0  0  0  0  0  0  0  0  0
   54.7063   -8.5074   -3.5929 Cl  0  0  0  0  0  0  0  0  0  0  0  0
   54.3872   -6.5043   -5.4074 C   0  0  0  0  0  0  0  0  0  0  0  0
   54.9085   -5.5918   -6.1889 N   0  0  0  0  0  0  0  0  0  0  0  0
   53.0053   -6.7488   -5.3244 N   0  0  0  0  0  0  0  0  0  0  0  0
   52.6787   -7.5412   -5.9787 H   0  0  0  0  0  0  0  0  0  0  0  0
   52.0532   -6.1207   -4.4958 C   0  0  0  0  0  0  0  0  0  0  0  0
   51.9825   -6.2924   -3.1382 C   0  0  0  0  0  0  0  0  0  0  0  0
   50.9839   -5.7629   -2.3220 C   0  0  0  0  0  0  0  0  0  0  0  0
   50.0049   -5.0210   -2.9098 C   0  0  0  0  0  0  0  0  0  0  0  0
   50.0450   -4.8278   -4.2671 C   0  0  0  0  0  0  0  0  0  0  0  0
   51.0491   -5.3576   -5.0894 C   0  0  0  0  0  0  0  0  0  0  0  0
   51.0190   -4.9278   -6.7544 S   0  0  0  0  0  0  0  0  0  0  0  0
   51.8474   -5.8404   -7.6381 O   0  0  0  0  0  0  0  0  0  0  0  0
   49.5860   -5.1865   -7.2743 O   0  0  0  0  0  0  0  0  0  0  0  0
   51.3140   -3.2343   -7.1156 C   0  0  0  0  0  0  0  0  0  0  0  0
   50.1541   -2.3330   -7.2511 C   0  0  0  0  0  0  0  0  0  0  0  0
   52.1744   -3.1814   -8.3773 C   0  0  0  0  0  0  0  0  0  0  0  0
   58.0202   -4.8754   -9.1082 C   0  0  0  0  0  0  0  0  0  0  0  0
   58.2217   -4.9064  -10.4697 C   0  0  0  0  0  0  0  0  0  0  0  0
   57.2622   -4.4448  -11.3453 C   0  0  0  0  0  0  0  0  0  0  0  0
   56.0747   -3.9406  -10.8688 C   0  0  0  0  0  0  0  0  0  0  0  0
   55.8854   -3.9161   -9.4825 C   0  0  0  0  0  0  0  0  0  0  0  0
   56.8122   -4.3633   -8.5928 C   0  0  0  0  0  0  0  0  0  0  0  0
   57.4506   -4.4578  -12.7512 N   0  0  0  0  0  0  0  0  0  0  0  0
   58.6507   -3.8610  -13.3486 C   0  0  0  0  0  0  0  0  0  0  0  0
   58.4833   -3.7268  -14.8432 C   0  0  0  0  0  0  0  0  0  0  0  0
   57.1326   -3.0894  -15.1547 C   0  0  0  0  0  0  0  0  0  0  0  0
   56.0137   -3.8478  -14.5329 C   0  0  0  0  0  0  0  0  0  0  0  0
   56.5328   -5.0370  -13.7101 C   0  0  0  0  0  0  0  0  0  0  0  0
   56.9599   -2.8373  -16.5497 N   0  0  0  0  0  0  0  0  0  0  0  0
   56.3374   -3.8644  -17.2972 C   0  0  0  0  0  0  0  0  0  0  0  0
   57.4003   -4.5799  -18.1055 C   0  0  0  0  0  0  0  0  0  0  0  0
   58.5573   -3.6174  -18.0908 C   0  0  0  0  0  0  0  0  0  0  0  0
   58.1426   -2.4467  -17.2318 C   0  0  0  0  0  0  0  0  0  0  0  0
   60.0907   -6.0687   -8.8031 C   0  0  0  0  0  0  0  0  0  0  0  0
   59.0100   -5.3484   -8.2819 O   0  0  0  0  0  0  0  0  0  0  0  0
 41 42  1  0  0  0
 42 24  1  0  0  0
 24 25  2  0  0  0
 25 26  1  0  0  0
 26 27  2  0  0  0
 27 28  1  0  0  0
 28 29  2  0  0  0
 29  1  1  0  0  0
  1  3  1  0  0  0
  3  4  2  0  0  0
  4  5  1  0  0  0
  5  6  2  0  0  0
  6  7  1  0  0  0
  6  8  1  0  0  0
  8 10  1  0  0  0
 10 12  1  0  0  0
 12 13  2  0  0  0
 13 14  1  0  0  0
 14 15  2  0  0  0
 15 16  1  0  0  0
 16 17  2  0  0  0
 17 18  1  0  0  0
 18 19  2  0  0  0
 18 20  2  0  0  0
 18 21  1  0  0  0
 21 22  1  0  0  0
 21 23  1  0  0  0
  8  9  2  0  0  0
 26 30  1  0  0  0
 30 31  1  0  0  0
 31 32  1  0  0  0
 32 33  1  0  0  0
 33 34  1  0  0  0
 34 35  1  0  0  0
 33 36  1  0  0  0
 36 37  1  0  0  0
 37 38  1  0  0  0
 38 39  1  0  0  0
 39 40  1  0  0  0
 29 24  1  0  0  0
  9  3  1  0  0  0
 35 30  1  0  0  0
 40 36  1  0  0  0
 17 12  1  0  0  0
  1  2  1  0  0  0
 10 11  1  0  0  0
M  END
> <minimizedAffinity>
-9.03539

> <CNNscore>
0.2549879551

> <CNNaffinity>
7.4059000015

> <CNN_VS>
1.8884153366

> <CNNaffinity_variance>
0.4969736636

$$$$
[H]c1nn([H])c([H])c1-c1c([H])c([H])c2c(nc([H])n2-c2sc(C(=O)N([H])[H])c(O[C@@]([H])(c3c([H])c([H])c([H])c([H])c3Cl)C([H])([H])[H])c2[H])c1[H]


 35 39  0  0  0  0  0  0  0  0999 V2000
   51.0011   -4.8836   -5.0212 C   0  0  0  0  0  0  0  0  0  0  0  0
   51.9197   -4.8435   -6.0109 C   0  0  0  0  0  0  0  0  0  0  0  0
   51.7837   -3.9522   -7.0222 C   0  0  0  0  0  0  0  0  0  0  0  0
   50.3700   -3.1413   -6.6297 S   0  0  0  0  0  0  0  0  0  0  0  0
   49.9566   -3.9409   -5.1770 C   0  0  0  0  0  0  0  0  0  0  0  0
   52.6614   -3.7215   -8.1451 N   0  0  0  0  0  0  0  0  0  0  0  0
   52.3295   -2.9589   -9.2285 C   0  0  0  0  0  0  0  0  0  0  0  0
   53.3339   -2.9217  -10.0832 N   0  0  0  0  0  0  0  0  0  0  0  0
   54.3252   -3.6765   -9.5335 C   0  0  0  0  0  0  0  0  0  0  0  0
   55.5956   -4.0016   -9.9607 C   0  0  0  0  0  0  0  0  0  0  0  0
   56.4781   -4.8043   -9.2413 C   0  0  0  0  0  0  0  0  0  0  0  0
   56.0080   -5.2799   -8.0357 C   0  0  0  0  0  0  0  0  0  0  0  0
   54.7302   -4.9721   -7.5716 C   0  0  0  0  0  0  0  0  0  0  0  0
   53.9024   -4.1718   -8.3279 C   0  0  0  0  0  0  0  0  0  0  0  0
   57.8034   -5.0972   -9.7640 C   0  0  0  0  0  0  0  0  0  0  0  0
   58.2101   -4.8114  -11.0646 C   0  0  0  0  0  0  0  0  0  0  0  0
   59.4982   -5.2085  -11.2087 N   0  0  0  0  0  0  0  0  0  0  0  0
   59.9197   -5.7330  -10.0456 N   0  0  0  0  0  0  0  0  0  0  0  0
   58.8917   -5.6669   -9.1667 C   0  0  0  0  0  0  0  0  0  0  0  0
   60.8891   -6.1052   -9.9302 H   0  0  0  0  0  0  0  0  0  0  0  0
   48.7905   -3.7172   -4.3192 C   0  0  0  0  0  0  0  0  0  0  0  0
   48.4392   -4.6909   -3.3642 N   0  0  0  0  0  0  0  0  0  0  0  0
   48.1200   -2.6875   -4.4255 O   0  0  0  0  0  0  0  0  0  0  0  0
   47.8279   -4.4749   -2.5523 H   0  0  0  0  0  0  0  0  0  0  0  0
   48.7933   -5.6621   -3.4637 H   0  0  0  0  0  0  0  0  0  0  0  0
   51.0162   -5.7172   -3.9587 O   0  0  0  0  0  0  0  0  0  0  0  0
   50.7039   -6.8073   -1.8857 C   0  0  0  0  0  0  0  0  0  0  0  0
   51.5749   -6.6072   -3.1526 C   0  0  0  0  0  0  0  0  0  0  0  0
   52.8993   -6.1598   -2.5620 C   0  0  0  0  0  0  0  0  0  0  0  0
   52.9626   -5.5225   -1.3460 C   0  0  0  0  0  0  0  0  0  0  0  0
   54.1522   -4.9870   -0.8389 C   0  0  0  0  0  0  0  0  0  0  0  0
   55.2852   -5.1157   -1.6063 C   0  0  0  0  0  0  0  0  0  0  0  0
   55.2419   -5.7445   -2.8123 C   0  0  0  0  0  0  0  0  0  0  0  0
   54.0442   -6.2736   -3.2949 C   0  0  0  0  0  0  0  0  0  0  0  0
   54.0898   -7.1967   -4.7959 Cl  0  0  0  0  0  0  0  0  0  0  0  0
 27 28  1  0  0  0
 28 26  1  0  0  0
 26  1  1  0  0  0
  1  2  1  0  0  0
  2  3  2  0  0  0
  3  4  1  0  0  0
  4  5  1  0  0  0
  5 21  1  0  0  0
 21 22  1  0  0  0
 21 23  2  0  0  0
  3  6  1  0  0  0
  6  7  1  0  0  0
  7  8  2  0  0  0
  8  9  1  0  0  0
  9 10  2  0  0  0
 10 11  1  0  0  0
 11 12  2  0  0  0
 12 13  1  0  0  0
 13 14  2  0  0  0
 11 15  1  0  0  0
 15 16  1  0  0  0
 16 17  2  0  0  0
 17 18  1  0  0  0
 18 19  1  0  0  0
 28 29  1  0  0  0
 29 30  2  0  0  0
 30 31  1  0  0  0
 31 32  2  0  0  0
 32 33  1  0  0  0
 33 34  2  0  0  0
 34 35  1  0  0  0
  5  1  2  0  0  0
 14  6  1  0  0  0
 19 15  2  0  0  0
 34 29  1  0  0  0
 14  9  1  0  0  0
 22 24  1  0  0  0
 22 25  1  0  0  0
 18 20  1  0  0  0
M  END
> <minimizedAffinity>
-9.73590

> <CNNscore>
0.7459393740

> <CNNaffinity>
7.8884162903

> <CNN_VS>
5.8842802048

> <CNNaffinity_variance>
0.1428373307

$$$$
[H]c1nn([H])c([H])c1-c1c([H])c([H])c2c(nc([H])n2-c2sc(C(=O)N([H])[H])c(O[C@@]([H])(c3c([H])c([H])c([H])c([H])c3Cl)C([H])([H])[H])c2[H])c1[H]


 35 39  0  0  0  0  0  0  0  0999 V2000
   57.2833   -4.6781  -10.9311 C   0  0  0  0  0  0  0  0  0  0  0  0
   56.0211   -4.2418  -10.7278 C   0  0  0  0  0  0  0  0  0  0  0  0
   55.4776   -4.3022   -9.4882 C   0  0  0  0  0  0  0  0  0  0  0  0
   56.7059   -4.9712   -8.5642 S   0  0  0  0  0  0  0  0  0  0  0  0
   57.9092   -5.1715   -9.7611 C   0  0  0  0  0  0  0  0  0  0  0  0
   54.1740   -3.8601   -9.0525 N   0  0  0  0  0  0  0  0  0  0  0  0
   53.3998   -2.9717   -9.7430 C   0  0  0  0  0  0  0  0  0  0  0  0
   52.2613   -2.7707   -9.1074 N   0  0  0  0  0  0  0  0  0  0  0  0
   52.3116   -3.5462   -7.9891 C   0  0  0  0  0  0  0  0  0  0  0  0
   51.4229   -3.7489   -6.9540 C   0  0  0  0  0  0  0  0  0  0  0  0
   51.6616   -4.6002   -5.8774 C   0  0  0  0  0  0  0  0  0  0  0  0
   52.8735   -5.2572   -5.8906 C   0  0  0  0  0  0  0  0  0  0  0  0
   53.7963   -5.0773   -6.9199 C   0  0  0  0  0  0  0  0  0  0  0  0
   53.5032   -4.2222   -7.9593 C   0  0  0  0  0  0  0  0  0  0  0  0
   50.6682   -4.7584   -4.8269 C   0  0  0  0  0  0  0  0  0  0  0  0
   50.8204   -5.6017   -3.7295 C   0  0  0  0  0  0  0  0  0  0  0  0
   49.7146   -5.4985   -2.9521 N   0  0  0  0  0  0  0  0  0  0  0  0
   48.8709   -4.6193   -3.5183 N   0  0  0  0  0  0  0  0  0  0  0  0
   49.4478   -4.1688   -4.6575 C   0  0  0  0  0  0  0  0  0  0  0  0
   47.9492   -4.3854   -3.0853 H   0  0  0  0  0  0  0  0  0  0  0  0
   59.2512   -5.7393   -9.6114 C   0  0  0  0  0  0  0  0  0  0  0  0
   59.6659   -6.2071   -8.3493 N   0  0  0  0  0  0  0  0  0  0  0  0
   60.0145   -5.8121  -10.5774 O   0  0  0  0  0  0  0  0  0  0  0  0
   60.4601   -6.8675   -8.2372 H   0  0  0  0  0  0  0  0  0  0  0  0
   59.1724   -5.8874   -7.4932 H   0  0  0  0  0  0  0  0  0  0  0  0
   57.9436   -4.6740  -12.1092 O   0  0  0  0  0  0  0  0  0  0  0  0
   59.2470   -2.7601  -12.5793 C   0  0  0  0  0  0  0  0  0  0  0  0
   58.6632   -4.1107  -13.0679 C   0  0  0  0  0  0  0  0  0  0  0  0
   57.8540   -3.6887  -14.2804 C   0  0  0  0  0  0  0  0  0  0  0  0
   56.4845   -3.8011  -14.3023 C   0  0  0  0  0  0  0  0  0  0  0  0
   55.7270   -3.5405  -15.4500 C   0  0  0  0  0  0  0  0  0  0  0  0
   56.4028   -3.1608  -16.5850 C   0  0  0  0  0  0  0  0  0  0  0  0
   57.7585   -3.0431  -16.5819 C   0  0  0  0  0  0  0  0  0  0  0  0
   58.4916   -3.3049  -15.4237 C   0  0  0  0  0  0  0  0  0  0  0  0
   60.2268   -2.9963  -15.4523 Cl  0  0  0  0  0  0  0  0  0  0  0  0
 27 28  1  0  0  0
 28 26  1  0  0  0
 26  1  1  0  0  0
  1  2  1  0  0  0
  2  3  2  0  0  0
  3  4  1  0  0  0
  4  5  1  0  0  0
  5 21  1  0  0  0
 21 22  1  0  0  0
 21 23  2  0  0  0
  3  6  1  0  0  0
  6  7  1  0  0  0
  7  8  2  0  0  0
  8  9  1  0  0  0
  9 10  2  0  0  0
 10 11  1  0  0  0
 11 12  2  0  0  0
 12 13  1  0  0  0
 13 14  2  0  0  0
 11 15  1  0  0  0
 15 16  1  0  0  0
 16 17  2  0  0  0
 17 18  1  0  0  0
 18 19  1  0  0  0
 28 29  1  0  0  0
 29 30  2  0  0  0
 30 31  1  0  0  0
 31 32  2  0  0  0
 32 33  1  0  0  0
 33 34  2  0  0  0
 34 35  1  0  0  0
  5  1  2  0  0  0
 14  6  1  0  0  0
 19 15  2  0  0  0
 34 29  1  0  0  0
 14  9  1  0  0  0
 22 24  1  0  0  0
 22 25  1  0  0  0
 18 20  1  0  0  0
M  END
> <minimizedAffinity>
-8.97542

> <CNNscore>
0.6748595238

> <CNNaffinity>
7.2446379662

> <CNN_VS>
4.8891129494

> <CNNaffinity_variance>
0.1168190464

$$$$
[H]c1nn([H])c([H])c1-c1c([H])c([H])c2c(nc([H])n2-c2sc(C(=O)N([H])[H])c(O[C@@]([H])(c3c([H])c([H])c([H])c([H])c3Cl)C([H])([H])[H])c2[H])c1[H]


 35 39  0  0  0  0  0  0  0  0999 V2000
   54.6733   -4.1718   -7.9262 C   0  0  0  0  0  0  0  0  0  0  0  0
   53.5110   -3.4840   -7.9573 C   0  0  0  0  0  0  0  0  0  0  0  0
   52.4802   -3.8646   -7.1647 C   0  0  0  0  0  0  0  0  0  0  0  0
   53.0945   -5.1952   -6.3510 S   0  0  0  0  0  0  0  0  0  0  0  0
   54.6642   -5.2622   -7.0234 C   0  0  0  0  0  0  0  0  0  0  0  0
   51.1808   -3.2522   -7.0190 N   0  0  0  0  0  0  0  0  0  0  0  0
   50.6919   -2.2918   -7.8581 C   0  0  0  0  0  0  0  0  0  0  0  0
   49.4789   -1.9341   -7.4822 N   0  0  0  0  0  0  0  0  0  0  0  0
   49.1897   -2.6812   -6.3809 C   0  0  0  0  0  0  0  0  0  0  0  0
   48.0818   -2.7449   -5.5619 C   0  0  0  0  0  0  0  0  0  0  0  0
   47.9743   -3.5917   -4.4610 C   0  0  0  0  0  0  0  0  0  0  0  0
   49.0672   -4.3951   -4.2143 C   0  0  0  0  0  0  0  0  0  0  0  0
   50.2038   -4.3581   -5.0203 C   0  0  0  0  0  0  0  0  0  0  0  0
   50.2513   -3.4998   -6.0967 C   0  0  0  0  0  0  0  0  0  0  0  0
   46.7674   -3.5978   -3.6493 C   0  0  0  0  0  0  0  0  0  0  0  0
   46.1710   -2.4523   -3.1290 C   0  0  0  0  0  0  0  0  0  0  0  0
   45.0677   -2.8211   -2.4329 N   0  0  0  0  0  0  0  0  0  0  0  0
   44.9453   -4.1577   -2.4966 N   0  0  0  0  0  0  0  0  0  0  0  0
   45.9769   -4.6317   -3.2346 C   0  0  0  0  0  0  0  0  0  0  0  0
   44.1592   -4.6603   -2.0263 H   0  0  0  0  0  0  0  0  0  0  0  0
   55.7284   -6.2300   -6.7468 C   0  0  0  0  0  0  0  0  0  0  0  0
   56.5324   -6.0636   -5.6025 N   0  0  0  0  0  0  0  0  0  0  0  0
   55.9221   -7.1848   -7.5031 O   0  0  0  0  0  0  0  0  0  0  0  0
   57.0885   -6.8427   -5.1984 H   0  0  0  0  0  0  0  0  0  0  0  0
   56.5831   -5.1359   -5.1384 H   0  0  0  0  0  0  0  0  0  0  0  0
   55.7748   -3.9009   -8.6591 O   0  0  0  0  0  0  0  0  0  0  0  0
   55.7155   -4.5909  -10.9182 C   0  0  0  0  0  0  0  0  0  0  0  0
   56.4780   -3.8638   -9.7809 C   0  0  0  0  0  0  0  0  0  0  0  0
   57.7791   -4.6424   -9.7203 C   0  0  0  0  0  0  0  0  0  0  0  0
   58.3094   -5.2396  -10.8387 C   0  0  0  0  0  0  0  0  0  0  0  0
   59.4363   -6.0681  -10.7859 C   0  0  0  0  0  0  0  0  0  0  0  0
   60.0146   -6.2769   -9.5567 C   0  0  0  0  0  0  0  0  0  0  0  0
   59.5041   -5.6932   -8.4385 C   0  0  0  0  0  0  0  0  0  0  0  0
   58.3816   -4.8680   -8.5173 C   0  0  0  0  0  0  0  0  0  0  0  0
   57.8603   -4.0339   -7.0546 Cl  0  0  0  0  0  0  0  0  0  0  0  0
 27 28  1  0  0  0
 28 26  1  0  0  0
 26  1  1  0  0  0
  1  2  1  0  0  0
  2  3  2  0  0  0
  3  4  1  0  0  0
  4  5  1  0  0  0
  5 21  1  0  0  0
 21 22  1  0  0  0
 21 23  2  0  0  0
  3  6  1  0  0  0
  6  7  1  0  0  0
  7  8  2  0  0  0
  8  9  1  0  0  0
  9 10  2  0  0  0
 10 11  1  0  0  0
 11 12  2  0  0  0
 12 13  1  0  0  0
 13 14  2  0  0  0
 11 15  1  0  0  0
 15 16  1  0  0  0
 16 17  2  0  0  0
 17 18  1  0  0  0
 18 19  1  0  0  0
 28 29  1  0  0  0
 29 30  2  0  0  0
 30 31  1  0  0  0
 31 32  2  0  0  0
 32 33  1  0  0  0
 33 34  2  0  0  0
 34 35  1  0  0  0
  5  1  2  0  0  0
 14  6  1  0  0  0
 19 15  2  0  0  0
 34 29  1  0  0  0
 14  9  1  0  0  0
 22 24  1  0  0  0
 22 25  1  0  0  0
 18 20  1  0  0  0
M  END
> <minimizedAffinity>
0.87156

> <CNNscore>
0.4913717806

> <CNNaffinity>
6.9995546341

> <CNN_VS>
3.4393835068

> <CNNaffinity_variance>
0.3430546522

$$$$
[H]c1nn([H])c([H])c1-c1c([H])c([H])c2c(nc([H])n2-c2sc(C(=O)N([H])[H])c(O[C@@]([H])(c3c([H])c([H])c([H])c([H])c3Cl)C([H])([H])[H])c2[H])c1[H]


 35 39  0  0  0  0  0  0  0  0999 V2000
   52.8318   -4.4271   -7.2458 C   0  0  0  0  0  0  0  0  0  0  0  0
   53.9772   -4.7545   -7.8827 C   0  0  0  0  0  0  0  0  0  0  0  0
   54.3090   -4.1298   -9.0383 C   0  0  0  0  0  0  0  0  0  0  0  0
   53.0351   -3.0669   -9.2779 S   0  0  0  0  0  0  0  0  0  0  0  0
   52.0832   -3.4217   -7.9036 C   0  0  0  0  0  0  0  0  0  0  0  0
   55.4913   -4.3016   -9.8490 N   0  0  0  0  0  0  0  0  0  0  0  0
   55.5742   -3.9390  -11.1632 C   0  0  0  0  0  0  0  0  0  0  0  0
   56.7778   -4.2056  -11.6334 N   0  0  0  0  0  0  0  0  0  0  0  0
   57.4752   -4.7497  -10.5980 C   0  0  0  0  0  0  0  0  0  0  0  0
   58.7673   -5.2195  -10.4888 C   0  0  0  0  0  0  0  0  0  0  0  0
   59.3073   -5.7503   -9.3194 C   0  0  0  0  0  0  0  0  0  0  0  0
   58.4604   -5.7885   -8.2322 C   0  0  0  0  0  0  0  0  0  0  0  0
   57.1487   -5.3226   -8.3052 C   0  0  0  0  0  0  0  0  0  0  0  0
   56.6709   -4.8072   -9.4901 C   0  0  0  0  0  0  0  0  0  0  0  0
   60.6826   -6.2225   -9.2891 C   0  0  0  0  0  0  0  0  0  0  0  0
   61.3315   -6.6628   -8.1386 C   0  0  0  0  0  0  0  0  0  0  0  0
   62.5921   -7.0336   -8.4719 N   0  0  0  0  0  0  0  0  0  0  0  0
   62.7617   -6.8449   -9.7914 N   0  0  0  0  0  0  0  0  0  0  0  0
   61.6033   -6.3517  -10.2899 C   0  0  0  0  0  0  0  0  0  0  0  0
   63.6657   -7.0663  -10.2662 H   0  0  0  0  0  0  0  0  0  0  0  0
   50.7948   -2.8408   -7.5187 C   0  0  0  0  0  0  0  0  0  0  0  0
   49.7529   -3.6899   -7.0980 N   0  0  0  0  0  0  0  0  0  0  0  0
   50.6183   -1.6208   -7.5580 O   0  0  0  0  0  0  0  0  0  0  0  0
   48.9426   -3.3420   -6.5485 H   0  0  0  0  0  0  0  0  0  0  0  0
   49.7806   -4.6994   -7.3405 H   0  0  0  0  0  0  0  0  0  0  0  0
   52.3838   -4.9676   -6.0920 O   0  0  0  0  0  0  0  0  0  0  0  0
   50.8586   -5.7853   -4.4832 C   0  0  0  0  0  0  0  0  0  0  0  0
   52.2031   -5.9611   -5.2349 C   0  0  0  0  0  0  0  0  0  0  0  0
   53.2052   -5.9836   -4.0955 C   0  0  0  0  0  0  0  0  0  0  0  0
   52.9143   -5.4239   -2.8745 C   0  0  0  0  0  0  0  0  0  0  0  0
   53.8631   -5.3175   -1.8510 C   0  0  0  0  0  0  0  0  0  0  0  0
   55.1263   -5.7974   -2.1028 C   0  0  0  0  0  0  0  0  0  0  0  0
   55.4323   -6.3557   -3.3054 C   0  0  0  0  0  0  0  0  0  0  0  0
   54.4678   -6.4538   -4.3091 C   0  0  0  0  0  0  0  0  0  0  0  0
   54.8931   -7.3142   -5.7876 Cl  0  0  0  0  0  0  0  0  0  0  0  0
 27 28  1  0  0  0
 28 26  1  0  0  0
 26  1  1  0  0  0
  1  2  1  0  0  0
  2  3  2  0  0  0
  3  4  1  0  0  0
  4  5  1  0  0  0
  5 21  1  0  0  0
 21 22  1  0  0  0
 21 23  2  0  0  0
  3  6  1  0  0  0
  6  7  1  0  0  0
  7  8  2  0  0  0
  8  9  1  0  0  0
  9 10  2  0  0  0
 10 11  1  0  0  0
 11 12  2  0  0  0
 12 13  1  0  0  0
 13 14  2  0  0  0
 11 15  1  0  0  0
 15 16  1  0  0  0
 16 17  2  0  0  0
 17 18  1  0  0  0
 18 19  1  0  0  0
 28 29  1  0  0  0
 29 30  2  0  0  0
 30 31  1  0  0  0
 31 32  2  0  0  0
 32 33  1  0  0  0
 33 34  2  0  0  0
 34 35  1  0  0  0
  5  1  2  0  0  0
 14  6  1  0  0  0
 19 15  2  0  0  0
 34 29  1  0  0  0
 14  9  1  0  0  0
 22 24  1  0  0  0
 22 25  1  0  0  0
 18 20  1  0  0  0
M  END
> <minimizedAffinity>
-9.05372

> <CNNscore>
0.4786923230

> <CNNaffinity>
7.3716530800

> <CNN_VS>
3.5287537575

> <CNNaffinity_variance>
0.2889664769

$$$$
[H]c1nn([H])c([H])c1-c1c([H])c([H])c2c(nc([H])n2-c2sc(C(=O)N([H])[H])c(O[C@@]([H])(c3c([H])c([H])c([H])c([H])c3Cl)C([H])([H])[H])c2[H])c1[H]


 35 39  0  0  0  0  0  0  0  0999 V2000
   56.2181   -4.0950  -11.4054 C   0  0  0  0  0  0  0  0  0  0  0  0
   55.0122   -3.8439  -10.8508 C   0  0  0  0  0  0  0  0  0  0  0  0
   54.8122   -4.0852   -9.5327 C   0  0  0  0  0  0  0  0  0  0  0  0
   56.2968   -4.6725   -9.0219 S   0  0  0  0  0  0  0  0  0  0  0  0
   57.1686   -4.6082  -10.4904 C   0  0  0  0  0  0  0  0  0  0  0  0
   53.6253   -3.8546   -8.7436 N   0  0  0  0  0  0  0  0  0  0  0  0
   52.6378   -2.9770   -9.0900 C   0  0  0  0  0  0  0  0  0  0  0  0
   51.6784   -2.9913   -8.1844 N   0  0  0  0  0  0  0  0  0  0  0  0
   52.0631   -3.8958   -7.2417 C   0  0  0  0  0  0  0  0  0  0  0  0
   51.4751   -4.3316   -6.0728 C   0  0  0  0  0  0  0  0  0  0  0  0
   52.0374   -5.2838   -5.2256 C   0  0  0  0  0  0  0  0  0  0  0  0
   53.2565   -5.7918   -5.6208 C   0  0  0  0  0  0  0  0  0  0  0  0
   53.8806   -5.3753   -6.7956 C   0  0  0  0  0  0  0  0  0  0  0  0
   53.2746   -4.4303   -7.5940 C   0  0  0  0  0  0  0  0  0  0  0  0
   51.3485   -5.6898   -4.0106 C   0  0  0  0  0  0  0  0  0  0  0  0
   50.1688   -5.1101   -3.5515 C   0  0  0  0  0  0  0  0  0  0  0  0
   49.8035   -5.7315   -2.4034 N   0  0  0  0  0  0  0  0  0  0  0  0
   50.7091   -6.6835   -2.1222 N   0  0  0  0  0  0  0  0  0  0  0  0
   51.6488   -6.6597   -3.0969 C   0  0  0  0  0  0  0  0  0  0  0  0
   50.6240   -7.2896   -1.2754 H   0  0  0  0  0  0  0  0  0  0  0  0
   58.5545   -5.0110  -10.7404 C   0  0  0  0  0  0  0  0  0  0  0  0
   59.2407   -5.7637   -9.7676 N   0  0  0  0  0  0  0  0  0  0  0  0
   59.1201   -4.6995  -11.7912 O   0  0  0  0  0  0  0  0  0  0  0  0
   60.0910   -6.3164   -9.9934 H   0  0  0  0  0  0  0  0  0  0  0  0
   58.8984   -5.7734   -8.7871 H   0  0  0  0  0  0  0  0  0  0  0  0
   56.5518   -3.9000  -12.6995 O   0  0  0  0  0  0  0  0  0  0  0  0
   56.0593   -5.3768  -14.4770 C   0  0  0  0  0  0  0  0  0  0  0  0
   56.3229   -3.9242  -14.0038 C   0  0  0  0  0  0  0  0  0  0  0  0
   57.5193   -3.5256  -14.8482 C   0  0  0  0  0  0  0  0  0  0  0  0
   58.7956   -3.5511  -14.3394 C   0  0  0  0  0  0  0  0  0  0  0  0
   59.8991   -3.0685  -15.0525 C   0  0  0  0  0  0  0  0  0  0  0  0
   59.6700   -2.5537  -16.3062 C   0  0  0  0  0  0  0  0  0  0  0  0
   58.4132   -2.5212  -16.8268 C   0  0  0  0  0  0  0  0  0  0  0  0
   57.3293   -3.0119  -16.0976 C   0  0  0  0  0  0  0  0  0  0  0  0
   55.7546   -3.0680  -16.8877 Cl  0  0  0  0  0  0  0  0  0  0  0  0
 27 28  1  0  0  0
 28 26  1  0  0  0
 26  1  1  0  0  0
  1  2  1  0  0  0
  2  3  2  0  0  0
  3  4  1  0  0  0
  4  5  1  0  0  0
  5 21  1  0  0  0
 21 22  1  0  0  0
 21 23  2  0  0  0
  3  6  1  0  0  0
  6  7  1  0  0  0
  7  8  2  0  0  0
  8  9  1  0  0  0
  9 10  2  0  0  0
 10 11  1  0  0  0
 11 12  2  0  0  0
 12 13  1  0  0  0
 13 14  2  0  0  0
 11 15  1  0  0  0
 15 16  1  0  0  0
 16 17  2  0  0  0
 17 18  1  0  0  0
 18 19  1  0  0  0
 28 29  1  0  0  0
 29 30  2  0  0  0
 30 31  1  0  0  0
 31 32  2  0  0  0
 32 33  1  0  0  0
 33 34  2  0  0  0
 34 35  1  0  0  0
  5  1  2  0  0  0
 14  6  1  0  0  0
 19 15  2  0  0  0
 34 29  1  0  0  0
 14  9  1  0  0  0
 22 24  1  0  0  0
 22 25  1  0  0  0
 18 20  1  0  0  0
M  END
> <minimizedAffinity>
-8.91982

> <CNNscore>
0.4561069310

> <CNNaffinity>
7.0045309067

> <CNN_VS>
3.1948151588

> <CNNaffinity_variance>
0.0604169294

$$$$
[H]c1nn([H])c([H])c1-c1c([H])c([H])c2c(nc([H])n2-c2sc(C(=O)N([H])[H])c(O[C@@]([H])(c3c([H])c([H])c([H])c([H])c3Cl)C([H])([H])[H])c2[H])c1[H]


 35 39  0  0  0  0  0  0  0  0999 V2000
   58.5446   -5.3710  -11.6832 C   0  0  0  0  0  0  0  0  0  0  0  0
   58.8302   -6.4677  -10.9479 C   0  0  0  0  0  0  0  0  0  0  0  0
   60.1206   -6.7898  -10.6898 C   0  0  0  0  0  0  0  0  0  0  0  0
   60.9800   -5.5770  -11.4647 S   0  0  0  0  0  0  0  0  0  0  0  0
   59.6914   -4.6623  -12.1154 C   0  0  0  0  0  0  0  0  0  0  0  0
   60.6366   -7.8851   -9.9032 N   0  0  0  0  0  0  0  0  0  0  0  0
   60.2553   -9.1865  -10.0653 C   0  0  0  0  0  0  0  0  0  0  0  0
   60.9040   -9.9597   -9.2155 N   0  0  0  0  0  0  0  0  0  0  0  0
   61.7143   -9.1339   -8.4971 C   0  0  0  0  0  0  0  0  0  0  0  0
   62.6144   -9.3657   -7.4782 C   0  0  0  0  0  0  0  0  0  0  0  0
   63.3639   -8.3681   -6.8586 C   0  0  0  0  0  0  0  0  0  0  0  0
   63.1585   -7.0874   -7.3255 C   0  0  0  0  0  0  0  0  0  0  0  0
   62.2573   -6.8152   -8.3536 C   0  0  0  0  0  0  0  0  0  0  0  0
   61.5447   -7.8444   -8.9286 C   0  0  0  0  0  0  0  0  0  0  0  0
   64.2944   -8.6993   -5.7909 C   0  0  0  0  0  0  0  0  0  0  0  0
   64.8363   -7.7665   -4.9107 C   0  0  0  0  0  0  0  0  0  0  0  0
   65.6529   -8.4164   -4.0454 N   0  0  0  0  0  0  0  0  0  0  0  0
   65.6444   -9.7259   -4.3466 N   0  0  0  0  0  0  0  0  0  0  0  0
   64.8202   -9.9000   -5.4068 C   0  0  0  0  0  0  0  0  0  0  0  0
   66.2082  -10.4180   -3.8037 H   0  0  0  0  0  0  0  0  0  0  0  0
   59.7633   -3.4537  -12.9398 C   0  0  0  0  0  0  0  0  0  0  0  0
   60.2428   -3.5468  -14.2608 N   0  0  0  0  0  0  0  0  0  0  0  0
   59.4068   -2.3626  -12.4886 O   0  0  0  0  0  0  0  0  0  0  0  0
   60.0501   -2.8149  -14.9727 H   0  0  0  0  0  0  0  0  0  0  0  0
   60.8119   -4.3673  -14.5462 H   0  0  0  0  0  0  0  0  0  0  0  0
   57.3089   -4.9366  -12.0122 O   0  0  0  0  0  0  0  0  0  0  0  0
   54.9961   -4.5224  -12.2618 C   0  0  0  0  0  0  0  0  0  0  0  0
   56.4536   -4.0924  -12.5690 C   0  0  0  0  0  0  0  0  0  0  0  0
   56.4759   -4.1017  -14.0864 C   0  0  0  0  0  0  0  0  0  0  0  0
   56.8293   -2.9845  -14.8045 C   0  0  0  0  0  0  0  0  0  0  0  0
   56.7354   -2.9267  -16.1998 C   0  0  0  0  0  0  0  0  0  0  0  0
   56.2679   -4.0425  -16.8521 C   0  0  0  0  0  0  0  0  0  0  0  0
   55.9142   -5.1582  -16.1579 C   0  0  0  0  0  0  0  0  0  0  0  0
   56.0203   -5.1927  -14.7669 C   0  0  0  0  0  0  0  0  0  0  0  0
   55.6797   -6.7150  -13.9461 Cl  0  0  0  0  0  0  0  0  0  0  0  0
 27 28  1  0  0  0
 28 26  1  0  0  0
 26  1  1  0  0  0
  1  2  1  0  0  0
  2  3  2  0  0  0
  3  4  1  0  0  0
  4  5  1  0  0  0
  5 21  1  0  0  0
 21 22  1  0  0  0
 21 23  2  0  0  0
  3  6  1  0  0  0
  6  7  1  0  0  0
  7  8  2  0  0  0
  8  9  1  0  0  0
  9 10  2  0  0  0
 10 11  1  0  0  0
 11 12  2  0  0  0
 12 13  1  0  0  0
 13 14  2  0  0  0
 11 15  1  0  0  0
 15 16  1  0  0  0
 16 17  2  0  0  0
 17 18  1  0  0  0
 18 19  1  0  0  0
 28 29  1  0  0  0
 29 30  2  0  0  0
 30 31  1  0  0  0
 31 32  2  0  0  0
 32 33  1  0  0  0
 33 34  2  0  0  0
 34 35  1  0  0  0
  5  1  2  0  0  0
 14  6  1  0  0  0
 19 15  2  0  0  0
 34 29  1  0  0  0
 14  9  1  0  0  0
 22 24  1  0  0  0
 22 25  1  0  0  0
 18 20  1  0  0  0
M  END
> <minimizedAffinity>
7.19505

> <CNNscore>
0.4177888632

> <CNNaffinity>
5.2056550980

> <CNN_VS>
2.1748647690

> <CNNaffinity_variance>
0.5062631369

$$$$
[H]c1nn([H])c([H])c1-c1c([H])c([H])c2c(nc([H])n2-c2sc(C(=O)N([H])[H])c(O[C@@]([H])(c3c([H])c([H])c([H])c([H])c3Cl)C([H])([H])[H])c2[H])c1[H]


 35 39  0  0  0  0  0  0  0  0999 V2000
   54.3413   -5.2925   -6.3626 C   0  0  0  0  0  0  0  0  0  0  0  0
   55.0078   -5.1525   -7.5292 C   0  0  0  0  0  0  0  0  0  0  0  0
   56.3531   -5.3098   -7.5608 C   0  0  0  0  0  0  0  0  0  0  0  0
   56.7354   -5.6557   -5.9658 S   0  0  0  0  0  0  0  0  0  0  0  0
   55.1786   -5.5992   -5.2631 C   0  0  0  0  0  0  0  0  0  0  0  0
   57.2427   -5.2406   -8.6960 N   0  0  0  0  0  0  0  0  0  0  0  0
   58.5511   -5.6312   -8.6645 C   0  0  0  0  0  0  0  0  0  0  0  0
   59.1044   -5.4631   -9.8504 N   0  0  0  0  0  0  0  0  0  0  0  0
   58.1290   -4.9544  -10.6531 C   0  0  0  0  0  0  0  0  0  0  0  0
   58.1146   -4.5802  -11.9805 C   0  0  0  0  0  0  0  0  0  0  0  0
   56.9949   -4.0707  -12.6344 C   0  0  0  0  0  0  0  0  0  0  0  0
   55.8561   -3.9508  -11.8668 C   0  0  0  0  0  0  0  0  0  0  0  0
   55.8332   -4.3190  -10.5226 C   0  0  0  0  0  0  0  0  0  0  0  0
   56.9726   -4.8179   -9.9307 C   0  0  0  0  0  0  0  0  0  0  0  0
   57.0648   -3.7018  -14.0395 C   0  0  0  0  0  0  0  0  0  0  0  0
   55.9681   -3.6836  -14.8971 C   0  0  0  0  0  0  0  0  0  0  0  0
   56.3889   -3.2891  -16.1239 N   0  0  0  0  0  0  0  0  0  0  0  0
   57.7110   -3.0559  -16.0711 N   0  0  0  0  0  0  0  0  0  0  0  0
   58.1239   -3.3064  -14.8060 C   0  0  0  0  0  0  0  0  0  0  0  0
   58.2470   -2.7400  -16.9105 H   0  0  0  0  0  0  0  0  0  0  0  0
   54.8099   -5.7966   -3.8593 C   0  0  0  0  0  0  0  0  0  0  0  0
   55.1373   -4.8056   -2.9136 N   0  0  0  0  0  0  0  0  0  0  0  0
   54.2163   -6.8173   -3.5026 O   0  0  0  0  0  0  0  0  0  0  0  0
   54.6640   -4.7428   -1.9908 H   0  0  0  0  0  0  0  0  0  0  0  0
   55.8766   -4.1094   -3.1313 H   0  0  0  0  0  0  0  0  0  0  0  0
   53.0078   -5.1643   -6.1909 O   0  0  0  0  0  0  0  0  0  0  0  0
   51.1649   -6.3473   -7.0782 C   0  0  0  0  0  0  0  0  0  0  0  0
   51.8011   -5.6081   -5.8730 C   0  0  0  0  0  0  0  0  0  0  0  0
   50.7901   -4.5090   -5.6029 C   0  0  0  0  0  0  0  0  0  0  0  0
   49.9520   -4.5581   -4.5149 C   0  0  0  0  0  0  0  0  0  0  0  0
   48.9271   -3.6265   -4.3127 C   0  0  0  0  0  0  0  0  0  0  0  0
   48.7737   -2.6362   -5.2533 C   0  0  0  0  0  0  0  0  0  0  0  0
   49.5948   -2.5710   -6.3365 C   0  0  0  0  0  0  0  0  0  0  0  0
   50.6121   -3.5095   -6.5141 C   0  0  0  0  0  0  0  0  0  0  0  0
   51.7248   -3.2822   -7.8622 Cl  0  0  0  0  0  0  0  0  0  0  0  0
 27 28  1  0  0  0
 28 26  1  0  0  0
 26  1  1  0  0  0
  1  2  1  0  0  0
  2  3  2  0  0  0
  3  4  1  0  0  0
  4  5  1  0  0  0
  5 21  1  0  0  0
 21 22  1  0  0  0
 21 23  2  0  0  0
  3  6  1  0  0  0
  6  7  1  0  0  0
  7  8  2  0  0  0
  8  9  1  0  0  0
  9 10  2  0  0  0
 10 11  1  0  0  0
 11 12  2  0  0  0
 12 13  1  0  0  0
 13 14  2  0  0  0
 11 15  1  0  0  0
 15 16  1  0  0  0
 16 17  2  0  0  0
 17 18  1  0  0  0
 18 19  1  0  0  0
 28 29  1  0  0  0
 29 30  2  0  0  0
 30 31  1  0  0  0
 31 32  2  0  0  0
 32 33  1  0  0  0
 33 34  2  0  0  0
 34 35  1  0  0  0
  5  1  2  0  0  0
 14  6  1  0  0  0
 19 15  2  0  0  0
 34 29  1  0  0  0
 14  9  1  0  0  0
 22 24  1  0  0  0
 22 25  1  0  0  0
 18 20  1  0  0  0
M  END
> <minimizedAffinity>
-10.71271

> <CNNscore>
0.3833600283

> <CNNaffinity>
7.1220903397

> <CNN_VS>
2.7303247452

> <CNNaffinity_variance>
0.3468423188

$$$$
[H]c1nn([H])c([H])c1-c1c([H])c([H])c2c(nc([H])n2-c2sc(C(=O)N([H])[H])c(O[C@@]([H])(c3c([H])c([H])c([H])c([H])c3Cl)C([H])([H])[H])c2[H])c1[H]


 35 39  0  0  0  0  0  0  0  0999 V2000
   54.3051   -5.5402   -5.6721 C   0  0  0  0  0  0  0  0  0  0  0  0
   54.9637   -5.4078   -6.8441 C   0  0  0  0  0  0  0  0  0  0  0  0
   56.3178   -5.4442   -6.8650 C   0  0  0  0  0  0  0  0  0  0  0  0
   56.7196   -5.6616   -5.2522 S   0  0  0  0  0  0  0  0  0  0  0  0
   55.1596   -5.7059   -4.5557 C   0  0  0  0  0  0  0  0  0  0  0  0
   57.2047   -5.3602   -8.0013 N   0  0  0  0  0  0  0  0  0  0  0  0
   58.5240   -5.7120   -7.9667 C   0  0  0  0  0  0  0  0  0  0  0  0
   59.0719   -5.5395   -9.1544 N   0  0  0  0  0  0  0  0  0  0  0  0
   58.0818   -5.0676   -9.9616 C   0  0  0  0  0  0  0  0  0  0  0  0
   58.0562   -4.7071  -11.2926 C   0  0  0  0  0  0  0  0  0  0  0  0
   56.9219   -4.2371  -11.9509 C   0  0  0  0  0  0  0  0  0  0  0  0
   55.7802   -4.1429  -11.1840 C   0  0  0  0  0  0  0  0  0  0  0  0
   55.7684   -4.4983   -9.8361 C   0  0  0  0  0  0  0  0  0  0  0  0
   56.9221   -4.9578   -9.2400 C   0  0  0  0  0  0  0  0  0  0  0  0
   56.9806   -3.8801  -13.3597 C   0  0  0  0  0  0  0  0  0  0  0  0
   58.1616   -3.6235  -14.0512 C   0  0  0  0  0  0  0  0  0  0  0  0
   57.8507   -3.3302  -15.3377 N   0  0  0  0  0  0  0  0  0  0  0  0
   56.5165   -3.3942  -15.4835 N   0  0  0  0  0  0  0  0  0  0  0  0
   55.9858   -3.7276  -14.2831 C   0  0  0  0  0  0  0  0  0  0  0  0
   56.0544   -3.2027  -16.4008 H   0  0  0  0  0  0  0  0  0  0  0  0
   54.8013   -5.8547   -3.1432 C   0  0  0  0  0  0  0  0  0  0  0  0
   54.8557   -4.7315   -2.2953 N   0  0  0  0  0  0  0  0  0  0  0  0
   54.4523   -6.9495   -2.6951 O   0  0  0  0  0  0  0  0  0  0  0  0
   54.3507   -4.6978   -1.3879 H   0  0  0  0  0  0  0  0  0  0  0  0
   55.4179   -3.9033   -2.5720 H   0  0  0  0  0  0  0  0  0  0  0  0
   52.9645   -5.5236   -5.5096 O   0  0  0  0  0  0  0  0  0  0  0  0
   51.6779   -6.5551   -7.2019 C   0  0  0  0  0  0  0  0  0  0  0  0
   51.7147   -5.6918   -5.9148 C   0  0  0  0  0  0  0  0  0  0  0  0
   51.0353   -4.4129   -6.3687 C   0  0  0  0  0  0  0  0  0  0  0  0
   51.5117   -3.6881   -7.4347 C   0  0  0  0  0  0  0  0  0  0  0  0
   50.9830   -2.4428   -7.7935 C   0  0  0  0  0  0  0  0  0  0  0  0
   49.9499   -1.9481   -7.0338 C   0  0  0  0  0  0  0  0  0  0  0  0
   49.4645   -2.6521   -5.9753 C   0  0  0  0  0  0  0  0  0  0  0  0
   50.0059   -3.8936   -5.6396 C   0  0  0  0  0  0  0  0  0  0  0  0
   49.2367   -4.8123   -4.3467 Cl  0  0  0  0  0  0  0  0  0  0  0  0
 27 28  1  0  0  0
 28 26  1  0  0  0
 26  1  1  0  0  0
  1  2  1  0  0  0
  2  3  2  0  0  0
  3  4  1  0  0  0
  4  5  1  0  0  0
  5 21  1  0  0  0
 21 22  1  0  0  0
 21 23  2  0  0  0
  3  6  1  0  0  0
  6  7  1  0  0  0
  7  8  2  0  0  0
  8  9  1  0  0  0
  9 10  2  0  0  0
 10 11  1  0  0  0
 11 12  2  0  0  0
 12 13  1  0  0  0
 13 14  2  0  0  0
 11 15  1  0  0  0
 15 16  1  0  0  0
 16 17  2  0  0  0
 17 18  1  0  0  0
 18 19  1  0  0  0
 28 29  1  0  0  0
 29 30  2  0  0  0
 30 31  1  0  0  0
 31 32  2  0  0  0
 32 33  1  0  0  0
 33 34  2  0  0  0
 34 35  1  0  0  0
  5  1  2  0  0  0
 14  6  1  0  0  0
 19 15  2  0  0  0
 34 29  1  0  0  0
 14  9  1  0  0  0
 22 24  1  0  0  0
 22 25  1  0  0  0
 18 20  1  0  0  0
M  END
> <minimizedAffinity>
-10.08948

> <CNNscore>
0.3487592041

> <CNNaffinity>
7.0455727577

> <CNN_VS>
2.4572083950

> <CNNaffinity_variance>
0.4709660411

$$$$
[H]c1nn([H])c([H])c1-c1c([H])c([H])c2c(nc([H])n2-c2sc(C(=O)N([H])[H])c(O[C@@]([H])(c3c([H])c([H])c([H])c([H])c3Cl)C([H])([H])[H])c2[H])c1[H]


 35 39  0  0  0  0  0  0  0  0999 V2000
   54.1080   -5.3495   -6.3412 C   0  0  0  0  0  0  0  0  0  0  0  0
   54.8171   -5.1960   -7.4807 C   0  0  0  0  0  0  0  0  0  0  0  0
   56.1669   -5.3103   -7.4561 C   0  0  0  0  0  0  0  0  0  0  0  0
   56.4941   -5.6332   -5.8441 S   0  0  0  0  0  0  0  0  0  0  0  0
   54.9088   -5.6220   -5.2060 C   0  0  0  0  0  0  0  0  0  0  0  0
   57.0998   -5.2202   -8.5545 N   0  0  0  0  0  0  0  0  0  0  0  0
   58.4184   -5.5646   -8.4654 C   0  0  0  0  0  0  0  0  0  0  0  0
   59.0142   -5.3878   -9.6292 N   0  0  0  0  0  0  0  0  0  0  0  0
   58.0558   -4.9206  -10.4764 C   0  0  0  0  0  0  0  0  0  0  0  0
   58.0834   -4.5588  -11.8070 C   0  0  0  0  0  0  0  0  0  0  0  0
   56.9748   -4.0946  -12.5115 C   0  0  0  0  0  0  0  0  0  0  0  0
   55.8017   -4.0076  -11.7926 C   0  0  0  0  0  0  0  0  0  0  0  0
   55.7360   -4.3645  -10.4467 C   0  0  0  0  0  0  0  0  0  0  0  0
   56.8665   -4.8181   -9.8035 C   0  0  0  0  0  0  0  0  0  0  0  0
   57.0899   -3.7358  -13.9163 C   0  0  0  0  0  0  0  0  0  0  0  0
   56.0243   -3.7389  -14.8124 C   0  0  0  0  0  0  0  0  0  0  0  0
   56.4834   -3.3485  -16.0268 N   0  0  0  0  0  0  0  0  0  0  0  0
   57.7997   -3.0976  -15.9290 N   0  0  0  0  0  0  0  0  0  0  0  0
   58.1705   -3.3327  -14.6481 C   0  0  0  0  0  0  0  0  0  0  0  0
   58.3612   -2.7813  -16.7515 H   0  0  0  0  0  0  0  0  0  0  0  0
   54.4891   -5.8219   -3.8169 C   0  0  0  0  0  0  0  0  0  0  0  0
   53.6887   -6.9339   -3.4908 N   0  0  0  0  0  0  0  0  0  0  0  0
   54.8319   -5.0293   -2.9363 O   0  0  0  0  0  0  0  0  0  0  0  0
   53.6043   -7.2892   -2.5182 H   0  0  0  0  0  0  0  0  0  0  0  0
   53.1570   -7.4230   -4.2369 H   0  0  0  0  0  0  0  0  0  0  0  0
   52.7653   -5.2630   -6.2251 O   0  0  0  0  0  0  0  0  0  0  0  0
   50.9875   -6.5132   -7.1524 C   0  0  0  0  0  0  0  0  0  0  0  0
   51.5627   -5.7386   -5.9388 C   0  0  0  0  0  0  0  0  0  0  0  0
   50.5115   -4.6667   -5.7169 C   0  0  0  0  0  0  0  0  0  0  0  0
   50.1768   -3.7755   -6.7081 C   0  0  0  0  0  0  0  0  0  0  0  0
   49.3070   -2.7008   -6.4904 C   0  0  0  0  0  0  0  0  0  0  0  0
   48.7826   -2.5530   -5.2286 C   0  0  0  0  0  0  0  0  0  0  0  0
   49.1017   -3.4262   -4.2349 C   0  0  0  0  0  0  0  0  0  0  0  0
   49.9687   -4.4924   -4.4776 C   0  0  0  0  0  0  0  0  0  0  0  0
   50.2262   -5.6634   -3.1855 Cl  0  0  0  0  0  0  0  0  0  0  0  0
 27 28  1  0  0  0
 28 26  1  0  0  0
 26  1  1  0  0  0
  1  2  1  0  0  0
  2  3  2  0  0  0
  3  4  1  0  0  0
  4  5  1  0  0  0
  5 21  1  0  0  0
 21 22  1  0  0  0
 21 23  2  0  0  0
  3  6  1  0  0  0
  6  7  1  0  0  0
  7  8  2  0  0  0
  8  9  1  0  0  0
  9 10  2  0  0  0
 10 11  1  0  0  0
 11 12  2  0  0  0
 12 13  1  0  0  0
 13 14  2  0  0  0
 11 15  1  0  0  0
 15 16  1  0  0  0
 16 17  2  0  0  0
 17 18  1  0  0  0
 18 19  1  0  0  0
 28 29  1  0  0  0
 29 30  2  0  0  0
 30 31  1  0  0  0
 31 32  2  0  0  0
 32 33  1  0  0  0
 33 34  2  0  0  0
 34 35  1  0  0  0
  5  1  2  0  0  0
 14  6  1  0  0  0
 19 15  2  0  0  0
 34 29  1  0  0  0
 14  9  1  0  0  0
 22 24  1  0  0  0
 22 25  1  0  0  0
 18 20  1  0  0  0
M  END
> <minimizedAffinity>
-10.56328

> <CNNscore>
0.3442820907

> <CNNaffinity>
6.7446503639

> <CNN_VS>
2.3220622540

> <CNNaffinity_variance>
0.5726295710

$$$$
[H]c1nc(-n2c(-c3c([H])c([H])c([H])c([H])c3[H])nc([H])c2[H])nc2c1N(C([H])([H])[H])C(=O)[C@@]([H])(C([H])([H])C([H])([H])[H])N2C1([H])C([H])([H])C([H])([H])C([H])([H])C1([H])[H]


 30 34  0  0  0  0  0  0  0  0999 V2000
   52.1432   -5.5533   -6.4254 C   0  0  0  0  0  0  0  0  0  0  0  0
   53.6333   -5.4965   -6.4114 N   0  0  0  0  0  0  0  0  0  0  0  0
   54.2686   -4.8399   -7.5014 C   0  0  0  0  0  0  0  0  0  0  0  0
   55.5151   -5.1848   -7.8631 N   0  0  0  0  0  0  0  0  0  0  0  0
   56.1883   -4.6231   -8.8734 C   0  0  0  0  0  0  0  0  0  0  0  0
   55.5442   -3.6396   -9.5639 N   0  0  0  0  0  0  0  0  0  0  0  0
   54.3181   -3.2345   -9.2799 C   0  0  0  0  0  0  0  0  0  0  0  0
   53.6392   -3.8201   -8.2404 C   0  0  0  0  0  0  0  0  0  0  0  0
   52.3296   -3.4655   -7.8575 N   0  0  0  0  0  0  0  0  0  0  0  0
   51.6498   -2.4224   -8.5863 C   0  0  0  0  0  0  0  0  0  0  0  0
   51.7401   -4.1587   -6.7622 C   0  0  0  0  0  0  0  0  0  0  0  0
   50.8721   -3.5690   -6.0860 O   0  0  0  0  0  0  0  0  0  0  0  0
   54.3690   -6.0427   -5.3516 C   0  0  0  0  0  0  0  0  0  0  0  0
   54.9299   -7.3974   -5.4002 C   0  0  0  0  0  0  0  0  0  0  0  0
   55.4243   -7.5502   -3.9240 C   0  0  0  0  0  0  0  0  0  0  0  0
   54.4182   -6.7820   -3.1187 C   0  0  0  0  0  0  0  0  0  0  0  0
   53.4861   -6.1105   -4.0964 C   0  0  0  0  0  0  0  0  0  0  0  0
   57.5093   -5.0280   -9.2731 N   0  0  0  0  0  0  0  0  0  0  0  0
   58.4004   -5.4889   -8.3227 C   0  0  0  0  0  0  0  0  0  0  0  0
   59.5955   -5.7918   -8.9167 C   0  0  0  0  0  0  0  0  0  0  0  0
   59.4173   -5.5150  -10.2041 N   0  0  0  0  0  0  0  0  0  0  0  0
   58.1343   -5.0464  -10.4207 C   0  0  0  0  0  0  0  0  0  0  0  0
   57.6489   -4.6300  -11.7260 C   0  0  0  0  0  0  0  0  0  0  0  0
   56.3969   -4.8001  -12.2039 C   0  0  0  0  0  0  0  0  0  0  0  0
   56.0525   -4.3002  -13.4841 C   0  0  0  0  0  0  0  0  0  0  0  0
   56.9540   -3.6380  -14.2764 C   0  0  0  0  0  0  0  0  0  0  0  0
   58.2264   -3.4682  -13.7871 C   0  0  0  0  0  0  0  0  0  0  0  0
   58.5752   -3.9507  -12.5394 C   0  0  0  0  0  0  0  0  0  0  0  0
   50.3909   -7.0265   -7.4534 C   0  0  0  0  0  0  0  0  0  0  0  0
   51.7835   -6.4767   -7.5424 C   0  0  0  0  0  0  0  0  0  0  0  0
 29 30  1  0  0  0
 30  1  1  0  0  0
  1  2  1  0  0  0
  2 13  1  0  0  0
 13 14  1  0  0  0
 14 15  1  0  0  0
 15 16  1  0  0  0
 16 17  1  0  0  0
  2  3  1  0  0  0
  3  4  2  0  0  0
  4  5  1  0  0  0
  5  6  2  0  0  0
  6  7  1  0  0  0
  7  8  2  0  0  0
  8  9  1  0  0  0
  9 10  1  0  0  0
  9 11  1  0  0  0
 11 12  2  0  0  0
  5 18  1  0  0  0
 18 19  1  0  0  0
 19 20  2  0  0  0
 20 21  1  0  0  0
 21 22  2  0  0  0
 22 23  1  0  0  0
 23 24  2  0  0  0
 24 25  1  0  0  0
 25 26  2  0  0  0
 26 27  1  0  0  0
 27 28  2  0  0  0
 11  1  1  0  0  0
 22 18  1  0  0  0
 28 23  1  0  0  0
 17 13  1  0  0  0
  8  3  1  0  0  0
M  END
> <minimizedAffinity>
-9.54346

> <CNNscore>
0.7750293016

> <CNNaffinity>
7.5076498985

> <CNN_VS>
5.8186488152

> <CNNaffinity_variance>
0.0450869873

$$$$
[H]c1nc(-n2c(-c3c([H])c([H])c([H])c([H])c3[H])nc([H])c2[H])nc2c1N(C([H])([H])[H])C(=O)[C@@]([H])(C([H])([H])C([H])([H])[H])N2C1([H])C([H])([H])C([H])([H])C([H])([H])C1([H])[H]


 30 34  0  0  0  0  0  0  0  0999 V2000
   52.1845   -5.8576   -6.3181 C   0  0  0  0  0  0  0  0  0  0  0  0
   53.5010   -5.5016   -6.9213 N   0  0  0  0  0  0  0  0  0  0  0  0
   53.4884   -4.6062   -8.0262 C   0  0  0  0  0  0  0  0  0  0  0  0
   54.4734   -4.6461   -8.9383 N   0  0  0  0  0  0  0  0  0  0  0  0
   54.5424   -3.8447  -10.0071 C   0  0  0  0  0  0  0  0  0  0  0  0
   53.5350   -2.9381  -10.1562 N   0  0  0  0  0  0  0  0  0  0  0  0
   52.5253   -2.8265   -9.3099 C   0  0  0  0  0  0  0  0  0  0  0  0
   52.4675   -3.6557   -8.2175 C   0  0  0  0  0  0  0  0  0  0  0  0
   51.4349   -3.6218   -7.2582 N   0  0  0  0  0  0  0  0  0  0  0  0
   50.3710   -2.6601   -7.4147 C   0  0  0  0  0  0  0  0  0  0  0  0
   51.4952   -4.5441   -6.1750 C   0  0  0  0  0  0  0  0  0  0  0  0
   50.9541   -4.2265   -5.0958 O   0  0  0  0  0  0  0  0  0  0  0  0
   54.6981   -6.0080   -6.3982 C   0  0  0  0  0  0  0  0  0  0  0  0
   54.8067   -7.3675   -5.8577 C   0  0  0  0  0  0  0  0  0  0  0  0
   56.2392   -7.3076   -5.2320 C   0  0  0  0  0  0  0  0  0  0  0  0
   56.3682   -5.8945   -4.7452 C   0  0  0  0  0  0  0  0  0  0  0  0
   55.1342   -5.1543   -5.1979 C   0  0  0  0  0  0  0  0  0  0  0  0
   55.5841   -3.9232  -10.9958 N   0  0  0  0  0  0  0  0  0  0  0  0
   55.3180   -3.5542  -12.3007 C   0  0  0  0  0  0  0  0  0  0  0  0
   56.4363   -3.7315  -13.0693 C   0  0  0  0  0  0  0  0  0  0  0  0
   57.3559   -4.1996  -12.2321 N   0  0  0  0  0  0  0  0  0  0  0  0
   56.8300   -4.3159  -10.9583 C   0  0  0  0  0  0  0  0  0  0  0  0
   57.5865   -4.8306   -9.8289 C   0  0  0  0  0  0  0  0  0  0  0  0
   57.2529   -4.7149   -8.5251 C   0  0  0  0  0  0  0  0  0  0  0  0
   58.0673   -5.3090   -7.5293 C   0  0  0  0  0  0  0  0  0  0  0  0
   59.2038   -6.0104   -7.8380 C   0  0  0  0  0  0  0  0  0  0  0  0
   59.5400   -6.1247   -9.1650 C   0  0  0  0  0  0  0  0  0  0  0  0
   58.7539   -5.5501  -10.1464 C   0  0  0  0  0  0  0  0  0  0  0  0
   49.9965   -6.7459   -7.1671 C   0  0  0  0  0  0  0  0  0  0  0  0
   51.4859   -6.6969   -7.3365 C   0  0  0  0  0  0  0  0  0  0  0  0
 29 30  1  0  0  0
 30  1  1  0  0  0
  1  2  1  0  0  0
  2 13  1  0  0  0
 13 14  1  0  0  0
 14 15  1  0  0  0
 15 16  1  0  0  0
 16 17  1  0  0  0
  2  3  1  0  0  0
  3  4  2  0  0  0
  4  5  1  0  0  0
  5  6  2  0  0  0
  6  7  1  0  0  0
  7  8  2  0  0  0
  8  9  1  0  0  0
  9 10  1  0  0  0
  9 11  1  0  0  0
 11 12  2  0  0  0
  5 18  1  0  0  0
 18 19  1  0  0  0
 19 20  2  0  0  0
 20 21  1  0  0  0
 21 22  2  0  0  0
 22 23  1  0  0  0
 23 24  2  0  0  0
 24 25  1  0  0  0
 25 26  2  0  0  0
 26 27  1  0  0  0
 27 28  2  0  0  0
 11  1  1  0  0  0
 22 18  1  0  0  0
 28 23  1  0  0  0
 17 13  1  0  0  0
  8  3  1  0  0  0
M  END
> <minimizedAffinity>
-6.95710

> <CNNscore>
0.7440955639

> <CNNaffinity>
7.5982155800

> <CNN_VS>
5.6537985802

> <CNNaffinity_variance>
0.1994220614

$$$$
[H]c1nc(-n2c(-c3c([H])c([H])c([H])c([H])c3[H])nc([H])c2[H])nc2c1N(C([H])([H])[H])C(=O)[C@@]([H])(C([H])([H])C([H])([H])[H])N2C1([H])C([H])([H])C([H])([H])C([H])([H])C1([H])[H]


 30 34  0  0  0  0  0  0  0  0999 V2000
   49.9845   -4.7593   -5.9680 C   0  0  0  0  0  0  0  0  0  0  0  0
   51.4669   -4.7954   -5.8105 N   0  0  0  0  0  0  0  0  0  0  0  0
   52.2426   -4.1505   -6.8132 C   0  0  0  0  0  0  0  0  0  0  0  0
   53.4956   -4.5623   -7.0658 N   0  0  0  0  0  0  0  0  0  0  0  0
   54.2956   -4.0166   -7.9887 C   0  0  0  0  0  0  0  0  0  0  0  0
   53.7807   -2.9769   -8.7049 N   0  0  0  0  0  0  0  0  0  0  0  0
   52.5589   -2.5043   -8.5257 C   0  0  0  0  0  0  0  0  0  0  0  0
   51.7491   -3.0742   -7.5751 C   0  0  0  0  0  0  0  0  0  0  0  0
   50.4318   -2.6495   -7.3071 N   0  0  0  0  0  0  0  0  0  0  0  0
   49.8887   -1.5471   -8.0628 C   0  0  0  0  0  0  0  0  0  0  0  0
   49.6991   -3.3339   -6.2959 C   0  0  0  0  0  0  0  0  0  0  0  0
   48.8061   -2.7098   -5.6864 O   0  0  0  0  0  0  0  0  0  0  0  0
   52.0629   -5.4143   -4.7039 C   0  0  0  0  0  0  0  0  0  0  0  0
   52.8682   -6.6346   -4.8251 C   0  0  0  0  0  0  0  0  0  0  0  0
   53.0736   -6.9871   -3.3149 C   0  0  0  0  0  0  0  0  0  0  0  0
   51.7986   -6.5463   -2.6586 C   0  0  0  0  0  0  0  0  0  0  0  0
   50.9736   -5.8511   -3.7128 C   0  0  0  0  0  0  0  0  0  0  0  0
   55.6228   -4.4918   -8.2740 N   0  0  0  0  0  0  0  0  0  0  0  0
   56.1268   -4.3851   -9.5563 C   0  0  0  0  0  0  0  0  0  0  0  0
   57.3860   -4.9187   -9.6049 C   0  0  0  0  0  0  0  0  0  0  0  0
   57.6281   -5.3371   -8.3671 N   0  0  0  0  0  0  0  0  0  0  0  0
   56.5433   -5.0730   -7.5509 C   0  0  0  0  0  0  0  0  0  0  0  0
   56.4958   -5.4427   -6.1459 C   0  0  0  0  0  0  0  0  0  0  0  0
   56.7663   -6.6622   -5.6317 C   0  0  0  0  0  0  0  0  0  0  0  0
   56.7231   -6.8663   -4.2302 C   0  0  0  0  0  0  0  0  0  0  0  0
   56.4113   -5.8587   -3.3547 C   0  0  0  0  0  0  0  0  0  0  0  0
   56.1358   -4.6204   -3.8820 C   0  0  0  0  0  0  0  0  0  0  0  0
   56.1749   -4.4079   -5.2474 C   0  0  0  0  0  0  0  0  0  0  0  0
   50.3228   -6.9824   -7.0819 C   0  0  0  0  0  0  0  0  0  0  0  0
   49.6807   -5.6284   -7.1436 C   0  0  0  0  0  0  0  0  0  0  0  0
 29 30  1  0  0  0
 30  1  1  0  0  0
  1  2  1  0  0  0
  2 13  1  0  0  0
 13 14  1  0  0  0
 14 15  1  0  0  0
 15 16  1  0  0  0
 16 17  1  0  0  0
  2  3  1  0  0  0
  3  4  2  0  0  0
  4  5  1  0  0  0
  5  6  2  0  0  0
  6  7  1  0  0  0
  7  8  2  0  0  0
  8  9  1  0  0  0
  9 10  1  0  0  0
  9 11  1  0  0  0
 11 12  2  0  0  0
  5 18  1  0  0  0
 18 19  1  0  0  0
 19 20  2  0  0  0
 20 21  1  0  0  0
 21 22  2  0  0  0
 22 23  1  0  0  0
 23 24  2  0  0  0
 24 25  1  0  0  0
 25 26  2  0  0  0
 26 27  1  0  0  0
 27 28  2  0  0  0
 11  1  1  0  0  0
 22 18  1  0  0  0
 28 23  1  0  0  0
 17 13  1  0  0  0
  8  3  1  0  0  0
M  END
> <minimizedAffinity>
-7.84073

> <CNNscore>
0.5398132205

> <CNNaffinity>
7.6240401268

> <CNN_VS>
4.1155576706

> <CNNaffinity_variance>
0.1685867459

$$$$
[H]c1nc(-n2c(-c3c([H])c([H])c([H])c([H])c3[H])nc([H])c2[H])nc2c1N(C([H])([H])[H])C(=O)[C@@]([H])(C([H])([H])C([H])([H])[H])N2C1([H])C([H])([H])C([H])([H])C([H])([H])C1([H])[H]


 30 34  0  0  0  0  0  0  0  0999 V2000
   62.1806   -3.8923  -13.6492 C   0  0  0  0  0  0  0  0  0  0  0  0
   62.6896   -5.2940  -13.6428 N   0  0  0  0  0  0  0  0  0  0  0  0
   63.0622   -5.8556  -14.8952 C   0  0  0  0  0  0  0  0  0  0  0  0
   63.0062   -7.1842  -15.0824 N   0  0  0  0  0  0  0  0  0  0  0  0
   63.3360   -7.7980  -16.2243 C   0  0  0  0  0  0  0  0  0  0  0  0
   63.7525   -6.9998  -17.2481 N   0  0  0  0  0  0  0  0  0  0  0  0
   63.8392   -5.6837  -17.1557 C   0  0  0  0  0  0  0  0  0  0  0  0
   63.4973   -5.0673  -15.9777 C   0  0  0  0  0  0  0  0  0  0  0  0
   63.5503   -3.6732  -15.7754 N   0  0  0  0  0  0  0  0  0  0  0  0
   63.9943   -2.8292  -16.8580 C   0  0  0  0  0  0  0  0  0  0  0  0
   63.1613   -3.1647  -14.5034 C   0  0  0  0  0  0  0  0  0  0  0  0
   63.6629   -2.0888  -14.1170 O   0  0  0  0  0  0  0  0  0  0  0  0
   62.8206   -6.0115  -12.4466 C   0  0  0  0  0  0  0  0  0  0  0  0
   62.8669   -7.4774  -12.4104 C   0  0  0  0  0  0  0  0  0  0  0  0
   62.7889   -7.7232  -10.8675 C   0  0  0  0  0  0  0  0  0  0  0  0
   61.9097   -6.6169  -10.3638 C   0  0  0  0  0  0  0  0  0  0  0  0
   61.6220   -5.7101  -11.5344 C   0  0  0  0  0  0  0  0  0  0  0  0
   63.2362   -9.2191  -16.4225 N   0  0  0  0  0  0  0  0  0  0  0  0
   62.6558   -9.7098  -17.5767 C   0  0  0  0  0  0  0  0  0  0  0  0
   62.6435  -11.0778  -17.5434 C   0  0  0  0  0  0  0  0  0  0  0  0
   63.2097  -11.3968  -16.3844 N   0  0  0  0  0  0  0  0  0  0  0  0
   63.5737  -10.2528  -15.6976 C   0  0  0  0  0  0  0  0  0  0  0  0
   64.1895  -10.2770  -14.3811 C   0  0  0  0  0  0  0  0  0  0  0  0
   65.2804   -9.5790  -13.9970 C   0  0  0  0  0  0  0  0  0  0  0  0
   65.7445   -9.6670  -12.6612 C   0  0  0  0  0  0  0  0  0  0  0  0
   65.1219  -10.4470  -11.7216 C   0  0  0  0  0  0  0  0  0  0  0  0
   64.0135  -11.1560  -12.1167 C   0  0  0  0  0  0  0  0  0  0  0  0
   63.5502  -11.0786  -13.4169 C   0  0  0  0  0  0  0  0  0  0  0  0
   59.7029   -3.5506  -13.4455 C   0  0  0  0  0  0  0  0  0  0  0  0
   60.8506   -3.9473  -14.3257 C   0  0  0  0  0  0  0  0  0  0  0  0
 29 30  1  0  0  0
 30  1  1  0  0  0
  1  2  1  0  0  0
  2 13  1  0  0  0
 13 14  1  0  0  0
 14 15  1  0  0  0
 15 16  1  0  0  0
 16 17  1  0  0  0
  2  3  1  0  0  0
  3  4  2  0  0  0
  4  5  1  0  0  0
  5  6  2  0  0  0
  6  7  1  0  0  0
  7  8  2  0  0  0
  8  9  1  0  0  0
  9 10  1  0  0  0
  9 11  1  0  0  0
 11 12  2  0  0  0
  5 18  1  0  0  0
 18 19  1  0  0  0
 19 20  2  0  0  0
 20 21  1  0  0  0
 21 22  2  0  0  0
 22 23  1  0  0  0
 23 24  2  0  0  0
 24 25  1  0  0  0
 25 26  2  0  0  0
 26 27  1  0  0  0
 27 28  2  0  0  0
 11  1  1  0  0  0
 22 18  1  0  0  0
 28 23  1  0  0  0
 17 13  1  0  0  0
  8  3  1  0  0  0
M  END
> <minimizedAffinity>
-1.62629

> <CNNscore>
0.4889543355

> <CNNaffinity>
5.2210092545

> <CNN_VS>
2.5528352261

> <CNNaffinity_variance>
0.4148747027

$$$$
[H]c1nc(-n2c(-c3c([H])c([H])c([H])c([H])c3[H])nc([H])c2[H])nc2c1N(C([H])([H])[H])C(=O)[C@@]([H])(C([H])([H])C([H])([H])[H])N2C1([H])C([H])([H])C([H])([H])C([H])([H])C1([H])[H]


 30 34  0  0  0  0  0  0  0  0999 V2000
   57.5864   -4.7722  -11.2049 C   0  0  0  0  0  0  0  0  0  0  0  0
   58.2576   -5.1687   -9.9336 N   0  0  0  0  0  0  0  0  0  0  0  0
   59.5684   -5.7116  -10.0329 C   0  0  0  0  0  0  0  0  0  0  0  0
   60.0206   -6.5591   -9.0943 N   0  0  0  0  0  0  0  0  0  0  0  0
   61.2362   -7.1173   -9.1071 C   0  0  0  0  0  0  0  0  0  0  0  0
   62.0482   -6.7878  -10.1516 N   0  0  0  0  0  0  0  0  0  0  0  0
   61.6888   -5.9632  -11.1207 C   0  0  0  0  0  0  0  0  0  0  0  0
   60.4382   -5.3977  -11.0945 C   0  0  0  0  0  0  0  0  0  0  0  0
   59.9557   -4.5104  -12.0780 N   0  0  0  0  0  0  0  0  0  0  0  0
   60.8166   -4.1593  -13.1812 C   0  0  0  0  0  0  0  0  0  0  0  0
   58.6342   -4.0007  -11.9313 C   0  0  0  0  0  0  0  0  0  0  0  0
   58.3706   -2.8862  -12.4281 O   0  0  0  0  0  0  0  0  0  0  0  0
   57.6296   -4.9840   -8.6948 C   0  0  0  0  0  0  0  0  0  0  0  0
   56.5262   -5.8362   -8.2382 C   0  0  0  0  0  0  0  0  0  0  0  0
   56.0846   -5.0602   -6.9537 C   0  0  0  0  0  0  0  0  0  0  0  0
   56.3194   -3.6187   -7.2970 C   0  0  0  0  0  0  0  0  0  0  0  0
   56.9917   -3.5874   -8.6470 C   0  0  0  0  0  0  0  0  0  0  0  0
   61.6940   -8.0521   -8.1145 N   0  0  0  0  0  0  0  0  0  0  0  0
   61.6468   -7.7076   -6.7770 C   0  0  0  0  0  0  0  0  0  0  0  0
   62.1515   -8.7282   -6.0178 C   0  0  0  0  0  0  0  0  0  0  0  0
   62.4941   -9.6680   -6.8925 N   0  0  0  0  0  0  0  0  0  0  0  0
   62.2113   -9.2504   -8.1803 C   0  0  0  0  0  0  0  0  0  0  0  0
   62.5031  -10.0504   -9.3584 C   0  0  0  0  0  0  0  0  0  0  0  0
   62.0804  -11.3120   -9.5915 C   0  0  0  0  0  0  0  0  0  0  0  0
   62.4067  -11.9553  -10.8111 C   0  0  0  0  0  0  0  0  0  0  0  0
   63.1494  -11.3402  -11.7853 C   0  0  0  0  0  0  0  0  0  0  0  0
   63.5782  -10.0576  -11.5436 C   0  0  0  0  0  0  0  0  0  0  0  0
   63.2663   -9.4186  -10.3581 C   0  0  0  0  0  0  0  0  0  0  0  0
   57.9180   -7.2581  -11.2939 C   0  0  0  0  0  0  0  0  0  0  0  0
   57.2954   -6.0479  -11.9243 C   0  0  0  0  0  0  0  0  0  0  0  0
 29 30  1  0  0  0
 30  1  1  0  0  0
  1  2  1  0  0  0
  2 13  1  0  0  0
 13 14  1  0  0  0
 14 15  1  0  0  0
 15 16  1  0  0  0
 16 17  1  0  0  0
  2  3  1  0  0  0
  3  4  2  0  0  0
  4  5  1  0  0  0
  5  6  2  0  0  0
  6  7  1  0  0  0
  7  8  2  0  0  0
  8  9  1  0  0  0
  9 10  1  0  0  0
  9 11  1  0  0  0
 11 12  2  0  0  0
  5 18  1  0  0  0
 18 19  1  0  0  0
 19 20  2  0  0  0
 20 21  1  0  0  0
 21 22  2  0  0  0
 22 23  1  0  0  0
 23 24  2  0  0  0
 24 25  1  0  0  0
 25 26  2  0  0  0
 26 27  1  0  0  0
 27 28  2  0  0  0
 11  1  1  0  0  0
 22 18  1  0  0  0
 28 23  1  0  0  0
 17 13  1  0  0  0
  8  3  1  0  0  0
M  END
> <minimizedAffinity>
5.94018

> <CNNscore>
0.4086269140

> <CNNaffinity>
5.4145979881

> <CNN_VS>
2.2125504017

> <CNNaffinity_variance>
0.4843877256

$$$$
[H]c1nc(-n2c(-c3c([H])c([H])c([H])c([H])c3[H])nc([H])c2[H])nc2c1N(C([H])([H])[H])C(=O)[C@@]([H])(C([H])([H])C([H])([H])[H])N2C1([H])C([H])([H])C([H])([H])C([H])([H])C1([H])[H]


 30 34  0  0  0  0  0  0  0  0999 V2000
   54.3312   -4.2524   -8.5404 C   0  0  0  0  0  0  0  0  0  0  0  0
   53.4678   -4.5440   -7.3600 N   0  0  0  0  0  0  0  0  0  0  0  0
   54.1217   -4.9136   -6.1523 C   0  0  0  0  0  0  0  0  0  0  0  0
   53.4905   -5.6845   -5.2518 N   0  0  0  0  0  0  0  0  0  0  0  0
   54.0271   -6.0807   -4.0923 C   0  0  0  0  0  0  0  0  0  0  0  0
   55.2981   -5.6608   -3.8328 N   0  0  0  0  0  0  0  0  0  0  0  0
   55.9963   -4.9008   -4.6594 C   0  0  0  0  0  0  0  0  0  0  0  0
   55.4328   -4.5019   -5.8459 C   0  0  0  0  0  0  0  0  0  0  0  0
   56.0907   -3.6958   -6.7971 N   0  0  0  0  0  0  0  0  0  0  0  0
   57.4343   -3.2490   -6.5206 C   0  0  0  0  0  0  0  0  0  0  0  0
   55.3906   -3.3600   -7.9908 C   0  0  0  0  0  0  0  0  0  0  0  0
   55.6859   -2.2948   -8.5709 O   0  0  0  0  0  0  0  0  0  0  0  0
   52.0736   -4.4280   -7.4360 C   0  0  0  0  0  0  0  0  0  0  0  0
   51.3527   -4.4377   -8.7136 C   0  0  0  0  0  0  0  0  0  0  0  0
   49.9147   -4.0590   -8.2279 C   0  0  0  0  0  0  0  0  0  0  0  0
   50.1500   -3.1210   -7.0810 C   0  0  0  0  0  0  0  0  0  0  0  0
   51.6381   -3.0821   -6.8370 C   0  0  0  0  0  0  0  0  0  0  0  0
   53.3528   -6.9368   -3.1536 N   0  0  0  0  0  0  0  0  0  0  0  0
   54.0595   -7.9312   -2.5044 C   0  0  0  0  0  0  0  0  0  0  0  0
   53.2208   -8.6350   -1.6835 C   0  0  0  0  0  0  0  0  0  0  0  0
   52.0304   -8.0663   -1.8421 N   0  0  0  0  0  0  0  0  0  0  0  0
   52.1142   -7.0225   -2.7455 C   0  0  0  0  0  0  0  0  0  0  0  0
   50.9675   -6.2258   -3.1497 C   0  0  0  0  0  0  0  0  0  0  0  0
   50.2254   -5.4308   -2.3485 C   0  0  0  0  0  0  0  0  0  0  0  0
   49.1584   -4.6736   -2.8925 C   0  0  0  0  0  0  0  0  0  0  0  0
   48.8390   -4.7143   -4.2248 C   0  0  0  0  0  0  0  0  0  0  0  0
   49.5955   -5.5250   -5.0359 C   0  0  0  0  0  0  0  0  0  0  0  0
   50.6395   -6.2685   -4.5178 C   0  0  0  0  0  0  0  0  0  0  0  0
   56.3406   -5.4711   -9.4202 C   0  0  0  0  0  0  0  0  0  0  0  0
   54.9213   -5.5631   -8.9443 C   0  0  0  0  0  0  0  0  0  0  0  0
 29 30  1  0  0  0
 30  1  1  0  0  0
  1  2  1  0  0  0
  2 13  1  0  0  0
 13 14  1  0  0  0
 14 15  1  0  0  0
 15 16  1  0  0  0
 16 17  1  0  0  0
  2  3  1  0  0  0
  3  4  2  0  0  0
  4  5  1  0  0  0
  5  6  2  0  0  0
  6  7  1  0  0  0
  7  8  2  0  0  0
  8  9  1  0  0  0
  9 10  1  0  0  0
  9 11  1  0  0  0
 11 12  2  0  0  0
  5 18  1  0  0  0
 18 19  1  0  0  0
 19 20  2  0  0  0
 20 21  1  0  0  0
 21 22  2  0  0  0
 22 23  1  0  0  0
 23 24  2  0  0  0
 24 25  1  0  0  0
 25 26  2  0  0  0
 26 27  1  0  0  0
 27 28  2  0  0  0
 11  1  1  0  0  0
 22 18  1  0  0  0
 28 23  1  0  0  0
 17 13  1  0  0  0
  8  3  1  0  0  0
M  END
> <minimizedAffinity>
1.39411

> <CNNscore>
0.3969187140

> <CNNaffinity>
6.6922101974

> <CNN_VS>
2.6562633514

> <CNNaffinity_variance>
0.8400053978

$$$$
[H]c1nc(-n2c(-c3c([H])c([H])c([H])c([H])c3[H])nc([H])c2[H])nc2c1N(C([H])([H])[H])C(=O)[C@@]([H])(C([H])([H])C([H])([H])[H])N2C1([H])C([H])([H])C([H])([H])C([H])([H])C1([H])[H]


 30 34  0  0  0  0  0  0  0  0999 V2000
   63.5111   -9.6703   -7.3328 C   0  0  0  0  0  0  0  0  0  0  0  0
   62.3688   -9.3261   -8.2275 N   0  0  0  0  0  0  0  0  0  0  0  0
   62.1518   -7.9478   -8.5031 C   0  0  0  0  0  0  0  0  0  0  0  0
   60.9212   -7.5068   -8.8106 N   0  0  0  0  0  0  0  0  0  0  0  0
   60.6251   -6.2310   -9.0829 C   0  0  0  0  0  0  0  0  0  0  0  0
   61.6577   -5.3418   -9.0383 N   0  0  0  0  0  0  0  0  0  0  0  0
   62.9007   -5.6843   -8.7450 C   0  0  0  0  0  0  0  0  0  0  0  0
   63.1898   -6.9973   -8.4676 C   0  0  0  0  0  0  0  0  0  0  0  0
   64.4783   -7.4666   -8.1407 N   0  0  0  0  0  0  0  0  0  0  0  0
   65.5713   -6.5259   -8.0969 C   0  0  0  0  0  0  0  0  0  0  0  0
   64.6375   -8.8554   -7.8694 C   0  0  0  0  0  0  0  0  0  0  0  0
   65.7487   -9.3789   -8.0920 O   0  0  0  0  0  0  0  0  0  0  0  0
   61.5653  -10.3249   -8.7931 C   0  0  0  0  0  0  0  0  0  0  0  0
   61.0513  -11.4559   -8.0128 C   0  0  0  0  0  0  0  0  0  0  0  0
   60.4424  -12.3327   -9.1562 C   0  0  0  0  0  0  0  0  0  0  0  0
   61.3554  -12.0993  -10.3235 C   0  0  0  0  0  0  0  0  0  0  0  0
   62.3440  -11.0380   -9.9089 C   0  0  0  0  0  0  0  0  0  0  0  0
   59.2955   -5.7665   -9.3748 N   0  0  0  0  0  0  0  0  0  0  0  0
   58.2743   -6.0058   -8.4751 C   0  0  0  0  0  0  0  0  0  0  0  0
   57.0992   -5.5028   -8.9637 C   0  0  0  0  0  0  0  0  0  0  0  0
   57.4174   -4.9708  -10.1390 N   0  0  0  0  0  0  0  0  0  0  0  0
   58.7679   -5.1335  -10.3891 C   0  0  0  0  0  0  0  0  0  0  0  0
   59.4107   -4.6822  -11.6123 C   0  0  0  0  0  0  0  0  0  0  0  0
   60.7019   -4.8810  -11.9558 C   0  0  0  0  0  0  0  0  0  0  0  0
   61.1816   -4.4210  -13.2072 C   0  0  0  0  0  0  0  0  0  0  0  0
   60.3755   -3.7682  -14.1032 C   0  0  0  0  0  0  0  0  0  0  0  0
   59.0634   -3.5671  -13.7493 C   0  0  0  0  0  0  0  0  0  0  0  0
   58.5827   -4.0113  -12.5317 C   0  0  0  0  0  0  0  0  0  0  0  0
   63.6855  -10.0008   -4.8513 C   0  0  0  0  0  0  0  0  0  0  0  0
   63.1240   -9.1823   -5.9757 C   0  0  0  0  0  0  0  0  0  0  0  0
 29 30  1  0  0  0
 30  1  1  0  0  0
  1  2  1  0  0  0
  2 13  1  0  0  0
 13 14  1  0  0  0
 14 15  1  0  0  0
 15 16  1  0  0  0
 16 17  1  0  0  0
  2  3  1  0  0  0
  3  4  2  0  0  0
  4  5  1  0  0  0
  5  6  2  0  0  0
  6  7  1  0  0  0
  7  8  2  0  0  0
  8  9  1  0  0  0
  9 10  1  0  0  0
  9 11  1  0  0  0
 11 12  2  0  0  0
  5 18  1  0  0  0
 18 19  1  0  0  0
 19 20  2  0  0  0
 20 21  1  0  0  0
 21 22  2  0  0  0
 22 23  1  0  0  0
 23 24  2  0  0  0
 24 25  1  0  0  0
 25 26  2  0  0  0
 26 27  1  0  0  0
 27 28  2  0  0  0
 11  1  1  0  0  0
 22 18  1  0  0  0
 28 23  1  0  0  0
 17 13  1  0  0  0
  8  3  1  0  0  0
M  END
> <minimizedAffinity>
1.61396

> <CNNscore>
0.3863949478

> <CNNaffinity>
5.3703298569

> <CNN_VS>
2.0750682354

> <CNNaffinity_variance>
0.6150647402

$$$$
[H]c1nc(-n2c(-c3c([H])c([H])c([H])c([H])c3[H])nc([H])c2[H])nc2c1N(C([H])([H])[H])C(=O)[C@@]([H])(C([H])([H])C([H])([H])[H])N2C1([H])C([H])([H])C([H])([H])C([H])([H])C1([H])[H]


 30 34  0  0  0  0  0  0  0  0999 V2000
   55.3092   -4.1528   -4.7115 C   0  0  0  0  0  0  0  0  0  0  0  0
   56.0846   -4.4202   -5.9569 N   0  0  0  0  0  0  0  0  0  0  0  0
   57.0176   -5.4931   -5.9236 C   0  0  0  0  0  0  0  0  0  0  0  0
   58.0918   -5.4784   -6.7296 N   0  0  0  0  0  0  0  0  0  0  0  0
   59.0193   -6.4417   -6.7650 C   0  0  0  0  0  0  0  0  0  0  0  0
   58.8384   -7.4947   -5.9181 N   0  0  0  0  0  0  0  0  0  0  0  0
   57.8125   -7.5945   -5.0900 C   0  0  0  0  0  0  0  0  0  0  0  0
   56.8683   -6.5983   -5.0643 C   0  0  0  0  0  0  0  0  0  0  0  0
   55.7405   -6.6055   -4.2185 N   0  0  0  0  0  0  0  0  0  0  0  0
   55.5477   -7.7216   -3.3250 C   0  0  0  0  0  0  0  0  0  0  0  0
   54.8414   -5.5035   -4.2902 C   0  0  0  0  0  0  0  0  0  0  0  0
   53.6449   -5.6948   -3.9901 O   0  0  0  0  0  0  0  0  0  0  0  0
   55.8764   -3.6620   -7.1166 C   0  0  0  0  0  0  0  0  0  0  0  0
   54.9496   -2.5255   -7.1567 C   0  0  0  0  0  0  0  0  0  0  0  0
   54.9465   -2.2192   -8.6907 C   0  0  0  0  0  0  0  0  0  0  0  0
   55.0967   -3.5661   -9.3341 C   0  0  0  0  0  0  0  0  0  0  0  0
   55.3175   -4.5656   -8.2260 C   0  0  0  0  0  0  0  0  0  0  0  0
   60.1842   -6.3952   -7.6073 N   0  0  0  0  0  0  0  0  0  0  0  0
   61.3758   -6.9311   -7.1571 C   0  0  0  0  0  0  0  0  0  0  0  0
   62.3492   -6.7556   -8.1029 C   0  0  0  0  0  0  0  0  0  0  0  0
   61.7442   -6.1237   -9.1031 N   0  0  0  0  0  0  0  0  0  0  0  0
   60.4137   -5.9040   -8.7964 C   0  0  0  0  0  0  0  0  0  0  0  0
   59.4976   -5.2052   -9.6827 C   0  0  0  0  0  0  0  0  0  0  0  0
   58.2047   -4.9115   -9.4244 C   0  0  0  0  0  0  0  0  0  0  0  0
   57.4408   -4.1818  -10.3687 C   0  0  0  0  0  0  0  0  0  0  0  0
   57.9678   -3.7524  -11.5590 C   0  0  0  0  0  0  0  0  0  0  0  0
   59.2827   -4.0542  -11.8182 C   0  0  0  0  0  0  0  0  0  0  0  0
   60.0390   -4.7651  -10.9051 C   0  0  0  0  0  0  0  0  0  0  0  0
   55.8895   -3.8062   -2.2948 C   0  0  0  0  0  0  0  0  0  0  0  0
   56.2966   -3.6200   -3.7262 C   0  0  0  0  0  0  0  0  0  0  0  0
 29 30  1  0  0  0
 30  1  1  0  0  0
  1  2  1  0  0  0
  2 13  1  0  0  0
 13 14  1  0  0  0
 14 15  1  0  0  0
 15 16  1  0  0  0
 16 17  1  0  0  0
  2  3  1  0  0  0
  3  4  2  0  0  0
  4  5  1  0  0  0
  5  6  2  0  0  0
  6  7  1  0  0  0
  7  8  2  0  0  0
  8  9  1  0  0  0
  9 10  1  0  0  0
  9 11  1  0  0  0
 11 12  2  0  0  0
  5 18  1  0  0  0
 18 19  1  0  0  0
 19 20  2  0  0  0
 20 21  1  0  0  0
 21 22  2  0  0  0
 22 23  1  0  0  0
 23 24  2  0  0  0
 24 25  1  0  0  0
 25 26  2  0  0  0
 26 27  1  0  0  0
 27 28  2  0  0  0
 11  1  1  0  0  0
 22 18  1  0  0  0
 28 23  1  0  0  0
 17 13  1  0  0  0
  8  3  1  0  0  0
M  END
> <minimizedAffinity>
10.40646

> <CNNscore>
0.3529822230

> <CNNaffinity>
6.0713539124

> <CNN_VS>
2.1430799961

> <CNNaffinity_variance>
0.7081767917

$$$$
[H]c1nc(-n2c(-c3c([H])c([H])c([H])c([H])c3[H])nc([H])c2[H])nc2c1N(C([H])([H])[H])C(=O)[C@@]([H])(C([H])([H])C([H])([H])[H])N2C1([H])C([H])([H])C([H])([H])C([H])([H])C1([H])[H]


 30 34  0  0  0  0  0  0  0  0999 V2000
   60.4063   -3.2080  -13.7393 C   0  0  0  0  0  0  0  0  0  0  0  0
   60.8422   -4.2780  -12.7965 N   0  0  0  0  0  0  0  0  0  0  0  0
   62.0631   -4.9453  -13.0908 C   0  0  0  0  0  0  0  0  0  0  0  0
   62.2629   -6.2043  -12.6680 N   0  0  0  0  0  0  0  0  0  0  0  0
   63.3770   -6.9079  -12.8988 C   0  0  0  0  0  0  0  0  0  0  0  0
   64.3570   -6.2828  -13.6114 N   0  0  0  0  0  0  0  0  0  0  0  0
   64.2490   -5.0466  -14.0678 C   0  0  0  0  0  0  0  0  0  0  0  0
   63.0999   -4.3365  -13.8235 C   0  0  0  0  0  0  0  0  0  0  0  0
   62.8820   -3.0163  -14.2672 N   0  0  0  0  0  0  0  0  0  0  0  0
   63.9206   -2.3541  -15.0183 C   0  0  0  0  0  0  0  0  0  0  0  0
   61.6395   -2.3979  -13.9482 C   0  0  0  0  0  0  0  0  0  0  0  0
   61.6056   -1.1541  -13.8472 O   0  0  0  0  0  0  0  0  0  0  0  0
   60.0912   -4.5874  -11.6549 C   0  0  0  0  0  0  0  0  0  0  0  0
   60.2036   -5.8779  -10.9662 C   0  0  0  0  0  0  0  0  0  0  0  0
   59.0208   -5.7580   -9.9495 C   0  0  0  0  0  0  0  0  0  0  0  0
   57.9806   -4.9687  -10.6882 C   0  0  0  0  0  0  0  0  0  0  0  0
   58.5946   -4.5410  -11.9980 C   0  0  0  0  0  0  0  0  0  0  0  0
   63.5627   -8.2686  -12.4714 N   0  0  0  0  0  0  0  0  0  0  0  0
   64.0152   -9.2132  -13.3730 C   0  0  0  0  0  0  0  0  0  0  0  0
   64.0936  -10.4356  -12.7629 C   0  0  0  0  0  0  0  0  0  0  0  0
   63.6933  -10.2208  -11.5141 N   0  0  0  0  0  0  0  0  0  0  0  0
   63.3683   -8.8882  -11.3373 C   0  0  0  0  0  0  0  0  0  0  0  0
   62.8671   -8.3509  -10.0831 C   0  0  0  0  0  0  0  0  0  0  0  0
   61.8112   -8.8159   -9.3805 C   0  0  0  0  0  0  0  0  0  0  0  0
   61.4631   -8.2174   -8.1442 C   0  0  0  0  0  0  0  0  0  0  0  0
   62.1657   -7.1640   -7.6193 C   0  0  0  0  0  0  0  0  0  0  0  0
   63.2380   -6.6936   -8.3375 C   0  0  0  0  0  0  0  0  0  0  0  0
   63.5885   -7.2688   -9.5448 C   0  0  0  0  0  0  0  0  0  0  0  0
   59.3310   -3.0353  -16.0001 C   0  0  0  0  0  0  0  0  0  0  0  0
   60.0315   -3.9096  -15.0030 C   0  0  0  0  0  0  0  0  0  0  0  0
 29 30  1  0  0  0
 30  1  1  0  0  0
  1  2  1  0  0  0
  2 13  1  0  0  0
 13 14  1  0  0  0
 14 15  1  0  0  0
 15 16  1  0  0  0
 16 17  1  0  0  0
  2  3  1  0  0  0
  3  4  2  0  0  0
  4  5  1  0  0  0
  5  6  2  0  0  0
  6  7  1  0  0  0
  7  8  2  0  0  0
  8  9  1  0  0  0
  9 10  1  0  0  0
  9 11  1  0  0  0
 11 12  2  0  0  0
  5 18  1  0  0  0
 18 19  1  0  0  0
 19 20  2  0  0  0
 20 21  1  0  0  0
 21 22  2  0  0  0
 22 23  1  0  0  0
 23 24  2  0  0  0
 24 25  1  0  0  0
 25 26  2  0  0  0
 26 27  1  0  0  0
 27 28  2  0  0  0
 11  1  1  0  0  0
 22 18  1  0  0  0
 28 23  1  0  0  0
 17 13  1  0  0  0
  8  3  1  0  0  0
M  END
> <minimizedAffinity>
-1.32779

> <CNNscore>
0.3457696438

> <CNNaffinity>
5.0666537285

> <CNN_VS>
1.7518950701

> <CNNaffinity_variance>
0.0939530209

$$$$
