[H]c1nc([H])c([H])c(-c2c([H])c([H])c3nc([H])n(-c4sc(C(=O)N([H])[H])c(O[C@@]([H])(c5c([H])c([H])c([H])c([H])c5Cl)C([H])([H])[H])c4[H])c3c2[H])c1[H]


 35 39  0  0  0  0  0  0  0  0999 V2000
   56.3761   -5.1740   -7.4944 C   0  0  0  0  0  0  0  0  0  0  0  0
   55.1512   -4.6711   -7.2987 C   0  0  0  0  0  0  0  0  0  0  0  0
   54.5315   -4.0554   -8.3456 C   0  0  0  0  0  0  0  0  0  0  0  0
   55.6763   -4.1889   -9.5967 S   0  0  0  0  0  0  0  0  0  0  0  0
   56.9097   -5.0209   -8.7607 C   0  0  0  0  0  0  0  0  0  0  0  0
   53.2546   -3.4326   -8.4540 N   0  0  0  0  0  0  0  0  0  0  0  0
   52.8124   -2.5978   -9.4274 C   0  0  0  0  0  0  0  0  0  0  0  0
   51.5505   -2.2200   -9.1764 N   0  0  0  0  0  0  0  0  0  0  0  0
   51.1697   -2.8133   -8.0320 C   0  0  0  0  0  0  0  0  0  0  0  0
   50.0179   -2.8217   -7.2693 C   0  0  0  0  0  0  0  0  0  0  0  0
   49.9154   -3.5496   -6.1029 C   0  0  0  0  0  0  0  0  0  0  0  0
   50.9680   -4.3107   -5.6383 C   0  0  0  0  0  0  0  0  0  0  0  0
   52.1273   -4.2971   -6.4138 C   0  0  0  0  0  0  0  0  0  0  0  0
   52.2304   -3.5694   -7.5803 C   0  0  0  0  0  0  0  0  0  0  0  0
   50.8934   -5.0866   -4.4169 C   0  0  0  0  0  0  0  0  0  0  0  0
   49.9080   -4.8938   -3.4826 C   0  0  0  0  0  0  0  0  0  0  0  0
   49.9027   -5.6833   -2.3244 C   0  0  0  0  0  0  0  0  0  0  0  0
   50.8422   -6.6250   -2.1096 N   0  0  0  0  0  0  0  0  0  0  0  0
   51.8141   -6.8262   -3.0151 C   0  0  0  0  0  0  0  0  0  0  0  0
   51.8394   -6.0553   -4.1708 C   0  0  0  0  0  0  0  0  0  0  0  0
   58.2326   -5.4727   -9.2614 C   0  0  0  0  0  0  0  0  0  0  0  0
   59.2647   -5.8568   -8.4059 N   0  0  0  0  0  0  0  0  0  0  0  0
   58.3672   -5.4883  -10.5101 O   0  0  0  0  0  0  0  0  0  0  0  0
   59.5632   -5.2316   -7.6352 H   0  0  0  0  0  0  0  0  0  0  0  0
   59.7503   -6.7651   -8.5213 H   0  0  0  0  0  0  0  0  0  0  0  0
   57.1755   -5.8458   -6.5328 O   0  0  0  0  0  0  0  0  0  0  0  0
   55.3360   -7.2806   -5.9021 C   0  0  0  0  0  0  0  0  0  0  0  0
   56.7272   -6.7439   -5.5833 C   0  0  0  0  0  0  0  0  0  0  0  0
   56.6678   -6.2169   -4.2043 C   0  0  0  0  0  0  0  0  0  0  0  0
   55.6850   -5.3369   -3.7992 C   0  0  0  0  0  0  0  0  0  0  0  0
   55.6163   -4.8342   -2.4981 C   0  0  0  0  0  0  0  0  0  0  0  0
   56.5495   -5.2185   -1.5809 C   0  0  0  0  0  0  0  0  0  0  0  0
   57.5271   -6.0829   -1.9520 C   0  0  0  0  0  0  0  0  0  0  0  0
   57.5840   -6.5738   -3.2448 C   0  0  0  0  0  0  0  0  0  0  0  0
   58.8898   -7.6770   -3.6003 Cl  0  0  0  0  0  0  0  0  0  0  0  0
 27 28  1  0  0  0
 28 26  1  0  0  0
 26  1  1  0  0  0
  1  2  1  0  0  0
  2  3  2  0  0  0
  3  4  1  0  0  0
  4  5  1  0  0  0
  5 21  1  0  0  0
 21 22  1  0  0  0
 21 23  2  0  0  0
  3  6  1  0  0  0
  6  7  1  0  0  0
  7  8  2  0  0  0
  8  9  1  0  0  0
  9 10  2  0  0  0
 10 11  1  0  0  0
 11 12  2  0  0  0
 12 13  1  0  0  0
 13 14  2  0  0  0
 12 15  1  0  0  0
 15 16  2  0  0  0
 16 17  1  0  0  0
 17 18  2  0  0  0
 18 19  1  0  0  0
 19 20  2  0  0  0
 28 29  1  0  0  0
 29 30  2  0  0  0
 30 31  1  0  0  0
 31 32  2  0  0  0
 32 33  1  0  0  0
 33 34  2  0  0  0
 34 35  1  0  0  0
  5  1  2  0  0  0
 14  6  1  0  0  0
 20 15  1  0  0  0
 34 29  1  0  0  0
 14  9  1  0  0  0
 22 24  1  0  0  0
 22 25  1  0  0  0
M  END
> <minimizedAffinity>
-9.59644

> <CNNscore>
0.7147637010

> <CNNaffinity>
7.8373870850

> <CNN_VS>
5.6018795967

> <CNNaffinity_variance>
0.0927771702

$$$$
[H]c1nc([H])c([H])c(-c2c([H])c([H])c3nc([H])n(-c4sc(C(=O)N([H])[H])c(O[C@@]([H])(c5c([H])c([H])c([H])c([H])c5Cl)C([H])([H])[H])c4[H])c3c2[H])c1[H]


 35 39  0  0  0  0  0  0  0  0999 V2000
   52.7528   -4.6418   -7.8989 C   0  0  0  0  0  0  0  0  0  0  0  0
   53.9300   -5.2790   -7.9031 C   0  0  0  0  0  0  0  0  0  0  0  0
   55.0507   -4.5624   -8.2026 C   0  0  0  0  0  0  0  0  0  0  0  0
   54.4399   -2.9984   -8.4760 S   0  0  0  0  0  0  0  0  0  0  0  0
   52.7813   -3.2935   -8.2038 C   0  0  0  0  0  0  0  0  0  0  0  0
   56.4210   -4.9432   -8.2881 N   0  0  0  0  0  0  0  0  0  0  0  0
   57.2233   -5.4041   -7.2962 C   0  0  0  0  0  0  0  0  0  0  0  0
   58.4516   -5.6550   -7.7721 N   0  0  0  0  0  0  0  0  0  0  0  0
   58.4477   -5.3551   -9.0823 C   0  0  0  0  0  0  0  0  0  0  0  0
   59.3819   -5.3966  -10.0992 C   0  0  0  0  0  0  0  0  0  0  0  0
   59.0801   -5.0143  -11.3890 C   0  0  0  0  0  0  0  0  0  0  0  0
   57.8194   -4.5681  -11.7278 C   0  0  0  0  0  0  0  0  0  0  0  0
   56.8819   -4.5292  -10.6957 C   0  0  0  0  0  0  0  0  0  0  0  0
   57.1832   -4.9114   -9.4057 C   0  0  0  0  0  0  0  0  0  0  0  0
   57.4695   -4.1588  -13.0729 C   0  0  0  0  0  0  0  0  0  0  0  0
   56.2113   -4.3328  -13.5904 C   0  0  0  0  0  0  0  0  0  0  0  0
   55.9491   -3.9119  -14.9014 C   0  0  0  0  0  0  0  0  0  0  0  0
   56.9037   -3.3416  -15.6623 N   0  0  0  0  0  0  0  0  0  0  0  0
   58.1412   -3.1641  -15.1702 C   0  0  0  0  0  0  0  0  0  0  0  0
   58.4242   -3.5736  -13.8729 C   0  0  0  0  0  0  0  0  0  0  0  0
   51.6426   -2.3431   -8.2746 C   0  0  0  0  0  0  0  0  0  0  0  0
   50.4595   -2.5389   -7.5628 N   0  0  0  0  0  0  0  0  0  0  0  0
   51.8099   -1.3455   -9.0192 O   0  0  0  0  0  0  0  0  0  0  0  0
   49.9521   -3.4399   -7.6323 H   0  0  0  0  0  0  0  0  0  0  0  0
   50.0664   -1.7962   -6.9562 H   0  0  0  0  0  0  0  0  0  0  0  0
   51.4854   -5.2136   -7.6133 O   0  0  0  0  0  0  0  0  0  0  0  0
   49.9799   -7.0326   -7.0985 C   0  0  0  0  0  0  0  0  0  0  0  0
   51.2378   -6.2510   -6.7350 C   0  0  0  0  0  0  0  0  0  0  0  0
   51.0885   -5.8498   -5.3209 C   0  0  0  0  0  0  0  0  0  0  0  0
   49.9308   -5.2700   -4.8433 C   0  0  0  0  0  0  0  0  0  0  0  0
   49.7764   -4.8893   -3.5087 C   0  0  0  0  0  0  0  0  0  0  0  0
   50.8003   -5.0918   -2.6310 C   0  0  0  0  0  0  0  0  0  0  0  0
   51.9500   -5.6601   -3.0735 C   0  0  0  0  0  0  0  0  0  0  0  0
   52.0905   -6.0329   -4.3989 C   0  0  0  0  0  0  0  0  0  0  0  0
   53.6173   -6.7519   -4.8464 Cl  0  0  0  0  0  0  0  0  0  0  0  0
 27 28  1  0  0  0
 28 26  1  0  0  0
 26  1  1  0  0  0
  1  2  1  0  0  0
  2  3  2  0  0  0
  3  4  1  0  0  0
  4  5  1  0  0  0
  5 21  1  0  0  0
 21 22  1  0  0  0
 21 23  2  0  0  0
  3  6  1  0  0  0
  6  7  1  0  0  0
  7  8  2  0  0  0
  8  9  1  0  0  0
  9 10  2  0  0  0
 10 11  1  0  0  0
 11 12  2  0  0  0
 12 13  1  0  0  0
 13 14  2  0  0  0
 12 15  1  0  0  0
 15 16  2  0  0  0
 16 17  1  0  0  0
 17 18  2  0  0  0
 18 19  1  0  0  0
 19 20  2  0  0  0
 28 29  1  0  0  0
 29 30  2  0  0  0
 30 31  1  0  0  0
 31 32  2  0  0  0
 32 33  1  0  0  0
 33 34  2  0  0  0
 34 35  1  0  0  0
  5  1  2  0  0  0
 14  6  1  0  0  0
 20 15  1  0  0  0
 34 29  1  0  0  0
 14  9  1  0  0  0
 22 24  1  0  0  0
 22 25  1  0  0  0
M  END
> <minimizedAffinity>
-8.94743

> <CNNscore>
0.6617202759

> <CNNaffinity>
7.5665388107

> <CNN_VS>
5.0069322586

> <CNNaffinity_variance>
0.1067175046

$$$$
[H]c1nc([H])c([H])c(-c2c([H])c([H])c3nc([H])n(-c4sc(C(=O)N([H])[H])c(O[C@@]([H])(c5c([H])c([H])c([H])c([H])c5Cl)C([H])([H])[H])c4[H])c3c2[H])c1[H]


 35 39  0  0  0  0  0  0  0  0999 V2000
   56.5986   -4.3471  -10.4047 C   0  0  0  0  0  0  0  0  0  0  0  0
   55.3337   -3.9259  -10.2849 C   0  0  0  0  0  0  0  0  0  0  0  0
   54.7319   -4.0288   -9.0658 C   0  0  0  0  0  0  0  0  0  0  0  0
   55.9497   -4.7170   -8.0977 S   0  0  0  0  0  0  0  0  0  0  0  0
   57.1889   -4.8563   -9.2628 C   0  0  0  0  0  0  0  0  0  0  0  0
   53.4237   -3.6760   -8.6250 N   0  0  0  0  0  0  0  0  0  0  0  0
   52.5407   -2.8348   -9.2188 C   0  0  0  0  0  0  0  0  0  0  0  0
   51.4126   -2.7621   -8.4976 N   0  0  0  0  0  0  0  0  0  0  0  0
   51.5633   -3.5614   -7.4275 C   0  0  0  0  0  0  0  0  0  0  0  0
   50.7788   -3.9051   -6.3437 C   0  0  0  0  0  0  0  0  0  0  0  0
   51.2138   -4.7800   -5.3710 C   0  0  0  0  0  0  0  0  0  0  0  0
   52.4645   -5.3587   -5.4349 C   0  0  0  0  0  0  0  0  0  0  0  0
   53.2505   -5.0067   -6.5322 C   0  0  0  0  0  0  0  0  0  0  0  0
   52.8160   -4.1318   -7.5051 C   0  0  0  0  0  0  0  0  0  0  0  0
   52.9522   -6.2813   -4.4298 C   0  0  0  0  0  0  0  0  0  0  0  0
   54.1797   -6.8861   -4.5209 C   0  0  0  0  0  0  0  0  0  0  0  0
   54.5818   -7.7685   -3.5088 C   0  0  0  0  0  0  0  0  0  0  0  0
   53.7906   -8.0349   -2.4513 N   0  0  0  0  0  0  0  0  0  0  0  0
   52.5852   -7.4507   -2.3472 C   0  0  0  0  0  0  0  0  0  0  0  0
   52.1656   -6.5722   -3.3387 C   0  0  0  0  0  0  0  0  0  0  0  0
   58.5645   -5.3911   -9.0996 C   0  0  0  0  0  0  0  0  0  0  0  0
   59.3349   -5.8161  -10.1814 N   0  0  0  0  0  0  0  0  0  0  0  0
   58.9954   -5.4380   -7.9207 O   0  0  0  0  0  0  0  0  0  0  0  0
   58.9506   -6.4998  -10.8587 H   0  0  0  0  0  0  0  0  0  0  0  0
   60.2976   -5.4619  -10.3296 H   0  0  0  0  0  0  0  0  0  0  0  0
   57.3879   -4.3214  -11.5843 O   0  0  0  0  0  0  0  0  0  0  0  0
   56.2192   -5.2638  -13.4780 C   0  0  0  0  0  0  0  0  0  0  0  0
   56.9343   -4.0652  -12.8639 C   0  0  0  0  0  0  0  0  0  0  0  0
   57.9788   -3.6608  -13.8274 C   0  0  0  0  0  0  0  0  0  0  0  0
   59.3145   -3.6178  -13.4830 C   0  0  0  0  0  0  0  0  0  0  0  0
   60.3113   -3.2404  -14.3852 C   0  0  0  0  0  0  0  0  0  0  0  0
   59.9673   -2.8981  -15.6597 C   0  0  0  0  0  0  0  0  0  0  0  0
   58.6613   -2.9315  -16.0255 C   0  0  0  0  0  0  0  0  0  0  0  0
   57.6829   -3.3074  -15.1216 C   0  0  0  0  0  0  0  0  0  0  0  0
   56.0395   -3.3088  -15.7112 Cl  0  0  0  0  0  0  0  0  0  0  0  0
 27 28  1  0  0  0
 28 26  1  0  0  0
 26  1  1  0  0  0
  1  2  1  0  0  0
  2  3  2  0  0  0
  3  4  1  0  0  0
  4  5  1  0  0  0
  5 21  1  0  0  0
 21 22  1  0  0  0
 21 23  2  0  0  0
  3  6  1  0  0  0
  6  7  1  0  0  0
  7  8  2  0  0  0
  8  9  1  0  0  0
  9 10  2  0  0  0
 10 11  1  0  0  0
 11 12  2  0  0  0
 12 13  1  0  0  0
 13 14  2  0  0  0
 12 15  1  0  0  0
 15 16  2  0  0  0
 16 17  1  0  0  0
 17 18  2  0  0  0
 18 19  1  0  0  0
 19 20  2  0  0  0
 28 29  1  0  0  0
 29 30  2  0  0  0
 30 31  1  0  0  0
 31 32  2  0  0  0
 32 33  1  0  0  0
 33 34  2  0  0  0
 34 35  1  0  0  0
  5  1  2  0  0  0
 14  6  1  0  0  0
 20 15  1  0  0  0
 34 29  1  0  0  0
 14  9  1  0  0  0
 22 24  1  0  0  0
 22 25  1  0  0  0
M  END
> <minimizedAffinity>
-9.31327

> <CNNscore>
0.5886388421

> <CNNaffinity>
7.2853507996

> <CNN_VS>
4.2884402275

> <CNNaffinity_variance>
0.0710947886

$$$$
[H]c1nc([H])c([H])c(-c2c([H])c([H])c3nc([H])n(-c4sc(C(=O)N([H])[H])c(O[C@@]([H])(c5c([H])c([H])c([H])c([H])c5Cl)C([H])([H])[H])c4[H])c3c2[H])c1[H]


 35 39  0  0  0  0  0  0  0  0999 V2000
   56.0233   -3.8352   -9.8037 C   0  0  0  0  0  0  0  0  0  0  0  0
   54.7452   -3.4567   -9.6815 C   0  0  0  0  0  0  0  0  0  0  0  0
   54.0760   -3.8014   -8.5446 C   0  0  0  0  0  0  0  0  0  0  0  0
   55.2496   -4.6548   -7.6568 S   0  0  0  0  0  0  0  0  0  0  0  0
   56.5567   -4.5526   -8.7491 C   0  0  0  0  0  0  0  0  0  0  0  0
   52.7375   -3.5531   -8.1240 N   0  0  0  0  0  0  0  0  0  0  0  0
   51.8065   -2.7675   -8.7206 C   0  0  0  0  0  0  0  0  0  0  0  0
   50.6628   -2.7907   -8.0209 N   0  0  0  0  0  0  0  0  0  0  0  0
   50.8516   -3.5970   -6.9622 C   0  0  0  0  0  0  0  0  0  0  0  0
   50.0743   -4.0172   -5.9003 C   0  0  0  0  0  0  0  0  0  0  0  0
   50.5539   -4.8762   -4.9345 C   0  0  0  0  0  0  0  0  0  0  0  0
   51.8447   -5.3609   -4.9835 C   0  0  0  0  0  0  0  0  0  0  0  0
   52.6231   -4.9320   -6.0586 C   0  0  0  0  0  0  0  0  0  0  0  0
   52.1440   -4.0730   -7.0246 C   0  0  0  0  0  0  0  0  0  0  0  0
   52.3797   -6.2644   -3.9850 C   0  0  0  0  0  0  0  0  0  0  0  0
   51.7149   -6.5490   -2.8198 C   0  0  0  0  0  0  0  0  0  0  0  0
   52.2975   -7.4328   -1.9009 C   0  0  0  0  0  0  0  0  0  0  0  0
   53.4933   -8.0071   -2.1370 N   0  0  0  0  0  0  0  0  0  0  0  0
   54.1573   -7.7386   -3.2737 C   0  0  0  0  0  0  0  0  0  0  0  0
   53.5989   -6.8655   -4.1993 C   0  0  0  0  0  0  0  0  0  0  0  0
   57.9313   -5.0968   -8.6097 C   0  0  0  0  0  0  0  0  0  0  0  0
   58.7858   -5.2583   -9.6998 N   0  0  0  0  0  0  0  0  0  0  0  0
   58.2805   -5.4051   -7.4433 O   0  0  0  0  0  0  0  0  0  0  0  0
   58.4675   -5.7747  -10.5400 H   0  0  0  0  0  0  0  0  0  0  0  0
   59.7468   -4.8702   -9.6933 H   0  0  0  0  0  0  0  0  0  0  0  0
   56.8789   -3.5723  -10.9055 O   0  0  0  0  0  0  0  0  0  0  0  0
   55.9657   -5.1274  -12.5141 C   0  0  0  0  0  0  0  0  0  0  0  0
   56.5702   -3.7547  -12.2398 C   0  0  0  0  0  0  0  0  0  0  0  0
   57.7079   -3.6036  -13.1703 C   0  0  0  0  0  0  0  0  0  0  0  0
   59.0112   -3.5194  -12.7244 C   0  0  0  0  0  0  0  0  0  0  0  0
   60.0952   -3.3796  -13.5937 C   0  0  0  0  0  0  0  0  0  0  0  0
   59.8733   -3.3226  -14.9381 C   0  0  0  0  0  0  0  0  0  0  0  0
   58.6017   -3.4031  -15.4041 C   0  0  0  0  0  0  0  0  0  0  0  0
   57.5360   -3.5415  -14.5319 C   0  0  0  0  0  0  0  0  0  0  0  0
   55.9484   -3.6320  -15.2528 Cl  0  0  0  0  0  0  0  0  0  0  0  0
 27 28  1  0  0  0
 28 26  1  0  0  0
 26  1  1  0  0  0
  1  2  1  0  0  0
  2  3  2  0  0  0
  3  4  1  0  0  0
  4  5  1  0  0  0
  5 21  1  0  0  0
 21 22  1  0  0  0
 21 23  2  0  0  0
  3  6  1  0  0  0
  6  7  1  0  0  0
  7  8  2  0  0  0
  8  9  1  0  0  0
  9 10  2  0  0  0
 10 11  1  0  0  0
 11 12  2  0  0  0
 12 13  1  0  0  0
 13 14  2  0  0  0
 12 15  1  0  0  0
 15 16  2  0  0  0
 16 17  1  0  0  0
 17 18  2  0  0  0
 18 19  1  0  0  0
 19 20  2  0  0  0
 28 29  1  0  0  0
 29 30  2  0  0  0
 30 31  1  0  0  0
 31 32  2  0  0  0
 32 33  1  0  0  0
 33 34  2  0  0  0
 34 35  1  0  0  0
  5  1  2  0  0  0
 14  6  1  0  0  0
 20 15  1  0  0  0
 34 29  1  0  0  0
 14  9  1  0  0  0
 22 24  1  0  0  0
 22 25  1  0  0  0
M  END
> <minimizedAffinity>
-8.56051

> <CNNscore>
0.5082561374

> <CNNaffinity>
7.3118696213

> <CNN_VS>
3.7163026333

> <CNNaffinity_variance>
0.0796578154

$$$$
[H]c1nc([H])c([H])c(-c2c([H])c([H])c3nc([H])n(-c4sc(C(=O)N([H])[H])c(O[C@@]([H])(c5c([H])c([H])c([H])c([H])c5Cl)C([H])([H])[H])c4[H])c3c2[H])c1[H]


 35 39  0  0  0  0  0  0  0  0999 V2000
   51.6153   -4.0040   -7.8952 C   0  0  0  0  0  0  0  0  0  0  0  0
   52.7803   -4.5698   -8.2334 C   0  0  0  0  0  0  0  0  0  0  0  0
   53.7581   -3.7734   -8.7519 C   0  0  0  0  0  0  0  0  0  0  0  0
   53.0312   -2.2354   -8.7596 S   0  0  0  0  0  0  0  0  0  0  0  0
   51.5081   -2.6417   -8.1060 C   0  0  0  0  0  0  0  0  0  0  0  0
   55.0784   -4.0679   -9.1991 N   0  0  0  0  0  0  0  0  0  0  0  0
   55.6253   -3.8127  -10.4139 C   0  0  0  0  0  0  0  0  0  0  0  0
   56.8958   -4.2400  -10.4496 N   0  0  0  0  0  0  0  0  0  0  0  0
   57.1768   -4.7768   -9.2498 C   0  0  0  0  0  0  0  0  0  0  0  0
   58.2853   -5.3705   -8.6780 C   0  0  0  0  0  0  0  0  0  0  0  0
   58.2788   -5.8426   -7.3827 C   0  0  0  0  0  0  0  0  0  0  0  0
   57.1545   -5.7434   -6.5894 C   0  0  0  0  0  0  0  0  0  0  0  0
   56.0395   -5.1427   -7.1739 C   0  0  0  0  0  0  0  0  0  0  0  0
   56.0455   -4.6706   -8.4692 C   0  0  0  0  0  0  0  0  0  0  0  0
   57.1141   -6.2293   -5.2250 C   0  0  0  0  0  0  0  0  0  0  0  0
   57.9812   -7.1842   -4.7588 C   0  0  0  0  0  0  0  0  0  0  0  0
   57.8796   -7.6049   -3.4256 C   0  0  0  0  0  0  0  0  0  0  0  0
   56.9509   -7.0929   -2.5944 N   0  0  0  0  0  0  0  0  0  0  0  0
   56.0941   -6.1569   -3.0356 C   0  0  0  0  0  0  0  0  0  0  0  0
   56.1763   -5.7245   -4.3535 C   0  0  0  0  0  0  0  0  0  0  0  0
   50.3480   -1.7573   -7.8287 C   0  0  0  0  0  0  0  0  0  0  0  0
   49.1777   -2.2241   -7.2310 N   0  0  0  0  0  0  0  0  0  0  0  0
   50.4848   -0.5555   -8.1671 O   0  0  0  0  0  0  0  0  0  0  0  0
   48.6896   -3.0527   -7.6171 H   0  0  0  0  0  0  0  0  0  0  0  0
   48.7752   -1.7577   -6.3976 H   0  0  0  0  0  0  0  0  0  0  0  0
   50.4859   -4.6639   -7.3440 O   0  0  0  0  0  0  0  0  0  0  0  0
   49.2080   -6.6428   -6.8044 C   0  0  0  0  0  0  0  0  0  0  0  0
   50.4994   -5.8498   -6.6352 C   0  0  0  0  0  0  0  0  0  0  0  0
   50.7158   -5.7055   -5.1808 C   0  0  0  0  0  0  0  0  0  0  0  0
   49.7255   -5.2476   -4.3359 C   0  0  0  0  0  0  0  0  0  0  0  0
   49.9166   -5.1097   -2.9594 C   0  0  0  0  0  0  0  0  0  0  0  0
   51.1232   -5.4362   -2.4142 C   0  0  0  0  0  0  0  0  0  0  0  0
   52.1148   -5.8891   -3.2217 C   0  0  0  0  0  0  0  0  0  0  0  0
   51.9125   -6.0212   -4.5845 C   0  0  0  0  0  0  0  0  0  0  0  0
   53.2651   -6.6120   -5.5172 Cl  0  0  0  0  0  0  0  0  0  0  0  0
 27 28  1  0  0  0
 28 26  1  0  0  0
 26  1  1  0  0  0
  1  2  1  0  0  0
  2  3  2  0  0  0
  3  4  1  0  0  0
  4  5  1  0  0  0
  5 21  1  0  0  0
 21 22  1  0  0  0
 21 23  2  0  0  0
  3  6  1  0  0  0
  6  7  1  0  0  0
  7  8  2  0  0  0
  8  9  1  0  0  0
  9 10  2  0  0  0
 10 11  1  0  0  0
 11 12  2  0  0  0
 12 13  1  0  0  0
 13 14  2  0  0  0
 12 15  1  0  0  0
 15 16  2  0  0  0
 16 17  1  0  0  0
 17 18  2  0  0  0
 18 19  1  0  0  0
 19 20  2  0  0  0
 28 29  1  0  0  0
 29 30  2  0  0  0
 30 31  1  0  0  0
 31 32  2  0  0  0
 32 33  1  0  0  0
 33 34  2  0  0  0
 34 35  1  0  0  0
  5  1  2  0  0  0
 14  6  1  0  0  0
 20 15  1  0  0  0
 34 29  1  0  0  0
 14  9  1  0  0  0
 22 24  1  0  0  0
 22 25  1  0  0  0
M  END
> <minimizedAffinity>
-5.65231

> <CNNscore>
0.3821623027

> <CNNaffinity>
7.5993242264

> <CNN_VS>
2.9041752815

> <CNNaffinity_variance>
0.2842090130

$$$$
[H]c1nc([H])c([H])c(-c2c([H])c([H])c3nc([H])n(-c4sc(C(=O)N([H])[H])c(O[C@@]([H])(c5c([H])c([H])c([H])c([H])c5Cl)C([H])([H])[H])c4[H])c3c2[H])c1[H]


 35 39  0  0  0  0  0  0  0  0999 V2000
   52.6089   -6.4951   -3.2913 C   0  0  0  0  0  0  0  0  0  0  0  0
   52.5885   -5.8048   -4.4379 C   0  0  0  0  0  0  0  0  0  0  0  0
   51.4637   -5.0986   -4.7462 C   0  0  0  0  0  0  0  0  0  0  0  0
   50.4437   -5.4110   -3.4210 S   0  0  0  0  0  0  0  0  0  0  0  0
   51.4690   -6.4279   -2.5116 C   0  0  0  0  0  0  0  0  0  0  0  0
   51.1385   -4.2817   -5.8673 N   0  0  0  0  0  0  0  0  0  0  0  0
   49.9723   -3.6369   -6.1209 C   0  0  0  0  0  0  0  0  0  0  0  0
   50.0548   -2.9678   -7.2800 N   0  0  0  0  0  0  0  0  0  0  0  0
   51.2830   -3.1791   -7.7835 C   0  0  0  0  0  0  0  0  0  0  0  0
   51.9591   -2.7748   -8.9183 C   0  0  0  0  0  0  0  0  0  0  0  0
   53.2562   -3.1635   -9.1773 C   0  0  0  0  0  0  0  0  0  0  0  0
   53.9463   -3.9822   -8.3075 C   0  0  0  0  0  0  0  0  0  0  0  0
   53.2569   -4.3861   -7.1641 C   0  0  0  0  0  0  0  0  0  0  0  0
   51.9598   -3.9977   -6.9046 C   0  0  0  0  0  0  0  0  0  0  0  0
   55.3095   -4.4092   -8.5498 C   0  0  0  0  0  0  0  0  0  0  0  0
   56.1330   -4.8454   -7.5436 C   0  0  0  0  0  0  0  0  0  0  0  0
   57.4408   -5.2415   -7.8563 C   0  0  0  0  0  0  0  0  0  0  0  0
   57.9051   -5.2029   -9.1206 N   0  0  0  0  0  0  0  0  0  0  0  0
   57.1110   -4.7780  -10.1175 C   0  0  0  0  0  0  0  0  0  0  0  0
   55.8107   -4.3806   -9.8311 C   0  0  0  0  0  0  0  0  0  0  0  0
   51.2094   -7.0834   -1.2047 C   0  0  0  0  0  0  0  0  0  0  0  0
   52.1266   -7.0476   -0.1549 N   0  0  0  0  0  0  0  0  0  0  0  0
   50.1069   -7.6760   -1.1009 O   0  0  0  0  0  0  0  0  0  0  0  0
   53.1104   -7.3328   -0.3119 H   0  0  0  0  0  0  0  0  0  0  0  0
   51.8473   -6.7390    0.7943 H   0  0  0  0  0  0  0  0  0  0  0  0
   53.6818   -7.2848   -2.8013 O   0  0  0  0  0  0  0  0  0  0  0  0
   55.6776   -8.5197   -3.3775 C   0  0  0  0  0  0  0  0  0  0  0  0
   55.0114   -7.1659   -3.1577 C   0  0  0  0  0  0  0  0  0  0  0  0
   55.8547   -6.4356   -2.1889 C   0  0  0  0  0  0  0  0  0  0  0  0
   56.1698   -6.9605   -0.9521 C   0  0  0  0  0  0  0  0  0  0  0  0
   56.9681   -6.2817   -0.0290 C   0  0  0  0  0  0  0  0  0  0  0  0
   57.4629   -5.0515   -0.3475 C   0  0  0  0  0  0  0  0  0  0  0  0
   57.1689   -4.5115   -1.5569 C   0  0  0  0  0  0  0  0  0  0  0  0
   56.3764   -5.1946   -2.4629 C   0  0  0  0  0  0  0  0  0  0  0  0
   56.0678   -4.3943   -3.9836 Cl  0  0  0  0  0  0  0  0  0  0  0  0
 27 28  1  0  0  0
 28 26  1  0  0  0
 26  1  1  0  0  0
  1  2  1  0  0  0
  2  3  2  0  0  0
  3  4  1  0  0  0
  4  5  1  0  0  0
  5 21  1  0  0  0
 21 22  1  0  0  0
 21 23  2  0  0  0
  3  6  1  0  0  0
  6  7  1  0  0  0
  7  8  2  0  0  0
  8  9  1  0  0  0
  9 10  2  0  0  0
 10 11  1  0  0  0
 11 12  2  0  0  0
 12 13  1  0  0  0
 13 14  2  0  0  0
 12 15  1  0  0  0
 15 16  2  0  0  0
 16 17  1  0  0  0
 17 18  2  0  0  0
 18 19  1  0  0  0
 19 20  2  0  0  0
 28 29  1  0  0  0
 29 30  2  0  0  0
 30 31  1  0  0  0
 31 32  2  0  0  0
 32 33  1  0  0  0
 33 34  2  0  0  0
 34 35  1  0  0  0
  5  1  2  0  0  0
 14  6  1  0  0  0
 20 15  1  0  0  0
 34 29  1  0  0  0
 14  9  1  0  0  0
 22 24  1  0  0  0
 22 25  1  0  0  0
M  END
> <minimizedAffinity>
-10.04929

> <CNNscore>
0.3563881218

> <CNNaffinity>
7.5017442703

> <CNN_VS>
2.6735324860

> <CNNaffinity_variance>
0.1622196138

$$$$
[H]c1nc([H])c([H])c(-c2c([H])c([H])c3nc([H])n(-c4sc(C(=O)N([H])[H])c(O[C@@]([H])(c5c([H])c([H])c([H])c([H])c5Cl)C([H])([H])[H])c4[H])c3c2[H])c1[H]


 35 39  0  0  0  0  0  0  0  0999 V2000
   56.2346   -4.5608  -10.0973 C   0  0  0  0  0  0  0  0  0  0  0  0
   56.0043   -4.1805  -11.3599 C   0  0  0  0  0  0  0  0  0  0  0  0
   57.0576   -4.1432  -12.2250 C   0  0  0  0  0  0  0  0  0  0  0  0
   58.3632   -4.6431  -11.2558 S   0  0  0  0  0  0  0  0  0  0  0  0
   57.5405   -4.8861   -9.7805 C   0  0  0  0  0  0  0  0  0  0  0  0
   57.1366   -3.7891  -13.6028 N   0  0  0  0  0  0  0  0  0  0  0  0
   56.1173   -3.6207  -14.4818 C   0  0  0  0  0  0  0  0  0  0  0  0
   56.5963   -3.2877  -15.6892 N   0  0  0  0  0  0  0  0  0  0  0  0
   57.9362   -3.2393  -15.5944 C   0  0  0  0  0  0  0  0  0  0  0  0
   58.9702   -2.9614  -16.4673 C   0  0  0  0  0  0  0  0  0  0  0  0
   60.2911   -2.9901  -16.0731 C   0  0  0  0  0  0  0  0  0  0  0  0
   60.6454   -3.3008  -14.7765 C   0  0  0  0  0  0  0  0  0  0  0  0
   59.5958   -3.5801  -13.9013 C   0  0  0  0  0  0  0  0  0  0  0  0
   58.2748   -3.5515  -14.2950 C   0  0  0  0  0  0  0  0  0  0  0  0
   62.0232   -3.3400  -14.3299 C   0  0  0  0  0  0  0  0  0  0  0  0
   62.7974   -2.2120  -14.2343 C   0  0  0  0  0  0  0  0  0  0  0  0
   64.1232   -2.3302  -13.7949 C   0  0  0  0  0  0  0  0  0  0  0  0
   64.6521   -3.5248  -13.4653 N   0  0  0  0  0  0  0  0  0  0  0  0
   63.9070   -4.6393  -13.5534 C   0  0  0  0  0  0  0  0  0  0  0  0
   62.5900   -4.5462  -13.9866 C   0  0  0  0  0  0  0  0  0  0  0  0
   58.0846   -5.3358   -8.4741 C   0  0  0  0  0  0  0  0  0  0  0  0
   57.2644   -5.6580   -7.3934 N   0  0  0  0  0  0  0  0  0  0  0  0
   59.3363   -5.4088   -8.4003 O   0  0  0  0  0  0  0  0  0  0  0  0
   56.5398   -4.9908   -7.0713 H   0  0  0  0  0  0  0  0  0  0  0  0
   57.3609   -6.5612   -6.8943 H   0  0  0  0  0  0  0  0  0  0  0  0
   55.2728   -4.6617   -9.0582 O   0  0  0  0  0  0  0  0  0  0  0  0
   54.6059   -2.4054   -8.5066 C   0  0  0  0  0  0  0  0  0  0  0  0
   54.1885   -3.8271   -8.8664 C   0  0  0  0  0  0  0  0  0  0  0  0
   53.2416   -4.2641   -7.8198 C   0  0  0  0  0  0  0  0  0  0  0  0
   53.5044   -5.3424   -6.9997 C   0  0  0  0  0  0  0  0  0  0  0  0
   52.6192   -5.7633   -6.0051 C   0  0  0  0  0  0  0  0  0  0  0  0
   51.4453   -5.0929   -5.8249 C   0  0  0  0  0  0  0  0  0  0  0  0
   51.1613   -4.0289   -6.6172 C   0  0  0  0  0  0  0  0  0  0  0  0
   52.0473   -3.6218   -7.5995 C   0  0  0  0  0  0  0  0  0  0  0  0
   51.5678   -2.2413   -8.5549 Cl  0  0  0  0  0  0  0  0  0  0  0  0
 27 28  1  0  0  0
 28 26  1  0  0  0
 26  1  1  0  0  0
  1  2  1  0  0  0
  2  3  2  0  0  0
  3  4  1  0  0  0
  4  5  1  0  0  0
  5 21  1  0  0  0
 21 22  1  0  0  0
 21 23  2  0  0  0
  3  6  1  0  0  0
  6  7  1  0  0  0
  7  8  2  0  0  0
  8  9  1  0  0  0
  9 10  2  0  0  0
 10 11  1  0  0  0
 11 12  2  0  0  0
 12 13  1  0  0  0
 13 14  2  0  0  0
 12 15  1  0  0  0
 15 16  2  0  0  0
 16 17  1  0  0  0
 17 18  2  0  0  0
 18 19  1  0  0  0
 19 20  2  0  0  0
 28 29  1  0  0  0
 29 30  2  0  0  0
 30 31  1  0  0  0
 31 32  2  0  0  0
 32 33  1  0  0  0
 33 34  2  0  0  0
 34 35  1  0  0  0
  5  1  2  0  0  0
 14  6  1  0  0  0
 20 15  1  0  0  0
 34 29  1  0  0  0
 14  9  1  0  0  0
 22 24  1  0  0  0
 22 25  1  0  0  0
M  END
> <minimizedAffinity>
-9.15816

> <CNNscore>
0.3442102969

> <CNNaffinity>
6.5523209572

> <CNN_VS>
2.2553763390

> <CNNaffinity_variance>
0.2120123208

$$$$
[H]c1nc([H])c([H])c(-c2c([H])c([H])c3nc([H])n(-c4sc(C(=O)N([H])[H])c(O[C@@]([H])(c5c([H])c([H])c([H])c([H])c5Cl)C([H])([H])[H])c4[H])c3c2[H])c1[H]


 35 39  0  0  0  0  0  0  0  0999 V2000
   52.4907   -6.5870   -3.2538 C   0  0  0  0  0  0  0  0  0  0  0  0
   52.4631   -5.8583   -4.3763 C   0  0  0  0  0  0  0  0  0  0  0  0
   51.3330   -5.1495   -4.6580 C   0  0  0  0  0  0  0  0  0  0  0  0
   50.3182   -5.5134   -3.3420 S   0  0  0  0  0  0  0  0  0  0  0  0
   51.3522   -6.5539   -2.4699 C   0  0  0  0  0  0  0  0  0  0  0  0
   50.9998   -4.2971   -5.7500 N   0  0  0  0  0  0  0  0  0  0  0  0
   49.8310   -3.6469   -5.9758 C   0  0  0  0  0  0  0  0  0  0  0  0
   49.9056   -2.9402   -7.1129 N   0  0  0  0  0  0  0  0  0  0  0  0
   51.1313   -3.1322   -7.6299 C   0  0  0  0  0  0  0  0  0  0  0  0
   51.8002   -2.6895   -8.7546 C   0  0  0  0  0  0  0  0  0  0  0  0
   53.0966   -3.0667   -9.0334 C   0  0  0  0  0  0  0  0  0  0  0  0
   53.7933   -3.9119   -8.1946 C   0  0  0  0  0  0  0  0  0  0  0  0
   53.1111   -4.3545   -7.0612 C   0  0  0  0  0  0  0  0  0  0  0  0
   51.8147   -3.9776   -6.7820 C   0  0  0  0  0  0  0  0  0  0  0  0
   55.1560   -4.3278   -8.4583 C   0  0  0  0  0  0  0  0  0  0  0  0
   56.0123   -4.7158   -7.4599 C   0  0  0  0  0  0  0  0  0  0  0  0
   57.3172   -5.1040   -7.7935 C   0  0  0  0  0  0  0  0  0  0  0  0
   57.7473   -5.1041   -9.0704 N   0  0  0  0  0  0  0  0  0  0  0  0
   56.9208   -4.7267  -10.0601 C   0  0  0  0  0  0  0  0  0  0  0  0
   55.6226   -4.3379   -9.7529 C   0  0  0  0  0  0  0  0  0  0  0  0
   51.1000   -7.2551   -1.1855 C   0  0  0  0  0  0  0  0  0  0  0  0
   51.9420   -7.1206   -0.0821 N   0  0  0  0  0  0  0  0  0  0  0  0
   50.0760   -7.9816   -1.1523 O   0  0  0  0  0  0  0  0  0  0  0  0
   52.9613   -7.2790   -0.1814 H   0  0  0  0  0  0  0  0  0  0  0  0
   51.5710   -6.8625    0.8506 H   0  0  0  0  0  0  0  0  0  0  0  0
   53.5699   -7.3859   -2.7932 O   0  0  0  0  0  0  0  0  0  0  0  0
   54.5859   -5.4535   -1.7571 C   0  0  0  0  0  0  0  0  0  0  0  0
   54.6492   -6.9487   -2.0497 C   0  0  0  0  0  0  0  0  0  0  0  0
   55.9710   -7.2013   -2.6596 C   0  0  0  0  0  0  0  0  0  0  0  0
   56.2896   -6.7553   -3.9260 C   0  0  0  0  0  0  0  0  0  0  0  0
   57.5361   -6.9850   -4.5122 C   0  0  0  0  0  0  0  0  0  0  0  0
   58.4859   -7.6754   -3.8187 C   0  0  0  0  0  0  0  0  0  0  0  0
   58.1997   -8.1256   -2.5713 C   0  0  0  0  0  0  0  0  0  0  0  0
   56.9603   -7.8913   -2.0017 C   0  0  0  0  0  0  0  0  0  0  0  0
   56.7125   -8.5226   -0.3928 Cl  0  0  0  0  0  0  0  0  0  0  0  0
 27 28  1  0  0  0
 28 26  1  0  0  0
 26  1  1  0  0  0
  1  2  1  0  0  0
  2  3  2  0  0  0
  3  4  1  0  0  0
  4  5  1  0  0  0
  5 21  1  0  0  0
 21 22  1  0  0  0
 21 23  2  0  0  0
  3  6  1  0  0  0
  6  7  1  0  0  0
  7  8  2  0  0  0
  8  9  1  0  0  0
  9 10  2  0  0  0
 10 11  1  0  0  0
 11 12  2  0  0  0
 12 13  1  0  0  0
 13 14  2  0  0  0
 12 15  1  0  0  0
 15 16  2  0  0  0
 16 17  1  0  0  0
 17 18  2  0  0  0
 18 19  1  0  0  0
 19 20  2  0  0  0
 28 29  1  0  0  0
 29 30  2  0  0  0
 30 31  1  0  0  0
 31 32  2  0  0  0
 32 33  1  0  0  0
 33 34  2  0  0  0
 34 35  1  0  0  0
  5  1  2  0  0  0
 14  6  1  0  0  0
 20 15  1  0  0  0
 34 29  1  0  0  0
 14  9  1  0  0  0
 22 24  1  0  0  0
 22 25  1  0  0  0
M  END
> <minimizedAffinity>
-9.88890

> <CNNscore>
0.3427728117

> <CNNaffinity>
7.5421953201

> <CNN_VS>
2.5852594376

> <CNNaffinity_variance>
0.0901059061

$$$$
[H]c1nc([H])c([H])c(-c2c([H])c([H])c3nc([H])n(-c4sc(C(=O)N([H])[H])c(O[C@@]([H])(c5c([H])c([H])c([H])c([H])c5Cl)C([H])([H])[H])c4[H])c3c2[H])c1[H]


 35 39  0  0  0  0  0  0  0  0999 V2000
   54.9397   -3.7788   -7.7834 C   0  0  0  0  0  0  0  0  0  0  0  0
   53.8311   -3.6718   -7.0409 C   0  0  0  0  0  0  0  0  0  0  0  0
   52.6237   -3.7351   -7.6711 C   0  0  0  0  0  0  0  0  0  0  0  0
   53.0571   -3.9446   -9.3027 S   0  0  0  0  0  0  0  0  0  0  0  0
   54.7562   -3.9464   -9.1435 C   0  0  0  0  0  0  0  0  0  0  0  0
   51.2917   -3.6555   -7.1715 N   0  0  0  0  0  0  0  0  0  0  0  0
   50.2005   -3.1300   -7.7821 C   0  0  0  0  0  0  0  0  0  0  0  0
   49.1256   -3.2427   -6.9884 N   0  0  0  0  0  0  0  0  0  0  0  0
   49.5208   -3.8456   -5.8540 C   0  0  0  0  0  0  0  0  0  0  0  0
   48.8989   -4.2325   -4.6827 C   0  0  0  0  0  0  0  0  0  0  0  0
   49.5832   -4.8517   -3.6584 C   0  0  0  0  0  0  0  0  0  0  0  0
   50.9336   -5.1165   -3.7560 C   0  0  0  0  0  0  0  0  0  0  0  0
   51.5542   -4.7229   -4.9416 C   0  0  0  0  0  0  0  0  0  0  0  0
   50.8704   -4.1036   -5.9661 C   0  0  0  0  0  0  0  0  0  0  0  0
   51.6823   -5.7651   -2.6986 C   0  0  0  0  0  0  0  0  0  0  0  0
   52.5086   -5.0721   -1.8514 C   0  0  0  0  0  0  0  0  0  0  0  0
   53.2014   -5.7701   -0.8525 C   0  0  0  0  0  0  0  0  0  0  0  0
   53.0735   -7.1035   -0.7071 N   0  0  0  0  0  0  0  0  0  0  0  0
   52.2680   -7.7969   -1.5289 C   0  0  0  0  0  0  0  0  0  0  0  0
   51.5712   -7.1260   -2.5265 C   0  0  0  0  0  0  0  0  0  0  0  0
   55.7902   -4.0914  -10.1994 C   0  0  0  0  0  0  0  0  0  0  0  0
   55.4662   -4.2763  -11.5431 N   0  0  0  0  0  0  0  0  0  0  0  0
   56.9821   -4.0373   -9.8070 O   0  0  0  0  0  0  0  0  0  0  0  0
   54.8105   -5.0284  -11.8228 H   0  0  0  0  0  0  0  0  0  0  0  0
   55.8698   -3.6726  -12.2826 H   0  0  0  0  0  0  0  0  0  0  0  0
   56.2779   -3.7372   -7.3117 O   0  0  0  0  0  0  0  0  0  0  0  0
   57.7074   -5.6424   -7.7204 C   0  0  0  0  0  0  0  0  0  0  0  0
   56.9636   -4.7752   -6.7105 C   0  0  0  0  0  0  0  0  0  0  0  0
   56.1295   -5.6909   -5.9050 C   0  0  0  0  0  0  0  0  0  0  0  0
   55.5690   -6.8323   -6.4412 C   0  0  0  0  0  0  0  0  0  0  0  0
   54.7815   -7.7070   -5.6897 C   0  0  0  0  0  0  0  0  0  0  0  0
   54.5482   -7.4365   -4.3736 C   0  0  0  0  0  0  0  0  0  0  0  0
   55.0870   -6.3210   -3.8205 C   0  0  0  0  0  0  0  0  0  0  0  0
   55.8657   -5.4620   -4.5763 C   0  0  0  0  0  0  0  0  0  0  0  0
   56.5006   -4.0600   -3.7519 Cl  0  0  0  0  0  0  0  0  0  0  0  0
 27 28  1  0  0  0
 28 26  1  0  0  0
 26  1  1  0  0  0
  1  2  1  0  0  0
  2  3  2  0  0  0
  3  4  1  0  0  0
  4  5  1  0  0  0
  5 21  1  0  0  0
 21 22  1  0  0  0
 21 23  2  0  0  0
  3  6  1  0  0  0
  6  7  1  0  0  0
  7  8  2  0  0  0
  8  9  1  0  0  0
  9 10  2  0  0  0
 10 11  1  0  0  0
 11 12  2  0  0  0
 12 13  1  0  0  0
 13 14  2  0  0  0
 12 15  1  0  0  0
 15 16  2  0  0  0
 16 17  1  0  0  0
 17 18  2  0  0  0
 18 19  1  0  0  0
 19 20  2  0  0  0
 28 29  1  0  0  0
 29 30  2  0  0  0
 30 31  1  0  0  0
 31 32  2  0  0  0
 32 33  1  0  0  0
 33 34  2  0  0  0
 34 35  1  0  0  0
  5  1  2  0  0  0
 14  6  1  0  0  0
 20 15  1  0  0  0
 34 29  1  0  0  0
 14  9  1  0  0  0
 22 24  1  0  0  0
 22 25  1  0  0  0
M  END
> <minimizedAffinity>
-6.64894

> <CNNscore>
0.3105160296

> <CNNaffinity>
7.5886182785

> <CNN_VS>
2.3563876152

> <CNNaffinity_variance>
0.1950699389

$$$$
[H]c1c([H])c([H])c([C@@]([H])(N([H])c2nc([H])c3onc(-c4c([H])c([H])c5c(c4[H])OC([H])([H])O5)c3c2[H])C([H])([H])[H])c([H])c1[H]


 28 32  0  0  0  0  0  0  0  0999 V2000
   51.5299   -4.9538   -6.1336 C   0  0  0  0  0  0  0  0  0  0  0  0
   52.7368   -4.7751   -6.8190 C   0  0  0  0  0  0  0  0  0  0  0  0
   52.8218   -3.8155   -7.7802 C   0  0  0  0  0  0  0  0  0  0  0  0
   53.8506   -3.4007   -8.6176 C   0  0  0  0  0  0  0  0  0  0  0  0
   53.3172   -2.4055   -9.3505 N   0  0  0  0  0  0  0  0  0  0  0  0
   52.0779   -2.2129   -9.0093 O   0  0  0  0  0  0  0  0  0  0  0  0
   51.7085   -3.0208   -8.0730 C   0  0  0  0  0  0  0  0  0  0  0  0
   50.5308   -3.2136   -7.3864 C   0  0  0  0  0  0  0  0  0  0  0  0
   50.4998   -4.1713   -6.4499 N   0  0  0  0  0  0  0  0  0  0  0  0
   55.1958   -3.9591   -8.6540 C   0  0  0  0  0  0  0  0  0  0  0  0
   55.8557   -4.2471   -7.4599 C   0  0  0  0  0  0  0  0  0  0  0  0
   57.1235   -4.7766   -7.4390 C   0  0  0  0  0  0  0  0  0  0  0  0
   57.7852   -5.0402   -8.6304 C   0  0  0  0  0  0  0  0  0  0  0  0
   59.0421   -5.5621   -8.8856 O   0  0  0  0  0  0  0  0  0  0  0  0
   59.1911   -5.7683  -10.2782 C   0  0  0  0  0  0  0  0  0  0  0  0
   58.0636   -5.1335  -10.8094 O   0  0  0  0  0  0  0  0  0  0  0  0
   57.1684   -4.7703   -9.8121 C   0  0  0  0  0  0  0  0  0  0  0  0
   55.8860   -4.2352   -9.8085 C   0  0  0  0  0  0  0  0  0  0  0  0
   51.5167   -5.9544   -5.1144 N   0  0  0  0  0  0  0  0  0  0  0  0
   50.9408   -6.8405   -5.2473 H   0  0  0  0  0  0  0  0  0  0  0  0
   51.6890   -6.6501   -2.7494 C   0  0  0  0  0  0  0  0  0  0  0  0
   52.2360   -5.8605   -3.8892 C   0  0  0  0  0  0  0  0  0  0  0  0
   53.6797   -6.1178   -4.0584 C   0  0  0  0  0  0  0  0  0  0  0  0
   54.2163   -7.1206   -4.8074 C   0  0  0  0  0  0  0  0  0  0  0  0
   55.5855   -7.2960   -4.8961 C   0  0  0  0  0  0  0  0  0  0  0  0
   56.4302   -6.4659   -4.2337 C   0  0  0  0  0  0  0  0  0  0  0  0
   55.9504   -5.4451   -3.4696 C   0  0  0  0  0  0  0  0  0  0  0  0
   54.5948   -5.2803   -3.3883 C   0  0  0  0  0  0  0  0  0  0  0  0
 21 22  1  0  0  0
 22 19  1  0  0  0
 19  1  1  0  0  0
  1  2  2  0  0  0
  2  3  1  0  0  0
  3  4  1  0  0  0
  4  5  2  0  0  0
  5  6  1  0  0  0
  6  7  1  0  0  0
  7  8  1  0  0  0
  8  9  2  0  0  0
  4 10  1  0  0  0
 10 11  2  0  0  0
 11 12  1  0  0  0
 12 13  2  0  0  0
 13 14  1  0  0  0
 14 15  1  0  0  0
 15 16  1  0  0  0
 16 17  1  0  0  0
 17 18  2  0  0  0
 22 23  1  0  0  0
 23 24  2  0  0  0
 24 25  1  0  0  0
 25 26  2  0  0  0
 26 27  1  0  0  0
 27 28  2  0  0  0
  9  1  1  0  0  0
 18 10  1  0  0  0
 28 23  1  0  0  0
  7  3  2  0  0  0
 17 13  1  0  0  0
 19 20  1  0  0  0
M  END
> <minimizedAffinity>
-10.06666

> <CNNscore>
0.8600543737

> <CNNaffinity>
7.3000617027

> <CNN_VS>
6.2784500122

> <CNNaffinity_variance>
0.3520287275

$$$$
[H]c1c([H])c([H])c([C@@]([H])(N([H])c2nc([H])c3onc(-c4c([H])c([H])c5c(c4[H])OC([H])([H])O5)c3c2[H])C([H])([H])[H])c([H])c1[H]


 28 32  0  0  0  0  0  0  0  0999 V2000
   55.7010   -5.2493   -7.5465 C   0  0  0  0  0  0  0  0  0  0  0  0
   54.4104   -4.7653   -7.3050 C   0  0  0  0  0  0  0  0  0  0  0  0
   53.7839   -4.0302   -8.2637 C   0  0  0  0  0  0  0  0  0  0  0  0
   52.5353   -3.4232   -8.3283 C   0  0  0  0  0  0  0  0  0  0  0  0
   52.4981   -2.8417   -9.5418 N   0  0  0  0  0  0  0  0  0  0  0  0
   53.6107   -3.0604  -10.1773 O   0  0  0  0  0  0  0  0  0  0  0  0
   54.4318   -3.7665   -9.4751 C   0  0  0  0  0  0  0  0  0  0  0  0
   55.7016   -4.2525   -9.6918 C   0  0  0  0  0  0  0  0  0  0  0  0
   56.2738   -4.9704   -8.7159 N   0  0  0  0  0  0  0  0  0  0  0  0
   51.5247   -3.4417   -7.2790 C   0  0  0  0  0  0  0  0  0  0  0  0
   50.5014   -2.4946   -7.2901 C   0  0  0  0  0  0  0  0  0  0  0  0
   49.5228   -2.4701   -6.3257 C   0  0  0  0  0  0  0  0  0  0  0  0
   49.5344   -3.4066   -5.3012 C   0  0  0  0  0  0  0  0  0  0  0  0
   48.6843   -3.6000   -4.2255 O   0  0  0  0  0  0  0  0  0  0  0  0
   49.0492   -4.7871   -3.5460 C   0  0  0  0  0  0  0  0  0  0  0  0
   50.2681   -5.1254   -4.1428 O   0  0  0  0  0  0  0  0  0  0  0  0
   50.5194   -4.3436   -5.2625 C   0  0  0  0  0  0  0  0  0  0  0  0
   51.4983   -4.3490   -6.2487 C   0  0  0  0  0  0  0  0  0  0  0  0
   56.2892   -6.0415   -6.5137 N   0  0  0  0  0  0  0  0  0  0  0  0
   57.2813   -6.4119   -6.6282 H   0  0  0  0  0  0  0  0  0  0  0  0
   55.0473   -7.7601   -5.2446 C   0  0  0  0  0  0  0  0  0  0  0  0
   55.6334   -6.3908   -5.2991 C   0  0  0  0  0  0  0  0  0  0  0  0
   56.4681   -6.1315   -4.1095 C   0  0  0  0  0  0  0  0  0  0  0  0
   57.5290   -6.8885   -3.7143 C   0  0  0  0  0  0  0  0  0  0  0  0
   58.2463   -6.5781   -2.5731 C   0  0  0  0  0  0  0  0  0  0  0  0
   57.9060   -5.5040   -1.8169 C   0  0  0  0  0  0  0  0  0  0  0  0
   56.8543   -4.7103   -2.1637 C   0  0  0  0  0  0  0  0  0  0  0  0
   56.1513   -5.0260   -3.2939 C   0  0  0  0  0  0  0  0  0  0  0  0
 21 22  1  0  0  0
 22 19  1  0  0  0
 19  1  1  0  0  0
  1  2  2  0  0  0
  2  3  1  0  0  0
  3  4  1  0  0  0
  4  5  2  0  0  0
  5  6  1  0  0  0
  6  7  1  0  0  0
  7  8  1  0  0  0
  8  9  2  0  0  0
  4 10  1  0  0  0
 10 11  2  0  0  0
 11 12  1  0  0  0
 12 13  2  0  0  0
 13 14  1  0  0  0
 14 15  1  0  0  0
 15 16  1  0  0  0
 16 17  1  0  0  0
 17 18  2  0  0  0
 22 23  1  0  0  0
 23 24  2  0  0  0
 24 25  1  0  0  0
 25 26  2  0  0  0
 26 27  1  0  0  0
 27 28  2  0  0  0
  9  1  1  0  0  0
 18 10  1  0  0  0
 28 23  1  0  0  0
  7  3  2  0  0  0
 17 13  1  0  0  0
 19 20  1  0  0  0
M  END
> <minimizedAffinity>
-10.72661

> <CNNscore>
0.8347309232

> <CNNaffinity>
7.2611541748

> <CNN_VS>
6.0611100197

> <CNNaffinity_variance>
0.4140749872

$$$$
[H]c1c([H])c([H])c([C@@]([H])(N([H])c2nc([H])c3onc(-c4c([H])c([H])c5c(c4[H])OC([H])([H])O5)c3c2[H])C([H])([H])[H])c([H])c1[H]


 28 32  0  0  0  0  0  0  0  0999 V2000
   51.3639   -4.9978   -5.8046 C   0  0  0  0  0  0  0  0  0  0  0  0
   52.4091   -4.7492   -6.7014 C   0  0  0  0  0  0  0  0  0  0  0  0
   52.3175   -3.6940   -7.5559 C   0  0  0  0  0  0  0  0  0  0  0  0
   53.1626   -3.1945   -8.5397 C   0  0  0  0  0  0  0  0  0  0  0  0
   52.5132   -2.1273   -9.0412 N   0  0  0  0  0  0  0  0  0  0  0  0
   51.3745   -1.9704   -8.4346 O   0  0  0  0  0  0  0  0  0  0  0  0
   51.1860   -2.8719   -7.5304 C   0  0  0  0  0  0  0  0  0  0  0  0
   50.1694   -3.1347   -6.6399 C   0  0  0  0  0  0  0  0  0  0  0  0
   50.3088   -4.1855   -5.8204 N   0  0  0  0  0  0  0  0  0  0  0  0
   54.4590   -3.7472   -8.9090 C   0  0  0  0  0  0  0  0  0  0  0  0
   54.7984   -3.8697  -10.2558 C   0  0  0  0  0  0  0  0  0  0  0  0
   56.0087   -4.3821  -10.6571 C   0  0  0  0  0  0  0  0  0  0  0  0
   56.9354   -4.7959   -9.7102 C   0  0  0  0  0  0  0  0  0  0  0  0
   58.2029   -5.3375   -9.8427 O   0  0  0  0  0  0  0  0  0  0  0  0
   58.7990   -5.4557   -8.5641 C   0  0  0  0  0  0  0  0  0  0  0  0
   57.7373   -5.1744   -7.6982 O   0  0  0  0  0  0  0  0  0  0  0  0
   56.6343   -4.6894   -8.3883 C   0  0  0  0  0  0  0  0  0  0  0  0
   55.4042   -4.1680   -8.0061 C   0  0  0  0  0  0  0  0  0  0  0  0
   51.5368   -6.1000   -4.9127 N   0  0  0  0  0  0  0  0  0  0  0  0
   51.0720   -7.0343   -5.1264 H   0  0  0  0  0  0  0  0  0  0  0  0
   51.9072   -7.0039   -2.6428 C   0  0  0  0  0  0  0  0  0  0  0  0
   52.3070   -6.0501   -3.7162 C   0  0  0  0  0  0  0  0  0  0  0  0
   53.7585   -6.1301   -3.9727 C   0  0  0  0  0  0  0  0  0  0  0  0
   54.7053   -5.3533   -3.3770 C   0  0  0  0  0  0  0  0  0  0  0  0
   56.0455   -5.4879   -3.6915 C   0  0  0  0  0  0  0  0  0  0  0  0
   56.4490   -6.4043   -4.6074 C   0  0  0  0  0  0  0  0  0  0  0  0
   55.5465   -7.2091   -5.2350 C   0  0  0  0  0  0  0  0  0  0  0  0
   54.2236   -7.0679   -4.9170 C   0  0  0  0  0  0  0  0  0  0  0  0
 21 22  1  0  0  0
 22 19  1  0  0  0
 19  1  1  0  0  0
  1  2  2  0  0  0
  2  3  1  0  0  0
  3  4  1  0  0  0
  4  5  2  0  0  0
  5  6  1  0  0  0
  6  7  1  0  0  0
  7  8  1  0  0  0
  8  9  2  0  0  0
  4 10  1  0  0  0
 10 11  2  0  0  0
 11 12  1  0  0  0
 12 13  2  0  0  0
 13 14  1  0  0  0
 14 15  1  0  0  0
 15 16  1  0  0  0
 16 17  1  0  0  0
 17 18  2  0  0  0
 22 23  1  0  0  0
 23 24  2  0  0  0
 24 25  1  0  0  0
 25 26  2  0  0  0
 26 27  1  0  0  0
 27 28  2  0  0  0
  9  1  1  0  0  0
 18 10  1  0  0  0
 28 23  1  0  0  0
  7  3  2  0  0  0
 17 13  1  0  0  0
 19 20  1  0  0  0
M  END
> <minimizedAffinity>
-10.37799

> <CNNscore>
0.8335198164

> <CNNaffinity>
7.3535394669

> <CNN_VS>
6.1293210983

> <CNNaffinity_variance>
0.4074062407

$$$$
[H]c1c([H])c([H])c([C@@]([H])(N([H])c2nc([H])c3onc(-c4c([H])c([H])c5c(c4[H])OC([H])([H])O5)c3c2[H])C([H])([H])[H])c([H])c1[H]


 28 32  0  0  0  0  0  0  0  0999 V2000
   53.9834   -3.2180   -9.0853 C   0  0  0  0  0  0  0  0  0  0  0  0
   53.9598   -4.0800   -7.9832 C   0  0  0  0  0  0  0  0  0  0  0  0
   52.8082   -4.2217   -7.2721 C   0  0  0  0  0  0  0  0  0  0  0  0
   52.4693   -4.9788   -6.1570 C   0  0  0  0  0  0  0  0  0  0  0  0
   51.1752   -4.6894   -5.9254 N   0  0  0  0  0  0  0  0  0  0  0  0
   50.7427   -3.8365   -6.8056 O   0  0  0  0  0  0  0  0  0  0  0  0
   51.6647   -3.5084   -7.6471 C   0  0  0  0  0  0  0  0  0  0  0  0
   51.7101   -2.6657   -8.7349 C   0  0  0  0  0  0  0  0  0  0  0  0
   52.8682   -2.5622   -9.4007 N   0  0  0  0  0  0  0  0  0  0  0  0
   53.3620   -5.8739   -5.4329 C   0  0  0  0  0  0  0  0  0  0  0  0
   54.1986   -6.7356   -6.1414 C   0  0  0  0  0  0  0  0  0  0  0  0
   55.0604   -7.5974   -5.5069 C   0  0  0  0  0  0  0  0  0  0  0  0
   55.1159   -7.6275   -4.1203 C   0  0  0  0  0  0  0  0  0  0  0  0
   55.8798   -8.3857   -3.2490 O   0  0  0  0  0  0  0  0  0  0  0  0
   55.6664   -7.9356   -1.9239 C   0  0  0  0  0  0  0  0  0  0  0  0
   54.5892   -7.0545   -2.0639 O   0  0  0  0  0  0  0  0  0  0  0  0
   54.3126   -6.7993   -3.4005 C   0  0  0  0  0  0  0  0  0  0  0  0
   53.4490   -5.9361   -4.0639 C   0  0  0  0  0  0  0  0  0  0  0  0
   55.2127   -3.1399   -9.8085 N   0  0  0  0  0  0  0  0  0  0  0  0
   55.7594   -2.2260   -9.8297 H   0  0  0  0  0  0  0  0  0  0  0  0
   56.0220   -3.9874  -11.9842 C   0  0  0  0  0  0  0  0  0  0  0  0
   55.7882   -4.2234  -10.5311 C   0  0  0  0  0  0  0  0  0  0  0  0
   57.0051   -4.7530   -9.8849 C   0  0  0  0  0  0  0  0  0  0  0  0
   57.1648   -4.9406   -8.5455 C   0  0  0  0  0  0  0  0  0  0  0  0
   58.3501   -5.4289   -8.0259 C   0  0  0  0  0  0  0  0  0  0  0  0
   59.3872   -5.7343   -8.8459 C   0  0  0  0  0  0  0  0  0  0  0  0
   59.2846   -5.5674  -10.1941 C   0  0  0  0  0  0  0  0  0  0  0  0
   58.1084   -5.0837  -10.6980 C   0  0  0  0  0  0  0  0  0  0  0  0
 21 22  1  0  0  0
 22 19  1  0  0  0
 19  1  1  0  0  0
  1  2  2  0  0  0
  2  3  1  0  0  0
  3  4  1  0  0  0
  4  5  2  0  0  0
  5  6  1  0  0  0
  6  7  1  0  0  0
  7  8  1  0  0  0
  8  9  2  0  0  0
  4 10  1  0  0  0
 10 11  2  0  0  0
 11 12  1  0  0  0
 12 13  2  0  0  0
 13 14  1  0  0  0
 14 15  1  0  0  0
 15 16  1  0  0  0
 16 17  1  0  0  0
 17 18  2  0  0  0
 22 23  1  0  0  0
 23 24  2  0  0  0
 24 25  1  0  0  0
 25 26  2  0  0  0
 26 27  1  0  0  0
 27 28  2  0  0  0
  9  1  1  0  0  0
 18 10  1  0  0  0
 28 23  1  0  0  0
  7  3  2  0  0  0
 17 13  1  0  0  0
 19 20  1  0  0  0
M  END
> <minimizedAffinity>
-9.89901

> <CNNscore>
0.7987715602

> <CNNaffinity>
6.9855184555

> <CNN_VS>
5.5798335075

> <CNNaffinity_variance>
0.0890369043

$$$$
[H]c1c([H])c([H])c([C@@]([H])(N([H])c2nc([H])c3onc(-c4c([H])c([H])c5c(c4[H])OC([H])([H])O5)c3c2[H])C([H])([H])[H])c([H])c1[H]


 28 32  0  0  0  0  0  0  0  0999 V2000
   52.8300   -7.1083   -2.8850 C   0  0  0  0  0  0  0  0  0  0  0  0
   52.3700   -6.2195   -3.8632 C   0  0  0  0  0  0  0  0  0  0  0  0
   51.1493   -5.6368   -3.7133 C   0  0  0  0  0  0  0  0  0  0  0  0
   50.4277   -4.7351   -4.4865 C   0  0  0  0  0  0  0  0  0  0  0  0
   49.2831   -4.5379   -3.8061 N   0  0  0  0  0  0  0  0  0  0  0  0
   49.2836   -5.2439   -2.7148 O   0  0  0  0  0  0  0  0  0  0  0  0
   50.3698   -5.9296   -2.5893 C   0  0  0  0  0  0  0  0  0  0  0  0
   50.8419   -6.8069   -1.6390 C   0  0  0  0  0  0  0  0  0  0  0  0
   52.0496   -7.3533   -1.8341 N   0  0  0  0  0  0  0  0  0  0  0  0
   50.8630   -4.1610   -5.7528 C   0  0  0  0  0  0  0  0  0  0  0  0
   50.1907   -3.0577   -6.2773 C   0  0  0  0  0  0  0  0  0  0  0  0
   50.5623   -2.4774   -7.4662 C   0  0  0  0  0  0  0  0  0  0  0  0
   51.6359   -2.9885   -8.1823 C   0  0  0  0  0  0  0  0  0  0  0  0
   52.2061   -2.6001   -9.3828 O   0  0  0  0  0  0  0  0  0  0  0  0
   53.3774   -3.3607   -9.6143 C   0  0  0  0  0  0  0  0  0  0  0  0
   53.3151   -4.3396   -8.6172 O   0  0  0  0  0  0  0  0  0  0  0  0
   52.3122   -4.0641   -7.6972 C   0  0  0  0  0  0  0  0  0  0  0  0
   51.9184   -4.6343   -6.4928 C   0  0  0  0  0  0  0  0  0  0  0  0
   54.1324   -7.6596   -3.0853 N   0  0  0  0  0  0  0  0  0  0  0  0
   54.2425   -8.6963   -3.3039 H   0  0  0  0  0  0  0  0  0  0  0  0
   56.5536   -7.6659   -2.5907 C   0  0  0  0  0  0  0  0  0  0  0  0
   55.3405   -6.9096   -3.0127 C   0  0  0  0  0  0  0  0  0  0  0  0
   55.6056   -6.1415   -4.2451 C   0  0  0  0  0  0  0  0  0  0  0  0
   55.8495   -4.8027   -4.2990 C   0  0  0  0  0  0  0  0  0  0  0  0
   56.0728   -4.1622   -5.5045 C   0  0  0  0  0  0  0  0  0  0  0  0
   56.0541   -4.8594   -6.6684 C   0  0  0  0  0  0  0  0  0  0  0  0
   55.8157   -6.2008   -6.6756 C   0  0  0  0  0  0  0  0  0  0  0  0
   55.5958   -6.8248   -5.4783 C   0  0  0  0  0  0  0  0  0  0  0  0
 21 22  1  0  0  0
 22 19  1  0  0  0
 19  1  1  0  0  0
  1  2  2  0  0  0
  2  3  1  0  0  0
  3  4  1  0  0  0
  4  5  2  0  0  0
  5  6  1  0  0  0
  6  7  1  0  0  0
  7  8  1  0  0  0
  8  9  2  0  0  0
  4 10  1  0  0  0
 10 11  2  0  0  0
 11 12  1  0  0  0
 12 13  2  0  0  0
 13 14  1  0  0  0
 14 15  1  0  0  0
 15 16  1  0  0  0
 16 17  1  0  0  0
 17 18  2  0  0  0
 22 23  1  0  0  0
 23 24  2  0  0  0
 24 25  1  0  0  0
 25 26  2  0  0  0
 26 27  1  0  0  0
 27 28  2  0  0  0
  9  1  1  0  0  0
 18 10  1  0  0  0
 28 23  1  0  0  0
  7  3  2  0  0  0
 17 13  1  0  0  0
 19 20  1  0  0  0
M  END
> <minimizedAffinity>
-9.62429

> <CNNscore>
0.7346225977

> <CNNaffinity>
7.0603075027

> <CNN_VS>
5.1866612434

> <CNNaffinity_variance>
0.2203450203

$$$$
[H]c1c([H])c([H])c([C@@]([H])(N([H])c2nc([H])c3onc(-c4c([H])c([H])c5c(c4[H])OC([H])([H])O5)c3c2[H])C([H])([H])[H])c([H])c1[H]


 28 32  0  0  0  0  0  0  0  0999 V2000
   51.1932   -4.7680   -6.1303 C   0  0  0  0  0  0  0  0  0  0  0  0
   52.4418   -4.6159   -6.7437 C   0  0  0  0  0  0  0  0  0  0  0  0
   52.5878   -3.7008   -7.7403 C   0  0  0  0  0  0  0  0  0  0  0  0
   53.6682   -3.3205   -8.5276 C   0  0  0  0  0  0  0  0  0  0  0  0
   53.1824   -2.3619   -9.3381 N   0  0  0  0  0  0  0  0  0  0  0  0
   51.9234   -2.1588   -9.0868 O   0  0  0  0  0  0  0  0  0  0  0  0
   51.4950   -2.9247   -8.1404 C   0  0  0  0  0  0  0  0  0  0  0  0
   50.2755   -3.0907   -7.5232 C   0  0  0  0  0  0  0  0  0  0  0  0
   50.1849   -4.0049   -6.5480 N   0  0  0  0  0  0  0  0  0  0  0  0
   55.0135   -3.8746   -8.4514 C   0  0  0  0  0  0  0  0  0  0  0  0
   55.6256   -4.0313   -7.2084 C   0  0  0  0  0  0  0  0  0  0  0  0
   56.8914   -4.5509   -7.0814 C   0  0  0  0  0  0  0  0  0  0  0  0
   57.5994   -4.9375   -8.2110 C   0  0  0  0  0  0  0  0  0  0  0  0
   58.8651   -5.4789   -8.3596 O   0  0  0  0  0  0  0  0  0  0  0  0
   59.0688   -5.8318   -9.7154 C   0  0  0  0  0  0  0  0  0  0  0  0
   57.9635   -5.2613  -10.3551 O   0  0  0  0  0  0  0  0  0  0  0  0
   57.0299   -4.7973   -9.4380 C   0  0  0  0  0  0  0  0  0  0  0  0
   55.7486   -4.2695   -9.5419 C   0  0  0  0  0  0  0  0  0  0  0  0
   51.1151   -5.7212   -5.0694 N   0  0  0  0  0  0  0  0  0  0  0  0
   51.0863   -6.7625   -5.2918 H   0  0  0  0  0  0  0  0  0  0  0  0
   49.7363   -4.9749   -3.1592 C   0  0  0  0  0  0  0  0  0  0  0  0
   51.0696   -5.3810   -3.6875 C   0  0  0  0  0  0  0  0  0  0  0  0
   51.6794   -6.4153   -2.8288 C   0  0  0  0  0  0  0  0  0  0  0  0
   52.9282   -6.9341   -2.9904 C   0  0  0  0  0  0  0  0  0  0  0  0
   53.4125   -7.9150   -2.1439 C   0  0  0  0  0  0  0  0  0  0  0  0
   52.6481   -8.3848   -1.1260 C   0  0  0  0  0  0  0  0  0  0  0  0
   51.3912   -7.9027   -0.9158 C   0  0  0  0  0  0  0  0  0  0  0  0
   50.9215   -6.9331   -1.7587 C   0  0  0  0  0  0  0  0  0  0  0  0
 21 22  1  0  0  0
 22 19  1  0  0  0
 19  1  1  0  0  0
  1  2  2  0  0  0
  2  3  1  0  0  0
  3  4  1  0  0  0
  4  5  2  0  0  0
  5  6  1  0  0  0
  6  7  1  0  0  0
  7  8  1  0  0  0
  8  9  2  0  0  0
  4 10  1  0  0  0
 10 11  2  0  0  0
 11 12  1  0  0  0
 12 13  2  0  0  0
 13 14  1  0  0  0
 14 15  1  0  0  0
 15 16  1  0  0  0
 16 17  1  0  0  0
 17 18  2  0  0  0
 22 23  1  0  0  0
 23 24  2  0  0  0
 24 25  1  0  0  0
 25 26  2  0  0  0
 26 27  1  0  0  0
 27 28  2  0  0  0
  9  1  1  0  0  0
 18 10  1  0  0  0
 28 23  1  0  0  0
  7  3  2  0  0  0
 17 13  1  0  0  0
 19 20  1  0  0  0
M  END
> <minimizedAffinity>
-10.39586

> <CNNscore>
0.7165509462

> <CNNaffinity>
7.0575380325

> <CNN_VS>
5.0570855141

> <CNNaffinity_variance>
0.5202513337

$$$$
[H]c1c([H])c([H])c([C@@]([H])(N([H])c2nc([H])c3onc(-c4c([H])c([H])c5c(c4[H])OC([H])([H])O5)c3c2[H])C([H])([H])[H])c([H])c1[H]


 28 32  0  0  0  0  0  0  0  0999 V2000
   52.5342   -3.8874   -7.8842 C   0  0  0  0  0  0  0  0  0  0  0  0
   52.1897   -4.4539   -6.6518 C   0  0  0  0  0  0  0  0  0  0  0  0
   51.0647   -4.0297   -6.0142 C   0  0  0  0  0  0  0  0  0  0  0  0
   50.4660   -4.3838   -4.8111 C   0  0  0  0  0  0  0  0  0  0  0  0
   49.3697   -3.6067   -4.7308 N   0  0  0  0  0  0  0  0  0  0  0  0
   49.2864   -2.8407   -5.7775 O   0  0  0  0  0  0  0  0  0  0  0  0
   50.2673   -3.0367   -6.5931 C   0  0  0  0  0  0  0  0  0  0  0  0
   50.6249   -2.4930   -7.8063 C   0  0  0  0  0  0  0  0  0  0  0  0
   51.7416   -2.9456   -8.3923 N   0  0  0  0  0  0  0  0  0  0  0  0
   50.9619   -5.3849   -3.8759 C   0  0  0  0  0  0  0  0  0  0  0  0
   52.2447   -5.9063   -4.0397 C   0  0  0  0  0  0  0  0  0  0  0  0
   52.7607   -6.8502   -3.1847 C   0  0  0  0  0  0  0  0  0  0  0  0
   51.9994   -7.3121   -2.1199 C   0  0  0  0  0  0  0  0  0  0  0  0
   52.2744   -8.2408   -1.1303 O   0  0  0  0  0  0  0  0  0  0  0  0
   51.2167   -8.2518   -0.1895 C   0  0  0  0  0  0  0  0  0  0  0  0
   50.2410   -7.4637   -0.8086 O   0  0  0  0  0  0  0  0  0  0  0  0
   50.7442   -6.8231   -1.9331 C   0  0  0  0  0  0  0  0  0  0  0  0
   50.2435   -5.8689   -2.8105 C   0  0  0  0  0  0  0  0  0  0  0  0
   53.7078   -4.4001   -8.5166 N   0  0  0  0  0  0  0  0  0  0  0  0
   53.6200   -5.0054   -9.3886 H   0  0  0  0  0  0  0  0  0  0  0  0
   55.4159   -4.8302   -6.7832 C   0  0  0  0  0  0  0  0  0  0  0  0
   55.0348   -4.1606   -8.0592 C   0  0  0  0  0  0  0  0  0  0  0  0
   56.0479   -4.4100   -9.1035 C   0  0  0  0  0  0  0  0  0  0  0  0
   57.2760   -4.9590   -8.8912 C   0  0  0  0  0  0  0  0  0  0  0  0
   58.1696   -5.1417   -9.9311 C   0  0  0  0  0  0  0  0  0  0  0  0
   57.8391   -4.7754  -11.1952 C   0  0  0  0  0  0  0  0  0  0  0  0
   56.6244   -4.2215  -11.4672 C   0  0  0  0  0  0  0  0  0  0  0  0
   55.7480   -4.0449  -10.4319 C   0  0  0  0  0  0  0  0  0  0  0  0
 21 22  1  0  0  0
 22 19  1  0  0  0
 19  1  1  0  0  0
  1  2  2  0  0  0
  2  3  1  0  0  0
  3  4  1  0  0  0
  4  5  2  0  0  0
  5  6  1  0  0  0
  6  7  1  0  0  0
  7  8  1  0  0  0
  8  9  2  0  0  0
  4 10  1  0  0  0
 10 11  2  0  0  0
 11 12  1  0  0  0
 12 13  2  0  0  0
 13 14  1  0  0  0
 14 15  1  0  0  0
 15 16  1  0  0  0
 16 17  1  0  0  0
 17 18  2  0  0  0
 22 23  1  0  0  0
 23 24  2  0  0  0
 24 25  1  0  0  0
 25 26  2  0  0  0
 26 27  1  0  0  0
 27 28  2  0  0  0
  9  1  1  0  0  0
 18 10  1  0  0  0
 28 23  1  0  0  0
  7  3  2  0  0  0
 17 13  1  0  0  0
 19 20  1  0  0  0
M  END
> <minimizedAffinity>
-10.31439

> <CNNscore>
0.5851158500

> <CNNaffinity>
7.0133810043

> <CNN_VS>
4.1036405563

> <CNNaffinity_variance>
0.4318287969

$$$$
[H]c1c([H])c([H])c([C@@]([H])(N([H])c2nc([H])c3onc(-c4c([H])c([H])c5c(c4[H])OC([H])([H])O5)c3c2[H])C([H])([H])[H])c([H])c1[H]


 28 32  0  0  0  0  0  0  0  0999 V2000
   51.1606   -5.5044   -4.9993 C   0  0  0  0  0  0  0  0  0  0  0  0
   52.0760   -5.1252   -5.9875 C   0  0  0  0  0  0  0  0  0  0  0  0
   51.7925   -4.0598   -6.7854 C   0  0  0  0  0  0  0  0  0  0  0  0
   52.4762   -3.4488   -7.8298 C   0  0  0  0  0  0  0  0  0  0  0  0
   51.6768   -2.4382   -8.2193 N   0  0  0  0  0  0  0  0  0  0  0  0
   50.5987   -2.4151   -7.4938 O   0  0  0  0  0  0  0  0  0  0  0  0
   50.5954   -3.3573   -6.6116 C   0  0  0  0  0  0  0  0  0  0  0  0
   49.7090   -3.7474   -5.6331 C   0  0  0  0  0  0  0  0  0  0  0  0
   50.0358   -4.8025   -4.8748 N   0  0  0  0  0  0  0  0  0  0  0  0
   53.7740   -3.8567   -8.3513 C   0  0  0  0  0  0  0  0  0  0  0  0
   54.0338   -3.7482   -9.7169 C   0  0  0  0  0  0  0  0  0  0  0  0
   55.2415   -4.1167  -10.2590 C   0  0  0  0  0  0  0  0  0  0  0  0
   56.2465   -4.6141   -9.4409 C   0  0  0  0  0  0  0  0  0  0  0  0
   57.5297   -5.0495   -9.7257 O   0  0  0  0  0  0  0  0  0  0  0  0
   58.2107   -5.3272   -8.5160 C   0  0  0  0  0  0  0  0  0  0  0  0
   57.1924   -5.2492   -7.5604 O   0  0  0  0  0  0  0  0  0  0  0  0
   56.0242   -4.7322   -8.1045 C   0  0  0  0  0  0  0  0  0  0  0  0
   54.7950   -4.3531   -7.5787 C   0  0  0  0  0  0  0  0  0  0  0  0
   51.5331   -6.6093   -4.1743 N   0  0  0  0  0  0  0  0  0  0  0  0
   51.3987   -7.6051   -4.5276 H   0  0  0  0  0  0  0  0  0  0  0  0
   51.9871   -5.1353   -2.2435 C   0  0  0  0  0  0  0  0  0  0  0  0
   52.0888   -6.4842   -2.8693 C   0  0  0  0  0  0  0  0  0  0  0  0
   51.6041   -7.5276   -1.9445 C   0  0  0  0  0  0  0  0  0  0  0  0
   50.5760   -7.3803   -1.0636 C   0  0  0  0  0  0  0  0  0  0  0  0
   50.1995   -8.4111   -0.2215 C   0  0  0  0  0  0  0  0  0  0  0  0
   50.8512   -9.6008   -0.2556 C   0  0  0  0  0  0  0  0  0  0  0  0
   51.8870   -9.8057   -1.1166 C   0  0  0  0  0  0  0  0  0  0  0  0
   52.2516   -8.7800   -1.9450 C   0  0  0  0  0  0  0  0  0  0  0  0
 21 22  1  0  0  0
 22 19  1  0  0  0
 19  1  1  0  0  0
  1  2  2  0  0  0
  2  3  1  0  0  0
  3  4  1  0  0  0
  4  5  2  0  0  0
  5  6  1  0  0  0
  6  7  1  0  0  0
  7  8  1  0  0  0
  8  9  2  0  0  0
  4 10  1  0  0  0
 10 11  2  0  0  0
 11 12  1  0  0  0
 12 13  2  0  0  0
 13 14  1  0  0  0
 14 15  1  0  0  0
 15 16  1  0  0  0
 16 17  1  0  0  0
 17 18  2  0  0  0
 22 23  1  0  0  0
 23 24  2  0  0  0
 24 25  1  0  0  0
 25 26  2  0  0  0
 26 27  1  0  0  0
 27 28  2  0  0  0
  9  1  1  0  0  0
 18 10  1  0  0  0
 28 23  1  0  0  0
  7  3  2  0  0  0
 17 13  1  0  0  0
 19 20  1  0  0  0
M  END
> <minimizedAffinity>
-9.85340

> <CNNscore>
0.5037859678

> <CNNaffinity>
6.6916608810

> <CNN_VS>
3.3711647987

> <CNNaffinity_variance>
0.3451391160

$$$$
[H]c1c([H])c([H])c([C@@]([H])(N([H])c2nc([H])c3onc(-c4c([H])c([H])c5c(c4[H])OC([H])([H])O5)c3c2[H])C([H])([H])[H])c([H])c1[H]


 28 32  0  0  0  0  0  0  0  0999 V2000
   52.2106   -5.0715   -6.1067 C   0  0  0  0  0  0  0  0  0  0  0  0
   53.2350   -4.8752   -7.0396 C   0  0  0  0  0  0  0  0  0  0  0  0
   53.0921   -3.9164   -7.9947 C   0  0  0  0  0  0  0  0  0  0  0  0
   53.9057   -3.4871   -9.0365 C   0  0  0  0  0  0  0  0  0  0  0  0
   53.2089   -2.5021   -9.6334 N   0  0  0  0  0  0  0  0  0  0  0  0
   52.0716   -2.3285   -9.0287 O   0  0  0  0  0  0  0  0  0  0  0  0
   51.9291   -3.1402   -8.0354 C   0  0  0  0  0  0  0  0  0  0  0  0
   50.9336   -3.3501   -7.1078 C   0  0  0  0  0  0  0  0  0  0  0  0
   51.1238   -4.3062   -6.1886 N   0  0  0  0  0  0  0  0  0  0  0  0
   55.2190   -4.0241   -9.3675 C   0  0  0  0  0  0  0  0  0  0  0  0
   55.6065   -4.1249  -10.7031 C   0  0  0  0  0  0  0  0  0  0  0  0
   56.8344   -4.6218  -11.0686 C   0  0  0  0  0  0  0  0  0  0  0  0
   57.7309   -5.0414  -10.0954 C   0  0  0  0  0  0  0  0  0  0  0  0
   59.0068   -5.5708  -10.1906 O   0  0  0  0  0  0  0  0  0  0  0  0
   59.5587   -5.7022   -8.8936 C   0  0  0  0  0  0  0  0  0  0  0  0
   58.4649   -5.4416   -8.0619 O   0  0  0  0  0  0  0  0  0  0  0  0
   57.3827   -4.9559   -8.7836 C   0  0  0  0  0  0  0  0  0  0  0  0
   56.1355   -4.4499   -8.4378 C   0  0  0  0  0  0  0  0  0  0  0  0
   52.4370   -6.0701   -5.1107 N   0  0  0  0  0  0  0  0  0  0  0  0
   52.6816   -7.0650   -5.4020 H   0  0  0  0  0  0  0  0  0  0  0  0
   51.5749   -6.8324   -2.9239 C   0  0  0  0  0  0  0  0  0  0  0  0
   52.3583   -5.8362   -3.7084 C   0  0  0  0  0  0  0  0  0  0  0  0
   53.6827   -5.6129   -3.0959 C   0  0  0  0  0  0  0  0  0  0  0  0
   54.8527   -5.4823   -3.7805 C   0  0  0  0  0  0  0  0  0  0  0  0
   56.0528   -5.2903   -3.1200 C   0  0  0  0  0  0  0  0  0  0  0  0
   56.0904   -5.2272   -1.7650 C   0  0  0  0  0  0  0  0  0  0  0  0
   54.9513   -5.3509   -1.0278 C   0  0  0  0  0  0  0  0  0  0  0  0
   53.7698   -5.5406   -1.6906 C   0  0  0  0  0  0  0  0  0  0  0  0
 21 22  1  0  0  0
 22 19  1  0  0  0
 19  1  1  0  0  0
  1  2  2  0  0  0
  2  3  1  0  0  0
  3  4  1  0  0  0
  4  5  2  0  0  0
  5  6  1  0  0  0
  6  7  1  0  0  0
  7  8  1  0  0  0
  8  9  2  0  0  0
  4 10  1  0  0  0
 10 11  2  0  0  0
 11 12  1  0  0  0
 12 13  2  0  0  0
 13 14  1  0  0  0
 14 15  1  0  0  0
 15 16  1  0  0  0
 16 17  1  0  0  0
 17 18  2  0  0  0
 22 23  1  0  0  0
 23 24  2  0  0  0
 24 25  1  0  0  0
 25 26  2  0  0  0
 26 27  1  0  0  0
 27 28  2  0  0  0
  9  1  1  0  0  0
 18 10  1  0  0  0
 28 23  1  0  0  0
  7  3  2  0  0  0
 17 13  1  0  0  0
 19 20  1  0  0  0
M  END
> <minimizedAffinity>
-10.60322

> <CNNscore>
0.4704189003

> <CNNaffinity>
6.7652344704

> <CNN_VS>
3.1824941635

> <CNNaffinity_variance>
0.5183306932

$$$$
[H]c1c([H])c([H])c(C([H])([H])Oc2c(C(=O)N([H])[H])sc(-n3c([H])nc4c([H])c(OC([H])([H])[H])c(OC([H])([H])[H])c([H])c43)c2[H])c(C(F)(F)F)c1[H]


 35 38  0  0  0  0  0  0  0  0999 V2000
   54.5191   -4.2847   -9.0526 C   0  0  0  0  0  0  0  0  0  0  0  0
   55.1475   -4.1093  -10.2334 C   0  0  0  0  0  0  0  0  0  0  0  0
   56.4384   -4.4978  -10.3136 C   0  0  0  0  0  0  0  0  0  0  0  0
   57.0150   -5.0662   -9.1562 C   0  0  0  0  0  0  0  0  0  0  0  0
   55.7451   -5.0375   -8.0711 S   0  0  0  0  0  0  0  0  0  0  0  0
   50.4212   -3.7880   -5.8281 C   0  0  0  0  0  0  0  0  0  0  0  0
   50.4482   -2.8980   -6.8119 C   0  0  0  0  0  0  0  0  0  0  0  0
   51.5008   -2.9807   -7.7189 C   0  0  0  0  0  0  0  0  0  0  0  0
   51.7581   -2.1239   -8.7728 N   0  0  0  0  0  0  0  0  0  0  0  0
   52.8727   -2.5585   -9.3129 C   0  0  0  0  0  0  0  0  0  0  0  0
   53.3403   -3.7122   -8.5751 N   0  0  0  0  0  0  0  0  0  0  0  0
   52.4835   -3.9147   -7.6583 C   0  0  0  0  0  0  0  0  0  0  0  0
   52.4128   -4.8719   -6.6063 C   0  0  0  0  0  0  0  0  0  0  0  0
   51.3938   -4.8390   -5.6859 C   0  0  0  0  0  0  0  0  0  0  0  0
   48.5613   -2.5506   -4.9580 C   0  0  0  0  0  0  0  0  0  0  0  0
   49.4544   -3.7070   -4.7940 O   0  0  0  0  0  0  0  0  0  0  0  0
   51.1016   -5.6454   -4.7139 O   0  0  0  0  0  0  0  0  0  0  0  0
   50.8253   -6.4354   -3.7477 C   0  0  0  0  0  0  0  0  0  0  0  0
   58.4172   -5.5023   -8.9997 C   0  0  0  0  0  0  0  0  0  0  0  0
   59.0342   -6.4836   -9.8222 N   0  0  0  0  0  0  0  0  0  0  0  0
   59.1171   -4.9846   -8.0958 O   0  0  0  0  0  0  0  0  0  0  0  0
   59.4313   -6.2214  -10.7719 H   0  0  0  0  0  0  0  0  0  0  0  0
   59.1092   -7.4454   -9.4680 H   0  0  0  0  0  0  0  0  0  0  0  0
   57.2287   -4.3372  -11.3442 O   0  0  0  0  0  0  0  0  0  0  0  0
   58.3637   -3.8340  -11.9043 C   0  0  0  0  0  0  0  0  0  0  0  0
   57.9106   -3.7447  -13.3374 C   0  0  0  0  0  0  0  0  0  0  0  0
   56.5787   -3.9056  -13.6364 C   0  0  0  0  0  0  0  0  0  0  0  0
   56.1040   -3.7411  -14.9484 C   0  0  0  0  0  0  0  0  0  0  0  0
   57.0232   -3.4122  -15.9116 C   0  0  0  0  0  0  0  0  0  0  0  0
   58.3719   -3.2749  -15.5907 C   0  0  0  0  0  0  0  0  0  0  0  0
   58.8358   -3.4574  -14.2613 C   0  0  0  0  0  0  0  0  0  0  0  0
   60.2709   -3.3285  -13.9127 C   0  0  0  0  0  0  0  0  0  0  0  0
   60.4863   -2.2525  -13.0678 F   0  0  0  0  0  0  0  0  0  0  0  0
   60.5133   -4.4463  -13.0500 F   0  0  0  0  0  0  0  0  0  0  0  0
   61.1357   -3.4333  -14.9352 F   0  0  0  0  0  0  0  0  0  0  0  0
 15 16  1  0  0  0
 16  6  1  0  0  0
  6  7  2  0  0  0
  7  8  1  0  0  0
  8  9  1  0  0  0
  9 10  2  0  0  0
 10 11  1  0  0  0
 11  1  1  0  0  0
  1  2  2  0  0  0
  2  3  1  0  0  0
  3 24  1  0  0  0
 24 25  1  0  0  0
 25 26  1  0  0  0
 26 27  2  0  0  0
 27 28  1  0  0  0
 28 29  2  0  0  0
 29 30  1  0  0  0
 30 31  2  0  0  0
 31 32  1  0  0  0
 32 33  1  0  0  0
 32 34  1  0  0  0
 32 35  1  0  0  0
  3  4  2  0  0  0
  4  5  1  0  0  0
  4 19  1  0  0  0
 19 20  1  0  0  0
 19 21  2  0  0  0
 11 12  1  0  0  0
 12 13  1  0  0  0
 13 14  2  0  0  0
 14 17  1  0  0  0
 17 18  1  0  0  0
 14  6  1  0  0  0
 12  8  2  0  0  0
  5  1  1  0  0  0
 31 26  1  0  0  0
 20 22  1  0  0  0
 20 23  1  0  0  0
M  END
> <minimizedAffinity>
-8.52568

> <CNNscore>
0.7292417288

> <CNNaffinity>
7.1928787231

> <CNN_VS>
5.2453474998

> <CNNaffinity_variance>
0.1878055632

$$$$
[H]c1c([H])c([H])c(C([H])([H])Oc2c(C(=O)N([H])[H])sc(-n3c([H])nc4c([H])c(OC([H])([H])[H])c(OC([H])([H])[H])c([H])c43)c2[H])c(C(F)(F)F)c1[H]


 35 38  0  0  0  0  0  0  0  0999 V2000
   52.3869   -5.0197   -6.3970 C   0  0  0  0  0  0  0  0  0  0  0  0
   53.0054   -5.7912   -5.4792 C   0  0  0  0  0  0  0  0  0  0  0  0
   52.3563   -6.0136   -4.3160 C   0  0  0  0  0  0  0  0  0  0  0  0
   51.0794   -5.4285   -4.1666 C   0  0  0  0  0  0  0  0  0  0  0  0
   50.8701   -4.6454   -5.6274 S   0  0  0  0  0  0  0  0  0  0  0  0
   56.0532   -3.8234   -9.9415 C   0  0  0  0  0  0  0  0  0  0  0  0
   54.9092   -3.1706  -10.1030 C   0  0  0  0  0  0  0  0  0  0  0  0
   53.8937   -3.4257   -9.1859 C   0  0  0  0  0  0  0  0  0  0  0  0
   52.6112   -2.9101   -9.2023 N   0  0  0  0  0  0  0  0  0  0  0  0
   51.9977   -3.4659   -8.1837 C   0  0  0  0  0  0  0  0  0  0  0  0
   52.9104   -4.3659   -7.5122 N   0  0  0  0  0  0  0  0  0  0  0  0
   54.0106   -4.2875   -8.1440 C   0  0  0  0  0  0  0  0  0  0  0  0
   55.2589   -4.9534   -7.9822 C   0  0  0  0  0  0  0  0  0  0  0  0
   56.2962   -4.7361   -8.8559 C   0  0  0  0  0  0  0  0  0  0  0  0
   56.6666   -4.1134  -12.2409 C   0  0  0  0  0  0  0  0  0  0  0  0
   57.0987   -3.7148  -10.8932 O   0  0  0  0  0  0  0  0  0  0  0  0
   57.5177   -5.1699   -8.8478 O   0  0  0  0  0  0  0  0  0  0  0  0
   58.7271   -5.5841   -8.8444 C   0  0  0  0  0  0  0  0  0  0  0  0
   50.2232   -5.4890   -2.9649 C   0  0  0  0  0  0  0  0  0  0  0  0
   50.6068   -6.1281   -1.7548 N   0  0  0  0  0  0  0  0  0  0  0  0
   49.0913   -4.9480   -2.9977 O   0  0  0  0  0  0  0  0  0  0  0  0
   51.2199   -5.6250   -1.0481 H   0  0  0  0  0  0  0  0  0  0  0  0
   50.2587   -7.0768   -1.5679 H   0  0  0  0  0  0  0  0  0  0  0  0
   52.8265   -6.6668   -3.2842 O   0  0  0  0  0  0  0  0  0  0  0  0
   53.7059   -7.5523   -2.7382 C   0  0  0  0  0  0  0  0  0  0  0  0
   54.5295   -6.6010   -1.9114 C   0  0  0  0  0  0  0  0  0  0  0  0
   53.9294   -5.8921   -0.8983 C   0  0  0  0  0  0  0  0  0  0  0  0
   54.6803   -5.0630   -0.0484 C   0  0  0  0  0  0  0  0  0  0  0  0
   56.0318   -4.9950   -0.2716 C   0  0  0  0  0  0  0  0  0  0  0  0
   56.6167   -5.7053   -1.3176 C   0  0  0  0  0  0  0  0  0  0  0  0
   55.8401   -6.5285   -2.1750 C   0  0  0  0  0  0  0  0  0  0  0  0
   56.4508   -7.2762   -3.2999 C   0  0  0  0  0  0  0  0  0  0  0  0
   55.9884   -6.8113   -4.5199 F   0  0  0  0  0  0  0  0  0  0  0  0
   57.8135   -6.8340   -3.3024 F   0  0  0  0  0  0  0  0  0  0  0  0
   56.4773   -8.6129   -3.1715 F   0  0  0  0  0  0  0  0  0  0  0  0
 15 16  1  0  0  0
 16  6  1  0  0  0
  6  7  2  0  0  0
  7  8  1  0  0  0
  8  9  1  0  0  0
  9 10  2  0  0  0
 10 11  1  0  0  0
 11  1  1  0  0  0
  1  2  2  0  0  0
  2  3  1  0  0  0
  3 24  1  0  0  0
 24 25  1  0  0  0
 25 26  1  0  0  0
 26 27  2  0  0  0
 27 28  1  0  0  0
 28 29  2  0  0  0
 29 30  1  0  0  0
 30 31  2  0  0  0
 31 32  1  0  0  0
 32 33  1  0  0  0
 32 34  1  0  0  0
 32 35  1  0  0  0
  3  4  2  0  0  0
  4  5  1  0  0  0
  4 19  1  0  0  0
 19 20  1  0  0  0
 19 21  2  0  0  0
 11 12  1  0  0  0
 12 13  1  0  0  0
 13 14  2  0  0  0
 14 17  1  0  0  0
 17 18  1  0  0  0
 14  6  1  0  0  0
 12  8  2  0  0  0
  5  1  1  0  0  0
 31 26  1  0  0  0
 20 22  1  0  0  0
 20 23  1  0  0  0
M  END
> <minimizedAffinity>
-8.24202

> <CNNscore>
0.6730734706

> <CNNaffinity>
7.3764228821

> <CNN_VS>
4.9648747444

> <CNNaffinity_variance>
0.1360782832

$$$$
[H]c1c([H])c([H])c(C([H])([H])Oc2c(C(=O)N([H])[H])sc(-n3c([H])nc4c([H])c(OC([H])([H])[H])c(OC([H])([H])[H])c([H])c43)c2[H])c(C(F)(F)F)c1[H]


 35 38  0  0  0  0  0  0  0  0999 V2000
   55.0087   -4.5296   -9.5102 C   0  0  0  0  0  0  0  0  0  0  0  0
   54.8337   -5.0629   -8.2834 C   0  0  0  0  0  0  0  0  0  0  0  0
   53.7457   -4.6715   -7.5856 C   0  0  0  0  0  0  0  0  0  0  0  0
   52.8780   -3.7463   -8.2072 C   0  0  0  0  0  0  0  0  0  0  0  0
   53.6102   -3.5073   -9.6897 S   0  0  0  0  0  0  0  0  0  0  0  0
   60.0029   -5.5033  -10.7537 C   0  0  0  0  0  0  0  0  0  0  0  0
   59.3453   -4.7962  -11.6639 C   0  0  0  0  0  0  0  0  0  0  0  0
   58.0163   -4.4844  -11.3922 C   0  0  0  0  0  0  0  0  0  0  0  0
   57.1332   -3.8186  -12.2216 N   0  0  0  0  0  0  0  0  0  0  0  0
   55.9912   -3.8010  -11.5746 C   0  0  0  0  0  0  0  0  0  0  0  0
   56.1511   -4.4839  -10.3089 N   0  0  0  0  0  0  0  0  0  0  0  0
   57.3669   -4.8516  -10.2584 C   0  0  0  0  0  0  0  0  0  0  0  0
   58.1067   -5.5874   -9.2894 C   0  0  0  0  0  0  0  0  0  0  0  0
   59.4223   -5.9188   -9.5044 C   0  0  0  0  0  0  0  0  0  0  0  0
   61.8397   -5.5053  -12.2944 C   0  0  0  0  0  0  0  0  0  0  0  0
   61.3210   -5.9656  -10.9979 O   0  0  0  0  0  0  0  0  0  0  0  0
   60.2864   -6.5048   -8.7361 O   0  0  0  0  0  0  0  0  0  0  0  0
   61.1336   -7.0744   -7.9667 C   0  0  0  0  0  0  0  0  0  0  0  0
   51.6710   -3.1399   -7.6104 C   0  0  0  0  0  0  0  0  0  0  0  0
   51.1192   -1.9007   -8.0346 N   0  0  0  0  0  0  0  0  0  0  0  0
   51.0869   -3.7419   -6.6770 O   0  0  0  0  0  0  0  0  0  0  0  0
   50.4799   -1.8548   -8.8816 H   0  0  0  0  0  0  0  0  0  0  0  0
   51.3325   -1.0554   -7.4902 H   0  0  0  0  0  0  0  0  0  0  0  0
   53.4519   -5.0179   -6.3584 O   0  0  0  0  0  0  0  0  0  0  0  0
   52.9212   -5.9012   -5.4676 C   0  0  0  0  0  0  0  0  0  0  0  0
   53.8725   -5.6921   -4.3193 C   0  0  0  0  0  0  0  0  0  0  0  0
   55.2121   -5.5203   -4.5741 C   0  0  0  0  0  0  0  0  0  0  0  0
   56.1174   -5.2341   -3.5387 C   0  0  0  0  0  0  0  0  0  0  0  0
   55.6073   -5.1318   -2.2697 C   0  0  0  0  0  0  0  0  0  0  0  0
   54.2493   -5.3307   -2.0306 C   0  0  0  0  0  0  0  0  0  0  0  0
   53.3509   -5.6320   -3.0878 C   0  0  0  0  0  0  0  0  0  0  0  0
   51.9070   -5.8603   -2.8415 C   0  0  0  0  0  0  0  0  0  0  0  0
   51.5469   -7.1626   -3.1460 F   0  0  0  0  0  0  0  0  0  0  0  0
   51.7982   -5.8405   -1.4131 F   0  0  0  0  0  0  0  0  0  0  0  0
   51.0747   -4.9144   -3.3068 F   0  0  0  0  0  0  0  0  0  0  0  0
 15 16  1  0  0  0
 16  6  1  0  0  0
  6  7  2  0  0  0
  7  8  1  0  0  0
  8  9  1  0  0  0
  9 10  2  0  0  0
 10 11  1  0  0  0
 11  1  1  0  0  0
  1  2  2  0  0  0
  2  3  1  0  0  0
  3 24  1  0  0  0
 24 25  1  0  0  0
 25 26  1  0  0  0
 26 27  2  0  0  0
 27 28  1  0  0  0
 28 29  2  0  0  0
 29 30  1  0  0  0
 30 31  2  0  0  0
 31 32  1  0  0  0
 32 33  1  0  0  0
 32 34  1  0  0  0
 32 35  1  0  0  0
  3  4  2  0  0  0
  4  5  1  0  0  0
  4 19  1  0  0  0
 19 20  1  0  0  0
 19 21  2  0  0  0
 11 12  1  0  0  0
 12 13  1  0  0  0
 13 14  2  0  0  0
 14 17  1  0  0  0
 17 18  1  0  0  0
 14  6  1  0  0  0
 12  8  2  0  0  0
  5  1  1  0  0  0
 31 26  1  0  0  0
 20 22  1  0  0  0
 20 23  1  0  0  0
M  END
> <minimizedAffinity>
-6.97815

> <CNNscore>
0.4682224691

> <CNNaffinity>
6.9125509262

> <CNN_VS>
3.2366116047

> <CNNaffinity_variance>
0.6334668398

$$$$
[H]c1c([H])c([H])c(C([H])([H])Oc2c(C(=O)N([H])[H])sc(-n3c([H])nc4c([H])c(OC([H])([H])[H])c(OC([H])([H])[H])c([H])c43)c2[H])c(C(F)(F)F)c1[H]


 35 38  0  0  0  0  0  0  0  0999 V2000
   53.8101   -5.5401   -6.1834 C   0  0  0  0  0  0  0  0  0  0  0  0
   54.5170   -5.8228   -5.0696 C   0  0  0  0  0  0  0  0  0  0  0  0
   53.8223   -6.0446   -3.9329 C   0  0  0  0  0  0  0  0  0  0  0  0
   52.4138   -5.9736   -4.0123 C   0  0  0  0  0  0  0  0  0  0  0  0
   52.1620   -5.6303   -5.6278 S   0  0  0  0  0  0  0  0  0  0  0  0
   57.1930   -4.4687  -10.0362 C   0  0  0  0  0  0  0  0  0  0  0  0
   56.0004   -3.9076  -10.1900 C   0  0  0  0  0  0  0  0  0  0  0  0
   55.0548   -4.1349   -9.1943 C   0  0  0  0  0  0  0  0  0  0  0  0
   53.7411   -3.7046   -9.1829 N   0  0  0  0  0  0  0  0  0  0  0  0
   53.2218   -4.1955   -8.0819 C   0  0  0  0  0  0  0  0  0  0  0  0
   54.2280   -4.9668   -7.3842 N   0  0  0  0  0  0  0  0  0  0  0  0
   55.2851   -4.8819   -8.0849 C   0  0  0  0  0  0  0  0  0  0  0  0
   56.5826   -5.4495   -7.9357 C   0  0  0  0  0  0  0  0  0  0  0  0
   57.5549   -5.2540   -8.8860 C   0  0  0  0  0  0  0  0  0  0  0  0
   57.6447   -3.8076  -12.2960 C   0  0  0  0  0  0  0  0  0  0  0  0
   58.1766   -4.3884  -11.0544 O   0  0  0  0  0  0  0  0  0  0  0  0
   58.8017   -5.6078   -8.9099 O   0  0  0  0  0  0  0  0  0  0  0  0
   60.0302   -5.9613   -8.9190 C   0  0  0  0  0  0  0  0  0  0  0  0
   51.4646   -6.1206   -2.8906 C   0  0  0  0  0  0  0  0  0  0  0  0
   51.4308   -7.2507   -2.0293 N   0  0  0  0  0  0  0  0  0  0  0  0
   50.6367   -5.2034   -2.6713 O   0  0  0  0  0  0  0  0  0  0  0  0
   52.1018   -7.3262   -1.2093 H   0  0  0  0  0  0  0  0  0  0  0  0
   50.7279   -7.9802   -2.2026 H   0  0  0  0  0  0  0  0  0  0  0  0
   54.3330   -6.2547   -2.7466 O   0  0  0  0  0  0  0  0  0  0  0  0
   55.0462   -5.8284   -1.6672 C   0  0  0  0  0  0  0  0  0  0  0  0
   56.3037   -6.6306   -1.8724 C   0  0  0  0  0  0  0  0  0  0  0  0
   56.2178   -7.9933   -2.0306 C   0  0  0  0  0  0  0  0  0  0  0  0
   57.3574   -8.7648   -2.3127 C   0  0  0  0  0  0  0  0  0  0  0  0
   58.5524   -8.1011   -2.4253 C   0  0  0  0  0  0  0  0  0  0  0  0
   58.6205   -6.7220   -2.2401 C   0  0  0  0  0  0  0  0  0  0  0  0
   57.4601   -5.9598   -1.9427 C   0  0  0  0  0  0  0  0  0  0  0  0
   57.5247   -4.4944   -1.7289 C   0  0  0  0  0  0  0  0  0  0  0  0
   57.2126   -4.1649   -0.4203 F   0  0  0  0  0  0  0  0  0  0  0  0
   58.9260   -4.2029   -1.7902 F   0  0  0  0  0  0  0  0  0  0  0  0
   56.9299   -3.7371   -2.6653 F   0  0  0  0  0  0  0  0  0  0  0  0
 15 16  1  0  0  0
 16  6  1  0  0  0
  6  7  2  0  0  0
  7  8  1  0  0  0
  8  9  1  0  0  0
  9 10  2  0  0  0
 10 11  1  0  0  0
 11  1  1  0  0  0
  1  2  2  0  0  0
  2  3  1  0  0  0
  3 24  1  0  0  0
 24 25  1  0  0  0
 25 26  1  0  0  0
 26 27  2  0  0  0
 27 28  1  0  0  0
 28 29  2  0  0  0
 29 30  1  0  0  0
 30 31  2  0  0  0
 31 32  1  0  0  0
 32 33  1  0  0  0
 32 34  1  0  0  0
 32 35  1  0  0  0
  3  4  2  0  0  0
  4  5  1  0  0  0
  4 19  1  0  0  0
 19 20  1  0  0  0
 19 21  2  0  0  0
 11 12  1  0  0  0
 12 13  1  0  0  0
 13 14  2  0  0  0
 14 17  1  0  0  0
 17 18  1  0  0  0
 14  6  1  0  0  0
 12  8  2  0  0  0
  5  1  1  0  0  0
 31 26  1  0  0  0
 20 22  1  0  0  0
 20 23  1  0  0  0
M  END
> <minimizedAffinity>
-7.96807

> <CNNscore>
0.3075414002

> <CNNaffinity>
6.6760544777

> <CNN_VS>
2.0531630516

> <CNNaffinity_variance>
0.4560520053

$$$$
[H]c1c([H])c([H])c(C([H])([H])Oc2c(C(=O)N([H])[H])sc(-n3c([H])nc4c([H])c(OC([H])([H])[H])c(OC([H])([H])[H])c([H])c43)c2[H])c(C(F)(F)F)c1[H]


 35 38  0  0  0  0  0  0  0  0999 V2000
   52.8272   -4.9114   -6.6866 C   0  0  0  0  0  0  0  0  0  0  0  0
   53.4336   -5.3304   -5.5567 C   0  0  0  0  0  0  0  0  0  0  0  0
   52.6727   -5.4358   -4.4459 C   0  0  0  0  0  0  0  0  0  0  0  0
   51.3037   -5.1097   -4.5674 C   0  0  0  0  0  0  0  0  0  0  0  0
   51.1723   -4.7077   -6.1836 S   0  0  0  0  0  0  0  0  0  0  0  0
   56.5981   -4.1647  -10.2445 C   0  0  0  0  0  0  0  0  0  0  0  0
   55.4549   -3.5544  -10.5297 C   0  0  0  0  0  0  0  0  0  0  0  0
   54.4119   -3.6945   -9.6187 C   0  0  0  0  0  0  0  0  0  0  0  0
   53.1265   -3.2020   -9.7459 N   0  0  0  0  0  0  0  0  0  0  0  0
   52.4843   -3.6211   -8.6805 C   0  0  0  0  0  0  0  0  0  0  0  0
   53.3817   -4.4095   -7.8638 N   0  0  0  0  0  0  0  0  0  0  0  0
   54.5014   -4.4044   -8.4655 C   0  0  0  0  0  0  0  0  0  0  0  0
   55.7491   -5.0264   -8.1749 C   0  0  0  0  0  0  0  0  0  0  0  0
   56.8128   -4.9174   -9.0370 C   0  0  0  0  0  0  0  0  0  0  0  0
   57.2399   -4.5542  -12.5213 C   0  0  0  0  0  0  0  0  0  0  0  0
   57.6734   -4.1740  -11.1688 O   0  0  0  0  0  0  0  0  0  0  0  0
   58.0368   -5.3308   -8.9313 O   0  0  0  0  0  0  0  0  0  0  0  0
   59.2421   -5.7467   -8.8396 C   0  0  0  0  0  0  0  0  0  0  0  0
   50.3066   -5.0952   -3.4782 C   0  0  0  0  0  0  0  0  0  0  0  0
   50.3426   -5.9774   -2.3645 N   0  0  0  0  0  0  0  0  0  0  0  0
   49.3701   -4.2609   -3.5230 O   0  0  0  0  0  0  0  0  0  0  0  0
   50.9638   -5.7685   -1.5287 H   0  0  0  0  0  0  0  0  0  0  0  0
   49.7370   -6.8078   -2.3753 H   0  0  0  0  0  0  0  0  0  0  0  0
   53.0970   -5.7487   -3.2483 O   0  0  0  0  0  0  0  0  0  0  0  0
   53.5892   -5.3890   -2.0302 C   0  0  0  0  0  0  0  0  0  0  0  0
   54.9132   -6.1041   -2.0803 C   0  0  0  0  0  0  0  0  0  0  0  0
   55.9854   -5.4991   -2.6914 C   0  0  0  0  0  0  0  0  0  0  0  0
   57.2581   -6.0940   -2.6808 C   0  0  0  0  0  0  0  0  0  0  0  0
   57.3828   -7.2974   -2.0348 C   0  0  0  0  0  0  0  0  0  0  0  0
   56.2783   -7.9036   -1.4403 C   0  0  0  0  0  0  0  0  0  0  0  0
   54.9965   -7.2937   -1.4720 C   0  0  0  0  0  0  0  0  0  0  0  0
   53.8122   -7.9379   -0.8556 C   0  0  0  0  0  0  0  0  0  0  0  0
   53.0839   -8.6496   -1.7943 F   0  0  0  0  0  0  0  0  0  0  0  0
   54.3731   -8.9817   -0.0503 F   0  0  0  0  0  0  0  0  0  0  0  0
   53.0832   -7.1642   -0.0345 F   0  0  0  0  0  0  0  0  0  0  0  0
 15 16  1  0  0  0
 16  6  1  0  0  0
  6  7  2  0  0  0
  7  8  1  0  0  0
  8  9  1  0  0  0
  9 10  2  0  0  0
 10 11  1  0  0  0
 11  1  1  0  0  0
  1  2  2  0  0  0
  2  3  1  0  0  0
  3 24  1  0  0  0
 24 25  1  0  0  0
 25 26  1  0  0  0
 26 27  2  0  0  0
 27 28  1  0  0  0
 28 29  2  0  0  0
 29 30  1  0  0  0
 30 31  2  0  0  0
 31 32  1  0  0  0
 32 33  1  0  0  0
 32 34  1  0  0  0
 32 35  1  0  0  0
  3  4  2  0  0  0
  4  5  1  0  0  0
  4 19  1  0  0  0
 19 20  1  0  0  0
 19 21  2  0  0  0
 11 12  1  0  0  0
 12 13  1  0  0  0
 13 14  2  0  0  0
 14 17  1  0  0  0
 17 18  1  0  0  0
 14  6  1  0  0  0
 12  8  2  0  0  0
  5  1  1  0  0  0
 31 26  1  0  0  0
 20 22  1  0  0  0
 20 23  1  0  0  0
M  END
> <minimizedAffinity>
-7.65845

> <CNNscore>
0.3060582280

> <CNNaffinity>
7.0155172348

> <CNN_VS>
2.1471567154

> <CNNaffinity_variance>
0.3023808300

$$$$
[H]c1c([H])c([H])c(C([H])([H])Oc2c(C(=O)N([H])[H])sc(-n3c([H])nc4c([H])c(OC([H])([H])[H])c(OC([H])([H])[H])c([H])c43)c2[H])c(C(F)(F)F)c1[H]


 35 38  0  0  0  0  0  0  0  0999 V2000
   59.8908   -6.3234   -9.1610 C   0  0  0  0  0  0  0  0  0  0  0  0
   58.9772   -5.7808   -8.3298 C   0  0  0  0  0  0  0  0  0  0  0  0
   57.9879   -5.0493   -8.8867 C   0  0  0  0  0  0  0  0  0  0  0  0
   57.9891   -4.9265  -10.2939 C   0  0  0  0  0  0  0  0  0  0  0  0
   59.3233   -5.8313  -10.7323 S   0  0  0  0  0  0  0  0  0  0  0  0
   63.5140  -10.0676   -8.6234 C   0  0  0  0  0  0  0  0  0  0  0  0
   63.9535   -8.8450   -8.3536 C   0  0  0  0  0  0  0  0  0  0  0  0
   63.0395   -7.8005   -8.4586 C   0  0  0  0  0  0  0  0  0  0  0  0
   63.2953   -6.4528   -8.2875 N   0  0  0  0  0  0  0  0  0  0  0  0
   62.1575   -5.8466   -8.5344 C   0  0  0  0  0  0  0  0  0  0  0  0
   61.1586   -6.8338   -8.8830 N   0  0  0  0  0  0  0  0  0  0  0  0
   61.7384   -7.9626   -8.8089 C   0  0  0  0  0  0  0  0  0  0  0  0
   61.2905   -9.2895   -9.0672 C   0  0  0  0  0  0  0  0  0  0  0  0
   62.1490  -10.3576   -8.9745 C   0  0  0  0  0  0  0  0  0  0  0  0
   65.0376  -11.4138   -7.3529 C   0  0  0  0  0  0  0  0  0  0  0  0
   64.4009  -11.1736   -8.6562 O   0  0  0  0  0  0  0  0  0  0  0  0
   61.9351  -11.6310   -9.0891 O   0  0  0  0  0  0  0  0  0  0  0  0
   61.7290  -12.8862   -9.2165 C   0  0  0  0  0  0  0  0  0  0  0  0
   57.0455   -4.1307  -11.1045 C   0  0  0  0  0  0  0  0  0  0  0  0
   57.4177   -2.9685  -11.8331 N   0  0  0  0  0  0  0  0  0  0  0  0
   55.8445   -4.4895  -11.1654 O   0  0  0  0  0  0  0  0  0  0  0  0
   57.8618   -3.0518  -12.7945 H   0  0  0  0  0  0  0  0  0  0  0  0
   57.2257   -2.0470  -11.4205 H   0  0  0  0  0  0  0  0  0  0  0  0
   57.0629   -4.3864   -8.2408 O   0  0  0  0  0  0  0  0  0  0  0  0
   56.4574   -4.0190   -7.0773 C   0  0  0  0  0  0  0  0  0  0  0  0
   55.0476   -3.8493   -7.5780 C   0  0  0  0  0  0  0  0  0  0  0  0
   54.7560   -2.8195   -8.4403 C   0  0  0  0  0  0  0  0  0  0  0  0
   53.4745   -2.6809   -8.9989 C   0  0  0  0  0  0  0  0  0  0  0  0
   52.5333   -3.6154   -8.6495 C   0  0  0  0  0  0  0  0  0  0  0  0
   52.8441   -4.6389   -7.7570 C   0  0  0  0  0  0  0  0  0  0  0  0
   54.1414   -4.7559   -7.1921 C   0  0  0  0  0  0  0  0  0  0  0  0
   54.4776   -5.8324   -6.2299 C   0  0  0  0  0  0  0  0  0  0  0  0
   54.6732   -5.3232   -4.9569 F   0  0  0  0  0  0  0  0  0  0  0  0
   53.2486   -6.5540   -6.0835 F   0  0  0  0  0  0  0  0  0  0  0  0
   55.4009   -6.7183   -6.6383 F   0  0  0  0  0  0  0  0  0  0  0  0
 15 16  1  0  0  0
 16  6  1  0  0  0
  6  7  2  0  0  0
  7  8  1  0  0  0
  8  9  1  0  0  0
  9 10  2  0  0  0
 10 11  1  0  0  0
 11  1  1  0  0  0
  1  2  2  0  0  0
  2  3  1  0  0  0
  3 24  1  0  0  0
 24 25  1  0  0  0
 25 26  1  0  0  0
 26 27  2  0  0  0
 27 28  1  0  0  0
 28 29  2  0  0  0
 29 30  1  0  0  0
 30 31  2  0  0  0
 31 32  1  0  0  0
 32 33  1  0  0  0
 32 34  1  0  0  0
 32 35  1  0  0  0
  3  4  2  0  0  0
  4  5  1  0  0  0
  4 19  1  0  0  0
 19 20  1  0  0  0
 19 21  2  0  0  0
 11 12  1  0  0  0
 12 13  1  0  0  0
 13 14  2  0  0  0
 14 17  1  0  0  0
 17 18  1  0  0  0
 14  6  1  0  0  0
 12  8  2  0  0  0
  5  1  1  0  0  0
 31 26  1  0  0  0
 20 22  1  0  0  0
 20 23  1  0  0  0
M  END
> <minimizedAffinity>
-6.57233

> <CNNscore>
0.2996794283

> <CNNaffinity>
5.6765947342

> <CNN_VS>
1.7011586428

> <CNNaffinity_variance>
0.5152909756

$$$$
[H]c1c([H])c([H])c(C([H])([H])Oc2c(C(=O)N([H])[H])sc(-n3c([H])nc4c([H])c(OC([H])([H])[H])c(OC([H])([H])[H])c([H])c43)c2[H])c(C(F)(F)F)c1[H]


 35 38  0  0  0  0  0  0  0  0999 V2000
   54.9127   -5.0668   -6.6583 C   0  0  0  0  0  0  0  0  0  0  0  0
   53.7054   -4.9703   -6.0641 C   0  0  0  0  0  0  0  0  0  0  0  0
   53.4981   -5.7125   -4.9550 C   0  0  0  0  0  0  0  0  0  0  0  0
   54.5693   -6.5164   -4.5062 C   0  0  0  0  0  0  0  0  0  0  0  0
   55.7656   -6.1761   -5.6216 S   0  0  0  0  0  0  0  0  0  0  0  0
   58.1644   -4.7789  -10.7547 C   0  0  0  0  0  0  0  0  0  0  0  0
   57.0037   -4.1629  -10.9393 C   0  0  0  0  0  0  0  0  0  0  0  0
   56.0953   -4.1833   -9.8849 C   0  0  0  0  0  0  0  0  0  0  0  0
   54.8137   -3.6652   -9.8827 N   0  0  0  0  0  0  0  0  0  0  0  0
   54.3187   -3.9612   -8.7036 C   0  0  0  0  0  0  0  0  0  0  0  0
   55.3069   -4.6963   -7.9439 N   0  0  0  0  0  0  0  0  0  0  0  0
   56.3318   -4.7833   -8.6907 C   0  0  0  0  0  0  0  0  0  0  0  0
   57.5964   -5.4136   -8.5139 C   0  0  0  0  0  0  0  0  0  0  0  0
   58.5315   -5.4202   -9.5199 C   0  0  0  0  0  0  0  0  0  0  0  0
   59.0496   -3.7718  -12.7421 C   0  0  0  0  0  0  0  0  0  0  0  0
   59.1002   -4.9094  -11.8120 O   0  0  0  0  0  0  0  0  0  0  0  0
   59.7508   -5.8598   -9.5426 O   0  0  0  0  0  0  0  0  0  0  0  0
   60.9527   -6.2952   -9.5499 C   0  0  0  0  0  0  0  0  0  0  0  0
   54.5459   -7.4468   -3.3597 C   0  0  0  0  0  0  0  0  0  0  0  0
   54.1288   -7.0768   -2.0523 N   0  0  0  0  0  0  0  0  0  0  0  0
   54.9094   -8.6353   -3.5342 O   0  0  0  0  0  0  0  0  0  0  0  0
   53.0974   -7.0550   -1.7994 H   0  0  0  0  0  0  0  0  0  0  0  0
   54.8470   -6.8546   -1.3515 H   0  0  0  0  0  0  0  0  0  0  0  0
   52.3743   -5.8090   -4.2916 O   0  0  0  0  0  0  0  0  0  0  0  0
   51.1075   -6.2930   -4.1638 C   0  0  0  0  0  0  0  0  0  0  0  0
   50.3418   -5.1268   -4.7302 C   0  0  0  0  0  0  0  0  0  0  0  0
   49.9285   -4.1187   -3.8924 C   0  0  0  0  0  0  0  0  0  0  0  0
   49.2905   -2.9724   -4.3951 C   0  0  0  0  0  0  0  0  0  0  0  0
   49.1020   -2.9034   -5.7519 C   0  0  0  0  0  0  0  0  0  0  0  0
   49.5095   -3.9463   -6.5808 C   0  0  0  0  0  0  0  0  0  0  0  0
   50.1413   -5.1033   -6.0536 C   0  0  0  0  0  0  0  0  0  0  0  0
   50.5648   -6.2249   -6.9256 C   0  0  0  0  0  0  0  0  0  0  0  0
   50.7007   -7.3980   -6.2020 F   0  0  0  0  0  0  0  0  0  0  0  0
   49.4053   -6.4921   -7.7235 F   0  0  0  0  0  0  0  0  0  0  0  0
   51.5690   -5.9602   -7.7774 F   0  0  0  0  0  0  0  0  0  0  0  0
 15 16  1  0  0  0
 16  6  1  0  0  0
  6  7  2  0  0  0
  7  8  1  0  0  0
  8  9  1  0  0  0
  9 10  2  0  0  0
 10 11  1  0  0  0
 11  1  1  0  0  0
  1  2  2  0  0  0
  2  3  1  0  0  0
  3 24  1  0  0  0
 24 25  1  0  0  0
 25 26  1  0  0  0
 26 27  2  0  0  0
 27 28  1  0  0  0
 28 29  2  0  0  0
 29 30  1  0  0  0
 30 31  2  0  0  0
 31 32  1  0  0  0
 32 33  1  0  0  0
 32 34  1  0  0  0
 32 35  1  0  0  0
  3  4  2  0  0  0
  4  5  1  0  0  0
  4 19  1  0  0  0
 19 20  1  0  0  0
 19 21  2  0  0  0
 11 12  1  0  0  0
 12 13  1  0  0  0
 13 14  2  0  0  0
 14 17  1  0  0  0
 17 18  1  0  0  0
 14  6  1  0  0  0
 12  8  2  0  0  0
  5  1  1  0  0  0
 31 26  1  0  0  0
 20 22  1  0  0  0
 20 23  1  0  0  0
M  END
> <minimizedAffinity>
-9.18395

> <CNNscore>
0.2947198451

> <CNNaffinity>
7.0593996048

> <CNN_VS>
2.0805451870

> <CNNaffinity_variance>
0.4105060995

$$$$
[H]c1c([H])c([H])c(C([H])([H])Oc2c(C(=O)N([H])[H])sc(-n3c([H])nc4c([H])c(OC([H])([H])[H])c(OC([H])([H])[H])c([H])c43)c2[H])c(C(F)(F)F)c1[H]


 35 38  0  0  0  0  0  0  0  0999 V2000
   58.5019   -5.1753   -9.3715 C   0  0  0  0  0  0  0  0  0  0  0  0
   59.2302   -5.6319   -8.3317 C   0  0  0  0  0  0  0  0  0  0  0  0
   60.4042   -6.2367   -8.6139 C   0  0  0  0  0  0  0  0  0  0  0  0
   60.7735   -6.3273   -9.9743 C   0  0  0  0  0  0  0  0  0  0  0  0
   59.5007   -5.5661  -10.7435 S   0  0  0  0  0  0  0  0  0  0  0  0
   53.6461   -4.5543   -7.5082 C   0  0  0  0  0  0  0  0  0  0  0  0
   53.7910   -4.1909   -8.7761 C   0  0  0  0  0  0  0  0  0  0  0  0
   55.0524   -4.3448   -9.3441 C   0  0  0  0  0  0  0  0  0  0  0  0
   55.4402   -3.9743  -10.6182 N   0  0  0  0  0  0  0  0  0  0  0  0
   56.7191   -4.2605  -10.6917 C   0  0  0  0  0  0  0  0  0  0  0  0
   57.1558   -4.8146   -9.4283 N   0  0  0  0  0  0  0  0  0  0  0  0
   56.1262   -4.8474   -8.6836 C   0  0  0  0  0  0  0  0  0  0  0  0
   55.9326   -5.2524   -7.3322 C   0  0  0  0  0  0  0  0  0  0  0  0
   54.7078   -5.1265   -6.7234 C   0  0  0  0  0  0  0  0  0  0  0  0
   51.5478   -3.3949   -7.5353 C   0  0  0  0  0  0  0  0  0  0  0  0
   52.4305   -4.3244   -6.8152 O   0  0  0  0  0  0  0  0  0  0  0  0
   54.3012   -5.4976   -5.5498 O   0  0  0  0  0  0  0  0  0  0  0  0
   53.8967   -5.8773   -4.3981 C   0  0  0  0  0  0  0  0  0  0  0  0
   61.9752   -6.9955  -10.5132 C   0  0  0  0  0  0  0  0  0  0  0  0
   63.2963   -6.4998  -10.3425 N   0  0  0  0  0  0  0  0  0  0  0  0
   61.8387   -8.0633  -11.1583 O   0  0  0  0  0  0  0  0  0  0  0  0
   63.8350   -6.6926   -9.4476 H   0  0  0  0  0  0  0  0  0  0  0  0
   63.7269   -5.9725  -11.1124 H   0  0  0  0  0  0  0  0  0  0  0  0
   61.2040   -6.8076   -7.7498 O   0  0  0  0  0  0  0  0  0  0  0  0
   61.6487   -7.9152   -7.0934 C   0  0  0  0  0  0  0  0  0  0  0  0
   62.7352   -7.2871   -6.2617 C   0  0  0  0  0  0  0  0  0  0  0  0
   63.7375   -6.5798   -6.8816 C   0  0  0  0  0  0  0  0  0  0  0  0
   64.7184   -5.9050   -6.1359 C   0  0  0  0  0  0  0  0  0  0  0  0
   64.6302   -5.9807   -4.7693 C   0  0  0  0  0  0  0  0  0  0  0  0
   63.6184   -6.7208   -4.1615 C   0  0  0  0  0  0  0  0  0  0  0  0
   62.6428   -7.4073   -4.9315 C   0  0  0  0  0  0  0  0  0  0  0  0
   61.5715   -8.2098   -4.2946 C   0  0  0  0  0  0  0  0  0  0  0  0
   61.7882   -9.5660   -4.4733 F   0  0  0  0  0  0  0  0  0  0  0  0
   61.8116   -8.0455   -2.8917 F   0  0  0  0  0  0  0  0  0  0  0  0
   60.3137   -7.7978   -4.5234 F   0  0  0  0  0  0  0  0  0  0  0  0
 15 16  1  0  0  0
 16  6  1  0  0  0
  6  7  2  0  0  0
  7  8  1  0  0  0
  8  9  1  0  0  0
  9 10  2  0  0  0
 10 11  1  0  0  0
 11  1  1  0  0  0
  1  2  2  0  0  0
  2  3  1  0  0  0
  3 24  1  0  0  0
 24 25  1  0  0  0
 25 26  1  0  0  0
 26 27  2  0  0  0
 27 28  1  0  0  0
 28 29  2  0  0  0
 29 30  1  0  0  0
 30 31  2  0  0  0
 31 32  1  0  0  0
 32 33  1  0  0  0
 32 34  1  0  0  0
 32 35  1  0  0  0
  3  4  2  0  0  0
  4  5  1  0  0  0
  4 19  1  0  0  0
 19 20  1  0  0  0
 19 21  2  0  0  0
 11 12  1  0  0  0
 12 13  1  0  0  0
 13 14  2  0  0  0
 14 17  1  0  0  0
 17 18  1  0  0  0
 14  6  1  0  0  0
 12  8  2  0  0  0
  5  1  1  0  0  0
 31 26  1  0  0  0
 20 22  1  0  0  0
 20 23  1  0  0  0
M  END
> <minimizedAffinity>
-5.96067

> <CNNscore>
0.2776206136

> <CNNaffinity>
5.9861440659

> <CNN_VS>
1.6618770361

> <CNNaffinity_variance>
0.2255136967

$$$$
[H]c1c([H])c([H])c(C([H])([H])Oc2c(C(=O)N([H])[H])sc(-n3c([H])nc4c([H])c(OC([H])([H])[H])c(OC([H])([H])[H])c([H])c43)c2[H])c(C(F)(F)F)c1[H]


 35 38  0  0  0  0  0  0  0  0999 V2000
   54.9807   -4.9547   -7.4597 C   0  0  0  0  0  0  0  0  0  0  0  0
   53.6982   -5.0160   -7.0456 C   0  0  0  0  0  0  0  0  0  0  0  0
   53.4362   -5.7506   -5.9431 C   0  0  0  0  0  0  0  0  0  0  0  0
   54.5311   -6.3811   -5.3117 C   0  0  0  0  0  0  0  0  0  0  0  0
   55.8184   -5.9031   -6.2631 S   0  0  0  0  0  0  0  0  0  0  0  0
   58.5963   -4.6880  -11.2403 C   0  0  0  0  0  0  0  0  0  0  0  0
   57.4811   -4.0208  -11.5084 C   0  0  0  0  0  0  0  0  0  0  0  0
   56.4815   -4.0329  -10.5399 C   0  0  0  0  0  0  0  0  0  0  0  0
   55.2254   -3.4636  -10.6358 N   0  0  0  0  0  0  0  0  0  0  0  0
   54.6155   -3.7710   -9.5149 C   0  0  0  0  0  0  0  0  0  0  0  0
   55.5027   -4.5658   -8.6932 N   0  0  0  0  0  0  0  0  0  0  0  0
   56.5866   -4.6740   -9.3484 C   0  0  0  0  0  0  0  0  0  0  0  0
   57.8054   -5.3596   -9.0793 C   0  0  0  0  0  0  0  0  0  0  0  0
   58.8263   -5.3768   -9.9980 C   0  0  0  0  0  0  0  0  0  0  0  0
   59.6588   -3.6889  -13.1432 C   0  0  0  0  0  0  0  0  0  0  0  0
   59.6178   -4.8276  -12.2138 O   0  0  0  0  0  0  0  0  0  0  0  0
   60.0251   -5.8646   -9.9257 O   0  0  0  0  0  0  0  0  0  0  0  0
   61.2103   -6.3366   -9.8427 C   0  0  0  0  0  0  0  0  0  0  0  0
   54.4695   -7.2747   -4.1376 C   0  0  0  0  0  0  0  0  0  0  0  0
   53.6743   -7.0137   -2.9889 N   0  0  0  0  0  0  0  0  0  0  0  0
   55.1502   -8.3291   -4.1403 O   0  0  0  0  0  0  0  0  0  0  0  0
   52.6408   -7.2589   -2.9793 H   0  0  0  0  0  0  0  0  0  0  0  0
   54.1258   -6.6056   -2.1607 H   0  0  0  0  0  0  0  0  0  0  0  0
   52.2520   -5.9890   -5.4398 O   0  0  0  0  0  0  0  0  0  0  0  0
   50.9406   -6.3235   -5.5939 C   0  0  0  0  0  0  0  0  0  0  0  0
   50.3481   -4.9441   -5.7083 C   0  0  0  0  0  0  0  0  0  0  0  0
   50.2679   -4.3431   -6.9418 C   0  0  0  0  0  0  0  0  0  0  0  0
   49.6415   -3.0959   -7.1027 C   0  0  0  0  0  0  0  0  0  0  0  0
   49.1143   -2.5093   -5.9806 C   0  0  0  0  0  0  0  0  0  0  0  0
   49.2254   -3.1259   -4.7363 C   0  0  0  0  0  0  0  0  0  0  0  0
   49.8733   -4.3808   -4.5905 C   0  0  0  0  0  0  0  0  0  0  0  0
   50.0100   -5.0376   -3.2686 C   0  0  0  0  0  0  0  0  0  0  0  0
   50.8523   -4.3187   -2.4369 F   0  0  0  0  0  0  0  0  0  0  0  0
   48.7314   -4.8361   -2.6547 F   0  0  0  0  0  0  0  0  0  0  0  0
   50.2249   -6.3633   -3.2906 F   0  0  0  0  0  0  0  0  0  0  0  0
 15 16  1  0  0  0
 16  6  1  0  0  0
  6  7  2  0  0  0
  7  8  1  0  0  0
  8  9  1  0  0  0
  9 10  2  0  0  0
 10 11  1  0  0  0
 11  1  1  0  0  0
  1  2  2  0  0  0
  2  3  1  0  0  0
  3 24  1  0  0  0
 24 25  1  0  0  0
 25 26  1  0  0  0
 26 27  2  0  0  0
 27 28  1  0  0  0
 28 29  2  0  0  0
 29 30  1  0  0  0
 30 31  2  0  0  0
 31 32  1  0  0  0
 32 33  1  0  0  0
 32 34  1  0  0  0
 32 35  1  0  0  0
  3  4  2  0  0  0
  4  5  1  0  0  0
  4 19  1  0  0  0
 19 20  1  0  0  0
 19 21  2  0  0  0
 11 12  1  0  0  0
 12 13  1  0  0  0
 13 14  2  0  0  0
 14 17  1  0  0  0
 17 18  1  0  0  0
 14  6  1  0  0  0
 12  8  2  0  0  0
  5  1  1  0  0  0
 31 26  1  0  0  0
 20 22  1  0  0  0
 20 23  1  0  0  0
M  END
> <minimizedAffinity>
-9.68569

> <CNNscore>
0.2771787047

> <CNNaffinity>
6.8014135361

> <CNN_VS>
1.8852069378

> <CNNaffinity_variance>
0.4143955112

$$$$
[H]c1nc(N([H])c2c([H])c(OC([H])([H])[H])c(OC([H])([H])[H])c(OC([H])([H])[H])c2[H])nc(N([H])c2nc3c(c([H])c2[H])OC(C([H])([H])[H])(C([H])([H])[H])C(=O)N3[H])c1F


 37 40  0  0  0  0  0  0  0  0999 V2000
   53.0537   -3.3783   -9.1939 C   0  0  0  0  0  0  0  0  0  0  0  0
   52.4988   -2.1819   -8.9657 N   0  0  0  0  0  0  0  0  0  0  0  0
   51.5233   -1.9412   -8.0872 C   0  0  0  0  0  0  0  0  0  0  0  0
   51.0359   -2.9781   -7.3516 C   0  0  0  0  0  0  0  0  0  0  0  0
   50.0604   -2.8741   -6.4381 F   0  0  0  0  0  0  0  0  0  0  0  0
   51.5760   -4.2593   -7.5438 C   0  0  0  0  0  0  0  0  0  0  0  0
   52.5507   -4.3958   -8.4483 N   0  0  0  0  0  0  0  0  0  0  0  0
   54.0811   -3.6632  -10.1108 N   0  0  0  0  0  0  0  0  0  0  0  0
   53.8176   -3.5327  -11.1414 H   0  0  0  0  0  0  0  0  0  0  0  0
   57.6761   -4.6984  -10.2775 C   0  0  0  0  0  0  0  0  0  0  0  0
   56.4082   -4.2403  -10.6635 C   0  0  0  0  0  0  0  0  0  0  0  0
   55.3836   -4.0955   -9.7994 C   0  0  0  0  0  0  0  0  0  0  0  0
   55.6464   -4.4315   -8.4561 C   0  0  0  0  0  0  0  0  0  0  0  0
   56.8739   -4.8817   -8.0452 C   0  0  0  0  0  0  0  0  0  0  0  0
   57.9054   -5.0211   -8.9520 C   0  0  0  0  0  0  0  0  0  0  0  0
   58.6470   -4.0064  -12.3665 C   0  0  0  0  0  0  0  0  0  0  0  0
   58.6750   -4.8201  -11.2246 O   0  0  0  0  0  0  0  0  0  0  0  0
   57.0923   -5.1987   -6.7305 O   0  0  0  0  0  0  0  0  0  0  0  0
   56.2395   -4.6656   -5.7389 C   0  0  0  0  0  0  0  0  0  0  0  0
   59.1699   -5.4748   -8.5827 O   0  0  0  0  0  0  0  0  0  0  0  0
   59.7418   -6.5390   -9.3319 C   0  0  0  0  0  0  0  0  0  0  0  0
   51.0895   -5.3575   -6.7934 N   0  0  0  0  0  0  0  0  0  0  0  0
   50.3190   -5.9234   -7.1739 H   0  0  0  0  0  0  0  0  0  0  0  0
   51.6754   -5.6499   -5.5371 C   0  0  0  0  0  0  0  0  0  0  0  0
   51.0220   -5.2990   -4.3465 C   0  0  0  0  0  0  0  0  0  0  0  0
   51.6025   -5.5890   -3.1336 C   0  0  0  0  0  0  0  0  0  0  0  0
   52.8221   -6.2222   -3.0638 C   0  0  0  0  0  0  0  0  0  0  0  0
   53.4361   -6.5296   -1.8579 O   0  0  0  0  0  0  0  0  0  0  0  0
   54.8346   -6.7506   -1.7578 C   0  0  0  0  0  0  0  0  0  0  0  0
   55.1489   -7.5660   -0.5362 C   0  0  0  0  0  0  0  0  0  0  0  0
   55.5633   -5.4330   -1.7296 C   0  0  0  0  0  0  0  0  0  0  0  0
   55.3176   -7.5209   -2.9443 C   0  0  0  0  0  0  0  0  0  0  0  0
   56.2242   -8.4021   -2.8194 O   0  0  0  0  0  0  0  0  0  0  0  0
   54.7220   -7.2219   -4.1922 N   0  0  0  0  0  0  0  0  0  0  0  0
   53.4640   -6.5673   -4.2524 C   0  0  0  0  0  0  0  0  0  0  0  0
   52.8582   -6.2635   -5.4120 N   0  0  0  0  0  0  0  0  0  0  0  0
   55.2190   -7.4884   -5.0618 H   0  0  0  0  0  0  0  0  0  0  0  0
 16 17  1  0  0  0
 17 10  1  0  0  0
 10 11  2  0  0  0
 11 12  1  0  0  0
 12  8  1  0  0  0
  8  1  1  0  0  0
  1  2  2  0  0  0
  2  3  1  0  0  0
  3  4  2  0  0  0
  4  5  1  0  0  0
  4  6  1  0  0  0
  6 22  1  0  0  0
 22 24  1  0  0  0
 24 25  2  0  0  0
 25 26  1  0  0  0
 26 27  2  0  0  0
 27 28  1  0  0  0
 28 29  1  0  0  0
 29 30  1  0  0  0
 29 31  1  0  0  0
 29 32  1  0  0  0
 32 33  2  0  0  0
 32 34  1  0  0  0
 34 35  1  0  0  0
 35 36  2  0  0  0
  6  7  2  0  0  0
 12 13  2  0  0  0
 13 14  1  0  0  0
 14 18  1  0  0  0
 18 19  1  0  0  0
 14 15  2  0  0  0
 15 20  1  0  0  0
 20 21  1  0  0  0
 15 10  1  0  0  0
  7  1  1  0  0  0
 36 24  1  0  0  0
 35 27  1  0  0  0
  8  9  1  0  0  0
 22 23  1  0  0  0
 34 37  1  0  0  0
M  END
> <minimizedAffinity>
-9.54921

> <CNNscore>
0.7188952565

> <CNNaffinity>
7.5959396362

> <CNN_VS>
5.4606847763

> <CNNaffinity_variance>
0.1312791705

$$$$
[H]c1nc(N([H])c2c([H])c(OC([H])([H])[H])c(OC([H])([H])[H])c(OC([H])([H])[H])c2[H])nc(N([H])c2nc3c(c([H])c2[H])OC(C([H])([H])[H])(C([H])([H])[H])C(=O)N3[H])c1F


 37 40  0  0  0  0  0  0  0  0999 V2000
   58.4898   -5.3454  -10.0076 C   0  0  0  0  0  0  0  0  0  0  0  0
   58.8976   -5.1497  -11.2673 N   0  0  0  0  0  0  0  0  0  0  0  0
   58.2632   -4.4042  -12.1745 C   0  0  0  0  0  0  0  0  0  0  0  0
   57.1063   -3.7823  -11.8156 C   0  0  0  0  0  0  0  0  0  0  0  0
   56.3727   -3.0074  -12.6270 F   0  0  0  0  0  0  0  0  0  0  0  0
   56.6246   -3.9476  -10.5077 C   0  0  0  0  0  0  0  0  0  0  0  0
   57.3341   -4.7149   -9.6742 N   0  0  0  0  0  0  0  0  0  0  0  0
   59.1352   -6.1234   -9.0302 N   0  0  0  0  0  0  0  0  0  0  0  0
   58.5413   -6.3511   -8.1676 H   0  0  0  0  0  0  0  0  0  0  0  0
   62.8630   -6.4633   -8.9229 C   0  0  0  0  0  0  0  0  0  0  0  0
   61.5779   -5.9108   -8.8251 C   0  0  0  0  0  0  0  0  0  0  0  0
   60.4547   -6.6094   -9.0853 C   0  0  0  0  0  0  0  0  0  0  0  0
   60.6299   -7.9542   -9.4692 C   0  0  0  0  0  0  0  0  0  0  0  0
   61.8711   -8.5254   -9.5743 C   0  0  0  0  0  0  0  0  0  0  0  0
   63.0048   -7.7860   -9.3023 C   0  0  0  0  0  0  0  0  0  0  0  0
   64.3717   -5.5149   -7.3074 C   0  0  0  0  0  0  0  0  0  0  0  0
   63.9657   -5.6801   -8.6396 O   0  0  0  0  0  0  0  0  0  0  0  0
   62.0023   -9.8362   -9.9503 O   0  0  0  0  0  0  0  0  0  0  0  0
   62.0149  -10.8427   -8.9596 C   0  0  0  0  0  0  0  0  0  0  0  0
   64.2876   -8.3219   -9.3953 O   0  0  0  0  0  0  0  0  0  0  0  0
   64.9514   -8.2491  -10.6502 C   0  0  0  0  0  0  0  0  0  0  0  0
   55.4240   -3.3133  -10.1052 N   0  0  0  0  0  0  0  0  0  0  0  0
   55.1117   -2.4684  -10.6025 H   0  0  0  0  0  0  0  0  0  0  0  0
   54.6826   -3.8573   -9.0276 C   0  0  0  0  0  0  0  0  0  0  0  0
   55.2150   -4.8942   -8.2472 C   0  0  0  0  0  0  0  0  0  0  0  0
   54.4841   -5.4131   -7.2038 C   0  0  0  0  0  0  0  0  0  0  0  0
   53.2298   -4.9313   -6.9072 C   0  0  0  0  0  0  0  0  0  0  0  0
   52.4654   -5.4314   -5.8625 O   0  0  0  0  0  0  0  0  0  0  0  0
   51.0542   -5.2848   -5.8225 C   0  0  0  0  0  0  0  0  0  0  0  0
   50.5557   -5.4071   -4.4109 C   0  0  0  0  0  0  0  0  0  0  0  0
   50.4047   -6.3093   -6.7150 C   0  0  0  0  0  0  0  0  0  0  0  0
   50.6659   -3.9285   -6.3163 C   0  0  0  0  0  0  0  0  0  0  0  0
   49.7015   -3.2964   -5.7832 O   0  0  0  0  0  0  0  0  0  0  0  0
   51.4164   -3.3950   -7.3905 N   0  0  0  0  0  0  0  0  0  0  0  0
   52.7088   -3.9006   -7.6882 C   0  0  0  0  0  0  0  0  0  0  0  0
   53.4597   -3.4265   -8.6960 N   0  0  0  0  0  0  0  0  0  0  0  0
   51.0073   -2.6292   -7.9565 H   0  0  0  0  0  0  0  0  0  0  0  0
 16 17  1  0  0  0
 17 10  1  0  0  0
 10 11  2  0  0  0
 11 12  1  0  0  0
 12  8  1  0  0  0
  8  1  1  0  0  0
  1  2  2  0  0  0
  2  3  1  0  0  0
  3  4  2  0  0  0
  4  5  1  0  0  0
  4  6  1  0  0  0
  6 22  1  0  0  0
 22 24  1  0  0  0
 24 25  2  0  0  0
 25 26  1  0  0  0
 26 27  2  0  0  0
 27 28  1  0  0  0
 28 29  1  0  0  0
 29 30  1  0  0  0
 29 31  1  0  0  0
 29 32  1  0  0  0
 32 33  2  0  0  0
 32 34  1  0  0  0
 34 35  1  0  0  0
 35 36  2  0  0  0
  6  7  2  0  0  0
 12 13  2  0  0  0
 13 14  1  0  0  0
 14 18  1  0  0  0
 18 19  1  0  0  0
 14 15  2  0  0  0
 15 20  1  0  0  0
 20 21  1  0  0  0
 15 10  1  0  0  0
  7  1  1  0  0  0
 36 24  1  0  0  0
 35 27  1  0  0  0
  8  9  1  0  0  0
 22 23  1  0  0  0
 34 37  1  0  0  0
M  END
> <minimizedAffinity>
-8.85372

> <CNNscore>
0.7073808312

> <CNNaffinity>
7.0269455910

> <CNN_VS>
4.9707264900

> <CNNaffinity_variance>
0.1321214139

$$$$
[H]c1nc(N([H])c2c([H])c(OC([H])([H])[H])c(OC([H])([H])[H])c(OC([H])([H])[H])c2[H])nc(N([H])c2nc3c(c([H])c2[H])OC(C([H])([H])[H])(C([H])([H])[H])C(=O)N3[H])c1F


 37 40  0  0  0  0  0  0  0  0999 V2000
   58.4080   -5.3520   -9.9735 C   0  0  0  0  0  0  0  0  0  0  0  0
   58.7131   -5.2642  -11.2737 N   0  0  0  0  0  0  0  0  0  0  0  0
   58.0225   -4.5703  -12.1809 C   0  0  0  0  0  0  0  0  0  0  0  0
   56.9151   -3.8885  -11.7778 C   0  0  0  0  0  0  0  0  0  0  0  0
   56.1345   -3.1552  -12.5839 F   0  0  0  0  0  0  0  0  0  0  0  0
   56.5412   -3.9403  -10.4259 C   0  0  0  0  0  0  0  0  0  0  0  0
   57.2998   -4.6636   -9.5964 N   0  0  0  0  0  0  0  0  0  0  0  0
   59.1146   -6.0732   -8.9948 N   0  0  0  0  0  0  0  0  0  0  0  0
   58.6185   -6.1588   -8.0488 H   0  0  0  0  0  0  0  0  0  0  0  0
   61.9234   -8.4511   -9.6880 C   0  0  0  0  0  0  0  0  0  0  0  0
   60.6296   -7.9203   -9.5840 C   0  0  0  0  0  0  0  0  0  0  0  0
   60.3801   -6.6698   -9.1467 C   0  0  0  0  0  0  0  0  0  0  0  0
   61.5032   -5.8967   -8.7898 C   0  0  0  0  0  0  0  0  0  0  0  0
   62.7809   -6.3842   -8.8797 C   0  0  0  0  0  0  0  0  0  0  0  0
   63.0072   -7.6693   -9.3303 C   0  0  0  0  0  0  0  0  0  0  0  0
   62.1653  -10.7987   -9.2238 C   0  0  0  0  0  0  0  0  0  0  0  0
   62.0959   -9.7437  -10.1451 O   0  0  0  0  0  0  0  0  0  0  0  0
   63.8484   -5.6030   -8.5237 O   0  0  0  0  0  0  0  0  0  0  0  0
   64.3629   -5.6902   -7.2113 C   0  0  0  0  0  0  0  0  0  0  0  0
   64.2870   -8.2095   -9.4388 O   0  0  0  0  0  0  0  0  0  0  0  0
   64.9863   -8.0272  -10.6630 C   0  0  0  0  0  0  0  0  0  0  0  0
   55.3941   -3.2415   -9.9768 N   0  0  0  0  0  0  0  0  0  0  0  0
   55.1522   -2.3414  -10.4125 H   0  0  0  0  0  0  0  0  0  0  0  0
   54.6079   -3.7988   -8.9384 C   0  0  0  0  0  0  0  0  0  0  0  0
   55.0785   -4.8918   -8.1957 C   0  0  0  0  0  0  0  0  0  0  0  0
   54.3046   -5.4230   -7.1901 C   0  0  0  0  0  0  0  0  0  0  0  0
   53.0669   -4.8991   -6.8953 C   0  0  0  0  0  0  0  0  0  0  0  0
   52.2603   -5.4101   -5.8882 O   0  0  0  0  0  0  0  0  0  0  0  0
   50.8563   -5.2027   -5.8675 C   0  0  0  0  0  0  0  0  0  0  0  0
   50.3245   -5.3646   -4.4721 C   0  0  0  0  0  0  0  0  0  0  0  0
   50.1808   -6.1568   -6.8168 C   0  0  0  0  0  0  0  0  0  0  0  0
   50.5379   -3.8099   -6.3070 C   0  0  0  0  0  0  0  0  0  0  0  0
   49.5914   -3.1595   -5.7637 O   0  0  0  0  0  0  0  0  0  0  0  0
   51.3326   -3.2637   -7.3422 N   0  0  0  0  0  0  0  0  0  0  0  0
   52.6074   -3.8128   -7.6386 C   0  0  0  0  0  0  0  0  0  0  0  0
   53.3986   -3.3288   -8.6102 N   0  0  0  0  0  0  0  0  0  0  0  0
   50.9689   -2.4563   -7.8807 H   0  0  0  0  0  0  0  0  0  0  0  0
 16 17  1  0  0  0
 17 10  1  0  0  0
 10 11  2  0  0  0
 11 12  1  0  0  0
 12  8  1  0  0  0
  8  1  1  0  0  0
  1  2  2  0  0  0
  2  3  1  0  0  0
  3  4  2  0  0  0
  4  5  1  0  0  0
  4  6  1  0  0  0
  6 22  1  0  0  0
 22 24  1  0  0  0
 24 25  2  0  0  0
 25 26  1  0  0  0
 26 27  2  0  0  0
 27 28  1  0  0  0
 28 29  1  0  0  0
 29 30  1  0  0  0
 29 31  1  0  0  0
 29 32  1  0  0  0
 32 33  2  0  0  0
 32 34  1  0  0  0
 34 35  1  0  0  0
 35 36  2  0  0  0
  6  7  2  0  0  0
 12 13  2  0  0  0
 13 14  1  0  0  0
 14 18  1  0  0  0
 18 19  1  0  0  0
 14 15  2  0  0  0
 15 20  1  0  0  0
 20 21  1  0  0  0
 15 10  1  0  0  0
  7  1  1  0  0  0
 36 24  1  0  0  0
 35 27  1  0  0  0
  8  9  1  0  0  0
 22 23  1  0  0  0
 34 37  1  0  0  0
M  END
> <minimizedAffinity>
-8.81056

> <CNNscore>
0.7014995813

> <CNNaffinity>
7.0488481522

> <CNN_VS>
4.9447641373

> <CNNaffinity_variance>
0.1417994797

$$$$
[H]c1nc(N([H])c2c([H])c(OC([H])([H])[H])c(OC([H])([H])[H])c(OC([H])([H])[H])c2[H])nc(N([H])c2nc3c(c([H])c2[H])OC(C([H])([H])[H])(C([H])([H])[H])C(=O)N3[H])c1F


 37 40  0  0  0  0  0  0  0  0999 V2000
   52.9307   -3.1503   -8.8344 C   0  0  0  0  0  0  0  0  0  0  0  0
   53.2282   -3.3639  -10.1217 N   0  0  0  0  0  0  0  0  0  0  0  0
   54.4380   -3.6776  -10.5901 C   0  0  0  0  0  0  0  0  0  0  0  0
   55.4693   -3.7958   -9.7091 C   0  0  0  0  0  0  0  0  0  0  0  0
   56.7295   -4.1049  -10.0458 F   0  0  0  0  0  0  0  0  0  0  0  0
   55.2228   -3.5840   -8.3436 C   0  0  0  0  0  0  0  0  0  0  0  0
   53.9756   -3.2741   -7.9759 N   0  0  0  0  0  0  0  0  0  0  0  0
   51.6684   -2.8192   -8.3109 N   0  0  0  0  0  0  0  0  0  0  0  0
   51.1372   -2.0627   -8.8532 H   0  0  0  0  0  0  0  0  0  0  0  0
   50.6308   -5.0972   -5.5256 C   0  0  0  0  0  0  0  0  0  0  0  0
   51.2910   -4.6046   -6.6605 C   0  0  0  0  0  0  0  0  0  0  0  0
   51.0644   -3.3767   -7.1686 C   0  0  0  0  0  0  0  0  0  0  0  0
   50.1120   -2.5869   -6.4936 C   0  0  0  0  0  0  0  0  0  0  0  0
   49.4492   -3.0373   -5.3819 C   0  0  0  0  0  0  0  0  0  0  0  0
   49.7005   -4.2999   -4.8835 C   0  0  0  0  0  0  0  0  0  0  0  0
   52.2526   -6.7321   -4.8312 C   0  0  0  0  0  0  0  0  0  0  0  0
   50.9188   -6.3685   -5.0669 O   0  0  0  0  0  0  0  0  0  0  0  0
   48.5296   -2.2408   -4.7520 O   0  0  0  0  0  0  0  0  0  0  0  0
   47.2027   -2.7007   -4.6020 C   0  0  0  0  0  0  0  0  0  0  0  0
   49.0522   -4.8022   -3.7570 O   0  0  0  0  0  0  0  0  0  0  0  0
   49.8462   -5.1511   -2.6307 C   0  0  0  0  0  0  0  0  0  0  0  0
   56.2755   -3.6999   -7.4033 N   0  0  0  0  0  0  0  0  0  0  0  0
   57.1296   -3.1415   -7.5347 H   0  0  0  0  0  0  0  0  0  0  0  0
   56.1270   -4.5822   -6.3049 C   0  0  0  0  0  0  0  0  0  0  0  0
   55.9654   -5.9599   -6.5135 C   0  0  0  0  0  0  0  0  0  0  0  0
   55.8222   -6.8052   -5.4377 C   0  0  0  0  0  0  0  0  0  0  0  0
   55.8345   -6.3223   -4.1493 C   0  0  0  0  0  0  0  0  0  0  0  0
   55.6927   -7.1461   -3.0416 O   0  0  0  0  0  0  0  0  0  0  0  0
   55.2559   -6.6522   -1.7847 C   0  0  0  0  0  0  0  0  0  0  0  0
   55.6965   -7.5701   -0.6805 C   0  0  0  0  0  0  0  0  0  0  0  0
   53.7586   -6.4906   -1.7873 C   0  0  0  0  0  0  0  0  0  0  0  0
   55.8652   -5.3130   -1.5209 C   0  0  0  0  0  0  0  0  0  0  0  0
   56.2303   -4.9869   -0.3486 O   0  0  0  0  0  0  0  0  0  0  0  0
   56.0112   -4.4428   -2.6267 N   0  0  0  0  0  0  0  0  0  0  0  0
   55.9958   -4.9516   -3.9516 C   0  0  0  0  0  0  0  0  0  0  0  0
   56.1317   -4.1664   -5.0328 N   0  0  0  0  0  0  0  0  0  0  0  0
   56.1295   -3.4277   -2.4539 H   0  0  0  0  0  0  0  0  0  0  0  0
 16 17  1  0  0  0
 17 10  1  0  0  0
 10 11  2  0  0  0
 11 12  1  0  0  0
 12  8  1  0  0  0
  8  1  1  0  0  0
  1  2  2  0  0  0
  2  3  1  0  0  0
  3  4  2  0  0  0
  4  5  1  0  0  0
  4  6  1  0  0  0
  6 22  1  0  0  0
 22 24  1  0  0  0
 24 25  2  0  0  0
 25 26  1  0  0  0
 26 27  2  0  0  0
 27 28  1  0  0  0
 28 29  1  0  0  0
 29 30  1  0  0  0
 29 31  1  0  0  0
 29 32  1  0  0  0
 32 33  2  0  0  0
 32 34  1  0  0  0
 34 35  1  0  0  0
 35 36  2  0  0  0
  6  7  2  0  0  0
 12 13  2  0  0  0
 13 14  1  0  0  0
 14 18  1  0  0  0
 18 19  1  0  0  0
 14 15  2  0  0  0
 15 20  1  0  0  0
 20 21  1  0  0  0
 15 10  1  0  0  0
  7  1  1  0  0  0
 36 24  1  0  0  0
 35 27  1  0  0  0
  8  9  1  0  0  0
 22 23  1  0  0  0
 34 37  1  0  0  0
M  END
> <minimizedAffinity>
-8.49633

> <CNNscore>
0.6960533857

> <CNNaffinity>
7.7670440674

> <CNN_VS>
5.4062771797

> <CNNaffinity_variance>
0.0881914943

$$$$
[H]c1nc(N([H])c2c([H])c(OC([H])([H])[H])c(OC([H])([H])[H])c(OC([H])([H])[H])c2[H])nc(N([H])c2nc3c(c([H])c2[H])OC(C([H])([H])[H])(C([H])([H])[H])C(=O)N3[H])c1F


 37 40  0  0  0  0  0  0  0  0999 V2000
   52.9691   -3.4342   -9.1520 C   0  0  0  0  0  0  0  0  0  0  0  0
   52.5920   -2.1601   -8.9915 N   0  0  0  0  0  0  0  0  0  0  0  0
   51.6051   -1.7443   -8.1951 C   0  0  0  0  0  0  0  0  0  0  0  0
   50.9105   -2.6698   -7.4776 C   0  0  0  0  0  0  0  0  0  0  0  0
   49.8997   -2.3877   -6.6435 F   0  0  0  0  0  0  0  0  0  0  0  0
   51.2571   -4.0242   -7.6017 C   0  0  0  0  0  0  0  0  0  0  0  0
   52.2614   -4.3378   -8.4261 N   0  0  0  0  0  0  0  0  0  0  0  0
   54.0031   -3.9028   -9.9818 N   0  0  0  0  0  0  0  0  0  0  0  0
   53.7629   -3.9441  -11.0254 H   0  0  0  0  0  0  0  0  0  0  0  0
   56.9588   -5.0441   -7.9856 C   0  0  0  0  0  0  0  0  0  0  0  0
   55.6510   -4.6653   -8.3215 C   0  0  0  0  0  0  0  0  0  0  0  0
   55.2846   -4.3133   -9.5701 C   0  0  0  0  0  0  0  0  0  0  0  0
   56.2968   -4.3433  -10.5505 C   0  0  0  0  0  0  0  0  0  0  0  0
   57.5844   -4.7089  -10.2564 C   0  0  0  0  0  0  0  0  0  0  0  0
   57.9320   -5.0642   -8.9685 C   0  0  0  0  0  0  0  0  0  0  0  0
   56.2393   -5.8868   -5.8507 C   0  0  0  0  0  0  0  0  0  0  0  0
   57.2548   -5.3908   -6.6811 O   0  0  0  0  0  0  0  0  0  0  0  0
   58.5419   -4.7263  -11.2360 O   0  0  0  0  0  0  0  0  0  0  0  0
   58.3422   -3.9711  -12.4127 C   0  0  0  0  0  0  0  0  0  0  0  0
   59.2270   -5.4426   -8.6205 O   0  0  0  0  0  0  0  0  0  0  0  0
   59.8090   -6.5409   -9.3102 C   0  0  0  0  0  0  0  0  0  0  0  0
   50.5528   -5.0099   -6.8681 N   0  0  0  0  0  0  0  0  0  0  0  0
   49.7741   -5.5096   -7.3182 H   0  0  0  0  0  0  0  0  0  0  0  0
   50.9374   -5.2837   -5.5324 C   0  0  0  0  0  0  0  0  0  0  0  0
   50.1155   -4.9032   -4.4613 C   0  0  0  0  0  0  0  0  0  0  0  0
   50.5014   -5.1754   -3.1693 C   0  0  0  0  0  0  0  0  0  0  0  0
   51.6881   -5.8193   -2.9038 C   0  0  0  0  0  0  0  0  0  0  0  0
   52.1079   -6.1093   -1.6133 O   0  0  0  0  0  0  0  0  0  0  0  0
   53.4721   -6.3422   -1.2979 C   0  0  0  0  0  0  0  0  0  0  0  0
   53.5869   -7.1369   -0.0285 C   0  0  0  0  0  0  0  0  0  0  0  0
   54.2048   -5.0317   -1.1826 C   0  0  0  0  0  0  0  0  0  0  0  0
   54.1196   -7.1403   -2.3834 C   0  0  0  0  0  0  0  0  0  0  0  0
   54.9853   -8.0279   -2.1066 O   0  0  0  0  0  0  0  0  0  0  0  0
   53.7242   -6.8596   -3.7124 N   0  0  0  0  0  0  0  0  0  0  0  0
   52.4985   -6.1938   -3.9747 C   0  0  0  0  0  0  0  0  0  0  0  0
   52.0795   -5.9065   -5.2181 N   0  0  0  0  0  0  0  0  0  0  0  0
   54.3439   -7.1479   -4.4915 H   0  0  0  0  0  0  0  0  0  0  0  0
 16 17  1  0  0  0
 17 10  1  0  0  0
 10 11  2  0  0  0
 11 12  1  0  0  0
 12  8  1  0  0  0
  8  1  1  0  0  0
  1  2  2  0  0  0
  2  3  1  0  0  0
  3  4  2  0  0  0
  4  5  1  0  0  0
  4  6  1  0  0  0
  6 22  1  0  0  0
 22 24  1  0  0  0
 24 25  2  0  0  0
 25 26  1  0  0  0
 26 27  2  0  0  0
 27 28  1  0  0  0
 28 29  1  0  0  0
 29 30  1  0  0  0
 29 31  1  0  0  0
 29 32  1  0  0  0
 32 33  2  0  0  0
 32 34  1  0  0  0
 34 35  1  0  0  0
 35 36  2  0  0  0
  6  7  2  0  0  0
 12 13  2  0  0  0
 13 14  1  0  0  0
 14 18  1  0  0  0
 18 19  1  0  0  0
 14 15  2  0  0  0
 15 20  1  0  0  0
 20 21  1  0  0  0
 15 10  1  0  0  0
  7  1  1  0  0  0
 36 24  1  0  0  0
 35 27  1  0  0  0
  8  9  1  0  0  0
 22 23  1  0  0  0
 34 37  1  0  0  0
M  END
> <minimizedAffinity>
-9.53687

> <CNNscore>
0.6653908491

> <CNNaffinity>
7.6416754723

> <CNN_VS>
5.0847010612

> <CNNaffinity_variance>
0.1075583473

$$$$
[H]c1nc(N([H])c2c([H])c(OC([H])([H])[H])c(OC([H])([H])[H])c(OC([H])([H])[H])c2[H])nc(N([H])c2nc3c(c([H])c2[H])OC(C([H])([H])[H])(C([H])([H])[H])C(=O)N3[H])c1F


 37 40  0  0  0  0  0  0  0  0999 V2000
   53.1540   -3.0462   -9.0209 C   0  0  0  0  0  0  0  0  0  0  0  0
   53.5282   -3.2647  -10.2872 N   0  0  0  0  0  0  0  0  0  0  0  0
   54.7326   -3.6935  -10.6705 C   0  0  0  0  0  0  0  0  0  0  0  0
   55.6741   -3.9354   -9.7171 C   0  0  0  0  0  0  0  0  0  0  0  0
   56.9185   -4.3674   -9.9653 F   0  0  0  0  0  0  0  0  0  0  0  0
   55.3442   -3.7254   -8.3692 C   0  0  0  0  0  0  0  0  0  0  0  0
   54.1102   -3.2945   -8.0890 N   0  0  0  0  0  0  0  0  0  0  0  0
   51.8950   -2.5956   -8.5861 N   0  0  0  0  0  0  0  0  0  0  0  0
   51.5009   -1.7596   -9.1285 H   0  0  0  0  0  0  0  0  0  0  0  0
   49.6430   -3.0456   -5.6280 C   0  0  0  0  0  0  0  0  0  0  0  0
   50.3561   -2.4398   -6.6726 C   0  0  0  0  0  0  0  0  0  0  0  0
   51.1347   -3.1303   -7.5295 C   0  0  0  0  0  0  0  0  0  0  0  0
   51.2036   -4.5236   -7.3276 C   0  0  0  0  0  0  0  0  0  0  0  0
   50.5194   -5.1473   -6.3172 C   0  0  0  0  0  0  0  0  0  0  0  0
   49.7297   -4.4151   -5.4535 C   0  0  0  0  0  0  0  0  0  0  0  0
   47.4819   -2.4836   -4.7340 C   0  0  0  0  0  0  0  0  0  0  0  0
   48.8664   -2.2673   -4.7910 O   0  0  0  0  0  0  0  0  0  0  0  0
   50.6108   -6.5042   -6.1517 O   0  0  0  0  0  0  0  0  0  0  0  0
   50.3143   -7.3556   -7.2388 C   0  0  0  0  0  0  0  0  0  0  0  0
   49.0158   -5.0036   -4.4116 O   0  0  0  0  0  0  0  0  0  0  0  0
   49.6533   -5.1153   -3.1460 C   0  0  0  0  0  0  0  0  0  0  0  0
   56.3024   -3.9683   -7.3550 N   0  0  0  0  0  0  0  0  0  0  0  0
   57.2295   -3.5277   -7.4246 H   0  0  0  0  0  0  0  0  0  0  0  0
   55.9611   -4.8123   -6.2696 C   0  0  0  0  0  0  0  0  0  0  0  0
   55.6267   -6.1568   -6.4893 C   0  0  0  0  0  0  0  0  0  0  0  0
   55.2973   -6.9651   -5.4261 C   0  0  0  0  0  0  0  0  0  0  0  0
   55.2892   -6.4771   -4.1395 C   0  0  0  0  0  0  0  0  0  0  0  0
   54.9619   -7.2641   -3.0444 O   0  0  0  0  0  0  0  0  0  0  0  0
   54.5135   -6.7040   -1.8197 C   0  0  0  0  0  0  0  0  0  0  0  0
   54.7493   -7.6638   -0.6886 C   0  0  0  0  0  0  0  0  0  0  0  0
   53.0561   -6.3394   -1.9234 C   0  0  0  0  0  0  0  0  0  0  0  0
   55.2814   -5.4584   -1.5146 C   0  0  0  0  0  0  0  0  0  0  0  0
   55.6083   -5.1750   -0.3201 O   0  0  0  0  0  0  0  0  0  0  0  0
   55.6190   -4.6261   -2.6076 N   0  0  0  0  0  0  0  0  0  0  0  0
   55.6230   -5.1397   -3.9307 C   0  0  0  0  0  0  0  0  0  0  0  0
   55.9374   -4.3899   -4.9999 N   0  0  0  0  0  0  0  0  0  0  0  0
   55.8634   -3.6352   -2.4266 H   0  0  0  0  0  0  0  0  0  0  0  0
 16 17  1  0  0  0
 17 10  1  0  0  0
 10 11  2  0  0  0
 11 12  1  0  0  0
 12  8  1  0  0  0
  8  1  1  0  0  0
  1  2  2  0  0  0
  2  3  1  0  0  0
  3  4  2  0  0  0
  4  5  1  0  0  0
  4  6  1  0  0  0
  6 22  1  0  0  0
 22 24  1  0  0  0
 24 25  2  0  0  0
 25 26  1  0  0  0
 26 27  2  0  0  0
 27 28  1  0  0  0
 28 29  1  0  0  0
 29 30  1  0  0  0
 29 31  1  0  0  0
 29 32  1  0  0  0
 32 33  2  0  0  0
 32 34  1  0  0  0
 34 35  1  0  0  0
 35 36  2  0  0  0
  6  7  2  0  0  0
 12 13  2  0  0  0
 13 14  1  0  0  0
 14 18  1  0  0  0
 18 19  1  0  0  0
 14 15  2  0  0  0
 15 20  1  0  0  0
 20 21  1  0  0  0
 15 10  1  0  0  0
  7  1  1  0  0  0
 36 24  1  0  0  0
 35 27  1  0  0  0
  8  9  1  0  0  0
 22 23  1  0  0  0
 34 37  1  0  0  0
M  END
> <minimizedAffinity>
-8.61770

> <CNNscore>
0.6339054704

> <CNNaffinity>
7.6806192398

> <CNN_VS>
4.8687863350

> <CNNaffinity_variance>
0.1153425425

$$$$
[H]c1nc(N([H])c2c([H])c(OC([H])([H])[H])c(OC([H])([H])[H])c(OC([H])([H])[H])c2[H])nc(N([H])c2nc3c(c([H])c2[H])OC(C([H])([H])[H])(C([H])([H])[H])C(=O)N3[H])c1F


 37 40  0  0  0  0  0  0  0  0999 V2000
   52.8942   -3.4348   -8.9515 C   0  0  0  0  0  0  0  0  0  0  0  0
   51.9353   -2.6155   -8.5038 N   0  0  0  0  0  0  0  0  0  0  0  0
   51.1481   -2.8543   -7.4528 C   0  0  0  0  0  0  0  0  0  0  0  0
   51.3130   -4.0170   -6.7637 C   0  0  0  0  0  0  0  0  0  0  0  0
   50.5916   -4.3791   -5.6934 F   0  0  0  0  0  0  0  0  0  0  0  0
   52.3025   -4.9197   -7.1830 C   0  0  0  0  0  0  0  0  0  0  0  0
   53.0390   -4.5873   -8.2479 N   0  0  0  0  0  0  0  0  0  0  0  0
   53.7385   -3.2115  -10.0536 N   0  0  0  0  0  0  0  0  0  0  0  0
   53.3376   -2.5639  -10.8076 H   0  0  0  0  0  0  0  0  0  0  0  0
   57.1693   -4.6277   -9.5559 C   0  0  0  0  0  0  0  0  0  0  0  0
   55.8940   -4.1130   -9.2820 C   0  0  0  0  0  0  0  0  0  0  0  0
   55.0232   -3.7528  -10.2460 C   0  0  0  0  0  0  0  0  0  0  0  0
   55.4586   -3.9203  -11.5761 C   0  0  0  0  0  0  0  0  0  0  0  0
   56.6980   -4.4207  -11.8787 C   0  0  0  0  0  0  0  0  0  0  0  0
   57.5701   -4.7809  -10.8710 C   0  0  0  0  0  0  0  0  0  0  0  0
   57.4495   -5.3662   -7.2840 C   0  0  0  0  0  0  0  0  0  0  0  0
   58.0044   -4.9733   -8.5106 O   0  0  0  0  0  0  0  0  0  0  0  0
   57.0866   -4.5694  -13.1839 O   0  0  0  0  0  0  0  0  0  0  0  0
   56.4205   -3.8382  -14.1921 C   0  0  0  0  0  0  0  0  0  0  0  0
   58.8399   -5.2935  -11.1284 O   0  0  0  0  0  0  0  0  0  0  0  0
   59.7156   -4.5273  -11.9449 C   0  0  0  0  0  0  0  0  0  0  0  0
   52.4976   -6.1372   -6.4863 N   0  0  0  0  0  0  0  0  0  0  0  0
   52.0789   -7.0006   -6.8577 H   0  0  0  0  0  0  0  0  0  0  0  0
   53.2642   -6.1366   -5.2950 C   0  0  0  0  0  0  0  0  0  0  0  0
   52.6592   -5.8704   -4.0578 C   0  0  0  0  0  0  0  0  0  0  0  0
   53.4156   -5.8730   -2.9088 C   0  0  0  0  0  0  0  0  0  0  0  0
   54.7660   -6.1340   -2.9489 C   0  0  0  0  0  0  0  0  0  0  0  0
   55.5587   -6.1446   -1.8098 O   0  0  0  0  0  0  0  0  0  0  0  0
   56.9647   -5.9589   -1.8671 C   0  0  0  0  0  0  0  0  0  0  0  0
   57.6186   -6.5369   -0.6447 C   0  0  0  0  0  0  0  0  0  0  0  0
   57.2852   -4.4944   -2.0094 C   0  0  0  0  0  0  0  0  0  0  0  0
   57.5277   -6.6730   -3.0535 C   0  0  0  0  0  0  0  0  0  0  0  0
   58.6561   -7.2527   -2.9855 O   0  0  0  0  0  0  0  0  0  0  0  0
   56.7508   -6.6692   -4.2358 N   0  0  0  0  0  0  0  0  0  0  0  0
   55.3587   -6.3976   -4.1830 C   0  0  0  0  0  0  0  0  0  0  0  0
   54.5793   -6.3838   -5.2768 N   0  0  0  0  0  0  0  0  0  0  0  0
   57.2145   -6.8680   -5.1412 H   0  0  0  0  0  0  0  0  0  0  0  0
 16 17  1  0  0  0
 17 10  1  0  0  0
 10 11  2  0  0  0
 11 12  1  0  0  0
 12  8  1  0  0  0
  8  1  1  0  0  0
  1  2  2  0  0  0
  2  3  1  0  0  0
  3  4  2  0  0  0
  4  5  1  0  0  0
  4  6  1  0  0  0
  6 22  1  0  0  0
 22 24  1  0  0  0
 24 25  2  0  0  0
 25 26  1  0  0  0
 26 27  2  0  0  0
 27 28  1  0  0  0
 28 29  1  0  0  0
 29 30  1  0  0  0
 29 31  1  0  0  0
 29 32  1  0  0  0
 32 33  2  0  0  0
 32 34  1  0  0  0
 34 35  1  0  0  0
 35 36  2  0  0  0
  6  7  2  0  0  0
 12 13  2  0  0  0
 13 14  1  0  0  0
 14 18  1  0  0  0
 18 19  1  0  0  0
 14 15  2  0  0  0
 15 20  1  0  0  0
 20 21  1  0  0  0
 15 10  1  0  0  0
  7  1  1  0  0  0
 36 24  1  0  0  0
 35 27  1  0  0  0
  8  9  1  0  0  0
 22 23  1  0  0  0
 34 37  1  0  0  0
M  END
> <minimizedAffinity>
-8.44798

> <CNNscore>
0.3936103582

> <CNNaffinity>
7.2550864220

> <CNN_VS>
2.8556771278

> <CNNaffinity_variance>
0.1060524434

$$$$
[H]c1nc(N([H])c2c([H])c(OC([H])([H])[H])c(OC([H])([H])[H])c(OC([H])([H])[H])c2[H])nc(N([H])c2nc3c(c([H])c2[H])OC(C([H])([H])[H])(C([H])([H])[H])C(=O)N3[H])c1F


 37 40  0  0  0  0  0  0  0  0999 V2000
   55.3035   -3.9695  -10.2768 C   0  0  0  0  0  0  0  0  0  0  0  0
   56.0265   -3.9543  -11.4030 N   0  0  0  0  0  0  0  0  0  0  0  0
   57.2786   -4.4016  -11.5196 C   0  0  0  0  0  0  0  0  0  0  0  0
   57.8925   -4.9195  -10.4202 C   0  0  0  0  0  0  0  0  0  0  0  0
   59.1432   -5.4015  -10.4001 F   0  0  0  0  0  0  0  0  0  0  0  0
   57.1876   -4.9639   -9.2072 C   0  0  0  0  0  0  0  0  0  0  0  0
   55.9375   -4.4905   -9.1948 N   0  0  0  0  0  0  0  0  0  0  0  0
   53.9846   -3.5067  -10.1227 N   0  0  0  0  0  0  0  0  0  0  0  0
   53.5929   -2.9669  -10.9616 H   0  0  0  0  0  0  0  0  0  0  0  0
   51.4208   -3.0912   -7.4249 C   0  0  0  0  0  0  0  0  0  0  0  0
   52.1847   -2.8550   -8.5769 C   0  0  0  0  0  0  0  0  0  0  0  0
   53.1631   -3.6833   -8.9939 C   0  0  0  0  0  0  0  0  0  0  0  0
   53.3922   -4.8277   -8.2037 C   0  0  0  0  0  0  0  0  0  0  0  0
   52.6640   -5.0889   -7.0725 C   0  0  0  0  0  0  0  0  0  0  0  0
   51.6680   -4.2226   -6.6683 C   0  0  0  0  0  0  0  0  0  0  0  0
   49.0893   -2.5162   -7.2885 C   0  0  0  0  0  0  0  0  0  0  0  0
   50.4352   -2.1926   -7.0637 O   0  0  0  0  0  0  0  0  0  0  0  0
   52.9152   -6.2120   -6.3293 O   0  0  0  0  0  0  0  0  0  0  0  0
   53.9596   -7.0798   -6.7176 C   0  0  0  0  0  0  0  0  0  0  0  0
   50.9014   -4.4447   -5.5262 O   0  0  0  0  0  0  0  0  0  0  0  0
   50.0228   -5.5622   -5.5196 C   0  0  0  0  0  0  0  0  0  0  0  0
   57.7997   -5.4969   -8.0466 N   0  0  0  0  0  0  0  0  0  0  0  0
   58.7040   -5.9798   -8.1330 H   0  0  0  0  0  0  0  0  0  0  0  0
   57.1517   -5.3522   -6.7951 C   0  0  0  0  0  0  0  0  0  0  0  0
   56.3856   -4.2106   -6.5165 C   0  0  0  0  0  0  0  0  0  0  0  0
   55.7618   -4.0832   -5.2971 C   0  0  0  0  0  0  0  0  0  0  0  0
   55.8750   -5.0618   -4.3364 C   0  0  0  0  0  0  0  0  0  0  0  0
   55.2595   -4.9657   -3.0963 O   0  0  0  0  0  0  0  0  0  0  0  0
   55.7130   -5.7003   -1.9697 C   0  0  0  0  0  0  0  0  0  0  0  0
   54.6100   -5.8434   -0.9603 C   0  0  0  0  0  0  0  0  0  0  0  0
   56.9147   -5.0243   -1.3641 C   0  0  0  0  0  0  0  0  0  0  0  0
   56.1179   -7.0778   -2.3857 C   0  0  0  0  0  0  0  0  0  0  0  0
   55.8869   -8.0757   -1.6342 O   0  0  0  0  0  0  0  0  0  0  0  0
   56.7609   -7.2091   -3.6390 N   0  0  0  0  0  0  0  0  0  0  0  0
   56.6383   -6.1928   -4.6223 C   0  0  0  0  0  0  0  0  0  0  0  0
   57.2283   -6.2723   -5.8263 N   0  0  0  0  0  0  0  0  0  0  0  0
   57.3229   -8.0592   -3.8277 H   0  0  0  0  0  0  0  0  0  0  0  0
 16 17  1  0  0  0
 17 10  1  0  0  0
 10 11  2  0  0  0
 11 12  1  0  0  0
 12  8  1  0  0  0
  8  1  1  0  0  0
  1  2  2  0  0  0
  2  3  1  0  0  0
  3  4  2  0  0  0
  4  5  1  0  0  0
  4  6  1  0  0  0
  6 22  1  0  0  0
 22 24  1  0  0  0
 24 25  2  0  0  0
 25 26  1  0  0  0
 26 27  2  0  0  0
 27 28  1  0  0  0
 28 29  1  0  0  0
 29 30  1  0  0  0
 29 31  1  0  0  0
 29 32  1  0  0  0
 32 33  2  0  0  0
 32 34  1  0  0  0
 34 35  1  0  0  0
 35 36  2  0  0  0
  6  7  2  0  0  0
 12 13  2  0  0  0
 13 14  1  0  0  0
 14 18  1  0  0  0
 18 19  1  0  0  0
 14 15  2  0  0  0
 15 20  1  0  0  0
 20 21  1  0  0  0
 15 10  1  0  0  0
  7  1  1  0  0  0
 36 24  1  0  0  0
 35 27  1  0  0  0
  8  9  1  0  0  0
 22 23  1  0  0  0
 34 37  1  0  0  0
M  END
> <minimizedAffinity>
-8.13859

> <CNNscore>
0.3830922246

> <CNNaffinity>
7.0948700905

> <CNN_VS>
2.7179896832

> <CNNaffinity_variance>
0.2062006891

$$$$
[H]c1nc(N([H])c2c([H])c(OC([H])([H])[H])c(OC([H])([H])[H])c(OC([H])([H])[H])c2[H])nc(N([H])c2nc3c(c([H])c2[H])OC(C([H])([H])[H])(C([H])([H])[H])C(=O)N3[H])c1F


 37 40  0  0  0  0  0  0  0  0999 V2000
   58.5211   -5.5272   -9.8293 C   0  0  0  0  0  0  0  0  0  0  0  0
   58.8247   -5.1919  -11.0890 N   0  0  0  0  0  0  0  0  0  0  0  0
   58.0319   -4.5060  -11.9150 C   0  0  0  0  0  0  0  0  0  0  0  0
   56.8114   -4.1034  -11.4652 C   0  0  0  0  0  0  0  0  0  0  0  0
   55.9213   -3.4105  -12.1895 F   0  0  0  0  0  0  0  0  0  0  0  0
   56.4327   -4.4238  -10.1522 C   0  0  0  0  0  0  0  0  0  0  0  0
   57.2990   -5.1144   -9.4044 N   0  0  0  0  0  0  0  0  0  0  0  0
   59.3336   -6.2475   -8.9360 N   0  0  0  0  0  0  0  0  0  0  0  0
   58.8239   -6.6484   -8.0827 H   0  0  0  0  0  0  0  0  0  0  0  0
   62.8412   -6.5399  -10.2145 C   0  0  0  0  0  0  0  0  0  0  0  0
   61.4668   -6.2668  -10.1619 C   0  0  0  0  0  0  0  0  0  0  0  0
   60.7165   -6.4758   -9.0616 C   0  0  0  0  0  0  0  0  0  0  0  0
   61.3884   -6.9931   -7.9358 C   0  0  0  0  0  0  0  0  0  0  0  0
   62.7304   -7.2707   -7.9530 C   0  0  0  0  0  0  0  0  0  0  0  0
   63.4745   -7.0475   -9.0942 C   0  0  0  0  0  0  0  0  0  0  0  0
   62.9658   -6.6396  -12.6145 C   0  0  0  0  0  0  0  0  0  0  0  0
   63.5406   -6.2985  -11.3816 O   0  0  0  0  0  0  0  0  0  0  0  0
   63.3495   -7.7728   -6.8389 O   0  0  0  0  0  0  0  0  0  0  0  0
   62.7229   -7.6412   -5.5801 C   0  0  0  0  0  0  0  0  0  0  0  0
   64.8405   -7.3141   -9.1606 O   0  0  0  0  0  0  0  0  0  0  0  0
   65.2473   -8.6142   -9.5667 C   0  0  0  0  0  0  0  0  0  0  0  0
   55.1696   -4.0187   -9.6561 N   0  0  0  0  0  0  0  0  0  0  0  0
   54.6143   -3.3386  -10.1926 H   0  0  0  0  0  0  0  0  0  0  0  0
   54.7015   -4.5596   -8.4333 C   0  0  0  0  0  0  0  0  0  0  0  0
   53.3650   -4.3887   -8.0431 C   0  0  0  0  0  0  0  0  0  0  0  0
   52.9240   -4.9194   -6.8530 C   0  0  0  0  0  0  0  0  0  0  0  0
   53.7749   -5.6209   -6.0302 C   0  0  0  0  0  0  0  0  0  0  0  0
   53.3637   -6.1693   -4.8235 O   0  0  0  0  0  0  0  0  0  0  0  0
   54.2797   -6.4808   -3.7850 C   0  0  0  0  0  0  0  0  0  0  0  0
   53.6954   -7.5148   -2.8655 C   0  0  0  0  0  0  0  0  0  0  0  0
   54.6454   -5.2308   -3.0290 C   0  0  0  0  0  0  0  0  0  0  0  0
   55.5329   -7.0553   -4.3627 C   0  0  0  0  0  0  0  0  0  0  0  0
   56.1499   -7.9932   -3.7680 O   0  0  0  0  0  0  0  0  0  0  0  0
   55.9877   -6.5088   -5.5858 N   0  0  0  0  0  0  0  0  0  0  0  0
   55.1015   -5.7858   -6.4263 C   0  0  0  0  0  0  0  0  0  0  0  0
   55.4855   -5.2496   -7.5964 N   0  0  0  0  0  0  0  0  0  0  0  0
   56.9784   -6.6448   -5.8583 H   0  0  0  0  0  0  0  0  0  0  0  0
 16 17  1  0  0  0
 17 10  1  0  0  0
 10 11  2  0  0  0
 11 12  1  0  0  0
 12  8  1  0  0  0
  8  1  1  0  0  0
  1  2  2  0  0  0
  2  3  1  0  0  0
  3  4  2  0  0  0
  4  5  1  0  0  0
  4  6  1  0  0  0
  6 22  1  0  0  0
 22 24  1  0  0  0
 24 25  2  0  0  0
 25 26  1  0  0  0
 26 27  2  0  0  0
 27 28  1  0  0  0
 28 29  1  0  0  0
 29 30  1  0  0  0
 29 31  1  0  0  0
 29 32  1  0  0  0
 32 33  2  0  0  0
 32 34  1  0  0  0
 34 35  1  0  0  0
 35 36  2  0  0  0
  6  7  2  0  0  0
 12 13  2  0  0  0
 13 14  1  0  0  0
 14 18  1  0  0  0
 18 19  1  0  0  0
 14 15  2  0  0  0
 15 20  1  0  0  0
 20 21  1  0  0  0
 15 10  1  0  0  0
  7  1  1  0  0  0
 36 24  1  0  0  0
 35 27  1  0  0  0
  8  9  1  0  0  0
 22 23  1  0  0  0
 34 37  1  0  0  0
M  END
> <minimizedAffinity>
-7.86812

> <CNNscore>
0.2661406398

> <CNNaffinity>
5.9195337296

> <CNN_VS>
1.5754284859

> <CNNaffinity_variance>
0.4977173209

$$$$
[H]c1nc(N([H])c2c([H])c([H])c(-c3c([H])c([H])nc([H])c3[H])c([H])c2[H])nc(N([H])c2c(N([H])C(C([H])([H])[H])(C([H])([H])[H])C([H])([H])[H])c(=O)c2=O)c1[H]


 34 37  0  0  0  0  0  0  0  0999 V2000
   52.5469   -4.5779   -7.6861 C   0  0  0  0  0  0  0  0  0  0  0  0
   51.7103   -3.5097   -7.6246 C   0  0  0  0  0  0  0  0  0  0  0  0
   52.0374   -2.3895   -8.3551 C   0  0  0  0  0  0  0  0  0  0  0  0
   53.1515   -2.4158   -9.0785 N   0  0  0  0  0  0  0  0  0  0  0  0
   54.0068   -3.4299   -9.1773 C   0  0  0  0  0  0  0  0  0  0  0  0
   53.6566   -4.5363   -8.4378 N   0  0  0  0  0  0  0  0  0  0  0  0
   52.2612   -5.7662   -6.9510 N   0  0  0  0  0  0  0  0  0  0  0  0
   52.1880   -6.6831   -7.4364 H   0  0  0  0  0  0  0  0  0  0  0  0
   52.8016   -6.1739   -4.4444 C   0  0  0  0  0  0  0  0  0  0  0  0
   52.0685   -5.7401   -5.5453 C   0  0  0  0  0  0  0  0  0  0  0  0
   51.0978   -5.2864   -4.6677 C   0  0  0  0  0  0  0  0  0  0  0  0
   49.9993   -4.7149   -4.7996 O   0  0  0  0  0  0  0  0  0  0  0  0
   51.8162   -5.7121   -3.5795 C   0  0  0  0  0  0  0  0  0  0  0  0
   51.7228   -5.7288   -2.3295 O   0  0  0  0  0  0  0  0  0  0  0  0
   54.0531   -6.8256   -4.2753 N   0  0  0  0  0  0  0  0  0  0  0  0
   54.0842   -7.8628   -4.2964 H   0  0  0  0  0  0  0  0  0  0  0  0
   56.4202   -7.0219   -3.9994 C   0  0  0  0  0  0  0  0  0  0  0  0
   55.2615   -6.0852   -4.0781 C   0  0  0  0  0  0  0  0  0  0  0  0
   55.2215   -5.2664   -2.7961 C   0  0  0  0  0  0  0  0  0  0  0  0
   55.4999   -5.1249   -5.2228 C   0  0  0  0  0  0  0  0  0  0  0  0
   55.1852   -3.4432   -9.9471 N   0  0  0  0  0  0  0  0  0  0  0  0
   55.1436   -2.7923  -10.8260 H   0  0  0  0  0  0  0  0  0  0  0  0
   56.3722   -4.1560   -9.7416 C   0  0  0  0  0  0  0  0  0  0  0  0
   56.8115   -4.5868   -8.5383 C   0  0  0  0  0  0  0  0  0  0  0  0
   58.0024   -5.3205   -8.3922 C   0  0  0  0  0  0  0  0  0  0  0  0
   58.7694   -5.6265   -9.4893 C   0  0  0  0  0  0  0  0  0  0  0  0
   58.3411   -5.1968  -10.7259 C   0  0  0  0  0  0  0  0  0  0  0  0
   57.1769   -4.4822  -10.8516 C   0  0  0  0  0  0  0  0  0  0  0  0
   60.0133   -6.3936   -9.3428 C   0  0  0  0  0  0  0  0  0  0  0  0
   61.0709   -5.8891   -8.6472 C   0  0  0  0  0  0  0  0  0  0  0  0
   62.2458   -6.6371   -8.5199 C   0  0  0  0  0  0  0  0  0  0  0  0
   62.3313   -7.8549   -9.0847 N   0  0  0  0  0  0  0  0  0  0  0  0
   61.2944   -8.3622   -9.7731 C   0  0  0  0  0  0  0  0  0  0  0  0
   60.1236   -7.6349   -9.9089 C   0  0  0  0  0  0  0  0  0  0  0  0
 17 18  1  0  0  0
 18 19  1  0  0  0
 18 20  1  0  0  0
 18 15  1  0  0  0
 15  9  1  0  0  0
  9 10  2  0  0  0
 10  7  1  0  0  0
  7  1  1  0  0  0
  1  2  2  0  0  0
  2  3  1  0  0  0
  3  4  2  0  0  0
  4  5  1  0  0  0
  5 21  1  0  0  0
 21 23  1  0  0  0
 23 24  2  0  0  0
 24 25  1  0  0  0
 25 26  2  0  0  0
 26 27  1  0  0  0
 27 28  2  0  0  0
 26 29  1  0  0  0
 29 30  2  0  0  0
 30 31  1  0  0  0
 31 32  2  0  0  0
 32 33  1  0  0  0
 33 34  2  0  0  0
  5  6  2  0  0  0
 10 11  1  0  0  0
 11 12  2  0  0  0
 11 13  1  0  0  0
 13 14  2  0  0  0
 13  9  1  0  0  0
  6  1  1  0  0  0
 28 23  1  0  0  0
 34 29  1  0  0  0
 15 16  1  0  0  0
  7  8  1  0  0  0
 21 22  1  0  0  0
M  END
> <minimizedAffinity>
-8.85600

> <CNNscore>
0.7720870972

> <CNNaffinity>
7.3446893692

> <CNN_VS>
5.6707401276

> <CNNaffinity_variance>
0.0707693323

$$$$
[H]c1nc(N([H])c2c([H])c([H])c(-c3c([H])c([H])nc([H])c3[H])c([H])c2[H])nc(N([H])c2c(N([H])C(C([H])([H])[H])(C([H])([H])[H])C([H])([H])[H])c(=O)c2=O)c1[H]


 34 37  0  0  0  0  0  0  0  0999 V2000
   50.6346   -4.3571   -5.6857 C   0  0  0  0  0  0  0  0  0  0  0  0
   49.5562   -3.6256   -5.3031 C   0  0  0  0  0  0  0  0  0  0  0  0
   49.2493   -2.4974   -6.0301 C   0  0  0  0  0  0  0  0  0  0  0  0
   50.0242   -2.1877   -7.0641 N   0  0  0  0  0  0  0  0  0  0  0  0
   51.0898   -2.8639   -7.4846 C   0  0  0  0  0  0  0  0  0  0  0  0
   51.3742   -3.9863   -6.7410 N   0  0  0  0  0  0  0  0  0  0  0  0
   51.0023   -5.5355   -4.9712 N   0  0  0  0  0  0  0  0  0  0  0  0
   50.2735   -6.1533   -4.5605 H   0  0  0  0  0  0  0  0  0  0  0  0
   53.2052   -6.0579   -3.7003 C   0  0  0  0  0  0  0  0  0  0  0  0
   52.3618   -5.9029   -4.7968 C   0  0  0  0  0  0  0  0  0  0  0  0
   53.4235   -6.2603   -5.6113 C   0  0  0  0  0  0  0  0  0  0  0  0
   53.5754   -6.3936   -6.8400 O   0  0  0  0  0  0  0  0  0  0  0  0
   54.2587   -6.4144   -4.5342 C   0  0  0  0  0  0  0  0  0  0  0  0
   55.4481   -6.7296   -4.2944 O   0  0  0  0  0  0  0  0  0  0  0  0
   53.0495   -5.9109   -2.2955 N   0  0  0  0  0  0  0  0  0  0  0  0
   53.3417   -5.0202   -1.8499 H   0  0  0  0  0  0  0  0  0  0  0  0
   52.9235   -6.7767   -0.0700 C   0  0  0  0  0  0  0  0  0  0  0  0
   52.5021   -6.9590   -1.4897 C   0  0  0  0  0  0  0  0  0  0  0  0
   52.9669   -8.3318   -1.9532 C   0  0  0  0  0  0  0  0  0  0  0  0
   50.9900   -6.9493   -1.5446 C   0  0  0  0  0  0  0  0  0  0  0  0
   51.9030   -2.5228   -8.5816 N   0  0  0  0  0  0  0  0  0  0  0  0
   51.4867   -1.7269   -9.2070 H   0  0  0  0  0  0  0  0  0  0  0  0
   53.1414   -3.0495   -8.9668 C   0  0  0  0  0  0  0  0  0  0  0  0
   53.4000   -3.6022  -10.1726 C   0  0  0  0  0  0  0  0  0  0  0  0
   54.6716   -4.0959  -10.5154 C   0  0  0  0  0  0  0  0  0  0  0  0
   55.7082   -4.0301   -9.6173 C   0  0  0  0  0  0  0  0  0  0  0  0
   55.4671   -3.4712   -8.3816 C   0  0  0  0  0  0  0  0  0  0  0  0
   54.2211   -2.9940   -8.0628 C   0  0  0  0  0  0  0  0  0  0  0  0
   57.0384   -4.5429   -9.9703 C   0  0  0  0  0  0  0  0  0  0  0  0
   57.7709   -5.2665   -9.0778 C   0  0  0  0  0  0  0  0  0  0  0  0
   59.0354   -5.7456   -9.4353 C   0  0  0  0  0  0  0  0  0  0  0  0
   59.5281   -5.4914  -10.6608 N   0  0  0  0  0  0  0  0  0  0  0  0
   58.8143   -4.7787  -11.5490 C   0  0  0  0  0  0  0  0  0  0  0  0
   57.5605   -4.2968  -11.2114 C   0  0  0  0  0  0  0  0  0  0  0  0
 17 18  1  0  0  0
 18 19  1  0  0  0
 18 20  1  0  0  0
 18 15  1  0  0  0
 15  9  1  0  0  0
  9 10  2  0  0  0
 10  7  1  0  0  0
  7  1  1  0  0  0
  1  2  2  0  0  0
  2  3  1  0  0  0
  3  4  2  0  0  0
  4  5  1  0  0  0
  5 21  1  0  0  0
 21 23  1  0  0  0
 23 24  2  0  0  0
 24 25  1  0  0  0
 25 26  2  0  0  0
 26 27  1  0  0  0
 27 28  2  0  0  0
 26 29  1  0  0  0
 29 30  2  0  0  0
 30 31  1  0  0  0
 31 32  2  0  0  0
 32 33  1  0  0  0
 33 34  2  0  0  0
  5  6  2  0  0  0
 10 11  1  0  0  0
 11 12  2  0  0  0
 11 13  1  0  0  0
 13 14  2  0  0  0
 13  9  1  0  0  0
  6  1  1  0  0  0
 28 23  1  0  0  0
 34 29  1  0  0  0
 15 16  1  0  0  0
  7  8  1  0  0  0
 21 22  1  0  0  0
M  END
> <minimizedAffinity>
-9.39592

> <CNNscore>
0.5127241015

> <CNNaffinity>
7.2156305313

> <CNN_VS>
3.6996276379

> <CNNaffinity_variance>
0.0823705345

$$$$
[H]c1nc(N([H])c2c([H])c([H])c(-c3c([H])c([H])nc([H])c3[H])c([H])c2[H])nc(N([H])c2c(N([H])C(C([H])([H])[H])(C([H])([H])[H])C([H])([H])[H])c(=O)c2=O)c1[H]


 34 37  0  0  0  0  0  0  0  0999 V2000
   50.5755   -4.6723   -5.6559 C   0  0  0  0  0  0  0  0  0  0  0  0
   49.5680   -3.9062   -5.1632 C   0  0  0  0  0  0  0  0  0  0  0  0
   49.3197   -2.6960   -5.7708 C   0  0  0  0  0  0  0  0  0  0  0  0
   50.0783   -2.3455   -6.8038 N   0  0  0  0  0  0  0  0  0  0  0  0
   51.0758   -3.0521   -7.3286 C   0  0  0  0  0  0  0  0  0  0  0  0
   51.3028   -4.2567   -6.7030 N   0  0  0  0  0  0  0  0  0  0  0  0
   50.8804   -5.9355   -5.0680 N   0  0  0  0  0  0  0  0  0  0  0  0
   50.5129   -6.8147   -5.4846 H   0  0  0  0  0  0  0  0  0  0  0  0
   53.0412   -5.8641   -3.6303 C   0  0  0  0  0  0  0  0  0  0  0  0
   51.6875   -6.0366   -3.9052 C   0  0  0  0  0  0  0  0  0  0  0  0
   51.4973   -6.3414   -2.5676 C   0  0  0  0  0  0  0  0  0  0  0  0
   50.5103   -6.6496   -1.8737 O   0  0  0  0  0  0  0  0  0  0  0  0
   52.8302   -6.1728   -2.2914 C   0  0  0  0  0  0  0  0  0  0  0  0
   53.6116   -6.2404   -1.3134 O   0  0  0  0  0  0  0  0  0  0  0  0
   54.1784   -5.5134   -4.4069 N   0  0  0  0  0  0  0  0  0  0  0  0
   54.5399   -4.5419   -4.3546 H   0  0  0  0  0  0  0  0  0  0  0  0
   56.2139   -6.0037   -5.5620 C   0  0  0  0  0  0  0  0  0  0  0  0
   54.8294   -6.4662   -5.2529 C   0  0  0  0  0  0  0  0  0  0  0  0
   54.0859   -6.6589   -6.5665 C   0  0  0  0  0  0  0  0  0  0  0  0
   54.9162   -7.8177   -4.5780 C   0  0  0  0  0  0  0  0  0  0  0  0
   51.8728   -2.6672   -8.4230 N   0  0  0  0  0  0  0  0  0  0  0  0
   51.4389   -1.8592   -9.0203 H   0  0  0  0  0  0  0  0  0  0  0  0
   53.1143   -3.1646   -8.8359 C   0  0  0  0  0  0  0  0  0  0  0  0
   53.3878   -3.6104  -10.0820 C   0  0  0  0  0  0  0  0  0  0  0  0
   54.6620   -4.0788  -10.4494 C   0  0  0  0  0  0  0  0  0  0  0  0
   55.6860   -4.0979   -9.5348 C   0  0  0  0  0  0  0  0  0  0  0  0
   55.4297   -3.6487   -8.2581 C   0  0  0  0  0  0  0  0  0  0  0  0
   54.1813   -3.1947   -7.9157 C   0  0  0  0  0  0  0  0  0  0  0  0
   57.0190   -4.5847   -9.9132 C   0  0  0  0  0  0  0  0  0  0  0  0
   57.7904   -5.2769   -9.0285 C   0  0  0  0  0  0  0  0  0  0  0  0
   59.0567   -5.7316   -9.4102 C   0  0  0  0  0  0  0  0  0  0  0  0
   59.5129   -5.4852  -10.6514 N   0  0  0  0  0  0  0  0  0  0  0  0
   58.7606   -4.8034  -11.5321 C   0  0  0  0  0  0  0  0  0  0  0  0
   57.5043   -4.3459  -11.1705 C   0  0  0  0  0  0  0  0  0  0  0  0
 17 18  1  0  0  0
 18 19  1  0  0  0
 18 20  1  0  0  0
 18 15  1  0  0  0
 15  9  1  0  0  0
  9 10  2  0  0  0
 10  7  1  0  0  0
  7  1  1  0  0  0
  1  2  2  0  0  0
  2  3  1  0  0  0
  3  4  2  0  0  0
  4  5  1  0  0  0
  5 21  1  0  0  0
 21 23  1  0  0  0
 23 24  2  0  0  0
 24 25  1  0  0  0
 25 26  2  0  0  0
 26 27  1  0  0  0
 27 28  2  0  0  0
 26 29  1  0  0  0
 29 30  2  0  0  0
 30 31  1  0  0  0
 31 32  2  0  0  0
 32 33  1  0  0  0
 33 34  2  0  0  0
  5  6  2  0  0  0
 10 11  1  0  0  0
 11 12  2  0  0  0
 11 13  1  0  0  0
 13 14  2  0  0  0
 13  9  1  0  0  0
  6  1  1  0  0  0
 28 23  1  0  0  0
 34 29  1  0  0  0
 15 16  1  0  0  0
  7  8  1  0  0  0
 21 22  1  0  0  0
M  END
> <minimizedAffinity>
-9.55926

> <CNNscore>
0.4654453397

> <CNNaffinity>
7.4048104286

> <CNN_VS>
3.4465343952

> <CNNaffinity_variance>
0.0603768229

$$$$
[H]c1nc(N([H])c2c([H])c([H])c(-c3c([H])c([H])nc([H])c3[H])c([H])c2[H])nc(N([H])c2c(N([H])C(C([H])([H])[H])(C([H])([H])[H])C([H])([H])[H])c(=O)c2=O)c1[H]


 34 37  0  0  0  0  0  0  0  0999 V2000
   52.8944   -4.9681   -6.9867 C   0  0  0  0  0  0  0  0  0  0  0  0
   51.8313   -4.1232   -7.0130 C   0  0  0  0  0  0  0  0  0  0  0  0
   51.8314   -3.1131   -7.9485 C   0  0  0  0  0  0  0  0  0  0  0  0
   52.8699   -3.0213   -8.7722 N   0  0  0  0  0  0  0  0  0  0  0  0
   53.9357   -3.8171   -8.7933 C   0  0  0  0  0  0  0  0  0  0  0  0
   53.9104   -4.8176   -7.8488 N   0  0  0  0  0  0  0  0  0  0  0  0
   52.9511   -6.0332   -6.0398 N   0  0  0  0  0  0  0  0  0  0  0  0
   52.3551   -6.8774   -6.1578 H   0  0  0  0  0  0  0  0  0  0  0  0
   53.7366   -6.4174   -3.5952 C   0  0  0  0  0  0  0  0  0  0  0  0
   53.8136   -5.9795   -4.9142 C   0  0  0  0  0  0  0  0  0  0  0  0
   55.0761   -5.4846   -4.6326 C   0  0  0  0  0  0  0  0  0  0  0  0
   55.9457   -4.8837   -5.2909 O   0  0  0  0  0  0  0  0  0  0  0  0
   55.0053   -5.9140   -3.3318 C   0  0  0  0  0  0  0  0  0  0  0  0
   55.7060   -5.9087   -2.2923 O   0  0  0  0  0  0  0  0  0  0  0  0
   52.7556   -7.1030   -2.8290 N   0  0  0  0  0  0  0  0  0  0  0  0
   52.6586   -8.1299   -2.9437 H   0  0  0  0  0  0  0  0  0  0  0  0
   50.8703   -7.3436   -1.3779 C   0  0  0  0  0  0  0  0  0  0  0  0
   51.9057   -6.4102   -1.9097 C   0  0  0  0  0  0  0  0  0  0  0  0
   51.1968   -5.2357   -2.5683 C   0  0  0  0  0  0  0  0  0  0  0  0
   52.7013   -5.8644   -0.7441 C   0  0  0  0  0  0  0  0  0  0  0  0
   55.0302   -3.7069   -9.6713 N   0  0  0  0  0  0  0  0  0  0  0  0
   54.8316   -3.0782  -10.5449 H   0  0  0  0  0  0  0  0  0  0  0  0
   56.3055   -4.2762   -9.5767 C   0  0  0  0  0  0  0  0  0  0  0  0
   56.9001   -4.6414   -8.4193 C   0  0  0  0  0  0  0  0  0  0  0  0
   58.1762   -5.2316   -8.3841 C   0  0  0  0  0  0  0  0  0  0  0  0
   58.8697   -5.4581   -9.5475 C   0  0  0  0  0  0  0  0  0  0  0  0
   58.2830   -5.0930  -10.7391 C   0  0  0  0  0  0  0  0  0  0  0  0
   57.0374   -4.5186  -10.7563 C   0  0  0  0  0  0  0  0  0  0  0  0
   60.2021   -6.0753   -9.5169 C   0  0  0  0  0  0  0  0  0  0  0  0
   60.7121   -6.5864   -8.3613 C   0  0  0  0  0  0  0  0  0  0  0  0
   61.9831   -7.1702   -8.3551 C   0  0  0  0  0  0  0  0  0  0  0  0
   62.7019   -7.2266   -9.4907 N   0  0  0  0  0  0  0  0  0  0  0  0
   62.2087   -6.7255  -10.6361 C   0  0  0  0  0  0  0  0  0  0  0  0
   60.9519   -6.1440  -10.6599 C   0  0  0  0  0  0  0  0  0  0  0  0
 17 18  1  0  0  0
 18 19  1  0  0  0
 18 20  1  0  0  0
 18 15  1  0  0  0
 15  9  1  0  0  0
  9 10  2  0  0  0
 10  7  1  0  0  0
  7  1  1  0  0  0
  1  2  2  0  0  0
  2  3  1  0  0  0
  3  4  2  0  0  0
  4  5  1  0  0  0
  5 21  1  0  0  0
 21 23  1  0  0  0
 23 24  2  0  0  0
 24 25  1  0  0  0
 25 26  2  0  0  0
 26 27  1  0  0  0
 27 28  2  0  0  0
 26 29  1  0  0  0
 29 30  2  0  0  0
 30 31  1  0  0  0
 31 32  2  0  0  0
 32 33  1  0  0  0
 33 34  2  0  0  0
  5  6  2  0  0  0
 10 11  1  0  0  0
 11 12  2  0  0  0
 11 13  1  0  0  0
 13 14  2  0  0  0
 13  9  1  0  0  0
  6  1  1  0  0  0
 28 23  1  0  0  0
 34 29  1  0  0  0
 15 16  1  0  0  0
  7  8  1  0  0  0
 21 22  1  0  0  0
M  END
> <minimizedAffinity>
-8.42348

> <CNNscore>
0.4522632957

> <CNNaffinity>
6.8374810219

> <CNN_VS>
3.0923416615

> <CNNaffinity_variance>
0.1886723042

$$$$
[H]c1nc(N([H])c2c([H])c([H])c(-c3c([H])c([H])nc([H])c3[H])c([H])c2[H])nc(N([H])c2c(N([H])C(C([H])([H])[H])(C([H])([H])[H])C([H])([H])[H])c(=O)c2=O)c1[H]


 34 37  0  0  0  0  0  0  0  0999 V2000
   57.4729   -4.2050  -11.5741 C   0  0  0  0  0  0  0  0  0  0  0  0
   58.0813   -4.9158  -10.5895 C   0  0  0  0  0  0  0  0  0  0  0  0
   57.3873   -5.1233   -9.4187 C   0  0  0  0  0  0  0  0  0  0  0  0
   56.1628   -4.6174   -9.3174 N   0  0  0  0  0  0  0  0  0  0  0  0
   55.5177   -3.9154  -10.2451 C   0  0  0  0  0  0  0  0  0  0  0  0
   56.2332   -3.7226  -11.4047 N   0  0  0  0  0  0  0  0  0  0  0  0
   58.1419   -3.9572  -12.8091 N   0  0  0  0  0  0  0  0  0  0  0  0
   59.1653   -3.7733  -12.8280 H   0  0  0  0  0  0  0  0  0  0  0  0
   57.6185   -3.3202  -15.2711 C   0  0  0  0  0  0  0  0  0  0  0  0
   57.4419   -3.9523  -14.0435 C   0  0  0  0  0  0  0  0  0  0  0  0
   56.3079   -4.5538  -14.5634 C   0  0  0  0  0  0  0  0  0  0  0  0
   55.4583   -5.3479  -14.1182 O   0  0  0  0  0  0  0  0  0  0  0  0
   56.4773   -3.9334  -15.7750 C   0  0  0  0  0  0  0  0  0  0  0  0
   55.9189   -3.8738  -16.8957 O   0  0  0  0  0  0  0  0  0  0  0  0
   58.5793   -2.4140  -15.7956 N   0  0  0  0  0  0  0  0  0  0  0  0
   58.4866   -1.4038  -15.5763 H   0  0  0  0  0  0  0  0  0  0  0  0
   59.9706   -1.8386  -17.6534 C   0  0  0  0  0  0  0  0  0  0  0  0
   59.6635   -2.8639  -16.6139 C   0  0  0  0  0  0  0  0  0  0  0  0
   59.3376   -4.1737  -17.3166 C   0  0  0  0  0  0  0  0  0  0  0  0
   60.9084   -3.0914  -15.7844 C   0  0  0  0  0  0  0  0  0  0  0  0
   54.2201   -3.3838  -10.1233 N   0  0  0  0  0  0  0  0  0  0  0  0
   53.9114   -2.7768  -10.9801 H   0  0  0  0  0  0  0  0  0  0  0  0
   53.2957   -3.5272   -9.0820 C   0  0  0  0  0  0  0  0  0  0  0  0
   53.2534   -4.5762   -8.2310 C   0  0  0  0  0  0  0  0  0  0  0  0
   52.3160   -4.6581   -7.1858 C   0  0  0  0  0  0  0  0  0  0  0  0
   51.3974   -3.6553   -6.9956 C   0  0  0  0  0  0  0  0  0  0  0  0
   51.4218   -2.5765   -7.8518 C   0  0  0  0  0  0  0  0  0  0  0  0
   52.3428   -2.5116   -8.8663 C   0  0  0  0  0  0  0  0  0  0  0  0
   50.4170   -3.7348   -5.9050 C   0  0  0  0  0  0  0  0  0  0  0  0
   50.5014   -4.7083   -4.9553 C   0  0  0  0  0  0  0  0  0  0  0  0
   49.5571   -4.7650   -3.9252 C   0  0  0  0  0  0  0  0  0  0  0  0
   48.5652   -3.8580   -3.8725 N   0  0  0  0  0  0  0  0  0  0  0  0
   48.4722   -2.8935   -4.8040 C   0  0  0  0  0  0  0  0  0  0  0  0
   49.3989   -2.8229   -5.8308 C   0  0  0  0  0  0  0  0  0  0  0  0
 17 18  1  0  0  0
 18 19  1  0  0  0
 18 20  1  0  0  0
 18 15  1  0  0  0
 15  9  1  0  0  0
  9 10  2  0  0  0
 10  7  1  0  0  0
  7  1  1  0  0  0
  1  2  2  0  0  0
  2  3  1  0  0  0
  3  4  2  0  0  0
  4  5  1  0  0  0
  5 21  1  0  0  0
 21 23  1  0  0  0
 23 24  2  0  0  0
 24 25  1  0  0  0
 25 26  2  0  0  0
 26 27  1  0  0  0
 27 28  2  0  0  0
 26 29  1  0  0  0
 29 30  2  0  0  0
 30 31  1  0  0  0
 31 32  2  0  0  0
 32 33  1  0  0  0
 33 34  2  0  0  0
  5  6  2  0  0  0
 10 11  1  0  0  0
 11 12  2  0  0  0
 11 13  1  0  0  0
 13 14  2  0  0  0
 13  9  1  0  0  0
  6  1  1  0  0  0
 28 23  1  0  0  0
 34 29  1  0  0  0
 15 16  1  0  0  0
  7  8  1  0  0  0
 21 22  1  0  0  0
M  END
> <minimizedAffinity>
-10.00344

> <CNNscore>
0.3871098161

> <CNNaffinity>
6.5211381912

> <CNN_VS>
2.5243966579

> <CNNaffinity_variance>
0.2952098250

$$$$
[H]c1nc(N([H])c2c([H])c([H])c(-c3c([H])c([H])nc([H])c3[H])c([H])c2[H])nc(N([H])c2c(N([H])C(C([H])([H])[H])(C([H])([H])[H])C([H])([H])[H])c(=O)c2=O)c1[H]


 34 37  0  0  0  0  0  0  0  0999 V2000
   52.5521   -4.6282   -7.8572 C   0  0  0  0  0  0  0  0  0  0  0  0
   51.7033   -3.5750   -7.7341 C   0  0  0  0  0  0  0  0  0  0  0  0
   52.0287   -2.4036   -8.3801 C   0  0  0  0  0  0  0  0  0  0  0  0
   53.1533   -2.3686   -9.0869 N   0  0  0  0  0  0  0  0  0  0  0  0
   54.0207   -3.3650   -9.2430 C   0  0  0  0  0  0  0  0  0  0  0  0
   53.6718   -4.5236   -8.5875 N   0  0  0  0  0  0  0  0  0  0  0  0
   52.2687   -5.8675   -7.2106 N   0  0  0  0  0  0  0  0  0  0  0  0
   51.9976   -6.7035   -7.7666 H   0  0  0  0  0  0  0  0  0  0  0  0
   51.4322   -5.9167   -4.7532 C   0  0  0  0  0  0  0  0  0  0  0  0
   52.3457   -6.0024   -5.8001 C   0  0  0  0  0  0  0  0  0  0  0  0
   53.3303   -6.2711   -4.8638 C   0  0  0  0  0  0  0  0  0  0  0  0
   54.5528   -6.5003   -4.9231 O   0  0  0  0  0  0  0  0  0  0  0  0
   52.4342   -6.1877   -3.8286 C   0  0  0  0  0  0  0  0  0  0  0  0
   52.4167   -6.2910   -2.5795 O   0  0  0  0  0  0  0  0  0  0  0  0
   50.0377   -5.6572   -4.6670 N   0  0  0  0  0  0  0  0  0  0  0  0
   49.3728   -6.3727   -5.0179 H   0  0  0  0  0  0  0  0  0  0  0  0
   48.1712   -4.6621   -3.5515 C   0  0  0  0  0  0  0  0  0  0  0  0
   49.5366   -4.4382   -4.1101 C   0  0  0  0  0  0  0  0  0  0  0  0
   49.4509   -3.3323   -5.1519 C   0  0  0  0  0  0  0  0  0  0  0  0
   50.4336   -3.9439   -2.9963 C   0  0  0  0  0  0  0  0  0  0  0  0
   55.2100   -3.3133   -9.9941 N   0  0  0  0  0  0  0  0  0  0  0  0
   55.2053   -2.5439  -10.7726 H   0  0  0  0  0  0  0  0  0  0  0  0
   56.3678   -4.0914   -9.8787 C   0  0  0  0  0  0  0  0  0  0  0  0
   57.1178   -4.5125  -10.9211 C   0  0  0  0  0  0  0  0  0  0  0  0
   58.2870   -5.2743  -10.7460 C   0  0  0  0  0  0  0  0  0  0  0  0
   58.7092   -5.6200   -9.4859 C   0  0  0  0  0  0  0  0  0  0  0  0
   57.9596   -5.2021   -8.4085 C   0  0  0  0  0  0  0  0  0  0  0  0
   56.8217   -4.4593   -8.5963 C   0  0  0  0  0  0  0  0  0  0  0  0
   59.9301   -6.4142   -9.2969 C   0  0  0  0  0  0  0  0  0  0  0  0
   60.9449   -5.9636   -8.5071 C   0  0  0  0  0  0  0  0  0  0  0  0
   62.0985   -6.7366   -8.3407 C   0  0  0  0  0  0  0  0  0  0  0  0
   62.2058   -7.9253   -8.9611 N   0  0  0  0  0  0  0  0  0  0  0  0
   61.2110   -8.3795   -9.7425 C   0  0  0  0  0  0  0  0  0  0  0  0
   60.0618   -7.6268   -9.9181 C   0  0  0  0  0  0  0  0  0  0  0  0
 17 18  1  0  0  0
 18 19  1  0  0  0
 18 20  1  0  0  0
 18 15  1  0  0  0
 15  9  1  0  0  0
  9 10  2  0  0  0
 10  7  1  0  0  0
  7  1  1  0  0  0
  1  2  2  0  0  0
  2  3  1  0  0  0
  3  4  2  0  0  0
  4  5  1  0  0  0
  5 21  1  0  0  0
 21 23  1  0  0  0
 23 24  2  0  0  0
 24 25  1  0  0  0
 25 26  2  0  0  0
 26 27  1  0  0  0
 27 28  2  0  0  0
 26 29  1  0  0  0
 29 30  2  0  0  0
 30 31  1  0  0  0
 31 32  2  0  0  0
 32 33  1  0  0  0
 33 34  2  0  0  0
  5  6  2  0  0  0
 10 11  1  0  0  0
 11 12  2  0  0  0
 11 13  1  0  0  0
 13 14  2  0  0  0
 13  9  1  0  0  0
  6  1  1  0  0  0
 28 23  1  0  0  0
 34 29  1  0  0  0
 15 16  1  0  0  0
  7  8  1  0  0  0
 21 22  1  0  0  0
M  END
> <minimizedAffinity>
-8.17790

> <CNNscore>
0.3719432056

> <CNNaffinity>
6.7953042984

> <CNN_VS>
2.5274672508

> <CNNaffinity_variance>
0.0157519449

$$$$
[H]c1nc(N([H])c2c([H])c([H])c(-c3c([H])c([H])nc([H])c3[H])c([H])c2[H])nc(N([H])c2c(N([H])C(C([H])([H])[H])(C([H])([H])[H])C([H])([H])[H])c(=O)c2=O)c1[H]


 34 37  0  0  0  0  0  0  0  0999 V2000
   56.9978   -5.3057   -7.8837 C   0  0  0  0  0  0  0  0  0  0  0  0
   57.9335   -5.2892   -8.8681 C   0  0  0  0  0  0  0  0  0  0  0  0
   57.5773   -4.7643  -10.0899 C   0  0  0  0  0  0  0  0  0  0  0  0
   56.3398   -4.3037  -10.2379 N   0  0  0  0  0  0  0  0  0  0  0  0
   55.3836   -4.2935   -9.3131 C   0  0  0  0  0  0  0  0  0  0  0  0
   55.7657   -4.8235   -8.1019 N   0  0  0  0  0  0  0  0  0  0  0  0
   57.3078   -5.8374   -6.5971 N   0  0  0  0  0  0  0  0  0  0  0  0
   58.2970   -5.9561   -6.2988 H   0  0  0  0  0  0  0  0  0  0  0  0
   55.9079   -5.8163   -4.4106 C   0  0  0  0  0  0  0  0  0  0  0  0
   56.2879   -6.2197   -5.6875 C   0  0  0  0  0  0  0  0  0  0  0  0
   55.2481   -7.1342   -5.6628 C   0  0  0  0  0  0  0  0  0  0  0  0
   54.8148   -7.9859   -6.4613 O   0  0  0  0  0  0  0  0  0  0  0  0
   54.8696   -6.7405   -4.4046 C   0  0  0  0  0  0  0  0  0  0  0  0
   53.9995   -7.0184   -3.5460 O   0  0  0  0  0  0  0  0  0  0  0  0
   56.3888   -4.8489   -3.4874 N   0  0  0  0  0  0  0  0  0  0  0  0
   56.3117   -3.8429   -3.7309 H   0  0  0  0  0  0  0  0  0  0  0  0
   55.9002   -5.4385   -1.2220 C   0  0  0  0  0  0  0  0  0  0  0  0
   56.9728   -5.2320   -2.2385 C   0  0  0  0  0  0  0  0  0  0  0  0
   57.9315   -4.1737   -1.7129 C   0  0  0  0  0  0  0  0  0  0  0  0
   57.7526   -6.5210   -2.3794 C   0  0  0  0  0  0  0  0  0  0  0  0
   54.0754   -3.8034   -9.4845 N   0  0  0  0  0  0  0  0  0  0  0  0
   53.8615   -3.4682  -10.5042 H   0  0  0  0  0  0  0  0  0  0  0  0
   53.0386   -3.6938   -8.5505 C   0  0  0  0  0  0  0  0  0  0  0  0
   52.1494   -2.6771   -8.5051 C   0  0  0  0  0  0  0  0  0  0  0  0
   51.1111   -2.6291   -7.5576 C   0  0  0  0  0  0  0  0  0  0  0  0
   50.9675   -3.6333   -6.6321 C   0  0  0  0  0  0  0  0  0  0  0  0
   51.8632   -4.6794   -6.6594 C   0  0  0  0  0  0  0  0  0  0  0  0
   52.8703   -4.7115   -7.5903 C   0  0  0  0  0  0  0  0  0  0  0  0
   49.8844   -3.5890   -5.6412 C   0  0  0  0  0  0  0  0  0  0  0  0
   48.8751   -2.6795   -5.7452 C   0  0  0  0  0  0  0  0  0  0  0  0
   47.8534   -2.6555   -4.7904 C   0  0  0  0  0  0  0  0  0  0  0  0
   47.8677   -3.5308   -3.7691 N   0  0  0  0  0  0  0  0  0  0  0  0
   48.8583   -4.4322   -3.6567 C   0  0  0  0  0  0  0  0  0  0  0  0
   49.8778   -4.4697   -4.5934 C   0  0  0  0  0  0  0  0  0  0  0  0
 17 18  1  0  0  0
 18 19  1  0  0  0
 18 20  1  0  0  0
 18 15  1  0  0  0
 15  9  1  0  0  0
  9 10  2  0  0  0
 10  7  1  0  0  0
  7  1  1  0  0  0
  1  2  2  0  0  0
  2  3  1  0  0  0
  3  4  2  0  0  0
  4  5  1  0  0  0
  5 21  1  0  0  0
 21 23  1  0  0  0
 23 24  2  0  0  0
 24 25  1  0  0  0
 25 26  2  0  0  0
 26 27  1  0  0  0
 27 28  2  0  0  0
 26 29  1  0  0  0
 29 30  2  0  0  0
 30 31  1  0  0  0
 31 32  2  0  0  0
 32 33  1  0  0  0
 33 34  2  0  0  0
  5  6  2  0  0  0
 10 11  1  0  0  0
 11 12  2  0  0  0
 11 13  1  0  0  0
 13 14  2  0  0  0
 13  9  1  0  0  0
  6  1  1  0  0  0
 28 23  1  0  0  0
 34 29  1  0  0  0
 15 16  1  0  0  0
  7  8  1  0  0  0
 21 22  1  0  0  0
M  END
> <minimizedAffinity>
-10.23945

> <CNNscore>
0.3671475649

> <CNNaffinity>
7.0782432556

> <CNN_VS>
2.5987598896

> <CNNaffinity_variance>
0.1138833612

$$$$
[H]c1nc(N([H])c2c([H])c([H])c(-c3c([H])c([H])nc([H])c3[H])c([H])c2[H])nc(N([H])c2c(N([H])C(C([H])([H])[H])(C([H])([H])[H])C([H])([H])[H])c(=O)c2=O)c1[H]


 34 37  0  0  0  0  0  0  0  0999 V2000
   56.9134   -4.5362  -11.5804 C   0  0  0  0  0  0  0  0  0  0  0  0
   57.7003   -4.9260  -10.5443 C   0  0  0  0  0  0  0  0  0  0  0  0
   57.2350   -4.7182   -9.2653 C   0  0  0  0  0  0  0  0  0  0  0  0
   56.0437   -4.1489   -9.1161 N   0  0  0  0  0  0  0  0  0  0  0  0
   55.2312   -3.7476  -10.0900 C   0  0  0  0  0  0  0  0  0  0  0  0
   55.7200   -3.9667  -11.3576 N   0  0  0  0  0  0  0  0  0  0  0  0
   57.3420   -4.7249  -12.9276 N   0  0  0  0  0  0  0  0  0  0  0  0
   56.8131   -5.3513  -13.5675 H   0  0  0  0  0  0  0  0  0  0  0  0
   58.7430   -3.2021  -14.4958 C   0  0  0  0  0  0  0  0  0  0  0  0
   58.4938   -4.0715  -13.4376 C   0  0  0  0  0  0  0  0  0  0  0  0
   59.8408   -4.0072  -13.1222 C   0  0  0  0  0  0  0  0  0  0  0  0
   60.5573   -4.5200  -12.2422 O   0  0  0  0  0  0  0  0  0  0  0  0
   60.0918   -3.1505  -14.1635 C   0  0  0  0  0  0  0  0  0  0  0  0
   61.0584   -2.5378  -14.6751 O   0  0  0  0  0  0  0  0  0  0  0  0
   57.9403   -2.6079  -15.5068 N   0  0  0  0  0  0  0  0  0  0  0  0
   57.6716   -1.6100  -15.4105 H   0  0  0  0  0  0  0  0  0  0  0  0
   56.9023   -2.4282  -17.6535 C   0  0  0  0  0  0  0  0  0  0  0  0
   57.4989   -3.3529  -16.6459 C   0  0  0  0  0  0  0  0  0  0  0  0
   56.4518   -4.3919  -16.2723 C   0  0  0  0  0  0  0  0  0  0  0  0
   58.6539   -4.0850  -17.2935 C   0  0  0  0  0  0  0  0  0  0  0  0
   53.9716   -3.1439   -9.9171 N   0  0  0  0  0  0  0  0  0  0  0  0
   53.7065   -2.4432  -10.7151 H   0  0  0  0  0  0  0  0  0  0  0  0
   53.0366   -3.3182   -8.8901 C   0  0  0  0  0  0  0  0  0  0  0  0
   53.0194   -4.3656   -8.0361 C   0  0  0  0  0  0  0  0  0  0  0  0
   52.0691   -4.4790   -7.0056 C   0  0  0  0  0  0  0  0  0  0  0  0
   51.1113   -3.5101   -6.8335 C   0  0  0  0  0  0  0  0  0  0  0  0
   51.1095   -2.4337   -7.6930 C   0  0  0  0  0  0  0  0  0  0  0  0
   52.0436   -2.3378   -8.6931 C   0  0  0  0  0  0  0  0  0  0  0  0
   50.1172   -3.6226   -5.7583 C   0  0  0  0  0  0  0  0  0  0  0  0
   49.0733   -2.7508   -5.6739 C   0  0  0  0  0  0  0  0  0  0  0  0
   48.1379   -2.8767   -4.6418 C   0  0  0  0  0  0  0  0  0  0  0  0
   48.2693   -3.8589   -3.7322 N   0  0  0  0  0  0  0  0  0  0  0  0
   49.2951   -4.7243   -3.8058 C   0  0  0  0  0  0  0  0  0  0  0  0
   50.2303   -4.6140   -4.8213 C   0  0  0  0  0  0  0  0  0  0  0  0
 17 18  1  0  0  0
 18 19  1  0  0  0
 18 20  1  0  0  0
 18 15  1  0  0  0
 15  9  1  0  0  0
  9 10  2  0  0  0
 10  7  1  0  0  0
  7  1  1  0  0  0
  1  2  2  0  0  0
  2  3  1  0  0  0
  3  4  2  0  0  0
  4  5  1  0  0  0
  5 21  1  0  0  0
 21 23  1  0  0  0
 23 24  2  0  0  0
 24 25  1  0  0  0
 25 26  2  0  0  0
 26 27  1  0  0  0
 27 28  2  0  0  0
 26 29  1  0  0  0
 29 30  2  0  0  0
 30 31  1  0  0  0
 31 32  2  0  0  0
 32 33  1  0  0  0
 33 34  2  0  0  0
  5  6  2  0  0  0
 10 11  1  0  0  0
 11 12  2  0  0  0
 11 13  1  0  0  0
 13 14  2  0  0  0
 13  9  1  0  0  0
  6  1  1  0  0  0
 28 23  1  0  0  0
 34 29  1  0  0  0
 15 16  1  0  0  0
  7  8  1  0  0  0
 21 22  1  0  0  0
M  END
> <minimizedAffinity>
-8.97056

> <CNNscore>
0.3635679185

> <CNNaffinity>
6.5237669945

> <CNN_VS>
2.3718323708

> <CNNaffinity_variance>
0.2249699831

$$$$
[H]c1nc(N([H])c2c([H])c([H])c(-c3c([H])c([H])nc([H])c3[H])c([H])c2[H])nc(N([H])c2c(N([H])C(C([H])([H])[H])(C([H])([H])[H])C([H])([H])[H])c(=O)c2=O)c1[H]


 34 37  0  0  0  0  0  0  0  0999 V2000
   50.3023   -5.1814   -4.5826 C   0  0  0  0  0  0  0  0  0  0  0  0
   49.3254   -4.4608   -3.9734 C   0  0  0  0  0  0  0  0  0  0  0  0
   48.9347   -3.2774   -4.5583 C   0  0  0  0  0  0  0  0  0  0  0  0
   49.5342   -2.9066   -5.6846 N   0  0  0  0  0  0  0  0  0  0  0  0
   50.4938   -3.5689   -6.3251 C   0  0  0  0  0  0  0  0  0  0  0  0
   50.8654   -4.7475   -5.7197 N   0  0  0  0  0  0  0  0  0  0  0  0
   50.7493   -6.4150   -4.0237 N   0  0  0  0  0  0  0  0  0  0  0  0
   50.5668   -7.3140   -4.5137 H   0  0  0  0  0  0  0  0  0  0  0  0
   52.7014   -6.0275   -2.3563 C   0  0  0  0  0  0  0  0  0  0  0  0
   51.4517   -6.4594   -2.7914 C   0  0  0  0  0  0  0  0  0  0  0  0
   51.2171   -6.9357   -1.5123 C   0  0  0  0  0  0  0  0  0  0  0  0
   50.2676   -7.5208   -0.9586 O   0  0  0  0  0  0  0  0  0  0  0  0
   52.4475   -6.5122   -1.0784 C   0  0  0  0  0  0  0  0  0  0  0  0
   53.1337   -6.5103   -0.0294 O   0  0  0  0  0  0  0  0  0  0  0  0
   53.7944   -5.3599   -2.9720 N   0  0  0  0  0  0  0  0  0  0  0  0
   53.8295   -4.3231   -2.9408 H   0  0  0  0  0  0  0  0  0  0  0  0
   54.3001   -6.7522   -4.8493 C   0  0  0  0  0  0  0  0  0  0  0  0
   54.8392   -6.0839   -3.6290 C   0  0  0  0  0  0  0  0  0  0  0  0
   55.4429   -7.1508   -2.7275 C   0  0  0  0  0  0  0  0  0  0  0  0
   55.9591   -5.1563   -4.0473 C   0  0  0  0  0  0  0  0  0  0  0  0
   51.1215   -3.1630   -7.5177 N   0  0  0  0  0  0  0  0  0  0  0  0
   50.5183   -2.4771   -8.1207 H   0  0  0  0  0  0  0  0  0  0  0  0
   52.3819   -3.5077   -8.0198 C   0  0  0  0  0  0  0  0  0  0  0  0
   53.2420   -4.3592   -7.4185 C   0  0  0  0  0  0  0  0  0  0  0  0
   54.4886   -4.6886   -7.9802 C   0  0  0  0  0  0  0  0  0  0  0  0
   54.8766   -4.1436   -9.1794 C   0  0  0  0  0  0  0  0  0  0  0  0
   54.0158   -3.2724   -9.8097 C   0  0  0  0  0  0  0  0  0  0  0  0
   52.8031   -2.9616   -9.2487 C   0  0  0  0  0  0  0  0  0  0  0  0
   56.1767   -4.4850   -9.7713 C   0  0  0  0  0  0  0  0  0  0  0  0
   57.1367   -5.1167   -9.0391 C   0  0  0  0  0  0  0  0  0  0  0  0
   58.3676   -5.4328   -9.6232 C   0  0  0  0  0  0  0  0  0  0  0  0
   58.6034   -5.1126  -10.9082 N   0  0  0  0  0  0  0  0  0  0  0  0
   57.6637   -4.4893  -11.6396 C   0  0  0  0  0  0  0  0  0  0  0  0
   56.4394   -4.1690  -11.0769 C   0  0  0  0  0  0  0  0  0  0  0  0
 17 18  1  0  0  0
 18 19  1  0  0  0
 18 20  1  0  0  0
 18 15  1  0  0  0
 15  9  1  0  0  0
  9 10  2  0  0  0
 10  7  1  0  0  0
  7  1  1  0  0  0
  1  2  2  0  0  0
  2  3  1  0  0  0
  3  4  2  0  0  0
  4  5  1  0  0  0
  5 21  1  0  0  0
 21 23  1  0  0  0
 23 24  2  0  0  0
 24 25  1  0  0  0
 25 26  2  0  0  0
 26 27  1  0  0  0
 27 28  2  0  0  0
 26 29  1  0  0  0
 29 30  2  0  0  0
 30 31  1  0  0  0
 31 32  2  0  0  0
 32 33  1  0  0  0
 33 34  2  0  0  0
  5  6  2  0  0  0
 10 11  1  0  0  0
 11 12  2  0  0  0
 11 13  1  0  0  0
 13 14  2  0  0  0
 13  9  1  0  0  0
  6  1  1  0  0  0
 28 23  1  0  0  0
 34 29  1  0  0  0
 15 16  1  0  0  0
  7  8  1  0  0  0
 21 22  1  0  0  0
M  END
> <minimizedAffinity>
-10.13853

> <CNNscore>
0.3045372367

> <CNNaffinity>
7.1283311844

> <CNN_VS>
2.1708421707

> <CNNaffinity_variance>
0.0581804104

$$$$
[H]c1nc(N([H])c2c([H])c([H])c(N3C([H])([H])C([H])([H])N(C([H])([H])[H])C([H])([H])C3([H])[H])c([H])c2OC([H])([H])[H])nc2c1C([H])([H])C([H])([H])c1c(C(=O)N([H])[H])nn(C([H])([H])[H])c1-2


 36 40  0  0  0  0  0  0  0  0999 V2000
   53.9657   -3.4264   -9.1278 C   0  0  0  0  0  0  0  0  0  0  0  0
   52.8894   -2.6935   -9.3762 N   0  0  0  0  0  0  0  0  0  0  0  0
   51.7729   -2.6745   -8.6369 C   0  0  0  0  0  0  0  0  0  0  0  0
   51.7662   -3.4989   -7.5234 C   0  0  0  0  0  0  0  0  0  0  0  0
   50.5562   -3.4980   -6.6989 C   0  0  0  0  0  0  0  0  0  0  0  0
   50.5832   -4.3811   -5.5138 C   0  0  0  0  0  0  0  0  0  0  0  0
   51.7843   -5.1707   -5.2802 C   0  0  0  0  0  0  0  0  0  0  0  0
   52.0877   -6.0824   -4.2623 C   0  0  0  0  0  0  0  0  0  0  0  0
   53.3078   -6.5286   -4.5013 N   0  0  0  0  0  0  0  0  0  0  0  0
   53.8194   -5.9940   -5.5726 N   0  0  0  0  0  0  0  0  0  0  0  0
   55.1193   -6.2133   -6.1721 C   0  0  0  0  0  0  0  0  0  0  0  0
   52.8757   -5.1443   -6.0666 C   0  0  0  0  0  0  0  0  0  0  0  0
   52.8675   -4.2667   -7.2448 C   0  0  0  0  0  0  0  0  0  0  0  0
   53.9687   -4.2569   -8.0124 N   0  0  0  0  0  0  0  0  0  0  0  0
   51.1995   -6.4385   -3.1721 C   0  0  0  0  0  0  0  0  0  0  0  0
   51.4873   -7.5889   -2.3890 N   0  0  0  0  0  0  0  0  0  0  0  0
   50.1809   -5.7696   -2.8892 O   0  0  0  0  0  0  0  0  0  0  0  0
   52.4075   -7.6333   -1.9015 H   0  0  0  0  0  0  0  0  0  0  0  0
   50.8144   -8.3787   -2.2893 H   0  0  0  0  0  0  0  0  0  0  0  0
   55.1302   -3.4301   -9.9207 N   0  0  0  0  0  0  0  0  0  0  0  0
   55.1325   -2.7971  -10.8007 H   0  0  0  0  0  0  0  0  0  0  0  0
   57.0261   -4.5926  -10.8450 C   0  0  0  0  0  0  0  0  0  0  0  0
   58.1739   -5.3006  -10.6872 C   0  0  0  0  0  0  0  0  0  0  0  0
   58.6846   -5.6223   -9.4511 C   0  0  0  0  0  0  0  0  0  0  0  0
   57.9974   -5.2054   -8.3406 C   0  0  0  0  0  0  0  0  0  0  0  0
   56.8207   -4.4799   -8.4804 C   0  0  0  0  0  0  0  0  0  0  0  0
   56.3108   -4.1585   -9.7190 C   0  0  0  0  0  0  0  0  0  0  0  0
   59.8874   -6.3665   -9.3584 N   0  0  0  0  0  0  0  0  0  0  0  0
   60.9338   -5.9337   -8.4446 C   0  0  0  0  0  0  0  0  0  0  0  0
   62.2759   -6.5493   -8.8617 C   0  0  0  0  0  0  0  0  0  0  0  0
   62.2066   -7.9736   -8.8066 N   0  0  0  0  0  0  0  0  0  0  0  0
   62.2496   -8.3507   -7.3848 C   0  0  0  0  0  0  0  0  0  0  0  0
   61.0175   -8.5370   -9.3524 C   0  0  0  0  0  0  0  0  0  0  0  0
   60.1567   -7.5569  -10.1240 C   0  0  0  0  0  0  0  0  0  0  0  0
   57.4309   -3.9056  -13.1044 C   0  0  0  0  0  0  0  0  0  0  0  0
   56.5369   -4.2841  -12.0871 O   0  0  0  0  0  0  0  0  0  0  0  0
 35 36  1  0  0  0
 36 22  1  0  0  0
 22 23  2  0  0  0
 23 24  1  0  0  0
 24 25  2  0  0  0
 25 26  1  0  0  0
 26 27  2  0  0  0
 27 20  1  0  0  0
 20  1  1  0  0  0
  1  2  2  0  0  0
  2  3  1  0  0  0
  3  4  2  0  0  0
  4  5  1  0  0  0
  5  6  1  0  0  0
  6  7  1  0  0  0
  7  8  1  0  0  0
  8  9  2  0  0  0
  9 10  1  0  0  0
 10 11  1  0  0  0
 10 12  1  0  0  0
 12 13  1  0  0  0
 13 14  2  0  0  0
  8 15  1  0  0  0
 15 16  1  0  0  0
 15 17  2  0  0  0
 24 28  1  0  0  0
 28 29  1  0  0  0
 29 30  1  0  0  0
 30 31  1  0  0  0
 31 32  1  0  0  0
 31 33  1  0  0  0
 33 34  1  0  0  0
 27 22  1  0  0  0
 14  1  1  0  0  0
 34 28  1  0  0  0
 13  4  1  0  0  0
 12  7  2  0  0  0
 20 21  1  0  0  0
 16 18  1  0  0  0
 16 19  1  0  0  0
M  END
> <minimizedAffinity>
-10.01007

> <CNNscore>
0.9563121200

> <CNNaffinity>
7.8448076248

> <CNN_VS>
7.5020847321

> <CNNaffinity_variance>
0.1136569604

$$$$
[H]c1nc(N([H])c2c([H])c([H])c(N3C([H])([H])C([H])([H])N(C([H])([H])[H])C([H])([H])C3([H])[H])c([H])c2OC([H])([H])[H])nc2c1C([H])([H])C([H])([H])c1c(C(=O)N([H])[H])nn(C([H])([H])[H])c1-2


 36 40  0  0  0  0  0  0  0  0999 V2000
   54.0040   -3.4190   -9.1401 C   0  0  0  0  0  0  0  0  0  0  0  0
   52.9429   -2.6629   -9.3840 N   0  0  0  0  0  0  0  0  0  0  0  0
   51.8266   -2.6263   -8.6451 C   0  0  0  0  0  0  0  0  0  0  0  0
   51.8024   -3.4580   -7.5374 C   0  0  0  0  0  0  0  0  0  0  0  0
   50.5921   -3.4384   -6.7135 C   0  0  0  0  0  0  0  0  0  0  0  0
   50.6005   -4.3300   -5.5345 C   0  0  0  0  0  0  0  0  0  0  0  0
   51.7852   -5.1453   -5.3057 C   0  0  0  0  0  0  0  0  0  0  0  0
   52.0695   -6.0700   -4.2940 C   0  0  0  0  0  0  0  0  0  0  0  0
   53.2804   -6.5392   -4.5354 N   0  0  0  0  0  0  0  0  0  0  0  0
   53.8035   -6.0077   -5.6028 N   0  0  0  0  0  0  0  0  0  0  0  0
   55.0990   -6.2490   -6.2031 C   0  0  0  0  0  0  0  0  0  0  0  0
   52.8774   -5.1356   -6.0914 C   0  0  0  0  0  0  0  0  0  0  0  0
   52.8878   -4.2499   -7.2636 C   0  0  0  0  0  0  0  0  0  0  0  0
   53.9895   -4.2571   -8.0305 N   0  0  0  0  0  0  0  0  0  0  0  0
   51.1735   -6.4155   -3.2068 C   0  0  0  0  0  0  0  0  0  0  0  0
   51.4623   -7.5512   -2.4028 N   0  0  0  0  0  0  0  0  0  0  0  0
   50.1473   -5.7500   -2.9442 O   0  0  0  0  0  0  0  0  0  0  0  0
   52.3781   -7.5809   -1.9059 H   0  0  0  0  0  0  0  0  0  0  0  0
   50.7944   -8.3444   -2.2969 H   0  0  0  0  0  0  0  0  0  0  0  0
   55.1687   -3.4409   -9.9324 N   0  0  0  0  0  0  0  0  0  0  0  0
   55.1757   -2.8193  -10.8204 H   0  0  0  0  0  0  0  0  0  0  0  0
   57.0739   -4.6009  -10.8406 C   0  0  0  0  0  0  0  0  0  0  0  0
   58.2173   -5.3138  -10.6733 C   0  0  0  0  0  0  0  0  0  0  0  0
   58.7099   -5.6480   -9.4332 C   0  0  0  0  0  0  0  0  0  0  0  0
   58.0085   -5.2389   -8.3286 C   0  0  0  0  0  0  0  0  0  0  0  0
   56.8360   -4.5085   -8.4782 C   0  0  0  0  0  0  0  0  0  0  0  0
   56.3442   -4.1746   -9.7208 C   0  0  0  0  0  0  0  0  0  0  0  0
   59.9090   -6.3966   -9.3305 N   0  0  0  0  0  0  0  0  0  0  0  0
   60.0433   -7.6463  -10.0636 C   0  0  0  0  0  0  0  0  0  0  0  0
   61.1515   -8.5015   -9.4352 C   0  0  0  0  0  0  0  0  0  0  0  0
   62.4025   -7.8178   -9.5005 N   0  0  0  0  0  0  0  0  0  0  0  0
   62.8612   -7.8947  -10.8967 C   0  0  0  0  0  0  0  0  0  0  0  0
   62.3494   -6.4372   -9.1536 C   0  0  0  0  0  0  0  0  0  0  0  0
   61.0393   -5.9975   -8.5312 C   0  0  0  0  0  0  0  0  0  0  0  0
   57.5123   -3.8985  -13.0891 C   0  0  0  0  0  0  0  0  0  0  0  0
   56.6029   -4.2798  -12.0866 O   0  0  0  0  0  0  0  0  0  0  0  0
 35 36  1  0  0  0
 36 22  1  0  0  0
 22 23  2  0  0  0
 23 24  1  0  0  0
 24 25  2  0  0  0
 25 26  1  0  0  0
 26 27  2  0  0  0
 27 20  1  0  0  0
 20  1  1  0  0  0
  1  2  2  0  0  0
  2  3  1  0  0  0
  3  4  2  0  0  0
  4  5  1  0  0  0
  5  6  1  0  0  0
  6  7  1  0  0  0
  7  8  1  0  0  0
  8  9  2  0  0  0
  9 10  1  0  0  0
 10 11  1  0  0  0
 10 12  1  0  0  0
 12 13  1  0  0  0
 13 14  2  0  0  0
  8 15  1  0  0  0
 15 16  1  0  0  0
 15 17  2  0  0  0
 24 28  1  0  0  0
 28 29  1  0  0  0
 29 30  1  0  0  0
 30 31  1  0  0  0
 31 32  1  0  0  0
 31 33  1  0  0  0
 33 34  1  0  0  0
 27 22  1  0  0  0
 14  1  1  0  0  0
 34 28  1  0  0  0
 13  4  1  0  0  0
 12  7  2  0  0  0
 20 21  1  0  0  0
 16 18  1  0  0  0
 16 19  1  0  0  0
M  END
> <minimizedAffinity>
-10.10361

> <CNNscore>
0.9511174560

> <CNNaffinity>
7.8056030273

> <CNN_VS>
7.4240450859

> <CNNaffinity_variance>
0.1274986416

$$$$
[H]c1nc(N([H])c2c([H])c([H])c(N3C([H])([H])C([H])([H])N(C([H])([H])[H])C([H])([H])C3([H])[H])c([H])c2OC([H])([H])[H])nc2c1C([H])([H])C([H])([H])c1c(C(=O)N([H])[H])nn(C([H])([H])[H])c1-2


 36 40  0  0  0  0  0  0  0  0999 V2000
   53.6517   -3.3371   -9.2832 C   0  0  0  0  0  0  0  0  0  0  0  0
   52.6247   -2.5088   -9.4113 N   0  0  0  0  0  0  0  0  0  0  0  0
   51.5721   -2.4404   -8.5862 C   0  0  0  0  0  0  0  0  0  0  0  0
   51.5797   -3.3199   -7.5157 C   0  0  0  0  0  0  0  0  0  0  0  0
   50.4389   -3.2668   -6.5994 C   0  0  0  0  0  0  0  0  0  0  0  0
   50.4806   -4.2113   -5.4630 C   0  0  0  0  0  0  0  0  0  0  0  0
   51.6257   -5.1053   -5.3622 C   0  0  0  0  0  0  0  0  0  0  0  0
   51.9272   -6.0914   -4.4154 C   0  0  0  0  0  0  0  0  0  0  0  0
   53.0844   -6.6198   -4.7706 N   0  0  0  0  0  0  0  0  0  0  0  0
   53.5575   -6.0712   -5.8525 N   0  0  0  0  0  0  0  0  0  0  0  0
   54.7861   -6.3608   -6.5622 C   0  0  0  0  0  0  0  0  0  0  0  0
   52.6537   -5.1239   -6.2301 C   0  0  0  0  0  0  0  0  0  0  0  0
   52.6309   -4.1867   -7.3613 C   0  0  0  0  0  0  0  0  0  0  0  0
   53.6687   -4.2236   -8.2119 N   0  0  0  0  0  0  0  0  0  0  0  0
   51.0962   -6.4333   -3.2767 C   0  0  0  0  0  0  0  0  0  0  0  0
   51.4727   -7.5215   -2.4439 N   0  0  0  0  0  0  0  0  0  0  0  0
   50.0520   -5.8050   -2.9938 O   0  0  0  0  0  0  0  0  0  0  0  0
   52.4094   -7.4896   -1.9879 H   0  0  0  0  0  0  0  0  0  0  0  0
   50.8481   -8.3393   -2.2779 H   0  0  0  0  0  0  0  0  0  0  0  0
   54.7493   -3.3912  -10.1647 N   0  0  0  0  0  0  0  0  0  0  0  0
   54.6838   -2.8051  -11.0742 H   0  0  0  0  0  0  0  0  0  0  0  0
   56.5619   -4.1307   -8.7618 C   0  0  0  0  0  0  0  0  0  0  0  0
   57.7163   -4.8232   -8.5844 C   0  0  0  0  0  0  0  0  0  0  0  0
   58.3223   -5.5294   -9.5974 C   0  0  0  0  0  0  0  0  0  0  0  0
   57.7269   -5.5262  -10.8322 C   0  0  0  0  0  0  0  0  0  0  0  0
   56.5453   -4.8237  -11.0347 C   0  0  0  0  0  0  0  0  0  0  0  0
   55.9397   -4.1170  -10.0191 C   0  0  0  0  0  0  0  0  0  0  0  0
   59.5285   -6.2291   -9.3437 N   0  0  0  0  0  0  0  0  0  0  0  0
   59.8967   -7.3586  -10.1839 C   0  0  0  0  0  0  0  0  0  0  0  0
   60.9174   -8.2403   -9.4523 C   0  0  0  0  0  0  0  0  0  0  0  0
   62.1030   -7.4974   -9.1714 N   0  0  0  0  0  0  0  0  0  0  0  0
   62.8344   -7.3602  -10.4411 C   0  0  0  0  0  0  0  0  0  0  0  0
   61.8815   -6.1815   -8.6728 C   0  0  0  0  0  0  0  0  0  0  0  0
   60.4452   -5.8922   -8.2845 C   0  0  0  0  0  0  0  0  0  0  0  0
   56.5418   -3.4977   -6.4510 C   0  0  0  0  0  0  0  0  0  0  0  0
   55.9767   -3.4343   -7.7371 O   0  0  0  0  0  0  0  0  0  0  0  0
 35 36  1  0  0  0
 36 22  1  0  0  0
 22 23  2  0  0  0
 23 24  1  0  0  0
 24 25  2  0  0  0
 25 26  1  0  0  0
 26 27  2  0  0  0
 27 20  1  0  0  0
 20  1  1  0  0  0
  1  2  2  0  0  0
  2  3  1  0  0  0
  3  4  2  0  0  0
  4  5  1  0  0  0
  5  6  1  0  0  0
  6  7  1  0  0  0
  7  8  1  0  0  0
  8  9  2  0  0  0
  9 10  1  0  0  0
 10 11  1  0  0  0
 10 12  1  0  0  0
 12 13  1  0  0  0
 13 14  2  0  0  0
  8 15  1  0  0  0
 15 16  1  0  0  0
 15 17  2  0  0  0
 24 28  1  0  0  0
 28 29  1  0  0  0
 29 30  1  0  0  0
 30 31  1  0  0  0
 31 32  1  0  0  0
 31 33  1  0  0  0
 33 34  1  0  0  0
 27 22  1  0  0  0
 14  1  1  0  0  0
 34 28  1  0  0  0
 13  4  1  0  0  0
 12  7  2  0  0  0
 20 21  1  0  0  0
 16 18  1  0  0  0
 16 19  1  0  0  0
M  END
> <minimizedAffinity>
-8.83954

> <CNNscore>
0.9061151147

> <CNNaffinity>
7.6442222595

> <CNN_VS>
6.9265451431

> <CNNaffinity_variance>
0.1024720222

$$$$
[H]c1nc(N([H])c2c([H])c([H])c(N3C([H])([H])C([H])([H])N(C([H])([H])[H])C([H])([H])C3([H])[H])c([H])c2OC([H])([H])[H])nc2c1C([H])([H])C([H])([H])c1c(C(=O)N([H])[H])nn(C([H])([H])[H])c1-2


 36 40  0  0  0  0  0  0  0  0999 V2000
   53.3291   -4.5863   -7.7202 C   0  0  0  0  0  0  0  0  0  0  0  0
   53.1198   -3.5877   -8.5664 N   0  0  0  0  0  0  0  0  0  0  0  0
   52.0735   -2.7520   -8.5408 C   0  0  0  0  0  0  0  0  0  0  0  0
   51.1450   -2.9699   -7.5358 C   0  0  0  0  0  0  0  0  0  0  0  0
   49.9903   -2.0709   -7.4869 C   0  0  0  0  0  0  0  0  0  0  0  0
   49.0224   -2.3237   -6.3986 C   0  0  0  0  0  0  0  0  0  0  0  0
   49.2898   -3.4327   -5.4935 C   0  0  0  0  0  0  0  0  0  0  0  0
   48.5603   -3.9051   -4.3961 C   0  0  0  0  0  0  0  0  0  0  0  0
   49.2290   -4.9345   -3.9084 N   0  0  0  0  0  0  0  0  0  0  0  0
   50.3169   -5.1712   -4.5837 N   0  0  0  0  0  0  0  0  0  0  0  0
   51.3159   -6.1988   -4.3764 C   0  0  0  0  0  0  0  0  0  0  0  0
   50.3640   -4.2386   -5.5760 C   0  0  0  0  0  0  0  0  0  0  0  0
   51.3391   -3.9966   -6.6480 C   0  0  0  0  0  0  0  0  0  0  0  0
   52.4030   -4.8130   -6.7079 N   0  0  0  0  0  0  0  0  0  0  0  0
   47.3118   -3.3397   -3.9212 C   0  0  0  0  0  0  0  0  0  0  0  0
   46.3843   -4.1756   -3.2424 N   0  0  0  0  0  0  0  0  0  0  0  0
   47.0137   -2.1358   -4.0853 O   0  0  0  0  0  0  0  0  0  0  0  0
   46.7055   -4.6674   -2.3814 H   0  0  0  0  0  0  0  0  0  0  0  0
   45.4059   -4.3094   -3.5759 H   0  0  0  0  0  0  0  0  0  0  0  0
   54.4384   -5.4536   -7.7665 N   0  0  0  0  0  0  0  0  0  0  0  0
   54.8346   -5.6994   -8.7451 H   0  0  0  0  0  0  0  0  0  0  0  0
   56.4454   -5.6875   -6.4560 C   0  0  0  0  0  0  0  0  0  0  0  0
   57.1287   -6.2483   -5.4254 C   0  0  0  0  0  0  0  0  0  0  0  0
   56.5686   -7.1788   -4.5812 C   0  0  0  0  0  0  0  0  0  0  0  0
   55.2663   -7.5470   -4.7997 C   0  0  0  0  0  0  0  0  0  0  0  0
   54.5495   -6.9850   -5.8490 C   0  0  0  0  0  0  0  0  0  0  0  0
   55.1120   -6.0533   -6.6934 C   0  0  0  0  0  0  0  0  0  0  0  0
   57.3400   -7.7261   -3.5257 N   0  0  0  0  0  0  0  0  0  0  0  0
   58.7894   -7.6006   -3.5523 C   0  0  0  0  0  0  0  0  0  0  0  0
   59.4199   -8.6552   -2.6334 C   0  0  0  0  0  0  0  0  0  0  0  0
   58.9874   -8.4620   -1.2872 N   0  0  0  0  0  0  0  0  0  0  0  0
   59.7104   -7.2900   -0.7681 C   0  0  0  0  0  0  0  0  0  0  0  0
   57.5962   -8.1947   -1.1375 C   0  0  0  0  0  0  0  0  0  0  0  0
   56.7770   -8.4162   -2.3932 C   0  0  0  0  0  0  0  0  0  0  0  0
   57.9342   -5.1919   -8.2667 C   0  0  0  0  0  0  0  0  0  0  0  0
   57.0250   -4.7623   -7.2838 O   0  0  0  0  0  0  0  0  0  0  0  0
 35 36  1  0  0  0
 36 22  1  0  0  0
 22 23  2  0  0  0
 23 24  1  0  0  0
 24 25  2  0  0  0
 25 26  1  0  0  0
 26 27  2  0  0  0
 27 20  1  0  0  0
 20  1  1  0  0  0
  1  2  2  0  0  0
  2  3  1  0  0  0
  3  4  2  0  0  0
  4  5  1  0  0  0
  5  6  1  0  0  0
  6  7  1  0  0  0
  7  8  1  0  0  0
  8  9  2  0  0  0
  9 10  1  0  0  0
 10 11  1  0  0  0
 10 12  1  0  0  0
 12 13  1  0  0  0
 13 14  2  0  0  0
  8 15  1  0  0  0
 15 16  1  0  0  0
 15 17  2  0  0  0
 24 28  1  0  0  0
 28 29  1  0  0  0
 29 30  1  0  0  0
 30 31  1  0  0  0
 31 32  1  0  0  0
 31 33  1  0  0  0
 33 34  1  0  0  0
 27 22  1  0  0  0
 14  1  1  0  0  0
 34 28  1  0  0  0
 13  4  1  0  0  0
 12  7  2  0  0  0
 20 21  1  0  0  0
 16 18  1  0  0  0
 16 19  1  0  0  0
M  END
> <minimizedAffinity>
-9.27939

> <CNNscore>
0.8065488935

> <CNNaffinity>
7.6530175209

> <CNN_VS>
6.1725330353

> <CNNaffinity_variance>
0.1090299934

$$$$
[H]c1nc(N([H])c2c([H])c([H])c(N3C([H])([H])C([H])([H])N(C([H])([H])[H])C([H])([H])C3([H])[H])c([H])c2OC([H])([H])[H])nc2c1C([H])([H])C([H])([H])c1c(C(=O)N([H])[H])nn(C([H])([H])[H])c1-2


 36 40  0  0  0  0  0  0  0  0999 V2000
   54.3590   -4.2156   -9.1055 C   0  0  0  0  0  0  0  0  0  0  0  0
   53.7266   -3.2207   -9.7117 N   0  0  0  0  0  0  0  0  0  0  0  0
   52.5858   -2.6554   -9.2962 C   0  0  0  0  0  0  0  0  0  0  0  0
   52.0397   -3.1713   -8.1321 C   0  0  0  0  0  0  0  0  0  0  0  0
   50.7911   -2.5719   -7.6572 C   0  0  0  0  0  0  0  0  0  0  0  0
   50.2383   -3.1381   -6.4086 C   0  0  0  0  0  0  0  0  0  0  0  0
   50.9636   -4.2318   -5.7774 C   0  0  0  0  0  0  0  0  0  0  0  0
   50.6809   -4.9565   -4.6136 C   0  0  0  0  0  0  0  0  0  0  0  0
   51.6499   -5.8428   -4.4714 N   0  0  0  0  0  0  0  0  0  0  0  0
   52.5284   -5.7600   -5.4290 N   0  0  0  0  0  0  0  0  0  0  0  0
   53.7283   -6.5430   -5.6386 C   0  0  0  0  0  0  0  0  0  0  0  0
   52.1088   -4.7567   -6.2500 C   0  0  0  0  0  0  0  0  0  0  0  0
   52.6750   -4.2006   -7.4864 C   0  0  0  0  0  0  0  0  0  0  0  0
   53.8189   -4.7401   -7.9363 N   0  0  0  0  0  0  0  0  0  0  0  0
   49.5300   -4.7401   -3.7576 C   0  0  0  0  0  0  0  0  0  0  0  0
   48.5861   -3.7356   -4.1035 N   0  0  0  0  0  0  0  0  0  0  0  0
   49.3310   -5.4064   -2.7177 O   0  0  0  0  0  0  0  0  0  0  0  0
   48.1176   -3.8010   -5.0323 H   0  0  0  0  0  0  0  0  0  0  0  0
   48.3518   -2.9462   -3.4644 H   0  0  0  0  0  0  0  0  0  0  0  0
   55.5594   -4.7951   -9.5617 N   0  0  0  0  0  0  0  0  0  0  0  0
   55.9718   -5.6076   -8.9746 H   0  0  0  0  0  0  0  0  0  0  0  0
   57.7029   -4.5794  -10.6382 C   0  0  0  0  0  0  0  0  0  0  0  0
   58.4587   -4.2577  -11.7194 C   0  0  0  0  0  0  0  0  0  0  0  0
   57.9141   -3.8040  -12.8983 C   0  0  0  0  0  0  0  0  0  0  0  0
   56.5513   -3.6757  -12.9723 C   0  0  0  0  0  0  0  0  0  0  0  0
   55.7599   -3.9995  -11.8771 C   0  0  0  0  0  0  0  0  0  0  0  0
   56.3069   -4.4537  -10.6973 C   0  0  0  0  0  0  0  0  0  0  0  0
   58.7620   -3.4838  -13.9880 N   0  0  0  0  0  0  0  0  0  0  0  0
   60.2060   -3.5432  -13.8191 C   0  0  0  0  0  0  0  0  0  0  0  0
   60.8918   -2.7038  -14.9051 C   0  0  0  0  0  0  0  0  0  0  0  0
   60.5799   -3.2174  -16.1995 N   0  0  0  0  0  0  0  0  0  0  0  0
   61.3676   -4.4481  -16.3741 C   0  0  0  0  0  0  0  0  0  0  0  0
   59.2122   -3.5661  -16.3920 C   0  0  0  0  0  0  0  0  0  0  0  0
   58.2843   -3.0945  -15.2903 C   0  0  0  0  0  0  0  0  0  0  0  0
   59.3134   -5.9683   -9.5346 C   0  0  0  0  0  0  0  0  0  0  0  0
   58.2684   -5.0294   -9.4742 O   0  0  0  0  0  0  0  0  0  0  0  0
 35 36  1  0  0  0
 36 22  1  0  0  0
 22 23  2  0  0  0
 23 24  1  0  0  0
 24 25  2  0  0  0
 25 26  1  0  0  0
 26 27  2  0  0  0
 27 20  1  0  0  0
 20  1  1  0  0  0
  1  2  2  0  0  0
  2  3  1  0  0  0
  3  4  2  0  0  0
  4  5  1  0  0  0
  5  6  1  0  0  0
  6  7  1  0  0  0
  7  8  1  0  0  0
  8  9  2  0  0  0
  9 10  1  0  0  0
 10 11  1  0  0  0
 10 12  1  0  0  0
 12 13  1  0  0  0
 13 14  2  0  0  0
  8 15  1  0  0  0
 15 16  1  0  0  0
 15 17  2  0  0  0
 24 28  1  0  0  0
 28 29  1  0  0  0
 29 30  1  0  0  0
 30 31  1  0  0  0
 31 32  1  0  0  0
 31 33  1  0  0  0
 33 34  1  0  0  0
 27 22  1  0  0  0
 14  1  1  0  0  0
 34 28  1  0  0  0
 13  4  1  0  0  0
 12  7  2  0  0  0
 20 21  1  0  0  0
 16 18  1  0  0  0
 16 19  1  0  0  0
M  END
> <minimizedAffinity>
-9.75086

> <CNNscore>
0.7120706439

> <CNNaffinity>
7.2285890579

> <CNN_VS>
5.1472659111

> <CNNaffinity_variance>
0.0395940579

$$$$
[H]c1nc(N([H])c2c([H])c([H])c(N3C([H])([H])C([H])([H])N(C([H])([H])[H])C([H])([H])C3([H])[H])c([H])c2OC([H])([H])[H])nc2c1C([H])([H])C([H])([H])c1c(C(=O)N([H])[H])nn(C([H])([H])[H])c1-2


 36 40  0  0  0  0  0  0  0  0999 V2000
   56.0724   -5.3946   -7.6408 C   0  0  0  0  0  0  0  0  0  0  0  0
   56.0462   -6.3194   -6.6915 N   0  0  0  0  0  0  0  0  0  0  0  0
   55.0141   -6.5682   -5.8752 C   0  0  0  0  0  0  0  0  0  0  0  0
   53.8899   -5.7792   -6.0577 C   0  0  0  0  0  0  0  0  0  0  0  0
   52.7477   -6.0298   -5.1765 C   0  0  0  0  0  0  0  0  0  0  0  0
   51.5609   -5.1778   -5.4017 C   0  0  0  0  0  0  0  0  0  0  0  0
   51.6338   -4.1727   -6.4529 C   0  0  0  0  0  0  0  0  0  0  0  0
   50.6857   -3.2358   -6.8806 C   0  0  0  0  0  0  0  0  0  0  0  0
   51.2399   -2.5560   -7.8682 N   0  0  0  0  0  0  0  0  0  0  0  0
   52.4512   -2.9629   -8.1183 N   0  0  0  0  0  0  0  0  0  0  0  0
   53.3893   -2.4843   -9.1123 C   0  0  0  0  0  0  0  0  0  0  0  0
   52.7068   -3.9725   -7.2396 C   0  0  0  0  0  0  0  0  0  0  0  0
   53.8922   -4.8156   -7.0332 C   0  0  0  0  0  0  0  0  0  0  0  0
   54.9489   -4.5977   -7.8318 N   0  0  0  0  0  0  0  0  0  0  0  0
   49.3587   -3.0779   -6.3164 C   0  0  0  0  0  0  0  0  0  0  0  0
   49.1719   -3.2584   -4.9192 N   0  0  0  0  0  0  0  0  0  0  0  0
   48.3620   -2.7866   -7.0140 O   0  0  0  0  0  0  0  0  0  0  0  0
   49.7234   -2.6592   -4.2686 H   0  0  0  0  0  0  0  0  0  0  0  0
   48.5088   -3.9629   -4.5313 H   0  0  0  0  0  0  0  0  0  0  0  0
   57.1709   -5.1505   -8.4884 N   0  0  0  0  0  0  0  0  0  0  0  0
   58.1607   -5.2478   -8.0573 H   0  0  0  0  0  0  0  0  0  0  0  0
   58.3464   -4.8958  -10.5749 C   0  0  0  0  0  0  0  0  0  0  0  0
   58.3670   -4.5564  -11.8894 C   0  0  0  0  0  0  0  0  0  0  0  0
   57.2528   -4.1047  -12.5578 C   0  0  0  0  0  0  0  0  0  0  0  0
   56.0795   -3.9970  -11.8571 C   0  0  0  0  0  0  0  0  0  0  0  0
   56.0373   -4.3391  -10.5110 C   0  0  0  0  0  0  0  0  0  0  0  0
   57.1540   -4.7914   -9.8433 C   0  0  0  0  0  0  0  0  0  0  0  0
   57.3450   -3.7653  -13.9308 N   0  0  0  0  0  0  0  0  0  0  0  0
   58.6503   -3.5267  -14.5280 C   0  0  0  0  0  0  0  0  0  0  0  0
   58.4909   -2.7123  -15.8185 C   0  0  0  0  0  0  0  0  0  0  0  0
   57.7005   -3.4315  -16.7643 N   0  0  0  0  0  0  0  0  0  0  0  0
   58.5515   -4.5012  -17.3095 C   0  0  0  0  0  0  0  0  0  0  0  0
   56.5399   -4.0559  -16.2234 C   0  0  0  0  0  0  0  0  0  0  0  0
   56.2070   -3.6379  -14.8051 C   0  0  0  0  0  0  0  0  0  0  0  0
   59.7489   -6.7215   -9.9111 C   0  0  0  0  0  0  0  0  0  0  0  0
   59.4697   -5.3435   -9.9305 O   0  0  0  0  0  0  0  0  0  0  0  0
 35 36  1  0  0  0
 36 22  1  0  0  0
 22 23  2  0  0  0
 23 24  1  0  0  0
 24 25  2  0  0  0
 25 26  1  0  0  0
 26 27  2  0  0  0
 27 20  1  0  0  0
 20  1  1  0  0  0
  1  2  2  0  0  0
  2  3  1  0  0  0
  3  4  2  0  0  0
  4  5  1  0  0  0
  5  6  1  0  0  0
  6  7  1  0  0  0
  7  8  1  0  0  0
  8  9  2  0  0  0
  9 10  1  0  0  0
 10 11  1  0  0  0
 10 12  1  0  0  0
 12 13  1  0  0  0
 13 14  2  0  0  0
  8 15  1  0  0  0
 15 16  1  0  0  0
 15 17  2  0  0  0
 24 28  1  0  0  0
 28 29  1  0  0  0
 29 30  1  0  0  0
 30 31  1  0  0  0
 31 32  1  0  0  0
 31 33  1  0  0  0
 33 34  1  0  0  0
 27 22  1  0  0  0
 14  1  1  0  0  0
 34 28  1  0  0  0
 13  4  1  0  0  0
 12  7  2  0  0  0
 20 21  1  0  0  0
 16 18  1  0  0  0
 16 19  1  0  0  0
M  END
> <minimizedAffinity>
-8.41559

> <CNNscore>
0.6595046520

> <CNNaffinity>
7.3565430641

> <CNN_VS>
4.8516745567

> <CNNaffinity_variance>
0.0514282398

$$$$
[H]c1nc(N([H])c2c([H])c([H])c(N3C([H])([H])C([H])([H])N(C([H])([H])[H])C([H])([H])C3([H])[H])c([H])c2OC([H])([H])[H])nc2c1C([H])([H])C([H])([H])c1c(C(=O)N([H])[H])nn(C([H])([H])[H])c1-2


 36 40  0  0  0  0  0  0  0  0999 V2000
   54.0721   -4.9068   -7.9355 C   0  0  0  0  0  0  0  0  0  0  0  0
   54.2369   -6.0446   -7.2756 N   0  0  0  0  0  0  0  0  0  0  0  0
   53.4161   -6.5231   -6.3318 C   0  0  0  0  0  0  0  0  0  0  0  0
   52.3079   -5.7453   -6.0376 C   0  0  0  0  0  0  0  0  0  0  0  0
   51.3953   -6.2453   -5.0076 C   0  0  0  0  0  0  0  0  0  0  0  0
   50.2184   -5.3974   -4.7226 C   0  0  0  0  0  0  0  0  0  0  0  0
   50.0778   -4.1547   -5.4685 C   0  0  0  0  0  0  0  0  0  0  0  0
   49.0884   -3.1662   -5.4079 C   0  0  0  0  0  0  0  0  0  0  0  0
   49.4194   -2.2407   -6.2902 N   0  0  0  0  0  0  0  0  0  0  0  0
   50.5243   -2.5359   -6.9127 N   0  0  0  0  0  0  0  0  0  0  0  0
   51.2200   -1.7924   -7.9424 C   0  0  0  0  0  0  0  0  0  0  0  0
   50.9436   -3.7296   -6.4067 C   0  0  0  0  0  0  0  0  0  0  0  0
   52.1150   -4.5641   -6.7066 C   0  0  0  0  0  0  0  0  0  0  0  0
   52.9628   -4.1192   -7.6475 N   0  0  0  0  0  0  0  0  0  0  0  0
   47.9361   -3.1953   -4.5273 C   0  0  0  0  0  0  0  0  0  0  0  0
   47.7592   -4.3000   -3.6510 N   0  0  0  0  0  0  0  0  0  0  0  0
   47.0830   -2.2805   -4.5062 O   0  0  0  0  0  0  0  0  0  0  0  0
   48.5192   -4.5133   -2.9703 H   0  0  0  0  0  0  0  0  0  0  0  0
   46.9036   -4.8950   -3.6688 H   0  0  0  0  0  0  0  0  0  0  0  0
   54.9498   -4.4230   -8.9255 N   0  0  0  0  0  0  0  0  0  0  0  0
   54.5674   -3.6645   -9.5990 H   0  0  0  0  0  0  0  0  0  0  0  0
   57.1064   -5.0483   -8.0548 C   0  0  0  0  0  0  0  0  0  0  0  0
   58.3999   -5.4150   -8.2448 C   0  0  0  0  0  0  0  0  0  0  0  0
   58.9556   -5.5588   -9.4949 C   0  0  0  0  0  0  0  0  0  0  0  0
   58.1607   -5.3193  -10.5859 C   0  0  0  0  0  0  0  0  0  0  0  0
   56.8343   -4.9430  -10.4130 C   0  0  0  0  0  0  0  0  0  0  0  0
   56.2795   -4.7995   -9.1604 C   0  0  0  0  0  0  0  0  0  0  0  0
   60.3141   -5.9424   -9.6214 N   0  0  0  0  0  0  0  0  0  0  0  0
   61.0553   -6.3681   -8.4438 C   0  0  0  0  0  0  0  0  0  0  0  0
   62.5623   -6.2461   -8.7055 C   0  0  0  0  0  0  0  0  0  0  0  0
   62.9462   -7.0864   -9.7931 N   0  0  0  0  0  0  0  0  0  0  0  0
   62.9445   -8.4689   -9.2888 C   0  0  0  0  0  0  0  0  0  0  0  0
   62.0705   -7.0503  -10.9161 C   0  0  0  0  0  0  0  0  0  0  0  0
   61.0357   -5.9439  -10.8684 C   0  0  0  0  0  0  0  0  0  0  0  0
   56.9595   -5.8094   -5.7876 C   0  0  0  0  0  0  0  0  0  0  0  0
   56.5752   -4.9115   -6.7993 O   0  0  0  0  0  0  0  0  0  0  0  0
 35 36  1  0  0  0
 36 22  1  0  0  0
 22 23  2  0  0  0
 23 24  1  0  0  0
 24 25  2  0  0  0
 25 26  1  0  0  0
 26 27  2  0  0  0
 27 20  1  0  0  0
 20  1  1  0  0  0
  1  2  2  0  0  0
  2  3  1  0  0  0
  3  4  2  0  0  0
  4  5  1  0  0  0
  5  6  1  0  0  0
  6  7  1  0  0  0
  7  8  1  0  0  0
  8  9  2  0  0  0
  9 10  1  0  0  0
 10 11  1  0  0  0
 10 12  1  0  0  0
 12 13  1  0  0  0
 13 14  2  0  0  0
  8 15  1  0  0  0
 15 16  1  0  0  0
 15 17  2  0  0  0
 24 28  1  0  0  0
 28 29  1  0  0  0
 29 30  1  0  0  0
 30 31  1  0  0  0
 31 32  1  0  0  0
 31 33  1  0  0  0
 33 34  1  0  0  0
 27 22  1  0  0  0
 14  1  1  0  0  0
 34 28  1  0  0  0
 13  4  1  0  0  0
 12  7  2  0  0  0
 20 21  1  0  0  0
 16 18  1  0  0  0
 16 19  1  0  0  0
M  END
> <minimizedAffinity>
-8.14011

> <CNNscore>
0.6547837853

> <CNNaffinity>
7.3685083389

> <CNN_VS>
4.8247799873

> <CNNaffinity_variance>
0.1865993142

$$$$
[H]c1nc(N([H])c2c([H])c([H])c(N3C([H])([H])C([H])([H])N(C([H])([H])[H])C([H])([H])C3([H])[H])c([H])c2OC([H])([H])[H])nc2c1C([H])([H])C([H])([H])c1c(C(=O)N([H])[H])nn(C([H])([H])[H])c1-2


 36 40  0  0  0  0  0  0  0  0999 V2000
   54.4752   -4.1599   -8.9600 C   0  0  0  0  0  0  0  0  0  0  0  0
   53.7083   -3.2395   -9.5273 N   0  0  0  0  0  0  0  0  0  0  0  0
   52.5263   -2.8160   -9.0613 C   0  0  0  0  0  0  0  0  0  0  0  0
   52.0893   -3.4045   -7.8857 C   0  0  0  0  0  0  0  0  0  0  0  0
   50.7986   -2.9603   -7.3559 C   0  0  0  0  0  0  0  0  0  0  0  0
   50.3642   -3.6005   -6.0963 C   0  0  0  0  0  0  0  0  0  0  0  0
   51.2358   -4.6084   -5.5089 C   0  0  0  0  0  0  0  0  0  0  0  0
   51.0845   -5.3736   -4.3464 C   0  0  0  0  0  0  0  0  0  0  0  0
   52.1549   -6.1419   -4.2537 N   0  0  0  0  0  0  0  0  0  0  0  0
   52.9801   -5.9468   -5.2417 N   0  0  0  0  0  0  0  0  0  0  0  0
   54.2542   -6.5818   -5.5075 C   0  0  0  0  0  0  0  0  0  0  0  0
   52.4152   -4.9908   -6.0314 C   0  0  0  0  0  0  0  0  0  0  0  0
   52.8647   -4.3592   -7.2795 C   0  0  0  0  0  0  0  0  0  0  0  0
   54.0454   -4.7563   -7.7796 N   0  0  0  0  0  0  0  0  0  0  0  0
   49.9501   -5.3023   -3.4452 C   0  0  0  0  0  0  0  0  0  0  0  0
   48.8343   -4.4950   -3.7954 N   0  0  0  0  0  0  0  0  0  0  0  0
   49.9118   -5.9273   -2.3622 O   0  0  0  0  0  0  0  0  0  0  0  0
   48.3458   -4.6957   -4.6941 H   0  0  0  0  0  0  0  0  0  0  0  0
   48.4947   -3.7187   -3.1884 H   0  0  0  0  0  0  0  0  0  0  0  0
   55.7164   -4.5901   -9.4690 N   0  0  0  0  0  0  0  0  0  0  0  0
   56.3395   -5.1893   -8.8148 H   0  0  0  0  0  0  0  0  0  0  0  0
   57.6531   -4.4597  -10.8946 C   0  0  0  0  0  0  0  0  0  0  0  0
   58.2184   -4.2261  -12.1068 C   0  0  0  0  0  0  0  0  0  0  0  0
   57.4828   -3.8710  -13.2137 C   0  0  0  0  0  0  0  0  0  0  0  0
   56.1243   -3.7513  -13.0745 C   0  0  0  0  0  0  0  0  0  0  0  0
   55.5263   -3.9859  -11.8424 C   0  0  0  0  0  0  0  0  0  0  0  0
   56.2644   -4.3414  -10.7350 C   0  0  0  0  0  0  0  0  0  0  0  0
   58.1376   -3.6395  -14.4492 N   0  0  0  0  0  0  0  0  0  0  0  0
   57.3524   -3.5079  -15.6672 C   0  0  0  0  0  0  0  0  0  0  0  0
   58.2420   -3.7668  -16.8902 C   0  0  0  0  0  0  0  0  0  0  0  0
   59.3002   -2.8109  -16.9448 N   0  0  0  0  0  0  0  0  0  0  0  0
   58.7087   -1.5412  -17.3960 C   0  0  0  0  0  0  0  0  0  0  0  0
   59.9402   -2.5539  -15.6984 C   0  0  0  0  0  0  0  0  0  0  0  0
   59.5662   -3.5191  -14.5913 C   0  0  0  0  0  0  0  0  0  0  0  0
   58.9858   -6.0928   -9.7553 C   0  0  0  0  0  0  0  0  0  0  0  0
   58.4069   -4.8123   -9.8060 O   0  0  0  0  0  0  0  0  0  0  0  0
 35 36  1  0  0  0
 36 22  1  0  0  0
 22 23  2  0  0  0
 23 24  1  0  0  0
 24 25  2  0  0  0
 25 26  1  0  0  0
 26 27  2  0  0  0
 27 20  1  0  0  0
 20  1  1  0  0  0
  1  2  2  0  0  0
  2  3  1  0  0  0
  3  4  2  0  0  0
  4  5  1  0  0  0
  5  6  1  0  0  0
  6  7  1  0  0  0
  7  8  1  0  0  0
  8  9  2  0  0  0
  9 10  1  0  0  0
 10 11  1  0  0  0
 10 12  1  0  0  0
 12 13  1  0  0  0
 13 14  2  0  0  0
  8 15  1  0  0  0
 15 16  1  0  0  0
 15 17  2  0  0  0
 24 28  1  0  0  0
 28 29  1  0  0  0
 29 30  1  0  0  0
 30 31  1  0  0  0
 31 32  1  0  0  0
 31 33  1  0  0  0
 33 34  1  0  0  0
 27 22  1  0  0  0
 14  1  1  0  0  0
 34 28  1  0  0  0
 13  4  1  0  0  0
 12  7  2  0  0  0
 20 21  1  0  0  0
 16 18  1  0  0  0
 16 19  1  0  0  0
M  END
> <minimizedAffinity>
-9.51658

> <CNNscore>
0.6289502382

> <CNNaffinity>
7.1540589333

> <CNN_VS>
4.4995470047

> <CNNaffinity_variance>
0.0340536460

$$$$
[H]c1nc(N([H])c2c([H])c([H])c(N3C([H])([H])C([H])([H])N(C([H])([H])[H])C([H])([H])C3([H])[H])c([H])c2OC([H])([H])[H])nc2c1C([H])([H])C([H])([H])c1c(C(=O)N([H])[H])nn(C([H])([H])[H])c1-2


 36 40  0  0  0  0  0  0  0  0999 V2000
   54.4405   -4.9789   -7.7477 C   0  0  0  0  0  0  0  0  0  0  0  0
   54.6657   -6.0028   -6.9364 N   0  0  0  0  0  0  0  0  0  0  0  0
   53.8639   -6.3964   -5.9386 C   0  0  0  0  0  0  0  0  0  0  0  0
   52.7072   -5.6552   -5.7588 C   0  0  0  0  0  0  0  0  0  0  0  0
   51.8140   -6.0639   -4.6730 C   0  0  0  0  0  0  0  0  0  0  0  0
   50.5847   -5.2588   -4.5122 C   0  0  0  0  0  0  0  0  0  0  0  0
   50.3784   -4.1415   -5.4231 C   0  0  0  0  0  0  0  0  0  0  0  0
   49.3305   -3.2168   -5.5031 C   0  0  0  0  0  0  0  0  0  0  0  0
   49.6158   -2.4029   -6.5035 N   0  0  0  0  0  0  0  0  0  0  0  0
   50.7440   -2.7125   -7.0752 N   0  0  0  0  0  0  0  0  0  0  0  0
   51.4060   -2.0763   -8.1951 C   0  0  0  0  0  0  0  0  0  0  0  0
   51.2283   -3.7971   -6.4077 C   0  0  0  0  0  0  0  0  0  0  0  0
   52.4516   -4.5913   -6.5851 C   0  0  0  0  0  0  0  0  0  0  0  0
   53.2823   -4.2289   -7.5753 N   0  0  0  0  0  0  0  0  0  0  0  0
   48.1715   -3.1953   -4.6312 C   0  0  0  0  0  0  0  0  0  0  0  0
   47.9247   -4.3032   -3.7762 N   0  0  0  0  0  0  0  0  0  0  0  0
   47.3720   -2.2336   -4.5996 O   0  0  0  0  0  0  0  0  0  0  0  0
   48.6658   -4.5717   -3.0942 H   0  0  0  0  0  0  0  0  0  0  0  0
   47.0365   -4.8478   -3.8107 H   0  0  0  0  0  0  0  0  0  0  0  0
   55.2995   -4.5829   -8.7918 N   0  0  0  0  0  0  0  0  0  0  0  0
   54.8901   -3.9206   -9.5459 H   0  0  0  0  0  0  0  0  0  0  0  0
   57.1433   -4.9414  -10.2991 C   0  0  0  0  0  0  0  0  0  0  0  0
   58.4380   -5.2807  -10.5276 C   0  0  0  0  0  0  0  0  0  0  0  0
   59.3040   -5.6302   -9.5176 C   0  0  0  0  0  0  0  0  0  0  0  0
   58.8286   -5.6322   -8.2318 C   0  0  0  0  0  0  0  0  0  0  0  0
   57.5068   -5.2882   -7.9766 C   0  0  0  0  0  0  0  0  0  0  0  0
   56.6409   -4.9385   -8.9892 C   0  0  0  0  0  0  0  0  0  0  0  0
   60.6433   -5.9758   -9.8270 N   0  0  0  0  0  0  0  0  0  0  0  0
   61.5064   -6.5165   -8.7877 C   0  0  0  0  0  0  0  0  0  0  0  0
   62.9768   -6.3425   -9.1899 C   0  0  0  0  0  0  0  0  0  0  0  0
   63.2475   -7.0519  -10.3982 N   0  0  0  0  0  0  0  0  0  0  0  0
   63.3049   -8.4814  -10.0530 C   0  0  0  0  0  0  0  0  0  0  0  0
   62.2581   -6.9066  -11.4127 C   0  0  0  0  0  0  0  0  0  0  0  0
   61.2294   -5.8288  -11.1349 C   0  0  0  0  0  0  0  0  0  0  0  0
   56.8063   -3.8821  -12.4216 C   0  0  0  0  0  0  0  0  0  0  0  0
   56.2992   -4.5969  -11.3219 O   0  0  0  0  0  0  0  0  0  0  0  0
 35 36  1  0  0  0
 36 22  1  0  0  0
 22 23  2  0  0  0
 23 24  1  0  0  0
 24 25  2  0  0  0
 25 26  1  0  0  0
 26 27  2  0  0  0
 27 20  1  0  0  0
 20  1  1  0  0  0
  1  2  2  0  0  0
  2  3  1  0  0  0
  3  4  2  0  0  0
  4  5  1  0  0  0
  5  6  1  0  0  0
  6  7  1  0  0  0
  7  8  1  0  0  0
  8  9  2  0  0  0
  9 10  1  0  0  0
 10 11  1  0  0  0
 10 12  1  0  0  0
 12 13  1  0  0  0
 13 14  2  0  0  0
  8 15  1  0  0  0
 15 16  1  0  0  0
 15 17  2  0  0  0
 24 28  1  0  0  0
 28 29  1  0  0  0
 29 30  1  0  0  0
 30 31  1  0  0  0
 31 32  1  0  0  0
 31 33  1  0  0  0
 33 34  1  0  0  0
 27 22  1  0  0  0
 14  1  1  0  0  0
 34 28  1  0  0  0
 13  4  1  0  0  0
 12  7  2  0  0  0
 20 21  1  0  0  0
 16 18  1  0  0  0
 16 19  1  0  0  0
M  END
> <minimizedAffinity>
-8.64710

> <CNNscore>
0.5983837247

> <CNNaffinity>
7.3834981918

> <CNN_VS>
4.4181652069

> <CNNaffinity_variance>
0.2423330247

$$$$
[H]c1nc(N([H])c2c([H])c([H])c([H])c([H])c2[H])nc2c1C([H])([H])C([H])([H])c1c(C(=O)N([H])[H])nn(C([H])([H])[H])c1-2


 27 30  0  0  0  0  0  0  0  0999 V2000
   54.0290   -6.3651   -5.9605 C   0  0  0  0  0  0  0  0  0  0  0  0
   52.7941   -5.7322   -5.5476 N   0  0  0  0  0  0  0  0  0  0  0  0
   52.1283   -6.0848   -4.4337 N   0  0  0  0  0  0  0  0  0  0  0  0
   51.0283   -5.3646   -4.2815 C   0  0  0  0  0  0  0  0  0  0  0  0
   50.9687   -4.4938   -5.3508 C   0  0  0  0  0  0  0  0  0  0  0  0
   49.9414   -3.4735   -5.6571 C   0  0  0  0  0  0  0  0  0  0  0  0
   50.1631   -2.7160   -6.9058 C   0  0  0  0  0  0  0  0  0  0  0  0
   51.3658   -3.0327   -7.6803 C   0  0  0  0  0  0  0  0  0  0  0  0
   51.5934   -2.3246   -8.8483 C   0  0  0  0  0  0  0  0  0  0  0  0
   52.6777   -2.6024   -9.5584 N   0  0  0  0  0  0  0  0  0  0  0  0
   53.6005   -3.5514   -9.2148 C   0  0  0  0  0  0  0  0  0  0  0  0
   53.3835   -4.2289   -8.0980 N   0  0  0  0  0  0  0  0  0  0  0  0
   52.2812   -3.9816   -7.3303 C   0  0  0  0  0  0  0  0  0  0  0  0
   52.0797   -4.7512   -6.1134 C   0  0  0  0  0  0  0  0  0  0  0  0
   50.0513   -5.4694   -3.1817 C   0  0  0  0  0  0  0  0  0  0  0  0
   50.4367   -6.0736   -1.9690 N   0  0  0  0  0  0  0  0  0  0  0  0
   48.8768   -5.0080   -3.3577 O   0  0  0  0  0  0  0  0  0  0  0  0
   50.1652   -7.0490   -1.7686 H   0  0  0  0  0  0  0  0  0  0  0  0
   50.9914   -5.5482   -1.2739 H   0  0  0  0  0  0  0  0  0  0  0  0
   54.6667   -3.7290  -10.0988 N   0  0  0  0  0  0  0  0  0  0  0  0
   54.5451   -3.4277  -11.1357 H   0  0  0  0  0  0  0  0  0  0  0  0
   55.9379   -4.2649   -9.8143 C   0  0  0  0  0  0  0  0  0  0  0  0
   56.3664   -4.6204   -8.5782 C   0  0  0  0  0  0  0  0  0  0  0  0
   57.6220   -5.1632   -8.3951 C   0  0  0  0  0  0  0  0  0  0  0  0
   58.4961   -5.3719   -9.4298 C   0  0  0  0  0  0  0  0  0  0  0  0
   58.0665   -5.0121  -10.6870 C   0  0  0  0  0  0  0  0  0  0  0  0
   56.8259   -4.4751  -10.8745 C   0  0  0  0  0  0  0  0  0  0  0  0
  1  2  1  0  0  0
  2  3  1  0  0  0
  3  4  2  0  0  0
  4 15  1  0  0  0
 15 16  1  0  0  0
 15 17  2  0  0  0
  4  5  1  0  0  0
  5  6  1  0  0  0
  6  7  1  0  0  0
  7  8  1  0  0  0
  8  9  2  0  0  0
  9 10  1  0  0  0
 10 11  2  0  0  0
 11 20  1  0  0  0
 20 22  1  0  0  0
 22 23  2  0  0  0
 23 24  1  0  0  0
 24 25  2  0  0  0
 25 26  1  0  0  0
 26 27  2  0  0  0
 11 12  1  0  0  0
 12 13  2  0  0  0
 13 14  1  0  0  0
 14  2  1  0  0  0
 14  5  2  0  0  0
 13  8  1  0  0  0
 27 22  1  0  0  0
 16 18  1  0  0  0
 16 19  1  0  0  0
 20 21  1  0  0  0
M  END
> <minimizedAffinity>
-10.95495

> <CNNscore>
0.9465075135

> <CNNaffinity>
7.1399102211

> <CNN_VS>
6.7579784393

> <CNNaffinity_variance>
0.0852911100

$$$$
[H]c1nc(N([H])c2c([H])c([H])c([H])c([H])c2[H])nc2c1C([H])([H])C([H])([H])c1c(C(=O)N([H])[H])nn(C([H])([H])[H])c1-2


 27 30  0  0  0  0  0  0  0  0999 V2000
   50.5468   -1.6014   -7.8968 C   0  0  0  0  0  0  0  0  0  0  0  0
   50.2929   -2.5754   -6.8562 N   0  0  0  0  0  0  0  0  0  0  0  0
   49.2392   -2.4992   -6.0242 N   0  0  0  0  0  0  0  0  0  0  0  0
   49.2343   -3.5014   -5.1597 C   0  0  0  0  0  0  0  0  0  0  0  0
   50.3421   -4.2761   -5.4384 C   0  0  0  0  0  0  0  0  0  0  0  0
   50.7988   -5.5133   -4.7670 C   0  0  0  0  0  0  0  0  0  0  0  0
   52.0507   -6.0896   -5.2989 C   0  0  0  0  0  0  0  0  0  0  0  0
   52.6814   -5.4017   -6.4283 C   0  0  0  0  0  0  0  0  0  0  0  0
   53.8503   -5.9348   -6.9450 C   0  0  0  0  0  0  0  0  0  0  0  0
   54.4311   -5.3212   -7.9663 N   0  0  0  0  0  0  0  0  0  0  0  0
   53.9514   -4.1836   -8.5545 C   0  0  0  0  0  0  0  0  0  0  0  0
   52.8337   -3.6732   -8.0609 N   0  0  0  0  0  0  0  0  0  0  0  0
   52.1962   -4.2667   -7.0087 C   0  0  0  0  0  0  0  0  0  0  0  0
   50.9732   -3.6709   -6.4956 C   0  0  0  0  0  0  0  0  0  0  0  0
   48.2379   -3.7467   -4.1003 C   0  0  0  0  0  0  0  0  0  0  0  0
   47.0195   -3.0400   -4.1193 N   0  0  0  0  0  0  0  0  0  0  0  0
   48.5064   -4.5965   -3.1898 O   0  0  0  0  0  0  0  0  0  0  0  0
   46.8858   -2.2244   -3.5012 H   0  0  0  0  0  0  0  0  0  0  0  0
   46.2539   -3.3309   -4.7487 H   0  0  0  0  0  0  0  0  0  0  0  0
   54.7114   -3.6585   -9.6016 N   0  0  0  0  0  0  0  0  0  0  0  0
   54.3317   -2.7983  -10.1463 H   0  0  0  0  0  0  0  0  0  0  0  0
   55.9629   -4.1097  -10.0646 C   0  0  0  0  0  0  0  0  0  0  0  0
   56.9155   -4.6772   -9.2845 C   0  0  0  0  0  0  0  0  0  0  0  0
   58.1056   -5.1149   -9.8290 C   0  0  0  0  0  0  0  0  0  0  0  0
   58.3932   -5.0050  -11.1646 C   0  0  0  0  0  0  0  0  0  0  0  0
   57.4298   -4.4289  -11.9612 C   0  0  0  0  0  0  0  0  0  0  0  0
   56.2508   -3.9943  -11.4287 C   0  0  0  0  0  0  0  0  0  0  0  0
  1  2  1  0  0  0
  2  3  1  0  0  0
  3  4  2  0  0  0
  4 15  1  0  0  0
 15 16  1  0  0  0
 15 17  2  0  0  0
  4  5  1  0  0  0
  5  6  1  0  0  0
  6  7  1  0  0  0
  7  8  1  0  0  0
  8  9  2  0  0  0
  9 10  1  0  0  0
 10 11  2  0  0  0
 11 20  1  0  0  0
 20 22  1  0  0  0
 22 23  2  0  0  0
 23 24  1  0  0  0
 24 25  2  0  0  0
 25 26  1  0  0  0
 26 27  2  0  0  0
 11 12  1  0  0  0
 12 13  2  0  0  0
 13 14  1  0  0  0
 14  2  1  0  0  0
 14  5  2  0  0  0
 13  8  1  0  0  0
 27 22  1  0  0  0
 16 18  1  0  0  0
 16 19  1  0  0  0
 20 21  1  0  0  0
M  END
> <minimizedAffinity>
-9.52032

> <CNNscore>
0.8077073693

> <CNNaffinity>
7.0777015686

> <CNN_VS>
5.7167115211

> <CNNaffinity_variance>
0.1493384540

$$$$
[H]c1nc(N([H])c2c([H])c([H])c([H])c([H])c2[H])nc2c1C([H])([H])C([H])([H])c1c(C(=O)N([H])[H])nn(C([H])([H])[H])c1-2


 27 30  0  0  0  0  0  0  0  0999 V2000
   55.7139   -4.9689   -5.7294 C   0  0  0  0  0  0  0  0  0  0  0  0
   56.4274   -5.0168   -6.9882 N   0  0  0  0  0  0  0  0  0  0  0  0
   57.6934   -5.4574   -7.0951 N   0  0  0  0  0  0  0  0  0  0  0  0
   58.1213   -5.3950   -8.3461 C   0  0  0  0  0  0  0  0  0  0  0  0
   57.0824   -4.8873   -9.0997 C   0  0  0  0  0  0  0  0  0  0  0  0
   57.0393   -4.6197  -10.5547 C   0  0  0  0  0  0  0  0  0  0  0  0
   55.7707   -4.0464  -11.0492 C   0  0  0  0  0  0  0  0  0  0  0  0
   54.7029   -3.8306  -10.0696 C   0  0  0  0  0  0  0  0  0  0  0  0
   53.5040   -3.3031  -10.5188 C   0  0  0  0  0  0  0  0  0  0  0  0
   52.5302   -3.1024   -9.6421 N   0  0  0  0  0  0  0  0  0  0  0  0
   52.6264   -3.3834   -8.3072 C   0  0  0  0  0  0  0  0  0  0  0  0
   53.7726   -3.8878   -7.8769 N   0  0  0  0  0  0  0  0  0  0  0  0
   54.8076   -4.1134   -8.7392 C   0  0  0  0  0  0  0  0  0  0  0  0
   56.0500   -4.6653   -8.2239 C   0  0  0  0  0  0  0  0  0  0  0  0
   59.4522   -5.7911   -8.8431 C   0  0  0  0  0  0  0  0  0  0  0  0
   59.7261   -5.7155  -10.2228 N   0  0  0  0  0  0  0  0  0  0  0  0
   60.3250   -6.1937   -8.0069 O   0  0  0  0  0  0  0  0  0  0  0  0
   59.6974   -6.5688  -10.8026 H   0  0  0  0  0  0  0  0  0  0  0  0
   59.9569   -4.8102  -10.6632 H   0  0  0  0  0  0  0  0  0  0  0  0
   51.5093   -3.0789   -7.5268 N   0  0  0  0  0  0  0  0  0  0  0  0
   50.9203   -2.1996   -7.7731 H   0  0  0  0  0  0  0  0  0  0  0  0
   51.0168   -3.7929   -6.4169 C   0  0  0  0  0  0  0  0  0  0  0  0
   49.9580   -3.4106   -5.6614 C   0  0  0  0  0  0  0  0  0  0  0  0
   49.5273   -4.1871   -4.6050 C   0  0  0  0  0  0  0  0  0  0  0  0
   50.1307   -5.3685   -4.2605 C   0  0  0  0  0  0  0  0  0  0  0  0
   51.2067   -5.7611   -5.0238 C   0  0  0  0  0  0  0  0  0  0  0  0
   51.6372   -4.9977   -6.0699 C   0  0  0  0  0  0  0  0  0  0  0  0
  1  2  1  0  0  0
  2  3  1  0  0  0
  3  4  2  0  0  0
  4 15  1  0  0  0
 15 16  1  0  0  0
 15 17  2  0  0  0
  4  5  1  0  0  0
  5  6  1  0  0  0
  6  7  1  0  0  0
  7  8  1  0  0  0
  8  9  2  0  0  0
  9 10  1  0  0  0
 10 11  2  0  0  0
 11 20  1  0  0  0
 20 22  1  0  0  0
 22 23  2  0  0  0
 23 24  1  0  0  0
 24 25  2  0  0  0
 25 26  1  0  0  0
 26 27  2  0  0  0
 11 12  1  0  0  0
 12 13  2  0  0  0
 13 14  1  0  0  0
 14  2  1  0  0  0
 14  5  2  0  0  0
 13  8  1  0  0  0
 27 22  1  0  0  0
 16 18  1  0  0  0
 16 19  1  0  0  0
 20 21  1  0  0  0
M  END
> <minimizedAffinity>
-8.83401

> <CNNscore>
0.6489104629

> <CNNaffinity>
6.6782593727

> <CNN_VS>
4.3335924149

> <CNNaffinity_variance>
0.2273980826

$$$$
[H]c1nc(N([H])c2c([H])c([H])c([H])c([H])c2[H])nc2c1C([H])([H])C([H])([H])c1c(C(=O)N([H])[H])nn(C([H])([H])[H])c1-2


 27 30  0  0  0  0  0  0  0  0999 V2000
   55.2870   -6.5105   -5.8158 C   0  0  0  0  0  0  0  0  0  0  0  0
   54.0322   -6.3135   -5.1209 N   0  0  0  0  0  0  0  0  0  0  0  0
   53.7392   -6.9165   -3.9552 N   0  0  0  0  0  0  0  0  0  0  0  0
   52.5320   -6.5803   -3.5289 C   0  0  0  0  0  0  0  0  0  0  0  0
   52.0051   -5.7113   -4.4630 C   0  0  0  0  0  0  0  0  0  0  0  0
   50.6853   -5.0419   -4.4631 C   0  0  0  0  0  0  0  0  0  0  0  0
   50.4179   -4.1836   -5.6353 C   0  0  0  0  0  0  0  0  0  0  0  0
   51.4768   -4.0699   -6.6414 C   0  0  0  0  0  0  0  0  0  0  0  0
   51.2457   -3.2613   -7.7416 C   0  0  0  0  0  0  0  0  0  0  0  0
   52.1957   -3.1507   -8.6593 N   0  0  0  0  0  0  0  0  0  0  0  0
   53.4047   -3.7868   -8.5961 C   0  0  0  0  0  0  0  0  0  0  0  0
   53.6264   -4.5601   -7.5444 N   0  0  0  0  0  0  0  0  0  0  0  0
   52.6801   -4.7085   -6.5707 C   0  0  0  0  0  0  0  0  0  0  0  0
   52.9635   -5.5702   -5.4344 C   0  0  0  0  0  0  0  0  0  0  0  0
   51.8730   -7.0431   -2.2933 C   0  0  0  0  0  0  0  0  0  0  0  0
   51.8044   -6.1814   -1.1812 N   0  0  0  0  0  0  0  0  0  0  0  0
   51.3798   -8.2175   -2.2635 O   0  0  0  0  0  0  0  0  0  0  0  0
   52.4647   -6.2972   -0.3965 H   0  0  0  0  0  0  0  0  0  0  0  0
   51.0962   -5.4305   -1.1421 H   0  0  0  0  0  0  0  0  0  0  0  0
   54.2732   -3.5768   -9.6691 N   0  0  0  0  0  0  0  0  0  0  0  0
   53.9440   -2.9557  -10.4977 H   0  0  0  0  0  0  0  0  0  0  0  0
   55.5796   -4.0793   -9.8274 C   0  0  0  0  0  0  0  0  0  0  0  0
   56.3635   -4.5237   -8.8144 C   0  0  0  0  0  0  0  0  0  0  0  0
   57.6247   -5.0248   -9.0651 C   0  0  0  0  0  0  0  0  0  0  0  0
   58.1528   -5.1023  -10.3274 C   0  0  0  0  0  0  0  0  0  0  0  0
   57.3615   -4.6518  -11.3597 C   0  0  0  0  0  0  0  0  0  0  0  0
   56.1133   -4.1555  -11.1182 C   0  0  0  0  0  0  0  0  0  0  0  0
  1  2  1  0  0  0
  2  3  1  0  0  0
  3  4  2  0  0  0
  4 15  1  0  0  0
 15 16  1  0  0  0
 15 17  2  0  0  0
  4  5  1  0  0  0
  5  6  1  0  0  0
  6  7  1  0  0  0
  7  8  1  0  0  0
  8  9  2  0  0  0
  9 10  1  0  0  0
 10 11  2  0  0  0
 11 20  1  0  0  0
 20 22  1  0  0  0
 22 23  2  0  0  0
 23 24  1  0  0  0
 24 25  2  0  0  0
 25 26  1  0  0  0
 26 27  2  0  0  0
 11 12  1  0  0  0
 12 13  2  0  0  0
 13 14  1  0  0  0
 14  2  1  0  0  0
 14  5  2  0  0  0
 13  8  1  0  0  0
 27 22  1  0  0  0
 16 18  1  0  0  0
 16 19  1  0  0  0
 20 21  1  0  0  0
M  END
> <minimizedAffinity>
-9.89086

> <CNNscore>
0.6476209760

> <CNNaffinity>
6.8036322594

> <CNN_VS>
4.4061751366

> <CNNaffinity_variance>
0.3332391679

$$$$
[H]c1nc(N([H])c2c([H])c([H])c([H])c([H])c2[H])nc2c1C([H])([H])C([H])([H])c1c(C(=O)N([H])[H])nn(C([H])([H])[H])c1-2


 27 30  0  0  0  0  0  0  0  0999 V2000
   52.6414   -6.2395   -4.8332 C   0  0  0  0  0  0  0  0  0  0  0  0
   51.5744   -5.2852   -5.0496 N   0  0  0  0  0  0  0  0  0  0  0  0
   50.4844   -5.2164   -4.2650 N   0  0  0  0  0  0  0  0  0  0  0  0
   49.6552   -4.2693   -4.6741 C   0  0  0  0  0  0  0  0  0  0  0  0
   50.2306   -3.6858   -5.7848 C   0  0  0  0  0  0  0  0  0  0  0  0
   49.7148   -2.5784   -6.6202 C   0  0  0  0  0  0  0  0  0  0  0  0
   50.5725   -2.2033   -7.7630 C   0  0  0  0  0  0  0  0  0  0  0  0
   51.8294   -2.9373   -7.9302 C   0  0  0  0  0  0  0  0  0  0  0  0
   52.6495   -2.5911   -8.9909 C   0  0  0  0  0  0  0  0  0  0  0  0
   53.7891   -3.2483   -9.1534 N   0  0  0  0  0  0  0  0  0  0  0  0
   54.2188   -4.2575   -8.3368 C   0  0  0  0  0  0  0  0  0  0  0  0
   53.4352   -4.5891   -7.3222 N   0  0  0  0  0  0  0  0  0  0  0  0
   52.2502   -3.9434   -7.1108 C   0  0  0  0  0  0  0  0  0  0  0  0
   51.4185   -4.3416   -5.9867 C   0  0  0  0  0  0  0  0  0  0  0  0
   48.3635   -3.9044   -4.0629 C   0  0  0  0  0  0  0  0  0  0  0  0
   47.6506   -2.7965   -4.5614 N   0  0  0  0  0  0  0  0  0  0  0  0
   47.9231   -4.6049   -3.0941 O   0  0  0  0  0  0  0  0  0  0  0  0
   47.6861   -1.8930   -4.0638 H   0  0  0  0  0  0  0  0  0  0  0  0
   47.0894   -2.8788   -5.4246 H   0  0  0  0  0  0  0  0  0  0  0  0
   55.4328   -4.8573   -8.6776 N   0  0  0  0  0  0  0  0  0  0  0  0
   55.8798   -5.5676   -7.9875 H   0  0  0  0  0  0  0  0  0  0  0  0
   56.1877   -4.6618   -9.8507 C   0  0  0  0  0  0  0  0  0  0  0  0
   55.6941   -4.1676  -11.0126 C   0  0  0  0  0  0  0  0  0  0  0  0
   56.5143   -3.9848  -12.1073 C   0  0  0  0  0  0  0  0  0  0  0  0
   57.8513   -4.2857  -12.0887 C   0  0  0  0  0  0  0  0  0  0  0  0
   58.3577   -4.7885  -10.9117 C   0  0  0  0  0  0  0  0  0  0  0  0
   57.5517   -4.9712   -9.8257 C   0  0  0  0  0  0  0  0  0  0  0  0
  1  2  1  0  0  0
  2  3  1  0  0  0
  3  4  2  0  0  0
  4 15  1  0  0  0
 15 16  1  0  0  0
 15 17  2  0  0  0
  4  5  1  0  0  0
  5  6  1  0  0  0
  6  7  1  0  0  0
  7  8  1  0  0  0
  8  9  2  0  0  0
  9 10  1  0  0  0
 10 11  2  0  0  0
 11 20  1  0  0  0
 20 22  1  0  0  0
 22 23  2  0  0  0
 23 24  1  0  0  0
 24 25  2  0  0  0
 25 26  1  0  0  0
 26 27  2  0  0  0
 11 12  1  0  0  0
 12 13  2  0  0  0
 13 14  1  0  0  0
 14  2  1  0  0  0
 14  5  2  0  0  0
 13  8  1  0  0  0
 27 22  1  0  0  0
 16 18  1  0  0  0
 16 19  1  0  0  0
 20 21  1  0  0  0
M  END
> <minimizedAffinity>
-10.04068

> <CNNscore>
0.6456571817

> <CNNaffinity>
6.9958519936

> <CNN_VS>
4.5169219971

> <CNNaffinity_variance>
0.2379914522

$$$$
[H]c1nc(N([H])c2c([H])c([H])c([H])c([H])c2[H])nc2c1C([H])([H])C([H])([H])c1c(C(=O)N([H])[H])nn(C([H])([H])[H])c1-2


 27 30  0  0  0  0  0  0  0  0999 V2000
   53.9235   -6.5416   -5.5593 C   0  0  0  0  0  0  0  0  0  0  0  0
   53.3549   -5.5382   -6.4344 N   0  0  0  0  0  0  0  0  0  0  0  0
   53.9301   -5.1661   -7.5915 N   0  0  0  0  0  0  0  0  0  0  0  0
   53.2214   -4.2302   -8.2029 C   0  0  0  0  0  0  0  0  0  0  0  0
   52.1238   -3.9745   -7.4060 C   0  0  0  0  0  0  0  0  0  0  0  0
   51.0196   -3.0153   -7.6318 C   0  0  0  0  0  0  0  0  0  0  0  0
   50.0016   -2.9684   -6.5623 C   0  0  0  0  0  0  0  0  0  0  0  0
   50.1774   -3.8762   -5.4257 C   0  0  0  0  0  0  0  0  0  0  0  0
   49.2265   -3.8515   -4.4195 C   0  0  0  0  0  0  0  0  0  0  0  0
   49.3747   -4.6675   -3.3854 N   0  0  0  0  0  0  0  0  0  0  0  0
   50.4140   -5.5442   -3.2396 C   0  0  0  0  0  0  0  0  0  0  0  0
   51.3238   -5.5683   -4.2015 N   0  0  0  0  0  0  0  0  0  0  0  0
   51.2179   -4.7475   -5.2881 C   0  0  0  0  0  0  0  0  0  0  0  0
   52.2410   -4.8040   -6.3195 C   0  0  0  0  0  0  0  0  0  0  0  0
   53.5401   -3.5824   -9.4890 C   0  0  0  0  0  0  0  0  0  0  0  0
   54.8346   -3.7145  -10.0282 N   0  0  0  0  0  0  0  0  0  0  0  0
   52.6308   -2.9161  -10.0827 O   0  0  0  0  0  0  0  0  0  0  0  0
   55.5163   -2.9459   -9.9294 H   0  0  0  0  0  0  0  0  0  0  0  0
   55.1109   -4.5773  -10.5245 H   0  0  0  0  0  0  0  0  0  0  0  0
   50.4237   -6.3062   -2.0696 N   0  0  0  0  0  0  0  0  0  0  0  0
   49.4859   -6.4827   -1.5498 H   0  0  0  0  0  0  0  0  0  0  0  0
   51.5340   -6.9091   -1.4467 C   0  0  0  0  0  0  0  0  0  0  0  0
   52.6478   -6.2478   -1.0467 C   0  0  0  0  0  0  0  0  0  0  0  0
   53.6791   -6.9166   -0.4194 C   0  0  0  0  0  0  0  0  0  0  0  0
   53.6427   -8.2633   -0.1673 C   0  0  0  0  0  0  0  0  0  0  0  0
   52.5145   -8.9399   -0.5719 C   0  0  0  0  0  0  0  0  0  0  0  0
   51.4911   -8.2841   -1.1925 C   0  0  0  0  0  0  0  0  0  0  0  0
  1  2  1  0  0  0
  2  3  1  0  0  0
  3  4  2  0  0  0
  4 15  1  0  0  0
 15 16  1  0  0  0
 15 17  2  0  0  0
  4  5  1  0  0  0
  5  6  1  0  0  0
  6  7  1  0  0  0
  7  8  1  0  0  0
  8  9  2  0  0  0
  9 10  1  0  0  0
 10 11  2  0  0  0
 11 20  1  0  0  0
 20 22  1  0  0  0
 22 23  2  0  0  0
 23 24  1  0  0  0
 24 25  2  0  0  0
 25 26  1  0  0  0
 26 27  2  0  0  0
 11 12  1  0  0  0
 12 13  2  0  0  0
 13 14  1  0  0  0
 14  2  1  0  0  0
 14  5  2  0  0  0
 13  8  1  0  0  0
 27 22  1  0  0  0
 16 18  1  0  0  0
 16 19  1  0  0  0
 20 21  1  0  0  0
M  END
> <minimizedAffinity>
-9.43005

> <CNNscore>
0.6124435663

> <CNNaffinity>
6.7991523743

> <CNN_VS>
4.1640973091

> <CNNaffinity_variance>
0.4132927060

$$$$
[H]c1nc(N([H])c2c([H])c([H])c([H])c([H])c2[H])nc2c1C([H])([H])C([H])([H])c1c(C(=O)N([H])[H])nn(C([H])([H])[H])c1-2


 27 30  0  0  0  0  0  0  0  0999 V2000
   61.0506   -6.3084  -17.6526 C   0  0  0  0  0  0  0  0  0  0  0  0
   62.1287   -6.4352  -16.6947 N   0  0  0  0  0  0  0  0  0  0  0  0
   62.9558   -7.4950  -16.6603 N   0  0  0  0  0  0  0  0  0  0  0  0
   63.8499   -7.3772  -15.6915 C   0  0  0  0  0  0  0  0  0  0  0  0
   63.5970   -6.1779  -15.0568 C   0  0  0  0  0  0  0  0  0  0  0  0
   64.3074   -5.5702  -13.9095 C   0  0  0  0  0  0  0  0  0  0  0  0
   63.7642   -4.2754  -13.4505 C   0  0  0  0  0  0  0  0  0  0  0  0
   62.6174   -3.7299  -14.1810 C   0  0  0  0  0  0  0  0  0  0  0  0
   62.1026   -2.5122  -13.7694 C   0  0  0  0  0  0  0  0  0  0  0  0
   61.0645   -2.0084  -14.4218 N   0  0  0  0  0  0  0  0  0  0  0  0
   60.4575   -2.6137  -15.4873 C   0  0  0  0  0  0  0  0  0  0  0  0
   60.9493   -3.7782  -15.8815 N   0  0  0  0  0  0  0  0  0  0  0  0
   62.0176   -4.3409  -15.2429 C   0  0  0  0  0  0  0  0  0  0  0  0
   62.5236   -5.6227  -15.7063 C   0  0  0  0  0  0  0  0  0  0  0  0
   64.9139   -8.3406  -15.3522 C   0  0  0  0  0  0  0  0  0  0  0  0
   65.5382   -9.0727  -16.3809 N   0  0  0  0  0  0  0  0  0  0  0  0
   65.2430   -8.4865  -14.1300 O   0  0  0  0  0  0  0  0  0  0  0  0
   65.2620  -10.0510  -16.5595 H   0  0  0  0  0  0  0  0  0  0  0  0
   66.2737   -8.6388  -16.9620 H   0  0  0  0  0  0  0  0  0  0  0  0
   59.3564   -1.9508  -16.0331 N   0  0  0  0  0  0  0  0  0  0  0  0
   59.4013   -0.8723  -16.1578 H   0  0  0  0  0  0  0  0  0  0  0  0
   58.1426   -2.5173  -16.4689 C   0  0  0  0  0  0  0  0  0  0  0  0
   57.7560   -3.7940  -16.2270 C   0  0  0  0  0  0  0  0  0  0  0  0
   56.5346   -4.2582  -16.6712 C   0  0  0  0  0  0  0  0  0  0  0  0
   55.6547   -3.4740  -17.3706 C   0  0  0  0  0  0  0  0  0  0  0  0
   56.0424   -2.1770  -17.6197 C   0  0  0  0  0  0  0  0  0  0  0  0
   57.2488   -1.7120  -17.1828 C   0  0  0  0  0  0  0  0  0  0  0  0
  1  2  1  0  0  0
  2  3  1  0  0  0
  3  4  2  0  0  0
  4 15  1  0  0  0
 15 16  1  0  0  0
 15 17  2  0  0  0
  4  5  1  0  0  0
  5  6  1  0  0  0
  6  7  1  0  0  0
  7  8  1  0  0  0
  8  9  2  0  0  0
  9 10  1  0  0  0
 10 11  2  0  0  0
 11 20  1  0  0  0
 20 22  1  0  0  0
 22 23  2  0  0  0
 23 24  1  0  0  0
 24 25  2  0  0  0
 25 26  1  0  0  0
 26 27  2  0  0  0
 11 12  1  0  0  0
 12 13  2  0  0  0
 13 14  1  0  0  0
 14  2  1  0  0  0
 14  5  2  0  0  0
 13  8  1  0  0  0
 27 22  1  0  0  0
 16 18  1  0  0  0
 16 19  1  0  0  0
 20 21  1  0  0  0
M  END
> <minimizedAffinity>
-1.81168

> <CNNscore>
0.4966372252

> <CNNaffinity>
4.7510957718

> <CNN_VS>
2.3595709801

> <CNNaffinity_variance>
0.4356784225

$$$$
[H]c1nc(N([H])c2c([H])c([H])c([H])c([H])c2[H])nc2c1C([H])([H])C([H])([H])c1c(C(=O)N([H])[H])nn(C([H])([H])[H])c1-2


 27 30  0  0  0  0  0  0  0  0999 V2000
   53.4382   -6.3306   -5.4841 C   0  0  0  0  0  0  0  0  0  0  0  0
   52.7290   -5.2735   -6.1738 N   0  0  0  0  0  0  0  0  0  0  0  0
   51.4451   -4.9661   -5.9178 N   0  0  0  0  0  0  0  0  0  0  0  0
   51.0261   -3.9709   -6.6834 C   0  0  0  0  0  0  0  0  0  0  0  0
   52.0900   -3.6059   -7.4834 C   0  0  0  0  0  0  0  0  0  0  0  0
   52.1516   -2.5457   -8.5142 C   0  0  0  0  0  0  0  0  0  0  0  0
   53.4467   -2.4276   -9.2151 C   0  0  0  0  0  0  0  0  0  0  0  0
   54.5186   -3.3388   -8.8063 C   0  0  0  0  0  0  0  0  0  0  0  0
   55.7418   -3.2343   -9.4468 C   0  0  0  0  0  0  0  0  0  0  0  0
   56.7195   -4.0536   -9.0865 N   0  0  0  0  0  0  0  0  0  0  0  0
   56.6048   -5.0078   -8.1136 C   0  0  0  0  0  0  0  0  0  0  0  0
   55.4353   -5.1084   -7.5006 N   0  0  0  0  0  0  0  0  0  0  0  0
   54.3953   -4.2884   -7.8348 C   0  0  0  0  0  0  0  0  0  0  0  0
   53.1272   -4.4351   -7.1389 C   0  0  0  0  0  0  0  0  0  0  0  0
   49.6813   -3.3655   -6.6842 C   0  0  0  0  0  0  0  0  0  0  0  0
   49.0136   -3.1648   -7.9082 N   0  0  0  0  0  0  0  0  0  0  0  0
   49.1548   -3.0377   -5.5713 O   0  0  0  0  0  0  0  0  0  0  0  0
   48.9984   -2.2279   -8.3408 H   0  0  0  0  0  0  0  0  0  0  0  0
   48.5361   -3.9497   -8.3804 H   0  0  0  0  0  0  0  0  0  0  0  0
   57.7308   -5.8019   -7.8873 N   0  0  0  0  0  0  0  0  0  0  0  0
   57.7506   -6.4489   -7.0145 H   0  0  0  0  0  0  0  0  0  0  0  0
   58.8948   -5.8859   -8.6761 C   0  0  0  0  0  0  0  0  0  0  0  0
   60.1244   -6.2093   -8.2053 C   0  0  0  0  0  0  0  0  0  0  0  0
   61.2070   -6.2935   -9.0569 C   0  0  0  0  0  0  0  0  0  0  0  0
   61.1089   -6.0596  -10.4038 C   0  0  0  0  0  0  0  0  0  0  0  0
   59.8630   -5.7301  -10.8872 C   0  0  0  0  0  0  0  0  0  0  0  0
   58.7885   -5.6457  -10.0500 C   0  0  0  0  0  0  0  0  0  0  0  0
  1  2  1  0  0  0
  2  3  1  0  0  0
  3  4  2  0  0  0
  4 15  1  0  0  0
 15 16  1  0  0  0
 15 17  2  0  0  0
  4  5  1  0  0  0
  5  6  1  0  0  0
  6  7  1  0  0  0
  7  8  1  0  0  0
  8  9  2  0  0  0
  9 10  1  0  0  0
 10 11  2  0  0  0
 11 20  1  0  0  0
 20 22  1  0  0  0
 22 23  2  0  0  0
 23 24  1  0  0  0
 24 25  2  0  0  0
 25 26  1  0  0  0
 26 27  2  0  0  0
 11 12  1  0  0  0
 12 13  2  0  0  0
 13 14  1  0  0  0
 14  2  1  0  0  0
 14  5  2  0  0  0
 13  8  1  0  0  0
 27 22  1  0  0  0
 16 18  1  0  0  0
 16 19  1  0  0  0
 20 21  1  0  0  0
M  END
> <minimizedAffinity>
-6.71065

> <CNNscore>
0.4655703604

> <CNNaffinity>
6.5260963440

> <CNN_VS>
3.0383570194

> <CNNaffinity_variance>
0.1808389276

$$$$
[H]c1nc(N([H])c2c([H])c([H])c([H])c([H])c2[H])nc2c1C([H])([H])C([H])([H])c1c(C(=O)N([H])[H])nn(C([H])([H])[H])c1-2


 27 30  0  0  0  0  0  0  0  0999 V2000
   54.4696   -6.7554   -5.0318 C   0  0  0  0  0  0  0  0  0  0  0  0
   53.2812   -6.5244   -4.2378 N   0  0  0  0  0  0  0  0  0  0  0  0
   53.0741   -7.1082   -3.0442 N   0  0  0  0  0  0  0  0  0  0  0  0
   51.9136   -6.7419   -2.5235 C   0  0  0  0  0  0  0  0  0  0  0  0
   51.3284   -5.8724   -3.4217 C   0  0  0  0  0  0  0  0  0  0  0  0
   50.0268   -5.1753   -3.3208 C   0  0  0  0  0  0  0  0  0  0  0  0
   49.6801   -4.3246   -4.4776 C   0  0  0  0  0  0  0  0  0  0  0  0
   50.6538   -4.2443   -5.5695 C   0  0  0  0  0  0  0  0  0  0  0  0
   50.3482   -3.4432   -6.6569 C   0  0  0  0  0  0  0  0  0  0  0  0
   51.2206   -3.3628   -7.6516 N   0  0  0  0  0  0  0  0  0  0  0  0
   52.4176   -4.0235   -7.6808 C   0  0  0  0  0  0  0  0  0  0  0  0
   52.7105   -4.7897   -6.6413 N   0  0  0  0  0  0  0  0  0  0  0  0
   51.8457   -4.9073   -5.5907 C   0  0  0  0  0  0  0  0  0  0  0  0
   52.2053   -5.7622   -4.4710 C   0  0  0  0  0  0  0  0  0  0  0  0
   51.3505   -7.1771   -1.2317 C   0  0  0  0  0  0  0  0  0  0  0  0
   52.0234   -6.8500   -0.0382 N   0  0  0  0  0  0  0  0  0  0  0  0
   50.2635   -7.8417   -1.2285 O   0  0  0  0  0  0  0  0  0  0  0  0
   52.6094   -7.5560    0.4345 H   0  0  0  0  0  0  0  0  0  0  0  0
   51.9363   -5.9059    0.3715 H   0  0  0  0  0  0  0  0  0  0  0  0
   53.1979   -3.8437   -8.8248 N   0  0  0  0  0  0  0  0  0  0  0  0
   52.7273   -3.4627   -9.7271 H   0  0  0  0  0  0  0  0  0  0  0  0
   54.5759   -4.0954   -8.9724 C   0  0  0  0  0  0  0  0  0  0  0  0
   55.4241   -4.3700   -7.9510 C   0  0  0  0  0  0  0  0  0  0  0  0
   56.7579   -4.6301   -8.1912 C   0  0  0  0  0  0  0  0  0  0  0  0
   57.2974   -4.6266   -9.4511 C   0  0  0  0  0  0  0  0  0  0  0  0
   56.4409   -4.3477  -10.4919 C   0  0  0  0  0  0  0  0  0  0  0  0
   55.1208   -4.0900  -10.2608 C   0  0  0  0  0  0  0  0  0  0  0  0
  1  2  1  0  0  0
  2  3  1  0  0  0
  3  4  2  0  0  0
  4 15  1  0  0  0
 15 16  1  0  0  0
 15 17  2  0  0  0
  4  5  1  0  0  0
  5  6  1  0  0  0
  6  7  1  0  0  0
  7  8  1  0  0  0
  8  9  2  0  0  0
  9 10  1  0  0  0
 10 11  2  0  0  0
 11 20  1  0  0  0
 20 22  1  0  0  0
 22 23  2  0  0  0
 23 24  1  0  0  0
 24 25  2  0  0  0
 25 26  1  0  0  0
 26 27  2  0  0  0
 11 12  1  0  0  0
 12 13  2  0  0  0
 13 14  1  0  0  0
 14  2  1  0  0  0
 14  5  2  0  0  0
 13  8  1  0  0  0
 27 22  1  0  0  0
 16 18  1  0  0  0
 16 19  1  0  0  0
 20 21  1  0  0  0
M  END
> <minimizedAffinity>
-9.93744

> <CNNscore>
0.4499903321

> <CNNaffinity>
6.6206464767

> <CNN_VS>
2.9792268276

> <CNNaffinity_variance>
0.4805715978

$$$$
[H]c1nc(N([H])c2c([H])c([H])c(C(=O)N([H])C3([H])C([H])([H])C([H])([H])N(C([H])([H])[H])C([H])([H])C3([H])[H])c([H])c2[H])nc2c1N(C([H])([H])[H])C(=O)[C@@]([H])(C([H])([H])C([H])([H])[H])N2C1([H])C([H])([H])C([H])([H])C([H])([H])C1([H])[H]


 38 42  0  0  0  0  0  0  0  0999 V2000
   52.7309   -5.3132   -4.1995 C   0  0  0  0  0  0  0  0  0  0  0  0
   53.5986   -5.5972   -5.2780 N   0  0  0  0  0  0  0  0  0  0  0  0
   53.3348   -4.8166   -6.4756 C   0  0  0  0  0  0  0  0  0  0  0  0
   54.3187   -4.5460   -7.3539 N   0  0  0  0  0  0  0  0  0  0  0  0
   54.0882   -3.8156   -8.4892 C   0  0  0  0  0  0  0  0  0  0  0  0
   52.8625   -3.3635   -8.7277 N   0  0  0  0  0  0  0  0  0  0  0  0
   51.8315   -3.5883   -7.9070 C   0  0  0  0  0  0  0  0  0  0  0  0
   52.0816   -4.3235   -6.7728 C   0  0  0  0  0  0  0  0  0  0  0  0
   51.0086   -4.5881   -5.8779 N   0  0  0  0  0  0  0  0  0  0  0  0
   49.6597   -4.1003   -6.1277 C   0  0  0  0  0  0  0  0  0  0  0  0
   51.3092   -5.3556   -4.7216 C   0  0  0  0  0  0  0  0  0  0  0  0
   50.4038   -6.0341   -4.1762 O   0  0  0  0  0  0  0  0  0  0  0  0
   54.6840   -6.5350   -5.3580 C   0  0  0  0  0  0  0  0  0  0  0  0
   54.5130   -7.8109   -4.6113 C   0  0  0  0  0  0  0  0  0  0  0  0
   55.7655   -8.0451   -3.8219 C   0  0  0  0  0  0  0  0  0  0  0  0
   56.6856   -6.8959   -4.0548 C   0  0  0  0  0  0  0  0  0  0  0  0
   56.0128   -5.9218   -4.9667 C   0  0  0  0  0  0  0  0  0  0  0  0
   53.5776   -5.3287   -1.9464 C   0  0  0  0  0  0  0  0  0  0  0  0
   52.7511   -6.1201   -2.9794 C   0  0  0  0  0  0  0  0  0  0  0  0
   55.1525   -3.5311   -9.3694 N   0  0  0  0  0  0  0  0  0  0  0  0
   55.0125   -2.6986  -10.0491 H   0  0  0  0  0  0  0  0  0  0  0  0
   56.3777   -4.1826   -9.4819 C   0  0  0  0  0  0  0  0  0  0  0  0
   57.0400   -4.5721   -8.3136 C   0  0  0  0  0  0  0  0  0  0  0  0
   58.2381   -5.2361   -8.3426 C   0  0  0  0  0  0  0  0  0  0  0  0
   58.8535   -5.5554   -9.5342 C   0  0  0  0  0  0  0  0  0  0  0  0
   58.2163   -5.1810  -10.6893 C   0  0  0  0  0  0  0  0  0  0  0  0
   56.9858   -4.4990  -10.6615 C   0  0  0  0  0  0  0  0  0  0  0  0
   60.1291   -6.2610   -9.6189 C   0  0  0  0  0  0  0  0  0  0  0  0
   60.8640   -6.0486  -10.6157 O   0  0  0  0  0  0  0  0  0  0  0  0
   60.5621   -7.1640   -8.6308 N   0  0  0  0  0  0  0  0  0  0  0  0
   60.0074   -7.3989   -7.7655 H   0  0  0  0  0  0  0  0  0  0  0  0
   61.8417   -7.8322   -8.7735 C   0  0  0  0  0  0  0  0  0  0  0  0
   61.5391   -9.2195   -9.3307 C   0  0  0  0  0  0  0  0  0  0  0  0
   62.6177  -10.1483   -8.8133 C   0  0  0  0  0  0  0  0  0  0  0  0
   62.2903  -10.4016   -7.4144 N   0  0  0  0  0  0  0  0  0  0  0  0
   61.0668  -11.1857   -7.3513 C   0  0  0  0  0  0  0  0  0  0  0  0
   62.1661   -9.1800   -6.6805 C   0  0  0  0  0  0  0  0  0  0  0  0
   62.5633   -7.9553   -7.4689 C   0  0  0  0  0  0  0  0  0  0  0  0
 18 19  1  0  0  0
 19  1  1  0  0  0
  1  2  1  0  0  0
  2 13  1  0  0  0
 13 14  1  0  0  0
 14 15  1  0  0  0
 15 16  1  0  0  0
 16 17  1  0  0  0
  2  3  1  0  0  0
  3  4  2  0  0  0
  4  5  1  0  0  0
  5 20  1  0  0  0
 20 22  1  0  0  0
 22 23  2  0  0  0
 23 24  1  0  0  0
 24 25  2  0  0  0
 25 26  1  0  0  0
 26 27  2  0  0  0
 25 28  1  0  0  0
 28 29  2  0  0  0
 28 30  1  0  0  0
 30 32  1  0  0  0
 32 33  1  0  0  0
 33 34  1  0  0  0
 34 35  1  0  0  0
 35 36  1  0  0  0
 35 37  1  0  0  0
 37 38  1  0  0  0
  5  6  2  0  0  0
  6  7  1  0  0  0
  7  8  2  0  0  0
  8  9  1  0  0  0
  9 10  1  0  0  0
  9 11  1  0  0  0
 11 12  2  0  0  0
 11  1  1  0  0  0
 17 13  1  0  0  0
  8  3  1  0  0  0
 27 22  1  0  0  0
 38 32  1  0  0  0
 20 21  1  0  0  0
 30 31  1  0  0  0
M  END
> <minimizedAffinity>
-9.05253

> <CNNscore>
0.7206383348

> <CNNaffinity>
7.6445608139

> <CNN_VS>
5.5089635849

> <CNNaffinity_variance>
0.0812916309

$$$$
[H]c1nc(N([H])c2c([H])c([H])c(C(=O)N([H])C3([H])C([H])([H])C([H])([H])N(C([H])([H])[H])C([H])([H])C3([H])[H])c([H])c2[H])nc2c1N(C([H])([H])[H])C(=O)[C@@]([H])(C([H])([H])C([H])([H])[H])N2C1([H])C([H])([H])C([H])([H])C([H])([H])C1([H])[H]


 38 42  0  0  0  0  0  0  0  0999 V2000
   64.2192   -2.3664  -16.0190 C   0  0  0  0  0  0  0  0  0  0  0  0
   64.1632   -2.6202  -14.6301 N   0  0  0  0  0  0  0  0  0  0  0  0
   63.8429   -3.9965  -14.2889 C   0  0  0  0  0  0  0  0  0  0  0  0
   64.2633   -4.5360  -13.1293 N   0  0  0  0  0  0  0  0  0  0  0  0
   63.9681   -5.8295  -12.7892 C   0  0  0  0  0  0  0  0  0  0  0  0
   63.2493   -6.5685  -13.6263 N   0  0  0  0  0  0  0  0  0  0  0  0
   62.7941   -6.1085  -14.7960 C   0  0  0  0  0  0  0  0  0  0  0  0
   63.0997   -4.8081  -15.1202 C   0  0  0  0  0  0  0  0  0  0  0  0
   62.6284   -4.2813  -16.3541 N   0  0  0  0  0  0  0  0  0  0  0  0
   61.8380   -5.0794  -17.2803 C   0  0  0  0  0  0  0  0  0  0  0  0
   62.9620   -2.9324  -16.6473 C   0  0  0  0  0  0  0  0  0  0  0  0
   62.2184   -2.2614  -17.4051 O   0  0  0  0  0  0  0  0  0  0  0  0
   64.3708   -1.7246  -13.5261 C   0  0  0  0  0  0  0  0  0  0  0  0
   63.3683   -0.6377  -13.3577 C   0  0  0  0  0  0  0  0  0  0  0  0
   64.1191    0.6454  -13.1667 C   0  0  0  0  0  0  0  0  0  0  0  0
   65.5774    0.3505  -13.2566 C   0  0  0  0  0  0  0  0  0  0  0  0
   65.7545   -1.1079  -13.5295 C   0  0  0  0  0  0  0  0  0  0  0  0
   65.7407   -0.9475  -17.2296 C   0  0  0  0  0  0  0  0  0  0  0  0
   64.3661   -1.0051  -16.5342 C   0  0  0  0  0  0  0  0  0  0  0  0
   64.4511   -6.3647  -11.5774 N   0  0  0  0  0  0  0  0  0  0  0  0
   64.9506   -5.6759  -10.9060 H   0  0  0  0  0  0  0  0  0  0  0  0
   64.3683   -7.6768  -11.1192 C   0  0  0  0  0  0  0  0  0  0  0  0
   64.9010   -7.9834   -9.8632 C   0  0  0  0  0  0  0  0  0  0  0  0
   64.8390   -9.2459   -9.3344 C   0  0  0  0  0  0  0  0  0  0  0  0
   64.2436  -10.2831  -10.0201 C   0  0  0  0  0  0  0  0  0  0  0  0
   63.7155   -9.9986  -11.2533 C   0  0  0  0  0  0  0  0  0  0  0  0
   63.7781   -8.7026  -11.7978 C   0  0  0  0  0  0  0  0  0  0  0  0
   64.1521  -11.6450   -9.5012 C   0  0  0  0  0  0  0  0  0  0  0  0
   64.8316  -12.5432  -10.0583 O   0  0  0  0  0  0  0  0  0  0  0  0
   63.3361  -11.9851   -8.4068 N   0  0  0  0  0  0  0  0  0  0  0  0
   62.7353  -11.2940   -7.8844 H   0  0  0  0  0  0  0  0  0  0  0  0
   63.2907  -13.3573   -7.9385 C   0  0  0  0  0  0  0  0  0  0  0  0
   61.9001  -13.5602   -7.3455 C   0  0  0  0  0  0  0  0  0  0  0  0
   62.0347  -14.5940   -6.2469 C   0  0  0  0  0  0  0  0  0  0  0  0
   62.6508  -13.9022   -5.1200 N   0  0  0  0  0  0  0  0  0  0  0  0
   61.7093  -12.9259   -4.5945 C   0  0  0  0  0  0  0  0  0  0  0  0
   63.8845  -13.2859   -5.5002 C   0  0  0  0  0  0  0  0  0  0  0  0
   64.3309  -13.6344   -6.8997 C   0  0  0  0  0  0  0  0  0  0  0  0
 18 19  1  0  0  0
 19  1  1  0  0  0
  1  2  1  0  0  0
  2 13  1  0  0  0
 13 14  1  0  0  0
 14 15  1  0  0  0
 15 16  1  0  0  0
 16 17  1  0  0  0
  2  3  1  0  0  0
  3  4  2  0  0  0
  4  5  1  0  0  0
  5 20  1  0  0  0
 20 22  1  0  0  0
 22 23  2  0  0  0
 23 24  1  0  0  0
 24 25  2  0  0  0
 25 26  1  0  0  0
 26 27  2  0  0  0
 25 28  1  0  0  0
 28 29  2  0  0  0
 28 30  1  0  0  0
 30 32  1  0  0  0
 32 33  1  0  0  0
 33 34  1  0  0  0
 34 35  1  0  0  0
 35 36  1  0  0  0
 35 37  1  0  0  0
 37 38  1  0  0  0
  5  6  2  0  0  0
  6  7  1  0  0  0
  7  8  2  0  0  0
  8  9  1  0  0  0
  9 10  1  0  0  0
  9 11  1  0  0  0
 11 12  2  0  0  0
 11  1  1  0  0  0
 17 13  1  0  0  0
  8  3  1  0  0  0
 27 22  1  0  0  0
 38 32  1  0  0  0
 20 21  1  0  0  0
 30 31  1  0  0  0
M  END
> <minimizedAffinity>
-3.35605

> <CNNscore>
0.5124264359

> <CNNaffinity>
5.0965147018

> <CNN_VS>
2.6115889549

> <CNNaffinity_variance>
0.3869965374

$$$$
[H]c1nc(N([H])c2c([H])c([H])c(C(=O)N([H])C3([H])C([H])([H])C([H])([H])N(C([H])([H])[H])C([H])([H])C3([H])[H])c([H])c2[H])nc2c1N(C([H])([H])[H])C(=O)[C@@]([H])(C([H])([H])C([H])([H])[H])N2C1([H])C([H])([H])C([H])([H])C([H])([H])C1([H])[H]


 38 42  0  0  0  0  0  0  0  0999 V2000
   53.0657   -5.3908   -4.5422 C   0  0  0  0  0  0  0  0  0  0  0  0
   54.0156   -5.7352   -5.5300 N   0  0  0  0  0  0  0  0  0  0  0  0
   53.8332   -5.0463   -6.7970 C   0  0  0  0  0  0  0  0  0  0  0  0
   54.8771   -4.8214   -7.6170 N   0  0  0  0  0  0  0  0  0  0  0  0
   54.7238   -4.1775   -8.8160 C   0  0  0  0  0  0  0  0  0  0  0  0
   53.5141   -3.7650   -9.1768 N   0  0  0  0  0  0  0  0  0  0  0  0
   52.4271   -3.9492   -8.4208 C   0  0  0  0  0  0  0  0  0  0  0  0
   52.6000   -4.5976   -7.2212 C   0  0  0  0  0  0  0  0  0  0  0  0
   51.4659   -4.8169   -6.3917 N   0  0  0  0  0  0  0  0  0  0  0  0
   50.1338   -4.3719   -6.7754 C   0  0  0  0  0  0  0  0  0  0  0  0
   51.6880   -5.4951   -5.1639 C   0  0  0  0  0  0  0  0  0  0  0  0
   50.7525   -6.1491   -4.6399 O   0  0  0  0  0  0  0  0  0  0  0  0
   55.1153   -6.6571   -5.4614 C   0  0  0  0  0  0  0  0  0  0  0  0
   54.8773   -7.9165   -4.7051 C   0  0  0  0  0  0  0  0  0  0  0  0
   56.0349   -8.1107   -3.7730 C   0  0  0  0  0  0  0  0  0  0  0  0
   56.9603   -6.9529   -3.9307 C   0  0  0  0  0  0  0  0  0  0  0  0
   56.3828   -6.0129   -4.9386 C   0  0  0  0  0  0  0  0  0  0  0  0
   53.8055   -5.2688   -2.2549 C   0  0  0  0  0  0  0  0  0  0  0  0
   53.0038   -6.1086   -3.2690 C   0  0  0  0  0  0  0  0  0  0  0  0
   55.8478   -3.9374   -9.6329 N   0  0  0  0  0  0  0  0  0  0  0  0
   55.7453   -3.1658  -10.3871 H   0  0  0  0  0  0  0  0  0  0  0  0
   57.0903   -4.5645   -9.5981 C   0  0  0  0  0  0  0  0  0  0  0  0
   57.6225   -4.9304   -8.3579 C   0  0  0  0  0  0  0  0  0  0  0  0
   58.8288   -5.5699   -8.2431 C   0  0  0  0  0  0  0  0  0  0  0  0
   59.5821   -5.8865   -9.3535 C   0  0  0  0  0  0  0  0  0  0  0  0
   59.0737   -5.5350  -10.5776 C   0  0  0  0  0  0  0  0  0  0  0  0
   57.8350   -4.8783  -10.6973 C   0  0  0  0  0  0  0  0  0  0  0  0
   60.8726   -6.5664   -9.2848 C   0  0  0  0  0  0  0  0  0  0  0  0
   61.2748   -6.9727   -8.1660 O   0  0  0  0  0  0  0  0  0  0  0  0
   61.6764   -6.7817  -10.4192 N   0  0  0  0  0  0  0  0  0  0  0  0
   61.4142   -6.4729  -11.3926 H   0  0  0  0  0  0  0  0  0  0  0  0
   62.9485   -7.4656  -10.2841 C   0  0  0  0  0  0  0  0  0  0  0  0
   64.0263   -6.4001  -10.4559 C   0  0  0  0  0  0  0  0  0  0  0  0
   65.2354   -7.0874  -11.0556 C   0  0  0  0  0  0  0  0  0  0  0  0
   64.9169   -7.3010  -12.4632 N   0  0  0  0  0  0  0  0  0  0  0  0
   64.8554   -6.0114  -13.1333 C   0  0  0  0  0  0  0  0  0  0  0  0
   63.6938   -8.0271  -12.6148 C   0  0  0  0  0  0  0  0  0  0  0  0
   63.1256   -8.5375  -11.3124 C   0  0  0  0  0  0  0  0  0  0  0  0
 18 19  1  0  0  0
 19  1  1  0  0  0
  1  2  1  0  0  0
  2 13  1  0  0  0
 13 14  1  0  0  0
 14 15  1  0  0  0
 15 16  1  0  0  0
 16 17  1  0  0  0
  2  3  1  0  0  0
  3  4  2  0  0  0
  4  5  1  0  0  0
  5 20  1  0  0  0
 20 22  1  0  0  0
 22 23  2  0  0  0
 23 24  1  0  0  0
 24 25  2  0  0  0
 25 26  1  0  0  0
 26 27  2  0  0  0
 25 28  1  0  0  0
 28 29  2  0  0  0
 28 30  1  0  0  0
 30 32  1  0  0  0
 32 33  1  0  0  0
 33 34  1  0  0  0
 34 35  1  0  0  0
 35 36  1  0  0  0
 35 37  1  0  0  0
 37 38  1  0  0  0
  5  6  2  0  0  0
  6  7  1  0  0  0
  7  8  2  0  0  0
  8  9  1  0  0  0
  9 10  1  0  0  0
  9 11  1  0  0  0
 11 12  2  0  0  0
 11  1  1  0  0  0
 17 13  1  0  0  0
  8  3  1  0  0  0
 27 22  1  0  0  0
 38 32  1  0  0  0
 20 21  1  0  0  0
 30 31  1  0  0  0
M  END
> <minimizedAffinity>
-8.12041

> <CNNscore>
0.4811756015

> <CNNaffinity>
7.1045808792

> <CNN_VS>
3.4185509682

> <CNNaffinity_variance>
0.3253184855

$$$$
[H]c1nc(N([H])c2c([H])c([H])c(C(=O)N([H])C3([H])C([H])([H])C([H])([H])N(C([H])([H])[H])C([H])([H])C3([H])[H])c([H])c2[H])nc2c1N(C([H])([H])[H])C(=O)[C@@]([H])(C([H])([H])C([H])([H])[H])N2C1([H])C([H])([H])C([H])([H])C([H])([H])C1([H])[H]


 38 42  0  0  0  0  0  0  0  0999 V2000
   63.7092   -4.1541  -15.5145 C   0  0  0  0  0  0  0  0  0  0  0  0
   63.8303   -5.2566  -14.6390 N   0  0  0  0  0  0  0  0  0  0  0  0
   63.5641   -6.5430  -15.2615 C   0  0  0  0  0  0  0  0  0  0  0  0
   64.1306   -7.6691  -14.7887 N   0  0  0  0  0  0  0  0  0  0  0  0
   63.8885   -8.8902  -15.3597 C   0  0  0  0  0  0  0  0  0  0  0  0
   63.0744   -8.9630  -16.4063 N   0  0  0  0  0  0  0  0  0  0  0  0
   62.4725   -7.8932  -16.9357 C   0  0  0  0  0  0  0  0  0  0  0  0
   62.7269   -6.6762  -16.3493 C   0  0  0  0  0  0  0  0  0  0  0  0
   62.1005   -5.5157  -16.8812 N   0  0  0  0  0  0  0  0  0  0  0  0
   61.2045   -5.5809  -18.0269 C   0  0  0  0  0  0  0  0  0  0  0  0
   62.3863   -4.2800  -16.2423 C   0  0  0  0  0  0  0  0  0  0  0  0
   61.5490   -3.3456  -16.2987 O   0  0  0  0  0  0  0  0  0  0  0  0
   64.1701   -5.2851  -13.2434 C   0  0  0  0  0  0  0  0  0  0  0  0
   65.5282   -5.7893  -12.9027 C   0  0  0  0  0  0  0  0  0  0  0  0
   65.3753   -6.7927  -11.7998 C   0  0  0  0  0  0  0  0  0  0  0  0
   63.9234   -6.9307  -11.4924 C   0  0  0  0  0  0  0  0  0  0  0  0
   63.1530   -6.0399  -12.4123 C   0  0  0  0  0  0  0  0  0  0  0  0
   65.2297   -2.3069  -15.2511 C   0  0  0  0  0  0  0  0  0  0  0  0
   63.7817   -2.7806  -15.0162 C   0  0  0  0  0  0  0  0  0  0  0  0
   64.5237  -10.0417  -14.8509 N   0  0  0  0  0  0  0  0  0  0  0  0
   65.4072  -10.3831  -15.3778 H   0  0  0  0  0  0  0  0  0  0  0  0
   64.1659  -10.8079  -13.7448 C   0  0  0  0  0  0  0  0  0  0  0  0
   64.0597  -10.1800  -12.5000 C   0  0  0  0  0  0  0  0  0  0  0  0
   63.6918  -10.8614  -11.3697 C   0  0  0  0  0  0  0  0  0  0  0  0
   63.4058  -12.2095  -11.4051 C   0  0  0  0  0  0  0  0  0  0  0  0
   63.5045  -12.8400  -12.6189 C   0  0  0  0  0  0  0  0  0  0  0  0
   63.8821  -12.1418  -13.7807 C   0  0  0  0  0  0  0  0  0  0  0  0
   63.0100  -12.9807  -10.2300 C   0  0  0  0  0  0  0  0  0  0  0  0
   62.5594  -14.1411  -10.4012 O   0  0  0  0  0  0  0  0  0  0  0  0
   63.1148  -12.4746   -8.9216 N   0  0  0  0  0  0  0  0  0  0  0  0
   63.4809  -11.5131   -8.6908 H   0  0  0  0  0  0  0  0  0  0  0  0
   62.7057  -13.2925   -7.7956 C   0  0  0  0  0  0  0  0  0  0  0  0
   61.3676  -12.7318   -7.3246 C   0  0  0  0  0  0  0  0  0  0  0  0
   61.2786  -12.9933   -5.8354 C   0  0  0  0  0  0  0  0  0  0  0  0
   62.1569  -12.0143   -5.2042 N   0  0  0  0  0  0  0  0  0  0  0  0
   61.5874  -10.6875   -5.3805 C   0  0  0  0  0  0  0  0  0  0  0  0
   63.4833  -12.0879   -5.7347 C   0  0  0  0  0  0  0  0  0  0  0  0
   63.6968  -13.2490   -6.6760 C   0  0  0  0  0  0  0  0  0  0  0  0
 18 19  1  0  0  0
 19  1  1  0  0  0
  1  2  1  0  0  0
  2 13  1  0  0  0
 13 14  1  0  0  0
 14 15  1  0  0  0
 15 16  1  0  0  0
 16 17  1  0  0  0
  2  3  1  0  0  0
  3  4  2  0  0  0
  4  5  1  0  0  0
  5 20  1  0  0  0
 20 22  1  0  0  0
 22 23  2  0  0  0
 23 24  1  0  0  0
 24 25  2  0  0  0
 25 26  1  0  0  0
 26 27  2  0  0  0
 25 28  1  0  0  0
 28 29  2  0  0  0
 28 30  1  0  0  0
 30 32  1  0  0  0
 32 33  1  0  0  0
 33 34  1  0  0  0
 34 35  1  0  0  0
 35 36  1  0  0  0
 35 37  1  0  0  0
 37 38  1  0  0  0
  5  6  2  0  0  0
  6  7  1  0  0  0
  7  8  2  0  0  0
  8  9  1  0  0  0
  9 10  1  0  0  0
  9 11  1  0  0  0
 11 12  2  0  0  0
 11  1  1  0  0  0
 17 13  1  0  0  0
  8  3  1  0  0  0
 27 22  1  0  0  0
 38 32  1  0  0  0
 20 21  1  0  0  0
 30 31  1  0  0  0
M  END
> <minimizedAffinity>
-2.74274

> <CNNscore>
0.4742933512

> <CNNaffinity>
5.2862577438

> <CNN_VS>
2.5072369576

> <CNNaffinity_variance>
0.0590647049

$$$$
[H]c1nc(N([H])c2c([H])c([H])c(C(=O)N([H])C3([H])C([H])([H])C([H])([H])N(C([H])([H])[H])C([H])([H])C3([H])[H])c([H])c2[H])nc2c1N(C([H])([H])[H])C(=O)[C@@]([H])(C([H])([H])C([H])([H])[H])N2C1([H])C([H])([H])C([H])([H])C([H])([H])C1([H])[H]


 38 42  0  0  0  0  0  0  0  0999 V2000
   53.1391   -5.4678   -4.0394 C   0  0  0  0  0  0  0  0  0  0  0  0
   54.0304   -5.8115   -5.0806 N   0  0  0  0  0  0  0  0  0  0  0  0
   53.7467   -5.1572   -6.3473 C   0  0  0  0  0  0  0  0  0  0  0  0
   54.7278   -4.9256   -7.2397 N   0  0  0  0  0  0  0  0  0  0  0  0
   54.4788   -4.3140   -8.4396 C   0  0  0  0  0  0  0  0  0  0  0  0
   53.2375   -3.9404   -8.7278 N   0  0  0  0  0  0  0  0  0  0  0  0
   52.2080   -4.1338   -7.8973 C   0  0  0  0  0  0  0  0  0  0  0  0
   52.4767   -4.7495   -6.6981 C   0  0  0  0  0  0  0  0  0  0  0  0
   51.4061   -4.9774   -5.7904 N   0  0  0  0  0  0  0  0  0  0  0  0
   50.0403   -4.5748   -6.0940 C   0  0  0  0  0  0  0  0  0  0  0  0
   51.7266   -5.6209   -4.5657 C   0  0  0  0  0  0  0  0  0  0  0  0
   50.8453   -6.2855   -3.9664 O   0  0  0  0  0  0  0  0  0  0  0  0
   55.1562   -6.7039   -5.0654 C   0  0  0  0  0  0  0  0  0  0  0  0
   54.9490   -8.0200   -4.4024 C   0  0  0  0  0  0  0  0  0  0  0  0
   56.1037   -8.2462   -3.4739 C   0  0  0  0  0  0  0  0  0  0  0  0
   56.9959   -7.0540   -3.5397 C   0  0  0  0  0  0  0  0  0  0  0  0
   56.3997   -6.0620   -4.4850 C   0  0  0  0  0  0  0  0  0  0  0  0
   53.9841   -5.2508   -1.7961 C   0  0  0  0  0  0  0  0  0  0  0  0
   53.1804   -6.1569   -2.7497 C   0  0  0  0  0  0  0  0  0  0  0  0
   55.5397   -4.0652   -9.3345 N   0  0  0  0  0  0  0  0  0  0  0  0
   55.3550   -3.3399  -10.1184 H   0  0  0  0  0  0  0  0  0  0  0  0
   56.8116   -4.6312   -9.3446 C   0  0  0  0  0  0  0  0  0  0  0  0
   57.4454   -4.8348  -10.5743 C   0  0  0  0  0  0  0  0  0  0  0  0
   58.7049   -5.3664  -10.6652 C   0  0  0  0  0  0  0  0  0  0  0  0
   59.4143   -5.7288   -9.5400 C   0  0  0  0  0  0  0  0  0  0  0  0
   58.8069   -5.5347   -8.3259 C   0  0  0  0  0  0  0  0  0  0  0  0
   57.5134   -4.9888   -8.2307 C   0  0  0  0  0  0  0  0  0  0  0  0
   60.7578   -6.2991   -9.5831 C   0  0  0  0  0  0  0  0  0  0  0  0
   61.2260   -6.6409  -10.6978 O   0  0  0  0  0  0  0  0  0  0  0  0
   61.5419   -6.4781   -8.4287 N   0  0  0  0  0  0  0  0  0  0  0  0
   61.2251   -6.2192   -7.4570 H   0  0  0  0  0  0  0  0  0  0  0  0
   62.8707   -7.0494   -8.5393 C   0  0  0  0  0  0  0  0  0  0  0  0
   63.0014   -8.0505   -7.3961 C   0  0  0  0  0  0  0  0  0  0  0  0
   64.4656   -8.0927   -7.0110 C   0  0  0  0  0  0  0  0  0  0  0  0
   64.7161   -6.8697   -6.2563 N   0  0  0  0  0  0  0  0  0  0  0  0
   63.9999   -6.9409   -4.9922 C   0  0  0  0  0  0  0  0  0  0  0  0
   64.3394   -5.7106   -7.0053 C   0  0  0  0  0  0  0  0  0  0  0  0
   63.9426   -6.0116   -8.4306 C   0  0  0  0  0  0  0  0  0  0  0  0
 18 19  1  0  0  0
 19  1  1  0  0  0
  1  2  1  0  0  0
  2 13  1  0  0  0
 13 14  1  0  0  0
 14 15  1  0  0  0
 15 16  1  0  0  0
 16 17  1  0  0  0
  2  3  1  0  0  0
  3  4  2  0  0  0
  4  5  1  0  0  0
  5 20  1  0  0  0
 20 22  1  0  0  0
 22 23  2  0  0  0
 23 24  1  0  0  0
 24 25  2  0  0  0
 25 26  1  0  0  0
 26 27  2  0  0  0
 25 28  1  0  0  0
 28 29  2  0  0  0
 28 30  1  0  0  0
 30 32  1  0  0  0
 32 33  1  0  0  0
 33 34  1  0  0  0
 34 35  1  0  0  0
 35 36  1  0  0  0
 35 37  1  0  0  0
 37 38  1  0  0  0
  5  6  2  0  0  0
  6  7  1  0  0  0
  7  8  2  0  0  0
  8  9  1  0  0  0
  9 10  1  0  0  0
  9 11  1  0  0  0
 11 12  2  0  0  0
 11  1  1  0  0  0
 17 13  1  0  0  0
  8  3  1  0  0  0
 27 22  1  0  0  0
 38 32  1  0  0  0
 20 21  1  0  0  0
 30 31  1  0  0  0
M  END
> <minimizedAffinity>
-8.54182

> <CNNscore>
0.4485144019

> <CNNaffinity>
7.2055916786

> <CNN_VS>
3.2318115234

> <CNNaffinity_variance>
0.1651105881

$$$$
[H]c1nc(N([H])c2c([H])c([H])c(C(=O)N([H])C3([H])C([H])([H])C([H])([H])N(C([H])([H])[H])C([H])([H])C3([H])[H])c([H])c2[H])nc2c1N(C([H])([H])[H])C(=O)[C@@]([H])(C([H])([H])C([H])([H])[H])N2C1([H])C([H])([H])C([H])([H])C([H])([H])C1([H])[H]


 38 42  0  0  0  0  0  0  0  0999 V2000
   62.3071   -3.6624  -16.1216 C   0  0  0  0  0  0  0  0  0  0  0  0
   62.9497   -4.9080  -16.3006 N   0  0  0  0  0  0  0  0  0  0  0  0
   63.7886   -5.3110  -15.1839 C   0  0  0  0  0  0  0  0  0  0  0  0
   64.0197   -6.6125  -14.9285 N   0  0  0  0  0  0  0  0  0  0  0  0
   64.8102   -7.0108  -13.8834 C   0  0  0  0  0  0  0  0  0  0  0  0
   65.3613   -6.0883  -13.1032 N   0  0  0  0  0  0  0  0  0  0  0  0
   65.1818   -4.7766  -13.2890 C   0  0  0  0  0  0  0  0  0  0  0  0
   64.3859   -4.3956  -14.3429 C   0  0  0  0  0  0  0  0  0  0  0  0
   64.1758   -3.0086  -14.5757 N   0  0  0  0  0  0  0  0  0  0  0  0
   64.7751   -1.9864  -13.7297 C   0  0  0  0  0  0  0  0  0  0  0  0
   63.3516   -2.6585  -15.6779 C   0  0  0  0  0  0  0  0  0  0  0  0
   63.5105   -1.5474  -16.2416 O   0  0  0  0  0  0  0  0  0  0  0  0
   62.8950   -5.8154  -17.4131 C   0  0  0  0  0  0  0  0  0  0  0  0
   61.9896   -6.9875  -17.2676 C   0  0  0  0  0  0  0  0  0  0  0  0
   62.7598   -8.2079  -17.6727 C   0  0  0  0  0  0  0  0  0  0  0  0
   64.1452   -7.7885  -18.0284 C   0  0  0  0  0  0  0  0  0  0  0  0
   64.2650   -6.3129  -17.8260 C   0  0  0  0  0  0  0  0  0  0  0  0
   60.0742   -3.3651  -16.9698 C   0  0  0  0  0  0  0  0  0  0  0  0
   61.5601   -3.0328  -17.2105 C   0  0  0  0  0  0  0  0  0  0  0  0
   65.0045   -8.3850  -13.6339 N   0  0  0  0  0  0  0  0  0  0  0  0
   65.8037   -8.8707  -14.1816 H   0  0  0  0  0  0  0  0  0  0  0  0
   64.3003   -9.2126  -12.7636 C   0  0  0  0  0  0  0  0  0  0  0  0
   64.2396  -10.5816  -13.0415 C   0  0  0  0  0  0  0  0  0  0  0  0
   63.5847  -11.4628  -12.2220 C   0  0  0  0  0  0  0  0  0  0  0  0
   62.9490  -11.0393  -11.0743 C   0  0  0  0  0  0  0  0  0  0  0  0
   62.9999   -9.6994  -10.7869 C   0  0  0  0  0  0  0  0  0  0  0  0
   63.6722   -8.7930  -11.6275 C   0  0  0  0  0  0  0  0  0  0  0  0
   62.2378  -11.9373  -10.1687 C   0  0  0  0  0  0  0  0  0  0  0  0
   61.9294  -13.0825  -10.5834 O   0  0  0  0  0  0  0  0  0  0  0  0
   61.8880  -11.5686   -8.8568 N   0  0  0  0  0  0  0  0  0  0  0  0
   62.1080  -10.6291   -8.4318 H   0  0  0  0  0  0  0  0  0  0  0  0
   61.1824  -12.5081   -8.0061 C   0  0  0  0  0  0  0  0  0  0  0  0
   60.4399  -11.6710   -6.9695 C   0  0  0  0  0  0  0  0  0  0  0  0
   60.3415  -12.5098   -5.7123 C   0  0  0  0  0  0  0  0  0  0  0  0
   61.6677  -12.4780   -5.1054 N   0  0  0  0  0  0  0  0  0  0  0  0
   61.9358  -11.1299   -4.6294 C   0  0  0  0  0  0  0  0  0  0  0  0
   62.6712  -12.9158   -6.0261 C   0  0  0  0  0  0  0  0  0  0  0  0
   62.1127  -13.4577   -7.3199 C   0  0  0  0  0  0  0  0  0  0  0  0
 18 19  1  0  0  0
 19  1  1  0  0  0
  1  2  1  0  0  0
  2 13  1  0  0  0
 13 14  1  0  0  0
 14 15  1  0  0  0
 15 16  1  0  0  0
 16 17  1  0  0  0
  2  3  1  0  0  0
  3  4  2  0  0  0
  4  5  1  0  0  0
  5 20  1  0  0  0
 20 22  1  0  0  0
 22 23  2  0  0  0
 23 24  1  0  0  0
 24 25  2  0  0  0
 25 26  1  0  0  0
 26 27  2  0  0  0
 25 28  1  0  0  0
 28 29  2  0  0  0
 28 30  1  0  0  0
 30 32  1  0  0  0
 32 33  1  0  0  0
 33 34  1  0  0  0
 34 35  1  0  0  0
 35 36  1  0  0  0
 35 37  1  0  0  0
 37 38  1  0  0  0
  5  6  2  0  0  0
  6  7  1  0  0  0
  7  8  2  0  0  0
  8  9  1  0  0  0
  9 10  1  0  0  0
  9 11  1  0  0  0
 11 12  2  0  0  0
 11  1  1  0  0  0
 17 13  1  0  0  0
  8  3  1  0  0  0
 27 22  1  0  0  0
 38 32  1  0  0  0
 20 21  1  0  0  0
 30 31  1  0  0  0
M  END
> <minimizedAffinity>
-3.41839

> <CNNscore>
0.4229424298

> <CNNaffinity>
5.2489876747

> <CNN_VS>
2.2200195789

> <CNNaffinity_variance>
0.2577466369

$$$$
[H]c1nc(N([H])c2c([H])c([H])c(C(=O)N([H])C3([H])C([H])([H])C([H])([H])N(C([H])([H])[H])C([H])([H])C3([H])[H])c([H])c2[H])nc2c1N(C([H])([H])[H])C(=O)[C@@]([H])(C([H])([H])C([H])([H])[H])N2C1([H])C([H])([H])C([H])([H])C([H])([H])C1([H])[H]


 38 42  0  0  0  0  0  0  0  0999 V2000
   63.0536   -3.4440  -14.9659 C   0  0  0  0  0  0  0  0  0  0  0  0
   63.2724   -4.7759  -14.5478 N   0  0  0  0  0  0  0  0  0  0  0  0
   62.9785   -5.7743  -15.5627 C   0  0  0  0  0  0  0  0  0  0  0  0
   63.6064   -6.9652  -15.5617 N   0  0  0  0  0  0  0  0  0  0  0  0
   63.3398   -7.9194  -16.5074 C   0  0  0  0  0  0  0  0  0  0  0  0
   62.4392   -7.6610  -17.4485 N   0  0  0  0  0  0  0  0  0  0  0  0
   61.7723   -6.5046  -17.5195 C   0  0  0  0  0  0  0  0  0  0  0  0
   62.0526   -5.5591  -16.5619 C   0  0  0  0  0  0  0  0  0  0  0  0
   61.3593   -4.3182  -16.6014 N   0  0  0  0  0  0  0  0  0  0  0  0
   60.3683   -4.0221  -17.6261 C   0  0  0  0  0  0  0  0  0  0  0  0
   61.6751   -3.3721  -15.5905 C   0  0  0  0  0  0  0  0  0  0  0  0
   60.8176   -2.5196  -15.2508 O   0  0  0  0  0  0  0  0  0  0  0  0
   63.7330   -5.2745  -13.2817 C   0  0  0  0  0  0  0  0  0  0  0  0
   65.0890   -5.8875  -13.2650 C   0  0  0  0  0  0  0  0  0  0  0  0
   64.9846   -7.1986  -12.5462 C   0  0  0  0  0  0  0  0  0  0  0  0
   63.5607   -7.4056  -12.1575 C   0  0  0  0  0  0  0  0  0  0  0  0
   62.7573   -6.2454  -12.6489 C   0  0  0  0  0  0  0  0  0  0  0  0
   64.2639   -1.4079  -14.5382 C   0  0  0  0  0  0  0  0  0  0  0  0
   63.1419   -2.3302  -14.0216 C   0  0  0  0  0  0  0  0  0  0  0  0
   64.0397   -9.1433  -16.4868 N   0  0  0  0  0  0  0  0  0  0  0  0
   64.8525   -9.2510  -17.1957 H   0  0  0  0  0  0  0  0  0  0  0  0
   63.8265  -10.2463  -15.6644 C   0  0  0  0  0  0  0  0  0  0  0  0
   64.3710  -10.2378  -14.3765 C   0  0  0  0  0  0  0  0  0  0  0  0
   64.1870  -11.2757  -13.5012 C   0  0  0  0  0  0  0  0  0  0  0  0
   63.4500  -12.3873  -13.8503 C   0  0  0  0  0  0  0  0  0  0  0  0
   62.9085  -12.4107  -15.1100 C   0  0  0  0  0  0  0  0  0  0  0  0
   63.0964  -11.3457  -16.0101 C   0  0  0  0  0  0  0  0  0  0  0  0
   63.2250  -13.5189  -12.9553 C   0  0  0  0  0  0  0  0  0  0  0  0
   62.8817  -14.6184  -13.4573 O   0  0  0  0  0  0  0  0  0  0  0  0
   63.3781  -13.4230  -11.5601 N   0  0  0  0  0  0  0  0  0  0  0  0
   63.6621  -12.5397  -11.0593 H   0  0  0  0  0  0  0  0  0  0  0  0
   63.1407  -14.5855  -10.7256 C   0  0  0  0  0  0  0  0  0  0  0  0
   61.8390  -14.3156   -9.9778 C   0  0  0  0  0  0  0  0  0  0  0  0
   61.9331  -15.0402   -8.6511 C   0  0  0  0  0  0  0  0  0  0  0  0
   62.8280  -14.2408   -7.8215 N   0  0  0  0  0  0  0  0  0  0  0  0
   62.1773  -12.9784   -7.5072 C   0  0  0  0  0  0  0  0  0  0  0  0
   64.0875  -14.0325   -8.4671 C   0  0  0  0  0  0  0  0  0  0  0  0
   64.2496  -14.8151   -9.7480 C   0  0  0  0  0  0  0  0  0  0  0  0
 18 19  1  0  0  0
 19  1  1  0  0  0
  1  2  1  0  0  0
  2 13  1  0  0  0
 13 14  1  0  0  0
 14 15  1  0  0  0
 15 16  1  0  0  0
 16 17  1  0  0  0
  2  3  1  0  0  0
  3  4  2  0  0  0
  4  5  1  0  0  0
  5 20  1  0  0  0
 20 22  1  0  0  0
 22 23  2  0  0  0
 23 24  1  0  0  0
 24 25  2  0  0  0
 25 26  1  0  0  0
 26 27  2  0  0  0
 25 28  1  0  0  0
 28 29  2  0  0  0
 28 30  1  0  0  0
 30 32  1  0  0  0
 32 33  1  0  0  0
 33 34  1  0  0  0
 34 35  1  0  0  0
 35 36  1  0  0  0
 35 37  1  0  0  0
 37 38  1  0  0  0
  5  6  2  0  0  0
  6  7  1  0  0  0
  7  8  2  0  0  0
  8  9  1  0  0  0
  9 10  1  0  0  0
  9 11  1  0  0  0
 11 12  2  0  0  0
 11  1  1  0  0  0
 17 13  1  0  0  0
  8  3  1  0  0  0
 27 22  1  0  0  0
 38 32  1  0  0  0
 20 21  1  0  0  0
 30 31  1  0  0  0
M  END
> <minimizedAffinity>
-3.19860

> <CNNscore>
0.3977562487

> <CNNaffinity>
4.9970760345

> <CNN_VS>
1.9876182079

> <CNNaffinity_variance>
0.2835897803

$$$$
[H]c1nc(N([H])c2c([H])c([H])c(C(=O)N([H])C3([H])C([H])([H])C([H])([H])N(C([H])([H])[H])C([H])([H])C3([H])[H])c([H])c2[H])nc2c1N(C([H])([H])[H])C(=O)[C@@]([H])(C([H])([H])C([H])([H])[H])N2C1([H])C([H])([H])C([H])([H])C([H])([H])C1([H])[H]


 38 42  0  0  0  0  0  0  0  0999 V2000
   64.6143   -1.8799  -15.9761 C   0  0  0  0  0  0  0  0  0  0  0  0
   64.5297   -2.3118  -14.6334 N   0  0  0  0  0  0  0  0  0  0  0  0
   64.4293   -3.7535  -14.4769 C   0  0  0  0  0  0  0  0  0  0  0  0
   64.8738   -4.3592  -13.3597 N   0  0  0  0  0  0  0  0  0  0  0  0
   64.7841   -5.7157  -13.1931 C   0  0  0  0  0  0  0  0  0  0  0  0
   64.2450   -6.4501  -14.1593 N   0  0  0  0  0  0  0  0  0  0  0  0
   63.7801   -5.9264  -15.2980 C   0  0  0  0  0  0  0  0  0  0  0  0
   63.8781   -4.5636  -15.4475 C   0  0  0  0  0  0  0  0  0  0  0  0
   63.3894   -3.9690  -16.6432 N   0  0  0  0  0  0  0  0  0  0  0  0
   62.7944   -4.7616  -17.7098 C   0  0  0  0  0  0  0  0  0  0  0  0
   63.5052   -2.5580  -16.7544 C   0  0  0  0  0  0  0  0  0  0  0  0
   62.6993   -1.9261  -17.4815 O   0  0  0  0  0  0  0  0  0  0  0  0
   64.5254   -1.5401  -13.4216 C   0  0  0  0  0  0  0  0  0  0  0  0
   63.3195   -0.7041  -13.1732 C   0  0  0  0  0  0  0  0  0  0  0  0
   63.7895    0.6677  -12.7942 C   0  0  0  0  0  0  0  0  0  0  0  0
   65.2790    0.6821  -12.8479 C   0  0  0  0  0  0  0  0  0  0  0  0
   65.7548   -0.6656  -13.2842 C   0  0  0  0  0  0  0  0  0  0  0  0
   65.7550   -0.1845  -17.2480 C   0  0  0  0  0  0  0  0  0  0  0  0
   64.5557   -0.4591  -16.3192 C   0  0  0  0  0  0  0  0  0  0  0  0
   65.2869   -6.3138  -12.0193 N   0  0  0  0  0  0  0  0  0  0  0  0
   66.3648   -6.3387  -11.9091 H   0  0  0  0  0  0  0  0  0  0  0  0
   64.5748   -6.8813  -10.9661 C   0  0  0  0  0  0  0  0  0  0  0  0
   65.0892   -8.0251  -10.3479 C   0  0  0  0  0  0  0  0  0  0  0  0
   64.4582   -8.6286   -9.2921 C   0  0  0  0  0  0  0  0  0  0  0  0
   63.2764   -8.1332   -8.7836 C   0  0  0  0  0  0  0  0  0  0  0  0
   62.7590   -7.0112   -9.3784 C   0  0  0  0  0  0  0  0  0  0  0  0
   63.4057   -6.3901  -10.4628 C   0  0  0  0  0  0  0  0  0  0  0  0
   62.5651   -8.7389   -7.6613 C   0  0  0  0  0  0  0  0  0  0  0  0
   61.6072   -8.1066   -7.1501 O   0  0  0  0  0  0  0  0  0  0  0  0
   62.9114   -9.9971   -7.1356 N   0  0  0  0  0  0  0  0  0  0  0  0
   63.7002  -10.5915   -7.5046 H   0  0  0  0  0  0  0  0  0  0  0  0
   62.1636  -10.5445   -6.0197 C   0  0  0  0  0  0  0  0  0  0  0  0
   63.1193  -11.4761   -5.2812 C   0  0  0  0  0  0  0  0  0  0  0  0
   62.2765  -12.5673   -4.6544 C   0  0  0  0  0  0  0  0  0  0  0  0
   61.9038  -13.4613   -5.7454 N   0  0  0  0  0  0  0  0  0  0  0  0
   63.0959  -14.1443   -6.2232 C   0  0  0  0  0  0  0  0  0  0  0  0
   61.2516  -12.7493   -6.8009 C   0  0  0  0  0  0  0  0  0  0  0  0
   60.9567  -11.3065   -6.4679 C   0  0  0  0  0  0  0  0  0  0  0  0
 18 19  1  0  0  0
 19  1  1  0  0  0
  1  2  1  0  0  0
  2 13  1  0  0  0
 13 14  1  0  0  0
 14 15  1  0  0  0
 15 16  1  0  0  0
 16 17  1  0  0  0
  2  3  1  0  0  0
  3  4  2  0  0  0
  4  5  1  0  0  0
  5 20  1  0  0  0
 20 22  1  0  0  0
 22 23  2  0  0  0
 23 24  1  0  0  0
 24 25  2  0  0  0
 25 26  1  0  0  0
 26 27  2  0  0  0
 25 28  1  0  0  0
 28 29  2  0  0  0
 28 30  1  0  0  0
 30 32  1  0  0  0
 32 33  1  0  0  0
 33 34  1  0  0  0
 34 35  1  0  0  0
 35 36  1  0  0  0
 35 37  1  0  0  0
 37 38  1  0  0  0
  5  6  2  0  0  0
  6  7  1  0  0  0
  7  8  2  0  0  0
  8  9  1  0  0  0
  9 10  1  0  0  0
  9 11  1  0  0  0
 11 12  2  0  0  0
 11  1  1  0  0  0
 17 13  1  0  0  0
  8  3  1  0  0  0
 27 22  1  0  0  0
 38 32  1  0  0  0
 20 21  1  0  0  0
 30 31  1  0  0  0
M  END
> <minimizedAffinity>
-3.33460

> <CNNscore>
0.3518323600

> <CNNaffinity>
5.0028352737

> <CNN_VS>
1.7601593733

> <CNNaffinity_variance>
0.2224942893

$$$$
[H]c1nc(N([H])c2c([H])c([H])c(C(=O)N([H])C3([H])C([H])([H])C([H])([H])N(C([H])([H])[H])C([H])([H])C3([H])[H])c([H])c2[H])nc2c1N(C([H])([H])[H])C(=O)[C@@]([H])(C([H])([H])C([H])([H])[H])N2C1([H])C([H])([H])C([H])([H])C([H])([H])C1([H])[H]


 38 42  0  0  0  0  0  0  0  0999 V2000
   55.1199   -3.7314   -8.6078 C   0  0  0  0  0  0  0  0  0  0  0  0
   55.9232   -4.7929   -8.1339 N   0  0  0  0  0  0  0  0  0  0  0  0
   57.1215   -5.0303   -8.9218 C   0  0  0  0  0  0  0  0  0  0  0  0
   58.2187   -5.5746   -8.3628 N   0  0  0  0  0  0  0  0  0  0  0  0
   59.3553   -5.8090   -9.0901 C   0  0  0  0  0  0  0  0  0  0  0  0
   59.3735   -5.4901  -10.3792 N   0  0  0  0  0  0  0  0  0  0  0  0
   58.3271   -4.9468  -11.0092 C   0  0  0  0  0  0  0  0  0  0  0  0
   57.1951   -4.7192  -10.2634 C   0  0  0  0  0  0  0  0  0  0  0  0
   56.0594   -4.1473  -10.9000 N   0  0  0  0  0  0  0  0  0  0  0  0
   56.0646   -3.7946  -12.3125 C   0  0  0  0  0  0  0  0  0  0  0  0
   54.9094   -3.9340  -10.0945 C   0  0  0  0  0  0  0  0  0  0  0  0
   53.7729   -3.9200  -10.6291 O   0  0  0  0  0  0  0  0  0  0  0  0
   55.7244   -5.6585   -7.0046 C   0  0  0  0  0  0  0  0  0  0  0  0
   54.4453   -6.4183   -6.9698 C   0  0  0  0  0  0  0  0  0  0  0  0
   53.8556   -6.2499   -5.6021 C   0  0  0  0  0  0  0  0  0  0  0  0
   54.7523   -5.3576   -4.8139 C   0  0  0  0  0  0  0  0  0  0  0  0
   55.8936   -4.9383   -5.6826 C   0  0  0  0  0  0  0  0  0  0  0  0
   53.3490   -2.1013   -8.5912 C   0  0  0  0  0  0  0  0  0  0  0  0
   53.8015   -3.4650   -8.0326 C   0  0  0  0  0  0  0  0  0  0  0  0
   60.4922   -6.3554   -8.4599 N   0  0  0  0  0  0  0  0  0  0  0  0
   60.6441   -6.0942   -7.4190 H   0  0  0  0  0  0  0  0  0  0  0  0
   61.4574   -7.2001   -9.0013 C   0  0  0  0  0  0  0  0  0  0  0  0
   61.0602   -8.4521   -9.4808 C   0  0  0  0  0  0  0  0  0  0  0  0
   61.9469   -9.3299  -10.0468 C   0  0  0  0  0  0  0  0  0  0  0  0
   63.2841   -9.0189  -10.1724 C   0  0  0  0  0  0  0  0  0  0  0  0
   63.6897   -7.7941   -9.7077 C   0  0  0  0  0  0  0  0  0  0  0  0
   62.7804   -6.8913   -9.1262 C   0  0  0  0  0  0  0  0  0  0  0  0
   64.2686   -9.9186  -10.7671 C   0  0  0  0  0  0  0  0  0  0  0  0
   65.4316   -9.9296  -10.2917 O   0  0  0  0  0  0  0  0  0  0  0  0
   63.9634  -10.7684  -11.8460 N   0  0  0  0  0  0  0  0  0  0  0  0
   63.0147  -10.8205  -12.3031 H   0  0  0  0  0  0  0  0  0  0  0  0
   64.9867  -11.6402  -12.3909 C   0  0  0  0  0  0  0  0  0  0  0  0
   64.8283  -11.5890  -13.9070 C   0  0  0  0  0  0  0  0  0  0  0  0
   65.2827  -12.9302  -14.4444 C   0  0  0  0  0  0  0  0  0  0  0  0
   64.2044  -13.8666  -14.1464 N   0  0  0  0  0  0  0  0  0  0  0  0
   63.0437  -13.5205  -14.9518 C   0  0  0  0  0  0  0  0  0  0  0  0
   63.8896  -13.8695  -12.7509 C   0  0  0  0  0  0  0  0  0  0  0  0
   64.8410  -13.0501  -11.9125 C   0  0  0  0  0  0  0  0  0  0  0  0
 18 19  1  0  0  0
 19  1  1  0  0  0
  1  2  1  0  0  0
  2 13  1  0  0  0
 13 14  1  0  0  0
 14 15  1  0  0  0
 15 16  1  0  0  0
 16 17  1  0  0  0
  2  3  1  0  0  0
  3  4  2  0  0  0
  4  5  1  0  0  0
  5 20  1  0  0  0
 20 22  1  0  0  0
 22 23  2  0  0  0
 23 24  1  0  0  0
 24 25  2  0  0  0
 25 26  1  0  0  0
 26 27  2  0  0  0
 25 28  1  0  0  0
 28 29  2  0  0  0
 28 30  1  0  0  0
 30 32  1  0  0  0
 32 33  1  0  0  0
 33 34  1  0  0  0
 34 35  1  0  0  0
 35 36  1  0  0  0
 35 37  1  0  0  0
 37 38  1  0  0  0
  5  6  2  0  0  0
  6  7  1  0  0  0
  7  8  2  0  0  0
  8  9  1  0  0  0
  9 10  1  0  0  0
  9 11  1  0  0  0
 11 12  2  0  0  0
 11  1  1  0  0  0
 17 13  1  0  0  0
  8  3  1  0  0  0
 27 22  1  0  0  0
 38 32  1  0  0  0
 20 21  1  0  0  0
 30 31  1  0  0  0
M  END
> <minimizedAffinity>
-6.56550

> <CNNscore>
0.3413147330

> <CNNaffinity>
6.0904116631

> <CNN_VS>
2.0787472725

> <CNNaffinity_variance>
0.0468890965

$$$$
[H]c1nc(N([H])c2c([H])c([H])c(F)c(C([H])([H])C([H])([H])C([H])([H])N(C([H])([H])[H])C([H])([H])[H])c2[H])nc2c1C([H])([H])C(=S)N([H])c1c([H])c(Cl)c([H])c([H])c1-2


 33 36  0  0  0  0  0  0  0  0999 V2000
   52.7128   -3.3316   -8.7428 C   0  0  0  0  0  0  0  0  0  0  0  0
   51.5715   -2.6574   -8.5858 N   0  0  0  0  0  0  0  0  0  0  0  0
   50.7254   -2.7303   -7.5638 C   0  0  0  0  0  0  0  0  0  0  0  0
   51.0597   -3.6125   -6.5274 C   0  0  0  0  0  0  0  0  0  0  0  0
   50.0398   -3.5807   -5.5010 C   0  0  0  0  0  0  0  0  0  0  0  0
   50.1163   -4.5404   -4.4136 C   0  0  0  0  0  0  0  0  0  0  0  0
   48.6834   -4.6676   -3.5869 S   0  0  0  0  0  0  0  0  0  0  0  0
   51.0940   -5.3929   -3.8776 N   0  0  0  0  0  0  0  0  0  0  0  0
   52.3230   -5.7553   -4.5086 C   0  0  0  0  0  0  0  0  0  0  0  0
   53.0333   -6.6739   -3.7515 C   0  0  0  0  0  0  0  0  0  0  0  0
   54.2612   -7.1658   -4.1748 C   0  0  0  0  0  0  0  0  0  0  0  0
   55.1806   -8.3340   -3.2216 Cl  0  0  0  0  0  0  0  0  0  0  0  0
   54.7514   -6.7027   -5.3862 C   0  0  0  0  0  0  0  0  0  0  0  0
   54.0377   -5.7889   -6.1318 C   0  0  0  0  0  0  0  0  0  0  0  0
   52.8100   -5.2984   -5.7053 C   0  0  0  0  0  0  0  0  0  0  0  0
   52.2283   -4.3303   -6.6449 C   0  0  0  0  0  0  0  0  0  0  0  0
   53.0239   -4.1880   -7.7232 N   0  0  0  0  0  0  0  0  0  0  0  0
   50.9441   -5.8151   -2.9445 H   0  0  0  0  0  0  0  0  0  0  0  0
   53.5646   -3.1879   -9.8485 N   0  0  0  0  0  0  0  0  0  0  0  0
   53.1807   -2.6021  -10.6709 H   0  0  0  0  0  0  0  0  0  0  0  0
   56.9194   -4.4158  -11.0918 C   0  0  0  0  0  0  0  0  0  0  0  0
   55.6098   -3.9080  -11.0611 C   0  0  0  0  0  0  0  0  0  0  0  0
   54.8594   -3.7392   -9.9479 C   0  0  0  0  0  0  0  0  0  0  0  0
   55.4514   -4.1115   -8.7165 C   0  0  0  0  0  0  0  0  0  0  0  0
   56.7177   -4.6090   -8.6984 C   0  0  0  0  0  0  0  0  0  0  0  0
   57.4583   -4.7640   -9.8874 C   0  0  0  0  0  0  0  0  0  0  0  0
   58.6868   -5.3051   -9.8150 F   0  0  0  0  0  0  0  0  0  0  0  0
   57.6527   -4.4667  -12.3729 C   0  0  0  0  0  0  0  0  0  0  0  0
   56.8346   -4.6539  -13.5938 C   0  0  0  0  0  0  0  0  0  0  0  0
   56.8685   -3.7097  -14.6998 C   0  0  0  0  0  0  0  0  0  0  0  0
   58.8703   -3.0498  -15.8408 C   0  0  0  0  0  0  0  0  0  0  0  0
   57.6851   -3.8626  -15.8103 N   0  0  0  0  0  0  0  0  0  0  0  0
   57.2194   -4.3229  -17.0390 C   0  0  0  0  0  0  0  0  0  0  0  0
 31 32  1  0  0  0
 32 33  1  0  0  0
 32 30  1  0  0  0
 30 29  1  0  0  0
 29 28  1  0  0  0
 28 21  1  0  0  0
 21 22  2  0  0  0
 22 23  1  0  0  0
 23 19  1  0  0  0
 19  1  1  0  0  0
  1  2  2  0  0  0
  2  3  1  0  0  0
  3  4  2  0  0  0
  4  5  1  0  0  0
  5  6  1  0  0  0
  6  7  2  0  0  0
  6  8  1  0  0  0
  8  9  1  0  0  0
  9 10  2  0  0  0
 10 11  1  0  0  0
 11 12  1  0  0  0
 11 13  2  0  0  0
 13 14  1  0  0  0
 14 15  2  0  0  0
 15 16  1  0  0  0
 16 17  2  0  0  0
 23 24  2  0  0  0
 24 25  1  0  0  0
 25 26  2  0  0  0
 26 27  1  0  0  0
 26 21  1  0  0  0
 17  1  1  0  0  0
 16  4  1  0  0  0
 15  9  1  0  0  0
 19 20  1  0  0  0
  8 18  1  0  0  0
M  END
> <minimizedAffinity>
-9.83814

> <CNNscore>
0.9438028336

> <CNNaffinity>
8.0663652420

> <CNN_VS>
7.6130585670

> <CNNaffinity_variance>
0.0250875000

$$$$
[H]c1nc(N([H])c2c([H])c([H])c(F)c(C([H])([H])C([H])([H])C([H])([H])N(C([H])([H])[H])C([H])([H])[H])c2[H])nc2c1C([H])([H])C(=S)N([H])c1c([H])c(Cl)c([H])c([H])c1-2


 33 36  0  0  0  0  0  0  0  0999 V2000
   53.3284   -3.5962   -9.4298 C   0  0  0  0  0  0  0  0  0  0  0  0
   52.1806   -2.9318   -9.2790 N   0  0  0  0  0  0  0  0  0  0  0  0
   51.3667   -2.9552   -8.2289 C   0  0  0  0  0  0  0  0  0  0  0  0
   51.7472   -3.7668   -7.1515 C   0  0  0  0  0  0  0  0  0  0  0  0
   50.7579   -3.6881   -6.0980 C   0  0  0  0  0  0  0  0  0  0  0  0
   50.8836   -4.5780   -4.9572 C   0  0  0  0  0  0  0  0  0  0  0  0
   49.4784   -4.6768   -4.0806 S   0  0  0  0  0  0  0  0  0  0  0  0
   51.8917   -5.3805   -4.4006 N   0  0  0  0  0  0  0  0  0  0  0  0
   53.1076   -5.7615   -5.0460 C   0  0  0  0  0  0  0  0  0  0  0  0
   53.8562   -6.6206   -4.2566 C   0  0  0  0  0  0  0  0  0  0  0  0
   55.0794   -7.1181   -4.6868 C   0  0  0  0  0  0  0  0  0  0  0  0
   56.0472   -8.2110   -3.6930 Cl  0  0  0  0  0  0  0  0  0  0  0  0
   55.5250   -6.7226   -5.9386 C   0  0  0  0  0  0  0  0  0  0  0  0
   54.7735   -5.8675   -6.7161 C   0  0  0  0  0  0  0  0  0  0  0  0
   53.5506   -5.3712   -6.2827 C   0  0  0  0  0  0  0  0  0  0  0  0
   52.9243   -4.4719   -7.2611 C   0  0  0  0  0  0  0  0  0  0  0  0
   53.6848   -4.3835   -8.3700 N   0  0  0  0  0  0  0  0  0  0  0  0
   51.7771   -5.7469   -3.4394 H   0  0  0  0  0  0  0  0  0  0  0  0
   54.1443   -3.5073  -10.5678 N   0  0  0  0  0  0  0  0  0  0  0  0
   53.6827   -3.0923  -11.4520 H   0  0  0  0  0  0  0  0  0  0  0  0
   57.5959   -4.8235   -9.7542 C   0  0  0  0  0  0  0  0  0  0  0  0
   56.2662   -4.3891   -9.6236 C   0  0  0  0  0  0  0  0  0  0  0  0
   55.4957   -3.9078  -10.6264 C   0  0  0  0  0  0  0  0  0  0  0  0
   56.0895   -3.8370  -11.9100 C   0  0  0  0  0  0  0  0  0  0  0  0
   57.3756   -4.2462  -12.0833 C   0  0  0  0  0  0  0  0  0  0  0  0
   58.1357   -4.7415  -11.0048 C   0  0  0  0  0  0  0  0  0  0  0  0
   59.4163   -5.0865  -11.2244 F   0  0  0  0  0  0  0  0  0  0  0  0
   58.2913   -5.4060   -8.5886 C   0  0  0  0  0  0  0  0  0  0  0  0
   59.7440   -5.6521   -8.7431 C   0  0  0  0  0  0  0  0  0  0  0  0
   60.2731   -6.9576   -9.1062 C   0  0  0  0  0  0  0  0  0  0  0  0
   61.9759   -8.5967   -9.5037 C   0  0  0  0  0  0  0  0  0  0  0  0
   61.6287   -7.2455   -9.1573 N   0  0  0  0  0  0  0  0  0  0  0  0
   62.5867   -6.5227   -8.4515 C   0  0  0  0  0  0  0  0  0  0  0  0
 31 32  1  0  0  0
 32 33  1  0  0  0
 32 30  1  0  0  0
 30 29  1  0  0  0
 29 28  1  0  0  0
 28 21  1  0  0  0
 21 22  2  0  0  0
 22 23  1  0  0  0
 23 19  1  0  0  0
 19  1  1  0  0  0
  1  2  2  0  0  0
  2  3  1  0  0  0
  3  4  2  0  0  0
  4  5  1  0  0  0
  5  6  1  0  0  0
  6  7  2  0  0  0
  6  8  1  0  0  0
  8  9  1  0  0  0
  9 10  2  0  0  0
 10 11  1  0  0  0
 11 12  1  0  0  0
 11 13  2  0  0  0
 13 14  1  0  0  0
 14 15  2  0  0  0
 15 16  1  0  0  0
 16 17  2  0  0  0
 23 24  2  0  0  0
 24 25  1  0  0  0
 25 26  2  0  0  0
 26 27  1  0  0  0
 26 21  1  0  0  0
 17  1  1  0  0  0
 16  4  1  0  0  0
 15  9  1  0  0  0
 19 20  1  0  0  0
  8 18  1  0  0  0
M  END
> <minimizedAffinity>
-9.20383

> <CNNscore>
0.9117897153

> <CNNaffinity>
8.0450754166

> <CNN_VS>
7.3354167938

> <CNNaffinity_variance>
0.1100636870

$$$$
[H]c1nc(N([H])c2c([H])c([H])c(F)c(C([H])([H])C([H])([H])C([H])([H])N(C([H])([H])[H])C([H])([H])[H])c2[H])nc2c1C([H])([H])C(=S)N([H])c1c([H])c(Cl)c([H])c([H])c1-2


 33 36  0  0  0  0  0  0  0  0999 V2000
   52.5081   -3.0876   -8.6990 C   0  0  0  0  0  0  0  0  0  0  0  0
   51.5278   -2.1873   -8.7991 N   0  0  0  0  0  0  0  0  0  0  0  0
   50.5219   -1.9924   -7.9530 C   0  0  0  0  0  0  0  0  0  0  0  0
   50.4754   -2.8211   -6.8237 C   0  0  0  0  0  0  0  0  0  0  0  0
   49.3240   -2.4889   -6.0121 C   0  0  0  0  0  0  0  0  0  0  0  0
   49.0042   -3.3368   -4.8772 C   0  0  0  0  0  0  0  0  0  0  0  0
   47.4564   -3.0961   -4.3305 S   0  0  0  0  0  0  0  0  0  0  0  0
   49.6693   -4.3125   -4.1185 N   0  0  0  0  0  0  0  0  0  0  0  0
   50.8826   -4.9714   -4.4842 C   0  0  0  0  0  0  0  0  0  0  0  0
   51.2382   -5.9372   -3.5556 C   0  0  0  0  0  0  0  0  0  0  0  0
   52.3868   -6.7023   -3.7105 C   0  0  0  0  0  0  0  0  0  0  0  0
   52.8562   -7.9347   -2.5359 Cl  0  0  0  0  0  0  0  0  0  0  0  0
   53.1667   -6.4636   -4.8316 C   0  0  0  0  0  0  0  0  0  0  0  0
   52.8049   -5.5007   -5.7493 C   0  0  0  0  0  0  0  0  0  0  0  0
   51.6556   -4.7367   -5.5912 C   0  0  0  0  0  0  0  0  0  0  0  0
   51.4659   -3.7656   -6.6773 C   0  0  0  0  0  0  0  0  0  0  0  0
   52.4478   -3.8882   -7.5920 N   0  0  0  0  0  0  0  0  0  0  0  0
   49.2735   -4.6057   -3.2081 H   0  0  0  0  0  0  0  0  0  0  0  0
   53.5492   -3.2227   -9.6300 N   0  0  0  0  0  0  0  0  0  0  0  0
   53.3320   -2.8949  -10.6362 H   0  0  0  0  0  0  0  0  0  0  0  0
   57.0481   -4.6401   -9.8669 C   0  0  0  0  0  0  0  0  0  0  0  0
   55.7643   -4.1853  -10.2115 C   0  0  0  0  0  0  0  0  0  0  0  0
   54.8299   -3.7387   -9.3407 C   0  0  0  0  0  0  0  0  0  0  0  0
   55.1842   -3.7367   -7.9696 C   0  0  0  0  0  0  0  0  0  0  0  0
   56.4170   -4.1693   -7.5895 C   0  0  0  0  0  0  0  0  0  0  0  0
   57.3556   -4.6240   -8.5374 C   0  0  0  0  0  0  0  0  0  0  0  0
   58.5405   -5.0847   -8.1005 F   0  0  0  0  0  0  0  0  0  0  0  0
   57.9981   -5.0204  -10.9319 C   0  0  0  0  0  0  0  0  0  0  0  0
   58.1450   -4.0664  -12.0558 C   0  0  0  0  0  0  0  0  0  0  0  0
   57.0518   -3.7735  -12.9696 C   0  0  0  0  0  0  0  0  0  0  0  0
   57.6205   -3.3595  -15.2608 C   0  0  0  0  0  0  0  0  0  0  0  0
   57.0127   -4.2193  -14.2822 N   0  0  0  0  0  0  0  0  0  0  0  0
   56.0539   -5.1119  -14.7539 C   0  0  0  0  0  0  0  0  0  0  0  0
 31 32  1  0  0  0
 32 33  1  0  0  0
 32 30  1  0  0  0
 30 29  1  0  0  0
 29 28  1  0  0  0
 28 21  1  0  0  0
 21 22  2  0  0  0
 22 23  1  0  0  0
 23 19  1  0  0  0
 19  1  1  0  0  0
  1  2  2  0  0  0
  2  3  1  0  0  0
  3  4  2  0  0  0
  4  5  1  0  0  0
  5  6  1  0  0  0
  6  7  2  0  0  0
  6  8  1  0  0  0
  8  9  1  0  0  0
  9 10  2  0  0  0
 10 11  1  0  0  0
 11 12  1  0  0  0
 11 13  2  0  0  0
 13 14  1  0  0  0
 14 15  2  0  0  0
 15 16  1  0  0  0
 16 17  2  0  0  0
 23 24  2  0  0  0
 24 25  1  0  0  0
 25 26  2  0  0  0
 26 27  1  0  0  0
 26 21  1  0  0  0
 17  1  1  0  0  0
 16  4  1  0  0  0
 15  9  1  0  0  0
 19 20  1  0  0  0
  8 18  1  0  0  0
M  END
> <minimizedAffinity>
-10.35822

> <CNNscore>
0.8600162864

> <CNNaffinity>
8.0520706177

> <CNN_VS>
6.9249119759

> <CNNaffinity_variance>
0.0373540446

$$$$
[H]c1nc(N([H])c2c([H])c([H])c(F)c(C([H])([H])C([H])([H])C([H])([H])N(C([H])([H])[H])C([H])([H])[H])c2[H])nc2c1C([H])([H])C(=S)N([H])c1c([H])c(Cl)c([H])c([H])c1-2


 33 36  0  0  0  0  0  0  0  0999 V2000
   52.7283   -3.3343   -8.5135 C   0  0  0  0  0  0  0  0  0  0  0  0
   53.3223   -3.1895   -9.7000 N   0  0  0  0  0  0  0  0  0  0  0  0
   54.5242   -3.6277  -10.0593 C   0  0  0  0  0  0  0  0  0  0  0  0
   55.2605   -4.3220   -9.0898 C   0  0  0  0  0  0  0  0  0  0  0  0
   56.5410   -4.7227   -9.6327 C   0  0  0  0  0  0  0  0  0  0  0  0
   57.5204   -5.3167   -8.7399 C   0  0  0  0  0  0  0  0  0  0  0  0
   59.0465   -5.3129   -9.3907 S   0  0  0  0  0  0  0  0  0  0  0  0
   57.5103   -5.8968   -7.4618 N   0  0  0  0  0  0  0  0  0  0  0  0
   56.4510   -5.7995   -6.5087 C   0  0  0  0  0  0  0  0  0  0  0  0
   56.7820   -6.4191   -5.3136 C   0  0  0  0  0  0  0  0  0  0  0  0
   55.8974   -6.4470   -4.2434 C   0  0  0  0  0  0  0  0  0  0  0  0
   56.3016   -7.2343   -2.7151 Cl  0  0  0  0  0  0  0  0  0  0  0  0
   54.6676   -5.8304   -4.4151 C   0  0  0  0  0  0  0  0  0  0  0  0
   54.3475   -5.2171   -5.6075 C   0  0  0  0  0  0  0  0  0  0  0  0
   55.2344   -5.1914   -6.6763 C   0  0  0  0  0  0  0  0  0  0  0  0
   54.6886   -4.4963   -7.8500 C   0  0  0  0  0  0  0  0  0  0  0  0
   53.4601   -4.0135   -7.5790 N   0  0  0  0  0  0  0  0  0  0  0  0
   58.3267   -6.4507   -7.1485 H   0  0  0  0  0  0  0  0  0  0  0  0
   51.4443   -2.8546   -8.2137 N   0  0  0  0  0  0  0  0  0  0  0  0
   51.0136   -2.1704   -8.9302 H   0  0  0  0  0  0  0  0  0  0  0  0
   50.1238   -4.5468   -5.0991 C   0  0  0  0  0  0  0  0  0  0  0  0
   50.8683   -4.2760   -6.2593 C   0  0  0  0  0  0  0  0  0  0  0  0
   50.6971   -3.2062   -7.0699 C   0  0  0  0  0  0  0  0  0  0  0  0
   49.6776   -2.2908   -6.7119 C   0  0  0  0  0  0  0  0  0  0  0  0
   48.9307   -2.5131   -5.5965 C   0  0  0  0  0  0  0  0  0  0  0  0
   49.1503   -3.6438   -4.7843 C   0  0  0  0  0  0  0  0  0  0  0  0
   48.3508   -3.8379   -3.7211 F   0  0  0  0  0  0  0  0  0  0  0  0
   50.4760   -5.7107   -4.2608 C   0  0  0  0  0  0  0  0  0  0  0  0
   51.1725   -5.4186   -2.9863 C   0  0  0  0  0  0  0  0  0  0  0  0
   51.2124   -6.3738   -1.8900 C   0  0  0  0  0  0  0  0  0  0  0  0
   53.3287   -5.9960   -0.8303 C   0  0  0  0  0  0  0  0  0  0  0  0
   52.3867   -6.9224   -1.3967 N   0  0  0  0  0  0  0  0  0  0  0  0
   52.9041   -8.1363   -1.8407 C   0  0  0  0  0  0  0  0  0  0  0  0
 31 32  1  0  0  0
 32 33  1  0  0  0
 32 30  1  0  0  0
 30 29  1  0  0  0
 29 28  1  0  0  0
 28 21  1  0  0  0
 21 22  2  0  0  0
 22 23  1  0  0  0
 23 19  1  0  0  0
 19  1  1  0  0  0
  1  2  2  0  0  0
  2  3  1  0  0  0
  3  4  2  0  0  0
  4  5  1  0  0  0
  5  6  1  0  0  0
  6  7  2  0  0  0
  6  8  1  0  0  0
  8  9  1  0  0  0
  9 10  2  0  0  0
 10 11  1  0  0  0
 11 12  1  0  0  0
 11 13  2  0  0  0
 13 14  1  0  0  0
 14 15  2  0  0  0
 15 16  1  0  0  0
 16 17  2  0  0  0
 23 24  2  0  0  0
 24 25  1  0  0  0
 25 26  2  0  0  0
 26 27  1  0  0  0
 26 21  1  0  0  0
 17  1  1  0  0  0
 16  4  1  0  0  0
 15  9  1  0  0  0
 19 20  1  0  0  0
  8 18  1  0  0  0
M  END
> <minimizedAffinity>
-10.34019

> <CNNscore>
0.8280938864

> <CNNaffinity>
8.2016353607

> <CNN_VS>
6.7917242050

> <CNNaffinity_variance>
0.1489994824

$$$$
[H]c1nc(N([H])c2c([H])c([H])c(F)c(C([H])([H])C([H])([H])C([H])([H])N(C([H])([H])[H])C([H])([H])[H])c2[H])nc2c1C([H])([H])C(=S)N([H])c1c([H])c(Cl)c([H])c([H])c1-2


 33 36  0  0  0  0  0  0  0  0999 V2000
   52.3834   -3.4909   -8.2896 C   0  0  0  0  0  0  0  0  0  0  0  0
   51.4778   -2.5325   -8.4968 N   0  0  0  0  0  0  0  0  0  0  0  0
   50.4499   -2.2119   -7.7181 C   0  0  0  0  0  0  0  0  0  0  0  0
   50.2891   -2.9588   -6.5432 C   0  0  0  0  0  0  0  0  0  0  0  0
   49.1279   -2.4935   -5.8151 C   0  0  0  0  0  0  0  0  0  0  0  0
   48.6932   -3.2400   -4.6476 C   0  0  0  0  0  0  0  0  0  0  0  0
   47.1431   -2.8555   -4.1983 S   0  0  0  0  0  0  0  0  0  0  0  0
   49.2480   -4.2077   -3.7957 N   0  0  0  0  0  0  0  0  0  0  0  0
   50.4257   -4.9729   -4.0557 C   0  0  0  0  0  0  0  0  0  0  0  0
   50.6649   -5.8978   -3.0513 C   0  0  0  0  0  0  0  0  0  0  0  0
   51.7602   -6.7503   -3.0979 C   0  0  0  0  0  0  0  0  0  0  0  0
   52.0814   -7.9322   -1.8257 Cl  0  0  0  0  0  0  0  0  0  0  0  0
   52.6079   -6.6417   -4.1896 C   0  0  0  0  0  0  0  0  0  0  0  0
   52.3618   -5.7185   -5.1834 C   0  0  0  0  0  0  0  0  0  0  0  0
   51.2655   -4.8669   -5.1335 C   0  0  0  0  0  0  0  0  0  0  0  0
   51.1994   -3.9588   -6.2866 C   0  0  0  0  0  0  0  0  0  0  0  0
   52.2120   -4.2103   -7.1394 N   0  0  0  0  0  0  0  0  0  0  0  0
   48.7890   -4.4115   -2.8906 H   0  0  0  0  0  0  0  0  0  0  0  0
   53.4548   -3.7601   -9.1549 N   0  0  0  0  0  0  0  0  0  0  0  0
   53.2695   -3.5942  -10.2061 H   0  0  0  0  0  0  0  0  0  0  0  0
   56.3429   -5.2962   -7.2557 C   0  0  0  0  0  0  0  0  0  0  0  0
   55.0643   -4.8156   -7.5842 C   0  0  0  0  0  0  0  0  0  0  0  0
   54.7271   -4.2142   -8.7485 C   0  0  0  0  0  0  0  0  0  0  0  0
   55.7568   -4.0581   -9.7080 C   0  0  0  0  0  0  0  0  0  0  0  0
   57.0111   -4.5079   -9.4326 C   0  0  0  0  0  0  0  0  0  0  0  0
   57.3104   -5.1293   -8.2036 C   0  0  0  0  0  0  0  0  0  0  0  0
   58.5775   -5.5110   -7.9668 F   0  0  0  0  0  0  0  0  0  0  0  0
   56.5490   -6.0091   -5.9787 C   0  0  0  0  0  0  0  0  0  0  0  0
   56.0146   -5.3519   -4.7632 C   0  0  0  0  0  0  0  0  0  0  0  0
   56.2797   -5.8633   -3.4275 C   0  0  0  0  0  0  0  0  0  0  0  0
   57.1773   -4.6050   -1.5958 C   0  0  0  0  0  0  0  0  0  0  0  0
   56.0273   -5.1432   -2.2695 N   0  0  0  0  0  0  0  0  0  0  0  0
   54.8860   -5.3268   -1.4935 C   0  0  0  0  0  0  0  0  0  0  0  0
 31 32  1  0  0  0
 32 33  1  0  0  0
 32 30  1  0  0  0
 30 29  1  0  0  0
 29 28  1  0  0  0
 28 21  1  0  0  0
 21 22  2  0  0  0
 22 23  1  0  0  0
 23 19  1  0  0  0
 19  1  1  0  0  0
  1  2  2  0  0  0
  2  3  1  0  0  0
  3  4  2  0  0  0
  4  5  1  0  0  0
  5  6  1  0  0  0
  6  7  2  0  0  0
  6  8  1  0  0  0
  8  9  1  0  0  0
  9 10  2  0  0  0
 10 11  1  0  0  0
 11 12  1  0  0  0
 11 13  2  0  0  0
 13 14  1  0  0  0
 14 15  2  0  0  0
 15 16  1  0  0  0
 16 17  2  0  0  0
 23 24  2  0  0  0
 24 25  1  0  0  0
 25 26  2  0  0  0
 26 27  1  0  0  0
 26 21  1  0  0  0
 17  1  1  0  0  0
 16  4  1  0  0  0
 15  9  1  0  0  0
 19 20  1  0  0  0
  8 18  1  0  0  0
M  END
> <minimizedAffinity>
-9.69482

> <CNNscore>
0.8276050091

> <CNNaffinity>
8.3152217865

> <CNN_VS>
6.8817191124

> <CNNaffinity_variance>
0.1302386522

$$$$
[H]c1nc(N([H])c2c([H])c([H])c(F)c(C([H])([H])C([H])([H])C([H])([H])N(C([H])([H])[H])C([H])([H])[H])c2[H])nc2c1C([H])([H])C(=S)N([H])c1c([H])c(Cl)c([H])c([H])c1-2


 33 36  0  0  0  0  0  0  0  0999 V2000
   52.4761   -3.3719   -8.4642 C   0  0  0  0  0  0  0  0  0  0  0  0
   51.5598   -2.4183   -8.6453 N   0  0  0  0  0  0  0  0  0  0  0  0
   50.5364   -2.1217   -7.8514 C   0  0  0  0  0  0  0  0  0  0  0  0
   50.3934   -2.8915   -6.6890 C   0  0  0  0  0  0  0  0  0  0  0  0
   49.2349   -2.4506   -5.9418 C   0  0  0  0  0  0  0  0  0  0  0  0
   48.8180   -3.2225   -4.7844 C   0  0  0  0  0  0  0  0  0  0  0  0
   47.2687   -2.8608   -4.3138 S   0  0  0  0  0  0  0  0  0  0  0  0
   49.3896   -4.2005   -3.9557 N   0  0  0  0  0  0  0  0  0  0  0  0
   50.5717   -4.9498   -4.2407 C   0  0  0  0  0  0  0  0  0  0  0  0
   50.8287   -5.8908   -3.2558 C   0  0  0  0  0  0  0  0  0  0  0  0
   51.9313   -6.7321   -3.3283 C   0  0  0  0  0  0  0  0  0  0  0  0
   52.2752   -7.9342   -2.0812 Cl  0  0  0  0  0  0  0  0  0  0  0  0
   52.7677   -6.5955   -4.4255 C   0  0  0  0  0  0  0  0  0  0  0  0
   52.5039   -5.6565   -5.3997 C   0  0  0  0  0  0  0  0  0  0  0  0
   51.4004   -4.8161   -5.3239 C   0  0  0  0  0  0  0  0  0  0  0  0
   51.3152   -3.8876   -6.4594 C   0  0  0  0  0  0  0  0  0  0  0  0
   52.3220   -4.1138   -7.3260 N   0  0  0  0  0  0  0  0  0  0  0  0
   48.9409   -4.4252   -3.0504 H   0  0  0  0  0  0  0  0  0  0  0  0
   53.5416   -3.6151   -9.3441 N   0  0  0  0  0  0  0  0  0  0  0  0
   53.3539   -3.4049  -10.3870 H   0  0  0  0  0  0  0  0  0  0  0  0
   57.1227   -4.8329   -9.3160 C   0  0  0  0  0  0  0  0  0  0  0  0
   55.8595   -4.4067   -9.7593 C   0  0  0  0  0  0  0  0  0  0  0  0
   54.8114   -4.0965   -8.9618 C   0  0  0  0  0  0  0  0  0  0  0  0
   55.0138   -4.2179   -7.5655 C   0  0  0  0  0  0  0  0  0  0  0  0
   56.2212   -4.6281   -7.0907 C   0  0  0  0  0  0  0  0  0  0  0  0
   57.2823   -4.9383   -7.9648 C   0  0  0  0  0  0  0  0  0  0  0  0
   58.4377   -5.3845   -7.4421 F   0  0  0  0  0  0  0  0  0  0  0  0
   58.2035   -5.0567  -10.2974 C   0  0  0  0  0  0  0  0  0  0  0  0
   59.0091   -6.2875  -10.1216 C   0  0  0  0  0  0  0  0  0  0  0  0
   60.4267   -6.2444   -9.7980 C   0  0  0  0  0  0  0  0  0  0  0  0
   61.2429   -8.4660   -9.4208 C   0  0  0  0  0  0  0  0  0  0  0  0
   61.3241   -7.2370  -10.1618 N   0  0  0  0  0  0  0  0  0  0  0  0
   62.5395   -6.9714  -10.7870 C   0  0  0  0  0  0  0  0  0  0  0  0
 31 32  1  0  0  0
 32 33  1  0  0  0
 32 30  1  0  0  0
 30 29  1  0  0  0
 29 28  1  0  0  0
 28 21  1  0  0  0
 21 22  2  0  0  0
 22 23  1  0  0  0
 23 19  1  0  0  0
 19  1  1  0  0  0
  1  2  2  0  0  0
  2  3  1  0  0  0
  3  4  2  0  0  0
  4  5  1  0  0  0
  5  6  1  0  0  0
  6  7  2  0  0  0
  6  8  1  0  0  0
  8  9  1  0  0  0
  9 10  2  0  0  0
 10 11  1  0  0  0
 11 12  1  0  0  0
 11 13  2  0  0  0
 13 14  1  0  0  0
 14 15  2  0  0  0
 15 16  1  0  0  0
 16 17  2  0  0  0
 23 24  2  0  0  0
 24 25  1  0  0  0
 25 26  2  0  0  0
 26 27  1  0  0  0
 26 21  1  0  0  0
 17  1  1  0  0  0
 16  4  1  0  0  0
 15  9  1  0  0  0
 19 20  1  0  0  0
  8 18  1  0  0  0
M  END
> <minimizedAffinity>
-9.22990

> <CNNscore>
0.7136015892

> <CNNaffinity>
7.7476639748

> <CNN_VS>
5.5287451744

> <CNNaffinity_variance>
0.1101087928

$$$$
[H]c1nc(N([H])c2c([H])c([H])c(F)c(C([H])([H])C([H])([H])C([H])([H])N(C([H])([H])[H])C([H])([H])[H])c2[H])nc2c1C([H])([H])C(=S)N([H])c1c([H])c(Cl)c([H])c([H])c1-2


 33 36  0  0  0  0  0  0  0  0999 V2000
   54.0536   -3.9792   -8.5434 C   0  0  0  0  0  0  0  0  0  0  0  0
   54.6804   -4.4202   -7.4505 N   0  0  0  0  0  0  0  0  0  0  0  0
   55.9434   -4.8209   -7.3513 C   0  0  0  0  0  0  0  0  0  0  0  0
   56.7140   -4.7802   -8.5212 C   0  0  0  0  0  0  0  0  0  0  0  0
   58.0546   -5.2525   -8.2484 C   0  0  0  0  0  0  0  0  0  0  0  0
   58.9670   -5.4396   -9.3628 C   0  0  0  0  0  0  0  0  0  0  0  0
   60.2736   -6.3765   -8.9537 S   0  0  0  0  0  0  0  0  0  0  0  0
   59.0302   -5.0305  -10.7040 N   0  0  0  0  0  0  0  0  0  0  0  0
   57.9524   -4.4767  -11.4600 C   0  0  0  0  0  0  0  0  0  0  0  0
   58.3184   -4.2480  -12.7773 C   0  0  0  0  0  0  0  0  0  0  0  0
   57.4243   -3.7109  -13.6944 C   0  0  0  0  0  0  0  0  0  0  0  0
   57.8747   -3.4104  -15.3753 Cl  0  0  0  0  0  0  0  0  0  0  0  0
   56.1484   -3.4114  -13.2420 C   0  0  0  0  0  0  0  0  0  0  0  0
   55.7940   -3.6421  -11.9300 C   0  0  0  0  0  0  0  0  0  0  0  0
   56.6909   -4.1789  -11.0151 C   0  0  0  0  0  0  0  0  0  0  0  0
   56.1103   -4.3323   -9.6742 C   0  0  0  0  0  0  0  0  0  0  0  0
   54.8193   -3.9461   -9.6759 N   0  0  0  0  0  0  0  0  0  0  0  0
   59.9210   -5.1245  -11.2227 H   0  0  0  0  0  0  0  0  0  0  0  0
   52.7157   -3.5569   -8.5655 N   0  0  0  0  0  0  0  0  0  0  0  0
   52.3889   -3.0615   -9.4682 H   0  0  0  0  0  0  0  0  0  0  0  0
   50.8587   -4.8238   -5.5234 C   0  0  0  0  0  0  0  0  0  0  0  0
   51.7756   -4.7221   -6.5831 C   0  0  0  0  0  0  0  0  0  0  0  0
   51.7930   -3.7406   -7.5143 C   0  0  0  0  0  0  0  0  0  0  0  0
   50.7978   -2.7390   -7.4049 C   0  0  0  0  0  0  0  0  0  0  0  0
   49.8882   -2.7976   -6.3946 C   0  0  0  0  0  0  0  0  0  0  0  0
   49.9142   -3.8418   -5.4484 C   0  0  0  0  0  0  0  0  0  0  0  0
   48.9619   -3.8753   -4.5002 F   0  0  0  0  0  0  0  0  0  0  0  0
   51.0098   -5.9052   -4.5288 C   0  0  0  0  0  0  0  0  0  0  0  0
   51.7710   -5.5712   -3.3024 C   0  0  0  0  0  0  0  0  0  0  0  0
   53.0681   -6.1623   -3.0122 C   0  0  0  0  0  0  0  0  0  0  0  0
   54.4866   -7.0237   -4.7413 C   0  0  0  0  0  0  0  0  0  0  0  0
   54.1890   -5.9731   -3.8065 N   0  0  0  0  0  0  0  0  0  0  0  0
   55.2529   -5.1541   -3.4378 C   0  0  0  0  0  0  0  0  0  0  0  0
 31 32  1  0  0  0
 32 33  1  0  0  0
 32 30  1  0  0  0
 30 29  1  0  0  0
 29 28  1  0  0  0
 28 21  1  0  0  0
 21 22  2  0  0  0
 22 23  1  0  0  0
 23 19  1  0  0  0
 19  1  1  0  0  0
  1  2  2  0  0  0
  2  3  1  0  0  0
  3  4  2  0  0  0
  4  5  1  0  0  0
  5  6  1  0  0  0
  6  7  2  0  0  0
  6  8  1  0  0  0
  8  9  1  0  0  0
  9 10  2  0  0  0
 10 11  1  0  0  0
 11 12  1  0  0  0
 11 13  2  0  0  0
 13 14  1  0  0  0
 14 15  2  0  0  0
 15 16  1  0  0  0
 16 17  2  0  0  0
 23 24  2  0  0  0
 24 25  1  0  0  0
 25 26  2  0  0  0
 26 27  1  0  0  0
 26 21  1  0  0  0
 17  1  1  0  0  0
 16  4  1  0  0  0
 15  9  1  0  0  0
 19 20  1  0  0  0
  8 18  1  0  0  0
M  END
> <minimizedAffinity>
-10.08816

> <CNNscore>
0.6674425602

> <CNNaffinity>
7.5985593796

> <CNN_VS>
5.0716018677

> <CNNaffinity_variance>
0.0270154085

$$$$
[H]c1nc(N([H])c2c([H])c([H])c(F)c(C([H])([H])C([H])([H])C([H])([H])N(C([H])([H])[H])C([H])([H])[H])c2[H])nc2c1C([H])([H])C(=S)N([H])c1c([H])c(Cl)c([H])c([H])c1-2


 33 36  0  0  0  0  0  0  0  0999 V2000
   53.9970   -3.8954   -8.6543 C   0  0  0  0  0  0  0  0  0  0  0  0
   54.6016   -4.3262   -7.5450 N   0  0  0  0  0  0  0  0  0  0  0  0
   55.8599   -4.7337   -7.4183 C   0  0  0  0  0  0  0  0  0  0  0  0
   56.6512   -4.7130   -8.5748 C   0  0  0  0  0  0  0  0  0  0  0  0
   57.9837   -5.1904   -8.2724 C   0  0  0  0  0  0  0  0  0  0  0  0
   58.9142   -5.3976   -9.3681 C   0  0  0  0  0  0  0  0  0  0  0  0
   60.2072   -6.3376   -8.9239 S   0  0  0  0  0  0  0  0  0  0  0  0
   59.0038   -5.0063  -10.7130 N   0  0  0  0  0  0  0  0  0  0  0  0
   57.9431   -4.4554  -11.4950 C   0  0  0  0  0  0  0  0  0  0  0  0
   58.3336   -4.2461  -12.8085 C   0  0  0  0  0  0  0  0  0  0  0  0
   57.4594   -3.7153  -13.7479 C   0  0  0  0  0  0  0  0  0  0  0  0
   57.9412   -3.4394  -15.4244 Cl  0  0  0  0  0  0  0  0  0  0  0  0
   56.1778   -3.4017  -13.3221 C   0  0  0  0  0  0  0  0  0  0  0  0
   55.7988   -3.6132  -12.0136 C   0  0  0  0  0  0  0  0  0  0  0  0
   56.6760   -4.1439  -11.0762 C   0  0  0  0  0  0  0  0  0  0  0  0
   56.0708   -4.2762   -9.7440 C   0  0  0  0  0  0  0  0  0  0  0  0
   54.7826   -3.8818   -9.7735 N   0  0  0  0  0  0  0  0  0  0  0  0
   59.9029   -5.1128  -11.2147 H   0  0  0  0  0  0  0  0  0  0  0  0
   52.6625   -3.4648   -8.7055 N   0  0  0  0  0  0  0  0  0  0  0  0
   52.3506   -2.9929   -9.6258 H   0  0  0  0  0  0  0  0  0  0  0  0
   50.7018   -4.6901   -5.7118 C   0  0  0  0  0  0  0  0  0  0  0  0
   51.6265   -4.6233   -6.7673 C   0  0  0  0  0  0  0  0  0  0  0  0
   51.7253   -3.6124   -7.6614 C   0  0  0  0  0  0  0  0  0  0  0  0
   50.8139   -2.5387   -7.5142 C   0  0  0  0  0  0  0  0  0  0  0  0
   49.8999   -2.5612   -6.5065 C   0  0  0  0  0  0  0  0  0  0  0  0
   49.8393   -3.6385   -5.5998 C   0  0  0  0  0  0  0  0  0  0  0  0
   48.8849   -3.6304   -4.6531 F   0  0  0  0  0  0  0  0  0  0  0  0
   50.7626   -5.8163   -4.7582 C   0  0  0  0  0  0  0  0  0  0  0  0
   51.2323   -5.4968   -3.3899 C   0  0  0  0  0  0  0  0  0  0  0  0
   50.6781   -6.1442   -2.2111 C   0  0  0  0  0  0  0  0  0  0  0  0
   50.6417   -7.9283   -0.6111 C   0  0  0  0  0  0  0  0  0  0  0  0
   51.4060   -6.9956   -1.3934 N   0  0  0  0  0  0  0  0  0  0  0  0
   52.6805   -6.6919   -0.9221 C   0  0  0  0  0  0  0  0  0  0  0  0
 31 32  1  0  0  0
 32 33  1  0  0  0
 32 30  1  0  0  0
 30 29  1  0  0  0
 29 28  1  0  0  0
 28 21  1  0  0  0
 21 22  2  0  0  0
 22 23  1  0  0  0
 23 19  1  0  0  0
 19  1  1  0  0  0
  1  2  2  0  0  0
  2  3  1  0  0  0
  3  4  2  0  0  0
  4  5  1  0  0  0
  5  6  1  0  0  0
  6  7  2  0  0  0
  6  8  1  0  0  0
  8  9  1  0  0  0
  9 10  2  0  0  0
 10 11  1  0  0  0
 11 12  1  0  0  0
 11 13  2  0  0  0
 13 14  1  0  0  0
 14 15  2  0  0  0
 15 16  1  0  0  0
 16 17  2  0  0  0
 23 24  2  0  0  0
 24 25  1  0  0  0
 25 26  2  0  0  0
 26 27  1  0  0  0
 26 21  1  0  0  0
 17  1  1  0  0  0
 16  4  1  0  0  0
 15  9  1  0  0  0
 19 20  1  0  0  0
  8 18  1  0  0  0
M  END
> <minimizedAffinity>
-10.15825

> <CNNscore>
0.6087310314

> <CNNaffinity>
7.4587249756

> <CNN_VS>
4.5403571129

> <CNNaffinity_variance>
0.0348852202

$$$$
[H]c1nc(N([H])c2c([H])c([H])c(F)c(C([H])([H])C([H])([H])C([H])([H])N(C([H])([H])[H])C([H])([H])[H])c2[H])nc2c1C([H])([H])C(=S)N([H])c1c([H])c(Cl)c([H])c([H])c1-2


 33 36  0  0  0  0  0  0  0  0999 V2000
   56.0254   -4.4148   -9.6603 C   0  0  0  0  0  0  0  0  0  0  0  0
   55.0580   -3.6248  -10.1313 N   0  0  0  0  0  0  0  0  0  0  0  0
   53.8756   -3.3791   -9.5770 C   0  0  0  0  0  0  0  0  0  0  0  0
   53.6029   -4.0169   -8.3592 C   0  0  0  0  0  0  0  0  0  0  0  0
   52.2813   -3.6535   -7.8944 C   0  0  0  0  0  0  0  0  0  0  0  0
   51.7425   -4.3315   -6.7285 C   0  0  0  0  0  0  0  0  0  0  0  0
   50.1012   -4.1328   -6.5897 S   0  0  0  0  0  0  0  0  0  0  0  0
   52.2535   -5.1157   -5.6826 N   0  0  0  0  0  0  0  0  0  0  0  0
   53.5455   -5.7239   -5.6489 C   0  0  0  0  0  0  0  0  0  0  0  0
   53.7158   -6.4962   -4.5105 C   0  0  0  0  0  0  0  0  0  0  0  0
   54.9003   -7.1804   -4.2704 C   0  0  0  0  0  0  0  0  0  0  0  0
   55.1353   -8.1662   -2.8242 Cl  0  0  0  0  0  0  0  0  0  0  0  0
   55.9087   -7.0621   -5.2145 C   0  0  0  0  0  0  0  0  0  0  0  0
   55.7299   -6.2915   -6.3433 C   0  0  0  0  0  0  0  0  0  0  0  0
   54.5440   -5.6078   -6.5803 C   0  0  0  0  0  0  0  0  0  0  0  0
   54.5712   -4.8422   -7.8339 C   0  0  0  0  0  0  0  0  0  0  0  0
   55.7432   -5.0297   -8.4719 N   0  0  0  0  0  0  0  0  0  0  0  0
   51.6697   -5.2902   -4.8460 H   0  0  0  0  0  0  0  0  0  0  0  0
   57.2591   -4.6125  -10.2987 N   0  0  0  0  0  0  0  0  0  0  0  0
   58.0235   -5.1030   -9.7137 H   0  0  0  0  0  0  0  0  0  0  0  0
   58.9930   -3.5273  -13.4805 C   0  0  0  0  0  0  0  0  0  0  0  0
   58.7479   -3.8488  -12.1350 C   0  0  0  0  0  0  0  0  0  0  0  0
   57.5540   -4.2283  -11.6237 C   0  0  0  0  0  0  0  0  0  0  0  0
   56.4664   -4.3011  -12.5278 C   0  0  0  0  0  0  0  0  0  0  0  0
   56.6572   -3.9977  -13.8404 C   0  0  0  0  0  0  0  0  0  0  0  0
   57.9228   -3.6085  -14.3233 C   0  0  0  0  0  0  0  0  0  0  0  0
   58.0423   -3.2742  -15.6199 F   0  0  0  0  0  0  0  0  0  0  0  0
   60.3680   -3.2099  -13.9164 C   0  0  0  0  0  0  0  0  0  0  0  0
   61.3446   -4.3233  -13.8799 C   0  0  0  0  0  0  0  0  0  0  0  0
   62.7760   -4.1015  -14.0145 C   0  0  0  0  0  0  0  0  0  0  0  0
   63.2173   -6.4479  -14.2241 C   0  0  0  0  0  0  0  0  0  0  0  0
   63.7143   -5.1219  -13.9771 N   0  0  0  0  0  0  0  0  0  0  0  0
   64.9078   -5.0317  -13.2658 C   0  0  0  0  0  0  0  0  0  0  0  0
 31 32  1  0  0  0
 32 33  1  0  0  0
 32 30  1  0  0  0
 30 29  1  0  0  0
 29 28  1  0  0  0
 28 21  1  0  0  0
 21 22  2  0  0  0
 22 23  1  0  0  0
 23 19  1  0  0  0
 19  1  1  0  0  0
  1  2  2  0  0  0
  2  3  1  0  0  0
  3  4  2  0  0  0
  4  5  1  0  0  0
  5  6  1  0  0  0
  6  7  2  0  0  0
  6  8  1  0  0  0
  8  9  1  0  0  0
  9 10  2  0  0  0
 10 11  1  0  0  0
 11 12  1  0  0  0
 11 13  2  0  0  0
 13 14  1  0  0  0
 14 15  2  0  0  0
 15 16  1  0  0  0
 16 17  2  0  0  0
 23 24  2  0  0  0
 24 25  1  0  0  0
 25 26  2  0  0  0
 26 27  1  0  0  0
 26 21  1  0  0  0
 17  1  1  0  0  0
 16  4  1  0  0  0
 15  9  1  0  0  0
 19 20  1  0  0  0
  8 18  1  0  0  0
M  END
> <minimizedAffinity>
-8.05352

> <CNNscore>
0.3950901628

> <CNNaffinity>
6.9814796448

> <CNN_VS>
2.7583138943

> <CNNaffinity_variance>
0.0743394271

$$$$
[H]c1nc(N([H])c2c([H])c([H])c(S(=O)(=O)N([H])C([H])([H])[H])c([H])c2[H])nc2c1N(C([H])([H])[H])C(=O)[C@@]([H])(C([H])([H])C([H])([H])[H])N2C1([H])C([H])([H])C([H])([H])C([H])([H])C1([H])[H]


 33 36  0  0  0  0  0  0  0  0999 V2000
   51.7823   -5.7489   -5.9296 C   0  0  0  0  0  0  0  0  0  0  0  0
   53.0905   -5.3206   -6.3627 N   0  0  0  0  0  0  0  0  0  0  0  0
   53.0930   -4.3729   -7.4453 C   0  0  0  0  0  0  0  0  0  0  0  0
   54.1483   -4.2416   -8.2557 N   0  0  0  0  0  0  0  0  0  0  0  0
   54.2036   -3.3553   -9.3016 C   0  0  0  0  0  0  0  0  0  0  0  0
   53.1549   -2.5863   -9.5226 N   0  0  0  0  0  0  0  0  0  0  0  0
   52.0672   -2.6768   -8.7387 C   0  0  0  0  0  0  0  0  0  0  0  0
   51.9990   -3.5640   -7.6836 C   0  0  0  0  0  0  0  0  0  0  0  0
   50.8435   -3.6437   -6.8690 N   0  0  0  0  0  0  0  0  0  0  0  0
   49.6779   -2.8083   -7.0926 C   0  0  0  0  0  0  0  0  0  0  0  0
   50.8400   -4.5802   -5.7978 C   0  0  0  0  0  0  0  0  0  0  0  0
   50.0905   -4.4375   -4.7973 O   0  0  0  0  0  0  0  0  0  0  0  0
   54.3328   -5.7349   -5.8342 C   0  0  0  0  0  0  0  0  0  0  0  0
   54.3855   -5.5844   -4.3172 C   0  0  0  0  0  0  0  0  0  0  0  0
   54.5072   -7.0181   -3.8571 C   0  0  0  0  0  0  0  0  0  0  0  0
   55.4959   -7.5676   -4.8951 C   0  0  0  0  0  0  0  0  0  0  0  0
   54.7492   -7.1331   -6.1663 C   0  0  0  0  0  0  0  0  0  0  0  0
   49.6737   -6.4941   -6.8820 C   0  0  0  0  0  0  0  0  0  0  0  0
   51.1881   -6.6059   -7.0374 C   0  0  0  0  0  0  0  0  0  0  0  0
   55.3496   -3.3373  -10.0774 N   0  0  0  0  0  0  0  0  0  0  0  0
   55.3698   -2.6857  -10.9327 H   0  0  0  0  0  0  0  0  0  0  0  0
   56.5253   -4.0871   -9.8896 C   0  0  0  0  0  0  0  0  0  0  0  0
   57.3319   -4.3779  -11.0099 C   0  0  0  0  0  0  0  0  0  0  0  0
   58.4630   -5.1195  -10.8767 C   0  0  0  0  0  0  0  0  0  0  0  0
   58.8943   -5.6299   -9.6631 C   0  0  0  0  0  0  0  0  0  0  0  0
   58.1113   -5.3486   -8.5727 C   0  0  0  0  0  0  0  0  0  0  0  0
   56.9485   -4.5909   -8.6877 C   0  0  0  0  0  0  0  0  0  0  0  0
   60.3511   -6.5814   -9.5073 S   0  0  0  0  0  0  0  0  0  0  0  0
   60.9352   -6.4366   -8.1327 O   0  0  0  0  0  0  0  0  0  0  0  0
   61.3583   -6.0465  -10.4932 O   0  0  0  0  0  0  0  0  0  0  0  0
   60.0548   -8.2476   -9.8349 N   0  0  0  0  0  0  0  0  0  0  0  0
   61.2837   -8.9836   -9.7888 C   0  0  0  0  0  0  0  0  0  0  0  0
   59.6191   -8.3334  -10.7802 H   0  0  0  0  0  0  0  0  0  0  0  0
 18 19  1  0  0  0
 19  1  1  0  0  0
  1  2  1  0  0  0
  2 13  1  0  0  0
 13 14  1  0  0  0
 14 15  1  0  0  0
 15 16  1  0  0  0
 16 17  1  0  0  0
  2  3  1  0  0  0
  3  4  2  0  0  0
  4  5  1  0  0  0
  5 20  1  0  0  0
 20 22  1  0  0  0
 22 23  2  0  0  0
 23 24  1  0  0  0
 24 25  2  0  0  0
 25 26  1  0  0  0
 26 27  2  0  0  0
 25 28  1  0  0  0
 28 29  2  0  0  0
 28 30  2  0  0  0
 28 31  1  0  0  0
 31 32  1  0  0  0
  5  6  2  0  0  0
  6  7  1  0  0  0
  7  8  2  0  0  0
  8  9  1  0  0  0
  9 10  1  0  0  0
  9 11  1  0  0  0
 11 12  2  0  0  0
 11  1  1  0  0  0
 17 13  1  0  0  0
  8  3  1  0  0  0
 27 22  1  0  0  0
 20 21  1  0  0  0
 31 33  1  0  0  0
M  END
> <minimizedAffinity>
-10.18234

> <CNNscore>
0.9893640280

> <CNNaffinity>
8.0488042831

> <CNN_VS>
7.9631972313

> <CNNaffinity_variance>
0.0336326882

$$$$
[H]c1nc(N([H])c2c([H])c([H])c(S(=O)(=O)N([H])C([H])([H])[H])c([H])c2[H])nc2c1N(C([H])([H])[H])C(=O)[C@@]([H])(C([H])([H])C([H])([H])[H])N2C1([H])C([H])([H])C([H])([H])C([H])([H])C1([H])[H]


 33 36  0  0  0  0  0  0  0  0999 V2000
   51.9743   -5.7360   -6.0388 C   0  0  0  0  0  0  0  0  0  0  0  0
   53.3322   -5.4752   -6.4514 N   0  0  0  0  0  0  0  0  0  0  0  0
   53.4717   -4.5123   -7.5115 C   0  0  0  0  0  0  0  0  0  0  0  0
   54.5439   -4.5040   -8.3103 N   0  0  0  0  0  0  0  0  0  0  0  0
   54.7272   -3.6097   -9.3347 C   0  0  0  0  0  0  0  0  0  0  0  0
   53.7919   -2.7039   -9.5457 N   0  0  0  0  0  0  0  0  0  0  0  0
   52.6933   -2.6669   -8.7725 C   0  0  0  0  0  0  0  0  0  0  0  0
   52.4969   -3.5606   -7.7392 C   0  0  0  0  0  0  0  0  0  0  0  0
   51.3323   -3.5046   -6.9356 N   0  0  0  0  0  0  0  0  0  0  0  0
   50.2899   -2.5174   -7.1486 C   0  0  0  0  0  0  0  0  0  0  0  0
   51.1934   -4.4560   -5.8868 C   0  0  0  0  0  0  0  0  0  0  0  0
   50.4587   -4.2376   -4.8891 O   0  0  0  0  0  0  0  0  0  0  0  0
   54.5031   -6.0622   -5.9232 C   0  0  0  0  0  0  0  0  0  0  0  0
   54.8727   -5.4738   -4.5653 C   0  0  0  0  0  0  0  0  0  0  0  0
   54.7070   -6.6611   -3.6460 C   0  0  0  0  0  0  0  0  0  0  0  0
   55.3123   -7.7768   -4.5096 C   0  0  0  0  0  0  0  0  0  0  0  0
   54.4792   -7.5514   -5.7814 C   0  0  0  0  0  0  0  0  0  0  0  0
   49.8272   -6.6338   -6.7408 C   0  0  0  0  0  0  0  0  0  0  0  0
   51.2839   -6.4819   -7.1709 C   0  0  0  0  0  0  0  0  0  0  0  0
   55.8738   -3.7264  -10.1009 N   0  0  0  0  0  0  0  0  0  0  0  0
   55.9012   -3.2191  -11.0486 H   0  0  0  0  0  0  0  0  0  0  0  0
   57.0417   -4.4486   -9.7938 C   0  0  0  0  0  0  0  0  0  0  0  0
   57.6891   -5.1633  -10.8236 C   0  0  0  0  0  0  0  0  0  0  0  0
   58.8060   -5.8933  -10.5653 C   0  0  0  0  0  0  0  0  0  0  0  0
   59.3745   -5.9858   -9.3053 C   0  0  0  0  0  0  0  0  0  0  0  0
   58.7465   -5.2921   -8.3027 C   0  0  0  0  0  0  0  0  0  0  0  0
   57.6009   -4.5384   -8.5461 C   0  0  0  0  0  0  0  0  0  0  0  0
   60.8111   -6.9281   -8.9886 S   0  0  0  0  0  0  0  0  0  0  0  0
   60.5618   -8.3830   -9.2582 O   0  0  0  0  0  0  0  0  0  0  0  0
   61.1443   -6.7824   -7.5256 O   0  0  0  0  0  0  0  0  0  0  0  0
   62.1436   -6.3860   -9.9385 N   0  0  0  0  0  0  0  0  0  0  0  0
   62.4131   -7.3245  -10.9875 C   0  0  0  0  0  0  0  0  0  0  0  0
   62.9799   -6.2865   -9.3209 H   0  0  0  0  0  0  0  0  0  0  0  0
 18 19  1  0  0  0
 19  1  1  0  0  0
  1  2  1  0  0  0
  2 13  1  0  0  0
 13 14  1  0  0  0
 14 15  1  0  0  0
 15 16  1  0  0  0
 16 17  1  0  0  0
  2  3  1  0  0  0
  3  4  2  0  0  0
  4  5  1  0  0  0
  5 20  1  0  0  0
 20 22  1  0  0  0
 22 23  2  0  0  0
 23 24  1  0  0  0
 24 25  2  0  0  0
 25 26  1  0  0  0
 26 27  2  0  0  0
 25 28  1  0  0  0
 28 29  2  0  0  0
 28 30  2  0  0  0
 28 31  1  0  0  0
 31 32  1  0  0  0
  5  6  2  0  0  0
  6  7  1  0  0  0
  7  8  2  0  0  0
  8  9  1  0  0  0
  9 10  1  0  0  0
  9 11  1  0  0  0
 11 12  2  0  0  0
 11  1  1  0  0  0
 17 13  1  0  0  0
  8  3  1  0  0  0
 27 22  1  0  0  0
 20 21  1  0  0  0
 31 33  1  0  0  0
M  END
> <minimizedAffinity>
-7.90390

> <CNNscore>
0.8260703087

> <CNNaffinity>
7.6914877892

> <CNN_VS>
6.3537096977

> <CNNaffinity_variance>
0.1814906150

$$$$
[H]c1nc(N([H])c2c([H])c([H])c(S(=O)(=O)N([H])C([H])([H])[H])c([H])c2[H])nc2c1N(C([H])([H])[H])C(=O)[C@@]([H])(C([H])([H])C([H])([H])[H])N2C1([H])C([H])([H])C([H])([H])C([H])([H])C1([H])[H]


 33 36  0  0  0  0  0  0  0  0999 V2000
   52.2974   -5.6879   -6.2149 C   0  0  0  0  0  0  0  0  0  0  0  0
   53.6908   -5.5187   -6.5496 N   0  0  0  0  0  0  0  0  0  0  0  0
   53.9427   -4.7229   -7.7217 C   0  0  0  0  0  0  0  0  0  0  0  0
   55.0727   -4.8533   -8.4244 N   0  0  0  0  0  0  0  0  0  0  0  0
   55.3632   -4.1213   -9.5478 C   0  0  0  0  0  0  0  0  0  0  0  0
   54.4770   -3.2359   -9.9609 N   0  0  0  0  0  0  0  0  0  0  0  0
   53.3240   -3.0639   -9.2922 C   0  0  0  0  0  0  0  0  0  0  0  0
   53.0199   -3.7937   -8.1610 C   0  0  0  0  0  0  0  0  0  0  0  0
   51.7994   -3.5971   -7.4703 N   0  0  0  0  0  0  0  0  0  0  0  0
   50.8093   -2.6293   -7.9056 C   0  0  0  0  0  0  0  0  0  0  0  0
   51.5494   -4.3830   -6.3110 C   0  0  0  0  0  0  0  0  0  0  0  0
   50.7477   -4.0066   -5.4173 O   0  0  0  0  0  0  0  0  0  0  0  0
   54.7978   -6.0475   -5.8502 C   0  0  0  0  0  0  0  0  0  0  0  0
   54.8556   -5.5450   -4.4111 C   0  0  0  0  0  0  0  0  0  0  0  0
   54.6423   -6.8140   -3.6199 C   0  0  0  0  0  0  0  0  0  0  0  0
   55.5001   -7.7998   -4.4256 C   0  0  0  0  0  0  0  0  0  0  0  0
   54.8938   -7.5402   -5.8139 C   0  0  0  0  0  0  0  0  0  0  0  0
   50.1779   -6.6083   -6.9696 C   0  0  0  0  0  0  0  0  0  0  0  0
   51.6720   -6.5753   -7.2808 C   0  0  0  0  0  0  0  0  0  0  0  0
   56.5609   -4.3722  -10.1944 N   0  0  0  0  0  0  0  0  0  0  0  0
   57.3621   -4.8050   -9.6225 H   0  0  0  0  0  0  0  0  0  0  0  0
   56.8776   -4.1223  -11.5424 C   0  0  0  0  0  0  0  0  0  0  0  0
   58.2224   -3.8748  -11.8898 C   0  0  0  0  0  0  0  0  0  0  0  0
   58.5684   -3.6053  -13.1761 C   0  0  0  0  0  0  0  0  0  0  0  0
   57.6496   -3.5553  -14.2118 C   0  0  0  0  0  0  0  0  0  0  0  0
   56.3416   -3.7952  -13.8762 C   0  0  0  0  0  0  0  0  0  0  0  0
   55.9660   -4.0730  -12.5642 C   0  0  0  0  0  0  0  0  0  0  0  0
   58.1094   -3.2079  -15.8610 S   0  0  0  0  0  0  0  0  0  0  0  0
   57.0117   -2.4752  -16.5751 O   0  0  0  0  0  0  0  0  0  0  0  0
   58.3193   -4.5230  -16.5675 O   0  0  0  0  0  0  0  0  0  0  0  0
   59.5607   -2.2803  -15.9296 N   0  0  0  0  0  0  0  0  0  0  0  0
   60.6639   -3.1200  -16.2928 C   0  0  0  0  0  0  0  0  0  0  0  0
   59.7299   -1.8485  -14.9938 H   0  0  0  0  0  0  0  0  0  0  0  0
 18 19  1  0  0  0
 19  1  1  0  0  0
  1  2  1  0  0  0
  2 13  1  0  0  0
 13 14  1  0  0  0
 14 15  1  0  0  0
 15 16  1  0  0  0
 16 17  1  0  0  0
  2  3  1  0  0  0
  3  4  2  0  0  0
  4  5  1  0  0  0
  5 20  1  0  0  0
 20 22  1  0  0  0
 22 23  2  0  0  0
 23 24  1  0  0  0
 24 25  2  0  0  0
 25 26  1  0  0  0
 26 27  2  0  0  0
 25 28  1  0  0  0
 28 29  2  0  0  0
 28 30  2  0  0  0
 28 31  1  0  0  0
 31 32  1  0  0  0
  5  6  2  0  0  0
  6  7  1  0  0  0
  7  8  2  0  0  0
  8  9  1  0  0  0
  9 10  1  0  0  0
  9 11  1  0  0  0
 11 12  2  0  0  0
 11  1  1  0  0  0
 17 13  1  0  0  0
  8  3  1  0  0  0
 27 22  1  0  0  0
 20 21  1  0  0  0
 31 33  1  0  0  0
M  END
> <minimizedAffinity>
-8.53771

> <CNNscore>
0.7988129258

> <CNNaffinity>
7.4483156204

> <CNN_VS>
5.9498109818

> <CNNaffinity_variance>
0.1418595463

$$$$
[H]c1nc(N([H])c2c([H])c([H])c(S(=O)(=O)N([H])C([H])([H])[H])c([H])c2[H])nc2c1N(C([H])([H])[H])C(=O)[C@@]([H])(C([H])([H])C([H])([H])[H])N2C1([H])C([H])([H])C([H])([H])C([H])([H])C1([H])[H]


 33 36  0  0  0  0  0  0  0  0999 V2000
   57.1221   -5.2566   -7.6408 C   0  0  0  0  0  0  0  0  0  0  0  0
   55.6820   -5.3455   -7.6176 N   0  0  0  0  0  0  0  0  0  0  0  0
   55.0094   -4.5933   -8.6434 C   0  0  0  0  0  0  0  0  0  0  0  0
   53.7452   -4.1845   -8.4938 N   0  0  0  0  0  0  0  0  0  0  0  0
   53.0573   -3.4656   -9.4385 C   0  0  0  0  0  0  0  0  0  0  0  0
   53.6777   -3.1584  -10.5613 N   0  0  0  0  0  0  0  0  0  0  0  0
   54.9491   -3.5440  -10.7640 C   0  0  0  0  0  0  0  0  0  0  0  0
   55.6519   -4.2674   -9.8219 C   0  0  0  0  0  0  0  0  0  0  0  0
   56.9910   -4.6646  -10.0549 N   0  0  0  0  0  0  0  0  0  0  0  0
   57.6943   -4.3385  -11.2819 C   0  0  0  0  0  0  0  0  0  0  0  0
   57.6570   -5.4088   -9.0415 C   0  0  0  0  0  0  0  0  0  0  0  0
   58.6379   -6.1520   -9.3037 O   0  0  0  0  0  0  0  0  0  0  0  0
   54.8959   -6.0837   -6.7059 C   0  0  0  0  0  0  0  0  0  0  0  0
   55.7417   -7.0311   -5.8610 C   0  0  0  0  0  0  0  0  0  0  0  0
   55.5649   -6.4656   -4.4715 C   0  0  0  0  0  0  0  0  0  0  0  0
   54.0681   -6.1247   -4.4909 C   0  0  0  0  0  0  0  0  0  0  0  0
   54.0488   -5.2772   -5.7728 C   0  0  0  0  0  0  0  0  0  0  0  0
   56.4990   -3.4381   -6.1530 C   0  0  0  0  0  0  0  0  0  0  0  0
   57.5031   -3.8423   -7.2294 C   0  0  0  0  0  0  0  0  0  0  0  0
   51.7589   -3.0856   -9.1467 N   0  0  0  0  0  0  0  0  0  0  0  0
   51.1803   -2.6251   -9.9275 H   0  0  0  0  0  0  0  0  0  0  0  0
   51.0787   -3.2230   -7.9227 C   0  0  0  0  0  0  0  0  0  0  0  0
   51.1434   -4.4583   -7.2444 C   0  0  0  0  0  0  0  0  0  0  0  0
   50.4815   -4.6414   -6.0716 C   0  0  0  0  0  0  0  0  0  0  0  0
   49.7156   -3.6541   -5.4733 C   0  0  0  0  0  0  0  0  0  0  0  0
   49.6510   -2.4525   -6.1313 C   0  0  0  0  0  0  0  0  0  0  0  0
   50.3213   -2.2444   -7.3341 C   0  0  0  0  0  0  0  0  0  0  0  0
   48.8706   -3.9040   -3.9648 S   0  0  0  0  0  0  0  0  0  0  0  0
   49.6846   -3.3982   -2.8102 O   0  0  0  0  0  0  0  0  0  0  0  0
   48.6855   -5.3888   -3.7810 O   0  0  0  0  0  0  0  0  0  0  0  0
   47.3309   -3.1288   -3.9679 N   0  0  0  0  0  0  0  0  0  0  0  0
   46.3444   -3.9933   -3.3906 C   0  0  0  0  0  0  0  0  0  0  0  0
   47.0728   -2.8949   -4.9525 H   0  0  0  0  0  0  0  0  0  0  0  0
 18 19  1  0  0  0
 19  1  1  0  0  0
  1  2  1  0  0  0
  2 13  1  0  0  0
 13 14  1  0  0  0
 14 15  1  0  0  0
 15 16  1  0  0  0
 16 17  1  0  0  0
  2  3  1  0  0  0
  3  4  2  0  0  0
  4  5  1  0  0  0
  5 20  1  0  0  0
 20 22  1  0  0  0
 22 23  2  0  0  0
 23 24  1  0  0  0
 24 25  2  0  0  0
 25 26  1  0  0  0
 26 27  2  0  0  0
 25 28  1  0  0  0
 28 29  2  0  0  0
 28 30  2  0  0  0
 28 31  1  0  0  0
 31 32  1  0  0  0
  5  6  2  0  0  0
  6  7  1  0  0  0
  7  8  2  0  0  0
  8  9  1  0  0  0
  9 10  1  0  0  0
  9 11  1  0  0  0
 11 12  2  0  0  0
 11  1  1  0  0  0
 17 13  1  0  0  0
  8  3  1  0  0  0
 27 22  1  0  0  0
 20 21  1  0  0  0
 31 33  1  0  0  0
M  END
> <minimizedAffinity>
-6.28336

> <CNNscore>
0.6556604505

> <CNNaffinity>
7.3974905014

> <CNN_VS>
4.8502421379

> <CNNaffinity_variance>
0.3781796992

$$$$
[H]c1nc(N([H])c2c([H])c([H])c(S(=O)(=O)N([H])C([H])([H])[H])c([H])c2[H])nc2c1N(C([H])([H])[H])C(=O)[C@@]([H])(C([H])([H])C([H])([H])[H])N2C1([H])C([H])([H])C([H])([H])C([H])([H])C1([H])[H]


 33 36  0  0  0  0  0  0  0  0999 V2000
   50.5990   -5.0969   -6.1114 C   0  0  0  0  0  0  0  0  0  0  0  0
   52.0168   -5.3649   -6.1001 N   0  0  0  0  0  0  0  0  0  0  0  0
   52.7750   -4.6722   -7.1080 C   0  0  0  0  0  0  0  0  0  0  0  0
   53.9512   -5.1385   -7.5403 N   0  0  0  0  0  0  0  0  0  0  0  0
   54.7140   -4.5189   -8.4977 C   0  0  0  0  0  0  0  0  0  0  0  0
   54.2624   -3.3970   -9.0243 N   0  0  0  0  0  0  0  0  0  0  0  0
   53.0859   -2.8836   -8.6265 C   0  0  0  0  0  0  0  0  0  0  0  0
   52.3092   -3.4969   -7.6645 C   0  0  0  0  0  0  0  0  0  0  0  0
   51.0723   -2.9394   -7.2588 N   0  0  0  0  0  0  0  0  0  0  0  0
   50.5550   -1.7065   -7.8235 C   0  0  0  0  0  0  0  0  0  0  0  0
   50.3220   -3.6232   -6.2620 C   0  0  0  0  0  0  0  0  0  0  0  0
   49.4749   -3.0275   -5.5473 O   0  0  0  0  0  0  0  0  0  0  0  0
   52.7078   -6.2202   -5.2139 C   0  0  0  0  0  0  0  0  0  0  0  0
   54.0640   -5.6491   -4.8122 C   0  0  0  0  0  0  0  0  0  0  0  0
   53.8862   -5.4134   -3.3307 C   0  0  0  0  0  0  0  0  0  0  0  0
   53.1176   -6.6808   -2.9307 C   0  0  0  0  0  0  0  0  0  0  0  0
   51.9794   -6.5854   -3.9591 C   0  0  0  0  0  0  0  0  0  0  0  0
   50.3159   -7.2257   -7.2503 C   0  0  0  0  0  0  0  0  0  0  0  0
   50.0200   -5.7327   -7.3665 C   0  0  0  0  0  0  0  0  0  0  0  0
   55.9028   -5.1215   -8.8707 N   0  0  0  0  0  0  0  0  0  0  0  0
   56.2480   -5.9585   -8.2906 H   0  0  0  0  0  0  0  0  0  0  0  0
   56.7466   -4.7671   -9.9395 C   0  0  0  0  0  0  0  0  0  0  0  0
   58.0814   -5.2238   -9.9317 C   0  0  0  0  0  0  0  0  0  0  0  0
   58.9365   -4.8849  -10.9321 C   0  0  0  0  0  0  0  0  0  0  0  0
   58.5688   -4.0874  -12.0036 C   0  0  0  0  0  0  0  0  0  0  0  0
   57.2717   -3.6420  -12.0130 C   0  0  0  0  0  0  0  0  0  0  0  0
   56.3797   -3.9775  -10.9975 C   0  0  0  0  0  0  0  0  0  0  0  0
   59.6793   -3.6604  -13.2828 S   0  0  0  0  0  0  0  0  0  0  0  0
   60.2314   -2.2817  -13.0683 O   0  0  0  0  0  0  0  0  0  0  0  0
   58.9081   -3.6500  -14.5781 O   0  0  0  0  0  0  0  0  0  0  0  0
   60.9770   -4.7896  -13.3954 N   0  0  0  0  0  0  0  0  0  0  0  0
   61.9781   -4.2995  -14.2963 C   0  0  0  0  0  0  0  0  0  0  0  0
   60.6013   -5.7024  -13.7367 H   0  0  0  0  0  0  0  0  0  0  0  0
 18 19  1  0  0  0
 19  1  1  0  0  0
  1  2  1  0  0  0
  2 13  1  0  0  0
 13 14  1  0  0  0
 14 15  1  0  0  0
 15 16  1  0  0  0
 16 17  1  0  0  0
  2  3  1  0  0  0
  3  4  2  0  0  0
  4  5  1  0  0  0
  5 20  1  0  0  0
 20 22  1  0  0  0
 22 23  2  0  0  0
 23 24  1  0  0  0
 24 25  2  0  0  0
 25 26  1  0  0  0
 26 27  2  0  0  0
 25 28  1  0  0  0
 28 29  2  0  0  0
 28 30  2  0  0  0
 28 31  1  0  0  0
 31 32  1  0  0  0
  5  6  2  0  0  0
  6  7  1  0  0  0
  7  8  2  0  0  0
  8  9  1  0  0  0
  9 10  1  0  0  0
  9 11  1  0  0  0
 11 12  2  0  0  0
 11  1  1  0  0  0
 17 13  1  0  0  0
  8  3  1  0  0  0
 27 22  1  0  0  0
 20 21  1  0  0  0
 31 33  1  0  0  0
M  END
> <minimizedAffinity>
-8.10841

> <CNNscore>
0.4903111458

> <CNNaffinity>
7.2599701881

> <CNN_VS>
3.5596442223

> <CNNaffinity_variance>
0.2916688323

$$$$
[H]c1nc(N([H])c2c([H])c([H])c(S(=O)(=O)N([H])C([H])([H])[H])c([H])c2[H])nc2c1N(C([H])([H])[H])C(=O)[C@@]([H])(C([H])([H])C([H])([H])[H])N2C1([H])C([H])([H])C([H])([H])C([H])([H])C1([H])[H]


 33 36  0  0  0  0  0  0  0  0999 V2000
   56.3210   -3.9919  -13.1699 C   0  0  0  0  0  0  0  0  0  0  0  0
   57.0687   -4.0416  -11.9368 N   0  0  0  0  0  0  0  0  0  0  0  0
   58.4575   -4.3892  -12.0809 C   0  0  0  0  0  0  0  0  0  0  0  0
   59.1501   -4.9296  -11.0730 N   0  0  0  0  0  0  0  0  0  0  0  0
   60.4742   -5.2796  -11.1562 C   0  0  0  0  0  0  0  0  0  0  0  0
   61.1030   -5.0716  -12.2970 N   0  0  0  0  0  0  0  0  0  0  0  0
   60.4548   -4.5311  -13.3428 C   0  0  0  0  0  0  0  0  0  0  0  0
   59.1233   -4.1748  -13.2720 C   0  0  0  0  0  0  0  0  0  0  0  0
   58.4585   -3.6062  -14.3855 N   0  0  0  0  0  0  0  0  0  0  0  0
   59.1291   -3.3678  -15.6504 C   0  0  0  0  0  0  0  0  0  0  0  0
   57.0853   -3.2616  -14.2440 C   0  0  0  0  0  0  0  0  0  0  0  0
   56.5423   -2.3947  -14.9766 O   0  0  0  0  0  0  0  0  0  0  0  0
   56.5749   -3.7862  -10.6386 C   0  0  0  0  0  0  0  0  0  0  0  0
   55.1012   -3.3929  -10.6567 C   0  0  0  0  0  0  0  0  0  0  0  0
   54.4545   -4.5395   -9.9157 C   0  0  0  0  0  0  0  0  0  0  0  0
   55.4715   -4.7589   -8.7867 C   0  0  0  0  0  0  0  0  0  0  0  0
   56.7360   -4.8970   -9.6492 C   0  0  0  0  0  0  0  0  0  0  0  0
   55.9408   -5.2937  -15.1873 C   0  0  0  0  0  0  0  0  0  0  0  0
   56.1884   -5.4170  -13.6861 C   0  0  0  0  0  0  0  0  0  0  0  0
   61.0656   -5.8519  -10.0435 N   0  0  0  0  0  0  0  0  0  0  0  0
   60.9409   -5.3589   -9.0960 H   0  0  0  0  0  0  0  0  0  0  0  0
   61.8363   -7.0278   -9.9902 C   0  0  0  0  0  0  0  0  0  0  0  0
   61.3704   -8.1767  -10.6635 C   0  0  0  0  0  0  0  0  0  0  0  0
   62.0717   -9.3400  -10.6177 C   0  0  0  0  0  0  0  0  0  0  0  0
   63.2634   -9.4779   -9.9247 C   0  0  0  0  0  0  0  0  0  0  0  0
   63.7179   -8.3622   -9.2691 C   0  0  0  0  0  0  0  0  0  0  0  0
   63.0144   -7.1609   -9.3031 C   0  0  0  0  0  0  0  0  0  0  0  0
   64.1542  -10.9798   -9.8753 S   0  0  0  0  0  0  0  0  0  0  0  0
   65.5212  -10.7674   -9.2939 O   0  0  0  0  0  0  0  0  0  0  0  0
   64.3277  -11.4595  -11.2939 O   0  0  0  0  0  0  0  0  0  0  0  0
   63.3192  -12.1792   -8.9610 N   0  0  0  0  0  0  0  0  0  0  0  0
   64.1524  -13.3321   -8.7860 C   0  0  0  0  0  0  0  0  0  0  0  0
   62.4441  -12.4409   -9.4673 H   0  0  0  0  0  0  0  0  0  0  0  0
 18 19  1  0  0  0
 19  1  1  0  0  0
  1  2  1  0  0  0
  2 13  1  0  0  0
 13 14  1  0  0  0
 14 15  1  0  0  0
 15 16  1  0  0  0
 16 17  1  0  0  0
  2  3  1  0  0  0
  3  4  2  0  0  0
  4  5  1  0  0  0
  5 20  1  0  0  0
 20 22  1  0  0  0
 22 23  2  0  0  0
 23 24  1  0  0  0
 24 25  2  0  0  0
 25 26  1  0  0  0
 26 27  2  0  0  0
 25 28  1  0  0  0
 28 29  2  0  0  0
 28 30  2  0  0  0
 28 31  1  0  0  0
 31 32  1  0  0  0
  5  6  2  0  0  0
  6  7  1  0  0  0
  7  8  2  0  0  0
  8  9  1  0  0  0
  9 10  1  0  0  0
  9 11  1  0  0  0
 11 12  2  0  0  0
 11  1  1  0  0  0
 17 13  1  0  0  0
  8  3  1  0  0  0
 27 22  1  0  0  0
 20 21  1  0  0  0
 31 33  1  0  0  0
M  END
> <minimizedAffinity>
0.05763

> <CNNscore>
0.4315598309

> <CNNaffinity>
5.6895289421

> <CNN_VS>
2.4553720951

> <CNNaffinity_variance>
0.3275242448

$$$$
[H]c1nc(N([H])c2c([H])c([H])c(S(=O)(=O)N([H])C([H])([H])[H])c([H])c2[H])nc2c1N(C([H])([H])[H])C(=O)[C@@]([H])(C([H])([H])C([H])([H])[H])N2C1([H])C([H])([H])C([H])([H])C([H])([H])C1([H])[H]


 33 36  0  0  0  0  0  0  0  0999 V2000
   56.6097   -4.4467  -13.4630 C   0  0  0  0  0  0  0  0  0  0  0  0
   57.8511   -4.2196  -12.7634 N   0  0  0  0  0  0  0  0  0  0  0  0
   58.9604   -3.8431  -13.5990 C   0  0  0  0  0  0  0  0  0  0  0  0
   60.2245   -4.0545  -13.2182 N   0  0  0  0  0  0  0  0  0  0  0  0
   61.3178   -3.7157  -13.9748 C   0  0  0  0  0  0  0  0  0  0  0  0
   61.1120   -3.1477  -15.1474 N   0  0  0  0  0  0  0  0  0  0  0  0
   59.8615   -2.9120  -15.5795 C   0  0  0  0  0  0  0  0  0  0  0  0
   58.7536   -3.2479  -14.8282 C   0  0  0  0  0  0  0  0  0  0  0  0
   57.4439   -2.9908  -15.3014 N   0  0  0  0  0  0  0  0  0  0  0  0
   57.1927   -2.3671  -16.5877 C   0  0  0  0  0  0  0  0  0  0  0  0
   56.3463   -3.3623  -14.4759 C   0  0  0  0  0  0  0  0  0  0  0  0
   55.2195   -2.8137  -14.5877 O   0  0  0  0  0  0  0  0  0  0  0  0
   58.0692   -4.3294  -11.3724 C   0  0  0  0  0  0  0  0  0  0  0  0
   57.9930   -2.9749  -10.6750 C   0  0  0  0  0  0  0  0  0  0  0  0
   56.7817   -3.1392   -9.7876 C   0  0  0  0  0  0  0  0  0  0  0  0
   56.9917   -4.5733   -9.2813 C   0  0  0  0  0  0  0  0  0  0  0  0
   57.1611   -5.2677  -10.6419 C   0  0  0  0  0  0  0  0  0  0  0  0
   55.4856   -5.8495  -15.0994 C   0  0  0  0  0  0  0  0  0  0  0  0
   56.7697   -5.7172  -14.2847 C   0  0  0  0  0  0  0  0  0  0  0  0
   62.5726   -4.0114  -13.4714 N   0  0  0  0  0  0  0  0  0  0  0  0
   63.2899   -3.2132  -13.4031 H   0  0  0  0  0  0  0  0  0  0  0  0
   63.0476   -5.2596  -13.0287 C   0  0  0  0  0  0  0  0  0  0  0  0
   64.4391   -5.4476  -12.8924 C   0  0  0  0  0  0  0  0  0  0  0  0
   64.9415   -6.6449  -12.4909 C   0  0  0  0  0  0  0  0  0  0  0  0
   64.1443   -7.7384  -12.1941 C   0  0  0  0  0  0  0  0  0  0  0  0
   62.7912   -7.5579  -12.3263 C   0  0  0  0  0  0  0  0  0  0  0  0
   62.2561   -6.3394  -12.7367 C   0  0  0  0  0  0  0  0  0  0  0  0
   64.8046   -9.2714  -11.6786 S   0  0  0  0  0  0  0  0  0  0  0  0
   65.7528   -9.8139  -12.7072 O   0  0  0  0  0  0  0  0  0  0  0  0
   63.6611  -10.2452  -11.5487 O   0  0  0  0  0  0  0  0  0  0  0  0
   65.6158   -9.1320  -10.1639 N   0  0  0  0  0  0  0  0  0  0  0  0
   65.5447  -10.3739   -9.4523 C   0  0  0  0  0  0  0  0  0  0  0  0
   65.1640   -8.3721   -9.6078 H   0  0  0  0  0  0  0  0  0  0  0  0
 18 19  1  0  0  0
 19  1  1  0  0  0
  1  2  1  0  0  0
  2 13  1  0  0  0
 13 14  1  0  0  0
 14 15  1  0  0  0
 15 16  1  0  0  0
 16 17  1  0  0  0
  2  3  1  0  0  0
  3  4  2  0  0  0
  4  5  1  0  0  0
  5 20  1  0  0  0
 20 22  1  0  0  0
 22 23  2  0  0  0
 23 24  1  0  0  0
 24 25  2  0  0  0
 25 26  1  0  0  0
 26 27  2  0  0  0
 25 28  1  0  0  0
 28 29  2  0  0  0
 28 30  2  0  0  0
 28 31  1  0  0  0
 31 32  1  0  0  0
  5  6  2  0  0  0
  6  7  1  0  0  0
  7  8  2  0  0  0
  8  9  1  0  0  0
  9 10  1  0  0  0
  9 11  1  0  0  0
 11 12  2  0  0  0
 11  1  1  0  0  0
 17 13  1  0  0  0
  8  3  1  0  0  0
 27 22  1  0  0  0
 20 21  1  0  0  0
 31 33  1  0  0  0
M  END
> <minimizedAffinity>
3.05269

> <CNNscore>
0.3759188056

> <CNNaffinity>
5.5469641685

> <CNN_VS>
2.0852081776

> <CNNaffinity_variance>
0.6221610904

$$$$
[H]c1nc(N([H])c2c([H])c([H])c(S(=O)(=O)N([H])C([H])([H])[H])c([H])c2[H])nc2c1N(C([H])([H])[H])C(=O)[C@@]([H])(C([H])([H])C([H])([H])[H])N2C1([H])C([H])([H])C([H])([H])C([H])([H])C1([H])[H]


 33 36  0  0  0  0  0  0  0  0999 V2000
   63.6877   -9.3903   -9.7425 C   0  0  0  0  0  0  0  0  0  0  0  0
   63.7207   -8.1451  -10.4709 N   0  0  0  0  0  0  0  0  0  0  0  0
   64.1442   -8.2531  -11.8418 C   0  0  0  0  0  0  0  0  0  0  0  0
   64.6739   -7.2123  -12.4928 N   0  0  0  0  0  0  0  0  0  0  0  0
   65.0938   -7.2603  -13.7982 C   0  0  0  0  0  0  0  0  0  0  0  0
   64.9684   -8.3994  -14.4514 N   0  0  0  0  0  0  0  0  0  0  0  0
   64.4425   -9.4774  -13.8452 C   0  0  0  0  0  0  0  0  0  0  0  0
   64.0165   -9.4422  -12.5329 C   0  0  0  0  0  0  0  0  0  0  0  0
   63.4646  -10.5892  -11.9124 N   0  0  0  0  0  0  0  0  0  0  0  0
   63.3166  -11.8530  -12.6106 C   0  0  0  0  0  0  0  0  0  0  0  0
   63.0451  -10.4835  -10.5570 C   0  0  0  0  0  0  0  0  0  0  0  0
   62.1850  -11.2611  -10.0685 O   0  0  0  0  0  0  0  0  0  0  0  0
   63.3836   -6.8668   -9.9742 C   0  0  0  0  0  0  0  0  0  0  0  0
   62.0900   -6.8923   -9.1663 C   0  0  0  0  0  0  0  0  0  0  0  0
   62.5705   -6.5308   -7.7805 C   0  0  0  0  0  0  0  0  0  0  0  0
   63.5842   -5.4258   -8.1097 C   0  0  0  0  0  0  0  0  0  0  0  0
   64.4275   -6.1957   -9.1384 C   0  0  0  0  0  0  0  0  0  0  0  0
   65.1557  -10.5466   -8.1879 C   0  0  0  0  0  0  0  0  0  0  0  0
   65.1256   -9.8460   -9.5438 C   0  0  0  0  0  0  0  0  0  0  0  0
   65.6457   -6.1150  -14.3451 N   0  0  0  0  0  0  0  0  0  0  0  0
   66.5057   -6.2235  -14.9815 H   0  0  0  0  0  0  0  0  0  0  0  0
   65.2178   -4.7865  -14.1673 C   0  0  0  0  0  0  0  0  0  0  0  0
   65.7540   -4.0371  -13.0990 C   0  0  0  0  0  0  0  0  0  0  0  0
   65.3503   -2.7586  -12.8769 C   0  0  0  0  0  0  0  0  0  0  0  0
   64.4078   -2.1157  -13.6629 C   0  0  0  0  0  0  0  0  0  0  0  0
   63.8849   -2.8425  -14.7017 C   0  0  0  0  0  0  0  0  0  0  0  0
   64.2847   -4.1539  -14.9463 C   0  0  0  0  0  0  0  0  0  0  0  0
   63.8990   -0.4712  -13.3653 S   0  0  0  0  0  0  0  0  0  0  0  0
   64.6051    0.0947  -12.1683 O   0  0  0  0  0  0  0  0  0  0  0  0
   62.4229   -0.4937  -13.0599 O   0  0  0  0  0  0  0  0  0  0  0  0
   64.1875    0.5363  -14.7340 N   0  0  0  0  0  0  0  0  0  0  0  0
   65.3554    1.3381  -14.5166 C   0  0  0  0  0  0  0  0  0  0  0  0
   63.3542    1.1476  -14.8848 H   0  0  0  0  0  0  0  0  0  0  0  0
 18 19  1  0  0  0
 19  1  1  0  0  0
  1  2  1  0  0  0
  2 13  1  0  0  0
 13 14  1  0  0  0
 14 15  1  0  0  0
 15 16  1  0  0  0
 16 17  1  0  0  0
  2  3  1  0  0  0
  3  4  2  0  0  0
  4  5  1  0  0  0
  5 20  1  0  0  0
 20 22  1  0  0  0
 22 23  2  0  0  0
 23 24  1  0  0  0
 24 25  2  0  0  0
 25 26  1  0  0  0
 26 27  2  0  0  0
 25 28  1  0  0  0
 28 29  2  0  0  0
 28 30  2  0  0  0
 28 31  1  0  0  0
 31 32  1  0  0  0
  5  6  2  0  0  0
  6  7  1  0  0  0
  7  8  2  0  0  0
  8  9  1  0  0  0
  9 10  1  0  0  0
  9 11  1  0  0  0
 11 12  2  0  0  0
 11  1  1  0  0  0
 17 13  1  0  0  0
  8  3  1  0  0  0
 27 22  1  0  0  0
 20 21  1  0  0  0
 31 33  1  0  0  0
M  END
> <minimizedAffinity>
-2.99159

> <CNNscore>
0.3347316086

> <CNNaffinity>
5.1555051804

> <CNN_VS>
1.7257105112

> <CNNaffinity_variance>
0.1449576169

$$$$
[H]c1nc(N([H])c2c([H])c([H])c(S(=O)(=O)N([H])C([H])([H])[H])c([H])c2[H])nc2c1N(C([H])([H])[H])C(=O)[C@@]([H])(C([H])([H])C([H])([H])[H])N2C1([H])C([H])([H])C([H])([H])C([H])([H])C1([H])[H]


 33 36  0  0  0  0  0  0  0  0999 V2000
   55.8084   -3.9749  -13.9230 C   0  0  0  0  0  0  0  0  0  0  0  0
   55.6696   -3.9054  -12.4884 N   0  0  0  0  0  0  0  0  0  0  0  0
   56.8406   -4.2872  -11.7446 C   0  0  0  0  0  0  0  0  0  0  0  0
   56.7546   -4.7285  -10.4854 N   0  0  0  0  0  0  0  0  0  0  0  0
   57.8374   -5.1053   -9.7317 C   0  0  0  0  0  0  0  0  0  0  0  0
   59.0349   -5.0285  -10.2795 N   0  0  0  0  0  0  0  0  0  0  0  0
   59.1790   -4.5917  -11.5422 C   0  0  0  0  0  0  0  0  0  0  0  0
   58.0981   -4.2098  -12.3108 C   0  0  0  0  0  0  0  0  0  0  0  0
   58.2712   -3.7520  -13.6396 N   0  0  0  0  0  0  0  0  0  0  0  0
   59.5783   -3.6588  -14.2636 C   0  0  0  0  0  0  0  0  0  0  0  0
   57.1141   -3.3737  -14.3759 C   0  0  0  0  0  0  0  0  0  0  0  0
   57.1806   -2.5809  -15.3507 O   0  0  0  0  0  0  0  0  0  0  0  0
   54.5214   -3.5068  -11.7692 C   0  0  0  0  0  0  0  0  0  0  0  0
   53.6440   -4.6962  -11.3919 C   0  0  0  0  0  0  0  0  0  0  0  0
   53.7295   -4.6917   -9.8837 C   0  0  0  0  0  0  0  0  0  0  0  0
   53.6409   -3.1859   -9.5978 C   0  0  0  0  0  0  0  0  0  0  0  0
   54.7734   -2.7158  -10.5244 C   0  0  0  0  0  0  0  0  0  0  0  0
   55.8609   -6.2197  -12.9919 C   0  0  0  0  0  0  0  0  0  0  0  0
   55.9019   -5.4443  -14.3061 C   0  0  0  0  0  0  0  0  0  0  0  0
   57.6057   -5.5658   -8.4472 N   0  0  0  0  0  0  0  0  0  0  0  0
   58.4263   -6.0142   -7.9162 H   0  0  0  0  0  0  0  0  0  0  0  0
   56.3982   -5.5268   -7.7261 C   0  0  0  0  0  0  0  0  0  0  0  0
   55.7307   -6.7392   -7.4525 C   0  0  0  0  0  0  0  0  0  0  0  0
   54.5498   -6.7447   -6.7799 C   0  0  0  0  0  0  0  0  0  0  0  0
   53.9324   -5.5903   -6.3263 C   0  0  0  0  0  0  0  0  0  0  0  0
   54.5794   -4.4105   -6.5916 C   0  0  0  0  0  0  0  0  0  0  0  0
   55.7900   -4.3830   -7.2795 C   0  0  0  0  0  0  0  0  0  0  0  0
   52.4141   -5.6130   -5.4624 S   0  0  0  0  0  0  0  0  0  0  0  0
   51.8897   -4.2198   -5.2740 O   0  0  0  0  0  0  0  0  0  0  0  0
   52.6702   -6.1963   -4.0961 O   0  0  0  0  0  0  0  0  0  0  0  0
   51.2353   -6.5664   -6.2828 N   0  0  0  0  0  0  0  0  0  0  0  0
   50.1685   -5.7322   -6.7518 C   0  0  0  0  0  0  0  0  0  0  0  0
   50.8656   -7.2869   -5.6233 H   0  0  0  0  0  0  0  0  0  0  0  0
 18 19  1  0  0  0
 19  1  1  0  0  0
  1  2  1  0  0  0
  2 13  1  0  0  0
 13 14  1  0  0  0
 14 15  1  0  0  0
 15 16  1  0  0  0
 16 17  1  0  0  0
  2  3  1  0  0  0
  3  4  2  0  0  0
  4  5  1  0  0  0
  5 20  1  0  0  0
 20 22  1  0  0  0
 22 23  2  0  0  0
 23 24  1  0  0  0
 24 25  2  0  0  0
 25 26  1  0  0  0
 26 27  2  0  0  0
 25 28  1  0  0  0
 28 29  2  0  0  0
 28 30  2  0  0  0
 28 31  1  0  0  0
 31 32  1  0  0  0
  5  6  2  0  0  0
  6  7  1  0  0  0
  7  8  2  0  0  0
  8  9  1  0  0  0
  9 10  1  0  0  0
  9 11  1  0  0  0
 11 12  2  0  0  0
 11  1  1  0  0  0
 17 13  1  0  0  0
  8  3  1  0  0  0
 27 22  1  0  0  0
 20 21  1  0  0  0
 31 33  1  0  0  0
M  END
> <minimizedAffinity>
4.96287

> <CNNscore>
0.3302212656

> <CNNaffinity>
6.0563554764

> <CNN_VS>
1.9999374151

> <CNNaffinity_variance>
0.2428868115

$$$$
[H]c1nc([H])c(C([H])([H])C([H])([H])C([H])([H])N(C([H])([H])[H])C([H])([H])[H])c([H])c1N([H])c1nc([H])c2c(n1)-c1c([H])c([H])c(Cl)c([H])c1N([H])C(=S)C2([H])[H]


 32 35  0  0  0  0  0  0  0  0999 V2000
   53.5320   -3.4824   -8.4542 C   0  0  0  0  0  0  0  0  0  0  0  0
   52.2536   -3.1625   -8.5337 N   0  0  0  0  0  0  0  0  0  0  0  0
   51.2684   -3.5974   -7.7303 C   0  0  0  0  0  0  0  0  0  0  0  0
   51.5937   -4.4788   -6.6953 C   0  0  0  0  0  0  0  0  0  0  0  0
   50.3728   -4.8358   -5.9332 C   0  0  0  0  0  0  0  0  0  0  0  0
   50.6137   -5.1098   -4.5059 C   0  0  0  0  0  0  0  0  0  0  0  0
   49.4377   -4.5719   -3.5111 S   0  0  0  0  0  0  0  0  0  0  0  0
   51.7106   -5.7673   -3.8974 N   0  0  0  0  0  0  0  0  0  0  0  0
   52.9862   -6.1488   -4.4080 C   0  0  0  0  0  0  0  0  0  0  0  0
   53.6867   -7.0036   -3.5949 C   0  0  0  0  0  0  0  0  0  0  0  0
   54.9265   -7.4255   -4.0051 C   0  0  0  0  0  0  0  0  0  0  0  0
   55.8347   -8.5219   -2.9714 Cl  0  0  0  0  0  0  0  0  0  0  0  0
   55.5003   -7.0243   -5.2059 C   0  0  0  0  0  0  0  0  0  0  0  0
   54.7595   -6.1641   -5.9915 C   0  0  0  0  0  0  0  0  0  0  0  0
   53.5096   -5.7189   -5.6113 C   0  0  0  0  0  0  0  0  0  0  0  0
   52.9228   -4.8187   -6.6035 C   0  0  0  0  0  0  0  0  0  0  0  0
   53.8604   -4.3485   -7.4394 N   0  0  0  0  0  0  0  0  0  0  0  0
   51.5759   -6.0245   -2.8986 H   0  0  0  0  0  0  0  0  0  0  0  0
   54.5476   -3.0100   -9.3128 N   0  0  0  0  0  0  0  0  0  0  0  0
   54.4180   -2.0488   -9.7600 H   0  0  0  0  0  0  0  0  0  0  0  0
   57.1906   -4.4041  -11.4304 C   0  0  0  0  0  0  0  0  0  0  0  0
   57.9495   -5.0332  -10.4760 C   0  0  0  0  0  0  0  0  0  0  0  0
   57.6196   -5.0001   -9.1680 N   0  0  0  0  0  0  0  0  0  0  0  0
   56.5108   -4.3380   -8.7204 C   0  0  0  0  0  0  0  0  0  0  0  0
   55.7173   -3.6944   -9.6234 C   0  0  0  0  0  0  0  0  0  0  0  0
   56.0765   -3.7378  -10.9910 C   0  0  0  0  0  0  0  0  0  0  0  0
   57.5395   -4.4375  -12.8621 C   0  0  0  0  0  0  0  0  0  0  0  0
   56.3709   -4.4976  -13.7920 C   0  0  0  0  0  0  0  0  0  0  0  0
   56.4509   -3.6066  -14.9866 C   0  0  0  0  0  0  0  0  0  0  0  0
   57.1023   -4.5412  -17.0563 C   0  0  0  0  0  0  0  0  0  0  0  0
   57.5578   -3.9241  -15.8444 N   0  0  0  0  0  0  0  0  0  0  0  0
   58.4571   -2.8271  -16.0412 C   0  0  0  0  0  0  0  0  0  0  0  0
 30 31  1  0  0  0
 31 32  1  0  0  0
 31 29  1  0  0  0
 29 28  1  0  0  0
 28 27  1  0  0  0
 27 21  1  0  0  0
 21 22  2  0  0  0
 22 23  1  0  0  0
 23 24  2  0  0  0
 24 25  1  0  0  0
 25 19  1  0  0  0
 19  1  1  0  0  0
  1  2  2  0  0  0
  2  3  1  0  0  0
  3  4  2  0  0  0
  4  5  1  0  0  0
  5  6  1  0  0  0
  6  7  2  0  0  0
  6  8  1  0  0  0
  8  9  1  0  0  0
  9 10  2  0  0  0
 10 11  1  0  0  0
 11 12  1  0  0  0
 11 13  2  0  0  0
 13 14  1  0  0  0
 14 15  2  0  0  0
 15 16  1  0  0  0
 16 17  2  0  0  0
 25 26  2  0  0  0
 26 21  1  0  0  0
 17  1  1  0  0  0
 16  4  1  0  0  0
 15  9  1  0  0  0
 19 20  1  0  0  0
  8 18  1  0  0  0
M  END
> <minimizedAffinity>
-9.45127

> <CNNscore>
0.9550039172

> <CNNaffinity>
8.0586156845

> <CNN_VS>
7.6960096359

> <CNNaffinity_variance>
0.0617073290

$$$$
[H]c1nc([H])c(C([H])([H])C([H])([H])C([H])([H])N(C([H])([H])[H])C([H])([H])[H])c([H])c1N([H])c1nc([H])c2c(n1)-c1c([H])c([H])c(Cl)c([H])c1N([H])C(=S)C2([H])[H]


 32 35  0  0  0  0  0  0  0  0999 V2000
   53.8888   -3.4298   -8.5629 C   0  0  0  0  0  0  0  0  0  0  0  0
   52.6078   -3.1389   -8.6943 N   0  0  0  0  0  0  0  0  0  0  0  0
   51.6004   -3.6000   -7.9341 C   0  0  0  0  0  0  0  0  0  0  0  0
   51.9029   -4.4783   -6.8896 C   0  0  0  0  0  0  0  0  0  0  0  0
   50.6600   -4.8666   -6.1802 C   0  0  0  0  0  0  0  0  0  0  0  0
   50.8477   -5.1415   -4.7451 C   0  0  0  0  0  0  0  0  0  0  0  0
   49.6194   -4.6353   -3.7982 S   0  0  0  0  0  0  0  0  0  0  0  0
   51.9333   -5.7764   -4.0939 N   0  0  0  0  0  0  0  0  0  0  0  0
   53.2375   -6.1262   -4.5524 C   0  0  0  0  0  0  0  0  0  0  0  0
   53.9233   -6.9683   -3.7139 C   0  0  0  0  0  0  0  0  0  0  0  0
   55.1884   -7.3598   -4.0737 C   0  0  0  0  0  0  0  0  0  0  0  0
   56.0781   -8.4397   -3.0070 Cl  0  0  0  0  0  0  0  0  0  0  0  0
   55.8021   -6.9401   -5.2482 C   0  0  0  0  0  0  0  0  0  0  0  0
   55.0749   -6.0936   -6.0608 C   0  0  0  0  0  0  0  0  0  0  0  0
   53.8003   -5.6790   -5.7314 C   0  0  0  0  0  0  0  0  0  0  0  0
   53.2345   -4.7880   -6.7439 C   0  0  0  0  0  0  0  0  0  0  0  0
   54.1948   -4.2927   -7.5384 N   0  0  0  0  0  0  0  0  0  0  0  0
   51.7633   -6.0411   -3.1024 H   0  0  0  0  0  0  0  0  0  0  0  0
   54.9280   -2.9303   -9.3769 N   0  0  0  0  0  0  0  0  0  0  0  0
   54.9763   -1.8753   -9.5356 H   0  0  0  0  0  0  0  0  0  0  0  0
   57.8870   -5.0751   -9.6164 C   0  0  0  0  0  0  0  0  0  0  0  0
   57.9603   -5.2236  -10.9784 C   0  0  0  0  0  0  0  0  0  0  0  0
   57.0634   -4.6491  -11.8068 N   0  0  0  0  0  0  0  0  0  0  0  0
   56.0314   -3.8869  -11.3355 C   0  0  0  0  0  0  0  0  0  0  0  0
   55.9077   -3.7030   -9.9901 C   0  0  0  0  0  0  0  0  0  0  0  0
   56.8555   -4.3121   -9.1345 C   0  0  0  0  0  0  0  0  0  0  0  0
   58.8637   -5.6947   -8.7028 C   0  0  0  0  0  0  0  0  0  0  0  0
   60.1879   -6.0110   -9.3196 C   0  0  0  0  0  0  0  0  0  0  0  0
   60.5373   -7.4603   -9.3888 C   0  0  0  0  0  0  0  0  0  0  0  0
   62.4027   -6.7547  -10.6551 C   0  0  0  0  0  0  0  0  0  0  0  0
   61.4049   -7.7715  -10.4898 N   0  0  0  0  0  0  0  0  0  0  0  0
   61.9224   -9.1061  -10.4458 C   0  0  0  0  0  0  0  0  0  0  0  0
 30 31  1  0  0  0
 31 32  1  0  0  0
 31 29  1  0  0  0
 29 28  1  0  0  0
 28 27  1  0  0  0
 27 21  1  0  0  0
 21 22  2  0  0  0
 22 23  1  0  0  0
 23 24  2  0  0  0
 24 25  1  0  0  0
 25 19  1  0  0  0
 19  1  1  0  0  0
  1  2  2  0  0  0
  2  3  1  0  0  0
  3  4  2  0  0  0
  4  5  1  0  0  0
  5  6  1  0  0  0
  6  7  2  0  0  0
  6  8  1  0  0  0
  8  9  1  0  0  0
  9 10  2  0  0  0
 10 11  1  0  0  0
 11 12  1  0  0  0
 11 13  2  0  0  0
 13 14  1  0  0  0
 14 15  2  0  0  0
 15 16  1  0  0  0
 16 17  2  0  0  0
 25 26  2  0  0  0
 26 21  1  0  0  0
 17  1  1  0  0  0
 16  4  1  0  0  0
 15  9  1  0  0  0
 19 20  1  0  0  0
  8 18  1  0  0  0
M  END
> <minimizedAffinity>
-8.87411

> <CNNscore>
0.9373330474

> <CNNaffinity>
7.9548845291

> <CNN_VS>
7.4563760757

> <CNNaffinity_variance>
0.0660253316

$$$$
[H]c1nc([H])c(C([H])([H])C([H])([H])C([H])([H])N(C([H])([H])[H])C([H])([H])[H])c([H])c1N([H])c1nc([H])c2c(n1)-c1c([H])c([H])c(Cl)c([H])c1N([H])C(=S)C2([H])[H]


 32 35  0  0  0  0  0  0  0  0999 V2000
   53.8055   -3.5015   -8.5475 C   0  0  0  0  0  0  0  0  0  0  0  0
   52.5309   -3.1770   -8.6620 N   0  0  0  0  0  0  0  0  0  0  0  0
   51.5243   -3.5986   -7.8782 C   0  0  0  0  0  0  0  0  0  0  0  0
   51.8201   -4.4696   -6.8257 C   0  0  0  0  0  0  0  0  0  0  0  0
   50.5792   -4.8127   -6.0900 C   0  0  0  0  0  0  0  0  0  0  0  0
   50.7837   -5.0716   -4.6542 C   0  0  0  0  0  0  0  0  0  0  0  0
   49.5861   -4.5175   -3.6947 S   0  0  0  0  0  0  0  0  0  0  0  0
   51.8623   -5.7268   -4.0116 N   0  0  0  0  0  0  0  0  0  0  0  0
   53.1484   -6.1195   -4.4863 C   0  0  0  0  0  0  0  0  0  0  0  0
   53.8248   -6.9680   -3.6467 C   0  0  0  0  0  0  0  0  0  0  0  0
   55.0723   -7.3999   -4.0214 C   0  0  0  0  0  0  0  0  0  0  0  0
   55.9499   -8.4883   -2.9535 Cl  0  0  0  0  0  0  0  0  0  0  0  0
   55.6773   -7.0147   -5.2122 C   0  0  0  0  0  0  0  0  0  0  0  0
   54.9600   -6.1603   -6.0254 C   0  0  0  0  0  0  0  0  0  0  0  0
   53.7031   -5.7056   -5.6811 C   0  0  0  0  0  0  0  0  0  0  0  0
   53.1450   -4.8141   -6.6975 C   0  0  0  0  0  0  0  0  0  0  0  0
   54.1049   -4.3574   -7.5152 N   0  0  0  0  0  0  0  0  0  0  0  0
   51.7020   -5.9721   -3.0135 H   0  0  0  0  0  0  0  0  0  0  0  0
   54.8440   -3.0432   -9.3861 N   0  0  0  0  0  0  0  0  0  0  0  0
   54.7514   -2.0672   -9.8097 H   0  0  0  0  0  0  0  0  0  0  0  0
   57.6500   -4.1990  -11.4364 C   0  0  0  0  0  0  0  0  0  0  0  0
   58.2174   -5.1008  -10.5718 C   0  0  0  0  0  0  0  0  0  0  0  0
   57.7088   -5.3257   -9.3424 N   0  0  0  0  0  0  0  0  0  0  0  0
   56.5998   -4.6677   -8.8892 C   0  0  0  0  0  0  0  0  0  0  0  0
   55.9920   -3.7597   -9.7050 C   0  0  0  0  0  0  0  0  0  0  0  0
   56.5372   -3.5345  -10.9908 C   0  0  0  0  0  0  0  0  0  0  0  0
   58.1948   -3.9487  -12.7829 C   0  0  0  0  0  0  0  0  0  0  0  0
   59.6866   -3.8911  -12.8561 C   0  0  0  0  0  0  0  0  0  0  0  0
   60.2481   -3.2755  -14.0943 C   0  0  0  0  0  0  0  0  0  0  0  0
   61.1858   -3.8018  -16.1979 C   0  0  0  0  0  0  0  0  0  0  0  0
   61.1189   -4.1636  -14.8116 N   0  0  0  0  0  0  0  0  0  0  0  0
   62.3942   -4.3387  -14.1841 C   0  0  0  0  0  0  0  0  0  0  0  0
 30 31  1  0  0  0
 31 32  1  0  0  0
 31 29  1  0  0  0
 29 28  1  0  0  0
 28 27  1  0  0  0
 27 21  1  0  0  0
 21 22  2  0  0  0
 22 23  1  0  0  0
 23 24  2  0  0  0
 24 25  1  0  0  0
 25 19  1  0  0  0
 19  1  1  0  0  0
  1  2  2  0  0  0
  2  3  1  0  0  0
  3  4  2  0  0  0
  4  5  1  0  0  0
  5  6  1  0  0  0
  6  7  2  0  0  0
  6  8  1  0  0  0
  8  9  1  0  0  0
  9 10  2  0  0  0
 10 11  1  0  0  0
 11 12  1  0  0  0
 11 13  2  0  0  0
 13 14  1  0  0  0
 14 15  2  0  0  0
 15 16  1  0  0  0
 16 17  2  0  0  0
 25 26  2  0  0  0
 26 21  1  0  0  0
 17  1  1  0  0  0
 16  4  1  0  0  0
 15  9  1  0  0  0
 19 20  1  0  0  0
  8 18  1  0  0  0
M  END
> <minimizedAffinity>
-8.94919

> <CNNscore>
0.9371613264

> <CNNaffinity>
7.8025765419

> <CNN_VS>
7.3122730255

> <CNNaffinity_variance>
0.0547096021

$$$$
[H]c1nc([H])c(C([H])([H])C([H])([H])C([H])([H])N(C([H])([H])[H])C([H])([H])[H])c([H])c1N([H])c1nc([H])c2c(n1)-c1c([H])c([H])c(Cl)c([H])c1N([H])C(=S)C2([H])[H]


 32 35  0  0  0  0  0  0  0  0999 V2000
   52.1774   -3.8341   -7.7731 C   0  0  0  0  0  0  0  0  0  0  0  0
   52.8187   -3.1950   -8.7340 N   0  0  0  0  0  0  0  0  0  0  0  0
   54.1430   -3.2115   -8.9607 C   0  0  0  0  0  0  0  0  0  0  0  0
   54.9539   -3.9716   -8.1131 C   0  0  0  0  0  0  0  0  0  0  0  0
   56.3718   -3.8540   -8.5311 C   0  0  0  0  0  0  0  0  0  0  0  0
   57.1797   -5.0562   -8.2618 C   0  0  0  0  0  0  0  0  0  0  0  0
   58.2793   -5.3989   -9.4172 S   0  0  0  0  0  0  0  0  0  0  0  0
   57.1277   -5.9345   -7.1521 N   0  0  0  0  0  0  0  0  0  0  0  0
   56.1718   -6.0783   -6.1036 C   0  0  0  0  0  0  0  0  0  0  0  0
   56.5938   -6.8613   -5.0589 C   0  0  0  0  0  0  0  0  0  0  0  0
   55.7396   -7.0563   -4.0028 C   0  0  0  0  0  0  0  0  0  0  0  0
   56.2690   -8.0582   -2.6569 Cl  0  0  0  0  0  0  0  0  0  0  0  0
   54.4688   -6.4957   -3.9474 C   0  0  0  0  0  0  0  0  0  0  0  0
   54.0868   -5.7155   -5.0204 C   0  0  0  0  0  0  0  0  0  0  0  0
   54.9192   -5.4974   -6.0996 C   0  0  0  0  0  0  0  0  0  0  0  0
   54.2960   -4.6414   -7.1086 C   0  0  0  0  0  0  0  0  0  0  0  0
   52.9674   -4.5837   -6.9353 N   0  0  0  0  0  0  0  0  0  0  0  0
   57.9233   -6.6001   -7.0748 H   0  0  0  0  0  0  0  0  0  0  0  0
   50.7831   -3.7992   -7.5576 N   0  0  0  0  0  0  0  0  0  0  0  0
   50.1431   -3.8669   -8.4098 H   0  0  0  0  0  0  0  0  0  0  0  0
   49.9673   -4.6758   -4.0965 C   0  0  0  0  0  0  0  0  0  0  0  0
   49.0379   -3.7049   -3.8206 C   0  0  0  0  0  0  0  0  0  0  0  0
   48.6867   -2.7753   -4.7335 N   0  0  0  0  0  0  0  0  0  0  0  0
   49.2372   -2.7487   -5.9843 C   0  0  0  0  0  0  0  0  0  0  0  0
   50.1664   -3.6897   -6.3163 C   0  0  0  0  0  0  0  0  0  0  0  0
   50.5246   -4.6573   -5.3485 C   0  0  0  0  0  0  0  0  0  0  0  0
   50.3551   -5.6984   -3.1083 C   0  0  0  0  0  0  0  0  0  0  0  0
   51.5475   -5.3487   -2.2776 C   0  0  0  0  0  0  0  0  0  0  0  0
   51.9228   -6.3486   -1.2352 C   0  0  0  0  0  0  0  0  0  0  0  0
   52.2952   -8.6145   -1.7907 C   0  0  0  0  0  0  0  0  0  0  0  0
   51.3104   -7.6300   -1.4472 N   0  0  0  0  0  0  0  0  0  0  0  0
   50.4283   -8.0202   -0.3888 C   0  0  0  0  0  0  0  0  0  0  0  0
 30 31  1  0  0  0
 31 32  1  0  0  0
 31 29  1  0  0  0
 29 28  1  0  0  0
 28 27  1  0  0  0
 27 21  1  0  0  0
 21 22  2  0  0  0
 22 23  1  0  0  0
 23 24  2  0  0  0
 24 25  1  0  0  0
 25 19  1  0  0  0
 19  1  1  0  0  0
  1  2  2  0  0  0
  2  3  1  0  0  0
  3  4  2  0  0  0
  4  5  1  0  0  0
  5  6  1  0  0  0
  6  7  2  0  0  0
  6  8  1  0  0  0
  8  9  1  0  0  0
  9 10  2  0  0  0
 10 11  1  0  0  0
 11 12  1  0  0  0
 11 13  2  0  0  0
 13 14  1  0  0  0
 14 15  2  0  0  0
 15 16  1  0  0  0
 16 17  2  0  0  0
 25 26  2  0  0  0
 26 21  1  0  0  0
 17  1  1  0  0  0
 16  4  1  0  0  0
 15  9  1  0  0  0
 19 20  1  0  0  0
  8 18  1  0  0  0
M  END
> <minimizedAffinity>
-9.42292

> <CNNscore>
0.8600300550

> <CNNaffinity>
8.1288537979

> <CNN_VS>
6.9910583496

> <CNNaffinity_variance>
0.0608361587

$$$$
[H]c1nc([H])c(C([H])([H])C([H])([H])C([H])([H])N(C([H])([H])[H])C([H])([H])[H])c([H])c1N([H])c1nc([H])c2c(n1)-c1c([H])c([H])c(Cl)c([H])c1N([H])C(=S)C2([H])[H]


 32 35  0  0  0  0  0  0  0  0999 V2000
   53.4470   -3.1307   -8.7653 C   0  0  0  0  0  0  0  0  0  0  0  0
   52.3063   -2.5500   -9.0887 N   0  0  0  0  0  0  0  0  0  0  0  0
   51.1302   -2.6872   -8.4537 C   0  0  0  0  0  0  0  0  0  0  0  0
   51.0719   -3.5213   -7.3335 C   0  0  0  0  0  0  0  0  0  0  0  0
   49.6942   -3.5354   -6.7853 C   0  0  0  0  0  0  0  0  0  0  0  0
   49.6299   -3.7256   -5.3258 C   0  0  0  0  0  0  0  0  0  0  0  0
   48.4622   -2.8586   -4.5866 S   0  0  0  0  0  0  0  0  0  0  0  0
   50.4328   -4.5475   -4.4980 N   0  0  0  0  0  0  0  0  0  0  0  0
   51.6531   -5.2405   -4.7517 C   0  0  0  0  0  0  0  0  0  0  0  0
   51.9971   -6.1501   -3.7837 C   0  0  0  0  0  0  0  0  0  0  0  0
   53.1572   -6.8656   -3.9431 C   0  0  0  0  0  0  0  0  0  0  0  0
   53.6093   -8.0350   -2.7088 Cl  0  0  0  0  0  0  0  0  0  0  0  0
   53.9956   -6.7078   -5.0406 C   0  0  0  0  0  0  0  0  0  0  0  0
   53.6097   -5.7818   -5.9890 C   0  0  0  0  0  0  0  0  0  0  0  0
   52.4500   -5.0442   -5.8621 C   0  0  0  0  0  0  0  0  0  0  0  0
   52.2547   -4.1313   -6.9880 C   0  0  0  0  0  0  0  0  0  0  0  0
   53.3984   -3.9524   -7.6652 N   0  0  0  0  0  0  0  0  0  0  0  0
   50.0818   -4.6785   -3.5276 H   0  0  0  0  0  0  0  0  0  0  0  0
   54.6698   -2.9686   -9.4511 N   0  0  0  0  0  0  0  0  0  0  0  0
   54.7409   -2.1802  -10.1680 H   0  0  0  0  0  0  0  0  0  0  0  0
   57.7234   -4.7714  -10.3667 C   0  0  0  0  0  0  0  0  0  0  0  0
   58.0503   -5.3140   -9.1496 C   0  0  0  0  0  0  0  0  0  0  0  0
   57.3029   -5.0938   -8.0480 N   0  0  0  0  0  0  0  0  0  0  0  0
   56.1783   -4.3179   -8.0826 C   0  0  0  0  0  0  0  0  0  0  0  0
   55.8030   -3.7524   -9.2653 C   0  0  0  0  0  0  0  0  0  0  0  0
   56.5969   -3.9920  -10.4113 C   0  0  0  0  0  0  0  0  0  0  0  0
   58.5303   -5.0088  -11.5772 C   0  0  0  0  0  0  0  0  0  0  0  0
   58.5039   -3.8984  -12.5773 C   0  0  0  0  0  0  0  0  0  0  0  0
   59.8371   -3.4397  -13.0668 C   0  0  0  0  0  0  0  0  0  0  0  0
   59.2554   -3.1103  -15.3327 C   0  0  0  0  0  0  0  0  0  0  0  0
   60.0971   -3.8324  -14.4232 N   0  0  0  0  0  0  0  0  0  0  0  0
   61.4881   -3.8140  -14.7634 C   0  0  0  0  0  0  0  0  0  0  0  0
 30 31  1  0  0  0
 31 32  1  0  0  0
 31 29  1  0  0  0
 29 28  1  0  0  0
 28 27  1  0  0  0
 27 21  1  0  0  0
 21 22  2  0  0  0
 22 23  1  0  0  0
 23 24  2  0  0  0
 24 25  1  0  0  0
 25 19  1  0  0  0
 19  1  1  0  0  0
  1  2  2  0  0  0
  2  3  1  0  0  0
  3  4  2  0  0  0
  4  5  1  0  0  0
  5  6  1  0  0  0
  6  7  2  0  0  0
  6  8  1  0  0  0
  8  9  1  0  0  0
  9 10  2  0  0  0
 10 11  1  0  0  0
 11 12  1  0  0  0
 11 13  2  0  0  0
 13 14  1  0  0  0
 14 15  2  0  0  0
 15 16  1  0  0  0
 16 17  2  0  0  0
 25 26  2  0  0  0
 26 21  1  0  0  0
 17  1  1  0  0  0
 16  4  1  0  0  0
 15  9  1  0  0  0
 19 20  1  0  0  0
  8 18  1  0  0  0
M  END
> <minimizedAffinity>
-9.01630

> <CNNscore>
0.8446082473

> <CNNaffinity>
7.7463407516

> <CNN_VS>
6.5426235199

> <CNNaffinity_variance>
0.0897675976

$$$$
[H]c1nc([H])c(C([H])([H])C([H])([H])C([H])([H])N(C([H])([H])[H])C([H])([H])[H])c([H])c1N([H])c1nc([H])c2c(n1)-c1c([H])c([H])c(Cl)c([H])c1N([H])C(=S)C2([H])[H]


 32 35  0  0  0  0  0  0  0  0999 V2000
   53.1978   -3.1507   -8.6461 C   0  0  0  0  0  0  0  0  0  0  0  0
   52.1372   -2.4652   -9.0310 N   0  0  0  0  0  0  0  0  0  0  0  0
   50.9249   -2.4744   -8.4517 C   0  0  0  0  0  0  0  0  0  0  0  0
   50.7313   -3.2798   -7.3258 C   0  0  0  0  0  0  0  0  0  0  0  0
   49.3349   -3.1479   -6.8444 C   0  0  0  0  0  0  0  0  0  0  0  0
   49.1838   -3.3062   -5.3875 C   0  0  0  0  0  0  0  0  0  0  0  0
   48.0753   -2.3154   -4.7158 S   0  0  0  0  0  0  0  0  0  0  0  0
   49.8611   -4.1898   -4.5121 N   0  0  0  0  0  0  0  0  0  0  0  0
   51.0164   -5.0046   -4.6984 C   0  0  0  0  0  0  0  0  0  0  0  0
   51.2223   -5.9275   -3.7041 C   0  0  0  0  0  0  0  0  0  0  0  0
   52.3113   -6.7571   -3.7988 C   0  0  0  0  0  0  0  0  0  0  0  0
   52.5861   -7.9448   -2.5303 Cl  0  0  0  0  0  0  0  0  0  0  0  0
   53.2116   -6.7017   -4.8565 C   0  0  0  0  0  0  0  0  0  0  0  0
   52.9649   -5.7581   -5.8335 C   0  0  0  0  0  0  0  0  0  0  0  0
   51.8800   -4.9070   -5.7714 C   0  0  0  0  0  0  0  0  0  0  0  0
   51.8297   -3.9982   -6.9163 C   0  0  0  0  0  0  0  0  0  0  0  0
   53.0160   -3.9451   -7.5398 N   0  0  0  0  0  0  0  0  0  0  0  0
   49.4537   -4.2690   -3.5583 H   0  0  0  0  0  0  0  0  0  0  0  0
   54.4614   -3.1223   -9.2740 N   0  0  0  0  0  0  0  0  0  0  0  0
   54.6010   -2.4441  -10.0871 H   0  0  0  0  0  0  0  0  0  0  0  0
   56.6240   -5.1139   -7.0900 C   0  0  0  0  0  0  0  0  0  0  0  0
   57.6331   -5.4153   -7.9695 C   0  0  0  0  0  0  0  0  0  0  0  0
   57.6117   -4.9913   -9.2503 N   0  0  0  0  0  0  0  0  0  0  0  0
   56.5837   -4.2376   -9.7435 C   0  0  0  0  0  0  0  0  0  0  0  0
   55.5525   -3.9058   -8.9154 C   0  0  0  0  0  0  0  0  0  0  0  0
   55.5888   -4.3581   -7.5755 C   0  0  0  0  0  0  0  0  0  0  0  0
   56.6392   -5.5683   -5.6880 C   0  0  0  0  0  0  0  0  0  0  0  0
   56.2059   -4.5429   -4.6906 C   0  0  0  0  0  0  0  0  0  0  0  0
   55.9382   -5.0546   -3.3145 C   0  0  0  0  0  0  0  0  0  0  0  0
   57.5313   -4.4693   -1.6710 C   0  0  0  0  0  0  0  0  0  0  0  0
   57.1332   -5.4595   -2.6292 N   0  0  0  0  0  0  0  0  0  0  0  0
   57.0662   -6.7921   -2.1091 C   0  0  0  0  0  0  0  0  0  0  0  0
 30 31  1  0  0  0
 31 32  1  0  0  0
 31 29  1  0  0  0
 29 28  1  0  0  0
 28 27  1  0  0  0
 27 21  1  0  0  0
 21 22  2  0  0  0
 22 23  1  0  0  0
 23 24  2  0  0  0
 24 25  1  0  0  0
 25 19  1  0  0  0
 19  1  1  0  0  0
  1  2  2  0  0  0
  2  3  1  0  0  0
  3  4  2  0  0  0
  4  5  1  0  0  0
  5  6  1  0  0  0
  6  7  2  0  0  0
  6  8  1  0  0  0
  8  9  1  0  0  0
  9 10  2  0  0  0
 10 11  1  0  0  0
 11 12  1  0  0  0
 11 13  2  0  0  0
 13 14  1  0  0  0
 14 15  2  0  0  0
 15 16  1  0  0  0
 16 17  2  0  0  0
 25 26  2  0  0  0
 26 21  1  0  0  0
 17  1  1  0  0  0
 16  4  1  0  0  0
 15  9  1  0  0  0
 19 20  1  0  0  0
  8 18  1  0  0  0
M  END
> <minimizedAffinity>
-8.26143

> <CNNscore>
0.8309856653

> <CNNaffinity>
8.2244539261

> <CNN_VS>
6.8344035149

> <CNNaffinity_variance>
0.1450876743

$$$$
[H]c1nc([H])c(C([H])([H])C([H])([H])C([H])([H])N(C([H])([H])[H])C([H])([H])[H])c([H])c1N([H])c1nc([H])c2c(n1)-c1c([H])c([H])c(Cl)c([H])c1N([H])C(=S)C2([H])[H]


 32 35  0  0  0  0  0  0  0  0999 V2000
   56.6179   -3.8597  -10.4673 C   0  0  0  0  0  0  0  0  0  0  0  0
   57.5446   -4.5184   -9.7963 N   0  0  0  0  0  0  0  0  0  0  0  0
   57.4144   -5.0597   -8.5734 C   0  0  0  0  0  0  0  0  0  0  0  0
   56.1876   -4.9314   -7.9159 C   0  0  0  0  0  0  0  0  0  0  0  0
   56.2537   -5.5916   -6.5898 C   0  0  0  0  0  0  0  0  0  0  0  0
   54.9723   -6.1598   -6.1365 C   0  0  0  0  0  0  0  0  0  0  0  0
   55.1105   -7.5764   -5.3391 S   0  0  0  0  0  0  0  0  0  0  0  0
   53.6626   -5.6460   -6.2986 N   0  0  0  0  0  0  0  0  0  0  0  0
   53.1543   -4.5921   -7.1138 C   0  0  0  0  0  0  0  0  0  0  0  0
   51.8729   -4.2093   -6.8069 C   0  0  0  0  0  0  0  0  0  0  0  0
   51.2999   -3.2003   -7.5395 C   0  0  0  0  0  0  0  0  0  0  0  0
   49.6574   -2.7002   -7.1557 Cl  0  0  0  0  0  0  0  0  0  0  0  0
   51.9613   -2.5520   -8.5762 C   0  0  0  0  0  0  0  0  0  0  0  0
   53.2483   -2.9701   -8.8495 C   0  0  0  0  0  0  0  0  0  0  0  0
   53.8566   -3.9815   -8.1339 C   0  0  0  0  0  0  0  0  0  0  0  0
   55.2152   -4.2468   -8.6060 C   0  0  0  0  0  0  0  0  0  0  0  0
   55.4087   -3.7290   -9.8280 N   0  0  0  0  0  0  0  0  0  0  0  0
   52.9289   -6.1110   -5.7263 H   0  0  0  0  0  0  0  0  0  0  0  0
   56.7818   -3.3006  -11.7528 N   0  0  0  0  0  0  0  0  0  0  0  0
   57.0872   -2.2794  -11.8192 H   0  0  0  0  0  0  0  0  0  0  0  0
   56.3820   -3.7290  -15.3680 C   0  0  0  0  0  0  0  0  0  0  0  0
   56.1590   -5.0818  -15.4214 C   0  0  0  0  0  0  0  0  0  0  0  0
   56.1476   -5.8461  -14.3094 N   0  0  0  0  0  0  0  0  0  0  0  0
   56.3575   -5.3157  -13.0674 C   0  0  0  0  0  0  0  0  0  0  0  0
   56.5838   -3.9760  -12.9518 C   0  0  0  0  0  0  0  0  0  0  0  0
   56.5933   -3.1880  -14.1266 C   0  0  0  0  0  0  0  0  0  0  0  0
   56.3925   -2.8842  -16.5757 C   0  0  0  0  0  0  0  0  0  0  0  0
   57.6894   -2.8664  -17.3185 C   0  0  0  0  0  0  0  0  0  0  0  0
   58.7468   -1.9807  -16.7486 C   0  0  0  0  0  0  0  0  0  0  0  0
   60.2228   -2.9813  -15.1990 C   0  0  0  0  0  0  0  0  0  0  0  0
   60.0037   -2.6535  -16.5779 N   0  0  0  0  0  0  0  0  0  0  0  0
   60.1899   -3.7479  -17.4826 C   0  0  0  0  0  0  0  0  0  0  0  0
 30 31  1  0  0  0
 31 32  1  0  0  0
 31 29  1  0  0  0
 29 28  1  0  0  0
 28 27  1  0  0  0
 27 21  1  0  0  0
 21 22  2  0  0  0
 22 23  1  0  0  0
 23 24  2  0  0  0
 24 25  1  0  0  0
 25 19  1  0  0  0
 19  1  1  0  0  0
  1  2  2  0  0  0
  2  3  1  0  0  0
  3  4  2  0  0  0
  4  5  1  0  0  0
  5  6  1  0  0  0
  6  7  2  0  0  0
  6  8  1  0  0  0
  8  9  1  0  0  0
  9 10  2  0  0  0
 10 11  1  0  0  0
 11 12  1  0  0  0
 11 13  2  0  0  0
 13 14  1  0  0  0
 14 15  2  0  0  0
 15 16  1  0  0  0
 16 17  2  0  0  0
 25 26  2  0  0  0
 26 21  1  0  0  0
 17  1  1  0  0  0
 16  4  1  0  0  0
 15  9  1  0  0  0
 19 20  1  0  0  0
  8 18  1  0  0  0
M  END
> <minimizedAffinity>
-8.94083

> <CNNscore>
0.6757954955

> <CNNaffinity>
7.3655648232

> <CNN_VS>
4.9776153564

> <CNNaffinity_variance>
0.0602309294

$$$$
[H]c1nc([H])c(C([H])([H])C([H])([H])C([H])([H])N(C([H])([H])[H])C([H])([H])[H])c([H])c1N([H])c1nc([H])c2c(n1)-c1c([H])c([H])c(Cl)c([H])c1N([H])C(=S)C2([H])[H]


 32 35  0  0  0  0  0  0  0  0999 V2000
   55.7599   -3.9780  -10.7832 C   0  0  0  0  0  0  0  0  0  0  0  0
   56.8249   -4.5604  -10.2639 N   0  0  0  0  0  0  0  0  0  0  0  0
   56.9435   -5.0451   -9.0164 C   0  0  0  0  0  0  0  0  0  0  0  0
   55.8485   -4.9389   -8.1541 C   0  0  0  0  0  0  0  0  0  0  0  0
   56.1848   -5.5284   -6.8357 C   0  0  0  0  0  0  0  0  0  0  0  0
   55.0364   -6.1298   -6.1356 C   0  0  0  0  0  0  0  0  0  0  0  0
   55.3893   -7.4972   -5.3186 S   0  0  0  0  0  0  0  0  0  0  0  0
   53.6935   -5.6837   -6.0797 N   0  0  0  0  0  0  0  0  0  0  0  0
   52.9931   -4.6956   -6.8324 C   0  0  0  0  0  0  0  0  0  0  0  0
   51.7685   -4.3555   -6.3154 C   0  0  0  0  0  0  0  0  0  0  0  0
   51.0216   -3.4109   -6.9734 C   0  0  0  0  0  0  0  0  0  0  0  0
   49.4497   -2.9660   -6.3204 Cl  0  0  0  0  0  0  0  0  0  0  0  0
   51.4524   -2.7864   -8.1382 C   0  0  0  0  0  0  0  0  0  0  0  0
   52.6904   -3.1598   -8.6219 C   0  0  0  0  0  0  0  0  0  0  0  0
   53.4690   -4.1061   -7.9868 C   0  0  0  0  0  0  0  0  0  0  0  0
   54.7339   -4.3338   -8.6850 C   0  0  0  0  0  0  0  0  0  0  0  0
   54.6788   -3.8696   -9.9421 N   0  0  0  0  0  0  0  0  0  0  0  0
   53.0993   -6.1518   -5.3657 H   0  0  0  0  0  0  0  0  0  0  0  0
   55.6623   -3.4772  -12.0991 N   0  0  0  0  0  0  0  0  0  0  0  0
   54.7961   -2.9072  -12.3547 H   0  0  0  0  0  0  0  0  0  0  0  0
   58.9932   -3.6292  -13.6140 C   0  0  0  0  0  0  0  0  0  0  0  0
   58.6490   -3.9159  -14.9109 C   0  0  0  0  0  0  0  0  0  0  0  0
   57.3628   -4.0677  -15.2894 N   0  0  0  0  0  0  0  0  0  0  0  0
   56.3305   -3.9446  -14.4021 C   0  0  0  0  0  0  0  0  0  0  0  0
   56.6114   -3.6593  -13.0986 C   0  0  0  0  0  0  0  0  0  0  0  0
   57.9647   -3.5034  -12.7170 C   0  0  0  0  0  0  0  0  0  0  0  0
   60.3946   -3.4571  -13.1906 C   0  0  0  0  0  0  0  0  0  0  0  0
   61.1682   -2.4472  -13.9752 C   0  0  0  0  0  0  0  0  0  0  0  0
   62.5823   -2.8136  -14.2808 C   0  0  0  0  0  0  0  0  0  0  0  0
   64.0736   -1.1475  -13.5182 C   0  0  0  0  0  0  0  0  0  0  0  0
   63.3819   -1.6814  -14.6555 N   0  0  0  0  0  0  0  0  0  0  0  0
   64.2162   -1.9266  -15.7934 C   0  0  0  0  0  0  0  0  0  0  0  0
 30 31  1  0  0  0
 31 32  1  0  0  0
 31 29  1  0  0  0
 29 28  1  0  0  0
 28 27  1  0  0  0
 27 21  1  0  0  0
 21 22  2  0  0  0
 22 23  1  0  0  0
 23 24  2  0  0  0
 24 25  1  0  0  0
 25 19  1  0  0  0
 19  1  1  0  0  0
  1  2  2  0  0  0
  2  3  1  0  0  0
  3  4  2  0  0  0
  4  5  1  0  0  0
  5  6  1  0  0  0
  6  7  2  0  0  0
  6  8  1  0  0  0
  8  9  1  0  0  0
  9 10  2  0  0  0
 10 11  1  0  0  0
 11 12  1  0  0  0
 11 13  2  0  0  0
 13 14  1  0  0  0
 14 15  2  0  0  0
 15 16  1  0  0  0
 16 17  2  0  0  0
 25 26  2  0  0  0
 26 21  1  0  0  0
 17  1  1  0  0  0
 16  4  1  0  0  0
 15  9  1  0  0  0
 19 20  1  0  0  0
  8 18  1  0  0  0
M  END
> <minimizedAffinity>
-8.19678

> <CNNscore>
0.6005008221

> <CNNaffinity>
7.1777143478

> <CNN_VS>
4.3102235794

> <CNNaffinity_variance>
0.1200482845

$$$$
[H]c1nc([H])c(C([H])([H])C([H])([H])C([H])([H])N(C([H])([H])[H])C([H])([H])[H])c([H])c1N([H])c1nc([H])c2c(n1)-c1c([H])c([H])c(Cl)c([H])c1N([H])C(=S)C2([H])[H]


 32 35  0  0  0  0  0  0  0  0999 V2000
   52.6779   -3.6397   -7.7627 C   0  0  0  0  0  0  0  0  0  0  0  0
   51.6746   -2.9712   -8.3008 N   0  0  0  0  0  0  0  0  0  0  0  0
   50.4263   -2.8723   -7.8137 C   0  0  0  0  0  0  0  0  0  0  0  0
   50.1240   -3.5311   -6.6185 C   0  0  0  0  0  0  0  0  0  0  0  0
   48.7046   -3.2980   -6.2582 C   0  0  0  0  0  0  0  0  0  0  0  0
   48.4483   -3.2766   -4.8076 C   0  0  0  0  0  0  0  0  0  0  0  0
   47.3376   -2.1776   -4.3381 S   0  0  0  0  0  0  0  0  0  0  0  0
   49.0280   -4.0708   -3.7884 N   0  0  0  0  0  0  0  0  0  0  0  0
   50.1595   -4.9388   -3.7942 C   0  0  0  0  0  0  0  0  0  0  0  0
   50.2596   -5.7426   -2.6868 C   0  0  0  0  0  0  0  0  0  0  0  0
   51.3181   -6.6122   -2.6050 C   0  0  0  0  0  0  0  0  0  0  0  0
   51.4576   -7.6485   -1.1900 Cl  0  0  0  0  0  0  0  0  0  0  0  0
   52.2898   -6.7123   -3.5939 C   0  0  0  0  0  0  0  0  0  0  0  0
   52.1486   -5.8843   -4.6895 C   0  0  0  0  0  0  0  0  0  0  0  0
   51.0974   -4.9976   -4.8059 C   0  0  0  0  0  0  0  0  0  0  0  0
   51.1620   -4.2305   -6.0496 C   0  0  0  0  0  0  0  0  0  0  0  0
   52.3892   -4.2903   -6.5874 N   0  0  0  0  0  0  0  0  0  0  0  0
   48.5538   -4.0227   -2.8638 H   0  0  0  0  0  0  0  0  0  0  0  0
   53.9814   -3.7270   -8.2965 N   0  0  0  0  0  0  0  0  0  0  0  0
   54.1886   -3.1974   -9.2006 H   0  0  0  0  0  0  0  0  0  0  0  0
   57.3658   -5.0940   -7.9959 C   0  0  0  0  0  0  0  0  0  0  0  0
   57.2208   -5.8309   -6.8476 C   0  0  0  0  0  0  0  0  0  0  0  0
   56.0521   -5.8785   -6.1748 N   0  0  0  0  0  0  0  0  0  0  0  0
   54.9472   -5.1952   -6.5993 C   0  0  0  0  0  0  0  0  0  0  0  0
   55.0309   -4.4459   -7.7355 C   0  0  0  0  0  0  0  0  0  0  0  0
   56.2629   -4.4056   -8.4296 C   0  0  0  0  0  0  0  0  0  0  0  0
   58.6364   -5.0384   -8.7409 C   0  0  0  0  0  0  0  0  0  0  0  0
   58.7046   -5.9359   -9.9342 C   0  0  0  0  0  0  0  0  0  0  0  0
   57.9698   -5.4590  -11.1425 C   0  0  0  0  0  0  0  0  0  0  0  0
   59.3964   -4.1162  -12.4626 C   0  0  0  0  0  0  0  0  0  0  0  0
   58.3209   -4.1172  -11.5137 N   0  0  0  0  0  0  0  0  0  0  0  0
   57.1943   -3.3201  -11.8961 C   0  0  0  0  0  0  0  0  0  0  0  0
 30 31  1  0  0  0
 31 32  1  0  0  0
 31 29  1  0  0  0
 29 28  1  0  0  0
 28 27  1  0  0  0
 27 21  1  0  0  0
 21 22  2  0  0  0
 22 23  1  0  0  0
 23 24  2  0  0  0
 24 25  1  0  0  0
 25 19  1  0  0  0
 19  1  1  0  0  0
  1  2  2  0  0  0
  2  3  1  0  0  0
  3  4  2  0  0  0
  4  5  1  0  0  0
  5  6  1  0  0  0
  6  7  2  0  0  0
  6  8  1  0  0  0
  8  9  1  0  0  0
  9 10  2  0  0  0
 10 11  1  0  0  0
 11 12  1  0  0  0
 11 13  2  0  0  0
 13 14  1  0  0  0
 14 15  2  0  0  0
 15 16  1  0  0  0
 16 17  2  0  0  0
 25 26  2  0  0  0
 26 21  1  0  0  0
 17  1  1  0  0  0
 16  4  1  0  0  0
 15  9  1  0  0  0
 19 20  1  0  0  0
  8 18  1  0  0  0
M  END
> <minimizedAffinity>
-6.57498

> <CNNscore>
0.5078567863

> <CNNaffinity>
7.5197324753

> <CNN_VS>
3.8189470768

> <CNNaffinity_variance>
0.2105400115

$$$$
[H]c1nc(N([H])c2c([H])c([H])c([H])c([H])c2OC([H])([H])[H])nc2c1C([H])([H])C([H])([H])c1c(C(=O)N([H])[H])nn(C([H])([H])[H])c1-2


 29 32  0  0  0  0  0  0  0  0999 V2000
   53.5861   -3.5925   -9.2401 C   0  0  0  0  0  0  0  0  0  0  0  0
   52.6149   -2.6438   -9.5057 N   0  0  0  0  0  0  0  0  0  0  0  0
   51.5738   -2.3958   -8.7482 C   0  0  0  0  0  0  0  0  0  0  0  0
   51.4241   -3.1538   -7.5623 C   0  0  0  0  0  0  0  0  0  0  0  0
   50.2858   -2.8674   -6.6992 C   0  0  0  0  0  0  0  0  0  0  0  0
   50.0438   -3.7364   -5.5400 C   0  0  0  0  0  0  0  0  0  0  0  0
   51.1283   -4.6999   -5.2592 C   0  0  0  0  0  0  0  0  0  0  0  0
   51.2407   -5.5728   -4.1606 C   0  0  0  0  0  0  0  0  0  0  0  0
   52.3677   -6.2420   -4.3653 N   0  0  0  0  0  0  0  0  0  0  0  0
   52.9636   -5.8568   -5.4986 N   0  0  0  0  0  0  0  0  0  0  0  0
   54.2169   -6.3776   -6.0076 C   0  0  0  0  0  0  0  0  0  0  0  0
   52.2254   -4.9145   -6.0640 C   0  0  0  0  0  0  0  0  0  0  0  0
   52.3726   -4.0908   -7.2889 C   0  0  0  0  0  0  0  0  0  0  0  0
   53.4228   -4.2933   -8.1186 N   0  0  0  0  0  0  0  0  0  0  0  0
   50.3004   -5.6707   -3.0868 C   0  0  0  0  0  0  0  0  0  0  0  0
   50.5543   -6.2987   -1.8495 N   0  0  0  0  0  0  0  0  0  0  0  0
   49.1512   -5.1500   -3.2684 O   0  0  0  0  0  0  0  0  0  0  0  0
   50.9378   -5.7908   -1.0446 H   0  0  0  0  0  0  0  0  0  0  0  0
   50.3453   -7.3164   -1.7464 H   0  0  0  0  0  0  0  0  0  0  0  0
   54.6276   -3.6455  -10.1748 N   0  0  0  0  0  0  0  0  0  0  0  0
   54.3948   -3.2192  -11.1359 H   0  0  0  0  0  0  0  0  0  0  0  0
   56.7035   -4.2558  -11.1689 C   0  0  0  0  0  0  0  0  0  0  0  0
   57.9516   -4.8059  -11.1068 C   0  0  0  0  0  0  0  0  0  0  0  0
   58.4567   -5.3029   -9.9038 C   0  0  0  0  0  0  0  0  0  0  0  0
   57.7083   -5.2494   -8.7575 C   0  0  0  0  0  0  0  0  0  0  0  0
   56.4314   -4.6858   -8.8272 C   0  0  0  0  0  0  0  0  0  0  0  0
   55.9221   -4.1916  -10.0044 C   0  0  0  0  0  0  0  0  0  0  0  0
   56.9089   -3.9537  -13.5954 C   0  0  0  0  0  0  0  0  0  0  0  0
   56.2234   -3.7639  -12.3947 O   0  0  0  0  0  0  0  0  0  0  0  0
 28 29  1  0  0  0
 29 22  1  0  0  0
 22 23  2  0  0  0
 23 24  1  0  0  0
 24 25  2  0  0  0
 25 26  1  0  0  0
 26 27  2  0  0  0
 27 20  1  0  0  0
 20  1  1  0  0  0
  1  2  2  0  0  0
  2  3  1  0  0  0
  3  4  2  0  0  0
  4  5  1  0  0  0
  5  6  1  0  0  0
  6  7  1  0  0  0
  7  8  1  0  0  0
  8  9  2  0  0  0
  9 10  1  0  0  0
 10 11  1  0  0  0
 10 12  1  0  0  0
 12 13  1  0  0  0
 13 14  2  0  0  0
  8 15  1  0  0  0
 15 16  1  0  0  0
 15 17  2  0  0  0
 27 22  1  0  0  0
 14  1  1  0  0  0
 13  4  1  0  0  0
 12  7  2  0  0  0
 20 21  1  0  0  0
 16 18  1  0  0  0
 16 19  1  0  0  0
M  END
> <minimizedAffinity>
-10.90098

> <CNNscore>
0.9648352861

> <CNNaffinity>
7.3870835304

> <CNN_VS>
7.1273188591

> <CNNaffinity_variance>
0.0537947342

$$$$
[H]c1nc(N([H])c2c([H])c([H])c([H])c([H])c2OC([H])([H])[H])nc2c1C([H])([H])C([H])([H])c1c(C(=O)N([H])[H])nn(C([H])([H])[H])c1-2


 29 32  0  0  0  0  0  0  0  0999 V2000
   53.2693   -3.3974   -8.9806 C   0  0  0  0  0  0  0  0  0  0  0  0
   52.1895   -2.5437   -9.1180 N   0  0  0  0  0  0  0  0  0  0  0  0
   51.1807   -2.4614   -8.2844 C   0  0  0  0  0  0  0  0  0  0  0  0
   51.1894   -3.3091   -7.1510 C   0  0  0  0  0  0  0  0  0  0  0  0
   50.0872   -3.2061   -6.2037 C   0  0  0  0  0  0  0  0  0  0  0  0
   50.0140   -4.1721   -5.0996 C   0  0  0  0  0  0  0  0  0  0  0  0
   51.2089   -5.0292   -4.9549 C   0  0  0  0  0  0  0  0  0  0  0  0
   51.4838   -5.9566   -3.9323 C   0  0  0  0  0  0  0  0  0  0  0  0
   52.6581   -6.4846   -4.2516 N   0  0  0  0  0  0  0  0  0  0  0  0
   53.1345   -5.9620   -5.3864 N   0  0  0  0  0  0  0  0  0  0  0  0
   54.3986   -6.3087   -6.0052 C   0  0  0  0  0  0  0  0  0  0  0  0
   52.2666   -5.0692   -5.8364 C   0  0  0  0  0  0  0  0  0  0  0  0
   52.2460   -4.1541   -7.0037 C   0  0  0  0  0  0  0  0  0  0  0  0
   53.2544   -4.1856   -7.9063 N   0  0  0  0  0  0  0  0  0  0  0  0
   50.6320   -6.2276   -2.8153 C   0  0  0  0  0  0  0  0  0  0  0  0
   50.8579   -7.2382   -1.8574 N   0  0  0  0  0  0  0  0  0  0  0  0
   49.5950   -5.4985   -2.6820 O   0  0  0  0  0  0  0  0  0  0  0  0
   51.3962   -7.0714   -0.9999 H   0  0  0  0  0  0  0  0  0  0  0  0
   50.4641   -8.1906   -2.0245 H   0  0  0  0  0  0  0  0  0  0  0  0
   54.2465   -3.2745   -9.9762 N   0  0  0  0  0  0  0  0  0  0  0  0
   54.0063   -2.5787  -10.7622 H   0  0  0  0  0  0  0  0  0  0  0  0
   56.2170   -4.0284   -8.8723 C   0  0  0  0  0  0  0  0  0  0  0  0
   57.4427   -4.6299   -8.8757 C   0  0  0  0  0  0  0  0  0  0  0  0
   57.9735   -5.1684  -10.0495 C   0  0  0  0  0  0  0  0  0  0  0  0
   57.2738   -5.1038  -11.2256 C   0  0  0  0  0  0  0  0  0  0  0  0
   56.0202   -4.4864  -11.2161 C   0  0  0  0  0  0  0  0  0  0  0  0
   55.4850   -3.9533  -10.0678 C   0  0  0  0  0  0  0  0  0  0  0  0
   56.4482   -3.4862   -6.4903 C   0  0  0  0  0  0  0  0  0  0  0  0
   55.7099   -3.4962   -7.6745 O   0  0  0  0  0  0  0  0  0  0  0  0
 28 29  1  0  0  0
 29 22  1  0  0  0
 22 23  2  0  0  0
 23 24  1  0  0  0
 24 25  2  0  0  0
 25 26  1  0  0  0
 26 27  2  0  0  0
 27 20  1  0  0  0
 20  1  1  0  0  0
  1  2  2  0  0  0
  2  3  1  0  0  0
  3  4  2  0  0  0
  4  5  1  0  0  0
  5  6  1  0  0  0
  6  7  1  0  0  0
  7  8  1  0  0  0
  8  9  2  0  0  0
  9 10  1  0  0  0
 10 11  1  0  0  0
 10 12  1  0  0  0
 12 13  1  0  0  0
 13 14  2  0  0  0
  8 15  1  0  0  0
 15 16  1  0  0  0
 15 17  2  0  0  0
 27 22  1  0  0  0
 14  1  1  0  0  0
 13  4  1  0  0  0
 12  7  2  0  0  0
 20 21  1  0  0  0
 16 18  1  0  0  0
 16 19  1  0  0  0
M  END
> <minimizedAffinity>
-9.90220

> <CNNscore>
0.9014561772

> <CNNaffinity>
7.2563109398

> <CNN_VS>
6.5412464142

> <CNNaffinity_variance>
0.2328086793

$$$$
[H]c1nc(N([H])c2c([H])c([H])c([H])c([H])c2OC([H])([H])[H])nc2c1C([H])([H])C([H])([H])c1c(C(=O)N([H])[H])nn(C([H])([H])[H])c1-2


 29 32  0  0  0  0  0  0  0  0999 V2000
   53.8486   -3.5959   -9.2702 C   0  0  0  0  0  0  0  0  0  0  0  0
   52.9592   -2.6001   -9.6323 N   0  0  0  0  0  0  0  0  0  0  0  0
   51.8710   -2.2829   -8.9733 C   0  0  0  0  0  0  0  0  0  0  0  0
   51.5752   -3.0115   -7.7965 C   0  0  0  0  0  0  0  0  0  0  0  0
   50.3832   -2.6488   -7.0414 C   0  0  0  0  0  0  0  0  0  0  0  0
   49.9918   -3.4838   -5.8980 C   0  0  0  0  0  0  0  0  0  0  0  0
   50.9917   -4.5002   -5.5105 C   0  0  0  0  0  0  0  0  0  0  0  0
   50.9579   -5.3594   -4.3960 C   0  0  0  0  0  0  0  0  0  0  0  0
   52.0594   -6.0926   -4.4918 N   0  0  0  0  0  0  0  0  0  0  0  0
   52.7734   -5.7596   -5.5721 N   0  0  0  0  0  0  0  0  0  0  0  0
   54.0355   -6.3567   -5.9615 C   0  0  0  0  0  0  0  0  0  0  0  0
   52.1417   -4.7879   -6.2121 C   0  0  0  0  0  0  0  0  0  0  0  0
   52.4420   -3.9942   -7.4288 C   0  0  0  0  0  0  0  0  0  0  0  0
   53.5483   -4.2678   -8.1594 N   0  0  0  0  0  0  0  0  0  0  0  0
   49.9228   -5.3876   -3.4090 C   0  0  0  0  0  0  0  0  0  0  0  0
   48.7082   -4.6755   -3.4958 N   0  0  0  0  0  0  0  0  0  0  0  0
   50.1191   -6.1114   -2.3782 O   0  0  0  0  0  0  0  0  0  0  0  0
   47.8677   -5.0743   -3.9287 H   0  0  0  0  0  0  0  0  0  0  0  0
   48.6602   -3.7079   -3.1065 H   0  0  0  0  0  0  0  0  0  0  0  0
   54.9638   -3.7214  -10.1079 N   0  0  0  0  0  0  0  0  0  0  0  0
   54.8531   -3.2694  -11.0790 H   0  0  0  0  0  0  0  0  0  0  0  0
   56.6386   -4.2623   -8.5040 C   0  0  0  0  0  0  0  0  0  0  0  0
   57.8342   -4.8216   -8.1549 C   0  0  0  0  0  0  0  0  0  0  0  0
   58.6132   -5.4947   -9.0981 C   0  0  0  0  0  0  0  0  0  0  0  0
   58.1933   -5.6078  -10.3972 C   0  0  0  0  0  0  0  0  0  0  0  0
   56.9691   -5.0329  -10.7489 C   0  0  0  0  0  0  0  0  0  0  0  0
   56.1915   -4.3686   -9.8305 C   0  0  0  0  0  0  0  0  0  0  0  0
   56.3076   -3.4527   -6.2114 C   0  0  0  0  0  0  0  0  0  0  0  0
   55.8773   -3.5915   -7.5317 O   0  0  0  0  0  0  0  0  0  0  0  0
 28 29  1  0  0  0
 29 22  1  0  0  0
 22 23  2  0  0  0
 23 24  1  0  0  0
 24 25  2  0  0  0
 25 26  1  0  0  0
 26 27  2  0  0  0
 27 20  1  0  0  0
 20  1  1  0  0  0
  1  2  2  0  0  0
  2  3  1  0  0  0
  3  4  2  0  0  0
  4  5  1  0  0  0
  5  6  1  0  0  0
  6  7  1  0  0  0
  7  8  1  0  0  0
  8  9  2  0  0  0
  9 10  1  0  0  0
 10 11  1  0  0  0
 10 12  1  0  0  0
 12 13  1  0  0  0
 13 14  2  0  0  0
  8 15  1  0  0  0
 15 16  1  0  0  0
 15 17  2  0  0  0
 27 22  1  0  0  0
 14  1  1  0  0  0
 13  4  1  0  0  0
 12  7  2  0  0  0
 20 21  1  0  0  0
 16 18  1  0  0  0
 16 19  1  0  0  0
M  END
> <minimizedAffinity>
-10.14777

> <CNNscore>
0.8095441461

> <CNNaffinity>
7.1162514687

> <CNN_VS>
5.7609195709

> <CNNaffinity_variance>
0.2118916214

$$$$
[H]c1nc(N([H])c2c([H])c([H])c([H])c([H])c2OC([H])([H])[H])nc2c1C([H])([H])C([H])([H])c1c(C(=O)N([H])[H])nn(C([H])([H])[H])c1-2


 29 32  0  0  0  0  0  0  0  0999 V2000
   54.2979   -4.2330   -8.4811 C   0  0  0  0  0  0  0  0  0  0  0  0
   53.8283   -3.2019   -9.2749 N   0  0  0  0  0  0  0  0  0  0  0  0
   52.7050   -2.5530   -9.0842 C   0  0  0  0  0  0  0  0  0  0  0  0
   51.9033   -2.9304   -7.9804 C   0  0  0  0  0  0  0  0  0  0  0  0
   50.6667   -2.1974   -7.7430 C   0  0  0  0  0  0  0  0  0  0  0  0
   49.7607   -2.6669   -6.6864 C   0  0  0  0  0  0  0  0  0  0  0  0
   50.3198   -3.7319   -5.8282 C   0  0  0  0  0  0  0  0  0  0  0  0
   49.7464   -4.2955   -4.6727 C   0  0  0  0  0  0  0  0  0  0  0  0
   50.6123   -5.2172   -4.2721 N   0  0  0  0  0  0  0  0  0  0  0  0
   51.6747   -5.2720   -5.0822 N   0  0  0  0  0  0  0  0  0  0  0  0
   52.8097   -6.1589   -4.9202 C   0  0  0  0  0  0  0  0  0  0  0  0
   51.5198   -4.3734   -6.0420 C   0  0  0  0  0  0  0  0  0  0  0  0
   52.3536   -3.9436   -7.1912 C   0  0  0  0  0  0  0  0  0  0  0  0
   53.5255   -4.5703   -7.4491 N   0  0  0  0  0  0  0  0  0  0  0  0
   48.4900   -3.9125   -4.1059 C   0  0  0  0  0  0  0  0  0  0  0  0
   47.7049   -2.8273   -4.5485 N   0  0  0  0  0  0  0  0  0  0  0  0
   48.0543   -4.6069   -3.1299 O   0  0  0  0  0  0  0  0  0  0  0  0
   46.9854   -2.9296   -5.2729 H   0  0  0  0  0  0  0  0  0  0  0  0
   47.8592   -1.8854   -4.1252 H   0  0  0  0  0  0  0  0  0  0  0  0
   55.5461   -4.7438   -8.8583 N   0  0  0  0  0  0  0  0  0  0  0  0
   56.0395   -5.3343   -8.1049 H   0  0  0  0  0  0  0  0  0  0  0  0
   57.5820   -4.9142  -10.0814 C   0  0  0  0  0  0  0  0  0  0  0  0
   58.3230   -4.7393  -11.2148 C   0  0  0  0  0  0  0  0  0  0  0  0
   57.7450   -4.2231  -12.3763 C   0  0  0  0  0  0  0  0  0  0  0  0
   56.4190   -3.8798  -12.4027 C   0  0  0  0  0  0  0  0  0  0  0  0
   55.6658   -4.0604  -11.2396 C   0  0  0  0  0  0  0  0  0  0  0  0
   56.2214   -4.5687  -10.0896 C   0  0  0  0  0  0  0  0  0  0  0  0
   59.5481   -5.7657   -8.8852 C   0  0  0  0  0  0  0  0  0  0  0  0
   58.1926   -5.4363   -8.9283 O   0  0  0  0  0  0  0  0  0  0  0  0
 28 29  1  0  0  0
 29 22  1  0  0  0
 22 23  2  0  0  0
 23 24  1  0  0  0
 24 25  2  0  0  0
 25 26  1  0  0  0
 26 27  2  0  0  0
 27 20  1  0  0  0
 20  1  1  0  0  0
  1  2  2  0  0  0
  2  3  1  0  0  0
  3  4  2  0  0  0
  4  5  1  0  0  0
  5  6  1  0  0  0
  6  7  1  0  0  0
  7  8  1  0  0  0
  8  9  2  0  0  0
  9 10  1  0  0  0
 10 11  1  0  0  0
 10 12  1  0  0  0
 12 13  1  0  0  0
 13 14  2  0  0  0
  8 15  1  0  0  0
 15 16  1  0  0  0
 15 17  2  0  0  0
 27 22  1  0  0  0
 14  1  1  0  0  0
 13  4  1  0  0  0
 12  7  2  0  0  0
 20 21  1  0  0  0
 16 18  1  0  0  0
 16 19  1  0  0  0
M  END
> <minimizedAffinity>
-10.00451

> <CNNscore>
0.7670533657

> <CNNaffinity>
7.2184081078

> <CNN_VS>
5.5369043350

> <CNNaffinity_variance>
0.2169324607

$$$$
[H]c1nc(N([H])c2c([H])c([H])c([H])c([H])c2OC([H])([H])[H])nc2c1C([H])([H])C([H])([H])c1c(C(=O)N([H])[H])nn(C([H])([H])[H])c1-2


 29 32  0  0  0  0  0  0  0  0999 V2000
   54.4141   -4.6041   -8.2975 C   0  0  0  0  0  0  0  0  0  0  0  0
   54.7541   -5.7237   -7.5594 N   0  0  0  0  0  0  0  0  0  0  0  0
   54.0561   -6.2119   -6.5625 C   0  0  0  0  0  0  0  0  0  0  0  0
   52.8580   -5.5474   -6.2070 C   0  0  0  0  0  0  0  0  0  0  0  0
   52.0605   -6.0976   -5.1189 C   0  0  0  0  0  0  0  0  0  0  0  0
   50.8904   -5.3428   -4.6510 C   0  0  0  0  0  0  0  0  0  0  0  0
   50.5294   -4.1858   -5.4960 C   0  0  0  0  0  0  0  0  0  0  0  0
   49.4023   -3.3510   -5.3761 C   0  0  0  0  0  0  0  0  0  0  0  0
   49.5322   -2.4542   -6.3449 N   0  0  0  0  0  0  0  0  0  0  0  0
   50.6452   -2.6632   -7.0558 N   0  0  0  0  0  0  0  0  0  0  0  0
   51.0769   -1.8736   -8.1920 C   0  0  0  0  0  0  0  0  0  0  0  0
   51.2728   -3.7167   -6.5565 C   0  0  0  0  0  0  0  0  0  0  0  0
   52.5118   -4.4443   -6.9251 C   0  0  0  0  0  0  0  0  0  0  0  0
   53.2827   -3.9958   -7.9434 N   0  0  0  0  0  0  0  0  0  0  0  0
   48.3738   -3.4922   -4.3918 C   0  0  0  0  0  0  0  0  0  0  0  0
   48.3234   -4.5150   -3.4215 N   0  0  0  0  0  0  0  0  0  0  0  0
   47.4377   -2.6271   -4.3978 O   0  0  0  0  0  0  0  0  0  0  0  0
   48.7542   -4.4151   -2.4957 H   0  0  0  0  0  0  0  0  0  0  0  0
   47.8305   -5.4063   -3.6513 H   0  0  0  0  0  0  0  0  0  0  0  0
   55.2945   -4.2996   -9.3432 N   0  0  0  0  0  0  0  0  0  0  0  0
   54.8700   -3.7022  -10.1322 H   0  0  0  0  0  0  0  0  0  0  0  0
   57.1907   -4.5265  -10.7655 C   0  0  0  0  0  0  0  0  0  0  0  0
   58.4791   -4.9125  -11.0005 C   0  0  0  0  0  0  0  0  0  0  0  0
   59.2597   -5.4622   -9.9818 C   0  0  0  0  0  0  0  0  0  0  0  0
   58.7476   -5.6268   -8.7218 C   0  0  0  0  0  0  0  0  0  0  0  0
   57.4282   -5.2306   -8.4873 C   0  0  0  0  0  0  0  0  0  0  0  0
   56.6488   -4.6869   -9.4804 C   0  0  0  0  0  0  0  0  0  0  0  0
   56.5122   -4.4484  -13.1224 C   0  0  0  0  0  0  0  0  0  0  0  0
   56.4306   -3.9762  -11.8116 O   0  0  0  0  0  0  0  0  0  0  0  0
 28 29  1  0  0  0
 29 22  1  0  0  0
 22 23  2  0  0  0
 23 24  1  0  0  0
 24 25  2  0  0  0
 25 26  1  0  0  0
 26 27  2  0  0  0
 27 20  1  0  0  0
 20  1  1  0  0  0
  1  2  2  0  0  0
  2  3  1  0  0  0
  3  4  2  0  0  0
  4  5  1  0  0  0
  5  6  1  0  0  0
  6  7  1  0  0  0
  7  8  1  0  0  0
  8  9  2  0  0  0
  9 10  1  0  0  0
 10 11  1  0  0  0
 10 12  1  0  0  0
 12 13  1  0  0  0
 13 14  2  0  0  0
  8 15  1  0  0  0
 15 16  1  0  0  0
 15 17  2  0  0  0
 27 22  1  0  0  0
 14  1  1  0  0  0
 13  4  1  0  0  0
 12  7  2  0  0  0
 20 21  1  0  0  0
 16 18  1  0  0  0
 16 19  1  0  0  0
M  END
> <minimizedAffinity>
-9.29501

> <CNNscore>
0.7162675858

> <CNNaffinity>
7.2116823196

> <CNN_VS>
5.1654944420

> <CNNaffinity_variance>
0.2654669881

$$$$
[H]c1nc(N([H])c2c([H])c([H])c([H])c([H])c2OC([H])([H])[H])nc2c1C([H])([H])C([H])([H])c1c(C(=O)N([H])[H])nn(C([H])([H])[H])c1-2


 29 32  0  0  0  0  0  0  0  0999 V2000
   53.2533   -4.8371   -7.2132 C   0  0  0  0  0  0  0  0  0  0  0  0
   53.0342   -3.8388   -8.1455 N   0  0  0  0  0  0  0  0  0  0  0  0
   51.9952   -3.0392   -8.1660 C   0  0  0  0  0  0  0  0  0  0  0  0
   51.0155   -3.2029   -7.1578 C   0  0  0  0  0  0  0  0  0  0  0  0
   49.8708   -2.3016   -7.1549 C   0  0  0  0  0  0  0  0  0  0  0  0
   48.7820   -2.5479   -6.2001 C   0  0  0  0  0  0  0  0  0  0  0  0
   49.0762   -3.5845   -5.1891 C   0  0  0  0  0  0  0  0  0  0  0  0
   48.2887   -3.9555   -4.0829 C   0  0  0  0  0  0  0  0  0  0  0  0
   48.9622   -4.9340   -3.4923 N   0  0  0  0  0  0  0  0  0  0  0  0
   50.1014   -5.2006   -4.1396 N   0  0  0  0  0  0  0  0  0  0  0  0
   51.0744   -6.2018   -3.7500 C   0  0  0  0  0  0  0  0  0  0  0  0
   50.1945   -4.3886   -5.1812 C   0  0  0  0  0  0  0  0  0  0  0  0
   51.2187   -4.1817   -6.2341 C   0  0  0  0  0  0  0  0  0  0  0  0
   52.3170   -4.9720   -6.2748 N   0  0  0  0  0  0  0  0  0  0  0  0
   47.0347   -3.3646   -3.7293 C   0  0  0  0  0  0  0  0  0  0  0  0
   45.9820   -4.0403   -3.0773 N   0  0  0  0  0  0  0  0  0  0  0  0
   46.8630   -2.1375   -4.0284 O   0  0  0  0  0  0  0  0  0  0  0  0
   45.8960   -4.0660   -2.0552 H   0  0  0  0  0  0  0  0  0  0  0  0
   45.2634   -4.5324   -3.6532 H   0  0  0  0  0  0  0  0  0  0  0  0
   54.4576   -5.5344   -7.3704 N   0  0  0  0  0  0  0  0  0  0  0  0
   54.5371   -6.4366   -6.7878 H   0  0  0  0  0  0  0  0  0  0  0  0
   56.8234   -5.4112   -7.6109 C   0  0  0  0  0  0  0  0  0  0  0  0
   57.9455   -5.0698   -8.3098 C   0  0  0  0  0  0  0  0  0  0  0  0
   57.8525   -4.5059   -9.5838 C   0  0  0  0  0  0  0  0  0  0  0  0
   56.6301   -4.2823  -10.1603 C   0  0  0  0  0  0  0  0  0  0  0  0
   55.4851   -4.6330   -9.4400 C   0  0  0  0  0  0  0  0  0  0  0  0
   55.5619   -5.1901   -8.1858 C   0  0  0  0  0  0  0  0  0  0  0  0
   56.3768   -5.3976   -5.1981 C   0  0  0  0  0  0  0  0  0  0  0  0
   56.9500   -5.9773   -6.3309 O   0  0  0  0  0  0  0  0  0  0  0  0
 28 29  1  0  0  0
 29 22  1  0  0  0
 22 23  2  0  0  0
 23 24  1  0  0  0
 24 25  2  0  0  0
 25 26  1  0  0  0
 26 27  2  0  0  0
 27 20  1  0  0  0
 20  1  1  0  0  0
  1  2  2  0  0  0
  2  3  1  0  0  0
  3  4  2  0  0  0
  4  5  1  0  0  0
  5  6  1  0  0  0
  6  7  1  0  0  0
  7  8  1  0  0  0
  8  9  2  0  0  0
  9 10  1  0  0  0
 10 11  1  0  0  0
 10 12  1  0  0  0
 12 13  1  0  0  0
 13 14  2  0  0  0
  8 15  1  0  0  0
 15 16  1  0  0  0
 15 17  2  0  0  0
 27 22  1  0  0  0
 14  1  1  0  0  0
 13  4  1  0  0  0
 12  7  2  0  0  0
 20 21  1  0  0  0
 16 18  1  0  0  0
 16 19  1  0  0  0
M  END
> <minimizedAffinity>
-9.16396

> <CNNscore>
0.6270459890

> <CNNaffinity>
7.1360778809

> <CNN_VS>
4.4746489525

> <CNNaffinity_variance>
0.2663815022

$$$$
[H]c1nc(N([H])c2c([H])c([H])c([H])c([H])c2OC([H])([H])[H])nc2c1C([H])([H])C([H])([H])c1c(C(=O)N([H])[H])nn(C([H])([H])[H])c1-2


 29 32  0  0  0  0  0  0  0  0999 V2000
   53.1500   -4.9414   -6.9175 C   0  0  0  0  0  0  0  0  0  0  0  0
   52.9390   -3.9874   -7.8969 N   0  0  0  0  0  0  0  0  0  0  0  0
   51.8941   -3.1988   -7.9708 C   0  0  0  0  0  0  0  0  0  0  0  0
   50.8983   -3.3263   -6.9730 C   0  0  0  0  0  0  0  0  0  0  0  0
   49.7465   -2.4359   -7.0297 C   0  0  0  0  0  0  0  0  0  0  0  0
   48.6433   -2.6493   -6.0835 C   0  0  0  0  0  0  0  0  0  0  0  0
   48.9283   -3.6373   -5.0225 C   0  0  0  0  0  0  0  0  0  0  0  0
   48.1248   -3.9657   -3.9143 C   0  0  0  0  0  0  0  0  0  0  0  0
   48.7959   -4.9110   -3.2694 N   0  0  0  0  0  0  0  0  0  0  0  0
   49.9483   -5.1959   -3.8847 N   0  0  0  0  0  0  0  0  0  0  0  0
   50.9225   -6.1701   -3.4343 C   0  0  0  0  0  0  0  0  0  0  0  0
   50.0528   -4.4303   -4.9597 C   0  0  0  0  0  0  0  0  0  0  0  0
   51.0934   -4.2612   -6.0033 C   0  0  0  0  0  0  0  0  0  0  0  0
   52.1986   -5.0427   -5.9901 N   0  0  0  0  0  0  0  0  0  0  0  0
   46.8601   -3.3709   -3.6088 C   0  0  0  0  0  0  0  0  0  0  0  0
   45.7772   -4.0463   -3.0080 N   0  0  0  0  0  0  0  0  0  0  0  0
   46.7077   -2.1403   -3.9039 O   0  0  0  0  0  0  0  0  0  0  0  0
   45.6478   -4.0805   -1.9906 H   0  0  0  0  0  0  0  0  0  0  0  0
   45.0810   -4.5294   -3.6180 H   0  0  0  0  0  0  0  0  0  0  0  0
   54.3625   -5.6342   -7.0229 N   0  0  0  0  0  0  0  0  0  0  0  0
   54.6509   -5.8904   -8.0283 H   0  0  0  0  0  0  0  0  0  0  0  0
   56.5870   -6.1189   -6.3254 C   0  0  0  0  0  0  0  0  0  0  0  0
   57.4910   -6.5362   -5.3911 C   0  0  0  0  0  0  0  0  0  0  0  0
   57.0820   -6.8776   -4.1005 C   0  0  0  0  0  0  0  0  0  0  0  0
   55.7615   -6.8014   -3.7439 C   0  0  0  0  0  0  0  0  0  0  0  0
   54.8407   -6.3743   -4.7044 C   0  0  0  0  0  0  0  0  0  0  0  0
   55.2294   -6.0339   -5.9781 C   0  0  0  0  0  0  0  0  0  0  0  0
   57.7267   -4.6024   -7.8819 C   0  0  0  0  0  0  0  0  0  0  0  0
   57.0299   -5.7819   -7.6158 O   0  0  0  0  0  0  0  0  0  0  0  0
 28 29  1  0  0  0
 29 22  1  0  0  0
 22 23  2  0  0  0
 23 24  1  0  0  0
 24 25  2  0  0  0
 25 26  1  0  0  0
 26 27  2  0  0  0
 27 20  1  0  0  0
 20  1  1  0  0  0
  1  2  2  0  0  0
  2  3  1  0  0  0
  3  4  2  0  0  0
  4  5  1  0  0  0
  5  6  1  0  0  0
  6  7  1  0  0  0
  7  8  1  0  0  0
  8  9  2  0  0  0
  9 10  1  0  0  0
 10 11  1  0  0  0
 10 12  1  0  0  0
 12 13  1  0  0  0
 13 14  2  0  0  0
  8 15  1  0  0  0
 15 16  1  0  0  0
 15 17  2  0  0  0
 27 22  1  0  0  0
 14  1  1  0  0  0
 13  4  1  0  0  0
 12  7  2  0  0  0
 20 21  1  0  0  0
 16 18  1  0  0  0
 16 19  1  0  0  0
M  END
> <minimizedAffinity>
-7.47800

> <CNNscore>
0.6053761840

> <CNNaffinity>
7.0427255630

> <CNN_VS>
4.2634983063

> <CNNaffinity_variance>
0.2169545144

$$$$
[H]c1nc(N([H])c2c([H])c([H])c([H])c([H])c2OC([H])([H])[H])nc2c1C([H])([H])C([H])([H])c1c(C(=O)N([H])[H])nn(C([H])([H])[H])c1-2


 29 32  0  0  0  0  0  0  0  0999 V2000
   55.9767   -5.5113   -7.4184 C   0  0  0  0  0  0  0  0  0  0  0  0
   55.8027   -6.4697   -6.4361 N   0  0  0  0  0  0  0  0  0  0  0  0
   54.7082   -6.6432   -5.7353 C   0  0  0  0  0  0  0  0  0  0  0  0
   53.6125   -5.7868   -5.9986 C   0  0  0  0  0  0  0  0  0  0  0  0
   52.3820   -5.9889   -5.2451 C   0  0  0  0  0  0  0  0  0  0  0  0
   51.2875   -5.0232   -5.4103 C   0  0  0  0  0  0  0  0  0  0  0  0
   51.4887   -4.0499   -6.5037 C   0  0  0  0  0  0  0  0  0  0  0  0
   50.5766   -3.0888   -6.9788 C   0  0  0  0  0  0  0  0  0  0  0  0
   51.2210   -2.4499   -7.9465 N   0  0  0  0  0  0  0  0  0  0  0  0
   52.4562   -2.9346   -8.1113 N   0  0  0  0  0  0  0  0  0  0  0  0
   53.4167   -2.4704   -9.0926 C   0  0  0  0  0  0  0  0  0  0  0  0
   52.6445   -3.9142   -7.2407 C   0  0  0  0  0  0  0  0  0  0  0  0
   53.7702   -4.8392   -6.9627 C   0  0  0  0  0  0  0  0  0  0  0  0
   54.9316   -4.7171   -7.6474 N   0  0  0  0  0  0  0  0  0  0  0  0
   49.2514   -2.8922   -6.4770 C   0  0  0  0  0  0  0  0  0  0  0  0
   48.9103   -2.8249   -5.1099 N   0  0  0  0  0  0  0  0  0  0  0  0
   48.3154   -2.7694   -7.3335 O   0  0  0  0  0  0  0  0  0  0  0  0
   48.8956   -1.9401   -4.5905 H   0  0  0  0  0  0  0  0  0  0  0  0
   48.6634   -3.7056   -4.6062 H   0  0  0  0  0  0  0  0  0  0  0  0
   57.2206   -5.5469   -8.0610 N   0  0  0  0  0  0  0  0  0  0  0  0
   58.0210   -5.9647   -7.4741 H   0  0  0  0  0  0  0  0  0  0  0  0
   58.7653   -5.5548   -9.8731 C   0  0  0  0  0  0  0  0  0  0  0  0
   59.1734   -5.1394  -11.1081 C   0  0  0  0  0  0  0  0  0  0  0  0
   58.3881   -4.2697  -11.8673 C   0  0  0  0  0  0  0  0  0  0  0  0
   57.1889   -3.8132  -11.3874 C   0  0  0  0  0  0  0  0  0  0  0  0
   56.7767   -4.2412  -10.1226 C   0  0  0  0  0  0  0  0  0  0  0  0
   57.5390   -5.0982   -9.3649 C   0  0  0  0  0  0  0  0  0  0  0  0
   60.9693   -6.3227   -9.1152 C   0  0  0  0  0  0  0  0  0  0  0  0
   59.5780   -6.4308   -9.1333 O   0  0  0  0  0  0  0  0  0  0  0  0
 28 29  1  0  0  0
 29 22  1  0  0  0
 22 23  2  0  0  0
 23 24  1  0  0  0
 24 25  2  0  0  0
 25 26  1  0  0  0
 26 27  2  0  0  0
 27 20  1  0  0  0
 20  1  1  0  0  0
  1  2  2  0  0  0
  2  3  1  0  0  0
  3  4  2  0  0  0
  4  5  1  0  0  0
  5  6  1  0  0  0
  6  7  1  0  0  0
  7  8  1  0  0  0
  8  9  2  0  0  0
  9 10  1  0  0  0
 10 11  1  0  0  0
 10 12  1  0  0  0
 12 13  1  0  0  0
 13 14  2  0  0  0
  8 15  1  0  0  0
 15 16  1  0  0  0
 15 17  2  0  0  0
 27 22  1  0  0  0
 14  1  1  0  0  0
 13  4  1  0  0  0
 12  7  2  0  0  0
 20 21  1  0  0  0
 16 18  1  0  0  0
 16 19  1  0  0  0
M  END
> <minimizedAffinity>
-8.00974

> <CNNscore>
0.5634356737

> <CNNaffinity>
6.8308868408

> <CNN_VS>
3.8487653732

> <CNNaffinity_variance>
0.2725924253

$$$$
[H]c1nc(N([H])c2c([H])c([H])c([H])c([H])c2OC([H])([H])[H])nc2c1C([H])([H])C([H])([H])c1c(C(=O)N([H])[H])nn(C([H])([H])[H])c1-2


 29 32  0  0  0  0  0  0  0  0999 V2000
   52.5975   -3.7585   -7.8039 C   0  0  0  0  0  0  0  0  0  0  0  0
   52.3991   -3.3158   -9.0994 N   0  0  0  0  0  0  0  0  0  0  0  0
   53.2920   -3.3618  -10.0585 C   0  0  0  0  0  0  0  0  0  0  0  0
   54.5621   -3.9066   -9.7532 C   0  0  0  0  0  0  0  0  0  0  0  0
   55.5524   -3.9880  -10.8188 C   0  0  0  0  0  0  0  0  0  0  0  0
   56.9148   -4.4227  -10.4833 C   0  0  0  0  0  0  0  0  0  0  0  0
   57.0726   -4.9372   -9.1072 C   0  0  0  0  0  0  0  0  0  0  0  0
   58.2144   -5.5301   -8.5359 C   0  0  0  0  0  0  0  0  0  0  0  0
   57.8709   -5.8054   -7.2845 N   0  0  0  0  0  0  0  0  0  0  0  0
   56.6117   -5.4332   -7.0322 N   0  0  0  0  0  0  0  0  0  0  0  0
   55.9225   -5.6041   -5.7685 C   0  0  0  0  0  0  0  0  0  0  0  0
   56.1015   -4.8994   -8.1311 C   0  0  0  0  0  0  0  0  0  0  0  0
   54.7707   -4.3459   -8.4821 C   0  0  0  0  0  0  0  0  0  0  0  0
   53.8010   -4.2665   -7.5410 N   0  0  0  0  0  0  0  0  0  0  0  0
   59.4531   -5.7548   -9.2154 C   0  0  0  0  0  0  0  0  0  0  0  0
   60.6213   -6.2652   -8.6115 N   0  0  0  0  0  0  0  0  0  0  0  0
   59.4972   -5.4710  -10.4573 O   0  0  0  0  0  0  0  0  0  0  0  0
   60.8260   -7.2699   -8.5742 H   0  0  0  0  0  0  0  0  0  0  0  0
   61.3036   -5.5988   -8.1866 H   0  0  0  0  0  0  0  0  0  0  0  0
   51.4808   -3.6457   -6.9664 N   0  0  0  0  0  0  0  0  0  0  0  0
   50.7779   -2.8809   -7.2505 H   0  0  0  0  0  0  0  0  0  0  0  0
   50.0414   -3.9911   -5.1012 C   0  0  0  0  0  0  0  0  0  0  0  0
   49.7000   -4.6383   -3.9485 C   0  0  0  0  0  0  0  0  0  0  0  0
   50.4693   -5.6997   -3.4678 C   0  0  0  0  0  0  0  0  0  0  0  0
   51.5860   -6.1147   -4.1443 C   0  0  0  0  0  0  0  0  0  0  0  0
   51.9308   -5.4482   -5.3231 C   0  0  0  0  0  0  0  0  0  0  0  0
   51.1820   -4.4027   -5.8085 C   0  0  0  0  0  0  0  0  0  0  0  0
   48.1175   -2.4860   -4.8674 C   0  0  0  0  0  0  0  0  0  0  0  0
   49.2466   -2.9264   -5.5593 O   0  0  0  0  0  0  0  0  0  0  0  0
 28 29  1  0  0  0
 29 22  1  0  0  0
 22 23  2  0  0  0
 23 24  1  0  0  0
 24 25  2  0  0  0
 25 26  1  0  0  0
 26 27  2  0  0  0
 27 20  1  0  0  0
 20  1  1  0  0  0
  1  2  2  0  0  0
  2  3  1  0  0  0
  3  4  2  0  0  0
  4  5  1  0  0  0
  5  6  1  0  0  0
  6  7  1  0  0  0
  7  8  1  0  0  0
  8  9  2  0  0  0
  9 10  1  0  0  0
 10 11  1  0  0  0
 10 12  1  0  0  0
 12 13  1  0  0  0
 13 14  2  0  0  0
  8 15  1  0  0  0
 15 16  1  0  0  0
 15 17  2  0  0  0
 27 22  1  0  0  0
 14  1  1  0  0  0
 13  4  1  0  0  0
 12  7  2  0  0  0
 20 21  1  0  0  0
 16 18  1  0  0  0
 16 19  1  0  0  0
M  END
> <minimizedAffinity>
-9.13117

> <CNNscore>
0.5379573107

> <CNNaffinity>
6.8220567703

> <CNN_VS>
3.6699752808

> <CNNaffinity_variance>
0.1833323538

$$$$
[H]c1nc([H])c(-c2c([H])c([H])c3c(nc([H])n3-c3sc(C(=O)N([H])[H])c(O[C@@]([H])(c4c([H])c([H])c([H])c([H])c4C(F)(F)F)C([H])([H])[H])c3[H])c2[H])c([H])c1[H]


 38 42  0  0  0  0  0  0  0  0999 V2000
   57.1175   -4.6213  -11.3077 C   0  0  0  0  0  0  0  0  0  0  0  0
   55.8696   -4.1669  -11.0899 C   0  0  0  0  0  0  0  0  0  0  0  0
   55.4171   -4.1696   -9.7920 C   0  0  0  0  0  0  0  0  0  0  0  0
   56.7456   -4.8039   -8.9288 S   0  0  0  0  0  0  0  0  0  0  0  0
   57.8257   -5.0463  -10.2157 C   0  0  0  0  0  0  0  0  0  0  0  0
   54.1371   -3.7381   -9.3055 N   0  0  0  0  0  0  0  0  0  0  0  0
   53.3177   -2.8783   -9.8662 C   0  0  0  0  0  0  0  0  0  0  0  0
   52.1921   -2.7202   -9.1063 N   0  0  0  0  0  0  0  0  0  0  0  0
   52.3244   -3.5200   -8.0277 C   0  0  0  0  0  0  0  0  0  0  0  0
   51.5464   -3.7958   -6.9252 C   0  0  0  0  0  0  0  0  0  0  0  0
   51.9569   -4.6934   -5.9452 C   0  0  0  0  0  0  0  0  0  0  0  0
   53.1711   -5.2912   -6.1269 C   0  0  0  0  0  0  0  0  0  0  0  0
   54.0029   -5.0616   -7.2077 C   0  0  0  0  0  0  0  0  0  0  0  0
   53.5648   -4.1576   -8.1722 C   0  0  0  0  0  0  0  0  0  0  0  0
   51.1087   -4.9597   -4.7911 C   0  0  0  0  0  0  0  0  0  0  0  0
   49.8643   -4.3737   -4.7007 C   0  0  0  0  0  0  0  0  0  0  0  0
   49.1073   -4.6675   -3.5786 C   0  0  0  0  0  0  0  0  0  0  0  0
   49.6411   -5.5155   -2.6382 C   0  0  0  0  0  0  0  0  0  0  0  0
   50.8679   -6.0772   -2.7536 N   0  0  0  0  0  0  0  0  0  0  0  0
   51.6061   -5.8029   -3.8282 C   0  0  0  0  0  0  0  0  0  0  0  0
   59.2064   -5.5881  -10.1867 C   0  0  0  0  0  0  0  0  0  0  0  0
   59.6252   -6.4147   -9.1328 N   0  0  0  0  0  0  0  0  0  0  0  0
   59.9547   -5.2637  -11.1461 O   0  0  0  0  0  0  0  0  0  0  0  0
   60.0219   -7.3576   -9.2944 H   0  0  0  0  0  0  0  0  0  0  0  0
   59.5422   -6.0881   -8.1397 H   0  0  0  0  0  0  0  0  0  0  0  0
   57.7177   -4.6765  -12.5945 O   0  0  0  0  0  0  0  0  0  0  0  0
   56.2972   -5.3965  -14.3936 C   0  0  0  0  0  0  0  0  0  0  0  0
   57.1458   -4.2421  -13.7723 C   0  0  0  0  0  0  0  0  0  0  0  0
   57.9649   -3.6116  -14.7912 C   0  0  0  0  0  0  0  0  0  0  0  0
   59.3375   -3.5316  -14.5623 C   0  0  0  0  0  0  0  0  0  0  0  0
   60.2406   -2.9904  -15.4338 C   0  0  0  0  0  0  0  0  0  0  0  0
   59.7786   -2.4839  -16.6264 C   0  0  0  0  0  0  0  0  0  0  0  0
   58.4293   -2.5590  -16.8563 C   0  0  0  0  0  0  0  0  0  0  0  0
   57.5079   -3.1033  -15.9827 C   0  0  0  0  0  0  0  0  0  0  0  0
   56.1033   -3.0951  -16.3219 C   0  0  0  0  0  0  0  0  0  0  0  0
   55.8981   -2.0288  -17.2366 F   0  0  0  0  0  0  0  0  0  0  0  0
   55.6274   -4.1922  -16.9991 F   0  0  0  0  0  0  0  0  0  0  0  0
   55.2645   -2.6589  -15.3039 F   0  0  0  0  0  0  0  0  0  0  0  0
 27 28  1  0  0  0
 28 26  1  0  0  0
 26  1  1  0  0  0
  1  2  1  0  0  0
  2  3  2  0  0  0
  3  4  1  0  0  0
  4  5  1  0  0  0
  5 21  1  0  0  0
 21 22  1  0  0  0
 21 23  2  0  0  0
  3  6  1  0  0  0
  6  7  1  0  0  0
  7  8  2  0  0  0
  8  9  1  0  0  0
  9 10  2  0  0  0
 10 11  1  0  0  0
 11 12  2  0  0  0
 12 13  1  0  0  0
 13 14  2  0  0  0
 11 15  1  0  0  0
 15 16  2  0  0  0
 16 17  1  0  0  0
 17 18  2  0  0  0
 18 19  1  0  0  0
 19 20  2  0  0  0
 28 29  1  0  0  0
 29 30  2  0  0  0
 30 31  1  0  0  0
 31 32  2  0  0  0
 32 33  1  0  0  0
 33 34  2  0  0  0
 34 35  1  0  0  0
 35 36  1  0  0  0
 35 37  1  0  0  0
 35 38  1  0  0  0
  5  1  2  0  0  0
 14  6  1  0  0  0
 20 15  1  0  0  0
 34 29  1  0  0  0
 14  9  1  0  0  0
 22 24  1  0  0  0
 22 25  1  0  0  0
M  END
> <minimizedAffinity>
-8.93365

> <CNNscore>
0.6323860884

> <CNNaffinity>
7.3408365250

> <CNN_VS>
4.6422429085

> <CNNaffinity_variance>
0.1645499170

$$$$
[H]c1nc([H])c(-c2c([H])c([H])c3c(nc([H])n3-c3sc(C(=O)N([H])[H])c(O[C@@]([H])(c4c([H])c([H])c([H])c([H])c4C(F)(F)F)C([H])([H])[H])c3[H])c2[H])c([H])c1[H]


 38 42  0  0  0  0  0  0  0  0999 V2000
   52.8558   -4.0720   -7.5589 C   0  0  0  0  0  0  0  0  0  0  0  0
   54.0014   -4.4786   -8.1364 C   0  0  0  0  0  0  0  0  0  0  0  0
   54.3317   -3.9128   -9.3447 C   0  0  0  0  0  0  0  0  0  0  0  0
   53.0357   -2.8391   -9.6273 S   0  0  0  0  0  0  0  0  0  0  0  0
   52.1208   -3.1300   -8.2274 C   0  0  0  0  0  0  0  0  0  0  0  0
   55.4896   -4.1751  -10.1520 N   0  0  0  0  0  0  0  0  0  0  0  0
   55.6300   -3.9627  -11.4405 C   0  0  0  0  0  0  0  0  0  0  0  0
   56.8767   -4.3387  -11.8573 N   0  0  0  0  0  0  0  0  0  0  0  0
   57.5346   -4.8040  -10.7751 C   0  0  0  0  0  0  0  0  0  0  0  0
   58.7938   -5.3162  -10.5533 C   0  0  0  0  0  0  0  0  0  0  0  0
   59.2048   -5.7280   -9.2900 C   0  0  0  0  0  0  0  0  0  0  0  0
   58.2995   -5.6005   -8.2756 C   0  0  0  0  0  0  0  0  0  0  0  0
   57.0208   -5.0956   -8.4263 C   0  0  0  0  0  0  0  0  0  0  0  0
   56.6381   -4.6919   -9.7030 C   0  0  0  0  0  0  0  0  0  0  0  0
   60.5438   -6.2668   -9.0924 C   0  0  0  0  0  0  0  0  0  0  0  0
   60.9195   -6.7422   -7.8543 C   0  0  0  0  0  0  0  0  0  0  0  0
   62.2058   -7.2412   -7.7326 C   0  0  0  0  0  0  0  0  0  0  0  0
   63.0152   -7.2297   -8.8430 C   0  0  0  0  0  0  0  0  0  0  0  0
   62.6188   -6.7559  -10.0480 N   0  0  0  0  0  0  0  0  0  0  0  0
   61.3839   -6.2733  -10.1786 C   0  0  0  0  0  0  0  0  0  0  0  0
   50.8329   -2.5230   -7.8104 C   0  0  0  0  0  0  0  0  0  0  0  0
   49.7400   -3.3349   -7.4702 N   0  0  0  0  0  0  0  0  0  0  0  0
   50.7903   -1.2649   -7.7839 O   0  0  0  0  0  0  0  0  0  0  0  0
   49.2545   -3.2545   -6.5588 H   0  0  0  0  0  0  0  0  0  0  0  0
   49.3859   -4.0551   -8.1453 H   0  0  0  0  0  0  0  0  0  0  0  0
   52.3880   -4.5678   -6.3121 O   0  0  0  0  0  0  0  0  0  0  0  0
   50.9107   -6.4624   -6.2752 C   0  0  0  0  0  0  0  0  0  0  0  0
   52.3271   -5.8953   -5.9418 C   0  0  0  0  0  0  0  0  0  0  0  0
   52.7325   -6.2993   -4.6080 C   0  0  0  0  0  0  0  0  0  0  0  0
   51.7404   -6.4154   -3.6356 C   0  0  0  0  0  0  0  0  0  0  0  0
   51.9593   -6.8072   -2.3447 C   0  0  0  0  0  0  0  0  0  0  0  0
   53.2447   -7.1122   -1.9610 C   0  0  0  0  0  0  0  0  0  0  0  0
   54.2245   -6.9987   -2.9130 C   0  0  0  0  0  0  0  0  0  0  0  0
   54.0146   -6.6035   -4.2199 C   0  0  0  0  0  0  0  0  0  0  0  0
   55.1349   -6.4884   -5.1251 C   0  0  0  0  0  0  0  0  0  0  0  0
   56.2891   -6.9255   -4.4232 F   0  0  0  0  0  0  0  0  0  0  0  0
   55.1132   -7.2957   -6.2371 F   0  0  0  0  0  0  0  0  0  0  0  0
   55.5346   -5.1841   -5.3887 F   0  0  0  0  0  0  0  0  0  0  0  0
 27 28  1  0  0  0
 28 26  1  0  0  0
 26  1  1  0  0  0
  1  2  1  0  0  0
  2  3  2  0  0  0
  3  4  1  0  0  0
  4  5  1  0  0  0
  5 21  1  0  0  0
 21 22  1  0  0  0
 21 23  2  0  0  0
  3  6  1  0  0  0
  6  7  1  0  0  0
  7  8  2  0  0  0
  8  9  1  0  0  0
  9 10  2  0  0  0
 10 11  1  0  0  0
 11 12  2  0  0  0
 12 13  1  0  0  0
 13 14  2  0  0  0
 11 15  1  0  0  0
 15 16  2  0  0  0
 16 17  1  0  0  0
 17 18  2  0  0  0
 18 19  1  0  0  0
 19 20  2  0  0  0
 28 29  1  0  0  0
 29 30  2  0  0  0
 30 31  1  0  0  0
 31 32  2  0  0  0
 32 33  1  0  0  0
 33 34  2  0  0  0
 34 35  1  0  0  0
 35 36  1  0  0  0
 35 37  1  0  0  0
 35 38  1  0  0  0
  5  1  2  0  0  0
 14  6  1  0  0  0
 20 15  1  0  0  0
 34 29  1  0  0  0
 14  9  1  0  0  0
 22 24  1  0  0  0
 22 25  1  0  0  0
M  END
> <minimizedAffinity>
-8.85744

> <CNNscore>
0.5775212049

> <CNNaffinity>
7.7646064758

> <CNN_VS>
4.4842247963

> <CNNaffinity_variance>
0.2369067967

$$$$
[H]c1nc([H])c(-c2c([H])c([H])c3c(nc([H])n3-c3sc(C(=O)N([H])[H])c(O[C@@]([H])(c4c([H])c([H])c([H])c([H])c4C(F)(F)F)C([H])([H])[H])c3[H])c2[H])c([H])c1[H]


 38 42  0  0  0  0  0  0  0  0999 V2000
   57.4382   -4.8964  -10.7170 C   0  0  0  0  0  0  0  0  0  0  0  0
   56.2126   -4.3409  -10.7367 C   0  0  0  0  0  0  0  0  0  0  0  0
   55.5391   -4.2611   -9.5411 C   0  0  0  0  0  0  0  0  0  0  0  0
   56.6382   -4.9619   -8.4396 S   0  0  0  0  0  0  0  0  0  0  0  0
   57.9054   -5.3330   -9.5064 C   0  0  0  0  0  0  0  0  0  0  0  0
   54.2327   -3.7161   -9.3017 N   0  0  0  0  0  0  0  0  0  0  0  0
   53.5725   -2.8644  -10.0525 C   0  0  0  0  0  0  0  0  0  0  0  0
   52.3566   -2.5756   -9.4978 N   0  0  0  0  0  0  0  0  0  0  0  0
   52.2637   -3.2827   -8.3524 C   0  0  0  0  0  0  0  0  0  0  0  0
   51.3067   -3.4149   -7.3707 C   0  0  0  0  0  0  0  0  0  0  0  0
   51.4962   -4.2437   -6.2700 C   0  0  0  0  0  0  0  0  0  0  0  0
   52.6790   -4.9233   -6.2069 C   0  0  0  0  0  0  0  0  0  0  0  0
   53.6824   -4.8383   -7.1550 C   0  0  0  0  0  0  0  0  0  0  0  0
   53.4636   -4.0001   -8.2455 C   0  0  0  0  0  0  0  0  0  0  0  0
   50.4628   -4.3578   -5.2496 C   0  0  0  0  0  0  0  0  0  0  0  0
   49.4160   -3.4613   -5.2258 C   0  0  0  0  0  0  0  0  0  0  0  0
   48.4668   -3.6243   -4.2304 C   0  0  0  0  0  0  0  0  0  0  0  0
   48.6291   -4.6588   -3.3406 C   0  0  0  0  0  0  0  0  0  0  0  0
   49.6687   -5.5252   -3.3882 N   0  0  0  0  0  0  0  0  0  0  0  0
   50.5886   -5.3796   -4.3408 C   0  0  0  0  0  0  0  0  0  0  0  0
   59.2107   -5.9765   -9.2182 C   0  0  0  0  0  0  0  0  0  0  0  0
   59.5920   -7.1470   -9.8920 N   0  0  0  0  0  0  0  0  0  0  0  0
   59.9317   -5.4152   -8.3518 O   0  0  0  0  0  0  0  0  0  0  0  0
   60.4812   -7.2167  -10.4183 H   0  0  0  0  0  0  0  0  0  0  0  0
   58.9709   -7.9919   -9.8769 H   0  0  0  0  0  0  0  0  0  0  0  0
   58.2499   -5.0446  -11.8739 O   0  0  0  0  0  0  0  0  0  0  0  0
   58.7349   -2.6915  -11.8488 C   0  0  0  0  0  0  0  0  0  0  0  0
   58.7167   -4.0195  -12.6703 C   0  0  0  0  0  0  0  0  0  0  0  0
   58.1383   -3.7946  -13.9824 C   0  0  0  0  0  0  0  0  0  0  0  0
   56.7647   -3.9825  -14.1268 C   0  0  0  0  0  0  0  0  0  0  0  0
   56.0714   -3.7881  -15.2884 C   0  0  0  0  0  0  0  0  0  0  0  0
   56.7634   -3.3779  -16.4043 C   0  0  0  0  0  0  0  0  0  0  0  0
   58.1149   -3.1925  -16.2683 C   0  0  0  0  0  0  0  0  0  0  0  0
   58.8254   -3.3863  -15.0996 C   0  0  0  0  0  0  0  0  0  0  0  0
   60.2571   -3.1911  -15.0877 C   0  0  0  0  0  0  0  0  0  0  0  0
   60.6429   -2.8294  -16.4053 F   0  0  0  0  0  0  0  0  0  0  0  0
   60.7303   -2.1535  -14.3208 F   0  0  0  0  0  0  0  0  0  0  0  0
   60.9997   -4.3592  -14.9678 F   0  0  0  0  0  0  0  0  0  0  0  0
 27 28  1  0  0  0
 28 26  1  0  0  0
 26  1  1  0  0  0
  1  2  1  0  0  0
  2  3  2  0  0  0
  3  4  1  0  0  0
  4  5  1  0  0  0
  5 21  1  0  0  0
 21 22  1  0  0  0
 21 23  2  0  0  0
  3  6  1  0  0  0
  6  7  1  0  0  0
  7  8  2  0  0  0
  8  9  1  0  0  0
  9 10  2  0  0  0
 10 11  1  0  0  0
 11 12  2  0  0  0
 12 13  1  0  0  0
 13 14  2  0  0  0
 11 15  1  0  0  0
 15 16  2  0  0  0
 16 17  1  0  0  0
 17 18  2  0  0  0
 18 19  1  0  0  0
 19 20  2  0  0  0
 28 29  1  0  0  0
 29 30  2  0  0  0
 30 31  1  0  0  0
 31 32  2  0  0  0
 32 33  1  0  0  0
 33 34  2  0  0  0
 34 35  1  0  0  0
 35 36  1  0  0  0
 35 37  1  0  0  0
 35 38  1  0  0  0
  5  1  2  0  0  0
 14  6  1  0  0  0
 20 15  1  0  0  0
 34 29  1  0  0  0
 14  9  1  0  0  0
 22 24  1  0  0  0
 22 25  1  0  0  0
M  END
> <minimizedAffinity>
-8.24399

> <CNNscore>
0.5390429497

> <CNNaffinity>
7.1626906395

> <CNN_VS>
3.8609979153

> <CNNaffinity_variance>
0.1751977503

$$$$
[H]c1nc([H])c(-c2c([H])c([H])c3c(nc([H])n3-c3sc(C(=O)N([H])[H])c(O[C@@]([H])(c4c([H])c([H])c([H])c([H])c4C(F)(F)F)C([H])([H])[H])c3[H])c2[H])c([H])c1[H]


 38 42  0  0  0  0  0  0  0  0999 V2000
   53.0874   -4.0518   -7.5758 C   0  0  0  0  0  0  0  0  0  0  0  0
   54.2482   -4.4375   -8.1369 C   0  0  0  0  0  0  0  0  0  0  0  0
   54.5277   -3.9596   -9.3950 C   0  0  0  0  0  0  0  0  0  0  0  0
   53.1649   -2.9939   -9.7450 S   0  0  0  0  0  0  0  0  0  0  0  0
   52.2876   -3.2168   -8.3090 C   0  0  0  0  0  0  0  0  0  0  0  0
   55.6890   -4.2210  -10.1977 N   0  0  0  0  0  0  0  0  0  0  0  0
   55.8367   -4.0021  -11.4843 C   0  0  0  0  0  0  0  0  0  0  0  0
   57.0845   -4.3796  -11.8966 N   0  0  0  0  0  0  0  0  0  0  0  0
   57.7354   -4.8527  -10.8136 C   0  0  0  0  0  0  0  0  0  0  0  0
   58.9918   -5.3699  -10.5880 C   0  0  0  0  0  0  0  0  0  0  0  0
   59.3950   -5.7897   -9.3248 C   0  0  0  0  0  0  0  0  0  0  0  0
   58.4849   -5.6650   -8.3145 C   0  0  0  0  0  0  0  0  0  0  0  0
   57.2084   -5.1555   -8.4691 C   0  0  0  0  0  0  0  0  0  0  0  0
   56.8336   -4.7437   -9.7456 C   0  0  0  0  0  0  0  0  0  0  0  0
   60.7314   -6.3337   -9.1232 C   0  0  0  0  0  0  0  0  0  0  0  0
   61.6319   -6.3534  -10.1667 C   0  0  0  0  0  0  0  0  0  0  0  0
   62.8854   -6.8836   -9.9098 C   0  0  0  0  0  0  0  0  0  0  0  0
   63.1467   -7.3506   -8.6441 C   0  0  0  0  0  0  0  0  0  0  0  0
   62.2416   -7.3183   -7.6373 N   0  0  0  0  0  0  0  0  0  0  0  0
   61.0322   -6.8108   -7.8712 C   0  0  0  0  0  0  0  0  0  0  0  0
   50.9705   -2.6542   -7.9223 C   0  0  0  0  0  0  0  0  0  0  0  0
   49.8690   -3.4983   -7.7135 N   0  0  0  0  0  0  0  0  0  0  0  0
   50.9117   -1.4025   -7.7981 O   0  0  0  0  0  0  0  0  0  0  0  0
   49.3300   -3.4946   -6.8291 H   0  0  0  0  0  0  0  0  0  0  0  0
   49.5636   -4.1644   -8.4637 H   0  0  0  0  0  0  0  0  0  0  0  0
   52.6669   -4.4648   -6.2828 O   0  0  0  0  0  0  0  0  0  0  0  0
   51.5521   -6.5425   -6.7453 C   0  0  0  0  0  0  0  0  0  0  0  0
   52.5661   -5.7689   -5.8441 C   0  0  0  0  0  0  0  0  0  0  0  0
   52.3131   -6.0489   -4.4426 C   0  0  0  0  0  0  0  0  0  0  0  0
   53.2980   -6.7299   -3.7290 C   0  0  0  0  0  0  0  0  0  0  0  0
   53.2183   -7.0452   -2.4015 C   0  0  0  0  0  0  0  0  0  0  0  0
   52.0924   -6.6711   -1.7052 C   0  0  0  0  0  0  0  0  0  0  0  0
   51.1201   -6.0019   -2.4023 C   0  0  0  0  0  0  0  0  0  0  0  0
   51.1901   -5.6786   -3.7435 C   0  0  0  0  0  0  0  0  0  0  0  0
   50.0839   -4.9993   -4.3781 C   0  0  0  0  0  0  0  0  0  0  0  0
   49.0411   -4.9075   -3.4190 F   0  0  0  0  0  0  0  0  0  0  0  0
   50.2942   -3.6921   -4.7465 F   0  0  0  0  0  0  0  0  0  0  0  0
   49.4170   -5.7505   -5.3378 F   0  0  0  0  0  0  0  0  0  0  0  0
 27 28  1  0  0  0
 28 26  1  0  0  0
 26  1  1  0  0  0
  1  2  1  0  0  0
  2  3  2  0  0  0
  3  4  1  0  0  0
  4  5  1  0  0  0
  5 21  1  0  0  0
 21 22  1  0  0  0
 21 23  2  0  0  0
  3  6  1  0  0  0
  6  7  1  0  0  0
  7  8  2  0  0  0
  8  9  1  0  0  0
  9 10  2  0  0  0
 10 11  1  0  0  0
 11 12  2  0  0  0
 12 13  1  0  0  0
 13 14  2  0  0  0
 11 15  1  0  0  0
 15 16  2  0  0  0
 16 17  1  0  0  0
 17 18  2  0  0  0
 18 19  1  0  0  0
 19 20  2  0  0  0
 28 29  1  0  0  0
 29 30  2  0  0  0
 30 31  1  0  0  0
 31 32  2  0  0  0
 32 33  1  0  0  0
 33 34  2  0  0  0
 34 35  1  0  0  0
 35 36  1  0  0  0
 35 37  1  0  0  0
 35 38  1  0  0  0
  5  1  2  0  0  0
 14  6  1  0  0  0
 20 15  1  0  0  0
 34 29  1  0  0  0
 14  9  1  0  0  0
 22 24  1  0  0  0
 22 25  1  0  0  0
M  END
> <minimizedAffinity>
-9.25015

> <CNNscore>
0.5135521293

> <CNNaffinity>
7.5164704323

> <CNN_VS>
3.8600993156

> <CNNaffinity_variance>
0.1784808040

$$$$
[H]c1nc([H])c(-c2c([H])c([H])c3c(nc([H])n3-c3sc(C(=O)N([H])[H])c(O[C@@]([H])(c4c([H])c([H])c([H])c([H])c4C(F)(F)F)C([H])([H])[H])c3[H])c2[H])c([H])c1[H]


 38 42  0  0  0  0  0  0  0  0999 V2000
   54.1213   -4.0336   -7.8504 C   0  0  0  0  0  0  0  0  0  0  0  0
   55.2966   -4.4251   -8.3761 C   0  0  0  0  0  0  0  0  0  0  0  0
   55.5093   -4.1595   -9.7079 C   0  0  0  0  0  0  0  0  0  0  0  0
   54.0661   -3.3766  -10.1733 S   0  0  0  0  0  0  0  0  0  0  0  0
   53.2412   -3.4050   -8.6900 C   0  0  0  0  0  0  0  0  0  0  0  0
   56.6699   -4.4720  -10.4930 N   0  0  0  0  0  0  0  0  0  0  0  0
   56.8245   -4.3152  -11.7878 C   0  0  0  0  0  0  0  0  0  0  0  0
   58.0689   -4.7265  -12.1773 N   0  0  0  0  0  0  0  0  0  0  0  0
   58.7105   -5.1562  -11.0709 C   0  0  0  0  0  0  0  0  0  0  0  0
   59.9598   -5.6773  -10.8167 C   0  0  0  0  0  0  0  0  0  0  0  0
   60.3538   -6.0425   -9.5337 C   0  0  0  0  0  0  0  0  0  0  0  0
   59.4419   -5.8598   -8.5338 C   0  0  0  0  0  0  0  0  0  0  0  0
   58.1723   -5.3428   -8.7168 C   0  0  0  0  0  0  0  0  0  0  0  0
   57.8066   -4.9867  -10.0126 C   0  0  0  0  0  0  0  0  0  0  0  0
   61.6828   -6.5923   -9.3019 C   0  0  0  0  0  0  0  0  0  0  0  0
   62.1015   -6.8641   -8.0170 C   0  0  0  0  0  0  0  0  0  0  0  0
   63.3756   -7.3856   -7.8645 C   0  0  0  0  0  0  0  0  0  0  0  0
   64.1313   -7.5957   -8.9928 C   0  0  0  0  0  0  0  0  0  0  0  0
   63.6933   -7.3191  -10.2440 N   0  0  0  0  0  0  0  0  0  0  0  0
   62.4697   -6.8172  -10.4045 C   0  0  0  0  0  0  0  0  0  0  0  0
   51.8920   -2.8828   -8.3615 C   0  0  0  0  0  0  0  0  0  0  0  0
   51.6111   -1.5127   -8.4768 N   0  0  0  0  0  0  0  0  0  0  0  0
   51.0412   -3.7304   -7.9830 O   0  0  0  0  0  0  0  0  0  0  0  0
   50.8278   -1.1559   -9.0527 H   0  0  0  0  0  0  0  0  0  0  0  0
   52.2015   -0.8077   -7.9724 H   0  0  0  0  0  0  0  0  0  0  0  0
   53.7636   -4.2399   -6.4907 O   0  0  0  0  0  0  0  0  0  0  0  0
   54.4914   -6.4594   -5.9272 C   0  0  0  0  0  0  0  0  0  0  0  0
   53.3207   -5.4260   -5.9426 C   0  0  0  0  0  0  0  0  0  0  0  0
   52.1045   -6.0468   -6.4345 C   0  0  0  0  0  0  0  0  0  0  0  0
   52.1997   -6.8516   -7.5687 C   0  0  0  0  0  0  0  0  0  0  0  0
   51.1525   -7.5212   -8.1368 C   0  0  0  0  0  0  0  0  0  0  0  0
   49.9089   -7.4034   -7.5607 C   0  0  0  0  0  0  0  0  0  0  0  0
   49.8092   -6.6124   -6.4456 C   0  0  0  0  0  0  0  0  0  0  0  0
   50.8605   -5.9310   -5.8635 C   0  0  0  0  0  0  0  0  0  0  0  0
   50.6250   -5.0985   -4.7062 C   0  0  0  0  0  0  0  0  0  0  0  0
   49.3425   -5.4362   -4.1994 F   0  0  0  0  0  0  0  0  0  0  0  0
   51.4552   -5.2938   -3.6285 F   0  0  0  0  0  0  0  0  0  0  0  0
   50.3880   -3.7602   -4.9943 F   0  0  0  0  0  0  0  0  0  0  0  0
 27 28  1  0  0  0
 28 26  1  0  0  0
 26  1  1  0  0  0
  1  2  1  0  0  0
  2  3  2  0  0  0
  3  4  1  0  0  0
  4  5  1  0  0  0
  5 21  1  0  0  0
 21 22  1  0  0  0
 21 23  2  0  0  0
  3  6  1  0  0  0
  6  7  1  0  0  0
  7  8  2  0  0  0
  8  9  1  0  0  0
  9 10  2  0  0  0
 10 11  1  0  0  0
 11 12  2  0  0  0
 12 13  1  0  0  0
 13 14  2  0  0  0
 11 15  1  0  0  0
 15 16  2  0  0  0
 16 17  1  0  0  0
 17 18  2  0  0  0
 18 19  1  0  0  0
 19 20  2  0  0  0
 28 29  1  0  0  0
 29 30  2  0  0  0
 30 31  1  0  0  0
 31 32  2  0  0  0
 32 33  1  0  0  0
 33 34  2  0  0  0
 34 35  1  0  0  0
 35 36  1  0  0  0
 35 37  1  0  0  0
 35 38  1  0  0  0
  5  1  2  0  0  0
 14  6  1  0  0  0
 20 15  1  0  0  0
 34 29  1  0  0  0
 14  9  1  0  0  0
 22 24  1  0  0  0
 22 25  1  0  0  0
M  END
> <minimizedAffinity>
-7.41092

> <CNNscore>
0.4280830622

> <CNNaffinity>
7.3010468483

> <CNN_VS>
3.1254544258

> <CNNaffinity_variance>
0.2809520066

$$$$
[H]c1nc([H])c(-c2c([H])c([H])c3c(nc([H])n3-c3sc(C(=O)N([H])[H])c(O[C@@]([H])(c4c([H])c([H])c([H])c([H])c4C(F)(F)F)C([H])([H])[H])c3[H])c2[H])c([H])c1[H]


 38 42  0  0  0  0  0  0  0  0999 V2000
   52.9163   -4.2502   -7.2527 C   0  0  0  0  0  0  0  0  0  0  0  0
   54.1396   -4.7624   -7.4815 C   0  0  0  0  0  0  0  0  0  0  0  0
   54.8422   -4.2587   -8.5502 C   0  0  0  0  0  0  0  0  0  0  0  0
   53.7726   -3.0941   -9.1920 S   0  0  0  0  0  0  0  0  0  0  0  0
   52.4803   -3.2721   -8.1058 C   0  0  0  0  0  0  0  0  0  0  0  0
   56.1539   -4.6346   -8.9967 N   0  0  0  0  0  0  0  0  0  0  0  0
   57.0482   -5.3410   -8.3438 C   0  0  0  0  0  0  0  0  0  0  0  0
   58.1815   -5.4940   -9.0932 N   0  0  0  0  0  0  0  0  0  0  0  0
   57.9753   -4.8522  -10.2620 C   0  0  0  0  0  0  0  0  0  0  0  0
   58.7233   -4.6493  -11.4006 C   0  0  0  0  0  0  0  0  0  0  0  0
   58.2322   -3.9218  -12.4796 C   0  0  0  0  0  0  0  0  0  0  0  0
   56.9695   -3.4161  -12.3580 C   0  0  0  0  0  0  0  0  0  0  0  0
   56.1639   -3.5807  -11.2459 C   0  0  0  0  0  0  0  0  0  0  0  0
   56.6833   -4.3136  -10.1817 C   0  0  0  0  0  0  0  0  0  0  0  0
   59.0521   -3.7256  -13.6676 C   0  0  0  0  0  0  0  0  0  0  0  0
   60.4266   -3.7235  -13.5635 C   0  0  0  0  0  0  0  0  0  0  0  0
   61.1485   -3.5319  -14.7300 C   0  0  0  0  0  0  0  0  0  0  0  0
   60.4541   -3.3582  -15.9030 C   0  0  0  0  0  0  0  0  0  0  0  0
   59.1019   -3.3651  -15.9753 N   0  0  0  0  0  0  0  0  0  0  0  0
   58.3957   -3.5485  -14.8606 C   0  0  0  0  0  0  0  0  0  0  0  0
   51.1829   -2.5535   -8.0720 C   0  0  0  0  0  0  0  0  0  0  0  0
   50.0026   -3.2303   -7.7282 N   0  0  0  0  0  0  0  0  0  0  0  0
   51.2140   -1.3292   -8.3650 O   0  0  0  0  0  0  0  0  0  0  0  0
   49.3869   -2.9113   -6.9589 H   0  0  0  0  0  0  0  0  0  0  0  0
   49.7146   -4.0911   -8.2534 H   0  0  0  0  0  0  0  0  0  0  0  0
   52.0772   -4.6720   -6.1863 O   0  0  0  0  0  0  0  0  0  0  0  0
   50.7639   -6.6829   -6.2545 C   0  0  0  0  0  0  0  0  0  0  0  0
   52.0104   -5.9484   -5.6669 C   0  0  0  0  0  0  0  0  0  0  0  0
   52.0908   -6.1568   -4.2328 C   0  0  0  0  0  0  0  0  0  0  0  0
   50.9137   -6.0473   -3.4943 C   0  0  0  0  0  0  0  0  0  0  0  0
   50.8226   -6.2383   -2.1440 C   0  0  0  0  0  0  0  0  0  0  0  0
   51.9647   -6.5621   -1.4490 C   0  0  0  0  0  0  0  0  0  0  0  0
   53.1255   -6.6701   -2.1702 C   0  0  0  0  0  0  0  0  0  0  0  0
   53.2290   -6.4789   -3.5344 C   0  0  0  0  0  0  0  0  0  0  0  0
   54.5172   -6.5870   -4.1800 C   0  0  0  0  0  0  0  0  0  0  0  0
   55.4413   -7.0385   -3.2012 F   0  0  0  0  0  0  0  0  0  0  0  0
   54.6280   -7.5240   -5.1793 F   0  0  0  0  0  0  0  0  0  0  0  0
   55.1159   -5.3709   -4.4846 F   0  0  0  0  0  0  0  0  0  0  0  0
 27 28  1  0  0  0
 28 26  1  0  0  0
 26  1  1  0  0  0
  1  2  1  0  0  0
  2  3  2  0  0  0
  3  4  1  0  0  0
  4  5  1  0  0  0
  5 21  1  0  0  0
 21 22  1  0  0  0
 21 23  2  0  0  0
  3  6  1  0  0  0
  6  7  1  0  0  0
  7  8  2  0  0  0
  8  9  1  0  0  0
  9 10  2  0  0  0
 10 11  1  0  0  0
 11 12  2  0  0  0
 12 13  1  0  0  0
 13 14  2  0  0  0
 11 15  1  0  0  0
 15 16  2  0  0  0
 16 17  1  0  0  0
 17 18  2  0  0  0
 18 19  1  0  0  0
 19 20  2  0  0  0
 28 29  1  0  0  0
 29 30  2  0  0  0
 30 31  1  0  0  0
 31 32  2  0  0  0
 32 33  1  0  0  0
 33 34  2  0  0  0
 34 35  1  0  0  0
 35 36  1  0  0  0
 35 37  1  0  0  0
 35 38  1  0  0  0
  5  1  2  0  0  0
 14  6  1  0  0  0
 20 15  1  0  0  0
 34 29  1  0  0  0
 14  9  1  0  0  0
 22 24  1  0  0  0
 22 25  1  0  0  0
M  END
> <minimizedAffinity>
-8.81259

> <CNNscore>
0.3929486871

> <CNNaffinity>
7.3546895981

> <CNN_VS>
2.8900156021

> <CNNaffinity_variance>
0.1242158264

$$$$
[H]c1nc([H])c(-c2c([H])c([H])c3c(nc([H])n3-c3sc(C(=O)N([H])[H])c(O[C@@]([H])(c4c([H])c([H])c([H])c([H])c4C(F)(F)F)C([H])([H])[H])c3[H])c2[H])c([H])c1[H]


 38 42  0  0  0  0  0  0  0  0999 V2000
   54.6495   -4.8888   -6.4274 C   0  0  0  0  0  0  0  0  0  0  0  0
   55.3428   -4.7492   -7.5724 C   0  0  0  0  0  0  0  0  0  0  0  0
   56.5927   -5.3187   -7.6240 C   0  0  0  0  0  0  0  0  0  0  0  0
   56.7517   -6.0244   -6.0783 S   0  0  0  0  0  0  0  0  0  0  0  0
   55.2519   -5.5863   -5.4149 C   0  0  0  0  0  0  0  0  0  0  0  0
   57.5189   -5.3105   -8.7210 N   0  0  0  0  0  0  0  0  0  0  0  0
   58.7715   -5.7053   -8.7120 C   0  0  0  0  0  0  0  0  0  0  0  0
   59.3355   -5.5452   -9.9472 N   0  0  0  0  0  0  0  0  0  0  0  0
   58.3859   -5.0281  -10.7543 C   0  0  0  0  0  0  0  0  0  0  0  0
   58.3399   -4.6522  -12.0785 C   0  0  0  0  0  0  0  0  0  0  0  0
   57.1843   -4.1333  -12.6529 C   0  0  0  0  0  0  0  0  0  0  0  0
   56.0931   -4.0133  -11.8408 C   0  0  0  0  0  0  0  0  0  0  0  0
   56.0683   -4.3703  -10.5048 C   0  0  0  0  0  0  0  0  0  0  0  0
   57.2405   -4.8865   -9.9581 C   0  0  0  0  0  0  0  0  0  0  0  0
   57.1724   -3.7443  -14.0567 C   0  0  0  0  0  0  0  0  0  0  0  0
   55.9916   -3.7653  -14.7676 C   0  0  0  0  0  0  0  0  0  0  0  0
   56.0480   -3.3841  -16.0980 C   0  0  0  0  0  0  0  0  0  0  0  0
   57.2652   -3.0137  -16.6170 C   0  0  0  0  0  0  0  0  0  0  0  0
   58.4103   -3.0026  -15.8941 N   0  0  0  0  0  0  0  0  0  0  0  0
   58.3698   -3.3669  -14.6133 C   0  0  0  0  0  0  0  0  0  0  0  0
   54.7066   -5.8769   -4.0662 C   0  0  0  0  0  0  0  0  0  0  0  0
   54.8679   -4.9563   -3.0192 N   0  0  0  0  0  0  0  0  0  0  0  0
   54.1062   -6.9753   -3.9305 O   0  0  0  0  0  0  0  0  0  0  0  0
   54.0644   -4.5838   -2.4824 H   0  0  0  0  0  0  0  0  0  0  0  0
   55.8250   -4.6193   -2.7544 H   0  0  0  0  0  0  0  0  0  0  0  0
   53.3474   -4.3552   -6.2299 O   0  0  0  0  0  0  0  0  0  0  0  0
   51.9195   -6.0210   -7.2092 C   0  0  0  0  0  0  0  0  0  0  0  0
   52.2022   -5.0863   -5.9906 C   0  0  0  0  0  0  0  0  0  0  0  0
   50.9840   -4.4167   -5.5735 C   0  0  0  0  0  0  0  0  0  0  0  0
   50.4219   -3.4881   -6.4480 C   0  0  0  0  0  0  0  0  0  0  0  0
   49.2680   -2.7954   -6.2100 C   0  0  0  0  0  0  0  0  0  0  0  0
   48.6013   -3.0187   -5.0276 C   0  0  0  0  0  0  0  0  0  0  0  0
   49.1501   -3.9302   -4.1633 C   0  0  0  0  0  0  0  0  0  0  0  0
   50.3155   -4.6353   -4.3935 C   0  0  0  0  0  0  0  0  0  0  0  0
   50.8148   -5.5468   -3.3896 C   0  0  0  0  0  0  0  0  0  0  0  0
   49.7920   -5.7023   -2.4172 F   0  0  0  0  0  0  0  0  0  0  0  0
   51.0650   -6.8350   -3.7979 F   0  0  0  0  0  0  0  0  0  0  0  0
   51.8028   -5.0185   -2.5681 F   0  0  0  0  0  0  0  0  0  0  0  0
 27 28  1  0  0  0
 28 26  1  0  0  0
 26  1  1  0  0  0
  1  2  1  0  0  0
  2  3  2  0  0  0
  3  4  1  0  0  0
  4  5  1  0  0  0
  5 21  1  0  0  0
 21 22  1  0  0  0
 21 23  2  0  0  0
  3  6  1  0  0  0
  6  7  1  0  0  0
  7  8  2  0  0  0
  8  9  1  0  0  0
  9 10  2  0  0  0
 10 11  1  0  0  0
 11 12  2  0  0  0
 12 13  1  0  0  0
 13 14  2  0  0  0
 11 15  1  0  0  0
 15 16  2  0  0  0
 16 17  1  0  0  0
 17 18  2  0  0  0
 18 19  1  0  0  0
 19 20  2  0  0  0
 28 29  1  0  0  0
 29 30  2  0  0  0
 30 31  1  0  0  0
 31 32  2  0  0  0
 32 33  1  0  0  0
 33 34  2  0  0  0
 34 35  1  0  0  0
 35 36  1  0  0  0
 35 37  1  0  0  0
 35 38  1  0  0  0
  5  1  2  0  0  0
 14  6  1  0  0  0
 20 15  1  0  0  0
 34 29  1  0  0  0
 14  9  1  0  0  0
 22 24  1  0  0  0
 22 25  1  0  0  0
M  END
> <minimizedAffinity>
-10.50220

> <CNNscore>
0.3168492019

> <CNNaffinity>
7.0191206932

> <CNN_VS>
2.2240028381

> <CNNaffinity_variance>
0.3287897706

$$$$
[H]c1nc([H])c(-c2c([H])c([H])c3c(nc([H])n3-c3sc(C(=O)N([H])[H])c(O[C@@]([H])(c4c([H])c([H])c([H])c([H])c4C(F)(F)F)C([H])([H])[H])c3[H])c2[H])c([H])c1[H]


 38 42  0  0  0  0  0  0  0  0999 V2000
   54.3717   -5.0525   -6.7315 C   0  0  0  0  0  0  0  0  0  0  0  0
   55.0970   -4.8780   -7.8515 C   0  0  0  0  0  0  0  0  0  0  0  0
   56.4008   -5.3127   -7.8303 C   0  0  0  0  0  0  0  0  0  0  0  0
   56.5636   -5.9460   -6.2540 S   0  0  0  0  0  0  0  0  0  0  0  0
   54.9979   -5.6482   -5.6696 C   0  0  0  0  0  0  0  0  0  0  0  0
   57.3691   -5.2422   -8.8880 N   0  0  0  0  0  0  0  0  0  0  0  0
   58.6412   -5.5636   -8.8292 C   0  0  0  0  0  0  0  0  0  0  0  0
   59.2451   -5.3617  -10.0392 N   0  0  0  0  0  0  0  0  0  0  0  0
   58.3009   -4.8944  -10.8822 C   0  0  0  0  0  0  0  0  0  0  0  0
   58.2875   -4.5117  -12.2052 C   0  0  0  0  0  0  0  0  0  0  0  0
   57.1281   -4.0564  -12.8241 C   0  0  0  0  0  0  0  0  0  0  0  0
   55.9993   -4.0062  -12.0573 C   0  0  0  0  0  0  0  0  0  0  0  0
   55.9406   -4.3742  -10.7254 C   0  0  0  0  0  0  0  0  0  0  0  0
   57.1175   -4.8257  -10.1333 C   0  0  0  0  0  0  0  0  0  0  0  0
   57.1512   -3.6580  -14.2252 C   0  0  0  0  0  0  0  0  0  0  0  0
   55.9959   -3.7098  -14.9754 C   0  0  0  0  0  0  0  0  0  0  0  0
   56.0850   -3.3177  -16.3008 C   0  0  0  0  0  0  0  0  0  0  0  0
   57.3070   -2.9068  -16.7764 C   0  0  0  0  0  0  0  0  0  0  0  0
   58.4263   -2.8661  -16.0154 N   0  0  0  0  0  0  0  0  0  0  0  0
   58.3543   -3.2405  -14.7389 C   0  0  0  0  0  0  0  0  0  0  0  0
   54.4262   -5.9503   -4.3344 C   0  0  0  0  0  0  0  0  0  0  0  0
   54.5390   -5.0250   -3.2854 N   0  0  0  0  0  0  0  0  0  0  0  0
   53.8495   -7.0629   -4.2118 O   0  0  0  0  0  0  0  0  0  0  0  0
   53.7135   -4.6714   -2.7695 H   0  0  0  0  0  0  0  0  0  0  0  0
   55.4807   -4.6644   -2.9973 H   0  0  0  0  0  0  0  0  0  0  0  0
   53.0133   -4.6542   -6.6077 O   0  0  0  0  0  0  0  0  0  0  0  0
   51.4265   -6.3149   -7.3130 C   0  0  0  0  0  0  0  0  0  0  0  0
   51.9796   -5.4409   -6.1430 C   0  0  0  0  0  0  0  0  0  0  0  0
   50.8869   -4.8431   -5.3980 C   0  0  0  0  0  0  0  0  0  0  0  0
   50.5656   -5.3979   -4.1602 C   0  0  0  0  0  0  0  0  0  0  0  0
   49.5819   -4.9342   -3.3323 C   0  0  0  0  0  0  0  0  0  0  0  0
   48.8470   -3.8431   -3.7341 C   0  0  0  0  0  0  0  0  0  0  0  0
   49.1580   -3.2940   -4.9511 C   0  0  0  0  0  0  0  0  0  0  0  0
   50.1494   -3.7545   -5.7956 C   0  0  0  0  0  0  0  0  0  0  0  0
   50.3621   -3.1122   -7.0724 C   0  0  0  0  0  0  0  0  0  0  0  0
   49.6322   -1.8945   -7.0570 F   0  0  0  0  0  0  0  0  0  0  0  0
   51.6462   -2.7107   -7.3529 F   0  0  0  0  0  0  0  0  0  0  0  0
   49.7211   -3.7243   -8.1423 F   0  0  0  0  0  0  0  0  0  0  0  0
 27 28  1  0  0  0
 28 26  1  0  0  0
 26  1  1  0  0  0
  1  2  1  0  0  0
  2  3  2  0  0  0
  3  4  1  0  0  0
  4  5  1  0  0  0
  5 21  1  0  0  0
 21 22  1  0  0  0
 21 23  2  0  0  0
  3  6  1  0  0  0
  6  7  1  0  0  0
  7  8  2  0  0  0
  8  9  1  0  0  0
  9 10  2  0  0  0
 10 11  1  0  0  0
 11 12  2  0  0  0
 12 13  1  0  0  0
 13 14  2  0  0  0
 11 15  1  0  0  0
 15 16  2  0  0  0
 16 17  1  0  0  0
 17 18  2  0  0  0
 18 19  1  0  0  0
 19 20  2  0  0  0
 28 29  1  0  0  0
 29 30  2  0  0  0
 30 31  1  0  0  0
 31 32  2  0  0  0
 32 33  1  0  0  0
 33 34  2  0  0  0
 34 35  1  0  0  0
 35 36  1  0  0  0
 35 37  1  0  0  0
 35 38  1  0  0  0
  5  1  2  0  0  0
 14  6  1  0  0  0
 20 15  1  0  0  0
 34 29  1  0  0  0
 14  9  1  0  0  0
 22 24  1  0  0  0
 22 25  1  0  0  0
M  END
> <minimizedAffinity>
-11.09502

> <CNNscore>
0.3051567078

> <CNNaffinity>
6.9003248215

> <CNN_VS>
2.1056804657

> <CNNaffinity_variance>
0.6950708628

$$$$
[H]c1nc([H])c(-c2c([H])c([H])c3c(nc([H])n3-c3sc(C(=O)N([H])[H])c(O[C@@]([H])(c4c([H])c([H])c([H])c([H])c4C(F)(F)F)C([H])([H])[H])c3[H])c2[H])c([H])c1[H]


 38 42  0  0  0  0  0  0  0  0999 V2000
   54.0843   -5.7787   -6.2026 C   0  0  0  0  0  0  0  0  0  0  0  0
   53.9388   -5.2469   -7.4303 C   0  0  0  0  0  0  0  0  0  0  0  0
   55.0850   -4.8984   -8.1043 C   0  0  0  0  0  0  0  0  0  0  0  0
   56.3168   -5.3246   -7.0029 S   0  0  0  0  0  0  0  0  0  0  0  0
   55.3624   -5.9252   -5.7340 C   0  0  0  0  0  0  0  0  0  0  0  0
   55.1943   -4.3204   -9.4139 N   0  0  0  0  0  0  0  0  0  0  0  0
   54.2573   -3.7009  -10.0946 C   0  0  0  0  0  0  0  0  0  0  0  0
   54.7362   -3.2880  -11.3068 N   0  0  0  0  0  0  0  0  0  0  0  0
   56.0281   -3.6708  -11.3757 C   0  0  0  0  0  0  0  0  0  0  0  0
   57.0248   -3.5510  -12.3187 C   0  0  0  0  0  0  0  0  0  0  0  0
   58.3008   -4.0617  -12.1048 C   0  0  0  0  0  0  0  0  0  0  0  0
   58.5210   -4.6896  -10.9123 C   0  0  0  0  0  0  0  0  0  0  0  0
   57.5683   -4.8458   -9.9220 C   0  0  0  0  0  0  0  0  0  0  0  0
   56.3002   -4.3241  -10.1654 C   0  0  0  0  0  0  0  0  0  0  0  0
   59.3303   -3.9182  -13.1255 C   0  0  0  0  0  0  0  0  0  0  0  0
   60.6358   -4.2555  -12.8395 C   0  0  0  0  0  0  0  0  0  0  0  0
   61.5663   -4.0959  -13.8530 C   0  0  0  0  0  0  0  0  0  0  0  0
   61.1314   -3.6166  -15.0651 C   0  0  0  0  0  0  0  0  0  0  0  0
   59.8409   -3.2931  -15.3179 N   0  0  0  0  0  0  0  0  0  0  0  0
   58.9359   -3.4421  -14.3516 C   0  0  0  0  0  0  0  0  0  0  0  0
   55.7892   -6.4778   -4.4251 C   0  0  0  0  0  0  0  0  0  0  0  0
   54.8411   -6.7730   -3.4334 N   0  0  0  0  0  0  0  0  0  0  0  0
   57.0257   -6.6582   -4.2706 O   0  0  0  0  0  0  0  0  0  0  0  0
   54.7682   -7.7110   -3.0004 H   0  0  0  0  0  0  0  0  0  0  0  0
   54.1727   -6.0348   -3.1045 H   0  0  0  0  0  0  0  0  0  0  0  0
   52.9915   -6.1861   -5.3908 O   0  0  0  0  0  0  0  0  0  0  0  0
   51.2395   -6.0906   -3.7493 C   0  0  0  0  0  0  0  0  0  0  0  0
   51.9921   -5.3657   -4.9098 C   0  0  0  0  0  0  0  0  0  0  0  0
   51.0442   -4.7580   -5.8256 C   0  0  0  0  0  0  0  0  0  0  0  0
   50.7588   -3.4037   -5.6597 C   0  0  0  0  0  0  0  0  0  0  0  0
   49.9091   -2.6854   -6.4535 C   0  0  0  0  0  0  0  0  0  0  0  0
   49.2826   -3.3298   -7.4949 C   0  0  0  0  0  0  0  0  0  0  0  0
   49.5589   -4.6621   -7.6621 C   0  0  0  0  0  0  0  0  0  0  0  0
   50.4152   -5.3975   -6.8659 C   0  0  0  0  0  0  0  0  0  0  0  0
   50.6008   -6.8078   -7.1205 C   0  0  0  0  0  0  0  0  0  0  0  0
   49.4549   -7.2620   -7.8250 F   0  0  0  0  0  0  0  0  0  0  0  0
   51.6417   -7.1517   -7.9493 F   0  0  0  0  0  0  0  0  0  0  0  0
   50.4884   -7.6184   -5.9978 F   0  0  0  0  0  0  0  0  0  0  0  0
 27 28  1  0  0  0
 28 26  1  0  0  0
 26  1  1  0  0  0
  1  2  1  0  0  0
  2  3  2  0  0  0
  3  4  1  0  0  0
  4  5  1  0  0  0
  5 21  1  0  0  0
 21 22  1  0  0  0
 21 23  2  0  0  0
  3  6  1  0  0  0
  6  7  1  0  0  0
  7  8  2  0  0  0
  8  9  1  0  0  0
  9 10  2  0  0  0
 10 11  1  0  0  0
 11 12  2  0  0  0
 12 13  1  0  0  0
 13 14  2  0  0  0
 11 15  1  0  0  0
 15 16  2  0  0  0
 16 17  1  0  0  0
 17 18  2  0  0  0
 18 19  1  0  0  0
 19 20  2  0  0  0
 28 29  1  0  0  0
 29 30  2  0  0  0
 30 31  1  0  0  0
 31 32  2  0  0  0
 32 33  1  0  0  0
 33 34  2  0  0  0
 34 35  1  0  0  0
 35 36  1  0  0  0
 35 37  1  0  0  0
 35 38  1  0  0  0
  5  1  2  0  0  0
 14  6  1  0  0  0
 20 15  1  0  0  0
 34 29  1  0  0  0
 14  9  1  0  0  0
 22 24  1  0  0  0
 22 25  1  0  0  0
M  END
> <minimizedAffinity>
-6.89577

> <CNNscore>
0.2915864885

> <CNNaffinity>
7.2320432663

> <CNN_VS>
2.1087660789

> <CNNaffinity_variance>
0.2976685464

$$$$
[H]c1nc(N([H])c2c([H])c(C([H])([H])C([H])([H])C([H])([H])N(C([H])([H])[H])C([H])([H])[H])c([H])c([H])c2Cl)nc2c1C([H])([H])C(=S)N([H])c1c([H])c(Cl)c([H])c([H])c1-2


 33 36  0  0  0  0  0  0  0  0999 V2000
   53.8772   -3.3176   -8.4622 C   0  0  0  0  0  0  0  0  0  0  0  0
   52.6012   -2.9741   -8.5910 N   0  0  0  0  0  0  0  0  0  0  0  0
   51.5557   -3.3849   -7.8761 C   0  0  0  0  0  0  0  0  0  0  0  0
   51.8161   -4.3006   -6.8480 C   0  0  0  0  0  0  0  0  0  0  0  0
   50.5753   -4.6416   -6.1726 C   0  0  0  0  0  0  0  0  0  0  0  0
   50.7036   -5.0434   -4.7746 C   0  0  0  0  0  0  0  0  0  0  0  0
   49.3777   -4.7255   -3.8605 S   0  0  0  0  0  0  0  0  0  0  0  0
   51.7417   -5.6589   -4.0231 N   0  0  0  0  0  0  0  0  0  0  0  0
   53.0205   -6.0591   -4.5094 C   0  0  0  0  0  0  0  0  0  0  0  0
   53.6548   -6.9664   -3.6778 C   0  0  0  0  0  0  0  0  0  0  0  0
   54.9007   -7.4413   -4.0232 C   0  0  0  0  0  0  0  0  0  0  0  0
   55.7191   -8.6045   -2.9601 Cl  0  0  0  0  0  0  0  0  0  0  0  0
   55.5130   -7.0221   -5.1810 C   0  0  0  0  0  0  0  0  0  0  0  0
   54.8829   -6.1235   -6.0030 C   0  0  0  0  0  0  0  0  0  0  0  0
   53.6160   -5.6276   -5.6712 C   0  0  0  0  0  0  0  0  0  0  0  0
   53.1255   -4.6827   -6.6811 C   0  0  0  0  0  0  0  0  0  0  0  0
   54.1134   -4.2187   -7.4463 N   0  0  0  0  0  0  0  0  0  0  0  0
   51.5943   -5.8528   -3.0187 H   0  0  0  0  0  0  0  0  0  0  0  0
   54.9634   -2.8596   -9.2407 N   0  0  0  0  0  0  0  0  0  0  0  0
   55.1045   -1.8019   -9.1963 H   0  0  0  0  0  0  0  0  0  0  0  0
   56.6312   -4.6043  -12.1272 C   0  0  0  0  0  0  0  0  0  0  0  0
   57.6530   -5.2236  -11.4488 C   0  0  0  0  0  0  0  0  0  0  0  0
   57.7907   -5.0733  -10.0851 C   0  0  0  0  0  0  0  0  0  0  0  0
   56.9032   -4.2986   -9.3881 C   0  0  0  0  0  0  0  0  0  0  0  0
   57.0888   -4.1110   -7.6332 Cl  0  0  0  0  0  0  0  0  0  0  0  0
   55.8345   -3.6381  -10.0315 C   0  0  0  0  0  0  0  0  0  0  0  0
   55.7498   -3.8221  -11.3681 C   0  0  0  0  0  0  0  0  0  0  0  0
   56.4967   -4.7637  -13.5910 C   0  0  0  0  0  0  0  0  0  0  0  0
   56.1153   -3.5356  -14.3323 C   0  0  0  0  0  0  0  0  0  0  0  0
   56.2962   -3.5799  -15.8011 C   0  0  0  0  0  0  0  0  0  0  0  0
   57.4511   -4.7850  -17.5552 C   0  0  0  0  0  0  0  0  0  0  0  0
   57.5378   -4.1636  -16.2615 N   0  0  0  0  0  0  0  0  0  0  0  0
   58.5036   -3.0516  -16.2770 C   0  0  0  0  0  0  0  0  0  0  0  0
 31 32  1  0  0  0
 32 33  1  0  0  0
 32 30  1  0  0  0
 30 29  1  0  0  0
 29 28  1  0  0  0
 28 21  1  0  0  0
 21 22  2  0  0  0
 22 23  1  0  0  0
 23 24  2  0  0  0
 24 25  1  0  0  0
 24 26  1  0  0  0
 26 19  1  0  0  0
 19  1  1  0  0  0
  1  2  2  0  0  0
  2  3  1  0  0  0
  3  4  2  0  0  0
  4  5  1  0  0  0
  5  6  1  0  0  0
  6  7  2  0  0  0
  6  8  1  0  0  0
  8  9  1  0  0  0
  9 10  2  0  0  0
 10 11  1  0  0  0
 11 12  1  0  0  0
 11 13  2  0  0  0
 13 14  1  0  0  0
 14 15  2  0  0  0
 15 16  1  0  0  0
 16 17  2  0  0  0
 26 27  2  0  0  0
 27 21  1  0  0  0
 17  1  1  0  0  0
 16  4  1  0  0  0
 15  9  1  0  0  0
 19 20  1  0  0  0
  8 18  1  0  0  0
M  END
> <minimizedAffinity>
-9.13618

> <CNNscore>
0.9041934013

> <CNNaffinity>
8.1640453339

> <CNN_VS>
7.3818759918

> <CNNaffinity_variance>
0.0931424722

$$$$
[H]c1nc(N([H])c2c([H])c(C([H])([H])C([H])([H])C([H])([H])N(C([H])([H])[H])C([H])([H])[H])c([H])c([H])c2Cl)nc2c1C([H])([H])C(=S)N([H])c1c([H])c(Cl)c([H])c([H])c1-2


 33 36  0  0  0  0  0  0  0  0999 V2000
   54.1105   -3.6055   -8.8882 C   0  0  0  0  0  0  0  0  0  0  0  0
   52.8308   -3.2705   -9.0023 N   0  0  0  0  0  0  0  0  0  0  0  0
   51.8095   -3.6203   -8.2228 C   0  0  0  0  0  0  0  0  0  0  0  0
   52.1040   -4.4512   -7.1337 C   0  0  0  0  0  0  0  0  0  0  0  0
   50.8862   -4.7342   -6.3928 C   0  0  0  0  0  0  0  0  0  0  0  0
   51.0606   -5.0229   -4.9720 C   0  0  0  0  0  0  0  0  0  0  0  0
   49.7653   -4.6298   -4.0432 S   0  0  0  0  0  0  0  0  0  0  0  0
   52.1231   -5.5785   -4.2080 N   0  0  0  0  0  0  0  0  0  0  0  0
   53.3853   -6.0193   -4.7024 C   0  0  0  0  0  0  0  0  0  0  0  0
   54.0470   -6.8584   -3.8219 C   0  0  0  0  0  0  0  0  0  0  0  0
   55.2810   -7.3623   -4.1688 C   0  0  0  0  0  0  0  0  0  0  0  0
   56.1344   -8.4384   -3.0433 Cl  0  0  0  0  0  0  0  0  0  0  0  0
   55.8548   -7.0387   -5.3760 C   0  0  0  0  0  0  0  0  0  0  0  0
   55.1976   -6.2075   -6.2463 C   0  0  0  0  0  0  0  0  0  0  0  0
   53.9421   -5.6837   -5.9140 C   0  0  0  0  0  0  0  0  0  0  0  0
   53.4184   -4.8216   -6.9798 C   0  0  0  0  0  0  0  0  0  0  0  0
   54.3804   -4.4228   -7.8116 N   0  0  0  0  0  0  0  0  0  0  0  0
   52.0089   -5.6910   -3.1870 H   0  0  0  0  0  0  0  0  0  0  0  0
   55.1703   -3.2138   -9.7362 N   0  0  0  0  0  0  0  0  0  0  0  0
   55.0294   -2.2526  -10.1797 H   0  0  0  0  0  0  0  0  0  0  0  0
   58.3170   -5.2587   -9.4628 C   0  0  0  0  0  0  0  0  0  0  0  0
   58.6309   -5.3582  -10.7967 C   0  0  0  0  0  0  0  0  0  0  0  0
   57.8339   -4.7720  -11.7572 C   0  0  0  0  0  0  0  0  0  0  0  0
   56.7125   -4.0796  -11.3877 C   0  0  0  0  0  0  0  0  0  0  0  0
   55.6930   -3.3287  -12.6312 Cl  0  0  0  0  0  0  0  0  0  0  0  0
   56.3401   -3.9445  -10.0330 C   0  0  0  0  0  0  0  0  0  0  0  0
   57.1587   -4.5396   -9.1368 C   0  0  0  0  0  0  0  0  0  0  0  0
   59.1724   -5.8983   -8.4404 C   0  0  0  0  0  0  0  0  0  0  0  0
   60.5719   -6.1641   -8.8576 C   0  0  0  0  0  0  0  0  0  0  0  0
   60.8844   -7.5619   -9.2329 C   0  0  0  0  0  0  0  0  0  0  0  0
   62.4896   -6.7572  -10.8573 C   0  0  0  0  0  0  0  0  0  0  0  0
   61.4907   -7.7398  -10.5348 N   0  0  0  0  0  0  0  0  0  0  0  0
   62.0744   -9.0918  -10.5062 C   0  0  0  0  0  0  0  0  0  0  0  0
 31 32  1  0  0  0
 32 33  1  0  0  0
 32 30  1  0  0  0
 30 29  1  0  0  0
 29 28  1  0  0  0
 28 21  1  0  0  0
 21 22  2  0  0  0
 22 23  1  0  0  0
 23 24  2  0  0  0
 24 25  1  0  0  0
 24 26  1  0  0  0
 26 19  1  0  0  0
 19  1  1  0  0  0
  1  2  2  0  0  0
  2  3  1  0  0  0
  3  4  2  0  0  0
  4  5  1  0  0  0
  5  6  1  0  0  0
  6  7  2  0  0  0
  6  8  1  0  0  0
  8  9  1  0  0  0
  9 10  2  0  0  0
 10 11  1  0  0  0
 11 12  1  0  0  0
 11 13  2  0  0  0
 13 14  1  0  0  0
 14 15  2  0  0  0
 15 16  1  0  0  0
 16 17  2  0  0  0
 26 27  2  0  0  0
 27 21  1  0  0  0
 17  1  1  0  0  0
 16  4  1  0  0  0
 15  9  1  0  0  0
 19 20  1  0  0  0
  8 18  1  0  0  0
M  END
> <minimizedAffinity>
-8.73160

> <CNNscore>
0.8973979354

> <CNNaffinity>
8.0027179718

> <CNN_VS>
7.1816225052

> <CNNaffinity_variance>
0.1048477516

$$$$
[H]c1nc(N([H])c2c([H])c(C([H])([H])C([H])([H])C([H])([H])N(C([H])([H])[H])C([H])([H])[H])c([H])c([H])c2Cl)nc2c1C([H])([H])C(=S)N([H])c1c([H])c(Cl)c([H])c([H])c1-2


 33 36  0  0  0  0  0  0  0  0999 V2000
   53.1436   -3.2538   -8.6382 C   0  0  0  0  0  0  0  0  0  0  0  0
   52.0995   -2.5305   -9.0250 N   0  0  0  0  0  0  0  0  0  0  0  0
   50.8943   -2.4486   -8.4647 C   0  0  0  0  0  0  0  0  0  0  0  0
   50.6804   -3.2200   -7.3147 C   0  0  0  0  0  0  0  0  0  0  0  0
   49.3242   -3.0146   -6.8348 C   0  0  0  0  0  0  0  0  0  0  0  0
   49.1228   -3.2049   -5.4011 C   0  0  0  0  0  0  0  0  0  0  0  0
   47.8906   -2.3204   -4.7731 S   0  0  0  0  0  0  0  0  0  0  0  0
   49.7709   -4.0010   -4.4176 N   0  0  0  0  0  0  0  0  0  0  0  0
   50.8757   -4.8772   -4.6263 C   0  0  0  0  0  0  0  0  0  0  0  0
   51.0362   -5.7971   -3.6040 C   0  0  0  0  0  0  0  0  0  0  0  0
   52.0662   -6.7089   -3.6725 C   0  0  0  0  0  0  0  0  0  0  0  0
   52.2772   -7.8905   -2.3639 Cl  0  0  0  0  0  0  0  0  0  0  0  0
   52.9293   -6.7103   -4.7431 C   0  0  0  0  0  0  0  0  0  0  0  0
   52.7684   -5.7984   -5.7545 C   0  0  0  0  0  0  0  0  0  0  0  0
   51.7282   -4.8622   -5.7051 C   0  0  0  0  0  0  0  0  0  0  0  0
   51.7370   -3.9841   -6.8808 C   0  0  0  0  0  0  0  0  0  0  0  0
   52.9140   -4.0056   -7.5060 N   0  0  0  0  0  0  0  0  0  0  0  0
   49.4378   -3.9700   -3.4397 H   0  0  0  0  0  0  0  0  0  0  0  0
   54.4112   -3.3157   -9.2587 N   0  0  0  0  0  0  0  0  0  0  0  0
   54.4886   -2.7078  -10.1334 H   0  0  0  0  0  0  0  0  0  0  0  0
   56.8330   -5.3704   -7.2410 C   0  0  0  0  0  0  0  0  0  0  0  0
   57.8139   -5.5453   -8.1870 C   0  0  0  0  0  0  0  0  0  0  0  0
   57.6846   -5.0054   -9.4492 C   0  0  0  0  0  0  0  0  0  0  0  0
   56.5679   -4.2840   -9.7747 C   0  0  0  0  0  0  0  0  0  0  0  0
   56.4106   -3.5931  -11.4018 Cl  0  0  0  0  0  0  0  0  0  0  0  0
   55.5279   -4.0718   -8.8444 C   0  0  0  0  0  0  0  0  0  0  0  0
   55.7097   -4.6243   -7.6240 C   0  0  0  0  0  0  0  0  0  0  0  0
   56.9759   -5.9607   -5.8930 C   0  0  0  0  0  0  0  0  0  0  0  0
   56.1938   -5.2956   -4.8210 C   0  0  0  0  0  0  0  0  0  0  0  0
   56.3232   -5.8768   -3.4654 C   0  0  0  0  0  0  0  0  0  0  0  0
   55.0427   -5.5450   -1.4372 C   0  0  0  0  0  0  0  0  0  0  0  0
   55.9866   -4.9924   -2.3705 N   0  0  0  0  0  0  0  0  0  0  0  0
   57.2680   -4.6957   -1.7075 C   0  0  0  0  0  0  0  0  0  0  0  0
 31 32  1  0  0  0
 32 33  1  0  0  0
 32 30  1  0  0  0
 30 29  1  0  0  0
 29 28  1  0  0  0
 28 21  1  0  0  0
 21 22  2  0  0  0
 22 23  1  0  0  0
 23 24  2  0  0  0
 24 25  1  0  0  0
 24 26  1  0  0  0
 26 19  1  0  0  0
 19  1  1  0  0  0
  1  2  2  0  0  0
  2  3  1  0  0  0
  3  4  2  0  0  0
  4  5  1  0  0  0
  5  6  1  0  0  0
  6  7  2  0  0  0
  6  8  1  0  0  0
  8  9  1  0  0  0
  9 10  2  0  0  0
 10 11  1  0  0  0
 11 12  1  0  0  0
 11 13  2  0  0  0
 13 14  1  0  0  0
 14 15  2  0  0  0
 15 16  1  0  0  0
 16 17  2  0  0  0
 26 27  2  0  0  0
 27 21  1  0  0  0
 17  1  1  0  0  0
 16  4  1  0  0  0
 15  9  1  0  0  0
 19 20  1  0  0  0
  8 18  1  0  0  0
M  END
> <minimizedAffinity>
-8.82488

> <CNNscore>
0.8032127023

> <CNNaffinity>
8.3466777802

> <CNN_VS>
6.7041578293

> <CNNaffinity_variance>
0.1715045422

$$$$
[H]c1nc(N([H])c2c([H])c(C([H])([H])C([H])([H])C([H])([H])N(C([H])([H])[H])C([H])([H])[H])c([H])c([H])c2Cl)nc2c1C([H])([H])C(=S)N([H])c1c([H])c(Cl)c([H])c([H])c1-2


 33 36  0  0  0  0  0  0  0  0999 V2000
   53.9719   -3.5088   -9.0407 C   0  0  0  0  0  0  0  0  0  0  0  0
   52.8807   -2.8630   -9.4348 N   0  0  0  0  0  0  0  0  0  0  0  0
   51.6758   -2.8486   -8.8685 C   0  0  0  0  0  0  0  0  0  0  0  0
   51.5187   -3.6090   -7.7021 C   0  0  0  0  0  0  0  0  0  0  0  0
   50.1544   -3.4828   -7.2176 C   0  0  0  0  0  0  0  0  0  0  0  0
   49.9733   -3.6570   -5.7791 C   0  0  0  0  0  0  0  0  0  0  0  0
   48.6893   -2.8423   -5.1607 S   0  0  0  0  0  0  0  0  0  0  0  0
   50.6771   -4.3892   -4.7843 N   0  0  0  0  0  0  0  0  0  0  0  0
   51.8358   -5.1955   -4.9829 C   0  0  0  0  0  0  0  0  0  0  0  0
   52.0612   -6.0822   -3.9436 C   0  0  0  0  0  0  0  0  0  0  0  0
   53.1482   -6.9262   -4.0009 C   0  0  0  0  0  0  0  0  0  0  0  0
   53.4427   -8.0649   -2.6706 Cl  0  0  0  0  0  0  0  0  0  0  0  0
   54.0040   -6.8929   -5.0768 C   0  0  0  0  0  0  0  0  0  0  0  0
   53.7787   -6.0139   -6.1049 C   0  0  0  0  0  0  0  0  0  0  0  0
   52.6798   -5.1467   -6.0673 C   0  0  0  0  0  0  0  0  0  0  0  0
   52.6251   -4.2937   -7.2601 C   0  0  0  0  0  0  0  0  0  0  0  0
   53.7977   -4.2510   -7.8924 N   0  0  0  0  0  0  0  0  0  0  0  0
   50.3478   -4.3603   -3.8051 H   0  0  0  0  0  0  0  0  0  0  0  0
   55.2375   -3.5004   -9.6680 N   0  0  0  0  0  0  0  0  0  0  0  0
   55.2706   -2.9064  -10.5550 H   0  0  0  0  0  0  0  0  0  0  0  0
   58.3679   -5.5860   -9.5726 C   0  0  0  0  0  0  0  0  0  0  0  0
   58.6840   -5.4468   -8.2428 C   0  0  0  0  0  0  0  0  0  0  0  0
   57.8939   -4.6912   -7.4025 C   0  0  0  0  0  0  0  0  0  0  0  0
   56.7774   -4.0669   -7.8895 C   0  0  0  0  0  0  0  0  0  0  0  0
   55.7668   -3.0965   -6.8002 Cl  0  0  0  0  0  0  0  0  0  0  0  0
   56.4034   -4.1737   -9.2462 C   0  0  0  0  0  0  0  0  0  0  0  0
   57.2152   -4.9268  -10.0217 C   0  0  0  0  0  0  0  0  0  0  0  0
   59.2261   -6.3906  -10.4683 C   0  0  0  0  0  0  0  0  0  0  0  0
   60.5921   -6.6696   -9.9589 C   0  0  0  0  0  0  0  0  0  0  0  0
   60.9104   -8.0914   -9.6958 C   0  0  0  0  0  0  0  0  0  0  0  0
   62.7093   -7.9842  -11.3131 C   0  0  0  0  0  0  0  0  0  0  0  0
   61.6518   -8.7699  -10.7370 N   0  0  0  0  0  0  0  0  0  0  0  0
   62.1881   -9.9843  -10.0989 C   0  0  0  0  0  0  0  0  0  0  0  0
 31 32  1  0  0  0
 32 33  1  0  0  0
 32 30  1  0  0  0
 30 29  1  0  0  0
 29 28  1  0  0  0
 28 21  1  0  0  0
 21 22  2  0  0  0
 22 23  1  0  0  0
 23 24  2  0  0  0
 24 25  1  0  0  0
 24 26  1  0  0  0
 26 19  1  0  0  0
 19  1  1  0  0  0
  1  2  2  0  0  0
  2  3  1  0  0  0
  3  4  2  0  0  0
  4  5  1  0  0  0
  5  6  1  0  0  0
  6  7  2  0  0  0
  6  8  1  0  0  0
  8  9  1  0  0  0
  9 10  2  0  0  0
 10 11  1  0  0  0
 11 12  1  0  0  0
 11 13  2  0  0  0
 13 14  1  0  0  0
 14 15  2  0  0  0
 15 16  1  0  0  0
 16 17  2  0  0  0
 26 27  2  0  0  0
 27 21  1  0  0  0
 17  1  1  0  0  0
 16  4  1  0  0  0
 15  9  1  0  0  0
 19 20  1  0  0  0
  8 18  1  0  0  0
M  END
> <minimizedAffinity>
-7.47802

> <CNNscore>
0.7284462452

> <CNNaffinity>
7.6673607826

> <CNN_VS>
5.5852603912

> <CNNaffinity_variance>
0.1644156426

$$$$
[H]c1nc(N([H])c2c([H])c(C([H])([H])C([H])([H])C([H])([H])N(C([H])([H])[H])C([H])([H])[H])c([H])c([H])c2Cl)nc2c1C([H])([H])C(=S)N([H])c1c([H])c(Cl)c([H])c([H])c1-2


 33 36  0  0  0  0  0  0  0  0999 V2000
   56.5546   -4.1539  -11.2612 C   0  0  0  0  0  0  0  0  0  0  0  0
   57.5710   -4.7122  -10.6147 N   0  0  0  0  0  0  0  0  0  0  0  0
   57.6318   -5.0999   -9.3423 C   0  0  0  0  0  0  0  0  0  0  0  0
   56.4816   -4.9007   -8.5673 C   0  0  0  0  0  0  0  0  0  0  0  0
   56.7166   -5.3759   -7.2143 C   0  0  0  0  0  0  0  0  0  0  0  0
   55.5333   -5.8211   -6.4836 C   0  0  0  0  0  0  0  0  0  0  0  0
   55.8376   -6.9650   -5.3462 S   0  0  0  0  0  0  0  0  0  0  0  0
   54.1560   -5.4738   -6.5440 N   0  0  0  0  0  0  0  0  0  0  0  0
   53.5570   -4.5223   -7.4202 C   0  0  0  0  0  0  0  0  0  0  0  0
   52.3048   -4.1109   -6.9961 C   0  0  0  0  0  0  0  0  0  0  0  0
   51.6069   -3.1909   -7.7469 C   0  0  0  0  0  0  0  0  0  0  0  0
   50.0003   -2.6603   -7.2081 Cl  0  0  0  0  0  0  0  0  0  0  0  0
   52.1434   -2.6829   -8.9067 C   0  0  0  0  0  0  0  0  0  0  0  0
   53.3837   -3.0918   -9.3248 C   0  0  0  0  0  0  0  0  0  0  0  0
   54.1107   -4.0263   -8.5770 C   0  0  0  0  0  0  0  0  0  0  0  0
   55.4058   -4.3245   -9.1992 C   0  0  0  0  0  0  0  0  0  0  0  0
   55.4328   -3.9658  -10.4827 N   0  0  0  0  0  0  0  0  0  0  0  0
   53.4879   -5.9355   -5.9047 H   0  0  0  0  0  0  0  0  0  0  0  0
   56.5254   -3.7548  -12.6160 N   0  0  0  0  0  0  0  0  0  0  0  0
   55.5403   -3.5742  -12.9869 H   0  0  0  0  0  0  0  0  0  0  0  0
   60.0066   -3.3951  -13.9981 C   0  0  0  0  0  0  0  0  0  0  0  0
   59.6990   -3.2234  -15.3261 C   0  0  0  0  0  0  0  0  0  0  0  0
   58.3886   -3.2257  -15.7554 C   0  0  0  0  0  0  0  0  0  0  0  0
   57.3729   -3.4009  -14.8547 C   0  0  0  0  0  0  0  0  0  0  0  0
   55.6896   -3.4025  -15.4169 Cl  0  0  0  0  0  0  0  0  0  0  0  0
   57.6284   -3.5821  -13.4785 C   0  0  0  0  0  0  0  0  0  0  0  0
   58.9309   -3.5708  -13.1165 C   0  0  0  0  0  0  0  0  0  0  0  0
   61.4150   -3.4004  -13.5481 C   0  0  0  0  0  0  0  0  0  0  0  0
   62.4081   -2.9635  -14.5611 C   0  0  0  0  0  0  0  0  0  0  0  0
   63.6040   -2.2635  -14.0397 C   0  0  0  0  0  0  0  0  0  0  0  0
   63.6425   -0.1469  -12.8641 C   0  0  0  0  0  0  0  0  0  0  0  0
   63.5745   -0.8196  -14.1331 N   0  0  0  0  0  0  0  0  0  0  0  0
   64.7279   -0.4648  -14.9777 C   0  0  0  0  0  0  0  0  0  0  0  0
 31 32  1  0  0  0
 32 33  1  0  0  0
 32 30  1  0  0  0
 30 29  1  0  0  0
 29 28  1  0  0  0
 28 21  1  0  0  0
 21 22  2  0  0  0
 22 23  1  0  0  0
 23 24  2  0  0  0
 24 25  1  0  0  0
 24 26  1  0  0  0
 26 19  1  0  0  0
 19  1  1  0  0  0
  1  2  2  0  0  0
  2  3  1  0  0  0
  3  4  2  0  0  0
  4  5  1  0  0  0
  5  6  1  0  0  0
  6  7  2  0  0  0
  6  8  1  0  0  0
  8  9  1  0  0  0
  9 10  2  0  0  0
 10 11  1  0  0  0
 11 12  1  0  0  0
 11 13  2  0  0  0
 13 14  1  0  0  0
 14 15  2  0  0  0
 15 16  1  0  0  0
 16 17  2  0  0  0
 26 27  2  0  0  0
 27 21  1  0  0  0
 17  1  1  0  0  0
 16  4  1  0  0  0
 15  9  1  0  0  0
 19 20  1  0  0  0
  8 18  1  0  0  0
M  END
> <minimizedAffinity>
-9.01408

> <CNNscore>
0.5035672188

> <CNNaffinity>
6.9983301163

> <CNN_VS>
3.5241296291

> <CNNaffinity_variance>
0.0875522047

$$$$
[H]c1nc(N([H])c2c([H])c(C([H])([H])C([H])([H])C([H])([H])N(C([H])([H])[H])C([H])([H])[H])c([H])c([H])c2Cl)nc2c1C([H])([H])C(=S)N([H])c1c([H])c(Cl)c([H])c([H])c1-2


 33 36  0  0  0  0  0  0  0  0999 V2000
   54.2875   -4.0102   -8.4273 C   0  0  0  0  0  0  0  0  0  0  0  0
   54.8859   -4.7352   -7.4897 N   0  0  0  0  0  0  0  0  0  0  0  0
   56.0569   -5.3661   -7.5508 C   0  0  0  0  0  0  0  0  0  0  0  0
   56.7659   -5.2632   -8.7549 C   0  0  0  0  0  0  0  0  0  0  0  0
   58.0120   -6.0038   -8.6521 C   0  0  0  0  0  0  0  0  0  0  0  0
   59.1051   -5.5266   -9.4947 C   0  0  0  0  0  0  0  0  0  0  0  0
   60.6008   -5.8351   -8.8924 S   0  0  0  0  0  0  0  0  0  0  0  0
   59.1559   -4.8438  -10.7406 N   0  0  0  0  0  0  0  0  0  0  0  0
   58.0426   -4.4244  -11.5259 C   0  0  0  0  0  0  0  0  0  0  0  0
   58.3815   -4.1502  -12.8401 C   0  0  0  0  0  0  0  0  0  0  0  0
   57.4035   -3.7337  -13.7161 C   0  0  0  0  0  0  0  0  0  0  0  0
   57.8326   -3.3799  -15.4024 Cl  0  0  0  0  0  0  0  0  0  0  0  0
   56.1023   -3.5901  -13.2951 C   0  0  0  0  0  0  0  0  0  0  0  0
   55.7690   -3.8623  -11.9932 C   0  0  0  0  0  0  0  0  0  0  0  0
   56.7473   -4.2868  -11.0856 C   0  0  0  0  0  0  0  0  0  0  0  0
   56.1806   -4.5209   -9.7524 C   0  0  0  0  0  0  0  0  0  0  0  0
   54.9997   -3.9207   -9.6040 N   0  0  0  0  0  0  0  0  0  0  0  0
   60.0738   -4.6087  -11.1532 H   0  0  0  0  0  0  0  0  0  0  0  0
   53.0413   -3.3526   -8.3269 N   0  0  0  0  0  0  0  0  0  0  0  0
   52.9085   -2.5767   -9.0486 H   0  0  0  0  0  0  0  0  0  0  0  0
   50.8850   -4.9277   -5.6759 C   0  0  0  0  0  0  0  0  0  0  0  0
   49.8794   -3.9927   -5.6266 C   0  0  0  0  0  0  0  0  0  0  0  0
   49.9080   -2.8787   -6.4387 C   0  0  0  0  0  0  0  0  0  0  0  0
   50.9477   -2.6919   -7.3092 C   0  0  0  0  0  0  0  0  0  0  0  0
   50.9756   -1.2549   -8.3502 Cl  0  0  0  0  0  0  0  0  0  0  0  0
   52.0084   -3.6183   -7.4033 C   0  0  0  0  0  0  0  0  0  0  0  0
   51.9266   -4.6901   -6.5835 C   0  0  0  0  0  0  0  0  0  0  0  0
   50.8507   -6.1145   -4.7948 C   0  0  0  0  0  0  0  0  0  0  0  0
   51.1025   -5.8466   -3.3567 C   0  0  0  0  0  0  0  0  0  0  0  0
   52.5236   -5.7859   -2.9456 C   0  0  0  0  0  0  0  0  0  0  0  0
   54.4992   -6.3382   -4.2321 C   0  0  0  0  0  0  0  0  0  0  0  0
   53.3749   -6.8267   -3.4805 N   0  0  0  0  0  0  0  0  0  0  0  0
   53.8225   -7.5983   -2.3084 C   0  0  0  0  0  0  0  0  0  0  0  0
 31 32  1  0  0  0
 32 33  1  0  0  0
 32 30  1  0  0  0
 30 29  1  0  0  0
 29 28  1  0  0  0
 28 21  1  0  0  0
 21 22  2  0  0  0
 22 23  1  0  0  0
 23 24  2  0  0  0
 24 25  1  0  0  0
 24 26  1  0  0  0
 26 19  1  0  0  0
 19  1  1  0  0  0
  1  2  2  0  0  0
  2  3  1  0  0  0
  3  4  2  0  0  0
  4  5  1  0  0  0
  5  6  1  0  0  0
  6  7  2  0  0  0
  6  8  1  0  0  0
  8  9  1  0  0  0
  9 10  2  0  0  0
 10 11  1  0  0  0
 11 12  1  0  0  0
 11 13  2  0  0  0
 13 14  1  0  0  0
 14 15  2  0  0  0
 15 16  1  0  0  0
 16 17  2  0  0  0
 26 27  2  0  0  0
 27 21  1  0  0  0
 17  1  1  0  0  0
 16  4  1  0  0  0
 15  9  1  0  0  0
 19 20  1  0  0  0
  8 18  1  0  0  0
M  END
> <minimizedAffinity>
-8.13358

> <CNNscore>
0.4919198751

> <CNNaffinity>
7.4657735825

> <CNN_VS>
3.6725623608

> <CNNaffinity_variance>
0.1178298965

$$$$
[H]c1nc(N([H])c2c([H])c(C([H])([H])C([H])([H])C([H])([H])N(C([H])([H])[H])C([H])([H])[H])c([H])c([H])c2Cl)nc2c1C([H])([H])C(=S)N([H])c1c([H])c(Cl)c([H])c([H])c1-2


 33 36  0  0  0  0  0  0  0  0999 V2000
   54.6925   -4.2241   -7.9931 C   0  0  0  0  0  0  0  0  0  0  0  0
   53.7397   -3.5783   -8.6550 N   0  0  0  0  0  0  0  0  0  0  0  0
   52.4470   -3.4724   -8.3538 C   0  0  0  0  0  0  0  0  0  0  0  0
   52.0162   -4.1210   -7.1890 C   0  0  0  0  0  0  0  0  0  0  0  0
   50.5902   -3.9055   -7.0095 C   0  0  0  0  0  0  0  0  0  0  0  0
   50.1111   -3.9457   -5.6307 C   0  0  0  0  0  0  0  0  0  0  0  0
   48.7721   -3.0357   -5.3586 S   0  0  0  0  0  0  0  0  0  0  0  0
   50.5583   -4.6111   -4.4567 N   0  0  0  0  0  0  0  0  0  0  0  0
   51.6896   -5.4713   -4.3461 C   0  0  0  0  0  0  0  0  0  0  0  0
   51.6522   -6.2702   -3.2157 C   0  0  0  0  0  0  0  0  0  0  0  0
   52.6827   -7.1529   -2.9792 C   0  0  0  0  0  0  0  0  0  0  0  0
   52.6403   -8.1792   -1.5308 Cl  0  0  0  0  0  0  0  0  0  0  0  0
   53.7403   -7.2443   -3.8534 C   0  0  0  0  0  0  0  0  0  0  0  0
   53.7751   -6.4522   -4.9722 C   0  0  0  0  0  0  0  0  0  0  0  0
   52.7382   -5.5476   -5.2322 C   0  0  0  0  0  0  0  0  0  0  0  0
   52.9722   -4.8018   -6.4741 C   0  0  0  0  0  0  0  0  0  0  0  0
   54.2497   -4.8556   -6.8508 N   0  0  0  0  0  0  0  0  0  0  0  0
   50.0384   -4.4846   -3.5726 H   0  0  0  0  0  0  0  0  0  0  0  0
   56.0581   -4.3148   -8.3429 N   0  0  0  0  0  0  0  0  0  0  0  0
   56.7152   -4.3193   -7.5010 H   0  0  0  0  0  0  0  0  0  0  0  0
   56.5736   -4.0835  -12.0630 C   0  0  0  0  0  0  0  0  0  0  0  0
   57.8289   -4.6359  -12.1455 C   0  0  0  0  0  0  0  0  0  0  0  0
   58.4866   -5.0712  -11.0145 C   0  0  0  0  0  0  0  0  0  0  0  0
   57.8902   -4.9558   -9.7880 C   0  0  0  0  0  0  0  0  0  0  0  0
   58.7447   -5.5188   -8.3380 Cl  0  0  0  0  0  0  0  0  0  0  0  0
   56.6026   -4.3965   -9.6419 C   0  0  0  0  0  0  0  0  0  0  0  0
   56.0068   -3.9876  -10.7845 C   0  0  0  0  0  0  0  0  0  0  0  0
   55.8796   -3.6110  -13.2800 C   0  0  0  0  0  0  0  0  0  0  0  0
   56.2496   -4.3109  -14.5356 C   0  0  0  0  0  0  0  0  0  0  0  0
   56.7864   -3.4591  -15.6211 C   0  0  0  0  0  0  0  0  0  0  0  0
   57.7393   -4.5339  -17.5706 C   0  0  0  0  0  0  0  0  0  0  0  0
   57.9776   -3.9561  -16.2757 N   0  0  0  0  0  0  0  0  0  0  0  0
   58.8749   -2.7924  -16.3773 C   0  0  0  0  0  0  0  0  0  0  0  0
 31 32  1  0  0  0
 32 33  1  0  0  0
 32 30  1  0  0  0
 30 29  1  0  0  0
 29 28  1  0  0  0
 28 21  1  0  0  0
 21 22  2  0  0  0
 22 23  1  0  0  0
 23 24  2  0  0  0
 24 25  1  0  0  0
 24 26  1  0  0  0
 26 19  1  0  0  0
 19  1  1  0  0  0
  1  2  2  0  0  0
  2  3  1  0  0  0
  3  4  2  0  0  0
  4  5  1  0  0  0
  5  6  1  0  0  0
  6  7  2  0  0  0
  6  8  1  0  0  0
  8  9  1  0  0  0
  9 10  2  0  0  0
 10 11  1  0  0  0
 11 12  1  0  0  0
 11 13  2  0  0  0
 13 14  1  0  0  0
 14 15  2  0  0  0
 15 16  1  0  0  0
 16 17  2  0  0  0
 26 27  2  0  0  0
 27 21  1  0  0  0
 17  1  1  0  0  0
 16  4  1  0  0  0
 15  9  1  0  0  0
 19 20  1  0  0  0
  8 18  1  0  0  0
M  END
> <minimizedAffinity>
-9.13179

> <CNNscore>
0.4707994759

> <CNNaffinity>
7.5830240250

> <CNN_VS>
3.5700836182

> <CNNaffinity_variance>
0.1466797888

$$$$
[H]c1nc(N([H])c2c([H])c(C([H])([H])C([H])([H])C([H])([H])N(C([H])([H])[H])C([H])([H])[H])c([H])c([H])c2Cl)nc2c1C([H])([H])C(=S)N([H])c1c([H])c(Cl)c([H])c([H])c1-2


 33 36  0  0  0  0  0  0  0  0999 V2000
   52.3792   -4.2639   -7.8238 C   0  0  0  0  0  0  0  0  0  0  0  0
   52.9694   -3.7618   -8.9020 N   0  0  0  0  0  0  0  0  0  0  0  0
   54.2668   -3.7346   -9.2001 C   0  0  0  0  0  0  0  0  0  0  0  0
   55.1402   -4.3060   -8.2652 C   0  0  0  0  0  0  0  0  0  0  0  0
   56.5080   -4.1930   -8.7428 C   0  0  0  0  0  0  0  0  0  0  0  0
   57.4331   -5.2175   -8.2665 C   0  0  0  0  0  0  0  0  0  0  0  0
   58.6753   -5.5300   -9.2933 S   0  0  0  0  0  0  0  0  0  0  0  0
   57.4925   -6.0139   -7.0904 N   0  0  0  0  0  0  0  0  0  0  0  0
   56.5701   -5.9952   -6.0038 C   0  0  0  0  0  0  0  0  0  0  0  0
   57.0813   -6.5680   -4.8515 C   0  0  0  0  0  0  0  0  0  0  0  0
   56.2986   -6.6194   -3.7193 C   0  0  0  0  0  0  0  0  0  0  0  0
   56.9487   -7.3535   -2.2389 Cl  0  0  0  0  0  0  0  0  0  0  0  0
   55.0219   -6.1084   -3.7275 C   0  0  0  0  0  0  0  0  0  0  0  0
   54.5178   -5.5416   -4.8699 C   0  0  0  0  0  0  0  0  0  0  0  0
   55.2960   -5.4789   -6.0324 C   0  0  0  0  0  0  0  0  0  0  0  0
   54.5690   -4.8373   -7.1338 C   0  0  0  0  0  0  0  0  0  0  0  0
   53.2541   -4.8211   -6.9162 N   0  0  0  0  0  0  0  0  0  0  0  0
   58.2674   -6.6876   -6.9725 H   0  0  0  0  0  0  0  0  0  0  0  0
   50.9953   -4.2758   -7.5404 N   0  0  0  0  0  0  0  0  0  0  0  0
   50.3840   -4.4253   -8.4033 H   0  0  0  0  0  0  0  0  0  0  0  0
   49.9742   -4.6904   -3.9427 C   0  0  0  0  0  0  0  0  0  0  0  0
   49.0689   -3.6610   -3.8513 C   0  0  0  0  0  0  0  0  0  0  0  0
   48.8015   -2.8547   -4.9376 C   0  0  0  0  0  0  0  0  0  0  0  0
   49.4412   -3.0741   -6.1276 C   0  0  0  0  0  0  0  0  0  0  0  0
   49.0905   -2.0310   -7.5199 Cl  0  0  0  0  0  0  0  0  0  0  0  0
   50.3810   -4.1160   -6.2805 C   0  0  0  0  0  0  0  0  0  0  0  0
   50.6023   -4.8731   -5.1825 C   0  0  0  0  0  0  0  0  0  0  0  0
   50.2614   -5.5441   -2.7702 C   0  0  0  0  0  0  0  0  0  0  0  0
   51.4132   -6.4679   -2.9228 C   0  0  0  0  0  0  0  0  0  0  0  0
   51.7682   -7.2676   -1.7284 C   0  0  0  0  0  0  0  0  0  0  0  0
   51.5701   -9.6652   -1.4537 C   0  0  0  0  0  0  0  0  0  0  0  0
   50.9017   -8.3922   -1.4479 N   0  0  0  0  0  0  0  0  0  0  0  0
   50.3213   -8.1101   -0.1237 C   0  0  0  0  0  0  0  0  0  0  0  0
 31 32  1  0  0  0
 32 33  1  0  0  0
 32 30  1  0  0  0
 30 29  1  0  0  0
 29 28  1  0  0  0
 28 21  1  0  0  0
 21 22  2  0  0  0
 22 23  1  0  0  0
 23 24  2  0  0  0
 24 25  1  0  0  0
 24 26  1  0  0  0
 26 19  1  0  0  0
 19  1  1  0  0  0
  1  2  2  0  0  0
  2  3  1  0  0  0
  3  4  2  0  0  0
  4  5  1  0  0  0
  5  6  1  0  0  0
  6  7  2  0  0  0
  6  8  1  0  0  0
  8  9  1  0  0  0
  9 10  2  0  0  0
 10 11  1  0  0  0
 11 12  1  0  0  0
 11 13  2  0  0  0
 13 14  1  0  0  0
 14 15  2  0  0  0
 15 16  1  0  0  0
 16 17  2  0  0  0
 26 27  2  0  0  0
 27 21  1  0  0  0
 17  1  1  0  0  0
 16  4  1  0  0  0
 15  9  1  0  0  0
 19 20  1  0  0  0
  8 18  1  0  0  0
M  END
> <minimizedAffinity>
-9.40448

> <CNNscore>
0.4576139450

> <CNNaffinity>
7.9987001419

> <CNN_VS>
3.6603167057

> <CNNaffinity_variance>
0.1336570531

$$$$
[H]c1nc(N([H])c2c([H])c(C([H])([H])C([H])([H])C([H])([H])N(C([H])([H])[H])C([H])([H])[H])c([H])c([H])c2Cl)nc2c1C([H])([H])C(=S)N([H])c1c([H])c(Cl)c([H])c([H])c1-2


 33 36  0  0  0  0  0  0  0  0999 V2000
   56.5869   -4.1740  -11.3277 C   0  0  0  0  0  0  0  0  0  0  0  0
   57.6149   -4.7121  -10.6822 N   0  0  0  0  0  0  0  0  0  0  0  0
   57.6899   -5.0833   -9.4057 C   0  0  0  0  0  0  0  0  0  0  0  0
   56.5434   -4.8882   -8.6243 C   0  0  0  0  0  0  0  0  0  0  0  0
   56.7944   -5.3438   -7.2674 C   0  0  0  0  0  0  0  0  0  0  0  0
   55.6221   -5.7939   -6.5222 C   0  0  0  0  0  0  0  0  0  0  0  0
   55.9487   -6.9199   -5.3731 S   0  0  0  0  0  0  0  0  0  0  0  0
   54.2403   -5.4639   -6.5762 N   0  0  0  0  0  0  0  0  0  0  0  0
   53.6233   -4.5306   -7.4594 C   0  0  0  0  0  0  0  0  0  0  0  0
   52.3695   -4.1289   -7.0306 C   0  0  0  0  0  0  0  0  0  0  0  0
   51.6548   -3.2267   -7.7873 C   0  0  0  0  0  0  0  0  0  0  0  0
   50.0461   -2.7086   -7.2426 Cl  0  0  0  0  0  0  0  0  0  0  0  0
   52.1764   -2.7267   -8.9574 C   0  0  0  0  0  0  0  0  0  0  0  0
   53.4183   -3.1260   -9.3800 C   0  0  0  0  0  0  0  0  0  0  0  0
   54.1621   -4.0424   -8.6264 C   0  0  0  0  0  0  0  0  0  0  0  0
   55.4560   -4.3328   -9.2549 C   0  0  0  0  0  0  0  0  0  0  0  0
   55.4688   -3.9898  -10.5429 N   0  0  0  0  0  0  0  0  0  0  0  0
   53.5827   -5.9256   -5.9261 H   0  0  0  0  0  0  0  0  0  0  0  0
   56.5427   -3.7922  -12.6870 N   0  0  0  0  0  0  0  0  0  0  0  0
   55.5527   -3.6275  -13.0523 H   0  0  0  0  0  0  0  0  0  0  0  0
   60.0110   -3.4672  -14.1093 C   0  0  0  0  0  0  0  0  0  0  0  0
   59.6885   -3.2485  -15.4269 C   0  0  0  0  0  0  0  0  0  0  0  0
   58.3724   -3.2090  -15.8365 C   0  0  0  0  0  0  0  0  0  0  0  0
   57.3660   -3.3891  -14.9265 C   0  0  0  0  0  0  0  0  0  0  0  0
   55.6752   -3.3366  -15.4633 Cl  0  0  0  0  0  0  0  0  0  0  0  0
   57.6369   -3.6177  -13.5603 C   0  0  0  0  0  0  0  0  0  0  0  0
   58.9443   -3.6459  -13.2175 C   0  0  0  0  0  0  0  0  0  0  0  0
   61.4252   -3.5171  -13.6807 C   0  0  0  0  0  0  0  0  0  0  0  0
   62.2102   -4.6605  -14.2097 C   0  0  0  0  0  0  0  0  0  0  0  0
   62.9857   -5.4334  -13.2131 C   0  0  0  0  0  0  0  0  0  0  0  0
   63.6805   -7.6338  -13.9472 C   0  0  0  0  0  0  0  0  0  0  0  0
   62.7337   -6.8584  -13.1924 N   0  0  0  0  0  0  0  0  0  0  0  0
   62.7643   -7.2340  -11.7684 C   0  0  0  0  0  0  0  0  0  0  0  0
 31 32  1  0  0  0
 32 33  1  0  0  0
 32 30  1  0  0  0
 30 29  1  0  0  0
 29 28  1  0  0  0
 28 21  1  0  0  0
 21 22  2  0  0  0
 22 23  1  0  0  0
 23 24  2  0  0  0
 24 25  1  0  0  0
 24 26  1  0  0  0
 26 19  1  0  0  0
 19  1  1  0  0  0
  1  2  2  0  0  0
  2  3  1  0  0  0
  3  4  2  0  0  0
  4  5  1  0  0  0
  5  6  1  0  0  0
  6  7  2  0  0  0
  6  8  1  0  0  0
  8  9  1  0  0  0
  9 10  2  0  0  0
 10 11  1  0  0  0
 11 12  1  0  0  0
 11 13  2  0  0  0
 13 14  1  0  0  0
 14 15  2  0  0  0
 15 16  1  0  0  0
 16 17  2  0  0  0
 26 27  2  0  0  0
 27 21  1  0  0  0
 17  1  1  0  0  0
 16  4  1  0  0  0
 15  9  1  0  0  0
 19 20  1  0  0  0
  8 18  1  0  0  0
M  END
> <minimizedAffinity>
-8.78765

> <CNNscore>
0.4320514500

> <CNNaffinity>
6.8871841431

> <CNN_VS>
2.9756178856

> <CNNaffinity_variance>
0.1098112017

$$$$
[H]c1nc([H])c(-c2c([H])c([H])c3nc([H])n(-c4sc(C(=O)N([H])[H])c(O[C@@]([H])(c5c([H])c([H])c([H])c([H])c5C(F)(F)F)C([H])([H])[H])c4[H])c3c2[H])c([H])c1[H]


 38 42  0  0  0  0  0  0  0  0999 V2000
   56.3547   -5.1280   -7.4411 C   0  0  0  0  0  0  0  0  0  0  0  0
   55.1283   -4.6018   -7.2763 C   0  0  0  0  0  0  0  0  0  0  0  0
   54.5238   -4.0362   -8.3675 C   0  0  0  0  0  0  0  0  0  0  0  0
   55.6798   -4.2518   -9.5959 S   0  0  0  0  0  0  0  0  0  0  0  0
   56.8920   -5.0469   -8.7061 C   0  0  0  0  0  0  0  0  0  0  0  0
   53.2151   -3.4146   -8.4185 N   0  0  0  0  0  0  0  0  0  0  0  0
   52.7326   -2.5603   -9.3380 C   0  0  0  0  0  0  0  0  0  0  0  0
   51.4709   -2.2201   -9.0145 N   0  0  0  0  0  0  0  0  0  0  0  0
   51.1566   -2.8680   -7.8783 C   0  0  0  0  0  0  0  0  0  0  0  0
   50.0269   -2.9111   -7.0875 C   0  0  0  0  0  0  0  0  0  0  0  0
   50.0448   -3.7028   -5.9585 C   0  0  0  0  0  0  0  0  0  0  0  0
   51.1167   -4.4600   -5.5587 C   0  0  0  0  0  0  0  0  0  0  0  0
   52.2525   -4.4065   -6.3683 C   0  0  0  0  0  0  0  0  0  0  0  0
   52.2706   -3.6247   -7.5064 C   0  0  0  0  0  0  0  0  0  0  0  0
   51.1049   -5.2883   -4.3581 C   0  0  0  0  0  0  0  0  0  0  0  0
   52.0992   -6.2274   -4.1673 C   0  0  0  0  0  0  0  0  0  0  0  0
   52.1287   -7.0351   -3.0460 C   0  0  0  0  0  0  0  0  0  0  0  0
   51.1427   -6.9157   -2.0733 C   0  0  0  0  0  0  0  0  0  0  0  0
   50.1794   -5.9986   -2.2686 N   0  0  0  0  0  0  0  0  0  0  0  0
   50.1439   -5.1983   -3.3726 C   0  0  0  0  0  0  0  0  0  0  0  0
   58.2145   -5.5451   -9.1495 C   0  0  0  0  0  0  0  0  0  0  0  0
   59.2198   -5.7678   -8.2007 N   0  0  0  0  0  0  0  0  0  0  0  0
   58.4287   -5.7632  -10.3541 O   0  0  0  0  0  0  0  0  0  0  0  0
   59.6394   -4.9942   -7.6116 H   0  0  0  0  0  0  0  0  0  0  0  0
   59.5669   -6.7448   -8.0740 H   0  0  0  0  0  0  0  0  0  0  0  0
   57.1025   -5.7494   -6.3945 O   0  0  0  0  0  0  0  0  0  0  0  0
   55.1737   -7.1213   -6.0132 C   0  0  0  0  0  0  0  0  0  0  0  0
   56.5413   -6.6063   -5.4625 C   0  0  0  0  0  0  0  0  0  0  0  0
   56.4079   -6.1955   -4.0806 C   0  0  0  0  0  0  0  0  0  0  0  0
   55.3909   -5.2810   -3.7840 C   0  0  0  0  0  0  0  0  0  0  0  0
   55.1262   -4.8121   -2.5195 C   0  0  0  0  0  0  0  0  0  0  0  0
   55.8850   -5.2486   -1.4764 C   0  0  0  0  0  0  0  0  0  0  0  0
   56.8838   -6.1443   -1.7590 C   0  0  0  0  0  0  0  0  0  0  0  0
   57.1637   -6.6249   -3.0224 C   0  0  0  0  0  0  0  0  0  0  0  0
   58.2685   -7.5446   -3.1820 C   0  0  0  0  0  0  0  0  0  0  0  0
   59.0434   -7.4209   -4.3040 F   0  0  0  0  0  0  0  0  0  0  0  0
   59.1652   -7.3739   -2.1375 F   0  0  0  0  0  0  0  0  0  0  0  0
   57.8654   -8.8890   -3.0049 F   0  0  0  0  0  0  0  0  0  0  0  0
 27 28  1  0  0  0
 28 26  1  0  0  0
 26  1  1  0  0  0
  1  2  1  0  0  0
  2  3  2  0  0  0
  3  4  1  0  0  0
  4  5  1  0  0  0
  5 21  1  0  0  0
 21 22  1  0  0  0
 21 23  2  0  0  0
  3  6  1  0  0  0
  6  7  1  0  0  0
  7  8  2  0  0  0
  8  9  1  0  0  0
  9 10  2  0  0  0
 10 11  1  0  0  0
 11 12  2  0  0  0
 12 13  1  0  0  0
 13 14  2  0  0  0
 12 15  1  0  0  0
 15 16  2  0  0  0
 16 17  1  0  0  0
 17 18  2  0  0  0
 18 19  1  0  0  0
 19 20  2  0  0  0
 28 29  1  0  0  0
 29 30  2  0  0  0
 30 31  1  0  0  0
 31 32  2  0  0  0
 32 33  1  0  0  0
 33 34  2  0  0  0
 34 35  1  0  0  0
 35 36  1  0  0  0
 35 37  1  0  0  0
 35 38  1  0  0  0
  5  1  2  0  0  0
 14  6  1  0  0  0
 20 15  1  0  0  0
 34 29  1  0  0  0
 14  9  1  0  0  0
 22 24  1  0  0  0
 22 25  1  0  0  0
M  END
> <minimizedAffinity>
-10.06828

> <CNNscore>
0.7426508069

> <CNNaffinity>
7.9856462479

> <CNN_VS>
5.9305467606

> <CNNaffinity_variance>
0.1273085177

$$$$
[H]c1nc([H])c(-c2c([H])c([H])c3nc([H])n(-c4sc(C(=O)N([H])[H])c(O[C@@]([H])(c5c([H])c([H])c([H])c([H])c5C(F)(F)F)C([H])([H])[H])c4[H])c3c2[H])c([H])c1[H]


 38 42  0  0  0  0  0  0  0  0999 V2000
   52.8489   -4.4370   -7.5826 C   0  0  0  0  0  0  0  0  0  0  0  0
   54.0430   -5.0521   -7.5186 C   0  0  0  0  0  0  0  0  0  0  0  0
   55.1178   -4.4216   -8.0872 C   0  0  0  0  0  0  0  0  0  0  0  0
   54.4375   -2.9873   -8.6969 S   0  0  0  0  0  0  0  0  0  0  0  0
   52.8207   -3.2177   -8.2214 C   0  0  0  0  0  0  0  0  0  0  0  0
   56.4863   -4.8976   -8.1356 N   0  0  0  0  0  0  0  0  0  0  0  0
   57.2397   -5.3746   -7.1292 C   0  0  0  0  0  0  0  0  0  0  0  0
   58.4558   -5.7090   -7.5999 N   0  0  0  0  0  0  0  0  0  0  0  0
   58.4671   -5.4389   -8.9177 C   0  0  0  0  0  0  0  0  0  0  0  0
   59.4175   -5.5705   -9.9090 C   0  0  0  0  0  0  0  0  0  0  0  0
   59.0870   -5.1864  -11.1916 C   0  0  0  0  0  0  0  0  0  0  0  0
   57.8675   -4.6764  -11.5588 C   0  0  0  0  0  0  0  0  0  0  0  0
   56.9159   -4.5489  -10.5456 C   0  0  0  0  0  0  0  0  0  0  0  0
   57.2116   -4.9236   -9.2498 C   0  0  0  0  0  0  0  0  0  0  0  0
   57.5477   -4.2788  -12.9253 C   0  0  0  0  0  0  0  0  0  0  0  0
   56.3131   -4.5956  -13.4569 C   0  0  0  0  0  0  0  0  0  0  0  0
   55.9661   -4.2404  -14.7469 C   0  0  0  0  0  0  0  0  0  0  0  0
   56.8670   -3.5466  -15.5465 C   0  0  0  0  0  0  0  0  0  0  0  0
   58.0659   -3.2431  -15.0195 N   0  0  0  0  0  0  0  0  0  0  0  0
   58.4152   -3.5904  -13.7476 C   0  0  0  0  0  0  0  0  0  0  0  0
   51.6432   -2.3428   -8.4264 C   0  0  0  0  0  0  0  0  0  0  0  0
   50.3698   -2.8091   -8.0777 N   0  0  0  0  0  0  0  0  0  0  0  0
   51.7858   -1.2043   -8.9040 O   0  0  0  0  0  0  0  0  0  0  0  0
   49.9113   -3.6409   -8.5463 H   0  0  0  0  0  0  0  0  0  0  0  0
   49.8546   -2.3082   -7.3197 H   0  0  0  0  0  0  0  0  0  0  0  0
   51.6448   -4.9751   -7.0338 O   0  0  0  0  0  0  0  0  0  0  0  0
   50.3294   -6.9221   -6.5581 C   0  0  0  0  0  0  0  0  0  0  0  0
   51.6122   -6.0973   -6.2229 C   0  0  0  0  0  0  0  0  0  0  0  0
   51.7697   -5.9668   -4.7895 C   0  0  0  0  0  0  0  0  0  0  0  0
   52.8659   -6.6141   -4.2083 C   0  0  0  0  0  0  0  0  0  0  0  0
   53.1608   -6.5677   -2.8668 C   0  0  0  0  0  0  0  0  0  0  0  0
   52.3532   -5.8559   -2.0329 C   0  0  0  0  0  0  0  0  0  0  0  0
   51.2768   -5.2193   -2.5947 C   0  0  0  0  0  0  0  0  0  0  0  0
   50.9655   -5.2557   -3.9392 C   0  0  0  0  0  0  0  0  0  0  0  0
   49.7801   -4.5621   -4.3923 C   0  0  0  0  0  0  0  0  0  0  0  0
   48.7933   -5.3057   -4.9823 F   0  0  0  0  0  0  0  0  0  0  0  0
   49.1485   -3.9713   -3.3077 F   0  0  0  0  0  0  0  0  0  0  0  0
   50.0990   -3.4397   -5.1922 F   0  0  0  0  0  0  0  0  0  0  0  0
 27 28  1  0  0  0
 28 26  1  0  0  0
 26  1  1  0  0  0
  1  2  1  0  0  0
  2  3  2  0  0  0
  3  4  1  0  0  0
  4  5  1  0  0  0
  5 21  1  0  0  0
 21 22  1  0  0  0
 21 23  2  0  0  0
  3  6  1  0  0  0
  6  7  1  0  0  0
  7  8  2  0  0  0
  8  9  1  0  0  0
  9 10  2  0  0  0
 10 11  1  0  0  0
 11 12  2  0  0  0
 12 13  1  0  0  0
 13 14  2  0  0  0
 12 15  1  0  0  0
 15 16  2  0  0  0
 16 17  1  0  0  0
 17 18  2  0  0  0
 18 19  1  0  0  0
 19 20  2  0  0  0
 28 29  1  0  0  0
 29 30  2  0  0  0
 30 31  1  0  0  0
 31 32  2  0  0  0
 32 33  1  0  0  0
 33 34  2  0  0  0
 34 35  1  0  0  0
 35 36  1  0  0  0
 35 37  1  0  0  0
 35 38  1  0  0  0
  5  1  2  0  0  0
 14  6  1  0  0  0
 20 15  1  0  0  0
 34 29  1  0  0  0
 14  9  1  0  0  0
 22 24  1  0  0  0
 22 25  1  0  0  0
M  END
> <minimizedAffinity>
-8.98541

> <CNNscore>
0.5991320610

> <CNNaffinity>
7.6049070358

> <CNN_VS>
4.5563435555

> <CNNaffinity_variance>
0.2219005078

$$$$
[H]c1nc([H])c(-c2c([H])c([H])c3nc([H])n(-c4sc(C(=O)N([H])[H])c(O[C@@]([H])(c5c([H])c([H])c([H])c([H])c5C(F)(F)F)C([H])([H])[H])c4[H])c3c2[H])c([H])c1[H]


 38 42  0  0  0  0  0  0  0  0999 V2000
   56.3440   -5.0024   -7.3373 C   0  0  0  0  0  0  0  0  0  0  0  0
   55.1182   -4.4695   -7.1909 C   0  0  0  0  0  0  0  0  0  0  0  0
   54.4831   -4.0098   -8.3140 C   0  0  0  0  0  0  0  0  0  0  0  0
   55.6103   -4.3316   -9.5459 S   0  0  0  0  0  0  0  0  0  0  0  0
   56.8496   -5.0352   -8.6174 C   0  0  0  0  0  0  0  0  0  0  0  0
   53.1689   -3.4022   -8.3892 N   0  0  0  0  0  0  0  0  0  0  0  0
   52.6910   -2.5610   -9.3229 C   0  0  0  0  0  0  0  0  0  0  0  0
   51.4214   -2.2310   -9.0205 N   0  0  0  0  0  0  0  0  0  0  0  0
   51.0974   -2.8722   -7.8832 C   0  0  0  0  0  0  0  0  0  0  0  0
   49.9570   -2.9202   -7.1083 C   0  0  0  0  0  0  0  0  0  0  0  0
   49.9667   -3.7019   -5.9722 C   0  0  0  0  0  0  0  0  0  0  0  0
   51.0404   -4.4444   -5.5506 C   0  0  0  0  0  0  0  0  0  0  0  0
   52.1871   -4.3862   -6.3443 C   0  0  0  0  0  0  0  0  0  0  0  0
   52.2136   -3.6142   -7.4889 C   0  0  0  0  0  0  0  0  0  0  0  0
   51.0198   -5.2624   -4.3430 C   0  0  0  0  0  0  0  0  0  0  0  0
   52.0022   -6.2127   -4.1458 C   0  0  0  0  0  0  0  0  0  0  0  0
   52.0230   -7.0112   -3.0177 C   0  0  0  0  0  0  0  0  0  0  0  0
   51.0402   -6.8710   -2.0446 C   0  0  0  0  0  0  0  0  0  0  0  0
   50.0885   -5.9431   -2.2463 N   0  0  0  0  0  0  0  0  0  0  0  0
   50.0617   -5.1518   -3.3569 C   0  0  0  0  0  0  0  0  0  0  0  0
   58.1646   -5.5654   -9.0461 C   0  0  0  0  0  0  0  0  0  0  0  0
   59.1941   -5.6957   -8.1061 N   0  0  0  0  0  0  0  0  0  0  0  0
   58.3512   -5.8915  -10.2308 O   0  0  0  0  0  0  0  0  0  0  0  0
   59.6222   -4.8694   -7.6005 H   0  0  0  0  0  0  0  0  0  0  0  0
   59.5511   -6.6553   -7.8995 H   0  0  0  0  0  0  0  0  0  0  0  0
   57.1218   -5.5210   -6.2570 O   0  0  0  0  0  0  0  0  0  0  0  0
   55.3167   -7.0528   -5.8787 C   0  0  0  0  0  0  0  0  0  0  0  0
   56.8065   -6.6894   -5.5837 C   0  0  0  0  0  0  0  0  0  0  0  0
   57.0874   -6.8149   -4.1689 C   0  0  0  0  0  0  0  0  0  0  0  0
   57.9193   -7.8696   -3.7764 C   0  0  0  0  0  0  0  0  0  0  0  0
   58.2934   -8.1079   -2.4757 C   0  0  0  0  0  0  0  0  0  0  0  0
   57.8405   -7.2824   -1.4920 C   0  0  0  0  0  0  0  0  0  0  0  0
   57.0245   -6.2469   -1.8684 C   0  0  0  0  0  0  0  0  0  0  0  0
   56.6385   -5.9935   -3.1693 C   0  0  0  0  0  0  0  0  0  0  0  0
   55.7474   -4.8825   -3.4210 C   0  0  0  0  0  0  0  0  0  0  0  0
   56.2480   -3.8062   -4.1035 F   0  0  0  0  0  0  0  0  0  0  0  0
   54.6868   -5.3106   -4.2060 F   0  0  0  0  0  0  0  0  0  0  0  0
   55.0875   -4.4583   -2.2437 F   0  0  0  0  0  0  0  0  0  0  0  0
 27 28  1  0  0  0
 28 26  1  0  0  0
 26  1  1  0  0  0
  1  2  1  0  0  0
  2  3  2  0  0  0
  3  4  1  0  0  0
  4  5  1  0  0  0
  5 21  1  0  0  0
 21 22  1  0  0  0
 21 23  2  0  0  0
  3  6  1  0  0  0
  6  7  1  0  0  0
  7  8  2  0  0  0
  8  9  1  0  0  0
  9 10  2  0  0  0
 10 11  1  0  0  0
 11 12  2  0  0  0
 12 13  1  0  0  0
 13 14  2  0  0  0
 12 15  1  0  0  0
 15 16  2  0  0  0
 16 17  1  0  0  0
 17 18  2  0  0  0
 18 19  1  0  0  0
 19 20  2  0  0  0
 28 29  1  0  0  0
 29 30  2  0  0  0
 30 31  1  0  0  0
 31 32  2  0  0  0
 32 33  1  0  0  0
 33 34  2  0  0  0
 34 35  1  0  0  0
 35 36  1  0  0  0
 35 37  1  0  0  0
 35 38  1  0  0  0
  5  1  2  0  0  0
 14  6  1  0  0  0
 20 15  1  0  0  0
 34 29  1  0  0  0
 14  9  1  0  0  0
 22 24  1  0  0  0
 22 25  1  0  0  0
M  END
> <minimizedAffinity>
-9.70268

> <CNNscore>
0.5919811726

> <CNNaffinity>
7.8485441208

> <CNN_VS>
4.6461901665

> <CNNaffinity_variance>
0.2337356806

$$$$
[H]c1nc([H])c(-c2c([H])c([H])c3nc([H])n(-c4sc(C(=O)N([H])[H])c(O[C@@]([H])(c5c([H])c([H])c([H])c([H])c5C(F)(F)F)C([H])([H])[H])c4[H])c3c2[H])c([H])c1[H]


 38 42  0  0  0  0  0  0  0  0999 V2000
   52.8008   -4.4911   -7.9700 C   0  0  0  0  0  0  0  0  0  0  0  0
   53.9939   -5.1108   -7.9946 C   0  0  0  0  0  0  0  0  0  0  0  0
   55.0982   -4.3591   -8.2975 C   0  0  0  0  0  0  0  0  0  0  0  0
   54.4461   -2.8075   -8.5404 S   0  0  0  0  0  0  0  0  0  0  0  0
   52.8033   -3.1441   -8.2551 C   0  0  0  0  0  0  0  0  0  0  0  0
   56.4715   -4.8159   -8.3807 N   0  0  0  0  0  0  0  0  0  0  0  0
   57.2463   -5.3125   -7.4004 C   0  0  0  0  0  0  0  0  0  0  0  0
   58.4590   -5.6174   -7.8992 N   0  0  0  0  0  0  0  0  0  0  0  0
   58.4464   -5.3087   -9.2084 C   0  0  0  0  0  0  0  0  0  0  0  0
   59.3828   -5.3991  -10.2176 C   0  0  0  0  0  0  0  0  0  0  0  0
   59.0277   -4.9818  -11.4831 C   0  0  0  0  0  0  0  0  0  0  0  0
   57.7964   -4.4770  -11.8165 C   0  0  0  0  0  0  0  0  0  0  0  0
   56.8592   -4.3914  -10.7856 C   0  0  0  0  0  0  0  0  0  0  0  0
   57.1797   -4.8000   -9.5061 C   0  0  0  0  0  0  0  0  0  0  0  0
   57.4505   -4.0437  -13.1657 C   0  0  0  0  0  0  0  0  0  0  0  0
   58.4472   -3.6203  -14.0228 C   0  0  0  0  0  0  0  0  0  0  0  0
   58.1672   -3.2001  -15.3096 C   0  0  0  0  0  0  0  0  0  0  0  0
   56.8565   -3.1955  -15.7730 C   0  0  0  0  0  0  0  0  0  0  0  0
   55.8940   -3.6095  -14.9308 N   0  0  0  0  0  0  0  0  0  0  0  0
   56.1629   -4.0254  -13.6599 C   0  0  0  0  0  0  0  0  0  0  0  0
   51.6336   -2.2363   -8.2943 C   0  0  0  0  0  0  0  0  0  0  0  0
   50.4906   -2.5535   -7.5504 N   0  0  0  0  0  0  0  0  0  0  0  0
   51.6678   -1.2018   -8.9822 O   0  0  0  0  0  0  0  0  0  0  0  0
   49.9049   -3.4171   -7.7319 H   0  0  0  0  0  0  0  0  0  0  0  0
   50.2088   -1.9035   -6.7829 H   0  0  0  0  0  0  0  0  0  0  0  0
   51.5680   -5.1473   -7.6698 O   0  0  0  0  0  0  0  0  0  0  0  0
   50.3354   -7.1386   -7.1564 C   0  0  0  0  0  0  0  0  0  0  0  0
   51.4460   -6.1364   -6.7082 C   0  0  0  0  0  0  0  0  0  0  0  0
   51.2757   -5.7824   -5.3146 C   0  0  0  0  0  0  0  0  0  0  0  0
   50.0085   -5.3373   -4.9215 C   0  0  0  0  0  0  0  0  0  0  0  0
   49.6854   -4.9844   -3.6332 C   0  0  0  0  0  0  0  0  0  0  0  0
   50.6381   -5.0638   -2.6634 C   0  0  0  0  0  0  0  0  0  0  0  0
   51.8824   -5.4985   -3.0408 C   0  0  0  0  0  0  0  0  0  0  0  0
   52.2242   -5.8563   -4.3296 C   0  0  0  0  0  0  0  0  0  0  0  0
   53.5851   -6.2686   -4.5936 C   0  0  0  0  0  0  0  0  0  0  0  0
   54.5323   -5.2894   -4.7302 F   0  0  0  0  0  0  0  0  0  0  0  0
   54.0486   -7.0348   -3.5341 F   0  0  0  0  0  0  0  0  0  0  0  0
   53.6597   -7.1829   -5.6705 F   0  0  0  0  0  0  0  0  0  0  0  0
 27 28  1  0  0  0
 28 26  1  0  0  0
 26  1  1  0  0  0
  1  2  1  0  0  0
  2  3  2  0  0  0
  3  4  1  0  0  0
  4  5  1  0  0  0
  5 21  1  0  0  0
 21 22  1  0  0  0
 21 23  2  0  0  0
  3  6  1  0  0  0
  6  7  1  0  0  0
  7  8  2  0  0  0
  8  9  1  0  0  0
  9 10  2  0  0  0
 10 11  1  0  0  0
 11 12  2  0  0  0
 12 13  1  0  0  0
 13 14  2  0  0  0
 12 15  1  0  0  0
 15 16  2  0  0  0
 16 17  1  0  0  0
 17 18  2  0  0  0
 18 19  1  0  0  0
 19 20  2  0  0  0
 28 29  1  0  0  0
 29 30  2  0  0  0
 30 31  1  0  0  0
 31 32  2  0  0  0
 32 33  1  0  0  0
 33 34  2  0  0  0
 34 35  1  0  0  0
 35 36  1  0  0  0
 35 37  1  0  0  0
 35 38  1  0  0  0
  5  1  2  0  0  0
 14  6  1  0  0  0
 20 15  1  0  0  0
 34 29  1  0  0  0
 14  9  1  0  0  0
 22 24  1  0  0  0
 22 25  1  0  0  0
M  END
> <minimizedAffinity>
-9.05349

> <CNNscore>
0.5900932550

> <CNNaffinity>
7.7210998535

> <CNN_VS>
4.5561690331

> <CNNaffinity_variance>
0.1263558269

$$$$
[H]c1nc([H])c(-c2c([H])c([H])c3nc([H])n(-c4sc(C(=O)N([H])[H])c(O[C@@]([H])(c5c([H])c([H])c([H])c([H])c5C(F)(F)F)C([H])([H])[H])c4[H])c3c2[H])c([H])c1[H]


 38 42  0  0  0  0  0  0  0  0999 V2000
   56.4353   -3.9123  -10.0374 C   0  0  0  0  0  0  0  0  0  0  0  0
   55.1711   -3.4774   -9.8933 C   0  0  0  0  0  0  0  0  0  0  0  0
   54.4763   -3.8881   -8.7867 C   0  0  0  0  0  0  0  0  0  0  0  0
   55.6023   -4.8703   -7.9747 S   0  0  0  0  0  0  0  0  0  0  0  0
   56.9161   -4.7389   -9.0469 C   0  0  0  0  0  0  0  0  0  0  0  0
   53.1128   -3.5455   -8.4327 N   0  0  0  0  0  0  0  0  0  0  0  0
   52.2637   -2.7274   -9.0789 C   0  0  0  0  0  0  0  0  0  0  0  0
   51.0927   -2.6837   -8.4164 N   0  0  0  0  0  0  0  0  0  0  0  0
   51.2070   -3.4836   -7.3409 C   0  0  0  0  0  0  0  0  0  0  0  0
   50.3512   -3.8294   -6.3154 C   0  0  0  0  0  0  0  0  0  0  0  0
   50.8039   -4.7008   -5.3472 C   0  0  0  0  0  0  0  0  0  0  0  0
   52.0583   -5.2560   -5.3283 C   0  0  0  0  0  0  0  0  0  0  0  0
   52.9131   -4.8972   -6.3718 C   0  0  0  0  0  0  0  0  0  0  0  0
   52.4939   -4.0272   -7.3589 C   0  0  0  0  0  0  0  0  0  0  0  0
   52.5081   -6.1757   -4.2893 C   0  0  0  0  0  0  0  0  0  0  0  0
   51.6332   -6.5590   -3.2920 C   0  0  0  0  0  0  0  0  0  0  0  0
   52.0148   -7.4274   -2.2866 C   0  0  0  0  0  0  0  0  0  0  0  0
   53.3068   -7.9399   -2.2595 C   0  0  0  0  0  0  0  0  0  0  0  0
   54.1505   -7.5605   -3.2349 N   0  0  0  0  0  0  0  0  0  0  0  0
   53.7809   -6.7040   -4.2300 C   0  0  0  0  0  0  0  0  0  0  0  0
   58.2633   -5.3495   -8.9676 C   0  0  0  0  0  0  0  0  0  0  0  0
   58.8948   -5.7789  -10.1412 N   0  0  0  0  0  0  0  0  0  0  0  0
   58.8273   -5.4790   -7.8678 O   0  0  0  0  0  0  0  0  0  0  0  0
   58.5114   -6.5539  -10.7528 H   0  0  0  0  0  0  0  0  0  0  0  0
   59.7848   -5.3084  -10.4196 H   0  0  0  0  0  0  0  0  0  0  0  0
   57.2769   -3.5653  -11.1383 O   0  0  0  0  0  0  0  0  0  0  0  0
   56.3992   -5.2864  -12.5579 C   0  0  0  0  0  0  0  0  0  0  0  0
   56.9518   -3.8292  -12.4584 C   0  0  0  0  0  0  0  0  0  0  0  0
   57.9143   -3.5800  -13.5109 C   0  0  0  0  0  0  0  0  0  0  0  0
   59.2619   -3.5158  -13.1386 C   0  0  0  0  0  0  0  0  0  0  0  0
   60.2925   -3.3066  -14.0233 C   0  0  0  0  0  0  0  0  0  0  0  0
   60.0113   -3.1495  -15.3464 C   0  0  0  0  0  0  0  0  0  0  0  0
   58.6933   -3.2105  -15.7190 C   0  0  0  0  0  0  0  0  0  0  0  0
   57.6460   -3.4192  -14.8441 C   0  0  0  0  0  0  0  0  0  0  0  0
   56.2989   -3.4301  -15.3702 C   0  0  0  0  0  0  0  0  0  0  0  0
   55.3322   -2.7698  -14.6600 F   0  0  0  0  0  0  0  0  0  0  0  0
   56.2831   -2.8093  -16.6107 F   0  0  0  0  0  0  0  0  0  0  0  0
   55.8689   -4.7387  -15.6924 F   0  0  0  0  0  0  0  0  0  0  0  0
 27 28  1  0  0  0
 28 26  1  0  0  0
 26  1  1  0  0  0
  1  2  1  0  0  0
  2  3  2  0  0  0
  3  4  1  0  0  0
  4  5  1  0  0  0
  5 21  1  0  0  0
 21 22  1  0  0  0
 21 23  2  0  0  0
  3  6  1  0  0  0
  6  7  1  0  0  0
  7  8  2  0  0  0
  8  9  1  0  0  0
  9 10  2  0  0  0
 10 11  1  0  0  0
 11 12  2  0  0  0
 12 13  1  0  0  0
 13 14  2  0  0  0
 12 15  1  0  0  0
 15 16  2  0  0  0
 16 17  1  0  0  0
 17 18  2  0  0  0
 18 19  1  0  0  0
 19 20  2  0  0  0
 28 29  1  0  0  0
 29 30  2  0  0  0
 30 31  1  0  0  0
 31 32  2  0  0  0
 32 33  1  0  0  0
 33 34  2  0  0  0
 34 35  1  0  0  0
 35 36  1  0  0  0
 35 37  1  0  0  0
 35 38  1  0  0  0
  5  1  2  0  0  0
 14  6  1  0  0  0
 20 15  1  0  0  0
 34 29  1  0  0  0
 14  9  1  0  0  0
 22 24  1  0  0  0
 22 25  1  0  0  0
M  END
> <minimizedAffinity>
-9.19645

> <CNNscore>
0.4978789389

> <CNNaffinity>
7.3409090042

> <CNN_VS>
3.6548841000

> <CNNaffinity_variance>
0.1125020012

$$$$
[H]c1nc([H])c(-c2c([H])c([H])c3nc([H])n(-c4sc(C(=O)N([H])[H])c(O[C@@]([H])(c5c([H])c([H])c([H])c([H])c5C(F)(F)F)C([H])([H])[H])c4[H])c3c2[H])c([H])c1[H]


 38 42  0  0  0  0  0  0  0  0999 V2000
   57.0297   -4.8728  -10.5361 C   0  0  0  0  0  0  0  0  0  0  0  0
   55.7826   -4.3715  -10.4974 C   0  0  0  0  0  0  0  0  0  0  0  0
   55.1928   -4.2194   -9.2705 C   0  0  0  0  0  0  0  0  0  0  0  0
   56.3910   -4.7791   -8.2015 S   0  0  0  0  0  0  0  0  0  0  0  0
   57.6013   -5.1893   -9.3242 C   0  0  0  0  0  0  0  0  0  0  0  0
   53.8663   -3.7033   -8.9954 N   0  0  0  0  0  0  0  0  0  0  0  0
   53.1416   -2.8351   -9.7227 C   0  0  0  0  0  0  0  0  0  0  0  0
   51.9602   -2.6185   -9.1146 N   0  0  0  0  0  0  0  0  0  0  0  0
   51.9421   -3.3591   -7.9918 C   0  0  0  0  0  0  0  0  0  0  0  0
   51.0155   -3.5423   -6.9863 C   0  0  0  0  0  0  0  0  0  0  0  0
   51.3288   -4.3987   -5.9518 C   0  0  0  0  0  0  0  0  0  0  0  0
   52.5089   -5.0905   -5.8477 C   0  0  0  0  0  0  0  0  0  0  0  0
   53.4368   -4.8954   -6.8721 C   0  0  0  0  0  0  0  0  0  0  0  0
   53.1572   -4.0453   -7.9238 C   0  0  0  0  0  0  0  0  0  0  0  0
   52.8112   -5.9902   -4.7401 C   0  0  0  0  0  0  0  0  0  0  0  0
   51.8601   -6.2145   -3.7642 C   0  0  0  0  0  0  0  0  0  0  0  0
   52.1018   -7.0579   -2.6960 C   0  0  0  0  0  0  0  0  0  0  0  0
   53.3259   -7.7068   -2.5816 C   0  0  0  0  0  0  0  0  0  0  0  0
   54.2447   -7.4816   -3.5368 N   0  0  0  0  0  0  0  0  0  0  0  0
   54.0132   -6.6508   -4.5934 C   0  0  0  0  0  0  0  0  0  0  0  0
   58.9519   -5.7514   -9.0922 C   0  0  0  0  0  0  0  0  0  0  0  0
   59.3822   -6.8456   -9.8526 N   0  0  0  0  0  0  0  0  0  0  0  0
   59.6959   -5.2551   -8.2294 O   0  0  0  0  0  0  0  0  0  0  0  0
   58.9131   -7.7943   -9.8161 H   0  0  0  0  0  0  0  0  0  0  0  0
   60.2047   -6.7120  -10.4825 H   0  0  0  0  0  0  0  0  0  0  0  0
   57.7663   -5.0849  -11.7415 O   0  0  0  0  0  0  0  0  0  0  0  0
   58.3275   -2.7591  -11.5887 C   0  0  0  0  0  0  0  0  0  0  0  0
   58.3947   -4.0670  -12.4393 C   0  0  0  0  0  0  0  0  0  0  0  0
   58.0347   -3.7950  -13.8150 C   0  0  0  0  0  0  0  0  0  0  0  0
   56.6828   -3.9175  -14.1551 C   0  0  0  0  0  0  0  0  0  0  0  0
   56.1832   -3.6739  -15.4121 C   0  0  0  0  0  0  0  0  0  0  0  0
   57.0347   -3.2891  -16.4026 C   0  0  0  0  0  0  0  0  0  0  0  0
   58.3611   -3.1674  -16.0774 C   0  0  0  0  0  0  0  0  0  0  0  0
   58.8797   -3.4085  -14.8210 C   0  0  0  0  0  0  0  0  0  0  0  0
   60.3060   -3.2710  -14.6250 C   0  0  0  0  0  0  0  0  0  0  0  0
   60.9874   -4.3486  -14.1258 F   0  0  0  0  0  0  0  0  0  0  0  0
   60.9179   -3.0266  -15.8457 F   0  0  0  0  0  0  0  0  0  0  0  0
   60.6281   -2.1015  -13.8970 F   0  0  0  0  0  0  0  0  0  0  0  0
 27 28  1  0  0  0
 28 26  1  0  0  0
 26  1  1  0  0  0
  1  2  1  0  0  0
  2  3  2  0  0  0
  3  4  1  0  0  0
  4  5  1  0  0  0
  5 21  1  0  0  0
 21 22  1  0  0  0
 21 23  2  0  0  0
  3  6  1  0  0  0
  6  7  1  0  0  0
  7  8  2  0  0  0
  8  9  1  0  0  0
  9 10  2  0  0  0
 10 11  1  0  0  0
 11 12  2  0  0  0
 12 13  1  0  0  0
 13 14  2  0  0  0
 12 15  1  0  0  0
 15 16  2  0  0  0
 16 17  1  0  0  0
 17 18  2  0  0  0
 18 19  1  0  0  0
 19 20  2  0  0  0
 28 29  1  0  0  0
 29 30  2  0  0  0
 30 31  1  0  0  0
 31 32  2  0  0  0
 32 33  1  0  0  0
 33 34  2  0  0  0
 34 35  1  0  0  0
 35 36  1  0  0  0
 35 37  1  0  0  0
 35 38  1  0  0  0
  5  1  2  0  0  0
 14  6  1  0  0  0
 20 15  1  0  0  0
 34 29  1  0  0  0
 14  9  1  0  0  0
 22 24  1  0  0  0
 22 25  1  0  0  0
M  END
> <minimizedAffinity>
-8.24274

> <CNNscore>
0.4622464478

> <CNNaffinity>
7.2568068504

> <CNN_VS>
3.3544332981

> <CNNaffinity_variance>
0.2013804913

$$$$
[H]c1nc([H])c(-c2c([H])c([H])c3nc([H])n(-c4sc(C(=O)N([H])[H])c(O[C@@]([H])(c5c([H])c([H])c([H])c([H])c5C(F)(F)F)C([H])([H])[H])c4[H])c3c2[H])c([H])c1[H]


 38 42  0  0  0  0  0  0  0  0999 V2000
   54.5176   -5.8504   -4.7977 C   0  0  0  0  0  0  0  0  0  0  0  0
   54.2736   -5.5919   -6.0945 C   0  0  0  0  0  0  0  0  0  0  0  0
   55.1886   -4.8362   -6.7786 C   0  0  0  0  0  0  0  0  0  0  0  0
   56.3660   -4.5047   -5.5973 S   0  0  0  0  0  0  0  0  0  0  0  0
   55.6777   -5.3243   -4.2752 C   0  0  0  0  0  0  0  0  0  0  0  0
   55.1283   -4.4381   -8.1713 N   0  0  0  0  0  0  0  0  0  0  0  0
   54.1103   -3.8557   -8.8290 C   0  0  0  0  0  0  0  0  0  0  0  0
   54.4644   -3.6519  -10.1117 N   0  0  0  0  0  0  0  0  0  0  0  0
   55.7196   -4.1116  -10.2622 C   0  0  0  0  0  0  0  0  0  0  0  0
   56.5906   -4.1715  -11.3304 C   0  0  0  0  0  0  0  0  0  0  0  0
   57.8389   -4.7226  -11.1305 C   0  0  0  0  0  0  0  0  0  0  0  0
   58.2838   -5.2220   -9.9327 C   0  0  0  0  0  0  0  0  0  0  0  0
   57.3920   -5.1548   -8.8610 C   0  0  0  0  0  0  0  0  0  0  0  0
   56.1339   -4.6095   -9.0242 C   0  0  0  0  0  0  0  0  0  0  0  0
   59.6113   -5.7991   -9.7527 C   0  0  0  0  0  0  0  0  0  0  0  0
   60.0272   -6.1729   -8.4899 C   0  0  0  0  0  0  0  0  0  0  0  0
   61.2763   -6.7229   -8.2709 C   0  0  0  0  0  0  0  0  0  0  0  0
   62.1515   -6.9136   -9.3339 C   0  0  0  0  0  0  0  0  0  0  0  0
   61.7369   -6.5464  -10.5589 N   0  0  0  0  0  0  0  0  0  0  0  0
   60.5060   -6.0031  -10.7824 C   0  0  0  0  0  0  0  0  0  0  0  0
   56.1755   -5.4608   -2.8869 C   0  0  0  0  0  0  0  0  0  0  0  0
   56.3737   -4.3126   -2.1104 N   0  0  0  0  0  0  0  0  0  0  0  0
   56.4149   -6.5859   -2.4163 O   0  0  0  0  0  0  0  0  0  0  0  0
   57.0814   -3.5642   -2.3567 H   0  0  0  0  0  0  0  0  0  0  0  0
   55.7931   -4.1960   -1.2500 H   0  0  0  0  0  0  0  0  0  0  0  0
   53.6539   -6.6235   -3.9629 O   0  0  0  0  0  0  0  0  0  0  0  0
   51.7597   -7.2844   -2.6503 C   0  0  0  0  0  0  0  0  0  0  0  0
   52.3549   -6.2517   -3.6592 C   0  0  0  0  0  0  0  0  0  0  0  0
   51.4078   -5.9763   -4.7192 C   0  0  0  0  0  0  0  0  0  0  0  0
   51.6295   -6.6049   -5.9497 C   0  0  0  0  0  0  0  0  0  0  0  0
   50.8102   -6.4597   -7.0435 C   0  0  0  0  0  0  0  0  0  0  0  0
   49.7107   -5.6618   -6.9491 C   0  0  0  0  0  0  0  0  0  0  0  0
   49.4870   -5.0419   -5.7469 C   0  0  0  0  0  0  0  0  0  0  0  0
   50.2994   -5.1760   -4.6389 C   0  0  0  0  0  0  0  0  0  0  0  0
   49.9611   -4.4388   -3.4415 C   0  0  0  0  0  0  0  0  0  0  0  0
   50.9885   -4.0229   -2.6377 F   0  0  0  0  0  0  0  0  0  0  0  0
   49.3150   -3.2622   -3.7915 F   0  0  0  0  0  0  0  0  0  0  0  0
   48.9712   -5.0999   -2.6770 F   0  0  0  0  0  0  0  0  0  0  0  0
 27 28  1  0  0  0
 28 26  1  0  0  0
 26  1  1  0  0  0
  1  2  1  0  0  0
  2  3  2  0  0  0
  3  4  1  0  0  0
  4  5  1  0  0  0
  5 21  1  0  0  0
 21 22  1  0  0  0
 21 23  2  0  0  0
  3  6  1  0  0  0
  6  7  1  0  0  0
  7  8  2  0  0  0
  8  9  1  0  0  0
  9 10  2  0  0  0
 10 11  1  0  0  0
 11 12  2  0  0  0
 12 13  1  0  0  0
 13 14  2  0  0  0
 12 15  1  0  0  0
 15 16  2  0  0  0
 16 17  1  0  0  0
 17 18  2  0  0  0
 18 19  1  0  0  0
 19 20  2  0  0  0
 28 29  1  0  0  0
 29 30  2  0  0  0
 30 31  1  0  0  0
 31 32  2  0  0  0
 32 33  1  0  0  0
 33 34  2  0  0  0
 34 35  1  0  0  0
 35 36  1  0  0  0
 35 37  1  0  0  0
 35 38  1  0  0  0
  5  1  2  0  0  0
 14  6  1  0  0  0
 20 15  1  0  0  0
 34 29  1  0  0  0
 14  9  1  0  0  0
 22 24  1  0  0  0
 22 25  1  0  0  0
M  END
> <minimizedAffinity>
-8.78026

> <CNNscore>
0.4091830850

> <CNNaffinity>
7.4234838486

> <CNN_VS>
3.0375640392

> <CNNaffinity_variance>
0.3360845745

$$$$
[H]c1nc([H])c(-c2c([H])c([H])c3nc([H])n(-c4sc(C(=O)N([H])[H])c(O[C@@]([H])(c5c([H])c([H])c([H])c([H])c5C(F)(F)F)C([H])([H])[H])c4[H])c3c2[H])c([H])c1[H]


 38 42  0  0  0  0  0  0  0  0999 V2000
   51.1249   -4.7278   -5.1921 C   0  0  0  0  0  0  0  0  0  0  0  0
   51.6531   -5.6990   -4.4267 C   0  0  0  0  0  0  0  0  0  0  0  0
   51.0041   -6.0203   -3.2640 C   0  0  0  0  0  0  0  0  0  0  0  0
   49.6740   -4.9608   -3.2666 S   0  0  0  0  0  0  0  0  0  0  0  0
   49.9684   -4.1421   -4.7283 C   0  0  0  0  0  0  0  0  0  0  0  0
   51.3922   -7.0259   -2.2946 N   0  0  0  0  0  0  0  0  0  0  0  0
   50.6607   -8.0459   -1.8124 C   0  0  0  0  0  0  0  0  0  0  0  0
   51.3970   -8.7468   -0.9298 N   0  0  0  0  0  0  0  0  0  0  0  0
   52.6055   -8.1606   -0.8562 C   0  0  0  0  0  0  0  0  0  0  0  0
   53.7512   -8.4269   -0.1354 C   0  0  0  0  0  0  0  0  0  0  0  0
   54.8417   -7.5999   -0.3052 C   0  0  0  0  0  0  0  0  0  0  0  0
   54.8712   -6.5182   -1.1485 C   0  0  0  0  0  0  0  0  0  0  0  0
   53.7051   -6.2608   -1.8711 C   0  0  0  0  0  0  0  0  0  0  0  0
   52.5938   -7.0678   -1.7267 C   0  0  0  0  0  0  0  0  0  0  0  0
   56.0412   -5.6615   -1.3065 C   0  0  0  0  0  0  0  0  0  0  0  0
   57.0379   -5.6849   -0.3509 C   0  0  0  0  0  0  0  0  0  0  0  0
   58.1640   -4.8904   -0.4578 C   0  0  0  0  0  0  0  0  0  0  0  0
   58.3175   -4.0394   -1.5463 C   0  0  0  0  0  0  0  0  0  0  0  0
   57.3415   -4.0243   -2.4707 N   0  0  0  0  0  0  0  0  0  0  0  0
   56.2277   -4.8053   -2.3717 C   0  0  0  0  0  0  0  0  0  0  0  0
   49.1926   -3.0592   -5.3758 C   0  0  0  0  0  0  0  0  0  0  0  0
   49.2925   -2.8736   -6.7601 N   0  0  0  0  0  0  0  0  0  0  0  0
   48.4595   -2.3220   -4.6949 O   0  0  0  0  0  0  0  0  0  0  0  0
   50.1949   -2.6003   -7.2423 H   0  0  0  0  0  0  0  0  0  0  0  0
   48.4329   -3.0129   -7.3369 H   0  0  0  0  0  0  0  0  0  0  0  0
   51.6920   -4.2898   -6.4279 O   0  0  0  0  0  0  0  0  0  0  0  0
   51.7042   -6.5305   -7.2805 C   0  0  0  0  0  0  0  0  0  0  0  0
   52.3868   -5.1260   -7.2859 C   0  0  0  0  0  0  0  0  0  0  0  0
   53.8236   -5.2612   -7.1687 C   0  0  0  0  0  0  0  0  0  0  0  0
   54.3016   -6.1746   -6.2224 C   0  0  0  0  0  0  0  0  0  0  0  0
   55.6350   -6.4291   -6.0078 C   0  0  0  0  0  0  0  0  0  0  0  0
   56.5658   -5.7653   -6.7476 C   0  0  0  0  0  0  0  0  0  0  0  0
   56.1053   -4.8682   -7.6764 C   0  0  0  0  0  0  0  0  0  0  0  0
   54.7705   -4.6000   -7.9046 C   0  0  0  0  0  0  0  0  0  0  0  0
   54.4259   -3.6051   -8.8961 C   0  0  0  0  0  0  0  0  0  0  0  0
   53.8330   -2.4504   -8.4607 F   0  0  0  0  0  0  0  0  0  0  0  0
   55.5793   -3.1682   -9.5312 F   0  0  0  0  0  0  0  0  0  0  0  0
   53.6937   -4.1626   -9.9705 F   0  0  0  0  0  0  0  0  0  0  0  0
 27 28  1  0  0  0
 28 26  1  0  0  0
 26  1  1  0  0  0
  1  2  1  0  0  0
  2  3  2  0  0  0
  3  4  1  0  0  0
  4  5  1  0  0  0
  5 21  1  0  0  0
 21 22  1  0  0  0
 21 23  2  0  0  0
  3  6  1  0  0  0
  6  7  1  0  0  0
  7  8  2  0  0  0
  8  9  1  0  0  0
  9 10  2  0  0  0
 10 11  1  0  0  0
 11 12  2  0  0  0
 12 13  1  0  0  0
 13 14  2  0  0  0
 12 15  1  0  0  0
 15 16  2  0  0  0
 16 17  1  0  0  0
 17 18  2  0  0  0
 18 19  1  0  0  0
 19 20  2  0  0  0
 28 29  1  0  0  0
 29 30  2  0  0  0
 30 31  1  0  0  0
 31 32  2  0  0  0
 32 33  1  0  0  0
 33 34  2  0  0  0
 34 35  1  0  0  0
 35 36  1  0  0  0
 35 37  1  0  0  0
 35 38  1  0  0  0
  5  1  2  0  0  0
 14  6  1  0  0  0
 20 15  1  0  0  0
 34 29  1  0  0  0
 14  9  1  0  0  0
 22 24  1  0  0  0
 22 25  1  0  0  0
M  END
> <minimizedAffinity>
-9.86905

> <CNNscore>
0.3212926686

> <CNNaffinity>
7.3986191750

> <CNN_VS>
2.3771221638

> <CNNaffinity_variance>
0.5737977624

$$$$
[H]c1nc([H])c(-c2c([H])c([H])c3nc([H])n(-c4sc(C(=O)N([H])[H])c(O[C@@]([H])(c5c([H])c([H])c([H])c([H])c5C(F)(F)F)C([H])([H])[H])c4[H])c3c2[H])c([H])c1[H]


 38 42  0  0  0  0  0  0  0  0999 V2000
   55.9087   -5.1420   -7.1889 C   0  0  0  0  0  0  0  0  0  0  0  0
   54.6695   -4.8338   -6.7675 C   0  0  0  0  0  0  0  0  0  0  0  0
   53.8157   -4.2506   -7.6658 C   0  0  0  0  0  0  0  0  0  0  0  0
   54.7612   -4.1463   -9.0753 S   0  0  0  0  0  0  0  0  0  0  0  0
   56.2042   -4.8381   -8.4989 C   0  0  0  0  0  0  0  0  0  0  0  0
   52.4462   -3.8375   -7.4299 N   0  0  0  0  0  0  0  0  0  0  0  0
   51.6813   -3.0204   -8.1751 C   0  0  0  0  0  0  0  0  0  0  0  0
   50.4687   -2.8975   -7.6035 N   0  0  0  0  0  0  0  0  0  0  0  0
   50.4714   -3.6461   -6.4858 C   0  0  0  0  0  0  0  0  0  0  0  0
   49.5303   -3.9059   -5.5109 C   0  0  0  0  0  0  0  0  0  0  0  0
   49.8748   -4.7445   -4.4717 C   0  0  0  0  0  0  0  0  0  0  0  0
   51.0998   -5.3467   -4.3341 C   0  0  0  0  0  0  0  0  0  0  0  0
   52.0417   -5.0747   -5.3276 C   0  0  0  0  0  0  0  0  0  0  0  0
   51.7319   -4.2398   -6.3831 C   0  0  0  0  0  0  0  0  0  0  0  0
   51.4342   -6.2298   -3.2223 C   0  0  0  0  0  0  0  0  0  0  0  0
   52.6072   -6.9577   -3.2583 C   0  0  0  0  0  0  0  0  0  0  0  0
   52.9654   -7.8076   -2.2287 C   0  0  0  0  0  0  0  0  0  0  0  0
   52.1389   -7.9481   -1.1197 C   0  0  0  0  0  0  0  0  0  0  0  0
   50.9995   -7.2351   -1.0946 N   0  0  0  0  0  0  0  0  0  0  0  0
   50.6398   -6.3947   -2.1069 C   0  0  0  0  0  0  0  0  0  0  0  0
   57.4854   -5.0729   -9.2040 C   0  0  0  0  0  0  0  0  0  0  0  0
   58.5269   -5.7314   -8.5389 N   0  0  0  0  0  0  0  0  0  0  0  0
   57.6335   -4.6880  -10.3764 O   0  0  0  0  0  0  0  0  0  0  0  0
   59.0014   -5.3385   -7.6775 H   0  0  0  0  0  0  0  0  0  0  0  0
   58.8450   -6.6521   -8.9159 H   0  0  0  0  0  0  0  0  0  0  0  0
   56.9022   -5.7527   -6.3639 O   0  0  0  0  0  0  0  0  0  0  0  0
   55.2858   -7.3949   -5.7020 C   0  0  0  0  0  0  0  0  0  0  0  0
   56.6043   -6.6393   -5.3426 C   0  0  0  0  0  0  0  0  0  0  0  0
   56.5684   -6.1843   -3.9685 C   0  0  0  0  0  0  0  0  0  0  0  0
   55.5848   -5.2466   -3.6343 C   0  0  0  0  0  0  0  0  0  0  0  0
   55.4107   -4.7354   -2.3705 C   0  0  0  0  0  0  0  0  0  0  0  0
   56.2319   -5.1505   -1.3667 C   0  0  0  0  0  0  0  0  0  0  0  0
   57.1985   -6.0687   -1.6864 C   0  0  0  0  0  0  0  0  0  0  0  0
   57.3877   -6.5919   -2.9497 C   0  0  0  0  0  0  0  0  0  0  0  0
   58.4679   -7.5319   -3.1530 C   0  0  0  0  0  0  0  0  0  0  0  0
   59.4870   -7.5388   -2.2386 F   0  0  0  0  0  0  0  0  0  0  0  0
   57.9689   -8.8254   -3.1051 F   0  0  0  0  0  0  0  0  0  0  0  0
   58.9841   -7.4660   -4.4685 F   0  0  0  0  0  0  0  0  0  0  0  0
 27 28  1  0  0  0
 28 26  1  0  0  0
 26  1  1  0  0  0
  1  2  1  0  0  0
  2  3  2  0  0  0
  3  4  1  0  0  0
  4  5  1  0  0  0
  5 21  1  0  0  0
 21 22  1  0  0  0
 21 23  2  0  0  0
  3  6  1  0  0  0
  6  7  1  0  0  0
  7  8  2  0  0  0
  8  9  1  0  0  0
  9 10  2  0  0  0
 10 11  1  0  0  0
 11 12  2  0  0  0
 12 13  1  0  0  0
 13 14  2  0  0  0
 12 15  1  0  0  0
 15 16  2  0  0  0
 16 17  1  0  0  0
 17 18  2  0  0  0
 18 19  1  0  0  0
 19 20  2  0  0  0
 28 29  1  0  0  0
 29 30  2  0  0  0
 30 31  1  0  0  0
 31 32  2  0  0  0
 32 33  1  0  0  0
 33 34  2  0  0  0
 34 35  1  0  0  0
 35 36  1  0  0  0
 35 37  1  0  0  0
 35 38  1  0  0  0
  5  1  2  0  0  0
 14  6  1  0  0  0
 20 15  1  0  0  0
 34 29  1  0  0  0
 14  9  1  0  0  0
 22 24  1  0  0  0
 22 25  1  0  0  0
M  END
> <minimizedAffinity>
-9.37220

> <CNNscore>
0.3210381866

> <CNNaffinity>
7.4013724327

> <CNN_VS>
2.3761231899

> <CNNaffinity_variance>
0.2953595519

$$$$
[H]c1nn(C([H])([H])[H])c([H])c1-c1c([H])c([H])c2nc([H])n(-c3sc(C(=O)N([H])[H])c(O[C@@]([H])(c4c([H])c([H])c([H])c([H])c4Cl)C([H])([H])[H])c3[H])c2c1[H]


 35 39  0  0  0  0  0  0  0  0999 V2000
   56.2571   -5.1283   -7.3897 C   0  0  0  0  0  0  0  0  0  0  0  0
   55.0356   -4.6141   -7.1928 C   0  0  0  0  0  0  0  0  0  0  0  0
   54.4146   -4.0087   -8.2511 C   0  0  0  0  0  0  0  0  0  0  0  0
   55.5630   -4.1734   -9.5035 S   0  0  0  0  0  0  0  0  0  0  0  0
   56.7878   -4.9996   -8.6576 C   0  0  0  0  0  0  0  0  0  0  0  0
   53.1047   -3.3976   -8.3041 N   0  0  0  0  0  0  0  0  0  0  0  0
   52.6964   -2.5211   -9.2642 C   0  0  0  0  0  0  0  0  0  0  0  0
   51.4374   -2.1465   -8.9865 N   0  0  0  0  0  0  0  0  0  0  0  0
   51.0608   -2.7771   -7.8715 C   0  0  0  0  0  0  0  0  0  0  0  0
   49.8971   -2.7807   -7.1206 C   0  0  0  0  0  0  0  0  0  0  0  0
   49.8288   -3.5604   -5.9889 C   0  0  0  0  0  0  0  0  0  0  0  0
   50.8846   -4.3535   -5.5582 C   0  0  0  0  0  0  0  0  0  0  0  0
   52.0301   -4.3505   -6.2955 C   0  0  0  0  0  0  0  0  0  0  0  0
   52.1145   -3.5640   -7.4463 C   0  0  0  0  0  0  0  0  0  0  0  0
   50.7741   -5.1635   -4.3489 C   0  0  0  0  0  0  0  0  0  0  0  0
   49.8062   -4.9966   -3.3886 C   0  0  0  0  0  0  0  0  0  0  0  0
   50.0046   -5.9257   -2.4112 N   0  0  0  0  0  0  0  0  0  0  0  0
   51.0624   -6.6691   -2.7246 N   0  0  0  0  0  0  0  0  0  0  0  0
   51.5783   -7.7613   -1.9235 C   0  0  0  0  0  0  0  0  0  0  0  0
   51.5488   -6.2153   -3.9132 C   0  0  0  0  0  0  0  0  0  0  0  0
   58.0839   -5.4615   -9.1720 C   0  0  0  0  0  0  0  0  0  0  0  0
   59.1373   -5.6895   -8.2586 N   0  0  0  0  0  0  0  0  0  0  0  0
   58.2137   -5.6387  -10.3952 O   0  0  0  0  0  0  0  0  0  0  0  0
   60.1249   -5.3932   -8.4008 H   0  0  0  0  0  0  0  0  0  0  0  0
   58.9715   -6.1950   -7.3356 H   0  0  0  0  0  0  0  0  0  0  0  0
   57.0339   -5.7839   -6.4168 O   0  0  0  0  0  0  0  0  0  0  0  0
   55.1857   -7.1931   -6.0364 C   0  0  0  0  0  0  0  0  0  0  0  0
   56.6250   -6.8425   -5.6026 C   0  0  0  0  0  0  0  0  0  0  0  0
   56.5345   -6.3274   -4.2147 C   0  0  0  0  0  0  0  0  0  0  0  0
   55.4440   -5.5523   -3.8229 C   0  0  0  0  0  0  0  0  0  0  0  0
   55.3309   -5.0168   -2.5499 C   0  0  0  0  0  0  0  0  0  0  0  0
   56.3049   -5.2344   -1.6140 C   0  0  0  0  0  0  0  0  0  0  0  0
   57.3914   -5.9931   -1.9670 C   0  0  0  0  0  0  0  0  0  0  0  0
   57.4978   -6.5322   -3.2590 C   0  0  0  0  0  0  0  0  0  0  0  0
   58.8975   -7.5097   -3.6542 Cl  0  0  0  0  0  0  0  0  0  0  0  0
 27 28  1  0  0  0
 28 26  1  0  0  0
 26  1  1  0  0  0
  1  2  1  0  0  0
  2  3  2  0  0  0
  3  4  1  0  0  0
  4  5  1  0  0  0
  5 21  1  0  0  0
 21 22  1  0  0  0
 21 23  2  0  0  0
  3  6  1  0  0  0
  6  7  1  0  0  0
  7  8  2  0  0  0
  8  9  1  0  0  0
  9 10  2  0  0  0
 10 11  1  0  0  0
 11 12  2  0  0  0
 12 13  1  0  0  0
 13 14  2  0  0  0
 12 15  1  0  0  0
 15 16  1  0  0  0
 16 17  2  0  0  0
 17 18  1  0  0  0
 18 19  1  0  0  0
 18 20  1  0  0  0
 28 29  1  0  0  0
 29 30  2  0  0  0
 30 31  1  0  0  0
 31 32  2  0  0  0
 32 33  1  0  0  0
 33 34  2  0  0  0
 34 35  1  0  0  0
  5  1  2  0  0  0
 14  6  1  0  0  0
 20 15  2  0  0  0
 34 29  1  0  0  0
 14  9  1  0  0  0
 22 24  1  0  0  0
 22 25  1  0  0  0
M  END
> <minimizedAffinity>
-9.93460

> <CNNscore>
0.7745360136

> <CNNaffinity>
7.8844041824

> <CNN_VS>
6.1067547798

> <CNNaffinity_variance>
0.0725963116

$$$$
[H]c1nn(C([H])([H])[H])c([H])c1-c1c([H])c([H])c2nc([H])n(-c3sc(C(=O)N([H])[H])c(O[C@@]([H])(c4c([H])c([H])c([H])c([H])c4Cl)C([H])([H])[H])c3[H])c2c1[H]


 35 39  0  0  0  0  0  0  0  0999 V2000
   52.7190   -4.5324   -7.8388 C   0  0  0  0  0  0  0  0  0  0  0  0
   53.9101   -5.1415   -7.9130 C   0  0  0  0  0  0  0  0  0  0  0  0
   54.9852   -4.4032   -8.3267 C   0  0  0  0  0  0  0  0  0  0  0  0
   54.2985   -2.8651   -8.6050 S   0  0  0  0  0  0  0  0  0  0  0  0
   52.6811   -3.1981   -8.1912 C   0  0  0  0  0  0  0  0  0  0  0  0
   56.3639   -4.8146   -8.4743 N   0  0  0  0  0  0  0  0  0  0  0  0
   57.1461   -5.2823   -7.4614 C   0  0  0  0  0  0  0  0  0  0  0  0
   58.3656   -5.5468   -7.9568 N   0  0  0  0  0  0  0  0  0  0  0  0
   58.3500   -5.2509   -9.2586 C   0  0  0  0  0  0  0  0  0  0  0  0
   59.2987   -5.3129  -10.2657 C   0  0  0  0  0  0  0  0  0  0  0  0
   58.9556   -4.9197  -11.5388 C   0  0  0  0  0  0  0  0  0  0  0  0
   57.6873   -4.4574  -11.8661 C   0  0  0  0  0  0  0  0  0  0  0  0
   56.7532   -4.3953  -10.8765 C   0  0  0  0  0  0  0  0  0  0  0  0
   57.0868   -4.7906   -9.5794 C   0  0  0  0  0  0  0  0  0  0  0  0
   57.3638   -4.0452  -13.2285 C   0  0  0  0  0  0  0  0  0  0  0  0
   56.1239   -4.1754  -13.8050 C   0  0  0  0  0  0  0  0  0  0  0  0
   56.1858   -3.6841  -15.0750 N   0  0  0  0  0  0  0  0  0  0  0  0
   57.4204   -3.2505  -15.3150 N   0  0  0  0  0  0  0  0  0  0  0  0
   57.8669   -2.6593  -16.5607 C   0  0  0  0  0  0  0  0  0  0  0  0
   58.1592   -3.4642  -14.1908 C   0  0  0  0  0  0  0  0  0  0  0  0
   51.5390   -2.2744   -8.2050 C   0  0  0  0  0  0  0  0  0  0  0  0
   50.4203   -2.5620   -7.3914 N   0  0  0  0  0  0  0  0  0  0  0  0
   51.5924   -1.2674   -8.9313 O   0  0  0  0  0  0  0  0  0  0  0  0
   49.4271   -2.4777   -7.6912 H   0  0  0  0  0  0  0  0  0  0  0  0
   50.5365   -2.8972   -6.3869 H   0  0  0  0  0  0  0  0  0  0  0  0
   51.5157   -5.1381   -7.4327 O   0  0  0  0  0  0  0  0  0  0  0  0
   50.0628   -6.9668   -7.1301 C   0  0  0  0  0  0  0  0  0  0  0  0
   51.3872   -6.3107   -6.6849 C   0  0  0  0  0  0  0  0  0  0  0  0
   51.2078   -5.9166   -5.2663 C   0  0  0  0  0  0  0  0  0  0  0  0
   50.0082   -5.3471   -4.8419 C   0  0  0  0  0  0  0  0  0  0  0  0
   49.8043   -4.9280   -3.5370 C   0  0  0  0  0  0  0  0  0  0  0  0
   50.7927   -5.0615   -2.6004 C   0  0  0  0  0  0  0  0  0  0  0  0
   51.9854   -5.6183   -2.9851 C   0  0  0  0  0  0  0  0  0  0  0  0
   52.1835   -6.0405   -4.3093 C   0  0  0  0  0  0  0  0  0  0  0  0
   53.7196   -6.7623   -4.7454 Cl  0  0  0  0  0  0  0  0  0  0  0  0
 27 28  1  0  0  0
 28 26  1  0  0  0
 26  1  1  0  0  0
  1  2  1  0  0  0
  2  3  2  0  0  0
  3  4  1  0  0  0
  4  5  1  0  0  0
  5 21  1  0  0  0
 21 22  1  0  0  0
 21 23  2  0  0  0
  3  6  1  0  0  0
  6  7  1  0  0  0
  7  8  2  0  0  0
  8  9  1  0  0  0
  9 10  2  0  0  0
 10 11  1  0  0  0
 11 12  2  0  0  0
 12 13  1  0  0  0
 13 14  2  0  0  0
 12 15  1  0  0  0
 15 16  1  0  0  0
 16 17  2  0  0  0
 17 18  1  0  0  0
 18 19  1  0  0  0
 18 20  1  0  0  0
 28 29  1  0  0  0
 29 30  2  0  0  0
 30 31  1  0  0  0
 31 32  2  0  0  0
 32 33  1  0  0  0
 33 34  2  0  0  0
 34 35  1  0  0  0
  5  1  2  0  0  0
 14  6  1  0  0  0
 20 15  2  0  0  0
 34 29  1  0  0  0
 14  9  1  0  0  0
 22 24  1  0  0  0
 22 25  1  0  0  0
M  END
> <minimizedAffinity>
-9.26900

> <CNNscore>
0.6421125531

> <CNNaffinity>
7.5638594627

> <CNN_VS>
4.8568491936

> <CNNaffinity_variance>
0.1124412790

$$$$
[H]c1nn(C([H])([H])[H])c([H])c1-c1c([H])c([H])c2nc([H])n(-c3sc(C(=O)N([H])[H])c(O[C@@]([H])(c4c([H])c([H])c([H])c([H])c4Cl)C([H])([H])[H])c3[H])c2c1[H]


 35 39  0  0  0  0  0  0  0  0999 V2000
   57.0747   -4.8427  -10.9076 C   0  0  0  0  0  0  0  0  0  0  0  0
   55.8191   -4.3968  -10.7667 C   0  0  0  0  0  0  0  0  0  0  0  0
   55.3101   -4.2985   -9.5005 C   0  0  0  0  0  0  0  0  0  0  0  0
   56.6085   -4.8373   -8.5318 S   0  0  0  0  0  0  0  0  0  0  0  0
   57.7516   -5.1682   -9.7493 C   0  0  0  0  0  0  0  0  0  0  0  0
   54.0050   -3.8361   -9.0821 N   0  0  0  0  0  0  0  0  0  0  0  0
   53.2436   -2.9387   -9.7689 C   0  0  0  0  0  0  0  0  0  0  0  0
   52.1106   -2.7306   -9.0792 N   0  0  0  0  0  0  0  0  0  0  0  0
   52.1590   -3.4845   -7.9784 C   0  0  0  0  0  0  0  0  0  0  0  0
   51.2967   -3.6773   -6.9118 C   0  0  0  0  0  0  0  0  0  0  0  0
   51.6540   -4.5456   -5.9060 C   0  0  0  0  0  0  0  0  0  0  0  0
   52.8532   -5.2464   -5.9092 C   0  0  0  0  0  0  0  0  0  0  0  0
   53.7026   -5.0574   -6.9574 C   0  0  0  0  0  0  0  0  0  0  0  0
   53.3540   -4.1790   -7.9854 C   0  0  0  0  0  0  0  0  0  0  0  0
   53.1977   -6.1556   -4.8204 C   0  0  0  0  0  0  0  0  0  0  0  0
   54.3737   -6.8607   -4.7408 C   0  0  0  0  0  0  0  0  0  0  0  0
   54.3566   -7.5988   -3.5950 N   0  0  0  0  0  0  0  0  0  0  0  0
   53.2116   -7.3812   -2.9534 N   0  0  0  0  0  0  0  0  0  0  0  0
   52.8349   -7.9916   -1.6939 C   0  0  0  0  0  0  0  0  0  0  0  0
   52.4860   -6.4961   -3.6919 C   0  0  0  0  0  0  0  0  0  0  0  0
   59.1224   -5.6701   -9.5857 C   0  0  0  0  0  0  0  0  0  0  0  0
   59.5179   -6.1737   -8.3264 N   0  0  0  0  0  0  0  0  0  0  0  0
   59.8922   -5.6374  -10.5609 O   0  0  0  0  0  0  0  0  0  0  0  0
   60.4250   -5.9674   -7.8595 H   0  0  0  0  0  0  0  0  0  0  0  0
   58.8827   -6.8156   -7.7613 H   0  0  0  0  0  0  0  0  0  0  0  0
   57.7523   -5.0027  -12.1304 O   0  0  0  0  0  0  0  0  0  0  0  0
   58.2759   -2.7090  -12.0252 C   0  0  0  0  0  0  0  0  0  0  0  0
   58.4613   -4.0180  -12.8219 C   0  0  0  0  0  0  0  0  0  0  0  0
   57.7864   -3.8175  -14.1274 C   0  0  0  0  0  0  0  0  0  0  0  0
   56.4452   -4.1636  -14.2851 C   0  0  0  0  0  0  0  0  0  0  0  0
   55.7797   -4.0308  -15.4932 C   0  0  0  0  0  0  0  0  0  0  0  0
   56.4285   -3.5454  -16.5957 C   0  0  0  0  0  0  0  0  0  0  0  0
   57.7488   -3.1952  -16.4746 C   0  0  0  0  0  0  0  0  0  0  0  0
   58.4154   -3.3328  -15.2466 C   0  0  0  0  0  0  0  0  0  0  0  0
   60.0977   -2.8541  -15.1400 Cl  0  0  0  0  0  0  0  0  0  0  0  0
 27 28  1  0  0  0
 28 26  1  0  0  0
 26  1  1  0  0  0
  1  2  1  0  0  0
  2  3  2  0  0  0
  3  4  1  0  0  0
  4  5  1  0  0  0
  5 21  1  0  0  0
 21 22  1  0  0  0
 21 23  2  0  0  0
  3  6  1  0  0  0
  6  7  1  0  0  0
  7  8  2  0  0  0
  8  9  1  0  0  0
  9 10  2  0  0  0
 10 11  1  0  0  0
 11 12  2  0  0  0
 12 13  1  0  0  0
 13 14  2  0  0  0
 12 15  1  0  0  0
 15 16  1  0  0  0
 16 17  2  0  0  0
 17 18  1  0  0  0
 18 19  1  0  0  0
 18 20  1  0  0  0
 28 29  1  0  0  0
 29 30  2  0  0  0
 30 31  1  0  0  0
 31 32  2  0  0  0
 32 33  1  0  0  0
 33 34  2  0  0  0
 34 35  1  0  0  0
  5  1  2  0  0  0
 14  6  1  0  0  0
 20 15  2  0  0  0
 34 29  1  0  0  0
 14  9  1  0  0  0
 22 24  1  0  0  0
 22 25  1  0  0  0
M  END
> <minimizedAffinity>
-8.79352

> <CNNscore>
0.5777567029

> <CNNaffinity>
7.2505164146

> <CNN_VS>
4.1890344620

> <CNNaffinity_variance>
0.1106160879

$$$$
[H]c1nn(C([H])([H])[H])c([H])c1-c1c([H])c([H])c2nc([H])n(-c3sc(C(=O)N([H])[H])c(O[C@@]([H])(c4c([H])c([H])c([H])c([H])c4Cl)C([H])([H])[H])c3[H])c2c1[H]


 35 39  0  0  0  0  0  0  0  0999 V2000
   56.2949   -4.4250  -10.3876 C   0  0  0  0  0  0  0  0  0  0  0  0
   55.0347   -3.9875  -10.2620 C   0  0  0  0  0  0  0  0  0  0  0  0
   54.4820   -3.9700   -9.0105 C   0  0  0  0  0  0  0  0  0  0  0  0
   55.7465   -4.5713   -8.0340 S   0  0  0  0  0  0  0  0  0  0  0  0
   56.9315   -4.8249   -9.2297 C   0  0  0  0  0  0  0  0  0  0  0  0
   53.1627   -3.5337   -8.6089 N   0  0  0  0  0  0  0  0  0  0  0  0
   52.4072   -2.6244   -9.2864 C   0  0  0  0  0  0  0  0  0  0  0  0
   51.2566   -2.4486   -8.6172 N   0  0  0  0  0  0  0  0  0  0  0  0
   51.2883   -3.2341   -7.5381 C   0  0  0  0  0  0  0  0  0  0  0  0
   50.4043   -3.4674   -6.4978 C   0  0  0  0  0  0  0  0  0  0  0  0
   50.7482   -4.3613   -5.5099 C   0  0  0  0  0  0  0  0  0  0  0  0
   51.9549   -5.0491   -5.5061 C   0  0  0  0  0  0  0  0  0  0  0  0
   52.8257   -4.8204   -6.5285 C   0  0  0  0  0  0  0  0  0  0  0  0
   52.4908   -3.9157   -7.5380 C   0  0  0  0  0  0  0  0  0  0  0  0
   52.2846   -5.9865   -4.4368 C   0  0  0  0  0  0  0  0  0  0  0  0
   53.5384   -6.5021   -4.2159 C   0  0  0  0  0  0  0  0  0  0  0  0
   53.4784   -7.3332   -3.1371 N   0  0  0  0  0  0  0  0  0  0  0  0
   52.2315   -7.3568   -2.6740 N   0  0  0  0  0  0  0  0  0  0  0  0
   51.7826   -8.1290   -1.5325 C   0  0  0  0  0  0  0  0  0  0  0  0
   51.4829   -6.5345   -3.4605 C   0  0  0  0  0  0  0  0  0  0  0  0
   58.2964   -5.3379   -9.0512 C   0  0  0  0  0  0  0  0  0  0  0  0
   58.9518   -5.9287  -10.1546 N   0  0  0  0  0  0  0  0  0  0  0  0
   58.8331   -5.2354   -7.9350 O   0  0  0  0  0  0  0  0  0  0  0  0
   59.5076   -6.8079  -10.1175 H   0  0  0  0  0  0  0  0  0  0  0  0
   58.9091   -5.4907  -11.1248 H   0  0  0  0  0  0  0  0  0  0  0  0
   57.0147   -4.5071  -11.5938 O   0  0  0  0  0  0  0  0  0  0  0  0
   55.9528   -5.3542  -13.5176 C   0  0  0  0  0  0  0  0  0  0  0  0
   56.5704   -4.1043  -12.8551 C   0  0  0  0  0  0  0  0  0  0  0  0
   57.7670   -3.7490  -13.6562 C   0  0  0  0  0  0  0  0  0  0  0  0
   59.0346   -3.7802  -13.0768 C   0  0  0  0  0  0  0  0  0  0  0  0
   60.1789   -3.4216  -13.7711 C   0  0  0  0  0  0  0  0  0  0  0  0
   60.1034   -3.0166  -15.0758 C   0  0  0  0  0  0  0  0  0  0  0  0
   58.8711   -2.9748  -15.6759 C   0  0  0  0  0  0  0  0  0  0  0  0
   57.7167   -3.3401  -14.9652 C   0  0  0  0  0  0  0  0  0  0  0  0
   56.1680   -3.2865  -15.7835 Cl  0  0  0  0  0  0  0  0  0  0  0  0
 27 28  1  0  0  0
 28 26  1  0  0  0
 26  1  1  0  0  0
  1  2  1  0  0  0
  2  3  2  0  0  0
  3  4  1  0  0  0
  4  5  1  0  0  0
  5 21  1  0  0  0
 21 22  1  0  0  0
 21 23  2  0  0  0
  3  6  1  0  0  0
  6  7  1  0  0  0
  7  8  2  0  0  0
  8  9  1  0  0  0
  9 10  2  0  0  0
 10 11  1  0  0  0
 11 12  2  0  0  0
 12 13  1  0  0  0
 13 14  2  0  0  0
 12 15  1  0  0  0
 15 16  1  0  0  0
 16 17  2  0  0  0
 17 18  1  0  0  0
 18 19  1  0  0  0
 18 20  1  0  0  0
 28 29  1  0  0  0
 29 30  2  0  0  0
 30 31  1  0  0  0
 31 32  2  0  0  0
 32 33  1  0  0  0
 33 34  2  0  0  0
 34 35  1  0  0  0
  5  1  2  0  0  0
 14  6  1  0  0  0
 20 15  2  0  0  0
 34 29  1  0  0  0
 14  9  1  0  0  0
 22 24  1  0  0  0
 22 25  1  0  0  0
M  END
> <minimizedAffinity>
-9.35523

> <CNNscore>
0.5774344206

> <CNNaffinity>
7.3134956360

> <CNN_VS>
4.2230639458

> <CNNaffinity_variance>
0.1079488844

$$$$
[H]c1nn(C([H])([H])[H])c([H])c1-c1c([H])c([H])c2nc([H])n(-c3sc(C(=O)N([H])[H])c(O[C@@]([H])(c4c([H])c([H])c([H])c([H])c4Cl)C([H])([H])[H])c3[H])c2c1[H]


 35 39  0  0  0  0  0  0  0  0999 V2000
   57.9054   -4.7157  -10.9155 C   0  0  0  0  0  0  0  0  0  0  0  0
   56.6458   -4.2701  -10.8150 C   0  0  0  0  0  0  0  0  0  0  0  0
   55.9855   -4.4696   -9.6334 C   0  0  0  0  0  0  0  0  0  0  0  0
   57.1502   -5.2824   -8.6861 S   0  0  0  0  0  0  0  0  0  0  0  0
   58.4317   -5.3449   -9.8051 C   0  0  0  0  0  0  0  0  0  0  0  0
   54.6428   -4.0750   -9.2681 N   0  0  0  0  0  0  0  0  0  0  0  0
   53.8465   -3.2557  -10.0104 C   0  0  0  0  0  0  0  0  0  0  0  0
   52.6837   -3.0930   -9.3593 N   0  0  0  0  0  0  0  0  0  0  0  0
   52.7480   -3.7982   -8.2274 C   0  0  0  0  0  0  0  0  0  0  0  0
   51.8698   -4.0033   -7.1763 C   0  0  0  0  0  0  0  0  0  0  0  0
   52.2522   -4.8067   -6.1267 C   0  0  0  0  0  0  0  0  0  0  0  0
   53.4925   -5.4293   -6.0703 C   0  0  0  0  0  0  0  0  0  0  0  0
   54.3576   -5.2282   -7.1033 C   0  0  0  0  0  0  0  0  0  0  0  0
   53.9839   -4.4150   -8.1752 C   0  0  0  0  0  0  0  0  0  0  0  0
   53.8623   -6.2711   -4.9365 C   0  0  0  0  0  0  0  0  0  0  0  0
   53.0210   -6.5877   -3.8980 C   0  0  0  0  0  0  0  0  0  0  0  0
   53.6949   -7.3916   -3.0276 N   0  0  0  0  0  0  0  0  0  0  0  0
   54.9287   -7.5902   -3.4837 N   0  0  0  0  0  0  0  0  0  0  0  0
   55.9390   -8.3952   -2.8264 C   0  0  0  0  0  0  0  0  0  0  0  0
   55.0502   -6.9090   -4.6569 C   0  0  0  0  0  0  0  0  0  0  0  0
   59.7677   -5.9248   -9.6136 C   0  0  0  0  0  0  0  0  0  0  0  0
   60.1669   -6.3010   -8.3116 N   0  0  0  0  0  0  0  0  0  0  0  0
   60.5056   -6.0679  -10.6033 O   0  0  0  0  0  0  0  0  0  0  0  0
   61.1011   -6.1085   -7.8951 H   0  0  0  0  0  0  0  0  0  0  0  0
   59.5061   -6.8206   -7.6572 H   0  0  0  0  0  0  0  0  0  0  0  0
   58.7271   -4.5932  -12.0512 O   0  0  0  0  0  0  0  0  0  0  0  0
   57.4586   -4.1329  -13.9813 C   0  0  0  0  0  0  0  0  0  0  0  0
   58.6026   -3.6437  -13.0677 C   0  0  0  0  0  0  0  0  0  0  0  0
   59.8430   -3.6952  -13.8793 C   0  0  0  0  0  0  0  0  0  0  0  0
   61.0033   -4.2615  -13.3536 C   0  0  0  0  0  0  0  0  0  0  0  0
   62.1967   -4.3003  -14.0566 C   0  0  0  0  0  0  0  0  0  0  0  0
   62.2799   -3.7740  -15.3168 C   0  0  0  0  0  0  0  0  0  0  0  0
   61.1562   -3.2093  -15.8636 C   0  0  0  0  0  0  0  0  0  0  0  0
   59.9509   -3.1744  -15.1444 C   0  0  0  0  0  0  0  0  0  0  0  0
   58.5391   -2.4577  -15.8953 Cl  0  0  0  0  0  0  0  0  0  0  0  0
 27 28  1  0  0  0
 28 26  1  0  0  0
 26  1  1  0  0  0
  1  2  1  0  0  0
  2  3  2  0  0  0
  3  4  1  0  0  0
  4  5  1  0  0  0
  5 21  1  0  0  0
 21 22  1  0  0  0
 21 23  2  0  0  0
  3  6  1  0  0  0
  6  7  1  0  0  0
  7  8  2  0  0  0
  8  9  1  0  0  0
  9 10  2  0  0  0
 10 11  1  0  0  0
 11 12  2  0  0  0
 12 13  1  0  0  0
 13 14  2  0  0  0
 12 15  1  0  0  0
 15 16  1  0  0  0
 16 17  2  0  0  0
 17 18  1  0  0  0
 18 19  1  0  0  0
 18 20  1  0  0  0
 28 29  1  0  0  0
 29 30  2  0  0  0
 30 31  1  0  0  0
 31 32  2  0  0  0
 32 33  1  0  0  0
 33 34  2  0  0  0
 34 35  1  0  0  0
  5  1  2  0  0  0
 14  6  1  0  0  0
 20 15  2  0  0  0
 34 29  1  0  0  0
 14  9  1  0  0  0
 22 24  1  0  0  0
 22 25  1  0  0  0
M  END
> <minimizedAffinity>
-8.46211

> <CNNscore>
0.5100947618

> <CNNaffinity>
7.0150947571

> <CNN_VS>
3.5783631802

> <CNNaffinity_variance>
0.2673352361

$$$$
[H]c1nn(C([H])([H])[H])c([H])c1-c1c([H])c([H])c2nc([H])n(-c3sc(C(=O)N([H])[H])c(O[C@@]([H])(c4c([H])c([H])c([H])c([H])c4Cl)C([H])([H])[H])c3[H])c2c1[H]


 35 39  0  0  0  0  0  0  0  0999 V2000
   53.6452   -4.6277   -7.3353 C   0  0  0  0  0  0  0  0  0  0  0  0
   53.2333   -5.2442   -6.2192 C   0  0  0  0  0  0  0  0  0  0  0  0
   52.0161   -4.8930   -5.7025 C   0  0  0  0  0  0  0  0  0  0  0  0
   51.4747   -3.6999   -6.7970 S   0  0  0  0  0  0  0  0  0  0  0  0
   52.7954   -3.6808   -7.8711 C   0  0  0  0  0  0  0  0  0  0  0  0
   51.3442   -5.4138   -4.5323 N   0  0  0  0  0  0  0  0  0  0  0  0
   50.0287   -5.2129   -4.2399 C   0  0  0  0  0  0  0  0  0  0  0  0
   49.7570   -5.8219   -3.0747 N   0  0  0  0  0  0  0  0  0  0  0  0
   50.8822   -6.3960   -2.6424 C   0  0  0  0  0  0  0  0  0  0  0  0
   51.2064   -7.1426   -1.5219 C   0  0  0  0  0  0  0  0  0  0  0  0
   52.4958   -7.5972   -1.3660 C   0  0  0  0  0  0  0  0  0  0  0  0
   53.5001   -7.3395   -2.2902 C   0  0  0  0  0  0  0  0  0  0  0  0
   53.1828   -6.6048   -3.3927 C   0  0  0  0  0  0  0  0  0  0  0  0
   51.8786   -6.1362   -3.5644 C   0  0  0  0  0  0  0  0  0  0  0  0
   54.8575   -7.8362   -2.0862 C   0  0  0  0  0  0  0  0  0  0  0  0
   55.6775   -8.2887   -3.0909 C   0  0  0  0  0  0  0  0  0  0  0  0
   56.8656   -8.6665   -2.5398 N   0  0  0  0  0  0  0  0  0  0  0  0
   56.8194   -8.4668   -1.2253 N   0  0  0  0  0  0  0  0  0  0  0  0
   57.9004   -8.7505   -0.3023 C   0  0  0  0  0  0  0  0  0  0  0  0
   55.5921   -7.9564   -0.9278 C   0  0  0  0  0  0  0  0  0  0  0  0
   52.9665   -2.8556   -9.0742 C   0  0  0  0  0  0  0  0  0  0  0  0
   53.9355   -1.8275   -9.0631 N   0  0  0  0  0  0  0  0  0  0  0  0
   52.2542   -3.0880  -10.0658 O   0  0  0  0  0  0  0  0  0  0  0  0
   53.7899   -0.8665   -9.4356 H   0  0  0  0  0  0  0  0  0  0  0  0
   54.9063   -1.9846   -8.6537 H   0  0  0  0  0  0  0  0  0  0  0  0
   54.8625   -4.8673   -7.9991 O   0  0  0  0  0  0  0  0  0  0  0  0
   56.3689   -3.4308   -6.8974 C   0  0  0  0  0  0  0  0  0  0  0  0
   56.1360   -4.8623   -7.4257 C   0  0  0  0  0  0  0  0  0  0  0  0
   57.1168   -5.0745   -8.5180 C   0  0  0  0  0  0  0  0  0  0  0  0
   58.3908   -5.5634   -8.2327 C   0  0  0  0  0  0  0  0  0  0  0  0
   59.3548   -5.7437   -9.2115 C   0  0  0  0  0  0  0  0  0  0  0  0
   59.0847   -5.4424  -10.5186 C   0  0  0  0  0  0  0  0  0  0  0  0
   57.8405   -4.9595  -10.8333 C   0  0  0  0  0  0  0  0  0  0  0  0
   56.8694   -4.7801   -9.8353 C   0  0  0  0  0  0  0  0  0  0  0  0
   55.2889   -4.1771  -10.2926 Cl  0  0  0  0  0  0  0  0  0  0  0  0
 27 28  1  0  0  0
 28 26  1  0  0  0
 26  1  1  0  0  0
  1  2  1  0  0  0
  2  3  2  0  0  0
  3  4  1  0  0  0
  4  5  1  0  0  0
  5 21  1  0  0  0
 21 22  1  0  0  0
 21 23  2  0  0  0
  3  6  1  0  0  0
  6  7  1  0  0  0
  7  8  2  0  0  0
  8  9  1  0  0  0
  9 10  2  0  0  0
 10 11  1  0  0  0
 11 12  2  0  0  0
 12 13  1  0  0  0
 13 14  2  0  0  0
 12 15  1  0  0  0
 15 16  1  0  0  0
 16 17  2  0  0  0
 17 18  1  0  0  0
 18 19  1  0  0  0
 18 20  1  0  0  0
 28 29  1  0  0  0
 29 30  2  0  0  0
 30 31  1  0  0  0
 31 32  2  0  0  0
 32 33  1  0  0  0
 33 34  2  0  0  0
 34 35  1  0  0  0
  5  1  2  0  0  0
 14  6  1  0  0  0
 20 15  2  0  0  0
 34 29  1  0  0  0
 14  9  1  0  0  0
 22 24  1  0  0  0
 22 25  1  0  0  0
M  END
> <minimizedAffinity>
-9.15555

> <CNNscore>
0.5032784939

> <CNNaffinity>
7.4512929916

> <CNN_VS>
3.7500755787

> <CNNaffinity_variance>
0.0955716521

$$$$
[H]c1nn(C([H])([H])[H])c([H])c1-c1c([H])c([H])c2nc([H])n(-c3sc(C(=O)N([H])[H])c(O[C@@]([H])(c4c([H])c([H])c([H])c([H])c4Cl)C([H])([H])[H])c3[H])c2c1[H]


 35 39  0  0  0  0  0  0  0  0999 V2000
   54.3593   -4.7215   -7.8985 C   0  0  0  0  0  0  0  0  0  0  0  0
   53.2777   -4.5856   -7.1194 C   0  0  0  0  0  0  0  0  0  0  0  0
   52.2598   -3.7878   -7.5659 C   0  0  0  0  0  0  0  0  0  0  0  0
   52.8452   -3.2426   -9.0741 S   0  0  0  0  0  0  0  0  0  0  0  0
   54.3513   -4.0359   -9.0967 C   0  0  0  0  0  0  0  0  0  0  0  0
   50.9944   -3.4930   -6.9304 N   0  0  0  0  0  0  0  0  0  0  0  0
   50.0336   -2.6818   -7.4553 C   0  0  0  0  0  0  0  0  0  0  0  0
   49.0101   -2.6234   -6.5884 N   0  0  0  0  0  0  0  0  0  0  0  0
   49.3220   -3.3850   -5.5372 C   0  0  0  0  0  0  0  0  0  0  0  0
   48.6709   -3.6986   -4.3557 C   0  0  0  0  0  0  0  0  0  0  0  0
   49.2836   -4.5350   -3.4510 C   0  0  0  0  0  0  0  0  0  0  0  0
   50.5397   -5.0864   -3.6689 C   0  0  0  0  0  0  0  0  0  0  0  0
   51.1815   -4.7785   -4.8304 C   0  0  0  0  0  0  0  0  0  0  0  0
   50.5726   -3.9306   -5.7579 C   0  0  0  0  0  0  0  0  0  0  0  0
   51.1579   -5.9664   -2.6819 C   0  0  0  0  0  0  0  0  0  0  0  0
   52.0086   -5.5435   -1.6899 C   0  0  0  0  0  0  0  0  0  0  0  0
   52.3858   -6.6277   -0.9549 N   0  0  0  0  0  0  0  0  0  0  0  0
   51.8017   -7.7152   -1.4510 N   0  0  0  0  0  0  0  0  0  0  0  0
   51.9637   -9.0577   -0.9293 C   0  0  0  0  0  0  0  0  0  0  0  0
   51.0424   -7.3282   -2.5135 C   0  0  0  0  0  0  0  0  0  0  0  0
   55.3759   -3.9944  -10.1485 C   0  0  0  0  0  0  0  0  0  0  0  0
   56.7370   -3.9490   -9.7724 N   0  0  0  0  0  0  0  0  0  0  0  0
   55.0139   -4.0017  -11.3374 O   0  0  0  0  0  0  0  0  0  0  0  0
   57.4551   -3.3320  -10.2049 H   0  0  0  0  0  0  0  0  0  0  0  0
   57.1178   -4.5663   -8.9922 H   0  0  0  0  0  0  0  0  0  0  0  0
   55.4910   -5.5011   -7.5962 O   0  0  0  0  0  0  0  0  0  0  0  0
   57.7238   -5.9222   -6.9770 C   0  0  0  0  0  0  0  0  0  0  0  0
   56.3817   -5.2974   -6.5400 C   0  0  0  0  0  0  0  0  0  0  0  0
   55.8978   -6.0978   -5.3889 C   0  0  0  0  0  0  0  0  0  0  0  0
   55.4616   -7.4082   -5.5785 C   0  0  0  0  0  0  0  0  0  0  0  0
   54.9658   -8.1844   -4.5432 C   0  0  0  0  0  0  0  0  0  0  0  0
   54.8856   -7.6821   -3.2731 C   0  0  0  0  0  0  0  0  0  0  0  0
   55.3068   -6.3958   -3.0523 C   0  0  0  0  0  0  0  0  0  0  0  0
   55.8081   -5.6164   -4.1069 C   0  0  0  0  0  0  0  0  0  0  0  0
   56.3502   -3.9847   -3.7684 Cl  0  0  0  0  0  0  0  0  0  0  0  0
 27 28  1  0  0  0
 28 26  1  0  0  0
 26  1  1  0  0  0
  1  2  1  0  0  0
  2  3  2  0  0  0
  3  4  1  0  0  0
  4  5  1  0  0  0
  5 21  1  0  0  0
 21 22  1  0  0  0
 21 23  2  0  0  0
  3  6  1  0  0  0
  6  7  1  0  0  0
  7  8  2  0  0  0
  8  9  1  0  0  0
  9 10  2  0  0  0
 10 11  1  0  0  0
 11 12  2  0  0  0
 12 13  1  0  0  0
 13 14  2  0  0  0
 12 15  1  0  0  0
 15 16  1  0  0  0
 16 17  2  0  0  0
 17 18  1  0  0  0
 18 19  1  0  0  0
 18 20  1  0  0  0
 28 29  1  0  0  0
 29 30  2  0  0  0
 30 31  1  0  0  0
 31 32  2  0  0  0
 32 33  1  0  0  0
 33 34  2  0  0  0
 34 35  1  0  0  0
  5  1  2  0  0  0
 14  6  1  0  0  0
 20 15  2  0  0  0
 34 29  1  0  0  0
 14  9  1  0  0  0
 22 24  1  0  0  0
 22 25  1  0  0  0
M  END
> <minimizedAffinity>
-8.03951

> <CNNscore>
0.4350194633

> <CNNaffinity>
7.7044591904

> <CNN_VS>
3.3515896797

> <CNNaffinity_variance>
0.1685885489

$$$$
[H]c1nn(C([H])([H])[H])c([H])c1-c1c([H])c([H])c2nc([H])n(-c3sc(C(=O)N([H])[H])c(O[C@@]([H])(c4c([H])c([H])c([H])c([H])c4Cl)C([H])([H])[H])c3[H])c2c1[H]


 35 39  0  0  0  0  0  0  0  0999 V2000
   56.1417   -4.4971  -10.0908 C   0  0  0  0  0  0  0  0  0  0  0  0
   55.9800   -4.1305  -11.3694 C   0  0  0  0  0  0  0  0  0  0  0  0
   57.0807   -4.1291  -12.1820 C   0  0  0  0  0  0  0  0  0  0  0  0
   58.3235   -4.6427  -11.1302 S   0  0  0  0  0  0  0  0  0  0  0  0
   57.4198   -4.8444   -9.7015 C   0  0  0  0  0  0  0  0  0  0  0  0
   57.1695   -3.7949  -13.5864 N   0  0  0  0  0  0  0  0  0  0  0  0
   56.1049   -3.7143  -14.4330 C   0  0  0  0  0  0  0  0  0  0  0  0
   56.5608   -3.4029  -15.6568 N   0  0  0  0  0  0  0  0  0  0  0  0
   57.8889   -3.2894  -15.5806 C   0  0  0  0  0  0  0  0  0  0  0  0
   58.8789   -2.9958  -16.5036 C   0  0  0  0  0  0  0  0  0  0  0  0
   60.1919   -2.9592  -16.0936 C   0  0  0  0  0  0  0  0  0  0  0  0
   60.5765   -3.2063  -14.7819 C   0  0  0  0  0  0  0  0  0  0  0  0
   59.6038   -3.4957  -13.8731 C   0  0  0  0  0  0  0  0  0  0  0  0
   58.2670   -3.5368  -14.2743 C   0  0  0  0  0  0  0  0  0  0  0  0
   61.9812   -3.1622  -14.3875 C   0  0  0  0  0  0  0  0  0  0  0  0
   62.6245   -2.0373  -13.9319 C   0  0  0  0  0  0  0  0  0  0  0  0
   63.9182   -2.3641  -13.6536 N   0  0  0  0  0  0  0  0  0  0  0  0
   64.1087   -3.6538  -13.9184 N   0  0  0  0  0  0  0  0  0  0  0  0
   65.3609   -4.3627  -13.7440 C   0  0  0  0  0  0  0  0  0  0  0  0
   62.9284   -4.1615  -14.3707 C   0  0  0  0  0  0  0  0  0  0  0  0
   57.9006   -5.2884   -8.3864 C   0  0  0  0  0  0  0  0  0  0  0  0
   56.9544   -5.6547   -7.4032 N   0  0  0  0  0  0  0  0  0  0  0  0
   59.1253   -5.3294   -8.1794 O   0  0  0  0  0  0  0  0  0  0  0  0
   56.9981   -5.3778   -6.4008 H   0  0  0  0  0  0  0  0  0  0  0  0
   56.1087   -6.2561   -7.6440 H   0  0  0  0  0  0  0  0  0  0  0  0
   55.1220   -4.5572   -9.1230 O   0  0  0  0  0  0  0  0  0  0  0  0
   54.5445   -2.3493   -8.5418 C   0  0  0  0  0  0  0  0  0  0  0  0
   54.0130   -3.7132   -9.0316 C   0  0  0  0  0  0  0  0  0  0  0  0
   53.1411   -4.2390   -7.9532 C   0  0  0  0  0  0  0  0  0  0  0  0
   53.4692   -5.4267   -7.3011 C   0  0  0  0  0  0  0  0  0  0  0  0
   52.6690   -5.9789   -6.3138 C   0  0  0  0  0  0  0  0  0  0  0  0
   51.5056   -5.3655   -5.9365 C   0  0  0  0  0  0  0  0  0  0  0  0
   51.1536   -4.1950   -6.5583 C   0  0  0  0  0  0  0  0  0  0  0  0
   51.9704   -3.6423   -7.5575 C   0  0  0  0  0  0  0  0  0  0  0  0
   51.4846   -2.1353   -8.3084 Cl  0  0  0  0  0  0  0  0  0  0  0  0
 27 28  1  0  0  0
 28 26  1  0  0  0
 26  1  1  0  0  0
  1  2  1  0  0  0
  2  3  2  0  0  0
  3  4  1  0  0  0
  4  5  1  0  0  0
  5 21  1  0  0  0
 21 22  1  0  0  0
 21 23  2  0  0  0
  3  6  1  0  0  0
  6  7  1  0  0  0
  7  8  2  0  0  0
  8  9  1  0  0  0
  9 10  2  0  0  0
 10 11  1  0  0  0
 11 12  2  0  0  0
 12 13  1  0  0  0
 13 14  2  0  0  0
 12 15  1  0  0  0
 15 16  1  0  0  0
 16 17  2  0  0  0
 17 18  1  0  0  0
 18 19  1  0  0  0
 18 20  1  0  0  0
 28 29  1  0  0  0
 29 30  2  0  0  0
 30 31  1  0  0  0
 31 32  2  0  0  0
 32 33  1  0  0  0
 33 34  2  0  0  0
 34 35  1  0  0  0
  5  1  2  0  0  0
 14  6  1  0  0  0
 20 15  2  0  0  0
 34 29  1  0  0  0
 14  9  1  0  0  0
 22 24  1  0  0  0
 22 25  1  0  0  0
M  END
> <minimizedAffinity>
-9.14552

> <CNNscore>
0.3679206371

> <CNNaffinity>
6.5876007080

> <CNN_VS>
2.4237141609

> <CNNaffinity_variance>
0.2661995292

$$$$
[H]c1nn(C([H])([H])[H])c([H])c1-c1c([H])c([H])c2nc([H])n(-c3sc(C(=O)N([H])[H])c(O[C@@]([H])(c4c([H])c([H])c([H])c([H])c4Cl)C([H])([H])[H])c3[H])c2c1[H]


 35 39  0  0  0  0  0  0  0  0999 V2000
   53.7608   -5.5529   -5.7724 C   0  0  0  0  0  0  0  0  0  0  0  0
   53.9382   -5.0092   -6.9841 C   0  0  0  0  0  0  0  0  0  0  0  0
   55.1675   -5.1349   -7.5715 C   0  0  0  0  0  0  0  0  0  0  0  0
   56.0513   -6.0152   -6.4061 S   0  0  0  0  0  0  0  0  0  0  0  0
   54.8471   -6.1989   -5.2169 C   0  0  0  0  0  0  0  0  0  0  0  0
   55.6065   -4.6587   -8.8648 N   0  0  0  0  0  0  0  0  0  0  0  0
   54.8508   -3.9030   -9.7101 C   0  0  0  0  0  0  0  0  0  0  0  0
   55.5686   -3.6641  -10.8193 N   0  0  0  0  0  0  0  0  0  0  0  0
   56.7549   -4.2591  -10.6735 C   0  0  0  0  0  0  0  0  0  0  0  0
   57.8803   -4.3590  -11.4744 C   0  0  0  0  0  0  0  0  0  0  0  0
   58.9686   -5.0682  -11.0205 C   0  0  0  0  0  0  0  0  0  0  0  0
   58.9924   -5.6966   -9.7820 C   0  0  0  0  0  0  0  0  0  0  0  0
   57.8859   -5.5995   -8.9933 C   0  0  0  0  0  0  0  0  0  0  0  0
   56.7736   -4.8836   -9.4405 C   0  0  0  0  0  0  0  0  0  0  0  0
   60.1655   -6.4435   -9.3383 C   0  0  0  0  0  0  0  0  0  0  0  0
   60.4810   -7.7132   -9.7568 C   0  0  0  0  0  0  0  0  0  0  0  0
   61.6394   -8.0923   -9.1464 N   0  0  0  0  0  0  0  0  0  0  0  0
   62.0611   -7.1053   -8.3603 N   0  0  0  0  0  0  0  0  0  0  0  0
   63.2628   -7.1425   -7.5507 C   0  0  0  0  0  0  0  0  0  0  0  0
   61.1675   -6.0828   -8.4654 C   0  0  0  0  0  0  0  0  0  0  0  0
   54.9551   -6.8877   -3.9239 C   0  0  0  0  0  0  0  0  0  0  0  0
   54.5897   -6.1929   -2.7492 N   0  0  0  0  0  0  0  0  0  0  0  0
   55.3638   -8.0612   -3.9031 O   0  0  0  0  0  0  0  0  0  0  0  0
   55.1283   -6.2023   -1.8586 H   0  0  0  0  0  0  0  0  0  0  0  0
   53.7090   -5.5948   -2.7098 H   0  0  0  0  0  0  0  0  0  0  0  0
   52.5667   -5.5196   -5.0290 O   0  0  0  0  0  0  0  0  0  0  0  0
   51.4850   -6.4147   -6.9198 C   0  0  0  0  0  0  0  0  0  0  0  0
   51.3046   -5.9277   -5.4662 C   0  0  0  0  0  0  0  0  0  0  0  0
   50.4435   -4.7216   -5.5284 C   0  0  0  0  0  0  0  0  0  0  0  0
   50.3929   -3.9540   -6.6911 C   0  0  0  0  0  0  0  0  0  0  0  0
   49.6339   -2.7987   -6.7873 C   0  0  0  0  0  0  0  0  0  0  0  0
   48.8924   -2.3622   -5.7235 C   0  0  0  0  0  0  0  0  0  0  0  0
   48.9198   -3.0946   -4.5645 C   0  0  0  0  0  0  0  0  0  0  0  0
   49.6914   -4.2642   -4.4757 C   0  0  0  0  0  0  0  0  0  0  0  0
   49.6779   -5.1739   -2.9779 Cl  0  0  0  0  0  0  0  0  0  0  0  0
 27 28  1  0  0  0
 28 26  1  0  0  0
 26  1  1  0  0  0
  1  2  1  0  0  0
  2  3  2  0  0  0
  3  4  1  0  0  0
  4  5  1  0  0  0
  5 21  1  0  0  0
 21 22  1  0  0  0
 21 23  2  0  0  0
  3  6  1  0  0  0
  6  7  1  0  0  0
  7  8  2  0  0  0
  8  9  1  0  0  0
  9 10  2  0  0  0
 10 11  1  0  0  0
 11 12  2  0  0  0
 12 13  1  0  0  0
 13 14  2  0  0  0
 12 15  1  0  0  0
 15 16  1  0  0  0
 16 17  2  0  0  0
 17 18  1  0  0  0
 18 19  1  0  0  0
 18 20  1  0  0  0
 28 29  1  0  0  0
 29 30  2  0  0  0
 30 31  1  0  0  0
 31 32  2  0  0  0
 32 33  1  0  0  0
 33 34  2  0  0  0
 34 35  1  0  0  0
  5  1  2  0  0  0
 14  6  1  0  0  0
 20 15  2  0  0  0
 34 29  1  0  0  0
 14  9  1  0  0  0
 22 24  1  0  0  0
 22 25  1  0  0  0
M  END
> <minimizedAffinity>
-10.01886

> <CNNscore>
0.3540552258

> <CNNaffinity>
6.9446382523

> <CNN_VS>
2.4587855339

> <CNNaffinity_variance>
0.3685850203

$$$$
[H]c1nc(N([H])c2c([H])c([H])c([H])c([H])c2C([H])([H])[H])nc2c1C([H])([H])C([H])([H])c1c(C(=O)N([H])[H])nn(C([H])([H])[H])c1-2


 28 31  0  0  0  0  0  0  0  0999 V2000
   53.3664   -3.4170   -9.2660 C   0  0  0  0  0  0  0  0  0  0  0  0
   52.4843   -2.4665   -9.4966 N   0  0  0  0  0  0  0  0  0  0  0  0
   51.4154   -2.1683   -8.7493 C   0  0  0  0  0  0  0  0  0  0  0  0
   51.1990   -2.9351   -7.6032 C   0  0  0  0  0  0  0  0  0  0  0  0
   50.0305   -2.6947   -6.7551 C   0  0  0  0  0  0  0  0  0  0  0  0
   50.0029   -3.4295   -5.4745 C   0  0  0  0  0  0  0  0  0  0  0  0
   50.9550   -4.5282   -5.2681 C   0  0  0  0  0  0  0  0  0  0  0  0
   51.0482   -5.4698   -4.2320 C   0  0  0  0  0  0  0  0  0  0  0  0
   52.1199   -6.2195   -4.5201 N   0  0  0  0  0  0  0  0  0  0  0  0
   52.6809   -5.8087   -5.6443 N   0  0  0  0  0  0  0  0  0  0  0  0
   53.8613   -6.3396   -6.3182 C   0  0  0  0  0  0  0  0  0  0  0  0
   51.9755   -4.7626   -6.1257 C   0  0  0  0  0  0  0  0  0  0  0  0
   52.0946   -3.9294   -7.3311 C   0  0  0  0  0  0  0  0  0  0  0  0
   53.1317   -4.1620   -8.1255 N   0  0  0  0  0  0  0  0  0  0  0  0
   50.1372   -5.5759   -3.0871 C   0  0  0  0  0  0  0  0  0  0  0  0
   50.4987   -6.2273   -1.8980 N   0  0  0  0  0  0  0  0  0  0  0  0
   48.9923   -5.0664   -3.1718 O   0  0  0  0  0  0  0  0  0  0  0  0
   50.5877   -5.6404   -1.0238 H   0  0  0  0  0  0  0  0  0  0  0  0
   50.6682   -7.2535   -1.9006 H   0  0  0  0  0  0  0  0  0  0  0  0
   54.5000   -3.7516  -10.0376 N   0  0  0  0  0  0  0  0  0  0  0  0
   54.4152   -3.5935  -11.1000 H   0  0  0  0  0  0  0  0  0  0  0  0
   56.4099   -4.2549  -11.9718 C   0  0  0  0  0  0  0  0  0  0  0  0
   56.7177   -4.5304  -10.5591 C   0  0  0  0  0  0  0  0  0  0  0  0
   57.9525   -5.0349  -10.2204 C   0  0  0  0  0  0  0  0  0  0  0  0
   58.2274   -5.2880   -8.8979 C   0  0  0  0  0  0  0  0  0  0  0  0
   57.2773   -5.0373   -7.9401 C   0  0  0  0  0  0  0  0  0  0  0  0
   56.0334   -4.5265   -8.3043 C   0  0  0  0  0  0  0  0  0  0  0  0
   55.7222   -4.2616   -9.6090 C   0  0  0  0  0  0  0  0  0  0  0  0
 22 23  1  0  0  0
 23 24  2  0  0  0
 24 25  1  0  0  0
 25 26  2  0  0  0
 26 27  1  0  0  0
 27 28  2  0  0  0
 28 20  1  0  0  0
 20  1  1  0  0  0
  1  2  2  0  0  0
  2  3  1  0  0  0
  3  4  2  0  0  0
  4  5  1  0  0  0
  5  6  1  0  0  0
  6  7  1  0  0  0
  7  8  1  0  0  0
  8  9  2  0  0  0
  9 10  1  0  0  0
 10 11  1  0  0  0
 10 12  1  0  0  0
 12 13  1  0  0  0
 13 14  2  0  0  0
  8 15  1  0  0  0
 15 16  1  0  0  0
 15 17  2  0  0  0
 28 23  1  0  0  0
 14  1  1  0  0  0
 13  4  1  0  0  0
 12  7  2  0  0  0
 20 21  1  0  0  0
 16 18  1  0  0  0
 16 19  1  0  0  0
M  END
> <minimizedAffinity>
-11.39771

> <CNNscore>
0.9393483996

> <CNNaffinity>
7.3124823570

> <CNN_VS>
6.8689684868

> <CNNaffinity_variance>
0.0801001489

$$$$
[H]c1nc(N([H])c2c([H])c([H])c([H])c([H])c2C([H])([H])[H])nc2c1C([H])([H])C([H])([H])c1c(C(=O)N([H])[H])nn(C([H])([H])[H])c1-2


 28 31  0  0  0  0  0  0  0  0999 V2000
   54.1891   -4.2502   -8.5720 C   0  0  0  0  0  0  0  0  0  0  0  0
   54.5936   -5.3334   -7.9412 N   0  0  0  0  0  0  0  0  0  0  0  0
   53.9974   -5.9216   -6.8981 C   0  0  0  0  0  0  0  0  0  0  0  0
   52.8239   -5.3389   -6.4168 C   0  0  0  0  0  0  0  0  0  0  0  0
   52.1341   -5.9019   -5.2550 C   0  0  0  0  0  0  0  0  0  0  0  0
   50.8089   -5.3253   -4.9517 C   0  0  0  0  0  0  0  0  0  0  0  0
   50.4085   -4.0810   -5.6207 C   0  0  0  0  0  0  0  0  0  0  0  0
   49.2950   -3.2528   -5.4126 C   0  0  0  0  0  0  0  0  0  0  0  0
   49.3995   -2.2722   -6.3187 N   0  0  0  0  0  0  0  0  0  0  0  0
   50.4837   -2.4396   -7.0560 N   0  0  0  0  0  0  0  0  0  0  0  0
   50.9759   -1.6095   -8.1506 C   0  0  0  0  0  0  0  0  0  0  0  0
   51.1246   -3.5534   -6.6407 C   0  0  0  0  0  0  0  0  0  0  0  0
   52.3731   -4.2147   -7.0474 C   0  0  0  0  0  0  0  0  0  0  0  0
   53.0250   -3.6919   -8.0781 N   0  0  0  0  0  0  0  0  0  0  0  0
   48.2544   -3.4563   -4.3989 C   0  0  0  0  0  0  0  0  0  0  0  0
   48.3032   -4.5105   -3.4742 N   0  0  0  0  0  0  0  0  0  0  0  0
   47.2841   -2.6600   -4.3552 O   0  0  0  0  0  0  0  0  0  0  0  0
   48.4248   -4.2639   -2.4538 H   0  0  0  0  0  0  0  0  0  0  0  0
   48.2203   -5.4934   -3.8044 H   0  0  0  0  0  0  0  0  0  0  0  0
   54.7993   -3.6107   -9.6725 N   0  0  0  0  0  0  0  0  0  0  0  0
   54.3528   -2.6830   -9.9905 H   0  0  0  0  0  0  0  0  0  0  0  0
   57.0241   -4.4375   -8.2553 C   0  0  0  0  0  0  0  0  0  0  0  0
   57.0569   -4.4456   -9.7268 C   0  0  0  0  0  0  0  0  0  0  0  0
   58.1950   -4.8648  -10.3771 C   0  0  0  0  0  0  0  0  0  0  0  0
   58.2128   -4.8676  -11.7512 C   0  0  0  0  0  0  0  0  0  0  0  0
   57.1070   -4.4564  -12.4519 C   0  0  0  0  0  0  0  0  0  0  0  0
   55.9649   -4.0357  -11.7742 C   0  0  0  0  0  0  0  0  0  0  0  0
   55.9082   -4.0187  -10.4083 C   0  0  0  0  0  0  0  0  0  0  0  0
 22 23  1  0  0  0
 23 24  2  0  0  0
 24 25  1  0  0  0
 25 26  2  0  0  0
 26 27  1  0  0  0
 27 28  2  0  0  0
 28 20  1  0  0  0
 20  1  1  0  0  0
  1  2  2  0  0  0
  2  3  1  0  0  0
  3  4  2  0  0  0
  4  5  1  0  0  0
  5  6  1  0  0  0
  6  7  1  0  0  0
  7  8  1  0  0  0
  8  9  2  0  0  0
  9 10  1  0  0  0
 10 11  1  0  0  0
 10 12  1  0  0  0
 12 13  1  0  0  0
 13 14  2  0  0  0
  8 15  1  0  0  0
 15 16  1  0  0  0
 15 17  2  0  0  0
 28 23  1  0  0  0
 14  1  1  0  0  0
 13  4  1  0  0  0
 12  7  2  0  0  0
 20 21  1  0  0  0
 16 18  1  0  0  0
 16 19  1  0  0  0
M  END
> <minimizedAffinity>
-9.67777

> <CNNscore>
0.7470887303

> <CNNaffinity>
7.2250151634

> <CNN_VS>
5.3977274895

> <CNNaffinity_variance>
0.1887725294

$$$$
[H]c1nc(N([H])c2c([H])c([H])c([H])c([H])c2C([H])([H])[H])nc2c1C([H])([H])C([H])([H])c1c(C(=O)N([H])[H])nn(C([H])([H])[H])c1-2


 28 31  0  0  0  0  0  0  0  0999 V2000
   53.9749   -3.9116   -8.6065 C   0  0  0  0  0  0  0  0  0  0  0  0
   53.4873   -2.8883   -9.2772 N   0  0  0  0  0  0  0  0  0  0  0  0
   52.3342   -2.2526   -9.0404 C   0  0  0  0  0  0  0  0  0  0  0  0
   51.5561   -2.7093   -7.9755 C   0  0  0  0  0  0  0  0  0  0  0  0
   50.2638   -2.0900   -7.6770 C   0  0  0  0  0  0  0  0  0  0  0  0
   49.6183   -2.5215   -6.4210 C   0  0  0  0  0  0  0  0  0  0  0  0
   50.1414   -3.7049   -5.7265 C   0  0  0  0  0  0  0  0  0  0  0  0
   49.6389   -4.4084   -4.6213 C   0  0  0  0  0  0  0  0  0  0  0  0
   50.5260   -5.3819   -4.3787 N   0  0  0  0  0  0  0  0  0  0  0  0
   51.5219   -5.3245   -5.2459 N   0  0  0  0  0  0  0  0  0  0  0  0
   52.6939   -6.1885   -5.3429 C   0  0  0  0  0  0  0  0  0  0  0  0
   51.3042   -4.2939   -6.0909 C   0  0  0  0  0  0  0  0  0  0  0  0
   52.0309   -3.7683   -7.2559 C   0  0  0  0  0  0  0  0  0  0  0  0
   53.1874   -4.3453   -7.5565 N   0  0  0  0  0  0  0  0  0  0  0  0
   48.3932   -4.1058   -3.9082 C   0  0  0  0  0  0  0  0  0  0  0  0
   47.5005   -3.1148   -4.3442 N   0  0  0  0  0  0  0  0  0  0  0  0
   48.1134   -4.7554   -2.8704 O   0  0  0  0  0  0  0  0  0  0  0  0
   46.5465   -3.4246   -4.6767 H   0  0  0  0  0  0  0  0  0  0  0  0
   47.7895   -2.1156   -4.3314 H   0  0  0  0  0  0  0  0  0  0  0  0
   55.1862   -4.5991   -8.8361 N   0  0  0  0  0  0  0  0  0  0  0  0
   55.5042   -5.2739   -8.0586 H   0  0  0  0  0  0  0  0  0  0  0  0
   57.8500   -5.2186   -8.4336 C   0  0  0  0  0  0  0  0  0  0  0  0
   57.3904   -4.8298   -9.7767 C   0  0  0  0  0  0  0  0  0  0  0  0
   58.2934   -4.7799  -10.8139 C   0  0  0  0  0  0  0  0  0  0  0  0
   57.8517   -4.4153  -12.0631 C   0  0  0  0  0  0  0  0  0  0  0  0
   56.5289   -4.1081  -12.2598 C   0  0  0  0  0  0  0  0  0  0  0  0
   55.6310   -4.1648  -11.1961 C   0  0  0  0  0  0  0  0  0  0  0  0
   56.0319   -4.5231   -9.9390 C   0  0  0  0  0  0  0  0  0  0  0  0
 22 23  1  0  0  0
 23 24  2  0  0  0
 24 25  1  0  0  0
 25 26  2  0  0  0
 26 27  1  0  0  0
 27 28  2  0  0  0
 28 20  1  0  0  0
 20  1  1  0  0  0
  1  2  2  0  0  0
  2  3  1  0  0  0
  3  4  2  0  0  0
  4  5  1  0  0  0
  5  6  1  0  0  0
  6  7  1  0  0  0
  7  8  1  0  0  0
  8  9  2  0  0  0
  9 10  1  0  0  0
 10 11  1  0  0  0
 10 12  1  0  0  0
 12 13  1  0  0  0
 13 14  2  0  0  0
  8 15  1  0  0  0
 15 16  1  0  0  0
 15 17  2  0  0  0
 28 23  1  0  0  0
 14  1  1  0  0  0
 13  4  1  0  0  0
 12  7  2  0  0  0
 20 21  1  0  0  0
 16 18  1  0  0  0
 16 19  1  0  0  0
M  END
> <minimizedAffinity>
-10.55025

> <CNNscore>
0.7402087450

> <CNNaffinity>
7.1774559021

> <CNN_VS>
5.3128156662

> <CNNaffinity_variance>
0.1937787235

$$$$
[H]c1nc(N([H])c2c([H])c([H])c([H])c([H])c2C([H])([H])[H])nc2c1C([H])([H])C([H])([H])c1c(C(=O)N([H])[H])nn(C([H])([H])[H])c1-2


 28 31  0  0  0  0  0  0  0  0999 V2000
   52.7357   -3.4457   -8.3847 C   0  0  0  0  0  0  0  0  0  0  0  0
   52.5965   -3.1917   -9.6696 N   0  0  0  0  0  0  0  0  0  0  0  0
   53.5177   -3.3655  -10.6240 C   0  0  0  0  0  0  0  0  0  0  0  0
   54.7602   -3.8674  -10.2335 C   0  0  0  0  0  0  0  0  0  0  0  0
   55.8322   -4.0495  -11.2134 C   0  0  0  0  0  0  0  0  0  0  0  0
   57.0319   -4.7617  -10.7298 C   0  0  0  0  0  0  0  0  0  0  0  0
   57.1945   -4.9749   -9.2861 C   0  0  0  0  0  0  0  0  0  0  0  0
   58.2833   -5.4763   -8.5565 C   0  0  0  0  0  0  0  0  0  0  0  0
   57.8850   -5.4928   -7.2780 N   0  0  0  0  0  0  0  0  0  0  0  0
   56.6465   -5.0425   -7.1753 N   0  0  0  0  0  0  0  0  0  0  0  0
   55.8301   -4.8928   -5.9751 C   0  0  0  0  0  0  0  0  0  0  0  0
   56.1991   -4.7150   -8.4067 C   0  0  0  0  0  0  0  0  0  0  0  0
   54.9406   -4.1440   -8.9084 C   0  0  0  0  0  0  0  0  0  0  0  0
   53.9737   -3.9424   -8.0223 N   0  0  0  0  0  0  0  0  0  0  0  0
   59.5746   -5.8863   -9.1190 C   0  0  0  0  0  0  0  0  0  0  0  0
   60.5648   -6.5126   -8.3468 N   0  0  0  0  0  0  0  0  0  0  0  0
   59.8045   -5.6702  -10.3347 O   0  0  0  0  0  0  0  0  0  0  0  0
   60.8096   -7.5138   -8.5798 H   0  0  0  0  0  0  0  0  0  0  0  0
   61.0288   -5.9897   -7.5766 H   0  0  0  0  0  0  0  0  0  0  0  0
   51.7814   -3.2708   -7.3594 N   0  0  0  0  0  0  0  0  0  0  0  0
   51.2516   -2.3325   -7.3585 H   0  0  0  0  0  0  0  0  0  0  0  0
   49.3777   -2.8207   -6.0705 C   0  0  0  0  0  0  0  0  0  0  0  0
   50.2173   -3.9589   -5.6633 C   0  0  0  0  0  0  0  0  0  0  0  0
   49.7941   -4.7837   -4.6462 C   0  0  0  0  0  0  0  0  0  0  0  0
   50.5873   -5.8429   -4.2755 C   0  0  0  0  0  0  0  0  0  0  0  0
   51.7800   -6.0636   -4.9170 C   0  0  0  0  0  0  0  0  0  0  0  0
   52.1901   -5.2166   -5.9442 C   0  0  0  0  0  0  0  0  0  0  0  0
   51.4290   -4.1527   -6.3418 C   0  0  0  0  0  0  0  0  0  0  0  0
 22 23  1  0  0  0
 23 24  2  0  0  0
 24 25  1  0  0  0
 25 26  2  0  0  0
 26 27  1  0  0  0
 27 28  2  0  0  0
 28 20  1  0  0  0
 20  1  1  0  0  0
  1  2  2  0  0  0
  2  3  1  0  0  0
  3  4  2  0  0  0
  4  5  1  0  0  0
  5  6  1  0  0  0
  6  7  1  0  0  0
  7  8  1  0  0  0
  8  9  2  0  0  0
  9 10  1  0  0  0
 10 11  1  0  0  0
 10 12  1  0  0  0
 12 13  1  0  0  0
 13 14  2  0  0  0
  8 15  1  0  0  0
 15 16  1  0  0  0
 15 17  2  0  0  0
 28 23  1  0  0  0
 14  1  1  0  0  0
 13  4  1  0  0  0
 12  7  2  0  0  0
 20 21  1  0  0  0
 16 18  1  0  0  0
 16 19  1  0  0  0
M  END
> <minimizedAffinity>
-9.51092

> <CNNscore>
0.7071630359

> <CNNaffinity>
6.8686966896

> <CNN_VS>
4.8572883606

> <CNNaffinity_variance>
0.1991693974

$$$$
[H]c1nc(N([H])c2c([H])c([H])c([H])c([H])c2C([H])([H])[H])nc2c1C([H])([H])C([H])([H])c1c(C(=O)N([H])[H])nn(C([H])([H])[H])c1-2


 28 31  0  0  0  0  0  0  0  0999 V2000
   56.1925   -5.6884   -7.1173 C   0  0  0  0  0  0  0  0  0  0  0  0
   55.9924   -6.5508   -6.1421 N   0  0  0  0  0  0  0  0  0  0  0  0
   54.8685   -6.7122   -5.4346 C   0  0  0  0  0  0  0  0  0  0  0  0
   53.7867   -5.8888   -5.7510 C   0  0  0  0  0  0  0  0  0  0  0  0
   52.5355   -5.9791   -4.9968 C   0  0  0  0  0  0  0  0  0  0  0  0
   51.4015   -5.2023   -5.5364 C   0  0  0  0  0  0  0  0  0  0  0  0
   51.6617   -4.2006   -6.5781 C   0  0  0  0  0  0  0  0  0  0  0  0
   50.8141   -3.2387   -7.1485 C   0  0  0  0  0  0  0  0  0  0  0  0
   51.5499   -2.6131   -8.0763 N   0  0  0  0  0  0  0  0  0  0  0  0
   52.7712   -3.1172   -8.1128 N   0  0  0  0  0  0  0  0  0  0  0  0
   53.8880   -2.7333   -8.9701 C   0  0  0  0  0  0  0  0  0  0  0  0
   52.8635   -4.1013   -7.1926 C   0  0  0  0  0  0  0  0  0  0  0  0
   53.9570   -4.9829   -6.7585 C   0  0  0  0  0  0  0  0  0  0  0  0
   55.1072   -4.8849   -7.4129 N   0  0  0  0  0  0  0  0  0  0  0  0
   49.4155   -3.0010   -6.7752 C   0  0  0  0  0  0  0  0  0  0  0  0
   49.0201   -2.7818   -5.4468 N   0  0  0  0  0  0  0  0  0  0  0  0
   48.5390   -2.9927   -7.6747 O   0  0  0  0  0  0  0  0  0  0  0  0
   48.6348   -1.8294   -5.1995 H   0  0  0  0  0  0  0  0  0  0  0  0
   49.1119   -3.5454   -4.7464 H   0  0  0  0  0  0  0  0  0  0  0  0
   57.3666   -5.4982   -7.8773 N   0  0  0  0  0  0  0  0  0  0  0  0
   58.2981   -5.6701   -7.3637 H   0  0  0  0  0  0  0  0  0  0  0  0
   59.7699   -6.0279   -9.1365 C   0  0  0  0  0  0  0  0  0  0  0  0
   58.6886   -5.3672   -9.8853 C   0  0  0  0  0  0  0  0  0  0  0  0
   58.8889   -5.0222  -11.2023 C   0  0  0  0  0  0  0  0  0  0  0  0
   57.8714   -4.4057  -11.8903 C   0  0  0  0  0  0  0  0  0  0  0  0
   56.6797   -4.1440  -11.2625 C   0  0  0  0  0  0  0  0  0  0  0  0
   56.4975   -4.5014   -9.9284 C   0  0  0  0  0  0  0  0  0  0  0  0
   57.4854   -5.1161   -9.2105 C   0  0  0  0  0  0  0  0  0  0  0  0
 22 23  1  0  0  0
 23 24  2  0  0  0
 24 25  1  0  0  0
 25 26  2  0  0  0
 26 27  1  0  0  0
 27 28  2  0  0  0
 28 20  1  0  0  0
 20  1  1  0  0  0
  1  2  2  0  0  0
  2  3  1  0  0  0
  3  4  2  0  0  0
  4  5  1  0  0  0
  5  6  1  0  0  0
  6  7  1  0  0  0
  7  8  1  0  0  0
  8  9  2  0  0  0
  9 10  1  0  0  0
 10 11  1  0  0  0
 10 12  1  0  0  0
 12 13  1  0  0  0
 13 14  2  0  0  0
  8 15  1  0  0  0
 15 16  1  0  0  0
 15 17  2  0  0  0
 28 23  1  0  0  0
 14  1  1  0  0  0
 13  4  1  0  0  0
 12  7  2  0  0  0
 20 21  1  0  0  0
 16 18  1  0  0  0
 16 19  1  0  0  0
M  END
> <minimizedAffinity>
-9.17539

> <CNNscore>
0.5829261541

> <CNNaffinity>
6.8334169388

> <CNN_VS>
3.9833774567

> <CNNaffinity_variance>
0.1830433905

$$$$
[H]c1nc(N([H])c2c([H])c([H])c([H])c([H])c2C([H])([H])[H])nc2c1C([H])([H])C([H])([H])c1c(C(=O)N([H])[H])nn(C([H])([H])[H])c1-2


 28 31  0  0  0  0  0  0  0  0999 V2000
   54.1367   -4.1388   -8.3132 C   0  0  0  0  0  0  0  0  0  0  0  0
   54.5636   -4.4647   -7.1106 N   0  0  0  0  0  0  0  0  0  0  0  0
   55.7875   -4.8961   -6.7856 C   0  0  0  0  0  0  0  0  0  0  0  0
   56.7201   -5.0188   -7.8169 C   0  0  0  0  0  0  0  0  0  0  0  0
   58.0684   -5.5204   -7.5470 C   0  0  0  0  0  0  0  0  0  0  0  0
   59.0255   -5.4283   -8.6678 C   0  0  0  0  0  0  0  0  0  0  0  0
   58.5152   -5.1274  -10.0114 C   0  0  0  0  0  0  0  0  0  0  0  0
   59.1665   -5.1289  -11.2543 C   0  0  0  0  0  0  0  0  0  0  0  0
   58.2441   -4.7454  -12.1463 N   0  0  0  0  0  0  0  0  0  0  0  0
   57.0902   -4.5129  -11.5449 N   0  0  0  0  0  0  0  0  0  0  0  0
   55.8285   -4.0785  -12.1355 C   0  0  0  0  0  0  0  0  0  0  0  0
   57.2345   -4.7440  -10.2222 C   0  0  0  0  0  0  0  0  0  0  0  0
   56.3132   -4.6881   -9.0778 C   0  0  0  0  0  0  0  0  0  0  0  0
   55.0778   -4.2676   -9.3175 N   0  0  0  0  0  0  0  0  0  0  0  0
   60.5709   -5.4847  -11.4844 C   0  0  0  0  0  0  0  0  0  0  0  0
   61.3242   -6.2109  -10.5493 N   0  0  0  0  0  0  0  0  0  0  0  0
   61.1210   -5.1277  -12.5556 O   0  0  0  0  0  0  0  0  0  0  0  0
   61.6445   -7.1801  -10.8227 H   0  0  0  0  0  0  0  0  0  0  0  0
   61.5478   -5.7895   -9.6250 H   0  0  0  0  0  0  0  0  0  0  0  0
   52.8528   -3.6824   -8.6818 N   0  0  0  0  0  0  0  0  0  0  0  0
   52.7053   -3.4734   -9.7284 H   0  0  0  0  0  0  0  0  0  0  0  0
   51.8860   -5.8421   -7.2524 C   0  0  0  0  0  0  0  0  0  0  0  0
   51.2220   -4.5343   -7.1289 C   0  0  0  0  0  0  0  0  0  0  0  0
   50.1287   -4.4047   -6.3033 C   0  0  0  0  0  0  0  0  0  0  0  0
   49.5177   -3.1783   -6.1968 C   0  0  0  0  0  0  0  0  0  0  0  0
   49.9997   -2.1082   -6.9077 C   0  0  0  0  0  0  0  0  0  0  0  0
   51.1079   -2.2609   -7.7381 C   0  0  0  0  0  0  0  0  0  0  0  0
   51.7430   -3.4644   -7.8705 C   0  0  0  0  0  0  0  0  0  0  0  0
 22 23  1  0  0  0
 23 24  2  0  0  0
 24 25  1  0  0  0
 25 26  2  0  0  0
 26 27  1  0  0  0
 27 28  2  0  0  0
 28 20  1  0  0  0
 20  1  1  0  0  0
  1  2  2  0  0  0
  2  3  1  0  0  0
  3  4  2  0  0  0
  4  5  1  0  0  0
  5  6  1  0  0  0
  6  7  1  0  0  0
  7  8  1  0  0  0
  8  9  2  0  0  0
  9 10  1  0  0  0
 10 11  1  0  0  0
 10 12  1  0  0  0
 12 13  1  0  0  0
 13 14  2  0  0  0
  8 15  1  0  0  0
 15 16  1  0  0  0
 15 17  2  0  0  0
 28 23  1  0  0  0
 14  1  1  0  0  0
 13  4  1  0  0  0
 12  7  2  0  0  0
 20 21  1  0  0  0
 16 18  1  0  0  0
 16 19  1  0  0  0
M  END
> <minimizedAffinity>
-7.29333

> <CNNscore>
0.5401320457

> <CNNaffinity>
6.4872856140

> <CNN_VS>
3.5039908886

> <CNNaffinity_variance>
0.2399639785

$$$$
[H]c1nc(N([H])c2c([H])c([H])c([H])c([H])c2C([H])([H])[H])nc2c1C([H])([H])C([H])([H])c1c(C(=O)N([H])[H])nn(C([H])([H])[H])c1-2


 28 31  0  0  0  0  0  0  0  0999 V2000
   54.4136   -4.9528   -7.8077 C   0  0  0  0  0  0  0  0  0  0  0  0
   54.6881   -5.9419   -6.9825 N   0  0  0  0  0  0  0  0  0  0  0  0
   53.9541   -6.3387   -5.9368 C   0  0  0  0  0  0  0  0  0  0  0  0
   52.7719   -5.6422   -5.6807 C   0  0  0  0  0  0  0  0  0  0  0  0
   51.9341   -5.9922   -4.5326 C   0  0  0  0  0  0  0  0  0  0  0  0
   50.6195   -5.3228   -4.4675 C   0  0  0  0  0  0  0  0  0  0  0  0
   50.3621   -4.1806   -5.3538 C   0  0  0  0  0  0  0  0  0  0  0  0
   49.2819   -3.2860   -5.3959 C   0  0  0  0  0  0  0  0  0  0  0  0
   49.5356   -2.4609   -6.4198 N   0  0  0  0  0  0  0  0  0  0  0  0
   50.6793   -2.7830   -6.9988 N   0  0  0  0  0  0  0  0  0  0  0  0
   51.3291   -2.1511   -8.1425 C   0  0  0  0  0  0  0  0  0  0  0  0
   51.2093   -3.8449   -6.3544 C   0  0  0  0  0  0  0  0  0  0  0  0
   52.4538   -4.6107   -6.5171 C   0  0  0  0  0  0  0  0  0  0  0  0
   53.2380   -4.2788   -7.5347 N   0  0  0  0  0  0  0  0  0  0  0  0
   48.1316   -3.2894   -4.4856 C   0  0  0  0  0  0  0  0  0  0  0  0
   47.8354   -4.3805   -3.6544 N   0  0  0  0  0  0  0  0  0  0  0  0
   47.3836   -2.2812   -4.4471 O   0  0  0  0  0  0  0  0  0  0  0  0
   47.9157   -4.2387   -2.6103 H   0  0  0  0  0  0  0  0  0  0  0  0
   47.5486   -5.2881   -4.0737 H   0  0  0  0  0  0  0  0  0  0  0  0
   55.1703   -4.5147   -8.9158 N   0  0  0  0  0  0  0  0  0  0  0  0
   54.6637   -3.8648   -9.6101 H   0  0  0  0  0  0  0  0  0  0  0  0
   55.9436   -4.1684  -11.5472 C   0  0  0  0  0  0  0  0  0  0  0  0
   56.9242   -4.6477  -10.5598 C   0  0  0  0  0  0  0  0  0  0  0  0
   58.2130   -4.9169  -10.9603 C   0  0  0  0  0  0  0  0  0  0  0  0
   59.1191   -5.3640  -10.0287 C   0  0  0  0  0  0  0  0  0  0  0  0
   58.7322   -5.5351   -8.7233 C   0  0  0  0  0  0  0  0  0  0  0  0
   57.4225   -5.2568   -8.3387 C   0  0  0  0  0  0  0  0  0  0  0  0
   56.4923   -4.8103   -9.2358 C   0  0  0  0  0  0  0  0  0  0  0  0
 22 23  1  0  0  0
 23 24  2  0  0  0
 24 25  1  0  0  0
 25 26  2  0  0  0
 26 27  1  0  0  0
 27 28  2  0  0  0
 28 20  1  0  0  0
 20  1  1  0  0  0
  1  2  2  0  0  0
  2  3  1  0  0  0
  3  4  2  0  0  0
  4  5  1  0  0  0
  5  6  1  0  0  0
  6  7  1  0  0  0
  7  8  1  0  0  0
  8  9  2  0  0  0
  9 10  1  0  0  0
 10 11  1  0  0  0
 10 12  1  0  0  0
 12 13  1  0  0  0
 13 14  2  0  0  0
  8 15  1  0  0  0
 15 16  1  0  0  0
 15 17  2  0  0  0
 28 23  1  0  0  0
 14  1  1  0  0  0
 13  4  1  0  0  0
 12  7  2  0  0  0
 20 21  1  0  0  0
 16 18  1  0  0  0
 16 19  1  0  0  0
M  END
> <minimizedAffinity>
-9.76856

> <CNNscore>
0.5335859656

> <CNNaffinity>
6.9555015564

> <CNN_VS>
3.7113580704

> <CNNaffinity_variance>
0.1762927026

$$$$
[H]c1nc(N([H])c2c([H])c([H])c([H])c([H])c2C([H])([H])[H])nc2c1C([H])([H])C([H])([H])c1c(C(=O)N([H])[H])nn(C([H])([H])[H])c1-2


 28 31  0  0  0  0  0  0  0  0999 V2000
   53.7677   -5.5826   -5.9329 C   0  0  0  0  0  0  0  0  0  0  0  0
   53.6878   -4.9529   -7.0870 N   0  0  0  0  0  0  0  0  0  0  0  0
   52.6469   -4.2471   -7.5431 C   0  0  0  0  0  0  0  0  0  0  0  0
   51.5213   -4.1595   -6.7223 C   0  0  0  0  0  0  0  0  0  0  0  0
   50.3285   -3.4371   -7.1673 C   0  0  0  0  0  0  0  0  0  0  0  0
   49.2755   -3.2454   -6.1499 C   0  0  0  0  0  0  0  0  0  0  0  0
   49.3536   -4.0088   -4.8979 C   0  0  0  0  0  0  0  0  0  0  0  0
   48.4316   -4.1316   -3.8473 C   0  0  0  0  0  0  0  0  0  0  0  0
   49.0218   -4.9186   -2.9385 N   0  0  0  0  0  0  0  0  0  0  0  0
   50.2232   -5.2812   -3.3536 N   0  0  0  0  0  0  0  0  0  0  0  0
   51.2006   -6.1294   -2.6792 C   0  0  0  0  0  0  0  0  0  0  0  0
   50.4496   -4.7300   -4.5655 C   0  0  0  0  0  0  0  0  0  0  0  0
   51.5685   -4.7991   -5.5167 C   0  0  0  0  0  0  0  0  0  0  0  0
   52.6418   -5.4809   -5.1374 N   0  0  0  0  0  0  0  0  0  0  0  0
   47.1044   -3.5089   -3.7959 C   0  0  0  0  0  0  0  0  0  0  0  0
   45.9778   -4.1827   -3.3002 N   0  0  0  0  0  0  0  0  0  0  0  0
   46.9690   -2.3308   -4.2097 O   0  0  0  0  0  0  0  0  0  0  0  0
   45.5378   -3.8167   -2.4118 H   0  0  0  0  0  0  0  0  0  0  0  0
   45.6058   -5.0117   -3.8064 H   0  0  0  0  0  0  0  0  0  0  0  0
   54.8521   -6.3331   -5.4296 N   0  0  0  0  0  0  0  0  0  0  0  0
   55.2354   -7.1059   -6.0752 H   0  0  0  0  0  0  0  0  0  0  0  0
   54.9063   -8.5630   -3.7966 C   0  0  0  0  0  0  0  0  0  0  0  0
   55.5483   -7.3176   -3.3457 C   0  0  0  0  0  0  0  0  0  0  0  0
   56.1668   -7.2804   -2.1169 C   0  0  0  0  0  0  0  0  0  0  0  0
   56.7624   -6.1115   -1.7075 C   0  0  0  0  0  0  0  0  0  0  0  0
   56.7337   -5.0063   -2.5202 C   0  0  0  0  0  0  0  0  0  0  0  0
   56.1020   -5.0651   -3.7605 C   0  0  0  0  0  0  0  0  0  0  0  0
   55.4985   -6.2093   -4.2031 C   0  0  0  0  0  0  0  0  0  0  0  0
 22 23  1  0  0  0
 23 24  2  0  0  0
 24 25  1  0  0  0
 25 26  2  0  0  0
 26 27  1  0  0  0
 27 28  2  0  0  0
 28 20  1  0  0  0
 20  1  1  0  0  0
  1  2  2  0  0  0
  2  3  1  0  0  0
  3  4  2  0  0  0
  4  5  1  0  0  0
  5  6  1  0  0  0
  6  7  1  0  0  0
  7  8  1  0  0  0
  8  9  2  0  0  0
  9 10  1  0  0  0
 10 11  1  0  0  0
 10 12  1  0  0  0
 12 13  1  0  0  0
 13 14  2  0  0  0
  8 15  1  0  0  0
 15 16  1  0  0  0
 15 17  2  0  0  0
 28 23  1  0  0  0
 14  1  1  0  0  0
 13  4  1  0  0  0
 12  7  2  0  0  0
 20 21  1  0  0  0
 16 18  1  0  0  0
 16 19  1  0  0  0
M  END
> <minimizedAffinity>
-8.50840

> <CNNscore>
0.4259505272

> <CNNaffinity>
6.7898993492

> <CNN_VS>
2.8921611309

> <CNNaffinity_variance>
0.1633083522

$$$$
[H]c1nc(N([H])c2c([H])c([H])c([H])c([H])c2C([H])([H])[H])nc2c1C([H])([H])C([H])([H])c1c(C(=O)N([H])[H])nn(C([H])([H])[H])c1-2


 28 31  0  0  0  0  0  0  0  0999 V2000
   51.6305   -3.7230   -7.2900 C   0  0  0  0  0  0  0  0  0  0  0  0
   51.4408   -3.1214   -8.4462 N   0  0  0  0  0  0  0  0  0  0  0  0
   52.3396   -2.9673   -9.4250 C   0  0  0  0  0  0  0  0  0  0  0  0
   53.6152   -3.4932   -9.2141 C   0  0  0  0  0  0  0  0  0  0  0  0
   54.6642   -3.3317  -10.2222 C   0  0  0  0  0  0  0  0  0  0  0  0
   55.9097   -4.0877   -9.9815 C   0  0  0  0  0  0  0  0  0  0  0  0
   56.1257   -4.6942   -8.6618 C   0  0  0  0  0  0  0  0  0  0  0  0
   57.2581   -5.3243   -8.1235 C   0  0  0  0  0  0  0  0  0  0  0  0
   56.8999   -5.7252   -6.8969 N   0  0  0  0  0  0  0  0  0  0  0  0
   55.6457   -5.3889   -6.6501 N   0  0  0  0  0  0  0  0  0  0  0  0
   54.8601   -5.6306   -5.4443 C   0  0  0  0  0  0  0  0  0  0  0  0
   55.1465   -4.7485   -7.7291 C   0  0  0  0  0  0  0  0  0  0  0  0
   53.8483   -4.1256   -8.0265 C   0  0  0  0  0  0  0  0  0  0  0  0
   52.9005   -4.2361   -7.1045 N   0  0  0  0  0  0  0  0  0  0  0  0
   58.5492   -5.4883   -8.8002 C   0  0  0  0  0  0  0  0  0  0  0  0
   58.6533   -5.6454  -10.1907 N   0  0  0  0  0  0  0  0  0  0  0  0
   59.6004   -5.4885   -8.1127 O   0  0  0  0  0  0  0  0  0  0  0  0
   59.1284   -4.8762  -10.7379 H   0  0  0  0  0  0  0  0  0  0  0  0
   58.2690   -6.4981  -10.6458 H   0  0  0  0  0  0  0  0  0  0  0  0
   50.7007   -3.8979   -6.2424 N   0  0  0  0  0  0  0  0  0  0  0  0
   49.7775   -3.3492   -6.3299 H   0  0  0  0  0  0  0  0  0  0  0  0
   48.9181   -3.4196   -4.1844 C   0  0  0  0  0  0  0  0  0  0  0  0
   49.9297   -4.4784   -4.0367 C   0  0  0  0  0  0  0  0  0  0  0  0
   49.9743   -5.2160   -2.8757 C   0  0  0  0  0  0  0  0  0  0  0  0
   50.9236   -6.2016   -2.7502 C   0  0  0  0  0  0  0  0  0  0  0  0
   51.8072   -6.4366   -3.7734 C   0  0  0  0  0  0  0  0  0  0  0  0
   51.7451   -5.6784   -4.9405 C   0  0  0  0  0  0  0  0  0  0  0  0
   50.8152   -4.6894   -5.1032 C   0  0  0  0  0  0  0  0  0  0  0  0
 22 23  1  0  0  0
 23 24  2  0  0  0
 24 25  1  0  0  0
 25 26  2  0  0  0
 26 27  1  0  0  0
 27 28  2  0  0  0
 28 20  1  0  0  0
 20  1  1  0  0  0
  1  2  2  0  0  0
  2  3  1  0  0  0
  3  4  2  0  0  0
  4  5  1  0  0  0
  5  6  1  0  0  0
  6  7  1  0  0  0
  7  8  1  0  0  0
  8  9  2  0  0  0
  9 10  1  0  0  0
 10 11  1  0  0  0
 10 12  1  0  0  0
 12 13  1  0  0  0
 13 14  2  0  0  0
  8 15  1  0  0  0
 15 16  1  0  0  0
 15 17  2  0  0  0
 28 23  1  0  0  0
 14  1  1  0  0  0
 13  4  1  0  0  0
 12  7  2  0  0  0
 20 21  1  0  0  0
 16 18  1  0  0  0
 16 19  1  0  0  0
M  END
> <minimizedAffinity>
-9.12277

> <CNNscore>
0.3491102755

> <CNNaffinity>
6.7277116776

> <CNN_VS>
2.3487131596

> <CNNaffinity_variance>
0.2164576948

$$$$
[H]c1nc(N([H])c2c(C([H])([H])[H])nc([H])c(C([H])([H])C([H])([H])C([H])([H])N(C([H])([H])[H])C([H])([H])[H])c2[H])nc2c1C([H])([H])C(=S)N([H])c1c([H])c(Cl)c([H])c([H])c1-2


 33 36  0  0  0  0  0  0  0  0999 V2000
   54.2220   -3.4849   -9.1302 C   0  0  0  0  0  0  0  0  0  0  0  0
   53.0059   -3.0495   -9.3780 N   0  0  0  0  0  0  0  0  0  0  0  0
   51.9401   -3.3870   -8.6339 C   0  0  0  0  0  0  0  0  0  0  0  0
   52.0405   -4.2225   -7.5445 C   0  0  0  0  0  0  0  0  0  0  0  0
   50.7572   -4.4743   -6.8666 C   0  0  0  0  0  0  0  0  0  0  0  0
   50.8273   -4.7261   -5.4354 C   0  0  0  0  0  0  0  0  0  0  0  0
   49.7335   -3.8815   -4.5288 S   0  0  0  0  0  0  0  0  0  0  0  0
   51.6926   -5.5921   -4.7228 N   0  0  0  0  0  0  0  0  0  0  0  0
   53.0145   -5.9662   -5.0843 C   0  0  0  0  0  0  0  0  0  0  0  0
   53.5832   -6.8318   -4.1514 C   0  0  0  0  0  0  0  0  0  0  0  0
   54.8516   -7.2921   -4.3358 C   0  0  0  0  0  0  0  0  0  0  0  0
   55.6194   -8.3917   -3.1829 Cl  0  0  0  0  0  0  0  0  0  0  0  0
   55.5874   -6.9207   -5.4262 C   0  0  0  0  0  0  0  0  0  0  0  0
   55.0155   -6.0591   -6.3505 C   0  0  0  0  0  0  0  0  0  0  0  0
   53.7417   -5.5773   -6.1959 C   0  0  0  0  0  0  0  0  0  0  0  0
   53.3304   -4.6895   -7.2742 C   0  0  0  0  0  0  0  0  0  0  0  0
   54.3488   -4.3116   -8.0596 N   0  0  0  0  0  0  0  0  0  0  0  0
   51.3165   -5.9994   -3.8303 H   0  0  0  0  0  0  0  0  0  0  0  0
   55.3822   -3.1741   -9.8648 N   0  0  0  0  0  0  0  0  0  0  0  0
   55.4007   -2.1859  -10.3074 H   0  0  0  0  0  0  0  0  0  0  0  0
   58.4423   -5.3237   -9.5265 C   0  0  0  0  0  0  0  0  0  0  0  0
   58.7823   -5.4750  -10.8442 C   0  0  0  0  0  0  0  0  0  0  0  0
   58.0036   -4.8750  -11.7529 N   0  0  0  0  0  0  0  0  0  0  0  0
   56.9213   -4.1433  -11.4311 C   0  0  0  0  0  0  0  0  0  0  0  0
   56.1261   -3.5195  -12.5295 C   0  0  0  0  0  0  0  0  0  0  0  0
   56.5117   -3.9437  -10.1106 C   0  0  0  0  0  0  0  0  0  0  0  0
   57.3109   -4.5598   -9.1749 C   0  0  0  0  0  0  0  0  0  0  0  0
   59.2382   -5.9467   -8.4484 C   0  0  0  0  0  0  0  0  0  0  0  0
   60.6635   -6.0981   -8.8210 C   0  0  0  0  0  0  0  0  0  0  0  0
   61.2338   -7.3704   -8.3017 C   0  0  0  0  0  0  0  0  0  0  0  0
   61.6553   -8.2841   -6.1227 C   0  0  0  0  0  0  0  0  0  0  0  0
   61.8504   -7.1491   -6.9954 N   0  0  0  0  0  0  0  0  0  0  0  0
   63.2482   -6.8547   -7.1762 C   0  0  0  0  0  0  0  0  0  0  0  0
 31 32  1  0  0  0
 32 33  1  0  0  0
 32 30  1  0  0  0
 30 29  1  0  0  0
 29 28  1  0  0  0
 28 21  1  0  0  0
 21 22  2  0  0  0
 22 23  1  0  0  0
 23 24  2  0  0  0
 24 25  1  0  0  0
 24 26  1  0  0  0
 26 19  1  0  0  0
 19  1  1  0  0  0
  1  2  2  0  0  0
  2  3  1  0  0  0
  3  4  2  0  0  0
  4  5  1  0  0  0
  5  6  1  0  0  0
  6  7  2  0  0  0
  6  8  1  0  0  0
  8  9  1  0  0  0
  9 10  2  0  0  0
 10 11  1  0  0  0
 11 12  1  0  0  0
 11 13  2  0  0  0
 13 14  1  0  0  0
 14 15  2  0  0  0
 15 16  1  0  0  0
 16 17  2  0  0  0
 26 27  2  0  0  0
 27 21  1  0  0  0
 17  1  1  0  0  0
 16  4  1  0  0  0
 15  9  1  0  0  0
 19 20  1  0  0  0
  8 18  1  0  0  0
M  END
> <minimizedAffinity>
-8.64029

> <CNNscore>
0.9545227289

> <CNNaffinity>
8.0765666962

> <CNN_VS>
7.7092666626

> <CNNaffinity_variance>
0.0742614493

$$$$
[H]c1nc(N([H])c2c(C([H])([H])[H])nc([H])c(C([H])([H])C([H])([H])C([H])([H])N(C([H])([H])[H])C([H])([H])[H])c2[H])nc2c1C([H])([H])C(=S)N([H])c1c([H])c(Cl)c([H])c([H])c1-2


 33 36  0  0  0  0  0  0  0  0999 V2000
   54.1125   -3.5175   -9.1719 C   0  0  0  0  0  0  0  0  0  0  0  0
   52.8884   -3.0903   -9.3937 N   0  0  0  0  0  0  0  0  0  0  0  0
   51.8419   -3.4311   -8.6243 C   0  0  0  0  0  0  0  0  0  0  0  0
   51.9720   -4.2618   -7.5344 C   0  0  0  0  0  0  0  0  0  0  0  0
   50.7059   -4.5185   -6.8266 C   0  0  0  0  0  0  0  0  0  0  0  0
   50.8099   -4.7643   -5.3964 C   0  0  0  0  0  0  0  0  0  0  0  0
   49.7319   -3.9226   -4.4685 S   0  0  0  0  0  0  0  0  0  0  0  0
   51.6963   -5.6223   -4.7003 N   0  0  0  0  0  0  0  0  0  0  0  0
   53.0118   -5.9900   -5.0903 C   0  0  0  0  0  0  0  0  0  0  0  0
   53.6067   -6.8486   -4.1673 C   0  0  0  0  0  0  0  0  0  0  0  0
   54.8733   -7.3021   -4.3787 C   0  0  0  0  0  0  0  0  0  0  0  0
   55.6737   -8.3926   -3.2394 Cl  0  0  0  0  0  0  0  0  0  0  0  0
   55.5820   -6.9306   -5.4870 C   0  0  0  0  0  0  0  0  0  0  0  0
   54.9841   -6.0761   -6.4012 C   0  0  0  0  0  0  0  0  0  0  0  0
   53.7114   -5.6012   -6.2197 C   0  0  0  0  0  0  0  0  0  0  0  0
   53.2704   -4.7201   -7.2916 C   0  0  0  0  0  0  0  0  0  0  0  0
   54.2684   -4.3392   -8.1014 N   0  0  0  0  0  0  0  0  0  0  0  0
   51.3430   -6.0283   -3.7980 H   0  0  0  0  0  0  0  0  0  0  0  0
   55.2538   -3.2028   -9.9339 N   0  0  0  0  0  0  0  0  0  0  0  0
   55.2436   -2.2273  -10.4042 H   0  0  0  0  0  0  0  0  0  0  0  0
   58.3346   -5.3215   -9.5883 C   0  0  0  0  0  0  0  0  0  0  0  0
   58.6952   -5.4457  -10.9034 C   0  0  0  0  0  0  0  0  0  0  0  0
   57.9224   -4.8393  -11.8128 N   0  0  0  0  0  0  0  0  0  0  0  0
   56.8268   -4.1262  -11.4942 C   0  0  0  0  0  0  0  0  0  0  0  0
   56.0399   -3.4928  -12.5931 C   0  0  0  0  0  0  0  0  0  0  0  0
   56.3959   -3.9545  -10.1765 C   0  0  0  0  0  0  0  0  0  0  0  0
   57.1891   -4.5773   -9.2401 C   0  0  0  0  0  0  0  0  0  0  0  0
   59.1224   -5.9537   -8.5097 C   0  0  0  0  0  0  0  0  0  0  0  0
   60.5557   -6.0766   -8.8619 C   0  0  0  0  0  0  0  0  0  0  0  0
   60.9703   -7.5004   -8.9833 C   0  0  0  0  0  0  0  0  0  0  0  0
   62.3973   -6.8231  -10.7903 C   0  0  0  0  0  0  0  0  0  0  0  0
   61.4106   -7.7816  -10.3480 N   0  0  0  0  0  0  0  0  0  0  0  0
   61.9147   -9.1287  -10.4141 C   0  0  0  0  0  0  0  0  0  0  0  0
 31 32  1  0  0  0
 32 33  1  0  0  0
 32 30  1  0  0  0
 30 29  1  0  0  0
 29 28  1  0  0  0
 28 21  1  0  0  0
 21 22  2  0  0  0
 22 23  1  0  0  0
 23 24  2  0  0  0
 24 25  1  0  0  0
 24 26  1  0  0  0
 26 19  1  0  0  0
 19  1  1  0  0  0
  1  2  2  0  0  0
  2  3  1  0  0  0
  3  4  2  0  0  0
  4  5  1  0  0  0
  5  6  1  0  0  0
  6  7  2  0  0  0
  6  8  1  0  0  0
  8  9  1  0  0  0
  9 10  2  0  0  0
 10 11  1  0  0  0
 11 12  1  0  0  0
 11 13  2  0  0  0
 13 14  1  0  0  0
 14 15  2  0  0  0
 15 16  1  0  0  0
 16 17  2  0  0  0
 26 27  2  0  0  0
 27 21  1  0  0  0
 17  1  1  0  0  0
 16  4  1  0  0  0
 15  9  1  0  0  0
 19 20  1  0  0  0
  8 18  1  0  0  0
M  END
> <minimizedAffinity>
-8.79388

> <CNNscore>
0.9473899603

> <CNNaffinity>
8.0267009735

> <CNN_VS>
7.6044158936

> <CNNaffinity_variance>
0.0454590730

$$$$
[H]c1nc(N([H])c2c(C([H])([H])[H])nc([H])c(C([H])([H])C([H])([H])C([H])([H])N(C([H])([H])[H])C([H])([H])[H])c2[H])nc2c1C([H])([H])C(=S)N([H])c1c([H])c(Cl)c([H])c([H])c1-2


 33 36  0  0  0  0  0  0  0  0999 V2000
   53.9479   -3.4023   -8.8850 C   0  0  0  0  0  0  0  0  0  0  0  0
   52.8899   -2.7743   -9.3500 N   0  0  0  0  0  0  0  0  0  0  0  0
   51.6783   -2.8542   -8.7763 C   0  0  0  0  0  0  0  0  0  0  0  0
   51.4494   -3.6069   -7.6468 C   0  0  0  0  0  0  0  0  0  0  0  0
   50.0534   -3.5686   -7.1781 C   0  0  0  0  0  0  0  0  0  0  0  0
   49.8546   -3.7170   -5.7446 C   0  0  0  0  0  0  0  0  0  0  0  0
   48.8172   -2.6203   -5.0717 S   0  0  0  0  0  0  0  0  0  0  0  0
   50.4189   -4.6675   -4.8588 N   0  0  0  0  0  0  0  0  0  0  0  0
   51.6842   -5.3019   -4.9796 C   0  0  0  0  0  0  0  0  0  0  0  0
   51.9275   -6.1811   -3.9257 C   0  0  0  0  0  0  0  0  0  0  0  0
   53.0973   -6.8766   -3.8767 C   0  0  0  0  0  0  0  0  0  0  0  0
   53.4553   -8.0044   -2.5621 Cl  0  0  0  0  0  0  0  0  0  0  0  0
   54.0484   -6.7306   -4.8476 C   0  0  0  0  0  0  0  0  0  0  0  0
   53.7999   -5.8540   -5.8933 C   0  0  0  0  0  0  0  0  0  0  0  0
   52.6336   -5.1387   -5.9736 C   0  0  0  0  0  0  0  0  0  0  0  0
   52.5694   -4.2776   -7.1458 C   0  0  0  0  0  0  0  0  0  0  0  0
   53.7490   -4.1526   -7.7700 N   0  0  0  0  0  0  0  0  0  0  0  0
   49.8401   -4.9293   -4.0221 H   0  0  0  0  0  0  0  0  0  0  0  0
   55.2444   -3.3650   -9.4326 N   0  0  0  0  0  0  0  0  0  0  0  0
   55.3801   -2.6775  -10.2582 H   0  0  0  0  0  0  0  0  0  0  0  0
   58.3127   -5.5295   -9.4435 C   0  0  0  0  0  0  0  0  0  0  0  0
   58.6692   -5.4557   -8.1236 C   0  0  0  0  0  0  0  0  0  0  0  0
   57.8980   -4.7141   -7.3189 N   0  0  0  0  0  0  0  0  0  0  0  0
   56.8078   -4.0510   -7.7453 C   0  0  0  0  0  0  0  0  0  0  0  0
   56.0221   -3.2542   -6.7575 C   0  0  0  0  0  0  0  0  0  0  0  0
   56.3813   -4.0779   -9.0753 C   0  0  0  0  0  0  0  0  0  0  0  0
   57.1728   -4.8398   -9.9042 C   0  0  0  0  0  0  0  0  0  0  0  0
   59.0992   -6.3220  -10.4115 C   0  0  0  0  0  0  0  0  0  0  0  0
   60.5276   -6.4127  -10.0310 C   0  0  0  0  0  0  0  0  0  0  0  0
   60.9053   -7.7991   -9.6454 C   0  0  0  0  0  0  0  0  0  0  0  0
   62.4324   -6.4474   -8.3799 C   0  0  0  0  0  0  0  0  0  0  0  0
   62.1229   -7.7826   -8.8374 N   0  0  0  0  0  0  0  0  0  0  0  0
   61.9718   -8.6976   -7.7359 C   0  0  0  0  0  0  0  0  0  0  0  0
 31 32  1  0  0  0
 32 33  1  0  0  0
 32 30  1  0  0  0
 30 29  1  0  0  0
 29 28  1  0  0  0
 28 21  1  0  0  0
 21 22  2  0  0  0
 22 23  1  0  0  0
 23 24  2  0  0  0
 24 25  1  0  0  0
 24 26  1  0  0  0
 26 19  1  0  0  0
 19  1  1  0  0  0
  1  2  2  0  0  0
  2  3  1  0  0  0
  3  4  2  0  0  0
  4  5  1  0  0  0
  5  6  1  0  0  0
  6  7  2  0  0  0
  6  8  1  0  0  0
  8  9  1  0  0  0
  9 10  2  0  0  0
 10 11  1  0  0  0
 11 12  1  0  0  0
 11 13  2  0  0  0
 13 14  1  0  0  0
 14 15  2  0  0  0
 15 16  1  0  0  0
 16 17  2  0  0  0
 26 27  2  0  0  0
 27 21  1  0  0  0
 17  1  1  0  0  0
 16  4  1  0  0  0
 15  9  1  0  0  0
 19 20  1  0  0  0
  8 18  1  0  0  0
M  END
> <minimizedAffinity>
-8.15067

> <CNNscore>
0.8313859105

> <CNNaffinity>
7.8689651489

> <CNN_VS>
6.5421466827

> <CNNaffinity_variance>
0.0762944072

$$$$
[H]c1nc(N([H])c2c(C([H])([H])[H])nc([H])c(C([H])([H])C([H])([H])C([H])([H])N(C([H])([H])[H])C([H])([H])[H])c2[H])nc2c1C([H])([H])C(=S)N([H])c1c([H])c(Cl)c([H])c([H])c1-2


 33 36  0  0  0  0  0  0  0  0999 V2000
   53.1913   -3.2762   -8.6109 C   0  0  0  0  0  0  0  0  0  0  0  0
   52.1750   -2.5699   -9.0564 N   0  0  0  0  0  0  0  0  0  0  0  0
   50.9697   -2.5648   -8.4644 C   0  0  0  0  0  0  0  0  0  0  0  0
   50.7034   -3.3059   -7.3353 C   0  0  0  0  0  0  0  0  0  0  0  0
   49.3211   -3.1688   -6.8450 C   0  0  0  0  0  0  0  0  0  0  0  0
   49.1335   -3.3112   -5.4094 C   0  0  0  0  0  0  0  0  0  0  0  0
   48.1892   -2.1461   -4.7149 S   0  0  0  0  0  0  0  0  0  0  0  0
   49.6403   -4.3058   -4.5373 N   0  0  0  0  0  0  0  0  0  0  0  0
   50.8539   -5.0301   -4.6808 C   0  0  0  0  0  0  0  0  0  0  0  0
   51.0482   -5.9312   -3.6353 C   0  0  0  0  0  0  0  0  0  0  0  0
   52.1648   -6.7104   -3.6079 C   0  0  0  0  0  0  0  0  0  0  0  0
   52.4592   -7.8694   -2.3048 Cl  0  0  0  0  0  0  0  0  0  0  0  0
   53.1093   -6.6280   -4.5926 C   0  0  0  0  0  0  0  0  0  0  0  0
   52.9097   -5.7292   -5.6298 C   0  0  0  0  0  0  0  0  0  0  0  0
   51.7976   -4.9303   -5.6885 C   0  0  0  0  0  0  0  0  0  0  0  0
   51.7788   -4.0595   -6.8552 C   0  0  0  0  0  0  0  0  0  0  0  0
   52.9549   -4.0170   -7.4968 N   0  0  0  0  0  0  0  0  0  0  0  0
   49.0565   -4.5299   -3.6931 H   0  0  0  0  0  0  0  0  0  0  0  0
   54.4786   -3.3302   -9.1782 N   0  0  0  0  0  0  0  0  0  0  0  0
   54.6300   -2.7012  -10.0468 H   0  0  0  0  0  0  0  0  0  0  0  0
   56.9592   -5.4186   -7.2850 C   0  0  0  0  0  0  0  0  0  0  0  0
   57.9486   -5.5353   -8.2242 C   0  0  0  0  0  0  0  0  0  0  0  0
   57.7507   -4.9340   -9.4037 N   0  0  0  0  0  0  0  0  0  0  0  0
   56.6409   -4.2329   -9.6989 C   0  0  0  0  0  0  0  0  0  0  0  0
   56.5285   -3.6043  -11.0480 C   0  0  0  0  0  0  0  0  0  0  0  0
   55.5894   -4.0696   -8.7938 C   0  0  0  0  0  0  0  0  0  0  0  0
   55.7910   -4.6872   -7.5806 C   0  0  0  0  0  0  0  0  0  0  0  0
   57.0828   -6.0461   -5.9527 C   0  0  0  0  0  0  0  0  0  0  0  0
   56.3633   -5.2840   -4.9063 C   0  0  0  0  0  0  0  0  0  0  0  0
   56.5016   -5.9230   -3.5698 C   0  0  0  0  0  0  0  0  0  0  0  0
   55.1964   -5.5335   -1.5936 C   0  0  0  0  0  0  0  0  0  0  0  0
   56.1533   -4.9700   -2.5181 N   0  0  0  0  0  0  0  0  0  0  0  0
   57.3544   -4.5486   -1.8452 C   0  0  0  0  0  0  0  0  0  0  0  0
 31 32  1  0  0  0
 32 33  1  0  0  0
 32 30  1  0  0  0
 30 29  1  0  0  0
 29 28  1  0  0  0
 28 21  1  0  0  0
 21 22  2  0  0  0
 22 23  1  0  0  0
 23 24  2  0  0  0
 24 25  1  0  0  0
 24 26  1  0  0  0
 26 19  1  0  0  0
 19  1  1  0  0  0
  1  2  2  0  0  0
  2  3  1  0  0  0
  3  4  2  0  0  0
  4  5  1  0  0  0
  5  6  1  0  0  0
  6  7  2  0  0  0
  6  8  1  0  0  0
  8  9  1  0  0  0
  9 10  2  0  0  0
 10 11  1  0  0  0
 11 12  1  0  0  0
 11 13  2  0  0  0
 13 14  1  0  0  0
 14 15  2  0  0  0
 15 16  1  0  0  0
 16 17  2  0  0  0
 26 27  2  0  0  0
 27 21  1  0  0  0
 17  1  1  0  0  0
 16  4  1  0  0  0
 15  9  1  0  0  0
 19 20  1  0  0  0
  8 18  1  0  0  0
M  END
> <minimizedAffinity>
-8.23878

> <CNNscore>
0.8088478446

> <CNNaffinity>
8.2749862671

> <CNN_VS>
6.6932048798

> <CNNaffinity_variance>
0.1319881082

$$$$
[H]c1nc(N([H])c2c(C([H])([H])[H])nc([H])c(C([H])([H])C([H])([H])C([H])([H])N(C([H])([H])[H])C([H])([H])[H])c2[H])nc2c1C([H])([H])C(=S)N([H])c1c([H])c(Cl)c([H])c([H])c1-2


 33 36  0  0  0  0  0  0  0  0999 V2000
   54.5264   -3.7282   -8.1633 C   0  0  0  0  0  0  0  0  0  0  0  0
   53.3045   -3.4832   -8.5839 N   0  0  0  0  0  0  0  0  0  0  0  0
   52.2081   -3.9485   -7.9636 C   0  0  0  0  0  0  0  0  0  0  0  0
   52.2805   -4.7250   -6.8294 C   0  0  0  0  0  0  0  0  0  0  0  0
   50.9672   -5.1395   -6.3064 C   0  0  0  0  0  0  0  0  0  0  0  0
   50.8827   -5.3324   -4.8669 C   0  0  0  0  0  0  0  0  0  0  0  0
   49.5713   -4.6278   -4.1491 S   0  0  0  0  0  0  0  0  0  0  0  0
   51.7596   -6.0396   -4.0081 N   0  0  0  0  0  0  0  0  0  0  0  0
   53.1569   -6.2283   -4.1809 C   0  0  0  0  0  0  0  0  0  0  0  0
   53.7136   -6.9713   -3.1413 C   0  0  0  0  0  0  0  0  0  0  0  0
   55.0472   -7.2472   -3.1411 C   0  0  0  0  0  0  0  0  0  0  0  0
   55.8032   -8.1856   -1.8465 Cl  0  0  0  0  0  0  0  0  0  0  0  0
   55.8608   -6.8076   -4.1477 C   0  0  0  0  0  0  0  0  0  0  0  0
   55.3003   -6.0688   -5.1790 C   0  0  0  0  0  0  0  0  0  0  0  0
   53.9624   -5.7732   -5.2106 C   0  0  0  0  0  0  0  0  0  0  0  0
   53.5762   -4.9900   -6.3756 C   0  0  0  0  0  0  0  0  0  0  0  0
   54.6259   -4.4929   -7.0447 N   0  0  0  0  0  0  0  0  0  0  0  0
   51.3301   -6.4686   -3.1505 H   0  0  0  0  0  0  0  0  0  0  0  0
   55.7180   -3.2753   -8.7609 N   0  0  0  0  0  0  0  0  0  0  0  0
   56.1239   -2.3587   -8.3509 H   0  0  0  0  0  0  0  0  0  0  0  0
   57.1212   -4.1710  -12.1266 C   0  0  0  0  0  0  0  0  0  0  0  0
   58.0827   -5.0738  -11.7588 C   0  0  0  0  0  0  0  0  0  0  0  0
   58.2147   -5.3334  -10.4522 N   0  0  0  0  0  0  0  0  0  0  0  0
   57.4561   -4.7550   -9.5034 C   0  0  0  0  0  0  0  0  0  0  0  0
   57.6921   -5.1210   -8.0758 C   0  0  0  0  0  0  0  0  0  0  0  0
   56.4563   -3.8255   -9.8004 C   0  0  0  0  0  0  0  0  0  0  0  0
   56.3191   -3.5573  -11.1432 C   0  0  0  0  0  0  0  0  0  0  0  0
   56.8976   -3.8171  -13.5439 C   0  0  0  0  0  0  0  0  0  0  0  0
   58.1683   -3.6328  -14.2819 C   0  0  0  0  0  0  0  0  0  0  0  0
   57.9465   -2.9825  -15.6015 C   0  0  0  0  0  0  0  0  0  0  0  0
   60.3417   -3.1220  -15.6700 C   0  0  0  0  0  0  0  0  0  0  0  0
   59.1822   -2.3571  -16.0682 N   0  0  0  0  0  0  0  0  0  0  0  0
   59.1199   -2.1960  -17.4976 C   0  0  0  0  0  0  0  0  0  0  0  0
 31 32  1  0  0  0
 32 33  1  0  0  0
 32 30  1  0  0  0
 30 29  1  0  0  0
 29 28  1  0  0  0
 28 21  1  0  0  0
 21 22  2  0  0  0
 22 23  1  0  0  0
 23 24  2  0  0  0
 24 25  1  0  0  0
 24 26  1  0  0  0
 26 19  1  0  0  0
 19  1  1  0  0  0
  1  2  2  0  0  0
  2  3  1  0  0  0
  3  4  2  0  0  0
  4  5  1  0  0  0
  5  6  1  0  0  0
  6  7  2  0  0  0
  6  8  1  0  0  0
  8  9  1  0  0  0
  9 10  2  0  0  0
 10 11  1  0  0  0
 11 12  1  0  0  0
 11 13  2  0  0  0
 13 14  1  0  0  0
 14 15  2  0  0  0
 15 16  1  0  0  0
 16 17  2  0  0  0
 26 27  2  0  0  0
 27 21  1  0  0  0
 17  1  1  0  0  0
 16  4  1  0  0  0
 15  9  1  0  0  0
 19 20  1  0  0  0
  8 18  1  0  0  0
M  END
> <minimizedAffinity>
-8.01934

> <CNNscore>
0.7534791231

> <CNNaffinity>
7.6928124428

> <CNN_VS>
5.7963733673

> <CNNaffinity_variance>
0.0816658586

$$$$
[H]c1nc(N([H])c2c(C([H])([H])[H])nc([H])c(C([H])([H])C([H])([H])C([H])([H])N(C([H])([H])[H])C([H])([H])[H])c2[H])nc2c1C([H])([H])C(=S)N([H])c1c([H])c(Cl)c([H])c([H])c1-2


 33 36  0  0  0  0  0  0  0  0999 V2000
   52.4606   -4.1114   -7.8999 C   0  0  0  0  0  0  0  0  0  0  0  0
   53.0370   -3.4866   -8.9036 N   0  0  0  0  0  0  0  0  0  0  0  0
   54.3648   -3.4902   -9.1046 C   0  0  0  0  0  0  0  0  0  0  0  0
   55.2320   -4.1545   -8.2671 C   0  0  0  0  0  0  0  0  0  0  0  0
   56.6475   -4.0309   -8.6556 C   0  0  0  0  0  0  0  0  0  0  0  0
   57.5059   -5.1551   -8.3150 C   0  0  0  0  0  0  0  0  0  0  0  0
   58.4907   -5.6705   -9.5381 S   0  0  0  0  0  0  0  0  0  0  0  0
   57.6146   -5.8557   -7.0887 N   0  0  0  0  0  0  0  0  0  0  0  0
   56.5919   -6.0497   -6.1221 C   0  0  0  0  0  0  0  0  0  0  0  0
   57.0412   -6.7933   -5.0321 C   0  0  0  0  0  0  0  0  0  0  0  0
   56.1911   -7.0792   -4.0073 C   0  0  0  0  0  0  0  0  0  0  0  0
   56.7106   -8.0186   -2.6017 Cl  0  0  0  0  0  0  0  0  0  0  0  0
   54.8937   -6.6492   -4.0233 C   0  0  0  0  0  0  0  0  0  0  0  0
   54.4532   -5.9098   -5.1109 C   0  0  0  0  0  0  0  0  0  0  0  0
   55.2819   -5.6040   -6.1589 C   0  0  0  0  0  0  0  0  0  0  0  0
   54.6270   -4.8216   -7.1975 C   0  0  0  0  0  0  0  0  0  0  0  0
   53.2947   -4.7755   -7.0579 N   0  0  0  0  0  0  0  0  0  0  0  0
   58.5517   -6.2786   -6.8725 H   0  0  0  0  0  0  0  0  0  0  0  0
   51.0799   -4.1507   -7.6277 N   0  0  0  0  0  0  0  0  0  0  0  0
   50.4466   -4.3907   -8.4729 H   0  0  0  0  0  0  0  0  0  0  0  0
   49.7204   -4.3915   -4.1358 C   0  0  0  0  0  0  0  0  0  0  0  0
   48.9244   -3.2778   -4.1056 C   0  0  0  0  0  0  0  0  0  0  0  0
   48.8789   -2.5243   -5.2111 N   0  0  0  0  0  0  0  0  0  0  0  0
   49.5697   -2.8106   -6.3296 C   0  0  0  0  0  0  0  0  0  0  0  0
   49.4422   -1.8978   -7.5036 C   0  0  0  0  0  0  0  0  0  0  0  0
   50.4018   -3.9276   -6.4366 C   0  0  0  0  0  0  0  0  0  0  0  0
   50.4499   -4.7035   -5.3010 C   0  0  0  0  0  0  0  0  0  0  0  0
   49.8380   -5.2873   -2.9664 C   0  0  0  0  0  0  0  0  0  0  0  0
   51.2358   -5.4074   -2.4918 C   0  0  0  0  0  0  0  0  0  0  0  0
   51.5957   -6.8209   -2.1984 C   0  0  0  0  0  0  0  0  0  0  0  0
   53.1245   -8.1190   -0.8800 C   0  0  0  0  0  0  0  0  0  0  0  0
   52.3544   -6.8985   -0.9518 N   0  0  0  0  0  0  0  0  0  0  0  0
   53.1946   -5.7349   -0.8366 C   0  0  0  0  0  0  0  0  0  0  0  0
 31 32  1  0  0  0
 32 33  1  0  0  0
 32 30  1  0  0  0
 30 29  1  0  0  0
 29 28  1  0  0  0
 28 21  1  0  0  0
 21 22  2  0  0  0
 22 23  1  0  0  0
 23 24  2  0  0  0
 24 25  1  0  0  0
 24 26  1  0  0  0
 26 19  1  0  0  0
 19  1  1  0  0  0
  1  2  2  0  0  0
  2  3  1  0  0  0
  3  4  2  0  0  0
  4  5  1  0  0  0
  5  6  1  0  0  0
  6  7  2  0  0  0
  6  8  1  0  0  0
  8  9  1  0  0  0
  9 10  2  0  0  0
 10 11  1  0  0  0
 11 12  1  0  0  0
 11 13  2  0  0  0
 13 14  1  0  0  0
 14 15  2  0  0  0
 15 16  1  0  0  0
 16 17  2  0  0  0
 26 27  2  0  0  0
 27 21  1  0  0  0
 17  1  1  0  0  0
 16  4  1  0  0  0
 15  9  1  0  0  0
 19 20  1  0  0  0
  8 18  1  0  0  0
M  END
> <minimizedAffinity>
-9.02421

> <CNNscore>
0.6909103394

> <CNNaffinity>
8.1457042694

> <CNN_VS>
5.6279511452

> <CNNaffinity_variance>
0.1835993528

$$$$
[H]c1nc(N([H])c2c(C([H])([H])[H])nc([H])c(C([H])([H])C([H])([H])C([H])([H])N(C([H])([H])[H])C([H])([H])[H])c2[H])nc2c1C([H])([H])C(=S)N([H])c1c([H])c(Cl)c([H])c([H])c1-2


 33 36  0  0  0  0  0  0  0  0999 V2000
   54.6201   -4.4186   -8.0530 C   0  0  0  0  0  0  0  0  0  0  0  0
   53.6945   -3.8201   -8.7706 N   0  0  0  0  0  0  0  0  0  0  0  0
   52.4073   -3.7477   -8.3945 C   0  0  0  0  0  0  0  0  0  0  0  0
   51.9544   -4.3002   -7.2179 C   0  0  0  0  0  0  0  0  0  0  0  0
   50.5102   -4.1186   -6.9916 C   0  0  0  0  0  0  0  0  0  0  0  0
   50.0856   -4.0286   -5.6031 C   0  0  0  0  0  0  0  0  0  0  0  0
   49.0423   -2.7890   -5.2764 S   0  0  0  0  0  0  0  0  0  0  0  0
   50.4369   -4.8541   -4.5069 N   0  0  0  0  0  0  0  0  0  0  0  0
   51.6552   -5.5619   -4.3264 C   0  0  0  0  0  0  0  0  0  0  0  0
   51.6698   -6.2746   -3.1287 C   0  0  0  0  0  0  0  0  0  0  0  0
   52.7639   -7.0110   -2.7889 C   0  0  0  0  0  0  0  0  0  0  0  0
   52.8335   -7.9333   -1.2814 Cl  0  0  0  0  0  0  0  0  0  0  0  0
   53.8595   -7.0679   -3.6043 C   0  0  0  0  0  0  0  0  0  0  0  0
   53.8383   -6.3563   -4.7946 C   0  0  0  0  0  0  0  0  0  0  0  0
   52.7540   -5.6054   -5.1673 C   0  0  0  0  0  0  0  0  0  0  0  0
   52.9325   -4.9383   -6.4490 C   0  0  0  0  0  0  0  0  0  0  0  0
   54.1992   -4.9725   -6.8861 N   0  0  0  0  0  0  0  0  0  0  0  0
   49.7199   -4.9512   -3.7451 H   0  0  0  0  0  0  0  0  0  0  0  0
   55.9838   -4.5330   -8.3835 N   0  0  0  0  0  0  0  0  0  0  0  0
   56.6589   -4.6308   -7.5423 H   0  0  0  0  0  0  0  0  0  0  0  0
   56.7666   -4.1641  -12.0374 C   0  0  0  0  0  0  0  0  0  0  0  0
   58.0482   -4.6454  -12.0631 C   0  0  0  0  0  0  0  0  0  0  0  0
   58.5742   -5.0562  -10.9027 N   0  0  0  0  0  0  0  0  0  0  0  0
   57.9083   -5.0166   -9.7343 C   0  0  0  0  0  0  0  0  0  0  0  0
   58.5955   -5.5018   -8.5013 C   0  0  0  0  0  0  0  0  0  0  0  0
   56.5995   -4.5396   -9.6282 C   0  0  0  0  0  0  0  0  0  0  0  0
   56.0571   -4.1168  -10.8202 C   0  0  0  0  0  0  0  0  0  0  0  0
   56.0974   -3.6866  -13.2654 C   0  0  0  0  0  0  0  0  0  0  0  0
   56.1335   -4.6942  -14.3503 C   0  0  0  0  0  0  0  0  0  0  0  0
   56.1854   -4.0534  -15.6921 C   0  0  0  0  0  0  0  0  0  0  0  0
   57.4705   -4.6977  -17.6140 C   0  0  0  0  0  0  0  0  0  0  0  0
   57.5239   -4.1886  -16.2628 N   0  0  0  0  0  0  0  0  0  0  0  0
   58.1941   -2.9157  -16.2030 C   0  0  0  0  0  0  0  0  0  0  0  0
 31 32  1  0  0  0
 32 33  1  0  0  0
 32 30  1  0  0  0
 30 29  1  0  0  0
 29 28  1  0  0  0
 28 21  1  0  0  0
 21 22  2  0  0  0
 22 23  1  0  0  0
 23 24  2  0  0  0
 24 25  1  0  0  0
 24 26  1  0  0  0
 26 19  1  0  0  0
 19  1  1  0  0  0
  1  2  2  0  0  0
  2  3  1  0  0  0
  3  4  2  0  0  0
  4  5  1  0  0  0
  5  6  1  0  0  0
  6  7  2  0  0  0
  6  8  1  0  0  0
  8  9  1  0  0  0
  9 10  2  0  0  0
 10 11  1  0  0  0
 11 12  1  0  0  0
 11 13  2  0  0  0
 13 14  1  0  0  0
 14 15  2  0  0  0
 15 16  1  0  0  0
 16 17  2  0  0  0
 26 27  2  0  0  0
 27 21  1  0  0  0
 17  1  1  0  0  0
 16  4  1  0  0  0
 15  9  1  0  0  0
 19 20  1  0  0  0
  8 18  1  0  0  0
M  END
> <minimizedAffinity>
-9.92683

> <CNNscore>
0.5587376356

> <CNNaffinity>
7.5985231400

> <CNN_VS>
4.2455806732

> <CNNaffinity_variance>
0.0903067067

$$$$
[H]c1nc(N([H])c2c(C([H])([H])[H])nc([H])c(C([H])([H])C([H])([H])C([H])([H])N(C([H])([H])[H])C([H])([H])[H])c2[H])nc2c1C([H])([H])C(=S)N([H])c1c([H])c(Cl)c([H])c([H])c1-2


 33 36  0  0  0  0  0  0  0  0999 V2000
   54.5207   -4.0482   -8.3560 C   0  0  0  0  0  0  0  0  0  0  0  0
   55.0795   -4.7891   -7.4239 N   0  0  0  0  0  0  0  0  0  0  0  0
   56.2488   -5.4266   -7.5965 C   0  0  0  0  0  0  0  0  0  0  0  0
   56.9583   -5.3524   -8.7738 C   0  0  0  0  0  0  0  0  0  0  0  0
   58.2110   -6.1274   -8.7642 C   0  0  0  0  0  0  0  0  0  0  0  0
   59.2913   -5.6092   -9.5895 C   0  0  0  0  0  0  0  0  0  0  0  0
   60.7649   -5.5479   -8.8437 S   0  0  0  0  0  0  0  0  0  0  0  0
   59.2522   -5.1608  -10.9326 N   0  0  0  0  0  0  0  0  0  0  0  0
   58.1493   -4.5683  -11.6038 C   0  0  0  0  0  0  0  0  0  0  0  0
   58.4587   -4.2399  -12.9225 C   0  0  0  0  0  0  0  0  0  0  0  0
   57.5180   -3.6583  -13.7171 C   0  0  0  0  0  0  0  0  0  0  0  0
   57.8590   -3.2221  -15.3968 Cl  0  0  0  0  0  0  0  0  0  0  0  0
   56.2640   -3.3863  -13.2459 C   0  0  0  0  0  0  0  0  0  0  0  0
   55.9628   -3.7156  -11.9327 C   0  0  0  0  0  0  0  0  0  0  0  0
   56.8855   -4.3018  -11.1060 C   0  0  0  0  0  0  0  0  0  0  0  0
   56.3710   -4.5663   -9.7699 C   0  0  0  0  0  0  0  0  0  0  0  0
   55.2011   -3.9582   -9.5284 N   0  0  0  0  0  0  0  0  0  0  0  0
   60.1344   -5.2775  -11.4910 H   0  0  0  0  0  0  0  0  0  0  0  0
   53.3011   -3.3535   -8.2459 N   0  0  0  0  0  0  0  0  0  0  0  0
   53.1981   -2.4909   -8.8926 H   0  0  0  0  0  0  0  0  0  0  0  0
   50.8980   -4.8184   -5.7602 C   0  0  0  0  0  0  0  0  0  0  0  0
   49.8656   -3.9248   -5.8617 C   0  0  0  0  0  0  0  0  0  0  0  0
   50.0125   -2.9108   -6.7233 N   0  0  0  0  0  0  0  0  0  0  0  0
   51.1117   -2.7368   -7.4794 C   0  0  0  0  0  0  0  0  0  0  0  0
   51.1655   -1.5685   -8.4069 C   0  0  0  0  0  0  0  0  0  0  0  0
   52.2048   -3.6052   -7.4316 C   0  0  0  0  0  0  0  0  0  0  0  0
   52.0557   -4.6483   -6.5463 C   0  0  0  0  0  0  0  0  0  0  0  0
   50.8323   -5.9711   -4.8379 C   0  0  0  0  0  0  0  0  0  0  0  0
   51.8800   -5.9121   -3.7928 C   0  0  0  0  0  0  0  0  0  0  0  0
   51.3191   -5.5043   -2.4765 C   0  0  0  0  0  0  0  0  0  0  0  0
   52.4334   -7.1186   -1.0934 C   0  0  0  0  0  0  0  0  0  0  0  0
   52.3071   -5.7170   -1.4210 N   0  0  0  0  0  0  0  0  0  0  0  0
   53.5669   -5.1540   -1.8323 C   0  0  0  0  0  0  0  0  0  0  0  0
 31 32  1  0  0  0
 32 33  1  0  0  0
 32 30  1  0  0  0
 30 29  1  0  0  0
 29 28  1  0  0  0
 28 21  1  0  0  0
 21 22  2  0  0  0
 22 23  1  0  0  0
 23 24  2  0  0  0
 24 25  1  0  0  0
 24 26  1  0  0  0
 26 19  1  0  0  0
 19  1  1  0  0  0
  1  2  2  0  0  0
  2  3  1  0  0  0
  3  4  2  0  0  0
  4  5  1  0  0  0
  5  6  1  0  0  0
  6  7  2  0  0  0
  6  8  1  0  0  0
  8  9  1  0  0  0
  9 10  2  0  0  0
 10 11  1  0  0  0
 11 12  1  0  0  0
 11 13  2  0  0  0
 13 14  1  0  0  0
 14 15  2  0  0  0
 15 16  1  0  0  0
 16 17  2  0  0  0
 26 27  2  0  0  0
 27 21  1  0  0  0
 17  1  1  0  0  0
 16  4  1  0  0  0
 15  9  1  0  0  0
 19 20  1  0  0  0
  8 18  1  0  0  0
M  END
> <minimizedAffinity>
-6.75855

> <CNNscore>
0.5198423266

> <CNNaffinity>
7.4590353966

> <CNN_VS>
3.8775222301

> <CNNaffinity_variance>
0.1575930268

$$$$
[H]c1nc(N([H])c2c(C([H])([H])[H])nc([H])c(C([H])([H])C([H])([H])C([H])([H])N(C([H])([H])[H])C([H])([H])[H])c2[H])nc2c1C([H])([H])C(=S)N([H])c1c([H])c(Cl)c([H])c([H])c1-2


 33 36  0  0  0  0  0  0  0  0999 V2000
   56.5102   -4.1809  -10.9356 C   0  0  0  0  0  0  0  0  0  0  0  0
   57.5003   -4.7774  -10.3081 N   0  0  0  0  0  0  0  0  0  0  0  0
   57.4247   -5.1727   -9.0270 C   0  0  0  0  0  0  0  0  0  0  0  0
   56.2940   -4.9815   -8.2655 C   0  0  0  0  0  0  0  0  0  0  0  0
   56.4147   -5.4793   -6.8844 C   0  0  0  0  0  0  0  0  0  0  0  0
   55.1850   -5.9436   -6.2609 C   0  0  0  0  0  0  0  0  0  0  0  0
   55.3063   -7.4000   -5.4891 S   0  0  0  0  0  0  0  0  0  0  0  0
   53.9136   -5.3201   -6.2214 N   0  0  0  0  0  0  0  0  0  0  0  0
   53.3590   -4.4481   -7.1961 C   0  0  0  0  0  0  0  0  0  0  0  0
   52.0810   -4.0188   -6.8424 C   0  0  0  0  0  0  0  0  0  0  0  0
   51.3948   -3.1772   -7.6642 C   0  0  0  0  0  0  0  0  0  0  0  0
   49.7710   -2.6027   -7.2623 Cl  0  0  0  0  0  0  0  0  0  0  0  0
   51.9363   -2.7393   -8.8404 C   0  0  0  0  0  0  0  0  0  0  0  0
   53.2083   -3.1705   -9.1863 C   0  0  0  0  0  0  0  0  0  0  0  0
   53.9267   -4.0170   -8.3827 C   0  0  0  0  0  0  0  0  0  0  0  0
   55.2365   -4.3480   -8.9254 C   0  0  0  0  0  0  0  0  0  0  0  0
   55.3818   -3.9801  -10.2062 N   0  0  0  0  0  0  0  0  0  0  0  0
   53.3166   -5.5268   -5.3819 H   0  0  0  0  0  0  0  0  0  0  0  0
   56.5184   -3.7404  -12.2728 N   0  0  0  0  0  0  0  0  0  0  0  0
   55.5561   -3.4408  -12.6690 H   0  0  0  0  0  0  0  0  0  0  0  0
   59.9185   -3.4621  -13.8417 C   0  0  0  0  0  0  0  0  0  0  0  0
   59.5736   -3.4054  -15.1655 C   0  0  0  0  0  0  0  0  0  0  0  0
   58.2698   -3.4606  -15.4641 N   0  0  0  0  0  0  0  0  0  0  0  0
   57.3027   -3.5674  -14.5348 C   0  0  0  0  0  0  0  0  0  0  0  0
   55.8803   -3.6205  -14.9842 C   0  0  0  0  0  0  0  0  0  0  0  0
   57.5758   -3.6307  -13.1663 C   0  0  0  0  0  0  0  0  0  0  0  0
   58.9157   -3.5742  -12.8573 C   0  0  0  0  0  0  0  0  0  0  0  0
   61.3308   -3.4086  -13.4098 C   0  0  0  0  0  0  0  0  0  0  0  0
   62.2586   -3.8579  -14.4733 C   0  0  0  0  0  0  0  0  0  0  0  0
   63.2420   -2.7987  -14.8263 C   0  0  0  0  0  0  0  0  0  0  0  0
   65.3552   -2.9478  -13.6981 C   0  0  0  0  0  0  0  0  0  0  0  0
   64.0132   -2.4146  -13.6460 N   0  0  0  0  0  0  0  0  0  0  0  0
   64.0181   -0.9794  -13.5309 C   0  0  0  0  0  0  0  0  0  0  0  0
 31 32  1  0  0  0
 32 33  1  0  0  0
 32 30  1  0  0  0
 30 29  1  0  0  0
 29 28  1  0  0  0
 28 21  1  0  0  0
 21 22  2  0  0  0
 22 23  1  0  0  0
 23 24  2  0  0  0
 24 25  1  0  0  0
 24 26  1  0  0  0
 26 19  1  0  0  0
 19  1  1  0  0  0
  1  2  2  0  0  0
  2  3  1  0  0  0
  3  4  2  0  0  0
  4  5  1  0  0  0
  5  6  1  0  0  0
  6  7  2  0  0  0
  6  8  1  0  0  0
  8  9  1  0  0  0
  9 10  2  0  0  0
 10 11  1  0  0  0
 11 12  1  0  0  0
 11 13  2  0  0  0
 13 14  1  0  0  0
 14 15  2  0  0  0
 15 16  1  0  0  0
 16 17  2  0  0  0
 26 27  2  0  0  0
 27 21  1  0  0  0
 17  1  1  0  0  0
 16  4  1  0  0  0
 15  9  1  0  0  0
 19 20  1  0  0  0
  8 18  1  0  0  0
M  END
> <minimizedAffinity>
-8.73108

> <CNNscore>
0.4601464868

> <CNNaffinity>
6.9953207970

> <CNN_VS>
3.2188723087

> <CNNaffinity_variance>
0.0893586054

$$$$
[H]c1c([H])c([H])c([C@@]([H])(Oc2c(C(=O)N([H])[H])sc(-n3c([H])nc4c([H])c(OC([H])([H])[H])c(OC([H])([H])[H])c([H])c43)c2[H])C([H])([H])[H])c(Cl)c1[H]


 33 36  0  0  0  0  0  0  0  0999 V2000
   54.8606   -4.2551   -8.3653 C   0  0  0  0  0  0  0  0  0  0  0  0
   54.0079   -4.8551   -7.5369 C   0  0  0  0  0  0  0  0  0  0  0  0
   52.7339   -4.3112   -7.3790 C   0  0  0  0  0  0  0  0  0  0  0  0
   52.5182   -3.1652   -8.1446 C   0  0  0  0  0  0  0  0  0  0  0  0
   53.9928   -2.9414   -8.9661 S   0  0  0  0  0  0  0  0  0  0  0  0
   58.5511   -4.4093  -12.0859 C   0  0  0  0  0  0  0  0  0  0  0  0
   58.9680   -4.9327  -10.8854 C   0  0  0  0  0  0  0  0  0  0  0  0
   58.1224   -4.9761   -9.7927 C   0  0  0  0  0  0  0  0  0  0  0  0
   58.2663   -5.4271   -8.5119 N   0  0  0  0  0  0  0  0  0  0  0  0
   57.1042   -5.2261   -7.8389 C   0  0  0  0  0  0  0  0  0  0  0  0
   56.2145   -4.6522   -8.6671 N   0  0  0  0  0  0  0  0  0  0  0  0
   56.8281   -4.5001   -9.8508 C   0  0  0  0  0  0  0  0  0  0  0  0
   56.4272   -3.9779  -11.0662 C   0  0  0  0  0  0  0  0  0  0  0  0
   57.2616   -3.9301  -12.1614 C   0  0  0  0  0  0  0  0  0  0  0  0
   60.2438   -3.2355  -13.3872 C   0  0  0  0  0  0  0  0  0  0  0  0
   59.4067   -4.3616  -13.2040 O   0  0  0  0  0  0  0  0  0  0  0  0
   56.7949   -3.3888  -13.3714 O   0  0  0  0  0  0  0  0  0  0  0  0
   56.2583   -4.2491  -14.3266 C   0  0  0  0  0  0  0  0  0  0  0  0
   51.2928   -2.3367   -8.2491 C   0  0  0  0  0  0  0  0  0  0  0  0
   50.0553   -2.8421   -7.8625 N   0  0  0  0  0  0  0  0  0  0  0  0
   51.4084   -1.1843   -8.6918 O   0  0  0  0  0  0  0  0  0  0  0  0
   49.4558   -3.4207   -8.5180 H   0  0  0  0  0  0  0  0  0  0  0  0
   49.6530   -2.6781   -6.9148 H   0  0  0  0  0  0  0  0  0  0  0  0
   51.8240   -4.8561   -6.5677 O   0  0  0  0  0  0  0  0  0  0  0  0
   50.9525   -5.3778   -5.7925 C   0  0  0  0  0  0  0  0  0  0  0  0
   50.3461   -6.7036   -6.3408 C   0  0  0  0  0  0  0  0  0  0  0  0
   51.5107   -5.7677   -4.4392 C   0  0  0  0  0  0  0  0  0  0  0  0
   52.7312   -6.3506   -4.2719 C   0  0  0  0  0  0  0  0  0  0  0  0
   53.2189   -6.6875   -3.0019 C   0  0  0  0  0  0  0  0  0  0  0  0
   52.4461   -6.4249   -1.8928 C   0  0  0  0  0  0  0  0  0  0  0  0
   51.2279   -5.8445   -2.0545 C   0  0  0  0  0  0  0  0  0  0  0  0
   50.7621   -5.5173   -3.3191 C   0  0  0  0  0  0  0  0  0  0  0  0
   49.1748   -4.7779   -3.3877 Cl  0  0  0  0  0  0  0  0  0  0  0  0
 15 16  1  0  0  0
 16  6  1  0  0  0
  6  7  2  0  0  0
  7  8  1  0  0  0
  8  9  1  0  0  0
  9 10  2  0  0  0
 10 11  1  0  0  0
 11  1  1  0  0  0
  1  2  2  0  0  0
  2  3  1  0  0  0
  3 24  1  0  0  0
 24 25  1  0  0  0
 25 26  1  0  0  0
 25 27  1  0  0  0
 27 28  2  0  0  0
 28 29  1  0  0  0
 29 30  2  0  0  0
 30 31  1  0  0  0
 31 32  2  0  0  0
 32 33  1  0  0  0
  3  4  2  0  0  0
  4  5  1  0  0  0
  4 19  1  0  0  0
 19 20  1  0  0  0
 19 21  2  0  0  0
 11 12  1  0  0  0
 12 13  1  0  0  0
 13 14  2  0  0  0
 14 17  1  0  0  0
 17 18  1  0  0  0
 14  6  1  0  0  0
 12  8  2  0  0  0
  5  1  1  0  0  0
 32 27  1  0  0  0
 20 22  1  0  0  0
 20 23  1  0  0  0
M  END
> <minimizedAffinity>
-8.42229

> <CNNscore>
0.7457503080

> <CNNaffinity>
7.3387970924

> <CNN_VS>
5.4729104042

> <CNNaffinity_variance>
0.1271438897

$$$$
[H]c1c([H])c([H])c([C@@]([H])(Oc2c(C(=O)N([H])[H])sc(-n3c([H])nc4c([H])c(OC([H])([H])[H])c(OC([H])([H])[H])c([H])c43)c2[H])C([H])([H])[H])c(Cl)c1[H]


 33 36  0  0  0  0  0  0  0  0999 V2000
   54.8338   -3.8820   -8.9352 C   0  0  0  0  0  0  0  0  0  0  0  0
   55.4941   -3.5525  -10.0436 C   0  0  0  0  0  0  0  0  0  0  0  0
   56.7866   -4.0435  -10.2233 C   0  0  0  0  0  0  0  0  0  0  0  0
   57.2284   -4.8481   -9.1728 C   0  0  0  0  0  0  0  0  0  0  0  0
   55.9140   -4.8614   -8.0903 S   0  0  0  0  0  0  0  0  0  0  0  0
   50.8489   -4.8069   -5.6563 C   0  0  0  0  0  0  0  0  0  0  0  0
   50.6009   -3.7809   -6.5366 C   0  0  0  0  0  0  0  0  0  0  0  0
   51.5417   -3.4026   -7.4761 C   0  0  0  0  0  0  0  0  0  0  0  0
   51.5643   -2.4441   -8.4484 N   0  0  0  0  0  0  0  0  0  0  0  0
   52.7551   -2.5015   -9.0986 C   0  0  0  0  0  0  0  0  0  0  0  0
   53.4994   -3.4823   -8.5592 N   0  0  0  0  0  0  0  0  0  0  0  0
   52.7671   -4.0297   -7.5770 C   0  0  0  0  0  0  0  0  0  0  0  0
   52.9979   -5.0589   -6.6835 C   0  0  0  0  0  0  0  0  0  0  0  0
   52.0672   -5.4443   -5.7437 C   0  0  0  0  0  0  0  0  0  0  0  0
   49.5318   -4.2921   -3.6721 C   0  0  0  0  0  0  0  0  0  0  0  0
   49.8953   -5.1985   -4.6962 O   0  0  0  0  0  0  0  0  0  0  0  0
   52.3597   -6.5001   -4.8637 O   0  0  0  0  0  0  0  0  0  0  0  0
   53.1468   -6.2396   -3.7441 C   0  0  0  0  0  0  0  0  0  0  0  0
   58.5247   -5.5529   -9.0261 C   0  0  0  0  0  0  0  0  0  0  0  0
   58.9052   -6.5411   -9.9290 N   0  0  0  0  0  0  0  0  0  0  0  0
   59.2537   -5.2337   -8.0753 O   0  0  0  0  0  0  0  0  0  0  0  0
   58.5947   -7.5490   -9.8215 H   0  0  0  0  0  0  0  0  0  0  0  0
   59.5135   -6.3451  -10.7525 H   0  0  0  0  0  0  0  0  0  0  0  0
   57.5110   -3.7582  -11.3082 O   0  0  0  0  0  0  0  0  0  0  0  0
   58.2048   -3.4841  -12.3456 C   0  0  0  0  0  0  0  0  0  0  0  0
   59.5557   -4.2563  -12.4125 C   0  0  0  0  0  0  0  0  0  0  0  0
   57.5137   -3.8506  -13.6430 C   0  0  0  0  0  0  0  0  0  0  0  0
   56.3560   -4.5677  -13.6986 C   0  0  0  0  0  0  0  0  0  0  0  0
   55.7398   -4.8785  -14.9183 C   0  0  0  0  0  0  0  0  0  0  0  0
   56.3178   -4.4506  -16.0927 C   0  0  0  0  0  0  0  0  0  0  0  0
   57.4727   -3.7360  -16.0425 C   0  0  0  0  0  0  0  0  0  0  0  0
   58.0678   -3.4371  -14.8260 C   0  0  0  0  0  0  0  0  0  0  0  0
   59.5550   -2.5134  -14.9024 Cl  0  0  0  0  0  0  0  0  0  0  0  0
 15 16  1  0  0  0
 16  6  1  0  0  0
  6  7  2  0  0  0
  7  8  1  0  0  0
  8  9  1  0  0  0
  9 10  2  0  0  0
 10 11  1  0  0  0
 11  1  1  0  0  0
  1  2  2  0  0  0
  2  3  1  0  0  0
  3 24  1  0  0  0
 24 25  1  0  0  0
 25 26  1  0  0  0
 25 27  1  0  0  0
 27 28  2  0  0  0
 28 29  1  0  0  0
 29 30  2  0  0  0
 30 31  1  0  0  0
 31 32  2  0  0  0
 32 33  1  0  0  0
  3  4  2  0  0  0
  4  5  1  0  0  0
  4 19  1  0  0  0
 19 20  1  0  0  0
 19 21  2  0  0  0
 11 12  1  0  0  0
 12 13  1  0  0  0
 13 14  2  0  0  0
 14 17  1  0  0  0
 17 18  1  0  0  0
 14  6  1  0  0  0
 12  8  2  0  0  0
  5  1  1  0  0  0
 32 27  1  0  0  0
 20 22  1  0  0  0
 20 23  1  0  0  0
M  END
> <minimizedAffinity>
-8.22636

> <CNNscore>
0.7002183199

> <CNNaffinity>
7.1215224266

> <CNN_VS>
4.9866204262

> <CNNaffinity_variance>
0.1025246829

$$$$
[H]c1c([H])c([H])c([C@@]([H])(Oc2c(C(=O)N([H])[H])sc(-n3c([H])nc4c([H])c(OC([H])([H])[H])c(OC([H])([H])[H])c([H])c43)c2[H])C([H])([H])[H])c(Cl)c1[H]


 33 36  0  0  0  0  0  0  0  0999 V2000
   55.5645   -5.4860   -5.5421 C   0  0  0  0  0  0  0  0  0  0  0  0
   54.2352   -5.5645   -5.5333 C   0  0  0  0  0  0  0  0  0  0  0  0
   53.5773   -5.6331   -4.3060 C   0  0  0  0  0  0  0  0  0  0  0  0
   54.4391   -5.6075   -3.2093 C   0  0  0  0  0  0  0  0  0  0  0  0
   55.9868   -5.5000   -3.9108 S   0  0  0  0  0  0  0  0  0  0  0  0
   55.9028   -3.9731  -10.5504 C   0  0  0  0  0  0  0  0  0  0  0  0
   57.0688   -4.5174  -10.0676 C   0  0  0  0  0  0  0  0  0  0  0  0
   57.1589   -4.9736   -8.7658 C   0  0  0  0  0  0  0  0  0  0  0  0
   58.1643   -5.5437   -8.0385 N   0  0  0  0  0  0  0  0  0  0  0  0
   57.7113   -5.8031   -6.7850 C   0  0  0  0  0  0  0  0  0  0  0  0
   56.4296   -5.4083   -6.6943 N   0  0  0  0  0  0  0  0  0  0  0  0
   56.0925   -4.9061   -7.8922 C   0  0  0  0  0  0  0  0  0  0  0  0
   54.9288   -4.3559   -8.3959 C   0  0  0  0  0  0  0  0  0  0  0  0
   54.8280   -3.8986   -9.6917 C   0  0  0  0  0  0  0  0  0  0  0  0
   56.8053   -3.8576  -12.8106 C   0  0  0  0  0  0  0  0  0  0  0  0
   55.8030   -3.5061  -11.8757 O   0  0  0  0  0  0  0  0  0  0  0  0
   53.6164   -3.3510  -10.1464 O   0  0  0  0  0  0  0  0  0  0  0  0
   52.7032   -2.8751   -9.2081 C   0  0  0  0  0  0  0  0  0  0  0  0
   54.1037   -5.6416   -1.7653 C   0  0  0  0  0  0  0  0  0  0  0  0
   53.5685   -4.5247   -1.1310 N   0  0  0  0  0  0  0  0  0  0  0  0
   54.3167   -6.6942   -1.1455 O   0  0  0  0  0  0  0  0  0  0  0  0
   54.1818   -3.7503   -0.7461 H   0  0  0  0  0  0  0  0  0  0  0  0
   52.5430   -4.3914   -0.9991 H   0  0  0  0  0  0  0  0  0  0  0  0
   52.2473   -5.7126   -4.2159 O   0  0  0  0  0  0  0  0  0  0  0  0
   50.9747   -5.7873   -4.1294 C   0  0  0  0  0  0  0  0  0  0  0  0
   50.4412   -5.6539   -2.6722 C   0  0  0  0  0  0  0  0  0  0  0  0
   50.2570   -4.6844   -4.8800 C   0  0  0  0  0  0  0  0  0  0  0  0
   49.5008   -3.7304   -4.2672 C   0  0  0  0  0  0  0  0  0  0  0  0
   48.8601   -2.7184   -4.9948 C   0  0  0  0  0  0  0  0  0  0  0  0
   48.9955   -2.6857   -6.3649 C   0  0  0  0  0  0  0  0  0  0  0  0
   49.7479   -3.6352   -6.9807 C   0  0  0  0  0  0  0  0  0  0  0  0
   50.3753   -4.6287   -6.2440 C   0  0  0  0  0  0  0  0  0  0  0  0
   51.3112   -5.7926   -7.1609 Cl  0  0  0  0  0  0  0  0  0  0  0  0
 15 16  1  0  0  0
 16  6  1  0  0  0
  6  7  2  0  0  0
  7  8  1  0  0  0
  8  9  1  0  0  0
  9 10  2  0  0  0
 10 11  1  0  0  0
 11  1  1  0  0  0
  1  2  2  0  0  0
  2  3  1  0  0  0
  3 24  1  0  0  0
 24 25  1  0  0  0
 25 26  1  0  0  0
 25 27  1  0  0  0
 27 28  2  0  0  0
 28 29  1  0  0  0
 29 30  2  0  0  0
 30 31  1  0  0  0
 31 32  2  0  0  0
 32 33  1  0  0  0
  3  4  2  0  0  0
  4  5  1  0  0  0
  4 19  1  0  0  0
 19 20  1  0  0  0
 19 21  2  0  0  0
 11 12  1  0  0  0
 12 13  1  0  0  0
 13 14  2  0  0  0
 14 17  1  0  0  0
 17 18  1  0  0  0
 14  6  1  0  0  0
 12  8  2  0  0  0
  5  1  1  0  0  0
 32 27  1  0  0  0
 20 22  1  0  0  0
 20 23  1  0  0  0
M  END
> <minimizedAffinity>
-9.32506

> <CNNscore>
0.6878349781

> <CNNaffinity>
7.6472883224

> <CNN_VS>
5.2600722313

> <CNNaffinity_variance>
0.2401363105

$$$$
[H]c1c([H])c([H])c([C@@]([H])(Oc2c(C(=O)N([H])[H])sc(-n3c([H])nc4c([H])c(OC([H])([H])[H])c(OC([H])([H])[H])c([H])c43)c2[H])C([H])([H])[H])c(Cl)c1[H]


 33 36  0  0  0  0  0  0  0  0999 V2000
   54.4125   -4.0842   -7.8984 C   0  0  0  0  0  0  0  0  0  0  0  0
   54.7563   -4.8359   -6.8543 C   0  0  0  0  0  0  0  0  0  0  0  0
   56.0014   -5.4633   -6.8629 C   0  0  0  0  0  0  0  0  0  0  0  0
   56.7480   -5.2049   -8.0126 C   0  0  0  0  0  0  0  0  0  0  0  0
   55.7397   -4.1860   -8.9317 S   0  0  0  0  0  0  0  0  0  0  0  0
   49.5001   -3.4624   -6.1755 C   0  0  0  0  0  0  0  0  0  0  0  0
   49.8195   -2.6267   -7.2188 C   0  0  0  0  0  0  0  0  0  0  0  0
   51.0733   -2.6569   -7.8003 C   0  0  0  0  0  0  0  0  0  0  0  0
   51.6510   -1.9592   -8.8221 N   0  0  0  0  0  0  0  0  0  0  0  0
   52.9277   -2.3915   -8.9866 C   0  0  0  0  0  0  0  0  0  0  0  0
   53.1806   -3.3567   -8.0858 N   0  0  0  0  0  0  0  0  0  0  0  0
   52.0595   -3.5198   -7.3666 C   0  0  0  0  0  0  0  0  0  0  0  0
   51.7194   -4.3522   -6.3169 C   0  0  0  0  0  0  0  0  0  0  0  0
   50.4729   -4.3306   -5.7304 C   0  0  0  0  0  0  0  0  0  0  0  0
   47.9559   -2.4925   -4.5595 C   0  0  0  0  0  0  0  0  0  0  0  0
   48.2247   -3.4377   -5.5776 O   0  0  0  0  0  0  0  0  0  0  0  0
   50.1864   -5.2036   -4.6672 O   0  0  0  0  0  0  0  0  0  0  0  0
   50.6837   -4.9023   -3.4013 C   0  0  0  0  0  0  0  0  0  0  0  0
   58.1096   -5.6781   -8.3602 C   0  0  0  0  0  0  0  0  0  0  0  0
   58.4110   -6.0961   -9.6528 N   0  0  0  0  0  0  0  0  0  0  0  0
   58.9657   -5.6895   -7.4633 O   0  0  0  0  0  0  0  0  0  0  0  0
   58.2209   -7.0860   -9.9810 H   0  0  0  0  0  0  0  0  0  0  0  0
   58.8389   -5.4632  -10.3621 H   0  0  0  0  0  0  0  0  0  0  0  0
   56.4172   -6.2315   -5.8529 O   0  0  0  0  0  0  0  0  0  0  0  0
   56.8139   -6.9664   -4.8858 C   0  0  0  0  0  0  0  0  0  0  0  0
   58.3610   -7.1371   -4.8281 C   0  0  0  0  0  0  0  0  0  0  0  0
   56.4605   -6.4065   -3.5232 C   0  0  0  0  0  0  0  0  0  0  0  0
   57.3900   -5.9539   -2.6351 C   0  0  0  0  0  0  0  0  0  0  0  0
   57.0237   -5.4323   -1.3870 C   0  0  0  0  0  0  0  0  0  0  0  0
   55.6907   -5.3757   -1.0461 C   0  0  0  0  0  0  0  0  0  0  0  0
   54.7601   -5.8266   -1.9280 C   0  0  0  0  0  0  0  0  0  0  0  0
   55.1413   -6.3388   -3.1591 C   0  0  0  0  0  0  0  0  0  0  0  0
   53.8431   -6.8892   -4.1996 Cl  0  0  0  0  0  0  0  0  0  0  0  0
 15 16  1  0  0  0
 16  6  1  0  0  0
  6  7  2  0  0  0
  7  8  1  0  0  0
  8  9  1  0  0  0
  9 10  2  0  0  0
 10 11  1  0  0  0
 11  1  1  0  0  0
  1  2  2  0  0  0
  2  3  1  0  0  0
  3 24  1  0  0  0
 24 25  1  0  0  0
 25 26  1  0  0  0
 25 27  1  0  0  0
 27 28  2  0  0  0
 28 29  1  0  0  0
 29 30  2  0  0  0
 30 31  1  0  0  0
 31 32  2  0  0  0
 32 33  1  0  0  0
  3  4  2  0  0  0
  4  5  1  0  0  0
  4 19  1  0  0  0
 19 20  1  0  0  0
 19 21  2  0  0  0
 11 12  1  0  0  0
 12 13  1  0  0  0
 13 14  2  0  0  0
 14 17  1  0  0  0
 17 18  1  0  0  0
 14  6  1  0  0  0
 12  8  2  0  0  0
  5  1  1  0  0  0
 32 27  1  0  0  0
 20 22  1  0  0  0
 20 23  1  0  0  0
M  END
> <minimizedAffinity>
-6.61693

> <CNNscore>
0.6372667551

> <CNNaffinity>
7.3895072937

> <CNN_VS>
4.7090873718

> <CNNaffinity_variance>
0.3048239052

$$$$
[H]c1c([H])c([H])c([C@@]([H])(Oc2c(C(=O)N([H])[H])sc(-n3c([H])nc4c([H])c(OC([H])([H])[H])c(OC([H])([H])[H])c([H])c43)c2[H])C([H])([H])[H])c(Cl)c1[H]


 33 36  0  0  0  0  0  0  0  0999 V2000
   55.5628   -4.6510   -8.6106 C   0  0  0  0  0  0  0  0  0  0  0  0
   55.0365   -5.3922   -7.6375 C   0  0  0  0  0  0  0  0  0  0  0  0
   53.7516   -5.0910   -7.1877 C   0  0  0  0  0  0  0  0  0  0  0  0
   53.1689   -4.0093   -7.8485 C   0  0  0  0  0  0  0  0  0  0  0  0
   54.3611   -3.5235   -8.9629 S   0  0  0  0  0  0  0  0  0  0  0  0
   58.3491   -3.9832  -13.0012 C   0  0  0  0  0  0  0  0  0  0  0  0
   59.0902   -4.4866  -11.9590 C   0  0  0  0  0  0  0  0  0  0  0  0
   58.5156   -4.7291  -10.7253 C   0  0  0  0  0  0  0  0  0  0  0  0
   58.9993   -5.2122   -9.5433 N   0  0  0  0  0  0  0  0  0  0  0  0
   57.9913   -5.2475   -8.6341 C   0  0  0  0  0  0  0  0  0  0  0  0
   56.8660   -4.7942   -9.2131 N   0  0  0  0  0  0  0  0  0  0  0  0
   57.1805   -4.4800  -10.4793 C   0  0  0  0  0  0  0  0  0  0  0  0
   56.4517   -3.9743  -11.5393 C   0  0  0  0  0  0  0  0  0  0  0  0
   57.0143   -3.7294  -12.7729 C   0  0  0  0  0  0  0  0  0  0  0  0
   60.2733   -3.3027  -14.3320 C   0  0  0  0  0  0  0  0  0  0  0  0
   58.9273   -3.7334  -14.2613 O   0  0  0  0  0  0  0  0  0  0  0  0
   56.2204   -3.2164  -13.8127 O   0  0  0  0  0  0  0  0  0  0  0  0
   55.9884   -4.0120  -14.9325 C   0  0  0  0  0  0  0  0  0  0  0  0
   51.8214   -3.4212   -7.6556 C   0  0  0  0  0  0  0  0  0  0  0  0
   51.0325   -3.0729   -8.7477 N   0  0  0  0  0  0  0  0  0  0  0  0
   51.4245   -3.2506   -6.4934 O   0  0  0  0  0  0  0  0  0  0  0  0
   51.1310   -2.1366   -9.2351 H   0  0  0  0  0  0  0  0  0  0  0  0
   50.3058   -3.7084   -9.1409 H   0  0  0  0  0  0  0  0  0  0  0  0
   53.1565   -5.7887   -6.2170 O   0  0  0  0  0  0  0  0  0  0  0  0
   52.5873   -6.4574   -5.2889 C   0  0  0  0  0  0  0  0  0  0  0  0
   53.5061   -6.7218   -4.0593 C   0  0  0  0  0  0  0  0  0  0  0  0
   51.3828   -5.7551   -4.6963 C   0  0  0  0  0  0  0  0  0  0  0  0
   51.3864   -5.1725   -3.4642 C   0  0  0  0  0  0  0  0  0  0  0  0
   50.2550   -4.5220   -2.9536 C   0  0  0  0  0  0  0  0  0  0  0  0
   49.1081   -4.4698   -3.7141 C   0  0  0  0  0  0  0  0  0  0  0  0
   49.0993   -5.0499   -4.9431 C   0  0  0  0  0  0  0  0  0  0  0  0
   50.2289   -5.6887   -5.4322 C   0  0  0  0  0  0  0  0  0  0  0  0
   50.0823   -6.3981   -7.0280 Cl  0  0  0  0  0  0  0  0  0  0  0  0
 15 16  1  0  0  0
 16  6  1  0  0  0
  6  7  2  0  0  0
  7  8  1  0  0  0
  8  9  1  0  0  0
  9 10  2  0  0  0
 10 11  1  0  0  0
 11  1  1  0  0  0
  1  2  2  0  0  0
  2  3  1  0  0  0
  3 24  1  0  0  0
 24 25  1  0  0  0
 25 26  1  0  0  0
 25 27  1  0  0  0
 27 28  2  0  0  0
 28 29  1  0  0  0
 29 30  2  0  0  0
 30 31  1  0  0  0
 31 32  2  0  0  0
 32 33  1  0  0  0
  3  4  2  0  0  0
  4  5  1  0  0  0
  4 19  1  0  0  0
 19 20  1  0  0  0
 19 21  2  0  0  0
 11 12  1  0  0  0
 12 13  1  0  0  0
 13 14  2  0  0  0
 14 17  1  0  0  0
 17 18  1  0  0  0
 14  6  1  0  0  0
 12  8  2  0  0  0
  5  1  1  0  0  0
 32 27  1  0  0  0
 20 22  1  0  0  0
 20 23  1  0  0  0
M  END
> <minimizedAffinity>
-7.70439

> <CNNscore>
0.5142000318

> <CNNaffinity>
7.0251121521

> <CNN_VS>
3.6123127937

> <CNNaffinity_variance>
0.2093803883

$$$$
[H]c1c([H])c([H])c([C@@]([H])(Oc2c(C(=O)N([H])[H])sc(-n3c([H])nc4c([H])c(OC([H])([H])[H])c(OC([H])([H])[H])c([H])c43)c2[H])C([H])([H])[H])c(Cl)c1[H]


 33 36  0  0  0  0  0  0  0  0999 V2000
   52.6685   -4.6806   -6.5527 C   0  0  0  0  0  0  0  0  0  0  0  0
   53.4965   -5.3451   -5.7488 C   0  0  0  0  0  0  0  0  0  0  0  0
   52.9975   -5.8615   -4.5537 C   0  0  0  0  0  0  0  0  0  0  0  0
   51.6412   -5.6009   -4.3570 C   0  0  0  0  0  0  0  0  0  0  0  0
   51.1910   -4.7206   -5.7433 S   0  0  0  0  0  0  0  0  0  0  0  0
   56.2802   -4.2678  -10.3305 C   0  0  0  0  0  0  0  0  0  0  0  0
   55.1444   -3.5361  -10.5827 C   0  0  0  0  0  0  0  0  0  0  0  0
   54.0886   -3.5255   -9.6905 C   0  0  0  0  0  0  0  0  0  0  0  0
   52.8713   -2.9069   -9.6843 N   0  0  0  0  0  0  0  0  0  0  0  0
   52.2092   -3.2445   -8.5478 C   0  0  0  0  0  0  0  0  0  0  0  0
   52.9820   -4.0714   -7.8225 N   0  0  0  0  0  0  0  0  0  0  0  0
   54.1205   -4.2429   -8.5118 C   0  0  0  0  0  0  0  0  0  0  0  0
   55.2708   -4.9721   -8.2757 C   0  0  0  0  0  0  0  0  0  0  0  0
   56.3290   -4.9894   -9.1578 C   0  0  0  0  0  0  0  0  0  0  0  0
   57.1739   -3.7822  -12.5445 C   0  0  0  0  0  0  0  0  0  0  0  0
   57.3605   -4.2837  -11.2346 O   0  0  0  0  0  0  0  0  0  0  0  0
   57.4731   -5.7491   -8.8606 O   0  0  0  0  0  0  0  0  0  0  0  0
   58.5673   -5.1119   -8.2797 C   0  0  0  0  0  0  0  0  0  0  0  0
   50.7734   -6.0066   -3.2251 C   0  0  0  0  0  0  0  0  0  0  0  0
   51.1189   -7.0812   -2.4113 N   0  0  0  0  0  0  0  0  0  0  0  0
   49.7341   -5.3591   -3.0306 O   0  0  0  0  0  0  0  0  0  0  0  0
   50.8770   -8.0807   -2.6689 H   0  0  0  0  0  0  0  0  0  0  0  0
   51.6286   -6.9617   -1.5098 H   0  0  0  0  0  0  0  0  0  0  0  0
   53.7651   -6.5396   -3.6969 O   0  0  0  0  0  0  0  0  0  0  0  0
   54.4998   -7.1873   -2.8764 C   0  0  0  0  0  0  0  0  0  0  0  0
   55.3949   -8.2639   -3.5587 C   0  0  0  0  0  0  0  0  0  0  0  0
   55.4889   -6.3104   -2.1362 C   0  0  0  0  0  0  0  0  0  0  0  0
   56.6593   -5.8752   -2.6825 C   0  0  0  0  0  0  0  0  0  0  0  0
   57.5450   -5.0555   -1.9699 C   0  0  0  0  0  0  0  0  0  0  0  0
   57.2273   -4.6797   -0.6837 C   0  0  0  0  0  0  0  0  0  0  0  0
   56.0617   -5.1117   -0.1343 C   0  0  0  0  0  0  0  0  0  0  0  0
   55.1971   -5.9219   -0.8551 C   0  0  0  0  0  0  0  0  0  0  0  0
   53.7314   -6.4113   -0.0285 Cl  0  0  0  0  0  0  0  0  0  0  0  0
 15 16  1  0  0  0
 16  6  1  0  0  0
  6  7  2  0  0  0
  7  8  1  0  0  0
  8  9  1  0  0  0
  9 10  2  0  0  0
 10 11  1  0  0  0
 11  1  1  0  0  0
  1  2  2  0  0  0
  2  3  1  0  0  0
  3 24  1  0  0  0
 24 25  1  0  0  0
 25 26  1  0  0  0
 25 27  1  0  0  0
 27 28  2  0  0  0
 28 29  1  0  0  0
 29 30  2  0  0  0
 30 31  1  0  0  0
 31 32  2  0  0  0
 32 33  1  0  0  0
  3  4  2  0  0  0
  4  5  1  0  0  0
  4 19  1  0  0  0
 19 20  1  0  0  0
 19 21  2  0  0  0
 11 12  1  0  0  0
 12 13  1  0  0  0
 13 14  2  0  0  0
 14 17  1  0  0  0
 17 18  1  0  0  0
 14  6  1  0  0  0
 12  8  2  0  0  0
  5  1  1  0  0  0
 32 27  1  0  0  0
 20 22  1  0  0  0
 20 23  1  0  0  0
M  END
> <minimizedAffinity>
-7.62148

> <CNNscore>
0.3903177977

> <CNNaffinity>
7.0350365639

> <CNN_VS>
2.7458999157

> <CNNaffinity_variance>
0.1580445468

$$$$
[H]c1c([H])c([H])c([C@@]([H])(Oc2c(C(=O)N([H])[H])sc(-n3c([H])nc4c([H])c(OC([H])([H])[H])c(OC([H])([H])[H])c([H])c43)c2[H])C([H])([H])[H])c(Cl)c1[H]


 33 36  0  0  0  0  0  0  0  0999 V2000
   55.1978   -5.1834   -7.4816 C   0  0  0  0  0  0  0  0  0  0  0  0
   54.0303   -5.3532   -6.8641 C   0  0  0  0  0  0  0  0  0  0  0  0
   54.0181   -5.9723   -5.6149 C   0  0  0  0  0  0  0  0  0  0  0  0
   55.2851   -6.3430   -5.1640 C   0  0  0  0  0  0  0  0  0  0  0  0
   56.3247   -5.8436   -6.4166 S   0  0  0  0  0  0  0  0  0  0  0  0
   58.6029   -4.6725  -11.4351 C   0  0  0  0  0  0  0  0  0  0  0  0
   57.4314   -3.9821  -11.6347 C   0  0  0  0  0  0  0  0  0  0  0  0
   56.4209   -4.0017  -10.6916 C   0  0  0  0  0  0  0  0  0  0  0  0
   55.1847   -3.4253  -10.6285 N   0  0  0  0  0  0  0  0  0  0  0  0
   54.5914   -3.7777   -9.4590 C   0  0  0  0  0  0  0  0  0  0  0  0
   55.4271   -4.5725   -8.7684 N   0  0  0  0  0  0  0  0  0  0  0  0
   56.5357   -4.7095   -9.5122 C   0  0  0  0  0  0  0  0  0  0  0  0
   57.7207   -5.3971   -9.3294 C   0  0  0  0  0  0  0  0  0  0  0  0
   58.7343   -5.3839  -10.2626 C   0  0  0  0  0  0  0  0  0  0  0  0
   59.7683   -3.5416  -13.2515 C   0  0  0  0  0  0  0  0  0  0  0  0
   59.6373   -4.6574  -12.3913 O   0  0  0  0  0  0  0  0  0  0  0  0
   59.9173   -6.1018  -10.0183 O   0  0  0  0  0  0  0  0  0  0  0  0
   60.4166   -6.1468   -8.7186 C   0  0  0  0  0  0  0  0  0  0  0  0
   55.6605   -6.9977   -3.8876 C   0  0  0  0  0  0  0  0  0  0  0  0
   55.0801   -8.2038   -3.5071 N   0  0  0  0  0  0  0  0  0  0  0  0
   56.5046   -6.4355   -3.1742 O   0  0  0  0  0  0  0  0  0  0  0  0
   54.1498   -8.2435   -3.0002 H   0  0  0  0  0  0  0  0  0  0  0  0
   55.5267   -9.1264   -3.6967 H   0  0  0  0  0  0  0  0  0  0  0  0
   52.8878   -6.1769   -4.9339 O   0  0  0  0  0  0  0  0  0  0  0  0
   51.8067   -6.3738   -4.2819 C   0  0  0  0  0  0  0  0  0  0  0  0
   52.0056   -6.3879   -2.7371 C   0  0  0  0  0  0  0  0  0  0  0  0
   50.7678   -5.2936   -4.5032 C   0  0  0  0  0  0  0  0  0  0  0  0
   50.2792   -4.5078   -3.5026 C   0  0  0  0  0  0  0  0  0  0  0  0
   49.3257   -3.5105   -3.7480 C   0  0  0  0  0  0  0  0  0  0  0  0
   48.8680   -3.3183   -5.0325 C   0  0  0  0  0  0  0  0  0  0  0  0
   49.3516   -4.0999   -6.0336 C   0  0  0  0  0  0  0  0  0  0  0  0
   50.2957   -5.0816   -5.7719 C   0  0  0  0  0  0  0  0  0  0  0  0
   50.8325   -6.0209   -7.1505 Cl  0  0  0  0  0  0  0  0  0  0  0  0
 15 16  1  0  0  0
 16  6  1  0  0  0
  6  7  2  0  0  0
  7  8  1  0  0  0
  8  9  1  0  0  0
  9 10  2  0  0  0
 10 11  1  0  0  0
 11  1  1  0  0  0
  1  2  2  0  0  0
  2  3  1  0  0  0
  3 24  1  0  0  0
 24 25  1  0  0  0
 25 26  1  0  0  0
 25 27  1  0  0  0
 27 28  2  0  0  0
 28 29  1  0  0  0
 29 30  2  0  0  0
 30 31  1  0  0  0
 31 32  2  0  0  0
 32 33  1  0  0  0
  3  4  2  0  0  0
  4  5  1  0  0  0
  4 19  1  0  0  0
 19 20  1  0  0  0
 19 21  2  0  0  0
 11 12  1  0  0  0
 12 13  1  0  0  0
 13 14  2  0  0  0
 14 17  1  0  0  0
 17 18  1  0  0  0
 14  6  1  0  0  0
 12  8  2  0  0  0
  5  1  1  0  0  0
 32 27  1  0  0  0
 20 22  1  0  0  0
 20 23  1  0  0  0
M  END
> <minimizedAffinity>
-8.28538

> <CNNscore>
0.3750636280

> <CNNaffinity>
6.9239759445

> <CNN_VS>
2.5969314575

> <CNNaffinity_variance>
0.3145720065

$$$$
[H]c1c([H])c([H])c([C@@]([H])(Oc2c(C(=O)N([H])[H])sc(-n3c([H])nc4c([H])c(OC([H])([H])[H])c(OC([H])([H])[H])c([H])c43)c2[H])C([H])([H])[H])c(Cl)c1[H]


 33 36  0  0  0  0  0  0  0  0999 V2000
   55.2445   -4.5978   -8.3484 C   0  0  0  0  0  0  0  0  0  0  0  0
   54.7668   -5.0398   -7.1866 C   0  0  0  0  0  0  0  0  0  0  0  0
   53.4604   -4.7073   -6.8305 C   0  0  0  0  0  0  0  0  0  0  0  0
   52.8052   -3.9251   -7.7819 C   0  0  0  0  0  0  0  0  0  0  0  0
   53.9664   -3.7215   -9.0104 S   0  0  0  0  0  0  0  0  0  0  0  0
   58.2477   -4.0971  -12.6164 C   0  0  0  0  0  0  0  0  0  0  0  0
   58.9096   -4.6553  -11.5491 C   0  0  0  0  0  0  0  0  0  0  0  0
   58.2696   -4.8649  -10.3418 C   0  0  0  0  0  0  0  0  0  0  0  0
   58.6706   -5.3861   -9.1451 N   0  0  0  0  0  0  0  0  0  0  0  0
   57.6260   -5.3578   -8.2780 C   0  0  0  0  0  0  0  0  0  0  0  0
   56.5587   -4.8260   -8.8985 N   0  0  0  0  0  0  0  0  0  0  0  0
   56.9454   -4.5270  -10.1483 C   0  0  0  0  0  0  0  0  0  0  0  0
   56.2968   -3.9672  -11.2329 C   0  0  0  0  0  0  0  0  0  0  0  0
   56.9249   -3.7544  -12.4405 C   0  0  0  0  0  0  0  0  0  0  0  0
   60.2481   -3.4738  -13.8600 C   0  0  0  0  0  0  0  0  0  0  0  0
   58.8928   -3.8804  -13.8499 O   0  0  0  0  0  0  0  0  0  0  0  0
   56.2109   -3.1830  -13.5075 O   0  0  0  0  0  0  0  0  0  0  0  0
   56.0196   -3.9358  -14.6640 C   0  0  0  0  0  0  0  0  0  0  0  0
   51.4173   -3.4037   -7.7573 C   0  0  0  0  0  0  0  0  0  0  0  0
   51.1306   -2.1180   -8.2057 N   0  0  0  0  0  0  0  0  0  0  0  0
   50.5258   -4.1490   -7.3246 O   0  0  0  0  0  0  0  0  0  0  0  0
   51.2270   -1.2700   -7.5768 H   0  0  0  0  0  0  0  0  0  0  0  0
   50.8057   -1.9213   -9.1765 H   0  0  0  0  0  0  0  0  0  0  0  0
   52.9111   -5.1136   -5.6832 O   0  0  0  0  0  0  0  0  0  0  0  0
   52.3843   -5.5017   -4.5857 C   0  0  0  0  0  0  0  0  0  0  0  0
   51.1728   -6.4607   -4.7819 C   0  0  0  0  0  0  0  0  0  0  0  0
   53.3349   -6.2936   -3.7115 C   0  0  0  0  0  0  0  0  0  0  0  0
   54.2167   -7.2099   -4.2020 C   0  0  0  0  0  0  0  0  0  0  0  0
   55.0888   -7.9159   -3.3624 C   0  0  0  0  0  0  0  0  0  0  0  0
   55.0551   -7.6805   -2.0060 C   0  0  0  0  0  0  0  0  0  0  0  0
   54.1771   -6.7683   -1.5120 C   0  0  0  0  0  0  0  0  0  0  0  0
   53.3220   -6.0785   -2.3584 C   0  0  0  0  0  0  0  0  0  0  0  0
   52.2378   -4.9345   -1.5924 Cl  0  0  0  0  0  0  0  0  0  0  0  0
 15 16  1  0  0  0
 16  6  1  0  0  0
  6  7  2  0  0  0
  7  8  1  0  0  0
  8  9  1  0  0  0
  9 10  2  0  0  0
 10 11  1  0  0  0
 11  1  1  0  0  0
  1  2  2  0  0  0
  2  3  1  0  0  0
  3 24  1  0  0  0
 24 25  1  0  0  0
 25 26  1  0  0  0
 25 27  1  0  0  0
 27 28  2  0  0  0
 28 29  1  0  0  0
 29 30  2  0  0  0
 30 31  1  0  0  0
 31 32  2  0  0  0
 32 33  1  0  0  0
  3  4  2  0  0  0
  4  5  1  0  0  0
  4 19  1  0  0  0
 19 20  1  0  0  0
 19 21  2  0  0  0
 11 12  1  0  0  0
 12 13  1  0  0  0
 13 14  2  0  0  0
 14 17  1  0  0  0
 17 18  1  0  0  0
 14  6  1  0  0  0
 12  8  2  0  0  0
  5  1  1  0  0  0
 32 27  1  0  0  0
 20 22  1  0  0  0
 20 23  1  0  0  0
M  END
> <minimizedAffinity>
-8.25782

> <CNNscore>
0.3747318685

> <CNNaffinity>
6.8558759689

> <CNN_VS>
2.5691151619

> <CNNaffinity_variance>
0.1895095855

$$$$
[H]c1c([H])c([H])c([C@@]([H])(Oc2c(C(=O)N([H])[H])sc(-n3c([H])nc4c([H])c(OC([H])([H])[H])c(OC([H])([H])[H])c([H])c43)c2[H])C([H])([H])[H])c(Cl)c1[H]


 33 36  0  0  0  0  0  0  0  0999 V2000
   55.0633   -5.1939   -6.5148 C   0  0  0  0  0  0  0  0  0  0  0  0
   55.9766   -5.1332   -5.5477 C   0  0  0  0  0  0  0  0  0  0  0  0
   55.7361   -5.8169   -4.3566 C   0  0  0  0  0  0  0  0  0  0  0  0
   54.5204   -6.5010   -4.3423 C   0  0  0  0  0  0  0  0  0  0  0  0
   53.8482   -6.1677   -5.8707 S   0  0  0  0  0  0  0  0  0  0  0  0
   57.8232   -4.7503  -10.9502 C   0  0  0  0  0  0  0  0  0  0  0  0
   56.6720   -3.9996  -10.9496 C   0  0  0  0  0  0  0  0  0  0  0  0
   55.8234   -3.9938   -9.8583 C   0  0  0  0  0  0  0  0  0  0  0  0
   54.6439   -3.3603   -9.5900 N   0  0  0  0  0  0  0  0  0  0  0  0
   54.2254   -3.7124   -8.3471 C   0  0  0  0  0  0  0  0  0  0  0  0
   55.1177   -4.5633   -7.8114 N   0  0  0  0  0  0  0  0  0  0  0  0
   56.0864   -4.7351   -8.7241 C   0  0  0  0  0  0  0  0  0  0  0  0
   57.2485   -5.4832   -8.7435 C   0  0  0  0  0  0  0  0  0  0  0  0
   58.1013   -5.4959   -9.8255 C   0  0  0  0  0  0  0  0  0  0  0  0
   58.7396   -3.6347  -12.9129 C   0  0  0  0  0  0  0  0  0  0  0  0
   58.6931   -4.7615  -12.0583 O   0  0  0  0  0  0  0  0  0  0  0  0
   59.2696   -6.2756   -9.7843 O   0  0  0  0  0  0  0  0  0  0  0  0
   60.1990   -6.0359   -8.7746 C   0  0  0  0  0  0  0  0  0  0  0  0
   53.9432   -7.3439   -3.2675 C   0  0  0  0  0  0  0  0  0  0  0  0
   54.6083   -8.4804   -2.8176 N   0  0  0  0  0  0  0  0  0  0  0  0
   52.8522   -7.0032   -2.7866 O   0  0  0  0  0  0  0  0  0  0  0  0
   54.5101   -9.4173   -3.3039 H   0  0  0  0  0  0  0  0  0  0  0  0
   55.2327   -8.4720   -1.9829 H   0  0  0  0  0  0  0  0  0  0  0  0
   56.6042   -5.8044   -3.3420 O   0  0  0  0  0  0  0  0  0  0  0  0
   57.4344   -5.7937   -2.3708 C   0  0  0  0  0  0  0  0  0  0  0  0
   56.9664   -4.9307   -1.1616 C   0  0  0  0  0  0  0  0  0  0  0  0
   57.6699   -7.1636   -1.7682 C   0  0  0  0  0  0  0  0  0  0  0  0
   57.1900   -7.5382   -0.5488 C   0  0  0  0  0  0  0  0  0  0  0  0
   57.4195   -8.8191   -0.0286 C   0  0  0  0  0  0  0  0  0  0  0  0
   58.1495   -9.7243   -0.7663 C   0  0  0  0  0  0  0  0  0  0  0  0
   58.6308   -9.3552   -1.9825 C   0  0  0  0  0  0  0  0  0  0  0  0
   58.3931   -8.0833   -2.4814 C   0  0  0  0  0  0  0  0  0  0  0  0
   59.0729   -7.7352   -4.0587 Cl  0  0  0  0  0  0  0  0  0  0  0  0
 15 16  1  0  0  0
 16  6  1  0  0  0
  6  7  2  0  0  0
  7  8  1  0  0  0
  8  9  1  0  0  0
  9 10  2  0  0  0
 10 11  1  0  0  0
 11  1  1  0  0  0
  1  2  2  0  0  0
  2  3  1  0  0  0
  3 24  1  0  0  0
 24 25  1  0  0  0
 25 26  1  0  0  0
 25 27  1  0  0  0
 27 28  2  0  0  0
 28 29  1  0  0  0
 29 30  2  0  0  0
 30 31  1  0  0  0
 31 32  2  0  0  0
 32 33  1  0  0  0
  3  4  2  0  0  0
  4  5  1  0  0  0
  4 19  1  0  0  0
 19 20  1  0  0  0
 19 21  2  0  0  0
 11 12  1  0  0  0
 12 13  1  0  0  0
 13 14  2  0  0  0
 14 17  1  0  0  0
 17 18  1  0  0  0
 14  6  1  0  0  0
 12  8  2  0  0  0
  5  1  1  0  0  0
 32 27  1  0  0  0
 20 22  1  0  0  0
 20 23  1  0  0  0
M  END
> <minimizedAffinity>
-7.75125

> <CNNscore>
0.3173278868

> <CNNaffinity>
6.4363632202

> <CNN_VS>
2.0424375534

> <CNNaffinity_variance>
0.3343691826

$$$$
[H]c1nc(-c2c([H])c([H])c3c(nc([H])n3-c3sc(C(=O)N([H])[H])c(O[C@@]([H])(c4c([H])c([H])c([H])c([H])c4C(F)(F)F)C([H])([H])[H])c3[H])c2[H])c([H])c([H])c1[H]


 38 42  0  0  0  0  0  0  0  0999 V2000
   52.7675   -4.0373   -7.5529 C   0  0  0  0  0  0  0  0  0  0  0  0
   53.9125   -4.4577   -8.1134 C   0  0  0  0  0  0  0  0  0  0  0  0
   54.2722   -3.9027   -9.3188 C   0  0  0  0  0  0  0  0  0  0  0  0
   52.9874   -2.8099   -9.6211 S   0  0  0  0  0  0  0  0  0  0  0  0
   52.0518   -3.0861   -8.2347 C   0  0  0  0  0  0  0  0  0  0  0  0
   55.4337   -4.1803  -10.1068 N   0  0  0  0  0  0  0  0  0  0  0  0
   55.5860   -3.9937  -11.4028 C   0  0  0  0  0  0  0  0  0  0  0  0
   56.8368   -4.3775  -11.7914 N   0  0  0  0  0  0  0  0  0  0  0  0
   57.4894   -4.8207  -10.6944 C   0  0  0  0  0  0  0  0  0  0  0  0
   58.7632   -5.3193  -10.5164 C   0  0  0  0  0  0  0  0  0  0  0  0
   59.1798   -5.7067   -9.2593 C   0  0  0  0  0  0  0  0  0  0  0  0
   58.2866   -5.5739   -8.2254 C   0  0  0  0  0  0  0  0  0  0  0  0
   57.0080   -5.0750   -8.3954 C   0  0  0  0  0  0  0  0  0  0  0  0
   56.5781   -4.6859   -9.6359 C   0  0  0  0  0  0  0  0  0  0  0  0
   60.5266   -6.2332   -9.0723 C   0  0  0  0  0  0  0  0  0  0  0  0
   61.4247   -6.3840  -10.0868 C   0  0  0  0  0  0  0  0  0  0  0  0
   62.6884   -6.8960   -9.8038 C   0  0  0  0  0  0  0  0  0  0  0  0
   63.0192   -7.2441   -8.5065 C   0  0  0  0  0  0  0  0  0  0  0  0
   62.1035   -7.0855   -7.4992 C   0  0  0  0  0  0  0  0  0  0  0  0
   60.9028   -6.5894   -7.8238 N   0  0  0  0  0  0  0  0  0  0  0  0
   50.7734   -2.4482   -7.8665 C   0  0  0  0  0  0  0  0  0  0  0  0
   49.6441   -3.1927   -7.4941 N   0  0  0  0  0  0  0  0  0  0  0  0
   50.7256   -1.1910   -7.8971 O   0  0  0  0  0  0  0  0  0  0  0  0
   49.0763   -2.9084   -6.6650 H   0  0  0  0  0  0  0  0  0  0  0  0
   49.3406   -4.0255   -8.0110 H   0  0  0  0  0  0  0  0  0  0  0  0
   52.2843   -4.5288   -6.3123 O   0  0  0  0  0  0  0  0  0  0  0  0
   50.7999   -6.4187   -6.2906 C   0  0  0  0  0  0  0  0  0  0  0  0
   52.2085   -5.8539   -5.9342 C   0  0  0  0  0  0  0  0  0  0  0  0
   52.5815   -6.2305   -4.5806 C   0  0  0  0  0  0  0  0  0  0  0  0
   51.5720   -6.3450   -3.6425 C   0  0  0  0  0  0  0  0  0  0  0  0
   51.7775   -6.6972   -2.3273 C   0  0  0  0  0  0  0  0  0  0  0  0
   53.0602   -6.9576   -1.8917 C   0  0  0  0  0  0  0  0  0  0  0  0
   54.0513   -6.8408   -2.8293 C   0  0  0  0  0  0  0  0  0  0  0  0
   53.8613   -6.4891   -4.1494 C   0  0  0  0  0  0  0  0  0  0  0  0
   54.9961   -6.3872   -5.0379 C   0  0  0  0  0  0  0  0  0  0  0  0
   54.9721   -7.2923   -6.1113 F   0  0  0  0  0  0  0  0  0  0  0  0
   56.1102   -6.9156   -4.3173 F   0  0  0  0  0  0  0  0  0  0  0  0
   55.4571   -5.1560   -5.3521 F   0  0  0  0  0  0  0  0  0  0  0  0
 27 28  1  0  0  0
 28 26  1  0  0  0
 26  1  1  0  0  0
  1  2  1  0  0  0
  2  3  2  0  0  0
  3  4  1  0  0  0
  4  5  1  0  0  0
  5 21  1  0  0  0
 21 22  1  0  0  0
 21 23  2  0  0  0
  3  6  1  0  0  0
  6  7  1  0  0  0
  7  8  2  0  0  0
  8  9  1  0  0  0
  9 10  2  0  0  0
 10 11  1  0  0  0
 11 12  2  0  0  0
 12 13  1  0  0  0
 13 14  2  0  0  0
 11 15  1  0  0  0
 15 16  2  0  0  0
 16 17  1  0  0  0
 17 18  2  0  0  0
 18 19  1  0  0  0
 19 20  2  0  0  0
 28 29  1  0  0  0
 29 30  2  0  0  0
 30 31  1  0  0  0
 31 32  2  0  0  0
 32 33  1  0  0  0
 33 34  2  0  0  0
 34 35  1  0  0  0
 35 36  1  0  0  0
 35 37  1  0  0  0
 35 38  1  0  0  0
  5  1  2  0  0  0
 14  6  1  0  0  0
 20 15  1  0  0  0
 34 29  1  0  0  0
 14  9  1  0  0  0
 22 24  1  0  0  0
 22 25  1  0  0  0
M  END
> <minimizedAffinity>
-9.30926

> <CNNscore>
0.5983201861

> <CNNaffinity>
7.7953214645

> <CNN_VS>
4.6640982628

> <CNNaffinity_variance>
0.2916466296

$$$$
[H]c1nc(-c2c([H])c([H])c3c(nc([H])n3-c3sc(C(=O)N([H])[H])c(O[C@@]([H])(c4c([H])c([H])c([H])c([H])c4C(F)(F)F)C([H])([H])[H])c3[H])c2[H])c([H])c([H])c1[H]


 38 42  0  0  0  0  0  0  0  0999 V2000
   57.5766   -4.8894  -10.9589 C   0  0  0  0  0  0  0  0  0  0  0  0
   56.3313   -4.3924  -10.8958 C   0  0  0  0  0  0  0  0  0  0  0  0
   55.7276   -4.3434   -9.6614 C   0  0  0  0  0  0  0  0  0  0  0  0
   56.9325   -4.9985   -8.6340 S   0  0  0  0  0  0  0  0  0  0  0  0
   58.1417   -5.3079   -9.7811 C   0  0  0  0  0  0  0  0  0  0  0  0
   54.4203   -3.8610   -9.3367 N   0  0  0  0  0  0  0  0  0  0  0  0
   53.6706   -3.0400  -10.0449 C   0  0  0  0  0  0  0  0  0  0  0  0
   52.4856   -2.8135   -9.4066 N   0  0  0  0  0  0  0  0  0  0  0  0
   52.4976   -3.5212   -8.2557 C   0  0  0  0  0  0  0  0  0  0  0  0
   51.5692   -3.6547   -7.2442 C   0  0  0  0  0  0  0  0  0  0  0  0
   51.8469   -4.4599   -6.1587 C   0  0  0  0  0  0  0  0  0  0  0  0
   53.0599   -5.1024   -6.1385 C   0  0  0  0  0  0  0  0  0  0  0  0
   53.9960   -4.9739   -7.1483 C   0  0  0  0  0  0  0  0  0  0  0  0
   53.7369   -4.1789   -8.2327 C   0  0  0  0  0  0  0  0  0  0  0  0
   50.8645   -4.6007   -5.0904 C   0  0  0  0  0  0  0  0  0  0  0  0
   49.6577   -3.9666   -5.0876 C   0  0  0  0  0  0  0  0  0  0  0  0
   48.7879   -4.1679   -4.0189 C   0  0  0  0  0  0  0  0  0  0  0  0
   49.1524   -5.0028   -2.9780 C   0  0  0  0  0  0  0  0  0  0  0  0
   50.3698   -5.6321   -2.9978 C   0  0  0  0  0  0  0  0  0  0  0  0
   51.1693   -5.4051   -4.0477 N   0  0  0  0  0  0  0  0  0  0  0  0
   59.4770   -5.8912   -9.5502 C   0  0  0  0  0  0  0  0  0  0  0  0
   59.9103   -6.2912   -8.2771 N   0  0  0  0  0  0  0  0  0  0  0  0
   60.2306   -6.0220  -10.5495 O   0  0  0  0  0  0  0  0  0  0  0  0
   60.3963   -7.2067   -8.1502 H   0  0  0  0  0  0  0  0  0  0  0  0
   59.7691   -5.7119   -7.4421 H   0  0  0  0  0  0  0  0  0  0  0  0
   58.3102   -4.9941  -12.1694 O   0  0  0  0  0  0  0  0  0  0  0  0
   58.8482   -2.6551  -12.0472 C   0  0  0  0  0  0  0  0  0  0  0  0
   58.7945   -3.9439  -12.9225 C   0  0  0  0  0  0  0  0  0  0  0  0
   58.1936   -3.6580  -14.2150 C   0  0  0  0  0  0  0  0  0  0  0  0
   56.8210   -3.7809  -14.3286 C   0  0  0  0  0  0  0  0  0  0  0  0
   56.1181   -3.5385  -15.4876 C   0  0  0  0  0  0  0  0  0  0  0  0
   56.8008   -3.1473  -16.6206 C   0  0  0  0  0  0  0  0  0  0  0  0
   58.1593   -3.0293  -16.4961 C   0  0  0  0  0  0  0  0  0  0  0  0
   58.8771   -3.2686  -15.3428 C   0  0  0  0  0  0  0  0  0  0  0  0
   60.3144   -3.1208  -15.3455 C   0  0  0  0  0  0  0  0  0  0  0  0
   60.7858   -2.0467  -14.5735 F   0  0  0  0  0  0  0  0  0  0  0  0
   60.6590   -2.6381  -16.6447 F   0  0  0  0  0  0  0  0  0  0  0  0
   61.0747   -4.2364  -15.2786 F   0  0  0  0  0  0  0  0  0  0  0  0
 27 28  1  0  0  0
 28 26  1  0  0  0
 26  1  1  0  0  0
  1  2  1  0  0  0
  2  3  2  0  0  0
  3  4  1  0  0  0
  4  5  1  0  0  0
  5 21  1  0  0  0
 21 22  1  0  0  0
 21 23  2  0  0  0
  3  6  1  0  0  0
  6  7  1  0  0  0
  7  8  2  0  0  0
  8  9  1  0  0  0
  9 10  2  0  0  0
 10 11  1  0  0  0
 11 12  2  0  0  0
 12 13  1  0  0  0
 13 14  2  0  0  0
 11 15  1  0  0  0
 15 16  2  0  0  0
 16 17  1  0  0  0
 17 18  2  0  0  0
 18 19  1  0  0  0
 19 20  2  0  0  0
 28 29  1  0  0  0
 29 30  2  0  0  0
 30 31  1  0  0  0
 31 32  2  0  0  0
 32 33  1  0  0  0
 33 34  2  0  0  0
 34 35  1  0  0  0
 35 36  1  0  0  0
 35 37  1  0  0  0
 35 38  1  0  0  0
  5  1  2  0  0  0
 14  6  1  0  0  0
 20 15  1  0  0  0
 34 29  1  0  0  0
 14  9  1  0  0  0
 22 24  1  0  0  0
 22 25  1  0  0  0
M  END
> <minimizedAffinity>
-8.39302

> <CNNscore>
0.5361121297

> <CNNaffinity>
7.1208410263

> <CNN_VS>
3.8175692558

> <CNNaffinity_variance>
0.1484261006

$$$$
[H]c1nc(-c2c([H])c([H])c3c(nc([H])n3-c3sc(C(=O)N([H])[H])c(O[C@@]([H])(c4c([H])c([H])c([H])c([H])c4C(F)(F)F)C([H])([H])[H])c3[H])c2[H])c([H])c([H])c1[H]


 38 42  0  0  0  0  0  0  0  0999 V2000
   52.8496   -4.0198   -7.5048 C   0  0  0  0  0  0  0  0  0  0  0  0
   53.9911   -4.4077   -8.0951 C   0  0  0  0  0  0  0  0  0  0  0  0
   54.2732   -3.8895   -9.3371 C   0  0  0  0  0  0  0  0  0  0  0  0
   52.9230   -2.8759   -9.6303 S   0  0  0  0  0  0  0  0  0  0  0  0
   52.0594   -3.1363   -8.1950 C   0  0  0  0  0  0  0  0  0  0  0  0
   55.4147   -4.1442  -10.1612 N   0  0  0  0  0  0  0  0  0  0  0  0
   55.5343   -3.9220  -11.4550 C   0  0  0  0  0  0  0  0  0  0  0  0
   56.7752   -4.2936  -11.8852 N   0  0  0  0  0  0  0  0  0  0  0  0
   57.4553   -4.7658  -10.8174 C   0  0  0  0  0  0  0  0  0  0  0  0
   58.7334   -5.2677  -10.6851 C   0  0  0  0  0  0  0  0  0  0  0  0
   59.1816   -5.6889   -9.4500 C   0  0  0  0  0  0  0  0  0  0  0  0
   58.3145   -5.5853   -8.3907 C   0  0  0  0  0  0  0  0  0  0  0  0
   57.0318   -5.0835   -8.5149 C   0  0  0  0  0  0  0  0  0  0  0  0
   56.5708   -4.6612   -9.7331 C   0  0  0  0  0  0  0  0  0  0  0  0
   60.5329   -6.2186   -9.3112 C   0  0  0  0  0  0  0  0  0  0  0  0
   61.1026   -6.5263   -8.1115 C   0  0  0  0  0  0  0  0  0  0  0  0
   62.4012   -7.0284   -8.0859 C   0  0  0  0  0  0  0  0  0  0  0  0
   63.0964   -7.2094   -9.2680 C   0  0  0  0  0  0  0  0  0  0  0  0
   62.5076   -6.8947  -10.4649 C   0  0  0  0  0  0  0  0  0  0  0  0
   61.2577   -6.4153  -10.4352 N   0  0  0  0  0  0  0  0  0  0  0  0
   50.7660   -2.5465   -7.8002 C   0  0  0  0  0  0  0  0  0  0  0  0
   49.6377   -3.3324   -7.5213 N   0  0  0  0  0  0  0  0  0  0  0  0
   50.7040   -1.2921   -7.7194 O   0  0  0  0  0  0  0  0  0  0  0  0
   49.0489   -3.1291   -6.6831 H   0  0  0  0  0  0  0  0  0  0  0  0
   49.3553   -4.1184   -8.1173 H   0  0  0  0  0  0  0  0  0  0  0  0
   52.4425   -4.4792   -6.2251 O   0  0  0  0  0  0  0  0  0  0  0  0
   51.3584   -6.5755   -6.6786 C   0  0  0  0  0  0  0  0  0  0  0  0
   52.3902   -5.7942   -5.8097 C   0  0  0  0  0  0  0  0  0  0  0  0
   52.1955   -6.0882   -4.3993 C   0  0  0  0  0  0  0  0  0  0  0  0
   53.1951   -6.7815   -3.7419 C   0  0  0  0  0  0  0  0  0  0  0  0
   53.1479   -7.1242   -2.4091 C   0  0  0  0  0  0  0  0  0  0  0  0
   52.0467   -6.7660   -1.6596 C   0  0  0  0  0  0  0  0  0  0  0  0
   51.0634   -6.0801   -2.3214 C   0  0  0  0  0  0  0  0  0  0  0  0
   51.0962   -5.7300   -3.6550 C   0  0  0  0  0  0  0  0  0  0  0  0
   49.9847   -5.0155   -4.2395 C   0  0  0  0  0  0  0  0  0  0  0  0
   50.2344   -3.6544   -4.4781 F   0  0  0  0  0  0  0  0  0  0  0  0
   49.0076   -4.8916   -3.2052 F   0  0  0  0  0  0  0  0  0  0  0  0
   49.2606   -5.6303   -5.2012 F   0  0  0  0  0  0  0  0  0  0  0  0
 27 28  1  0  0  0
 28 26  1  0  0  0
 26  1  1  0  0  0
  1  2  1  0  0  0
  2  3  2  0  0  0
  3  4  1  0  0  0
  4  5  1  0  0  0
  5 21  1  0  0  0
 21 22  1  0  0  0
 21 23  2  0  0  0
  3  6  1  0  0  0
  6  7  1  0  0  0
  7  8  2  0  0  0
  8  9  1  0  0  0
  9 10  2  0  0  0
 10 11  1  0  0  0
 11 12  2  0  0  0
 12 13  1  0  0  0
 13 14  2  0  0  0
 11 15  1  0  0  0
 15 16  2  0  0  0
 16 17  1  0  0  0
 17 18  2  0  0  0
 18 19  1  0  0  0
 19 20  2  0  0  0
 28 29  1  0  0  0
 29 30  2  0  0  0
 30 31  1  0  0  0
 31 32  2  0  0  0
 32 33  1  0  0  0
 33 34  2  0  0  0
 34 35  1  0  0  0
 35 36  1  0  0  0
 35 37  1  0  0  0
 35 38  1  0  0  0
  5  1  2  0  0  0
 14  6  1  0  0  0
 20 15  1  0  0  0
 34 29  1  0  0  0
 14  9  1  0  0  0
 22 24  1  0  0  0
 22 25  1  0  0  0
M  END
> <minimizedAffinity>
-9.52607

> <CNNscore>
0.5289012790

> <CNNaffinity>
7.5361633301

> <CNN_VS>
3.9858863354

> <CNNaffinity_variance>
0.1841897368

$$$$
[H]c1nc(-c2c([H])c([H])c3c(nc([H])n3-c3sc(C(=O)N([H])[H])c(O[C@@]([H])(c4c([H])c([H])c([H])c([H])c4C(F)(F)F)C([H])([H])[H])c3[H])c2[H])c([H])c([H])c1[H]


 38 42  0  0  0  0  0  0  0  0999 V2000
   53.3450   -4.3663   -7.0357 C   0  0  0  0  0  0  0  0  0  0  0  0
   54.4839   -4.6488   -7.6877 C   0  0  0  0  0  0  0  0  0  0  0  0
   54.5995   -4.2105   -8.9858 C   0  0  0  0  0  0  0  0  0  0  0  0
   53.1025   -3.4172   -9.2431 S   0  0  0  0  0  0  0  0  0  0  0  0
   52.3905   -3.6618   -7.7243 C   0  0  0  0  0  0  0  0  0  0  0  0
   55.7027   -4.3824   -9.8805 N   0  0  0  0  0  0  0  0  0  0  0  0
   55.7440   -4.0941  -11.1661 C   0  0  0  0  0  0  0  0  0  0  0  0
   56.9718   -4.3978  -11.6789 N   0  0  0  0  0  0  0  0  0  0  0  0
   57.7250   -4.8950  -10.6733 C   0  0  0  0  0  0  0  0  0  0  0  0
   59.0251   -5.3544  -10.6336 C   0  0  0  0  0  0  0  0  0  0  0  0
   59.5542   -5.8173   -9.4463 C   0  0  0  0  0  0  0  0  0  0  0  0
   58.7429   -5.7972   -8.3391 C   0  0  0  0  0  0  0  0  0  0  0  0
   57.4386   -5.3384   -8.3704 C   0  0  0  0  0  0  0  0  0  0  0  0
   56.8976   -4.8756   -9.5402 C   0  0  0  0  0  0  0  0  0  0  0  0
   60.9286   -6.3022   -9.4055 C   0  0  0  0  0  0  0  0  0  0  0  0
   61.5902   -6.5964   -8.2504 C   0  0  0  0  0  0  0  0  0  0  0  0
   62.9034   -7.0548   -8.3185 C   0  0  0  0  0  0  0  0  0  0  0  0
   63.5204   -7.2067   -9.5472 C   0  0  0  0  0  0  0  0  0  0  0  0
   62.8396   -6.9060  -10.6982 C   0  0  0  0  0  0  0  0  0  0  0  0
   61.5796   -6.4690  -10.5784 N   0  0  0  0  0  0  0  0  0  0  0  0
   51.0590   -3.2178   -7.2695 C   0  0  0  0  0  0  0  0  0  0  0  0
   50.5349   -1.9592   -7.6006 N   0  0  0  0  0  0  0  0  0  0  0  0
   50.3941   -4.0182   -6.5616 O   0  0  0  0  0  0  0  0  0  0  0  0
   49.5451   -1.8690   -7.9209 H   0  0  0  0  0  0  0  0  0  0  0  0
   51.0922   -1.0997   -7.5416 H   0  0  0  0  0  0  0  0  0  0  0  0
   53.1004   -4.7600   -5.6943 O   0  0  0  0  0  0  0  0  0  0  0  0
   52.4846   -6.6209   -4.3039 C   0  0  0  0  0  0  0  0  0  0  0  0
   53.6212   -5.8712   -5.0629 C   0  0  0  0  0  0  0  0  0  0  0  0
   54.7913   -5.7241   -4.2129 C   0  0  0  0  0  0  0  0  0  0  0  0
   55.2793   -4.4473   -4.0039 C   0  0  0  0  0  0  0  0  0  0  0  0
   56.3746   -4.1587   -3.2209 C   0  0  0  0  0  0  0  0  0  0  0  0
   57.0455   -5.1884   -2.5945 C   0  0  0  0  0  0  0  0  0  0  0  0
   56.5533   -6.4481   -2.8090 C   0  0  0  0  0  0  0  0  0  0  0  0
   55.4581   -6.7528   -3.5901 C   0  0  0  0  0  0  0  0  0  0  0  0
   55.0464   -8.1288   -3.7476 C   0  0  0  0  0  0  0  0  0  0  0  0
   53.9869   -8.5140   -2.9104 F   0  0  0  0  0  0  0  0  0  0  0  0
   56.0891   -8.9205   -3.1769 F   0  0  0  0  0  0  0  0  0  0  0  0
   54.9908   -8.6434   -4.9963 F   0  0  0  0  0  0  0  0  0  0  0  0
 27 28  1  0  0  0
 28 26  1  0  0  0
 26  1  1  0  0  0
  1  2  1  0  0  0
  2  3  2  0  0  0
  3  4  1  0  0  0
  4  5  1  0  0  0
  5 21  1  0  0  0
 21 22  1  0  0  0
 21 23  2  0  0  0
  3  6  1  0  0  0
  6  7  1  0  0  0
  7  8  2  0  0  0
  8  9  1  0  0  0
  9 10  2  0  0  0
 10 11  1  0  0  0
 11 12  2  0  0  0
 12 13  1  0  0  0
 13 14  2  0  0  0
 11 15  1  0  0  0
 15 16  2  0  0  0
 16 17  1  0  0  0
 17 18  2  0  0  0
 18 19  1  0  0  0
 19 20  2  0  0  0
 28 29  1  0  0  0
 29 30  2  0  0  0
 30 31  1  0  0  0
 31 32  2  0  0  0
 32 33  1  0  0  0
 33 34  2  0  0  0
 34 35  1  0  0  0
 35 36  1  0  0  0
 35 37  1  0  0  0
 35 38  1  0  0  0
  5  1  2  0  0  0
 14  6  1  0  0  0
 20 15  1  0  0  0
 34 29  1  0  0  0
 14  9  1  0  0  0
 22 24  1  0  0  0
 22 25  1  0  0  0
M  END
> <minimizedAffinity>
-8.23405

> <CNNscore>
0.4600026309

> <CNNaffinity>
7.6028265953

> <CNN_VS>
3.4973201752

> <CNNaffinity_variance>
0.1898445189

$$$$
[H]c1nc(-c2c([H])c([H])c3c(nc([H])n3-c3sc(C(=O)N([H])[H])c(O[C@@]([H])(c4c([H])c([H])c([H])c([H])c4C(F)(F)F)C([H])([H])[H])c3[H])c2[H])c([H])c([H])c1[H]


 38 42  0  0  0  0  0  0  0  0999 V2000
   57.6712   -4.8944  -11.0211 C   0  0  0  0  0  0  0  0  0  0  0  0
   56.4137   -4.4547  -10.8561 C   0  0  0  0  0  0  0  0  0  0  0  0
   55.8842   -4.5022   -9.5880 C   0  0  0  0  0  0  0  0  0  0  0  0
   57.1734   -5.1639   -8.6734 S   0  0  0  0  0  0  0  0  0  0  0  0
   58.3221   -5.3557   -9.9052 C   0  0  0  0  0  0  0  0  0  0  0  0
   54.5813   -4.0946   -9.1598 N   0  0  0  0  0  0  0  0  0  0  0  0
   53.7461   -3.2917   -9.7884 C   0  0  0  0  0  0  0  0  0  0  0  0
   52.5989   -3.1426   -9.0640 N   0  0  0  0  0  0  0  0  0  0  0  0
   52.7245   -3.8818   -7.9399 C   0  0  0  0  0  0  0  0  0  0  0  0
   51.8761   -4.0902   -6.8724 C   0  0  0  0  0  0  0  0  0  0  0  0
   52.2665   -4.9117   -5.8348 C   0  0  0  0  0  0  0  0  0  0  0  0
   53.5071   -5.4937   -5.9180 C   0  0  0  0  0  0  0  0  0  0  0  0
   54.3635   -5.2899   -6.9845 C   0  0  0  0  0  0  0  0  0  0  0  0
   53.9922   -4.4777   -8.0225 C   0  0  0  0  0  0  0  0  0  0  0  0
   51.3686   -5.1317   -4.7072 C   0  0  0  0  0  0  0  0  0  0  0  0
   50.1256   -4.5797   -4.6145 C   0  0  0  0  0  0  0  0  0  0  0  0
   49.3437   -4.8527   -3.4949 C   0  0  0  0  0  0  0  0  0  0  0  0
   49.8307   -5.6748   -2.4947 C   0  0  0  0  0  0  0  0  0  0  0  0
   51.0829   -6.2211   -2.6050 C   0  0  0  0  0  0  0  0  0  0  0  0
   51.7943   -5.9276   -3.7009 N   0  0  0  0  0  0  0  0  0  0  0  0
   59.6905   -5.8947   -9.7875 C   0  0  0  0  0  0  0  0  0  0  0  0
   60.1581   -6.5027   -8.6127 N   0  0  0  0  0  0  0  0  0  0  0  0
   60.4404   -5.7907  -10.7927 O   0  0  0  0  0  0  0  0  0  0  0  0
   60.6963   -7.3963   -8.6610 H   0  0  0  0  0  0  0  0  0  0  0  0
   59.9927   -6.1008   -7.6832 H   0  0  0  0  0  0  0  0  0  0  0  0
   58.3338   -4.8984  -12.2762 O   0  0  0  0  0  0  0  0  0  0  0  0
   58.7870   -2.5539  -12.0047 C   0  0  0  0  0  0  0  0  0  0  0  0
   59.0540   -3.8548  -12.8211 C   0  0  0  0  0  0  0  0  0  0  0  0
   58.9567   -3.5908  -14.2473 C   0  0  0  0  0  0  0  0  0  0  0  0
   60.1224   -3.2897  -14.9276 C   0  0  0  0  0  0  0  0  0  0  0  0
   60.1808   -3.0225  -16.2772 C   0  0  0  0  0  0  0  0  0  0  0  0
   59.0193   -3.0501  -17.0207 C   0  0  0  0  0  0  0  0  0  0  0  0
   57.8715   -3.3492  -16.3363 C   0  0  0  0  0  0  0  0  0  0  0  0
   57.7970   -3.6188  -14.9857 C   0  0  0  0  0  0  0  0  0  0  0  0
   56.5182   -3.9080  -14.3785 C   0  0  0  0  0  0  0  0  0  0  0  0
   56.3081   -5.2671  -14.0944 F   0  0  0  0  0  0  0  0  0  0  0  0
   55.5443   -3.7359  -15.4089 F   0  0  0  0  0  0  0  0  0  0  0  0
   56.0469   -3.0587  -13.4385 F   0  0  0  0  0  0  0  0  0  0  0  0
 27 28  1  0  0  0
 28 26  1  0  0  0
 26  1  1  0  0  0
  1  2  1  0  0  0
  2  3  2  0  0  0
  3  4  1  0  0  0
  4  5  1  0  0  0
  5 21  1  0  0  0
 21 22  1  0  0  0
 21 23  2  0  0  0
  3  6  1  0  0  0
  6  7  1  0  0  0
  7  8  2  0  0  0
  8  9  1  0  0  0
  9 10  2  0  0  0
 10 11  1  0  0  0
 11 12  2  0  0  0
 12 13  1  0  0  0
 13 14  2  0  0  0
 11 15  1  0  0  0
 15 16  2  0  0  0
 16 17  1  0  0  0
 17 18  2  0  0  0
 18 19  1  0  0  0
 19 20  2  0  0  0
 28 29  1  0  0  0
 29 30  2  0  0  0
 30 31  1  0  0  0
 31 32  2  0  0  0
 32 33  1  0  0  0
 33 34  2  0  0  0
 34 35  1  0  0  0
 35 36  1  0  0  0
 35 37  1  0  0  0
 35 38  1  0  0  0
  5  1  2  0  0  0
 14  6  1  0  0  0
 20 15  1  0  0  0
 34 29  1  0  0  0
 14  9  1  0  0  0
 22 24  1  0  0  0
 22 25  1  0  0  0
M  END
> <minimizedAffinity>
-8.35467

> <CNNscore>
0.4318183959

> <CNNaffinity>
7.1162667274

> <CNN_VS>
3.0729348660

> <CNNaffinity_variance>
0.2279962003

$$$$
[H]c1nc(-c2c([H])c([H])c3c(nc([H])n3-c3sc(C(=O)N([H])[H])c(O[C@@]([H])(c4c([H])c([H])c([H])c([H])c4C(F)(F)F)C([H])([H])[H])c3[H])c2[H])c([H])c([H])c1[H]


 38 42  0  0  0  0  0  0  0  0999 V2000
   53.0166   -4.2609   -7.1902 C   0  0  0  0  0  0  0  0  0  0  0  0
   54.2456   -4.7405   -7.4384 C   0  0  0  0  0  0  0  0  0  0  0  0
   54.8820   -4.3021   -8.5756 C   0  0  0  0  0  0  0  0  0  0  0  0
   53.7295   -3.2315   -9.2552 S   0  0  0  0  0  0  0  0  0  0  0  0
   52.4995   -3.3710   -8.0970 C   0  0  0  0  0  0  0  0  0  0  0  0
   56.1821   -4.6607   -9.0534 N   0  0  0  0  0  0  0  0  0  0  0  0
   57.0919   -5.3853   -8.4330 C   0  0  0  0  0  0  0  0  0  0  0  0
   58.2062   -5.5112   -9.2110 N   0  0  0  0  0  0  0  0  0  0  0  0
   57.9818   -4.8385  -10.3612 C   0  0  0  0  0  0  0  0  0  0  0  0
   58.7612   -4.6403  -11.4820 C   0  0  0  0  0  0  0  0  0  0  0  0
   58.2730   -3.8942  -12.5350 C   0  0  0  0  0  0  0  0  0  0  0  0
   57.0082   -3.3747  -12.4126 C   0  0  0  0  0  0  0  0  0  0  0  0
   56.2205   -3.5688  -11.2926 C   0  0  0  0  0  0  0  0  0  0  0  0
   56.6893   -4.3064  -10.2384 C   0  0  0  0  0  0  0  0  0  0  0  0
   59.0975   -3.6858  -13.7194 C   0  0  0  0  0  0  0  0  0  0  0  0
   60.4597   -3.6391  -13.6910 C   0  0  0  0  0  0  0  0  0  0  0  0
   61.1566   -3.4357  -14.8794 C   0  0  0  0  0  0  0  0  0  0  0  0
   60.4667   -3.2842  -16.0687 C   0  0  0  0  0  0  0  0  0  0  0  0
   59.0971   -3.3341  -16.0782 C   0  0  0  0  0  0  0  0  0  0  0  0
   58.4746   -3.5317  -14.9092 N   0  0  0  0  0  0  0  0  0  0  0  0
   51.1899   -2.6915   -8.0846 C   0  0  0  0  0  0  0  0  0  0  0  0
   49.9923   -3.3767   -7.8303 N   0  0  0  0  0  0  0  0  0  0  0  0
   51.1794   -1.4541   -8.3135 O   0  0  0  0  0  0  0  0  0  0  0  0
   49.2825   -2.9722   -7.1799 H   0  0  0  0  0  0  0  0  0  0  0  0
   49.7741   -4.2804   -8.2644 H   0  0  0  0  0  0  0  0  0  0  0  0
   52.2538   -4.6319   -6.0523 O   0  0  0  0  0  0  0  0  0  0  0  0
   50.7257   -6.4790   -6.2209 C   0  0  0  0  0  0  0  0  0  0  0  0
   52.0397   -5.9174   -5.5981 C   0  0  0  0  0  0  0  0  0  0  0  0
   52.0817   -6.1841   -4.1697 C   0  0  0  0  0  0  0  0  0  0  0  0
   50.9181   -6.0001   -3.4456 C   0  0  0  0  0  0  0  0  0  0  0  0
   50.8104   -6.2179   -2.0902 C   0  0  0  0  0  0  0  0  0  0  0  0
   51.9166   -6.6466   -1.3864 C   0  0  0  0  0  0  0  0  0  0  0  0
   53.0629   -6.8251   -2.1139 C   0  0  0  0  0  0  0  0  0  0  0  0
   53.1863   -6.6111   -3.4709 C   0  0  0  0  0  0  0  0  0  0  0  0
   54.4592   -6.8236   -4.1206 C   0  0  0  0  0  0  0  0  0  0  0  0
   55.4691   -7.3013   -3.2699 F   0  0  0  0  0  0  0  0  0  0  0  0
   54.9849   -5.5240   -4.3934 F   0  0  0  0  0  0  0  0  0  0  0  0
   54.4655   -7.3656   -5.3589 F   0  0  0  0  0  0  0  0  0  0  0  0
 27 28  1  0  0  0
 28 26  1  0  0  0
 26  1  1  0  0  0
  1  2  1  0  0  0
  2  3  2  0  0  0
  3  4  1  0  0  0
  4  5  1  0  0  0
  5 21  1  0  0  0
 21 22  1  0  0  0
 21 23  2  0  0  0
  3  6  1  0  0  0
  6  7  1  0  0  0
  7  8  2  0  0  0
  8  9  1  0  0  0
  9 10  2  0  0  0
 10 11  1  0  0  0
 11 12  2  0  0  0
 12 13  1  0  0  0
 13 14  2  0  0  0
 11 15  1  0  0  0
 15 16  2  0  0  0
 16 17  1  0  0  0
 17 18  2  0  0  0
 18 19  1  0  0  0
 19 20  2  0  0  0
 28 29  1  0  0  0
 29 30  2  0  0  0
 30 31  1  0  0  0
 31 32  2  0  0  0
 32 33  1  0  0  0
 33 34  2  0  0  0
 34 35  1  0  0  0
 35 36  1  0  0  0
 35 37  1  0  0  0
 35 38  1  0  0  0
  5  1  2  0  0  0
 14  6  1  0  0  0
 20 15  1  0  0  0
 34 29  1  0  0  0
 14  9  1  0  0  0
 22 24  1  0  0  0
 22 25  1  0  0  0
M  END
> <minimizedAffinity>
-9.03783

> <CNNscore>
0.4010033906

> <CNNaffinity>
7.3152208328

> <CNN_VS>
2.9334282875

> <CNNaffinity_variance>
0.1496701390

$$$$
[H]c1nc(-c2c([H])c([H])c3c(nc([H])n3-c3sc(C(=O)N([H])[H])c(O[C@@]([H])(c4c([H])c([H])c([H])c([H])c4C(F)(F)F)C([H])([H])[H])c3[H])c2[H])c([H])c([H])c1[H]


 38 42  0  0  0  0  0  0  0  0999 V2000
   54.5832   -4.8984   -6.5612 C   0  0  0  0  0  0  0  0  0  0  0  0
   55.2718   -4.7340   -7.7017 C   0  0  0  0  0  0  0  0  0  0  0  0
   56.5320   -5.2798   -7.7684 C   0  0  0  0  0  0  0  0  0  0  0  0
   56.7036   -6.0041   -6.2249 S   0  0  0  0  0  0  0  0  0  0  0  0
   55.1994   -5.5996   -5.5561 C   0  0  0  0  0  0  0  0  0  0  0  0
   57.4531   -5.2428   -8.8626 N   0  0  0  0  0  0  0  0  0  0  0  0
   58.7210   -5.6034   -8.8550 C   0  0  0  0  0  0  0  0  0  0  0  0
   59.2704   -5.4237  -10.0914 N   0  0  0  0  0  0  0  0  0  0  0  0
   58.3070   -4.9317  -10.9010 C   0  0  0  0  0  0  0  0  0  0  0  0
   58.3147   -4.5724  -12.2328 C   0  0  0  0  0  0  0  0  0  0  0  0
   57.1643   -4.0872  -12.8202 C   0  0  0  0  0  0  0  0  0  0  0  0
   56.0443   -3.9840  -12.0329 C   0  0  0  0  0  0  0  0  0  0  0  0
   56.0282   -4.3420  -10.6972 C   0  0  0  0  0  0  0  0  0  0  0  0
   57.1609   -4.8251  -10.0984 C   0  0  0  0  0  0  0  0  0  0  0  0
   57.1736   -3.7082  -14.2280 C   0  0  0  0  0  0  0  0  0  0  0  0
   56.0549   -3.6717  -15.0064 C   0  0  0  0  0  0  0  0  0  0  0  0
   56.1696   -3.2949  -16.3421 C   0  0  0  0  0  0  0  0  0  0  0  0
   57.4072   -2.9634  -16.8636 C   0  0  0  0  0  0  0  0  0  0  0  0
   58.5210   -3.0057  -16.0661 C   0  0  0  0  0  0  0  0  0  0  0  0
   58.3572   -3.3744  -14.7893 N   0  0  0  0  0  0  0  0  0  0  0  0
   54.6917   -5.9293   -4.2106 C   0  0  0  0  0  0  0  0  0  0  0  0
   54.8477   -5.0635   -3.1176 N   0  0  0  0  0  0  0  0  0  0  0  0
   54.1026   -7.0324   -4.0701 O   0  0  0  0  0  0  0  0  0  0  0  0
   54.0465   -4.8792   -2.4737 H   0  0  0  0  0  0  0  0  0  0  0  0
   55.7350   -4.5900   -2.9147 H   0  0  0  0  0  0  0  0  0  0  0  0
   53.2743   -4.3862   -6.3640 O   0  0  0  0  0  0  0  0  0  0  0  0
   51.8263   -6.1228   -7.1783 C   0  0  0  0  0  0  0  0  0  0  0  0
   52.1536   -5.1194   -6.0310 C   0  0  0  0  0  0  0  0  0  0  0  0
   50.9504   -4.4256   -5.6016 C   0  0  0  0  0  0  0  0  0  0  0  0
   50.3726   -3.5316   -6.4843 C   0  0  0  0  0  0  0  0  0  0  0  0
   49.2320   -2.8090   -6.2142 C   0  0  0  0  0  0  0  0  0  0  0  0
   48.6066   -2.9675   -4.9950 C   0  0  0  0  0  0  0  0  0  0  0  0
   49.1879   -3.8550   -4.1293 C   0  0  0  0  0  0  0  0  0  0  0  0
   50.3295   -4.5855   -4.3852 C   0  0  0  0  0  0  0  0  0  0  0  0
   50.8514   -5.4820   -3.3794 C   0  0  0  0  0  0  0  0  0  0  0  0
   51.0051   -6.8089   -3.8122 F   0  0  0  0  0  0  0  0  0  0  0  0
   49.7979   -5.6699   -2.4335 F   0  0  0  0  0  0  0  0  0  0  0  0
   51.8406   -5.0364   -2.5732 F   0  0  0  0  0  0  0  0  0  0  0  0
 27 28  1  0  0  0
 28 26  1  0  0  0
 26  1  1  0  0  0
  1  2  1  0  0  0
  2  3  2  0  0  0
  3  4  1  0  0  0
  4  5  1  0  0  0
  5 21  1  0  0  0
 21 22  1  0  0  0
 21 23  2  0  0  0
  3  6  1  0  0  0
  6  7  1  0  0  0
  7  8  2  0  0  0
  8  9  1  0  0  0
  9 10  2  0  0  0
 10 11  1  0  0  0
 11 12  2  0  0  0
 12 13  1  0  0  0
 13 14  2  0  0  0
 11 15  1  0  0  0
 15 16  2  0  0  0
 16 17  1  0  0  0
 17 18  2  0  0  0
 18 19  1  0  0  0
 19 20  2  0  0  0
 28 29  1  0  0  0
 29 30  2  0  0  0
 30 31  1  0  0  0
 31 32  2  0  0  0
 32 33  1  0  0  0
 33 34  2  0  0  0
 34 35  1  0  0  0
 35 36  1  0  0  0
 35 37  1  0  0  0
 35 38  1  0  0  0
  5  1  2  0  0  0
 14  6  1  0  0  0
 20 15  1  0  0  0
 34 29  1  0  0  0
 14  9  1  0  0  0
 22 24  1  0  0  0
 22 25  1  0  0  0
M  END
> <minimizedAffinity>
-10.95645

> <CNNscore>
0.3317383528

> <CNNaffinity>
6.9887504578

> <CNN_VS>
2.3184366226

> <CNNaffinity_variance>
0.3749087453

$$$$
[H]c1nc(-c2c([H])c([H])c3c(nc([H])n3-c3sc(C(=O)N([H])[H])c(O[C@@]([H])(c4c([H])c([H])c([H])c([H])c4C(F)(F)F)C([H])([H])[H])c3[H])c2[H])c([H])c([H])c1[H]


 38 42  0  0  0  0  0  0  0  0999 V2000
   54.4309   -5.0195   -6.5553 C   0  0  0  0  0  0  0  0  0  0  0  0
   55.1262   -4.8640   -7.6930 C   0  0  0  0  0  0  0  0  0  0  0  0
   56.4262   -5.3113   -7.7103 C   0  0  0  0  0  0  0  0  0  0  0  0
   56.6244   -5.9339   -6.1262 S   0  0  0  0  0  0  0  0  0  0  0  0
   55.0806   -5.6135   -5.5034 C   0  0  0  0  0  0  0  0  0  0  0  0
   57.3624   -5.2617   -8.7912 N   0  0  0  0  0  0  0  0  0  0  0  0
   58.6342   -5.6075   -8.7660 C   0  0  0  0  0  0  0  0  0  0  0  0
   59.1990   -5.4194   -9.9942 N   0  0  0  0  0  0  0  0  0  0  0  0
   58.2415   -4.9374  -10.8167 C   0  0  0  0  0  0  0  0  0  0  0  0
   58.2640   -4.5758  -12.1477 C   0  0  0  0  0  0  0  0  0  0  0  0
   57.1165   -4.1032  -12.7508 C   0  0  0  0  0  0  0  0  0  0  0  0
   55.9843   -4.0144  -11.9795 C   0  0  0  0  0  0  0  0  0  0  0  0
   55.9534   -4.3747  -10.6447 C   0  0  0  0  0  0  0  0  0  0  0  0
   57.0830   -4.8455  -10.0304 C   0  0  0  0  0  0  0  0  0  0  0  0
   57.1415   -3.7218  -14.1578 C   0  0  0  0  0  0  0  0  0  0  0  0
   56.0334   -3.6957  -14.9516 C   0  0  0  0  0  0  0  0  0  0  0  0
   56.1628   -3.3155  -16.2851 C   0  0  0  0  0  0  0  0  0  0  0  0
   57.4040   -2.9704  -16.7888 C   0  0  0  0  0  0  0  0  0  0  0  0
   58.5070   -3.0024  -15.9759 C   0  0  0  0  0  0  0  0  0  0  0  0
   58.3292   -3.3748  -14.7020 N   0  0  0  0  0  0  0  0  0  0  0  0
   54.5746   -5.9079   -4.1491 C   0  0  0  0  0  0  0  0  0  0  0  0
   54.7393   -5.0175   -3.0774 N   0  0  0  0  0  0  0  0  0  0  0  0
   53.9788   -7.0035   -3.9809 O   0  0  0  0  0  0  0  0  0  0  0  0
   53.9411   -4.8128   -2.4359 H   0  0  0  0  0  0  0  0  0  0  0  0
   55.6302   -4.5451   -2.8881 H   0  0  0  0  0  0  0  0  0  0  0  0
   53.0824   -4.6023   -6.4066 O   0  0  0  0  0  0  0  0  0  0  0  0
   51.5116   -6.1693   -7.3297 C   0  0  0  0  0  0  0  0  0  0  0  0
   52.0133   -5.4059   -6.0665 C   0  0  0  0  0  0  0  0  0  0  0  0
   50.8932   -4.8310   -5.3397 C   0  0  0  0  0  0  0  0  0  0  0  0
   50.5903   -5.3609   -4.0989 C   0  0  0  0  0  0  0  0  0  0  0  0
   49.5623   -4.9138   -3.2993 C   0  0  0  0  0  0  0  0  0  0  0  0
   48.7697   -3.8740   -3.7389 C   0  0  0  0  0  0  0  0  0  0  0  0
   49.0791   -3.3576   -4.9689 C   0  0  0  0  0  0  0  0  0  0  0  0
   50.1047   -3.7945   -5.7810 C   0  0  0  0  0  0  0  0  0  0  0  0
   50.3196   -3.1725   -7.0673 C   0  0  0  0  0  0  0  0  0  0  0  0
   51.6321   -2.7200   -7.2779 F   0  0  0  0  0  0  0  0  0  0  0  0
   49.6485   -1.9130   -7.0136 F   0  0  0  0  0  0  0  0  0  0  0  0
   49.7355   -3.7258   -8.1535 F   0  0  0  0  0  0  0  0  0  0  0  0
 27 28  1  0  0  0
 28 26  1  0  0  0
 26  1  1  0  0  0
  1  2  1  0  0  0
  2  3  2  0  0  0
  3  4  1  0  0  0
  4  5  1  0  0  0
  5 21  1  0  0  0
 21 22  1  0  0  0
 21 23  2  0  0  0
  3  6  1  0  0  0
  6  7  1  0  0  0
  7  8  2  0  0  0
  8  9  1  0  0  0
  9 10  2  0  0  0
 10 11  1  0  0  0
 11 12  2  0  0  0
 12 13  1  0  0  0
 13 14  2  0  0  0
 11 15  1  0  0  0
 15 16  2  0  0  0
 16 17  1  0  0  0
 17 18  2  0  0  0
 18 19  1  0  0  0
 19 20  2  0  0  0
 28 29  1  0  0  0
 29 30  2  0  0  0
 30 31  1  0  0  0
 31 32  2  0  0  0
 32 33  1  0  0  0
 33 34  2  0  0  0
 34 35  1  0  0  0
 35 36  1  0  0  0
 35 37  1  0  0  0
 35 38  1  0  0  0
  5  1  2  0  0  0
 14  6  1  0  0  0
 20 15  1  0  0  0
 34 29  1  0  0  0
 14  9  1  0  0  0
 22 24  1  0  0  0
 22 25  1  0  0  0
M  END
> <minimizedAffinity>
-11.25860

> <CNNscore>
0.3232460916

> <CNNaffinity>
6.9012513161

> <CNN_VS>
2.2308025360

> <CNNaffinity_variance>
0.7582422495

$$$$
[H]c1nc(-c2c([H])c([H])c3c(nc([H])n3-c3sc(C(=O)N([H])[H])c(O[C@@]([H])(c4c([H])c([H])c([H])c([H])c4C(F)(F)F)C([H])([H])[H])c3[H])c2[H])c([H])c([H])c1[H]


 38 42  0  0  0  0  0  0  0  0999 V2000
   54.0518   -5.6269   -6.1700 C   0  0  0  0  0  0  0  0  0  0  0  0
   53.9381   -5.0796   -7.3904 C   0  0  0  0  0  0  0  0  0  0  0  0
   55.0921   -4.8937   -8.1145 C   0  0  0  0  0  0  0  0  0  0  0  0
   56.2957   -5.4947   -7.0530 S   0  0  0  0  0  0  0  0  0  0  0  0
   55.3154   -5.9545   -5.7486 C   0  0  0  0  0  0  0  0  0  0  0  0
   55.2318   -4.3375   -9.4253 N   0  0  0  0  0  0  0  0  0  0  0  0
   54.3074   -3.7258  -10.1386 C   0  0  0  0  0  0  0  0  0  0  0  0
   54.8212   -3.3336  -11.3407 N   0  0  0  0  0  0  0  0  0  0  0  0
   56.1166   -3.7160  -11.3777 C   0  0  0  0  0  0  0  0  0  0  0  0
   57.0934   -3.5763  -12.3416 C   0  0  0  0  0  0  0  0  0  0  0  0
   58.3605   -4.0723  -12.1127 C   0  0  0  0  0  0  0  0  0  0  0  0
   58.5914   -4.6939  -10.9106 C   0  0  0  0  0  0  0  0  0  0  0  0
   57.6178   -4.8381   -9.9391 C   0  0  0  0  0  0  0  0  0  0  0  0
   56.3551   -4.3520  -10.1498 C   0  0  0  0  0  0  0  0  0  0  0  0
   59.3922   -3.9235  -13.1321 C   0  0  0  0  0  0  0  0  0  0  0  0
   60.7085   -4.2077  -12.9196 C   0  0  0  0  0  0  0  0  0  0  0  0
   61.6171   -4.0327  -13.9604 C   0  0  0  0  0  0  0  0  0  0  0  0
   61.1801   -3.5760  -15.1908 C   0  0  0  0  0  0  0  0  0  0  0  0
   59.8529   -3.2955  -15.3862 C   0  0  0  0  0  0  0  0  0  0  0  0
   59.0204   -3.4803  -14.3538 N   0  0  0  0  0  0  0  0  0  0  0  0
   55.7382   -6.5592   -4.4709 C   0  0  0  0  0  0  0  0  0  0  0  0
   54.8223   -6.9058   -3.4663 N   0  0  0  0  0  0  0  0  0  0  0  0
   56.9697   -6.7589   -4.3062 O   0  0  0  0  0  0  0  0  0  0  0  0
   54.8995   -7.8258   -2.9784 H   0  0  0  0  0  0  0  0  0  0  0  0
   54.0596   -6.2820   -3.1798 H   0  0  0  0  0  0  0  0  0  0  0  0
   52.9400   -5.8725   -5.3227 O   0  0  0  0  0  0  0  0  0  0  0  0
   51.5721   -6.6079   -7.1567 C   0  0  0  0  0  0  0  0  0  0  0  0
   51.6251   -6.0035   -5.7207 C   0  0  0  0  0  0  0  0  0  0  0  0
   50.7319   -4.8615   -5.6148 C   0  0  0  0  0  0  0  0  0  0  0  0
   50.5535   -4.0767   -6.7393 C   0  0  0  0  0  0  0  0  0  0  0  0
   49.7362   -2.9695   -6.7855 C   0  0  0  0  0  0  0  0  0  0  0  0
   49.0404   -2.5976   -5.6540 C   0  0  0  0  0  0  0  0  0  0  0  0
   49.2251   -3.3820   -4.5469 C   0  0  0  0  0  0  0  0  0  0  0  0
   50.0399   -4.4932   -4.4851 C   0  0  0  0  0  0  0  0  0  0  0  0
   50.1595   -5.2306   -3.2483 C   0  0  0  0  0  0  0  0  0  0  0  0
   49.0187   -5.1768   -2.4313 F   0  0  0  0  0  0  0  0  0  0  0  0
   51.0626   -4.4854   -2.4304 F   0  0  0  0  0  0  0  0  0  0  0  0
   50.7745   -6.4340   -3.2751 F   0  0  0  0  0  0  0  0  0  0  0  0
 27 28  1  0  0  0
 28 26  1  0  0  0
 26  1  1  0  0  0
  1  2  1  0  0  0
  2  3  2  0  0  0
  3  4  1  0  0  0
  4  5  1  0  0  0
  5 21  1  0  0  0
 21 22  1  0  0  0
 21 23  2  0  0  0
  3  6  1  0  0  0
  6  7  1  0  0  0
  7  8  2  0  0  0
  8  9  1  0  0  0
  9 10  2  0  0  0
 10 11  1  0  0  0
 11 12  2  0  0  0
 12 13  1  0  0  0
 13 14  2  0  0  0
 11 15  1  0  0  0
 15 16  2  0  0  0
 16 17  1  0  0  0
 17 18  2  0  0  0
 18 19  1  0  0  0
 19 20  2  0  0  0
 28 29  1  0  0  0
 29 30  2  0  0  0
 30 31  1  0  0  0
 31 32  2  0  0  0
 32 33  1  0  0  0
 33 34  2  0  0  0
 34 35  1  0  0  0
 35 36  1  0  0  0
 35 37  1  0  0  0
 35 38  1  0  0  0
  5  1  2  0  0  0
 14  6  1  0  0  0
 20 15  1  0  0  0
 34 29  1  0  0  0
 14  9  1  0  0  0
 22 24  1  0  0  0
 22 25  1  0  0  0
M  END
> <minimizedAffinity>
-9.37661

> <CNNscore>
0.3003454208

> <CNNaffinity>
7.2139763832

> <CNN_VS>
2.1666848660

> <CNNaffinity_variance>
0.2704328597

$$$$
[H]OC([H])([H])[C@@]1([H])C(=O)N([H])[C@@]([H])([C@]([H])(OP(=O)(O[H])O[H])C([H])([H])[H])C(=O)N([H])C([H])([H])C([H])([H])C([H])([H])C([H])([H])C([H])([H])C([H])([H])[n+]2c([H])c(n(C([H])([H])C([H])([H])C([H])([H])C([H])([H])C([H])([H])C([H])([H])C([H])([H])C([H])([H])c3c([H])c([H])c([H])c([H])c3[H])c2[H])C([H])([H])[C@]([H])(N([H])C(=O)[C@@]([H])(N([H])C(=O)[C@@]2([H])N(C(=O)C([H])([H])[H])C([H])([H])C([H])([H])C2([H])[H])C([H])([H])C([H])(C([H])([H])[H])C([H])([H])[H])C(=O)N1[H]


 74 77  0  0  0  0  0  0  0  0999 V2000
   61.6467   -8.5715   -7.1817 C   0  0  0  0  0  0  0  0  0  0  0  0
   62.0686   -7.2430   -7.7404 C   0  0  0  0  0  0  0  0  0  0  0  0
   62.1886   -7.1573   -9.2267 C   0  0  0  0  0  0  0  0  0  0  0  0
   63.0975   -7.7421  -10.0770 C   0  0  0  0  0  0  0  0  0  0  0  0
   62.8045   -7.3052  -11.3112 N   0  0  0  0  0  0  0  0  0  0  0  0
   63.4668   -7.5655  -12.5964 C   0  0  0  0  0  0  0  0  0  0  0  0
   63.4781   -8.9639  -13.0863 C   0  0  0  0  0  0  0  0  0  0  0  0
   64.7063   -9.2801  -13.9156 C   0  0  0  0  0  0  0  0  0  0  0  0
   64.4496  -10.3903  -14.9018 C   0  0  0  0  0  0  0  0  0  0  0  0
   64.5188  -11.7520  -14.2321 C   0  0  0  0  0  0  0  0  0  0  0  0
   65.9119  -12.1660  -13.9208 C   0  0  0  0  0  0  0  0  0  0  0  0
   66.3145  -12.0598  -12.5539 N   0  0  0  0  0  0  0  0  0  0  0  0
   65.6219  -12.0517  -11.3510 C   0  0  0  0  0  0  0  0  0  0  0  0
   65.6136  -10.8838  -10.7122 O   0  0  0  0  0  0  0  0  0  0  0  0
   64.8847  -13.0889  -10.6216 C   0  0  0  0  0  0  0  0  0  0  0  0
   63.4468  -12.8997  -10.5665 N   0  0  0  0  0  0  0  0  0  0  0  0
   62.6242  -12.7167   -9.4623 C   0  0  0  0  0  0  0  0  0  0  0  0
   61.6216  -13.5132   -9.3162 O   0  0  0  0  0  0  0  0  0  0  0  0
   62.7207  -11.6950   -8.3644 C   0  0  0  0  0  0  0  0  0  0  0  0
   61.4998  -10.9177   -8.3231 N   0  0  0  0  0  0  0  0  0  0  0  0
   61.2200   -9.5915   -8.1290 C   0  0  0  0  0  0  0  0  0  0  0  0
   60.3516   -9.1042   -9.0081 O   0  0  0  0  0  0  0  0  0  0  0  0
   61.7194   -6.4555  -11.2450 C   0  0  0  0  0  0  0  0  0  0  0  0
   61.3376   -6.3606   -9.9727 N   0  0  0  0  0  0  0  0  0  0  0  0
   67.3941  -11.9427  -12.4451 H   0  0  0  0  0  0  0  0  0  0  0  0
   62.9931  -12.9244  -11.5398 H   0  0  0  0  0  0  0  0  0  0  0  0
   60.6234  -11.5489   -8.4846 H   0  0  0  0  0  0  0  0  0  0  0  0
   62.2116   -9.0431   -4.7798 C   0  0  0  0  0  0  0  0  0  0  0  0
   60.9933   -8.7134   -4.5399 O   0  0  0  0  0  0  0  0  0  0  0  0
   62.5779   -8.9971   -6.1423 N   0  0  0  0  0  0  0  0  0  0  0  0
   63.5351   -9.2748   -6.4220 H   0  0  0  0  0  0  0  0  0  0  0  0
   63.0971   -9.4252   -3.6365 C   0  0  0  0  0  0  0  0  0  0  0  0
   62.9147  -10.8280   -3.4270 N   0  0  0  0  0  0  0  0  0  0  0  0
   62.7475  -11.4193   -2.1342 C   0  0  0  0  0  0  0  0  0  0  0  0
   62.7590  -10.7365   -1.0783 O   0  0  0  0  0  0  0  0  0  0  0  0
   62.8939  -11.4614   -4.2468 H   0  0  0  0  0  0  0  0  0  0  0  0
   62.5396  -12.8715   -1.9803 C   0  0  0  0  0  0  0  0  0  0  0  0
   62.2126  -13.6205   -3.2189 C   0  0  0  0  0  0  0  0  0  0  0  0
   60.7633  -14.0650   -3.0328 C   0  0  0  0  0  0  0  0  0  0  0  0
   60.2954  -13.2772   -1.8100 C   0  0  0  0  0  0  0  0  0  0  0  0
   61.5238  -13.2440   -1.0282 N   0  0  0  0  0  0  0  0  0  0  0  0
   61.6637  -13.5374    0.3345 C   0  0  0  0  0  0  0  0  0  0  0  0
   60.4824  -13.8682    1.1564 C   0  0  0  0  0  0  0  0  0  0  0  0
   62.7823  -13.5362    0.9273 O   0  0  0  0  0  0  0  0  0  0  0  0
   64.4865   -9.0106   -3.7894 C   0  0  0  0  0  0  0  0  0  0  0  0
   66.0016   -9.4905   -1.8104 C   0  0  0  0  0  0  0  0  0  0  0  0
   65.2317   -8.4930   -2.6321 C   0  0  0  0  0  0  0  0  0  0  0  0
   64.3836   -7.6310   -1.7073 C   0  0  0  0  0  0  0  0  0  0  0  0
   62.8093  -12.5633   -7.0899 C   0  0  0  0  0  0  0  0  0  0  0  0
   61.5975  -12.8707   -6.5536 O   0  0  0  0  0  0  0  0  0  0  0  0
   61.5823  -13.7708   -6.1846 H   0  0  0  0  0  0  0  0  0  0  0  0
   65.2440  -14.4842  -11.0403 C   0  0  0  0  0  0  0  0  0  0  0  0
   66.3077  -15.0431  -10.0288 C   0  0  0  0  0  0  0  0  0  0  0  0
   64.2082  -15.3967  -10.9188 O   0  0  0  0  0  0  0  0  0  0  0  0
   63.6105  -15.9235  -12.4102 P   0  0  0  0  0  0  0  0  0  0  0  0
   62.2721  -16.9132  -12.2833 O   0  0  0  0  0  0  0  0  0  0  0  0
   64.8919  -16.7477  -13.1873 O   0  0  0  0  0  0  0  0  0  0  0  0
   63.3610  -14.6934  -13.2803 O   0  0  0  0  0  0  0  0  0  0  0  0
   62.5966  -17.8421  -12.0805 H   0  0  0  0  0  0  0  0  0  0  0  0
   64.6976  -17.6839  -13.3580 H   0  0  0  0  0  0  0  0  0  0  0  0
   60.2196   -5.5382   -9.4761 C   0  0  0  0  0  0  0  0  0  0  0  0
   58.8949   -6.0665   -9.9380 C   0  0  0  0  0  0  0  0  0  0  0  0
   57.8213   -5.1923   -9.3589 C   0  0  0  0  0  0  0  0  0  0  0  0
   57.7734   -5.1286   -7.8757 C   0  0  0  0  0  0  0  0  0  0  0  0
   56.4316   -4.8790   -7.2659 C   0  0  0  0  0  0  0  0  0  0  0  0
   55.3307   -4.7770   -8.2966 C   0  0  0  0  0  0  0  0  0  0  0  0
   54.2690   -3.8073   -7.9198 C   0  0  0  0  0  0  0  0  0  0  0  0
   52.9049   -4.0752   -8.4602 C   0  0  0  0  0  0  0  0  0  0  0  0
   51.7908   -3.7985   -7.5534 C   0  0  0  0  0  0  0  0  0  0  0  0
   51.4173   -4.6076   -6.5263 C   0  0  0  0  0  0  0  0  0  0  0  0
   50.3564   -4.3053   -5.6745 C   0  0  0  0  0  0  0  0  0  0  0  0
   49.6420   -3.1500   -5.8575 C   0  0  0  0  0  0  0  0  0  0  0  0
   49.9950   -2.3050   -6.8924 C   0  0  0  0  0  0  0  0  0  0  0  0
   51.0482   -2.6296   -7.7191 C   0  0  0  0  0  0  0  0  0  0  0  0
 46 47  1  0  0  0
 47 48  1  0  0  0
 47 45  1  0  0  0
 45 32  1  0  0  0
 32 33  1  0  0  0
 33 34  1  0  0  0
 34 35  2  0  0  0
 34 37  1  0  0  0
 37 38  1  0  0  0
 38 39  1  0  0  0
 39 40  1  0  0  0
 40 41  1  0  0  0
 41 42  1  0  0  0
 42 43  1  0  0  0
 42 44  2  0  0  0
 32 28  1  0  0  0
 28 29  2  0  0  0
 28 30  1  0  0  0
 30  1  1  0  0  0
  1  2  1  0  0  0
  2  3  1  0  0  0
  3  4  2  0  0  0
  4  5  1  0  0  0
  5  6  1  0  0  0
  6  7  1  0  0  0
  7  8  1  0  0  0
  8  9  1  0  0  0
  9 10  1  0  0  0
 10 11  1  0  0  0
 11 12  1  0  0  0
 12 13  1  0  0  0
 13 14  2  0  0  0
 13 15  1  0  0  0
 15 16  1  0  0  0
 16 17  1  0  0  0
 17 18  2  0  0  0
 17 19  1  0  0  0
 19 49  1  0  0  0
 49 50  1  0  0  0
 19 20  1  0  0  0
 20 21  1  0  0  0
 21 22  2  0  0  0
 15 52  1  0  0  0
 52 53  1  0  0  0
 52 54  1  0  0  0
 54 55  1  0  0  0
 55 56  1  0  0  0
 55 57  1  0  0  0
 55 58  2  0  0  0
  5 23  2  0  0  0
 23 24  1  0  0  0
 24 61  1  0  0  0
 61 62  1  0  0  0
 62 63  1  0  0  0
 63 64  1  0  0  0
 64 65  1  0  0  0
 65 66  1  0  0  0
 66 67  1  0  0  0
 67 68  1  0  0  0
 68 69  1  0  0  0
 69 70  2  0  0  0
 70 71  1  0  0  0
 71 72  2  0  0  0
 72 73  1  0  0  0
 73 74  2  0  0  0
 41 37  1  0  0  0
 21  1  1  0  0  0
 74 69  1  0  0  0
 24  3  1  0  0  0
 33 36  1  0  0  0
 30 31  1  0  0  0
 12 25  1  0  0  0
 16 26  1  0  0  0
 50 51  1  0  0  0
 20 27  1  0  0  0
 56 59  1  0  0  0
 57 60  1  0  0  0
M  CHG 1   5   1
M  END
> <minimizedAffinity>
-5.49339

> <CNNscore>
0.3780230880

> <CNNaffinity>
6.8647279739

> <CNN_VS>
2.5950257778

> <CNNaffinity_variance>
1.7180755138

$$$$
[H]OC([H])([H])[C@@]1([H])C(=O)N([H])[C@@]([H])([C@]([H])(OP(=O)(O[H])O[H])C([H])([H])[H])C(=O)N([H])C([H])([H])C([H])([H])C([H])([H])C([H])([H])C([H])([H])C([H])([H])[n+]2c([H])c(n(C([H])([H])C([H])([H])C([H])([H])C([H])([H])C([H])([H])C([H])([H])C([H])([H])C([H])([H])c3c([H])c([H])c([H])c([H])c3[H])c2[H])C([H])([H])[C@]([H])(N([H])C(=O)[C@@]([H])(N([H])C(=O)[C@@]2([H])N(C(=O)C([H])([H])[H])C([H])([H])C([H])([H])C2([H])[H])C([H])([H])C([H])(C([H])([H])[H])C([H])([H])[H])C(=O)N1[H]


 74 77  0  0  0  0  0  0  0  0999 V2000
   61.6633   -8.8820   -7.2820 C   0  0  0  0  0  0  0  0  0  0  0  0
   62.1444   -7.5492   -7.7794 C   0  0  0  0  0  0  0  0  0  0  0  0
   62.2992   -7.4105   -9.2584 C   0  0  0  0  0  0  0  0  0  0  0  0
   63.2045   -7.9950  -10.1128 C   0  0  0  0  0  0  0  0  0  0  0  0
   62.9538   -7.5002  -11.3344 N   0  0  0  0  0  0  0  0  0  0  0  0
   63.6336   -7.7348  -12.6154 C   0  0  0  0  0  0  0  0  0  0  0  0
   63.6053   -9.1126  -13.1598 C   0  0  0  0  0  0  0  0  0  0  0  0
   64.8388   -9.4414  -13.9762 C   0  0  0  0  0  0  0  0  0  0  0  0
   64.5635  -10.5024  -15.0104 C   0  0  0  0  0  0  0  0  0  0  0  0
   64.5694  -11.8906  -14.3936 C   0  0  0  0  0  0  0  0  0  0  0  0
   65.9398  -12.3672  -14.0712 C   0  0  0  0  0  0  0  0  0  0  0  0
   66.3166  -12.3288  -12.6933 N   0  0  0  0  0  0  0  0  0  0  0  0
   65.5992  -12.3418  -11.5051 C   0  0  0  0  0  0  0  0  0  0  0  0
   65.6191  -11.2000  -10.8211 O   0  0  0  0  0  0  0  0  0  0  0  0
   64.8098  -13.3787  -10.8320 C   0  0  0  0  0  0  0  0  0  0  0  0
   63.3788  -13.1392  -10.7982 N   0  0  0  0  0  0  0  0  0  0  0  0
   62.5399  -12.9689   -9.7043 C   0  0  0  0  0  0  0  0  0  0  0  0
   61.5064  -13.7332   -9.6098 O   0  0  0  0  0  0  0  0  0  0  0  0
   62.6495  -11.9947   -8.5653 C   0  0  0  0  0  0  0  0  0  0  0  0
   61.4566  -11.1752   -8.5177 N   0  0  0  0  0  0  0  0  0  0  0  0
   61.2205   -9.8482   -8.2771 C   0  0  0  0  0  0  0  0  0  0  0  0
   60.3892   -9.2957   -9.1534 O   0  0  0  0  0  0  0  0  0  0  0  0
   61.8987   -6.6145  -11.2564 C   0  0  0  0  0  0  0  0  0  0  0  0
   61.4935   -6.5549   -9.9893 N   0  0  0  0  0  0  0  0  0  0  0  0
   67.3971  -12.2557  -12.5584 H   0  0  0  0  0  0  0  0  0  0  0  0
   62.9454  -13.1095  -11.7806 H   0  0  0  0  0  0  0  0  0  0  0  0
   60.5619  -11.7671   -8.7215 H   0  0  0  0  0  0  0  0  0  0  0  0
   62.2720   -9.2208   -4.8684 C   0  0  0  0  0  0  0  0  0  0  0  0
   61.1577   -8.6334   -4.6157 O   0  0  0  0  0  0  0  0  0  0  0  0
   62.5562   -9.3813   -6.2418 N   0  0  0  0  0  0  0  0  0  0  0  0
   63.4224   -9.8699   -6.5290 H   0  0  0  0  0  0  0  0  0  0  0  0
   63.1349   -9.6585   -3.7279 C   0  0  0  0  0  0  0  0  0  0  0  0
   62.3077   -9.6524   -2.5613 N   0  0  0  0  0  0  0  0  0  0  0  0
   62.2373   -8.5528   -1.6476 C   0  0  0  0  0  0  0  0  0  0  0  0
   62.9152   -7.5055   -1.8057 O   0  0  0  0  0  0  0  0  0  0  0  0
   61.7172  -10.4792   -2.3580 H   0  0  0  0  0  0  0  0  0  0  0  0
   61.3475   -8.5932   -0.4719 C   0  0  0  0  0  0  0  0  0  0  0  0
   60.3481   -9.6898   -0.4452 C   0  0  0  0  0  0  0  0  0  0  0  0
   59.0002   -8.9910   -0.6117 C   0  0  0  0  0  0  0  0  0  0  0  0
   59.3768   -7.5641   -1.0079 C   0  0  0  0  0  0  0  0  0  0  0  0
   60.5975   -7.3858   -0.2336 N   0  0  0  0  0  0  0  0  0  0  0  0
   60.9315   -6.2901    0.5728 C   0  0  0  0  0  0  0  0  0  0  0  0
   60.0344   -5.1203    0.6591 C   0  0  0  0  0  0  0  0  0  0  0  0
   61.9949   -6.2386    1.2578 O   0  0  0  0  0  0  0  0  0  0  0  0
   63.8465  -10.9097   -3.9598 C   0  0  0  0  0  0  0  0  0  0  0  0
   62.1079  -12.3226   -2.7669 C   0  0  0  0  0  0  0  0  0  0  0  0
   63.1330  -12.1917   -3.8600 C   0  0  0  0  0  0  0  0  0  0  0  0
   64.0633  -13.3961   -3.8206 C   0  0  0  0  0  0  0  0  0  0  0  0
   62.6796  -12.9143   -7.3245 C   0  0  0  0  0  0  0  0  0  0  0  0
   63.4496  -14.0240   -7.4861 O   0  0  0  0  0  0  0  0  0  0  0  0
   63.9169  -14.2633   -6.6671 H   0  0  0  0  0  0  0  0  0  0  0  0
   65.1277  -14.7690  -11.2982 C   0  0  0  0  0  0  0  0  0  0  0  0
   65.9916  -15.4736  -10.1918 C   0  0  0  0  0  0  0  0  0  0  0  0
   64.0240  -15.6018  -11.3905 O   0  0  0  0  0  0  0  0  0  0  0  0
   63.3346  -15.6200  -12.9345 P   0  0  0  0  0  0  0  0  0  0  0  0
   62.5775  -14.1904  -13.3465 O   0  0  0  0  0  0  0  0  0  0  0  0
   62.2183  -16.9156  -12.9566 O   0  0  0  0  0  0  0  0  0  0  0  0
   64.4177  -16.0287  -13.9306 O   0  0  0  0  0  0  0  0  0  0  0  0
   61.6618  -14.1988  -12.9329 H   0  0  0  0  0  0  0  0  0  0  0  0
   61.3029  -16.6301  -13.1107 H   0  0  0  0  0  0  0  0  0  0  0  0
   60.3954   -5.7119   -9.4830 C   0  0  0  0  0  0  0  0  0  0  0  0
   59.0596   -6.1935   -9.9639 C   0  0  0  0  0  0  0  0  0  0  0  0
   58.0139   -5.2504   -9.4451 C   0  0  0  0  0  0  0  0  0  0  0  0
   57.9353   -5.1264   -7.9670 C   0  0  0  0  0  0  0  0  0  0  0  0
   56.7306   -4.4278   -7.4236 C   0  0  0  0  0  0  0  0  0  0  0  0
   55.4908   -4.6686   -8.2540 C   0  0  0  0  0  0  0  0  0  0  0  0
   54.3237   -3.8662   -7.8030 C   0  0  0  0  0  0  0  0  0  0  0  0
   52.9842   -4.3214   -8.2757 C   0  0  0  0  0  0  0  0  0  0  0  0
   51.8394   -3.8780   -7.4802 C   0  0  0  0  0  0  0  0  0  0  0  0
   51.1077   -2.7623   -7.7426 C   0  0  0  0  0  0  0  0  0  0  0  0
   50.0147   -2.3770   -6.9685 C   0  0  0  0  0  0  0  0  0  0  0  0
   49.6397   -3.1364   -5.8909 C   0  0  0  0  0  0  0  0  0  0  0  0
   50.3620   -4.2770   -5.5959 C   0  0  0  0  0  0  0  0  0  0  0  0
   51.4384   -4.6335   -6.3785 C   0  0  0  0  0  0  0  0  0  0  0  0
 46 47  1  0  0  0
 47 48  1  0  0  0
 47 45  1  0  0  0
 45 32  1  0  0  0
 32 33  1  0  0  0
 33 34  1  0  0  0
 34 35  2  0  0  0
 34 37  1  0  0  0
 37 38  1  0  0  0
 38 39  1  0  0  0
 39 40  1  0  0  0
 40 41  1  0  0  0
 41 42  1  0  0  0
 42 43  1  0  0  0
 42 44  2  0  0  0
 32 28  1  0  0  0
 28 29  2  0  0  0
 28 30  1  0  0  0
 30  1  1  0  0  0
  1  2  1  0  0  0
  2  3  1  0  0  0
  3  4  2  0  0  0
  4  5  1  0  0  0
  5  6  1  0  0  0
  6  7  1  0  0  0
  7  8  1  0  0  0
  8  9  1  0  0  0
  9 10  1  0  0  0
 10 11  1  0  0  0
 11 12  1  0  0  0
 12 13  1  0  0  0
 13 14  2  0  0  0
 13 15  1  0  0  0
 15 16  1  0  0  0
 16 17  1  0  0  0
 17 18  2  0  0  0
 17 19  1  0  0  0
 19 49  1  0  0  0
 49 50  1  0  0  0
 19 20  1  0  0  0
 20 21  1  0  0  0
 21 22  2  0  0  0
 15 52  1  0  0  0
 52 53  1  0  0  0
 52 54  1  0  0  0
 54 55  1  0  0  0
 55 56  1  0  0  0
 55 57  1  0  0  0
 55 58  2  0  0  0
  5 23  2  0  0  0
 23 24  1  0  0  0
 24 61  1  0  0  0
 61 62  1  0  0  0
 62 63  1  0  0  0
 63 64  1  0  0  0
 64 65  1  0  0  0
 65 66  1  0  0  0
 66 67  1  0  0  0
 67 68  1  0  0  0
 68 69  1  0  0  0
 69 70  2  0  0  0
 70 71  1  0  0  0
 71 72  2  0  0  0
 72 73  1  0  0  0
 73 74  2  0  0  0
 41 37  1  0  0  0
 21  1  1  0  0  0
 74 69  1  0  0  0
 24  3  1  0  0  0
 33 36  1  0  0  0
 30 31  1  0  0  0
 12 25  1  0  0  0
 16 26  1  0  0  0
 50 51  1  0  0  0
 20 27  1  0  0  0
 56 59  1  0  0  0
 57 60  1  0  0  0
M  CHG 1   5   1
M  END
> <minimizedAffinity>
-6.06331

> <CNNscore>
0.3415282965

> <CNNaffinity>
6.8056440353

> <CNN_VS>
2.3243200779

> <CNNaffinity_variance>
1.0711119175

$$$$
[H]OC([H])([H])[C@@]1([H])C(=O)N([H])[C@@]([H])([C@]([H])(OP(=O)(O[H])O[H])C([H])([H])[H])C(=O)N([H])C([H])([H])C([H])([H])C([H])([H])C([H])([H])C([H])([H])C([H])([H])[n+]2c([H])c(n(C([H])([H])C([H])([H])C([H])([H])C([H])([H])C([H])([H])C([H])([H])C([H])([H])C([H])([H])c3c([H])c([H])c([H])c([H])c3[H])c2[H])C([H])([H])[C@]([H])(N([H])C(=O)[C@@]([H])(N([H])C(=O)[C@@]2([H])N(C(=O)C([H])([H])[H])C([H])([H])C([H])([H])C2([H])[H])C([H])([H])C([H])(C([H])([H])[H])C([H])([H])[H])C(=O)N1[H]


 74 77  0  0  0  0  0  0  0  0999 V2000
   61.7512   -6.8941  -10.0364 C   0  0  0  0  0  0  0  0  0  0  0  0
   61.5509   -8.3263   -9.6318 C   0  0  0  0  0  0  0  0  0  0  0  0
   62.5653   -9.3034  -10.1289 C   0  0  0  0  0  0  0  0  0  0  0  0
   62.8092   -9.7549  -11.4048 C   0  0  0  0  0  0  0  0  0  0  0  0
   63.7899  -10.6654  -11.3087 N   0  0  0  0  0  0  0  0  0  0  0  0
   64.4197  -11.5000  -12.3406 C   0  0  0  0  0  0  0  0  0  0  0  0
   65.1600  -10.8060  -13.4202 C   0  0  0  0  0  0  0  0  0  0  0  0
   65.1214  -11.5632  -14.7322 C   0  0  0  0  0  0  0  0  0  0  0  0
   66.3166  -11.2538  -15.5966 C   0  0  0  0  0  0  0  0  0  0  0  0
   66.1454   -9.9316  -16.3244 C   0  0  0  0  0  0  0  0  0  0  0  0
   65.1812  -10.0202  -17.4520 C   0  0  0  0  0  0  0  0  0  0  0  0
   63.8869   -9.4589  -17.2252 N   0  0  0  0  0  0  0  0  0  0  0  0
   63.4056   -8.4825  -16.3639 C   0  0  0  0  0  0  0  0  0  0  0  0
   62.6151   -8.9285  -15.3902 O   0  0  0  0  0  0  0  0  0  0  0  0
   63.5902   -7.0285  -16.3073 C   0  0  0  0  0  0  0  0  0  0  0  0
   64.3690   -6.5494  -15.1803 N   0  0  0  0  0  0  0  0  0  0  0  0
   63.9926   -5.7015  -14.1465 C   0  0  0  0  0  0  0  0  0  0  0  0
   64.7083   -4.6506  -13.9351 O   0  0  0  0  0  0  0  0  0  0  0  0
   62.8353   -5.8186  -13.1950 C   0  0  0  0  0  0  0  0  0  0  0  0
   63.3326   -5.8493  -11.8354 N   0  0  0  0  0  0  0  0  0  0  0  0
   62.9957   -6.5570  -10.7128 C   0  0  0  0  0  0  0  0  0  0  0  0
   64.0461   -7.0634  -10.0767 O   0  0  0  0  0  0  0  0  0  0  0  0
   64.1665  -10.7873   -9.9869 C   0  0  0  0  0  0  0  0  0  0  0  0
   63.4214   -9.9570   -9.2598 N   0  0  0  0  0  0  0  0  0  0  0  0
   63.1193   -9.9133  -17.8539 H   0  0  0  0  0  0  0  0  0  0  0  0
   65.3780   -6.9176  -15.1939 H   0  0  0  0  0  0  0  0  0  0  0  0
   64.1565   -5.1456  -11.6997 H   0  0  0  0  0  0  0  0  0  0  0  0
   59.5201   -5.7560   -9.8417 C   0  0  0  0  0  0  0  0  0  0  0  0
   59.7867   -5.6831   -8.5871 O   0  0  0  0  0  0  0  0  0  0  0  0
   60.5261   -6.3629  -10.6243 N   0  0  0  0  0  0  0  0  0  0  0  0
   60.3998   -6.4353  -11.6492 H   0  0  0  0  0  0  0  0  0  0  0  0
   58.2161   -5.2170  -10.3376 C   0  0  0  0  0  0  0  0  0  0  0  0
   57.5661   -4.6169   -9.2140 N   0  0  0  0  0  0  0  0  0  0  0  0
   56.1532   -4.3988   -9.1413 C   0  0  0  0  0  0  0  0  0  0  0  0
   55.3770   -4.7162  -10.0783 O   0  0  0  0  0  0  0  0  0  0  0  0
   58.1356   -4.3255   -8.3988 H   0  0  0  0  0  0  0  0  0  0  0  0
   55.5346   -3.7959   -7.9456 C   0  0  0  0  0  0  0  0  0  0  0  0
   56.4163   -3.6360   -6.7629 C   0  0  0  0  0  0  0  0  0  0  0  0
   55.8681   -4.6222   -5.7335 C   0  0  0  0  0  0  0  0  0  0  0  0
   54.8818   -5.4721   -6.5334 C   0  0  0  0  0  0  0  0  0  0  0  0
   54.3606   -4.4755   -7.4588 N   0  0  0  0  0  0  0  0  0  0  0  0
   53.0157   -4.2350   -7.7686 C   0  0  0  0  0  0  0  0  0  0  0  0
   51.9493   -5.0731   -7.1849 C   0  0  0  0  0  0  0  0  0  0  0  0
   52.6440   -3.3088   -8.5475 O   0  0  0  0  0  0  0  0  0  0  0  0
   58.3299   -4.3517  -11.5055 C   0  0  0  0  0  0  0  0  0  0  0  0
   56.5361   -5.5431  -12.8490 C   0  0  0  0  0  0  0  0  0  0  0  0
   57.2185   -4.2590  -12.4639 C   0  0  0  0  0  0  0  0  0  0  0  0
   57.5749   -3.4838  -13.7248 C   0  0  0  0  0  0  0  0  0  0  0  0
   62.0659   -4.4982  -13.4210 C   0  0  0  0  0  0  0  0  0  0  0  0
   61.2536   -4.5198  -14.5120 O   0  0  0  0  0  0  0  0  0  0  0  0
   60.4286   -4.0273  -14.3593 H   0  0  0  0  0  0  0  0  0  0  0  0
   64.0656   -6.4354  -17.6010 C   0  0  0  0  0  0  0  0  0  0  0  0
   63.0960   -6.9057  -18.7437 C   0  0  0  0  0  0  0  0  0  0  0  0
   63.9561   -5.0555  -17.6657 O   0  0  0  0  0  0  0  0  0  0  0  0
   65.3558   -4.3062  -18.2476 P   0  0  0  0  0  0  0  0  0  0  0  0
   66.0605   -3.2616  -17.1526 O   0  0  0  0  0  0  0  0  0  0  0  0
   64.9072   -3.4683  -19.6696 O   0  0  0  0  0  0  0  0  0  0  0  0
   66.3103   -5.3968  -18.7291 O   0  0  0  0  0  0  0  0  0  0  0  0
   65.5671   -2.3878  -17.2021 H   0  0  0  0  0  0  0  0  0  0  0  0
   65.0368   -2.5079  -19.6054 H   0  0  0  0  0  0  0  0  0  0  0  0
   63.5038   -9.7949   -7.7970 C   0  0  0  0  0  0  0  0  0  0  0  0
   63.9500  -11.0577   -7.1235 C   0  0  0  0  0  0  0  0  0  0  0  0
   63.1892  -11.1890   -5.8366 C   0  0  0  0  0  0  0  0  0  0  0  0
   62.1561  -12.2558   -5.8055 C   0  0  0  0  0  0  0  0  0  0  0  0
   62.6166  -13.6123   -5.3781 C   0  0  0  0  0  0  0  0  0  0  0  0
   62.9323  -14.5177   -6.5466 C   0  0  0  0  0  0  0  0  0  0  0  0
   62.0784  -14.2538   -7.7343 C   0  0  0  0  0  0  0  0  0  0  0  0
   62.0714  -15.3054   -8.7920 C   0  0  0  0  0  0  0  0  0  0  0  0
   61.9770  -14.8264  -10.1711 C   0  0  0  0  0  0  0  0  0  0  0  0
   61.1471  -13.8312  -10.5834 C   0  0  0  0  0  0  0  0  0  0  0  0
   61.0927  -13.3928  -11.9051 C   0  0  0  0  0  0  0  0  0  0  0  0
   61.8988  -13.9720  -12.8503 C   0  0  0  0  0  0  0  0  0  0  0  0
   62.7542  -14.9867  -12.4651 C   0  0  0  0  0  0  0  0  0  0  0  0
   62.7866  -15.4000  -11.1513 C   0  0  0  0  0  0  0  0  0  0  0  0
 46 47  1  0  0  0
 47 48  1  0  0  0
 47 45  1  0  0  0
 45 32  1  0  0  0
 32 33  1  0  0  0
 33 34  1  0  0  0
 34 35  2  0  0  0
 34 37  1  0  0  0
 37 38  1  0  0  0
 38 39  1  0  0  0
 39 40  1  0  0  0
 40 41  1  0  0  0
 41 42  1  0  0  0
 42 43  1  0  0  0
 42 44  2  0  0  0
 32 28  1  0  0  0
 28 29  2  0  0  0
 28 30  1  0  0  0
 30  1  1  0  0  0
  1  2  1  0  0  0
  2  3  1  0  0  0
  3  4  2  0  0  0
  4  5  1  0  0  0
  5  6  1  0  0  0
  6  7  1  0  0  0
  7  8  1  0  0  0
  8  9  1  0  0  0
  9 10  1  0  0  0
 10 11  1  0  0  0
 11 12  1  0  0  0
 12 13  1  0  0  0
 13 14  2  0  0  0
 13 15  1  0  0  0
 15 16  1  0  0  0
 16 17  1  0  0  0
 17 18  2  0  0  0
 17 19  1  0  0  0
 19 49  1  0  0  0
 49 50  1  0  0  0
 19 20  1  0  0  0
 20 21  1  0  0  0
 21 22  2  0  0  0
 15 52  1  0  0  0
 52 53  1  0  0  0
 52 54  1  0  0  0
 54 55  1  0  0  0
 55 56  1  0  0  0
 55 57  1  0  0  0
 55 58  2  0  0  0
  5 23  2  0  0  0
 23 24  1  0  0  0
 24 61  1  0  0  0
 61 62  1  0  0  0
 62 63  1  0  0  0
 63 64  1  0  0  0
 64 65  1  0  0  0
 65 66  1  0  0  0
 66 67  1  0  0  0
 67 68  1  0  0  0
 68 69  1  0  0  0
 69 70  2  0  0  0
 70 71  1  0  0  0
 71 72  2  0  0  0
 72 73  1  0  0  0
 73 74  2  0  0  0
 41 37  1  0  0  0
 21  1  1  0  0  0
 74 69  1  0  0  0
 24  3  1  0  0  0
 33 36  1  0  0  0
 30 31  1  0  0  0
 12 25  1  0  0  0
 16 26  1  0  0  0
 50 51  1  0  0  0
 20 27  1  0  0  0
 56 59  1  0  0  0
 57 60  1  0  0  0
M  CHG 1   5   1
M  END
> <minimizedAffinity>
-4.37570

> <CNNscore>
0.3350879848

> <CNNaffinity>
7.0078949928

> <CNN_VS>
2.3482613564

> <CNNaffinity_variance>
0.3833507597

$$$$
[H]OC([H])([H])[C@@]1([H])C(=O)N([H])[C@@]([H])([C@]([H])(OP(=O)(O[H])O[H])C([H])([H])[H])C(=O)N([H])C([H])([H])C([H])([H])C([H])([H])C([H])([H])C([H])([H])C([H])([H])[n+]2c([H])c(n(C([H])([H])C([H])([H])C([H])([H])C([H])([H])C([H])([H])C([H])([H])C([H])([H])C([H])([H])c3c([H])c([H])c([H])c([H])c3[H])c2[H])C([H])([H])[C@]([H])(N([H])C(=O)[C@@]([H])(N([H])C(=O)[C@@]2([H])N(C(=O)C([H])([H])[H])C([H])([H])C([H])([H])C2([H])[H])C([H])([H])C([H])(C([H])([H])[H])C([H])([H])[H])C(=O)N1[H]


 74 77  0  0  0  0  0  0  0  0999 V2000
   61.8923   -9.8102   -8.1528 C   0  0  0  0  0  0  0  0  0  0  0  0
   62.4546   -8.4177   -8.1542 C   0  0  0  0  0  0  0  0  0  0  0  0
   62.6161   -7.7697   -9.4901 C   0  0  0  0  0  0  0  0  0  0  0  0
   63.4825   -8.0620  -10.5173 C   0  0  0  0  0  0  0  0  0  0  0  0
   63.2617   -7.1504  -11.4767 N   0  0  0  0  0  0  0  0  0  0  0  0
   63.9243   -6.9514  -12.7725 C   0  0  0  0  0  0  0  0  0  0  0  0
   63.8100   -8.0402  -13.7709 C   0  0  0  0  0  0  0  0  0  0  0  0
   65.0199   -8.1266  -14.6791 C   0  0  0  0  0  0  0  0  0  0  0  0
   64.6782   -8.7312  -16.0166 C   0  0  0  0  0  0  0  0  0  0  0  0
   64.5988  -10.2460  -15.9347 C   0  0  0  0  0  0  0  0  0  0  0  0
   65.9373  -10.8842  -15.8348 C   0  0  0  0  0  0  0  0  0  0  0  0
   66.3173  -11.3616  -14.5426 N   0  0  0  0  0  0  0  0  0  0  0  0
   65.6018  -11.7562  -13.4206 C   0  0  0  0  0  0  0  0  0  0  0  0
   65.6931  -10.9367  -12.3756 O   0  0  0  0  0  0  0  0  0  0  0  0
   64.7503  -12.9178  -13.1426 C   0  0  0  0  0  0  0  0  0  0  0  0
   63.3369  -12.6242  -12.9928 N   0  0  0  0  0  0  0  0  0  0  0  0
   62.5114  -12.8073  -11.8908 C   0  0  0  0  0  0  0  0  0  0  0  0
   61.4326  -13.4943  -12.0507 O   0  0  0  0  0  0  0  0  0  0  0  0
   62.6823  -12.3116  -10.4825 C   0  0  0  0  0  0  0  0  0  0  0  0
   61.5426  -11.4959  -10.1188 N   0  0  0  0  0  0  0  0  0  0  0  0
   61.3895  -10.3307   -9.4162 C   0  0  0  0  0  0  0  0  0  0  0  0
   60.5930   -9.4551  -10.0190 O   0  0  0  0  0  0  0  0  0  0  0  0
   62.2636   -6.2917  -11.0641 C   0  0  0  0  0  0  0  0  0  0  0  0
   61.8642   -6.6648   -9.8497 N   0  0  0  0  0  0  0  0  0  0  0  0
   67.4004  -11.4037  -14.4155 H   0  0  0  0  0  0  0  0  0  0  0  0
   62.9052  -12.2212  -13.8900 H   0  0  0  0  0  0  0  0  0  0  0  0
   60.6127  -11.9236  -10.4991 H   0  0  0  0  0  0  0  0  0  0  0  0
   62.2318  -11.7061   -6.5401 C   0  0  0  0  0  0  0  0  0  0  0  0
   60.9501  -11.7948   -6.5405 O   0  0  0  0  0  0  0  0  0  0  0  0
   62.7536  -10.6982   -7.3794 N   0  0  0  0  0  0  0  0  0  0  0  0
   63.7791  -10.5799   -7.4564 H   0  0  0  0  0  0  0  0  0  0  0  0
   63.0221  -12.6394   -5.6791 C   0  0  0  0  0  0  0  0  0  0  0  0
   62.7841  -12.2489   -4.3242 N   0  0  0  0  0  0  0  0  0  0  0  0
   63.0542  -10.9366   -3.8203 C   0  0  0  0  0  0  0  0  0  0  0  0
   63.5351  -10.0269   -4.5432 O   0  0  0  0  0  0  0  0  0  0  0  0
   62.3888  -12.9412   -3.6622 H   0  0  0  0  0  0  0  0  0  0  0  0
   62.7665  -10.5835   -2.4173 C   0  0  0  0  0  0  0  0  0  0  0  0
   62.5490  -11.7199   -1.4881 C   0  0  0  0  0  0  0  0  0  0  0  0
   61.0697  -11.6399   -1.1163 C   0  0  0  0  0  0  0  0  0  0  0  0
   60.5017  -10.6194   -2.1016 C   0  0  0  0  0  0  0  0  0  0  0  0
   61.6341   -9.7123   -2.2282 N   0  0  0  0  0  0  0  0  0  0  0  0
   61.6060   -8.3136   -2.1536 C   0  0  0  0  0  0  0  0  0  0  0  0
   60.3259   -7.5962   -1.9890 C   0  0  0  0  0  0  0  0  0  0  0  0
   62.6493   -7.5998   -2.2212 O   0  0  0  0  0  0  0  0  0  0  0  0
   62.7873  -14.0521   -5.9530 C   0  0  0  0  0  0  0  0  0  0  0  0
   64.0987  -15.9140   -7.0734 C   0  0  0  0  0  0  0  0  0  0  0  0
   63.9016  -15.0095   -5.8877 C   0  0  0  0  0  0  0  0  0  0  0  0
   63.9027  -15.8450   -4.6151 C   0  0  0  0  0  0  0  0  0  0  0  0
   62.6567  -13.6134   -9.6513 C   0  0  0  0  0  0  0  0  0  0  0  0
   61.4477  -13.8762   -9.0857 O   0  0  0  0  0  0  0  0  0  0  0  0
   61.2499  -14.8287   -9.0793 H   0  0  0  0  0  0  0  0  0  0  0  0
   64.9809  -14.0661  -14.0804 C   0  0  0  0  0  0  0  0  0  0  0  0
   66.3167  -14.7803  -13.6648 C   0  0  0  0  0  0  0  0  0  0  0  0
   64.0495  -15.0859  -13.9672 O   0  0  0  0  0  0  0  0  0  0  0  0
   62.9991  -15.1741  -15.2893 P   0  0  0  0  0  0  0  0  0  0  0  0
   63.2161  -13.9466  -16.3998 O   0  0  0  0  0  0  0  0  0  0  0  0
   61.4109  -15.1335  -14.6560 O   0  0  0  0  0  0  0  0  0  0  0  0
   63.1316  -16.5650  -15.9059 O   0  0  0  0  0  0  0  0  0  0  0  0
   62.7275  -13.1370  -16.0603 H   0  0  0  0  0  0  0  0  0  0  0  0
   60.8991  -14.3638  -14.9541 H   0  0  0  0  0  0  0  0  0  0  0  0
   60.8209   -5.9962   -9.0513 C   0  0  0  0  0  0  0  0  0  0  0  0
   59.4592   -6.1845   -9.6493 C   0  0  0  0  0  0  0  0  0  0  0  0
   58.4967   -5.3199   -8.8888 C   0  0  0  0  0  0  0  0  0  0  0  0
   57.2930   -4.8815   -9.6404 C   0  0  0  0  0  0  0  0  0  0  0  0
   56.2687   -4.1177   -8.8645 C   0  0  0  0  0  0  0  0  0  0  0  0
   54.9130   -4.1122   -9.5329 C   0  0  0  0  0  0  0  0  0  0  0  0
   53.8413   -3.5497   -8.6702 C   0  0  0  0  0  0  0  0  0  0  0  0
   53.1249   -4.5163   -7.7885 C   0  0  0  0  0  0  0  0  0  0  0  0
   51.8916   -4.0280   -7.1714 C   0  0  0  0  0  0  0  0  0  0  0  0
   51.2470   -4.6489   -6.1477 C   0  0  0  0  0  0  0  0  0  0  0  0
   50.0789   -4.1474   -5.5764 C   0  0  0  0  0  0  0  0  0  0  0  0
   49.5349   -2.9809   -6.0475 C   0  0  0  0  0  0  0  0  0  0  0  0
   50.1647   -2.3243   -7.0876 C   0  0  0  0  0  0  0  0  0  0  0  0
   51.3182   -2.8435   -7.6332 C   0  0  0  0  0  0  0  0  0  0  0  0
 46 47  1  0  0  0
 47 48  1  0  0  0
 47 45  1  0  0  0
 45 32  1  0  0  0
 32 33  1  0  0  0
 33 34  1  0  0  0
 34 35  2  0  0  0
 34 37  1  0  0  0
 37 38  1  0  0  0
 38 39  1  0  0  0
 39 40  1  0  0  0
 40 41  1  0  0  0
 41 42  1  0  0  0
 42 43  1  0  0  0
 42 44  2  0  0  0
 32 28  1  0  0  0
 28 29  2  0  0  0
 28 30  1  0  0  0
 30  1  1  0  0  0
  1  2  1  0  0  0
  2  3  1  0  0  0
  3  4  2  0  0  0
  4  5  1  0  0  0
  5  6  1  0  0  0
  6  7  1  0  0  0
  7  8  1  0  0  0
  8  9  1  0  0  0
  9 10  1  0  0  0
 10 11  1  0  0  0
 11 12  1  0  0  0
 12 13  1  0  0  0
 13 14  2  0  0  0
 13 15  1  0  0  0
 15 16  1  0  0  0
 16 17  1  0  0  0
 17 18  2  0  0  0
 17 19  1  0  0  0
 19 49  1  0  0  0
 49 50  1  0  0  0
 19 20  1  0  0  0
 20 21  1  0  0  0
 21 22  2  0  0  0
 15 52  1  0  0  0
 52 53  1  0  0  0
 52 54  1  0  0  0
 54 55  1  0  0  0
 55 56  1  0  0  0
 55 57  1  0  0  0
 55 58  2  0  0  0
  5 23  2  0  0  0
 23 24  1  0  0  0
 24 61  1  0  0  0
 61 62  1  0  0  0
 62 63  1  0  0  0
 63 64  1  0  0  0
 64 65  1  0  0  0
 65 66  1  0  0  0
 66 67  1  0  0  0
 67 68  1  0  0  0
 68 69  1  0  0  0
 69 70  2  0  0  0
 70 71  1  0  0  0
 71 72  2  0  0  0
 72 73  1  0  0  0
 73 74  2  0  0  0
 41 37  1  0  0  0
 21  1  1  0  0  0
 74 69  1  0  0  0
 24  3  1  0  0  0
 33 36  1  0  0  0
 30 31  1  0  0  0
 12 25  1  0  0  0
 16 26  1  0  0  0
 50 51  1  0  0  0
 20 27  1  0  0  0
 56 59  1  0  0  0
 57 60  1  0  0  0
M  CHG 1   5   1
M  END
> <minimizedAffinity>
-6.40041

> <CNNscore>
0.3198475838

> <CNNaffinity>
6.5214624405

> <CNN_VS>
2.0858740807

> <CNNaffinity_variance>
0.6860525608

$$$$
[H]OC([H])([H])[C@@]1([H])C(=O)N([H])[C@@]([H])([C@]([H])(OP(=O)(O[H])O[H])C([H])([H])[H])C(=O)N([H])C([H])([H])C([H])([H])C([H])([H])C([H])([H])C([H])([H])C([H])([H])[n+]2c([H])c(n(C([H])([H])C([H])([H])C([H])([H])C([H])([H])C([H])([H])C([H])([H])C([H])([H])C([H])([H])c3c([H])c([H])c([H])c([H])c3[H])c2[H])C([H])([H])[C@]([H])(N([H])C(=O)[C@@]([H])(N([H])C(=O)[C@@]2([H])N(C(=O)C([H])([H])[H])C([H])([H])C([H])([H])C2([H])[H])C([H])([H])C([H])(C([H])([H])[H])C([H])([H])[H])C(=O)N1[H]


 74 77  0  0  0  0  0  0  0  0999 V2000
   60.6565   -7.3649   -9.3424 C   0  0  0  0  0  0  0  0  0  0  0  0
   59.2893   -7.0755   -9.8921 C   0  0  0  0  0  0  0  0  0  0  0  0
   58.4308   -6.1586   -9.0841 C   0  0  0  0  0  0  0  0  0  0  0  0
   57.8375   -6.3515   -7.8585 C   0  0  0  0  0  0  0  0  0  0  0  0
   57.1284   -5.2430   -7.5968 N   0  0  0  0  0  0  0  0  0  0  0  0
   56.2633   -4.9125   -6.4565 C   0  0  0  0  0  0  0  0  0  0  0  0
   56.8985   -4.8301   -5.1204 C   0  0  0  0  0  0  0  0  0  0  0  0
   55.9550   -5.2238   -4.0020 C   0  0  0  0  0  0  0  0  0  0  0  0
   56.3239   -4.5676   -2.6965 C   0  0  0  0  0  0  0  0  0  0  0  0
   57.4730   -5.2934   -2.0180 C   0  0  0  0  0  0  0  0  0  0  0  0
   57.0547   -6.5829   -1.4087 C   0  0  0  0  0  0  0  0  0  0  0  0
   57.4206   -7.7678   -2.1186 N   0  0  0  0  0  0  0  0  0  0  0  0
   58.4226   -8.0641   -3.0323 C   0  0  0  0  0  0  0  0  0  0  0  0
   58.0045   -8.2865   -4.2764 O   0  0  0  0  0  0  0  0  0  0  0  0
   59.8785   -8.1888   -2.9050 C   0  0  0  0  0  0  0  0  0  0  0  0
   60.6462   -7.1486   -3.5645 N   0  0  0  0  0  0  0  0  0  0  0  0
   61.5668   -7.2553   -4.5992 C   0  0  0  0  0  0  0  0  0  0  0  0
   62.7420   -6.7581   -4.4170 O   0  0  0  0  0  0  0  0  0  0  0  0
   61.4047   -7.8842   -5.9543 C   0  0  0  0  0  0  0  0  0  0  0  0
   61.6643   -6.8935   -6.9779 N   0  0  0  0  0  0  0  0  0  0  0  0
   61.0893   -6.5958   -8.1843 C   0  0  0  0  0  0  0  0  0  0  0  0
   60.8676   -5.2972   -8.3539 O   0  0  0  0  0  0  0  0  0  0  0  0
   57.2732   -4.3553   -8.6431 C   0  0  0  0  0  0  0  0  0  0  0  0
   58.0687   -4.9091   -9.5564 N   0  0  0  0  0  0  0  0  0  0  0  0
   56.7545   -8.6051   -1.9036 H   0  0  0  0  0  0  0  0  0  0  0  0
   60.4535   -6.1749   -3.1540 H   0  0  0  0  0  0  0  0  0  0  0  0
   62.5077   -6.2554   -6.7058 H   0  0  0  0  0  0  0  0  0  0  0  0
   61.8076   -9.4530  -10.1333 C   0  0  0  0  0  0  0  0  0  0  0  0
   62.4524   -8.6705  -10.9224 O   0  0  0  0  0  0  0  0  0  0  0  0
   60.8807   -8.8055   -9.2881 N   0  0  0  0  0  0  0  0  0  0  0  0
   60.3404   -9.3627   -8.6032 H   0  0  0  0  0  0  0  0  0  0  0  0
   62.0837  -10.9220  -10.1852 C   0  0  0  0  0  0  0  0  0  0  0  0
   63.0920  -11.1153  -11.1806 N   0  0  0  0  0  0  0  0  0  0  0  0
   63.0516  -12.1641  -12.1540 C   0  0  0  0  0  0  0  0  0  0  0  0
   62.1176  -13.0050  -12.1948 O   0  0  0  0  0  0  0  0  0  0  0  0
   63.8976  -10.4645  -11.2149 H   0  0  0  0  0  0  0  0  0  0  0  0
   64.1095  -12.3009  -13.1728 C   0  0  0  0  0  0  0  0  0  0  0  0
   64.6421  -11.0360  -13.7369 C   0  0  0  0  0  0  0  0  0  0  0  0
   64.1672  -11.0276  -15.1885 C   0  0  0  0  0  0  0  0  0  0  0  0
   63.1527  -12.1688  -15.2458 C   0  0  0  0  0  0  0  0  0  0  0  0
   63.7568  -13.1096  -14.3124 N   0  0  0  0  0  0  0  0  0  0  0  0
   63.9607  -14.4812  -14.5119 C   0  0  0  0  0  0  0  0  0  0  0  0
   63.4909  -15.1381  -15.7481 C   0  0  0  0  0  0  0  0  0  0  0  0
   64.5447  -15.2202  -13.6660 O   0  0  0  0  0  0  0  0  0  0  0  0
   62.3865  -11.5214   -8.8911 C   0  0  0  0  0  0  0  0  0  0  0  0
   60.4520  -11.7269   -7.2610 C   0  0  0  0  0  0  0  0  0  0  0  0
   61.3963  -12.3844   -8.2298 C   0  0  0  0  0  0  0  0  0  0  0  0
   62.0118  -13.6125   -7.5736 C   0  0  0  0  0  0  0  0  0  0  0  0
   62.5286   -8.9437   -5.9813 C   0  0  0  0  0  0  0  0  0  0  0  0
   63.5952   -8.5886   -6.7475 O   0  0  0  0  0  0  0  0  0  0  0  0
   64.4358   -8.8870   -6.3591 H   0  0  0  0  0  0  0  0  0  0  0  0
   60.3389   -8.4063   -1.4936 C   0  0  0  0  0  0  0  0  0  0  0  0
   61.3428   -9.6142   -1.4839 C   0  0  0  0  0  0  0  0  0  0  0  0
   61.1094   -7.3737   -0.9835 O   0  0  0  0  0  0  0  0  0  0  0  0
   60.5580   -6.8120    0.5131 P   0  0  0  0  0  0  0  0  0  0  0  0
   59.2294   -7.6411    1.0912 O   0  0  0  0  0  0  0  0  0  0  0  0
   60.1856   -5.1554    0.3069 O   0  0  0  0  0  0  0  0  0  0  0  0
   61.7359   -6.8231    1.4850 O   0  0  0  0  0  0  0  0  0  0  0  0
   58.4136   -7.2621    0.6436 H   0  0  0  0  0  0  0  0  0  0  0  0
   59.2490   -4.9511    0.4623 H   0  0  0  0  0  0  0  0  0  0  0  0
   58.4626   -4.2887  -10.8342 C   0  0  0  0  0  0  0  0  0  0  0  0
   57.3737   -3.4195  -11.3875 C   0  0  0  0  0  0  0  0  0  0  0  0
   56.3773   -4.3073  -12.0739 C   0  0  0  0  0  0  0  0  0  0  0  0
   54.9737   -4.1833  -11.6041 C   0  0  0  0  0  0  0  0  0  0  0  0
   54.7855   -3.7941  -10.1731 C   0  0  0  0  0  0  0  0  0  0  0  0
   53.4605   -3.1115   -9.9221 C   0  0  0  0  0  0  0  0  0  0  0  0
   52.9872   -3.2572   -8.5206 C   0  0  0  0  0  0  0  0  0  0  0  0
   51.6028   -2.7807   -8.2359 C   0  0  0  0  0  0  0  0  0  0  0  0
   50.9811   -3.3075   -7.0209 C   0  0  0  0  0  0  0  0  0  0  0  0
   49.9181   -2.7375   -6.3929 C   0  0  0  0  0  0  0  0  0  0  0  0
   49.3441   -3.2749   -5.2423 C   0  0  0  0  0  0  0  0  0  0  0  0
   49.8530   -4.4259   -4.6992 C   0  0  0  0  0  0  0  0  0  0  0  0
   50.9334   -5.0311   -5.3124 C   0  0  0  0  0  0  0  0  0  0  0  0
   51.4808   -4.4772   -6.4488 C   0  0  0  0  0  0  0  0  0  0  0  0
 46 47  1  0  0  0
 47 48  1  0  0  0
 47 45  1  0  0  0
 45 32  1  0  0  0
 32 33  1  0  0  0
 33 34  1  0  0  0
 34 35  2  0  0  0
 34 37  1  0  0  0
 37 38  1  0  0  0
 38 39  1  0  0  0
 39 40  1  0  0  0
 40 41  1  0  0  0
 41 42  1  0  0  0
 42 43  1  0  0  0
 42 44  2  0  0  0
 32 28  1  0  0  0
 28 29  2  0  0  0
 28 30  1  0  0  0
 30  1  1  0  0  0
  1  2  1  0  0  0
  2  3  1  0  0  0
  3  4  2  0  0  0
  4  5  1  0  0  0
  5  6  1  0  0  0
  6  7  1  0  0  0
  7  8  1  0  0  0
  8  9  1  0  0  0
  9 10  1  0  0  0
 10 11  1  0  0  0
 11 12  1  0  0  0
 12 13  1  0  0  0
 13 14  2  0  0  0
 13 15  1  0  0  0
 15 16  1  0  0  0
 16 17  1  0  0  0
 17 18  2  0  0  0
 17 19  1  0  0  0
 19 49  1  0  0  0
 49 50  1  0  0  0
 19 20  1  0  0  0
 20 21  1  0  0  0
 21 22  2  0  0  0
 15 52  1  0  0  0
 52 53  1  0  0  0
 52 54  1  0  0  0
 54 55  1  0  0  0
 55 56  1  0  0  0
 55 57  1  0  0  0
 55 58  2  0  0  0
  5 23  2  0  0  0
 23 24  1  0  0  0
 24 61  1  0  0  0
 61 62  1  0  0  0
 62 63  1  0  0  0
 63 64  1  0  0  0
 64 65  1  0  0  0
 65 66  1  0  0  0
 66 67  1  0  0  0
 67 68  1  0  0  0
 68 69  1  0  0  0
 69 70  2  0  0  0
 70 71  1  0  0  0
 71 72  2  0  0  0
 72 73  1  0  0  0
 73 74  2  0  0  0
 41 37  1  0  0  0
 21  1  1  0  0  0
 74 69  1  0  0  0
 24  3  1  0  0  0
 33 36  1  0  0  0
 30 31  1  0  0  0
 12 25  1  0  0  0
 16 26  1  0  0  0
 50 51  1  0  0  0
 20 27  1  0  0  0
 56 59  1  0  0  0
 57 60  1  0  0  0
M  CHG 1   5   1
M  END
> <minimizedAffinity>
-4.70578

> <CNNscore>
0.2967536747

> <CNNaffinity>
7.0285787582

> <CNN_VS>
2.0857565403

> <CNNaffinity_variance>
0.1687731296

$$$$
[H]OC([H])([H])[C@@]1([H])C(=O)N([H])[C@@]([H])([C@]([H])(OP(=O)(O[H])O[H])C([H])([H])[H])C(=O)N([H])C([H])([H])C([H])([H])C([H])([H])C([H])([H])C([H])([H])C([H])([H])[n+]2c([H])c(n(C([H])([H])C([H])([H])C([H])([H])C([H])([H])C([H])([H])C([H])([H])C([H])([H])C([H])([H])c3c([H])c([H])c([H])c([H])c3[H])c2[H])C([H])([H])[C@]([H])(N([H])C(=O)[C@@]([H])(N([H])C(=O)[C@@]2([H])N(C(=O)C([H])([H])[H])C([H])([H])C([H])([H])C2([H])[H])C([H])([H])C([H])(C([H])([H])[H])C([H])([H])[H])C(=O)N1[H]


 74 77  0  0  0  0  0  0  0  0999 V2000
   61.7857   -8.3799   -7.7750 C   0  0  0  0  0  0  0  0  0  0  0  0
   62.2973   -7.1075   -8.3868 C   0  0  0  0  0  0  0  0  0  0  0  0
   62.4461   -7.0998   -9.8729 C   0  0  0  0  0  0  0  0  0  0  0  0
   63.3308   -7.7785  -10.6779 C   0  0  0  0  0  0  0  0  0  0  0  0
   63.0850   -7.3836  -11.9363 N   0  0  0  0  0  0  0  0  0  0  0  0
   63.7504   -7.7444  -13.1953 C   0  0  0  0  0  0  0  0  0  0  0  0
   63.6836   -9.1625  -13.6196 C   0  0  0  0  0  0  0  0  0  0  0  0
   64.9031   -9.5917  -14.4100 C   0  0  0  0  0  0  0  0  0  0  0  0
   64.5943  -10.7298  -15.3483 C   0  0  0  0  0  0  0  0  0  0  0  0
   64.5689  -12.0599  -14.6150 C   0  0  0  0  0  0  0  0  0  0  0  0
   65.9287  -12.5425  -14.2586 C   0  0  0  0  0  0  0  0  0  0  0  0
   66.3152  -12.3962  -12.8908 N   0  0  0  0  0  0  0  0  0  0  0  0
   65.6053  -12.2889  -11.7028 C   0  0  0  0  0  0  0  0  0  0  0  0
   65.6586  -11.0937  -11.1191 O   0  0  0  0  0  0  0  0  0  0  0  0
   64.7941  -13.2437  -10.9401 C   0  0  0  0  0  0  0  0  0  0  0  0
   63.3699  -12.9652  -10.9209 N   0  0  0  0  0  0  0  0  0  0  0  0
   62.5426  -12.6803   -9.8421 C   0  0  0  0  0  0  0  0  0  0  0  0
   61.4906  -13.4067   -9.6781 O   0  0  0  0  0  0  0  0  0  0  0  0
   62.6842  -11.6155   -8.7912 C   0  0  0  0  0  0  0  0  0  0  0  0
   61.5129  -10.7644   -8.8089 N   0  0  0  0  0  0  0  0  0  0  0  0
   61.3122   -9.4160   -8.6819 C   0  0  0  0  0  0  0  0  0  0  0  0
   60.4895   -8.9191   -9.5988 O   0  0  0  0  0  0  0  0  0  0  0  0
   62.0533   -6.4675  -11.9300 C   0  0  0  0  0  0  0  0  0  0  0  0
   61.6578   -6.2893  -10.6709 N   0  0  0  0  0  0  0  0  0  0  0  0
   67.3980  -12.3398  -12.7671 H   0  0  0  0  0  0  0  0  0  0  0  0
   62.9311  -13.0085  -11.9004 H   0  0  0  0  0  0  0  0  0  0  0  0
   60.6021  -11.3481   -8.9575 H   0  0  0  0  0  0  0  0  0  0  0  0
   62.4289   -8.4817   -5.3488 C   0  0  0  0  0  0  0  0  0  0  0  0
   61.3558   -7.8050   -5.1462 O   0  0  0  0  0  0  0  0  0  0  0  0
   62.6722   -8.8115   -6.6996 N   0  0  0  0  0  0  0  0  0  0  0  0
   63.5026   -9.3793   -6.9437 H   0  0  0  0  0  0  0  0  0  0  0  0
   63.2913   -8.8391   -4.1802 C   0  0  0  0  0  0  0  0  0  0  0  0
   62.4757   -8.7082   -3.0129 N   0  0  0  0  0  0  0  0  0  0  0  0
   61.8387   -9.8143   -2.3651 C   0  0  0  0  0  0  0  0  0  0  0  0
   61.9469  -10.9928   -2.7901 O   0  0  0  0  0  0  0  0  0  0  0  0
   62.3351   -7.7686   -2.5992 H   0  0  0  0  0  0  0  0  0  0  0  0
   61.0268   -9.6221   -1.1486 C   0  0  0  0  0  0  0  0  0  0  0  0
   61.5478   -8.6434   -0.1623 C   0  0  0  0  0  0  0  0  0  0  0  0
   61.9544   -9.4870    1.0443 C   0  0  0  0  0  0  0  0  0  0  0  0
   61.8909  -10.9219    0.5228 C   0  0  0  0  0  0  0  0  0  0  0  0
   60.7646  -10.8223   -0.3952 N   0  0  0  0  0  0  0  0  0  0  0  0
   59.6727  -11.6952   -0.4873 C   0  0  0  0  0  0  0  0  0  0  0  0
   59.6040  -12.9035    0.3586 C   0  0  0  0  0  0  0  0  0  0  0  0
   58.7048  -11.5050   -1.2809 O   0  0  0  0  0  0  0  0  0  0  0  0
   63.9688  -10.1240   -4.3054 C   0  0  0  0  0  0  0  0  0  0  0  0
   65.7468  -11.3314   -2.9553 C   0  0  0  0  0  0  0  0  0  0  0  0
   65.3864  -10.2478   -3.9345 C   0  0  0  0  0  0  0  0  0  0  0  0
   66.0054   -8.9342   -3.4777 C   0  0  0  0  0  0  0  0  0  0  0  0
   62.6988  -12.4261   -7.4763 C   0  0  0  0  0  0  0  0  0  0  0  0
   61.4934  -12.4675   -6.8472 O   0  0  0  0  0  0  0  0  0  0  0  0
   61.3338  -13.3299   -6.4261 H   0  0  0  0  0  0  0  0  0  0  0  0
   65.0735  -14.6765  -11.2868 C   0  0  0  0  0  0  0  0  0  0  0  0
   66.1501  -15.2248  -10.2831 C   0  0  0  0  0  0  0  0  0  0  0  0
   64.0034  -15.5304  -11.0725 O   0  0  0  0  0  0  0  0  0  0  0  0
   63.2000  -15.9571  -12.4979 P   0  0  0  0  0  0  0  0  0  0  0  0
   62.7047  -14.6463  -13.4053 O   0  0  0  0  0  0  0  0  0  0  0  0
   61.8548  -16.9069  -12.0358 O   0  0  0  0  0  0  0  0  0  0  0  0
   64.0978  -16.9156  -13.2773 O   0  0  0  0  0  0  0  0  0  0  0  0
   61.8418  -14.3119  -13.0141 H   0  0  0  0  0  0  0  0  0  0  0  0
   61.0031  -16.5096  -12.2807 H   0  0  0  0  0  0  0  0  0  0  0  0
   60.5847   -5.3779  -10.2341 C   0  0  0  0  0  0  0  0  0  0  0  0
   59.5778   -6.0795   -9.3732 C   0  0  0  0  0  0  0  0  0  0  0  0
   58.2629   -5.3735   -9.5309 C   0  0  0  0  0  0  0  0  0  0  0  0
   58.0184   -4.7575  -10.8601 C   0  0  0  0  0  0  0  0  0  0  0  0
   56.6615   -4.1696  -11.0789 C   0  0  0  0  0  0  0  0  0  0  0  0
   55.8056   -4.1948   -9.8332 C   0  0  0  0  0  0  0  0  0  0  0  0
   54.4166   -3.7228  -10.0722 C   0  0  0  0  0  0  0  0  0  0  0  0
   53.6659   -3.2403   -8.8770 C   0  0  0  0  0  0  0  0  0  0  0  0
   53.4406   -4.2269   -7.8206 C   0  0  0  0  0  0  0  0  0  0  0  0
   52.2213   -4.5304   -7.3006 C   0  0  0  0  0  0  0  0  0  0  0  0
   52.0434   -5.4858   -6.3016 C   0  0  0  0  0  0  0  0  0  0  0  0
   53.1262   -6.1630   -5.8040 C   0  0  0  0  0  0  0  0  0  0  0  0
   54.3801   -5.8787   -6.3103 C   0  0  0  0  0  0  0  0  0  0  0  0
   54.5263   -4.9289   -7.2975 C   0  0  0  0  0  0  0  0  0  0  0  0
 46 47  1  0  0  0
 47 48  1  0  0  0
 47 45  1  0  0  0
 45 32  1  0  0  0
 32 33  1  0  0  0
 33 34  1  0  0  0
 34 35  2  0  0  0
 34 37  1  0  0  0
 37 38  1  0  0  0
 38 39  1  0  0  0
 39 40  1  0  0  0
 40 41  1  0  0  0
 41 42  1  0  0  0
 42 43  1  0  0  0
 42 44  2  0  0  0
 32 28  1  0  0  0
 28 29  2  0  0  0
 28 30  1  0  0  0
 30  1  1  0  0  0
  1  2  1  0  0  0
  2  3  1  0  0  0
  3  4  2  0  0  0
  4  5  1  0  0  0
  5  6  1  0  0  0
  6  7  1  0  0  0
  7  8  1  0  0  0
  8  9  1  0  0  0
  9 10  1  0  0  0
 10 11  1  0  0  0
 11 12  1  0  0  0
 12 13  1  0  0  0
 13 14  2  0  0  0
 13 15  1  0  0  0
 15 16  1  0  0  0
 16 17  1  0  0  0
 17 18  2  0  0  0
 17 19  1  0  0  0
 19 49  1  0  0  0
 49 50  1  0  0  0
 19 20  1  0  0  0
 20 21  1  0  0  0
 21 22  2  0  0  0
 15 52  1  0  0  0
 52 53  1  0  0  0
 52 54  1  0  0  0
 54 55  1  0  0  0
 55 56  1  0  0  0
 55 57  1  0  0  0
 55 58  2  0  0  0
  5 23  2  0  0  0
 23 24  1  0  0  0
 24 61  1  0  0  0
 61 62  1  0  0  0
 62 63  1  0  0  0
 63 64  1  0  0  0
 64 65  1  0  0  0
 65 66  1  0  0  0
 66 67  1  0  0  0
 67 68  1  0  0  0
 68 69  1  0  0  0
 69 70  2  0  0  0
 70 71  1  0  0  0
 71 72  2  0  0  0
 72 73  1  0  0  0
 73 74  2  0  0  0
 41 37  1  0  0  0
 21  1  1  0  0  0
 74 69  1  0  0  0
 24  3  1  0  0  0
 33 36  1  0  0  0
 30 31  1  0  0  0
 12 25  1  0  0  0
 16 26  1  0  0  0
 50 51  1  0  0  0
 20 27  1  0  0  0
 56 59  1  0  0  0
 57 60  1  0  0  0
M  CHG 1   5   1
M  END
> <minimizedAffinity>
-5.25584

> <CNNscore>
0.2918380201

> <CNNaffinity>
6.7799286842

> <CNN_VS>
1.9786409140

> <CNNaffinity_variance>
0.7752668858

$$$$
[H]OC([H])([H])[C@@]1([H])C(=O)N([H])[C@@]([H])([C@]([H])(OP(=O)(O[H])O[H])C([H])([H])[H])C(=O)N([H])C([H])([H])C([H])([H])C([H])([H])C([H])([H])C([H])([H])C([H])([H])[n+]2c([H])c(n(C([H])([H])C([H])([H])C([H])([H])C([H])([H])C([H])([H])C([H])([H])C([H])([H])C([H])([H])c3c([H])c([H])c([H])c([H])c3[H])c2[H])C([H])([H])[C@]([H])(N([H])C(=O)[C@@]([H])(N([H])C(=O)[C@@]2([H])N(C(=O)C([H])([H])[H])C([H])([H])C([H])([H])C2([H])[H])C([H])([H])C([H])(C([H])([H])[H])C([H])([H])[H])C(=O)N1[H]


 74 77  0  0  0  0  0  0  0  0999 V2000
   61.5735   -8.3445   -8.2951 C   0  0  0  0  0  0  0  0  0  0  0  0
   61.9644   -6.9523   -8.7001 C   0  0  0  0  0  0  0  0  0  0  0  0
   62.0815   -6.6972  -10.1670 C   0  0  0  0  0  0  0  0  0  0  0  0
   63.0030   -7.1618  -11.0760 C   0  0  0  0  0  0  0  0  0  0  0  0
   62.6992   -6.5957  -12.2538 N   0  0  0  0  0  0  0  0  0  0  0  0
   63.3664   -6.6946  -13.5588 C   0  0  0  0  0  0  0  0  0  0  0  0
   63.4094   -8.0283  -14.2029 C   0  0  0  0  0  0  0  0  0  0  0  0
   64.6440   -8.2212  -15.0601 C   0  0  0  0  0  0  0  0  0  0  0  0
   64.4121   -9.2190  -16.1654 C   0  0  0  0  0  0  0  0  0  0  0  0
   64.5129  -10.6454  -15.6530 C   0  0  0  0  0  0  0  0  0  0  0  0
   65.9153  -11.0599  -15.3876 C   0  0  0  0  0  0  0  0  0  0  0  0
   66.3163  -11.0990  -14.0166 N   0  0  0  0  0  0  0  0  0  0  0  0
   65.6245  -11.2420  -12.8217 C   0  0  0  0  0  0  0  0  0  0  0  0
   65.5898  -10.1538  -12.0557 O   0  0  0  0  0  0  0  0  0  0  0  0
   64.9117  -12.3712  -12.2150 C   0  0  0  0  0  0  0  0  0  0  0  0
   63.4699  -12.2223  -12.1418 N   0  0  0  0  0  0  0  0  0  0  0  0
   62.6441  -12.1835  -11.0256 C   0  0  0  0  0  0  0  0  0  0  0  0
   61.6600  -13.0141  -10.9719 O   0  0  0  0  0  0  0  0  0  0  0  0
   62.7179  -11.2898   -9.8196 C   0  0  0  0  0  0  0  0  0  0  0  0
   61.4795  -10.5502   -9.6934 N   0  0  0  0  0  0  0  0  0  0  0  0
   61.1696   -9.2610   -9.3519 C   0  0  0  0  0  0  0  0  0  0  0  0
   60.2896   -8.6978  -10.1723 O   0  0  0  0  0  0  0  0  0  0  0  0
   61.5950   -5.7838  -12.0945 C   0  0  0  0  0  0  0  0  0  0  0  0
   61.2120   -5.8413  -10.8203 N   0  0  0  0  0  0  0  0  0  0  0  0
   67.3930  -10.9703  -13.8932 H   0  0  0  0  0  0  0  0  0  0  0  0
   63.0162  -12.1477  -13.1126 H   0  0  0  0  0  0  0  0  0  0  0  0
   60.6177  -11.1790   -9.9266 H   0  0  0  0  0  0  0  0  0  0  0  0
   62.4982   -8.4411   -5.9614 C   0  0  0  0  0  0  0  0  0  0  0  0
   61.5737   -7.5962   -5.6747 O   0  0  0  0  0  0  0  0  0  0  0  0
   62.5149   -8.8630   -7.3083 N   0  0  0  0  0  0  0  0  0  0  0  0
   63.2124   -9.5641   -7.6139 H   0  0  0  0  0  0  0  0  0  0  0  0
   63.4390   -8.8785   -4.8840 C   0  0  0  0  0  0  0  0  0  0  0  0
   62.8222   -9.9883   -4.2261 N   0  0  0  0  0  0  0  0  0  0  0  0
   62.8804  -11.3313   -4.7181 C   0  0  0  0  0  0  0  0  0  0  0  0
   63.4788  -11.6296   -5.7832 O   0  0  0  0  0  0  0  0  0  0  0  0
   62.3078   -9.8271   -3.3412 H   0  0  0  0  0  0  0  0  0  0  0  0
   62.2442  -12.4413   -3.9840 C   0  0  0  0  0  0  0  0  0  0  0  0
   62.1523  -12.2841   -2.5113 C   0  0  0  0  0  0  0  0  0  0  0  0
   63.1052  -13.3365   -1.9481 C   0  0  0  0  0  0  0  0  0  0  0  0
   63.8807  -13.8179   -3.1735 C   0  0  0  0  0  0  0  0  0  0  0  0
   62.8451  -13.7343   -4.1942 N   0  0  0  0  0  0  0  0  0  0  0  0
   62.5113  -14.7140   -5.1384 C   0  0  0  0  0  0  0  0  0  0  0  0
   63.2783  -15.9733   -5.2167 C   0  0  0  0  0  0  0  0  0  0  0  0
   61.5570  -14.5813   -5.9596 O   0  0  0  0  0  0  0  0  0  0  0  0
   64.8012   -9.1253   -5.3411 C   0  0  0  0  0  0  0  0  0  0  0  0
   66.2247   -9.3493   -3.2518 C   0  0  0  0  0  0  0  0  0  0  0  0
   65.9422   -8.6423   -4.5491 C   0  0  0  0  0  0  0  0  0  0  0  0
   65.9113   -7.1401   -4.3042 C   0  0  0  0  0  0  0  0  0  0  0  0
   62.8272  -12.2937   -8.6506 C   0  0  0  0  0  0  0  0  0  0  0  0
   61.6494  -12.5103   -8.0052 O   0  0  0  0  0  0  0  0  0  0  0  0
   61.5562  -13.4364   -7.7221 H   0  0  0  0  0  0  0  0  0  0  0  0
   65.3026  -13.7020  -12.7874 C   0  0  0  0  0  0  0  0  0  0  0  0
   64.5934  -14.8255  -11.9496 C   0  0  0  0  0  0  0  0  0  0  0  0
   64.8197  -13.9329  -14.0655 O   0  0  0  0  0  0  0  0  0  0  0  0
   63.2711  -14.6120  -14.0764 P   0  0  0  0  0  0  0  0  0  0  0  0
   62.8253  -15.2859  -12.6155 O   0  0  0  0  0  0  0  0  0  0  0  0
   63.2658  -15.7984  -15.3083 O   0  0  0  0  0  0  0  0  0  0  0  0
   62.2915  -13.5468  -14.5642 O   0  0  0  0  0  0  0  0  0  0  0  0
   63.2319  -16.2033  -12.5650 H   0  0  0  0  0  0  0  0  0  0  0  0
   63.0990  -16.6955  -14.9757 H   0  0  0  0  0  0  0  0  0  0  0  0
   60.0758   -5.1058  -10.2365 C   0  0  0  0  0  0  0  0  0  0  0  0
   59.0023   -6.0350   -9.7552 C   0  0  0  0  0  0  0  0  0  0  0  0
   58.3871   -5.4332   -8.5257 C   0  0  0  0  0  0  0  0  0  0  0  0
   57.1325   -4.6681   -8.7423 C   0  0  0  0  0  0  0  0  0  0  0  0
   56.1202   -4.7302   -7.6441 C   0  0  0  0  0  0  0  0  0  0  0  0
   55.0788   -3.6394   -7.7464 C   0  0  0  0  0  0  0  0  0  0  0  0
   53.9101   -4.0273   -8.5789 C   0  0  0  0  0  0  0  0  0  0  0  0
   52.9031   -4.9181   -7.9330 C   0  0  0  0  0  0  0  0  0  0  0  0
   51.7850   -4.2466   -7.2703 C   0  0  0  0  0  0  0  0  0  0  0  0
   51.1659   -4.7086   -6.1512 C   0  0  0  0  0  0  0  0  0  0  0  0
   50.1100   -4.0348   -5.5401 C   0  0  0  0  0  0  0  0  0  0  0  0
   49.6561   -2.8545   -6.0687 C   0  0  0  0  0  0  0  0  0  0  0  0
   50.2630   -2.3567   -7.2060 C   0  0  0  0  0  0  0  0  0  0  0  0
   51.3047   -3.0443   -7.7891 C   0  0  0  0  0  0  0  0  0  0  0  0
 46 47  1  0  0  0
 47 48  1  0  0  0
 47 45  1  0  0  0
 45 32  1  0  0  0
 32 33  1  0  0  0
 33 34  1  0  0  0
 34 35  2  0  0  0
 34 37  1  0  0  0
 37 38  1  0  0  0
 38 39  1  0  0  0
 39 40  1  0  0  0
 40 41  1  0  0  0
 41 42  1  0  0  0
 42 43  1  0  0  0
 42 44  2  0  0  0
 32 28  1  0  0  0
 28 29  2  0  0  0
 28 30  1  0  0  0
 30  1  1  0  0  0
  1  2  1  0  0  0
  2  3  1  0  0  0
  3  4  2  0  0  0
  4  5  1  0  0  0
  5  6  1  0  0  0
  6  7  1  0  0  0
  7  8  1  0  0  0
  8  9  1  0  0  0
  9 10  1  0  0  0
 10 11  1  0  0  0
 11 12  1  0  0  0
 12 13  1  0  0  0
 13 14  2  0  0  0
 13 15  1  0  0  0
 15 16  1  0  0  0
 16 17  1  0  0  0
 17 18  2  0  0  0
 17 19  1  0  0  0
 19 49  1  0  0  0
 49 50  1  0  0  0
 19 20  1  0  0  0
 20 21  1  0  0  0
 21 22  2  0  0  0
 15 52  1  0  0  0
 52 53  1  0  0  0
 52 54  1  0  0  0
 54 55  1  0  0  0
 55 56  1  0  0  0
 55 57  1  0  0  0
 55 58  2  0  0  0
  5 23  2  0  0  0
 23 24  1  0  0  0
 24 61  1  0  0  0
 61 62  1  0  0  0
 62 63  1  0  0  0
 63 64  1  0  0  0
 64 65  1  0  0  0
 65 66  1  0  0  0
 66 67  1  0  0  0
 67 68  1  0  0  0
 68 69  1  0  0  0
 69 70  2  0  0  0
 70 71  1  0  0  0
 71 72  2  0  0  0
 72 73  1  0  0  0
 73 74  2  0  0  0
 41 37  1  0  0  0
 21  1  1  0  0  0
 74 69  1  0  0  0
 24  3  1  0  0  0
 33 36  1  0  0  0
 30 31  1  0  0  0
 12 25  1  0  0  0
 16 26  1  0  0  0
 50 51  1  0  0  0
 20 27  1  0  0  0
 56 59  1  0  0  0
 57 60  1  0  0  0
M  CHG 1   5   1
M  END
> <minimizedAffinity>
-5.36298

> <CNNscore>
0.2648277581

> <CNNaffinity>
6.4276518822

> <CNN_VS>
1.7022206783

> <CNNaffinity_variance>
0.5013466477

$$$$
[H]OC([H])([H])[C@@]1([H])C(=O)N([H])[C@@]([H])([C@]([H])(OP(=O)(O[H])O[H])C([H])([H])[H])C(=O)N([H])C([H])([H])C([H])([H])C([H])([H])C([H])([H])C([H])([H])C([H])([H])[n+]2c([H])c(n(C([H])([H])C([H])([H])C([H])([H])C([H])([H])C([H])([H])C([H])([H])C([H])([H])C([H])([H])c3c([H])c([H])c([H])c([H])c3[H])c2[H])C([H])([H])[C@]([H])(N([H])C(=O)[C@@]([H])(N([H])C(=O)[C@@]2([H])N(C(=O)C([H])([H])[H])C([H])([H])C([H])([H])C2([H])[H])C([H])([H])C([H])(C([H])([H])[H])C([H])([H])[H])C(=O)N1[H]


 74 77  0  0  0  0  0  0  0  0999 V2000
   61.5268   -7.7026   -7.1939 C   0  0  0  0  0  0  0  0  0  0  0  0
   62.1595   -6.6092   -8.0059 C   0  0  0  0  0  0  0  0  0  0  0  0
   62.4509   -6.9293   -9.4354 C   0  0  0  0  0  0  0  0  0  0  0  0
   63.3730   -7.7923   -9.9794 C   0  0  0  0  0  0  0  0  0  0  0  0
   63.2701   -7.6737  -11.3119 N   0  0  0  0  0  0  0  0  0  0  0  0
   64.0343   -8.3189  -12.3878 C   0  0  0  0  0  0  0  0  0  0  0  0
   63.9361   -9.7928  -12.5042 C   0  0  0  0  0  0  0  0  0  0  0  0
   65.2025  -10.4191  -13.0522 C   0  0  0  0  0  0  0  0  0  0  0  0
   64.9277  -11.7245  -13.7531 C   0  0  0  0  0  0  0  0  0  0  0  0
   64.7637  -12.8619  -12.7596 C   0  0  0  0  0  0  0  0  0  0  0  0
   66.0565  -13.2948  -12.1676 C   0  0  0  0  0  0  0  0  0  0  0  0
   66.3165  -12.8658  -10.8296 N   0  0  0  0  0  0  0  0  0  0  0  0
   65.5019  -12.4820   -9.7732 C   0  0  0  0  0  0  0  0  0  0  0  0
   65.5598  -11.1905   -9.4559 O   0  0  0  0  0  0  0  0  0  0  0  0
   64.5732  -13.2239   -8.9138 C   0  0  0  0  0  0  0  0  0  0  0  0
   63.1699  -12.9066   -9.1043 N   0  0  0  0  0  0  0  0  0  0  0  0
   62.2583  -12.3698   -8.2042 C   0  0  0  0  0  0  0  0  0  0  0  0
   61.1596  -13.0122   -8.0004 O   0  0  0  0  0  0  0  0  0  0  0  0
   62.3523  -11.1065   -7.3959 C   0  0  0  0  0  0  0  0  0  0  0  0
   61.2333  -10.2458   -7.7178 N   0  0  0  0  0  0  0  0  0  0  0  0
   61.0905   -8.8968   -7.9034 C   0  0  0  0  0  0  0  0  0  0  0  0
   60.3864   -8.5876   -8.9864 O   0  0  0  0  0  0  0  0  0  0  0  0
   62.2908   -6.7484  -11.6097 C   0  0  0  0  0  0  0  0  0  0  0  0
   61.7856   -6.2891  -10.4663 N   0  0  0  0  0  0  0  0  0  0  0  0
   67.3838  -12.8155  -10.6078 H   0  0  0  0  0  0  0  0  0  0  0  0
   62.8259  -13.1490  -10.0926 H   0  0  0  0  0  0  0  0  0  0  0  0
   60.3123  -10.8211   -7.8332 H   0  0  0  0  0  0  0  0  0  0  0  0
   61.6529   -8.0175   -4.7048 C   0  0  0  0  0  0  0  0  0  0  0  0
   60.3709   -7.9404   -4.7376 O   0  0  0  0  0  0  0  0  0  0  0  0
   62.2825   -7.9155   -5.9641 N   0  0  0  0  0  0  0  0  0  0  0  0
   63.3126   -7.9955   -6.0265 H   0  0  0  0  0  0  0  0  0  0  0  0
   62.3342   -8.1958   -3.3853 C   0  0  0  0  0  0  0  0  0  0  0  0
   61.3307   -8.6203   -2.4592 N   0  0  0  0  0  0  0  0  0  0  0  0
   61.0932   -7.9792   -1.2016 C   0  0  0  0  0  0  0  0  0  0  0  0
   61.7671   -6.9901   -0.8156 O   0  0  0  0  0  0  0  0  0  0  0  0
   60.7314   -9.4302   -2.7016 H   0  0  0  0  0  0  0  0  0  0  0  0
   60.0272   -8.4470   -0.2956 C   0  0  0  0  0  0  0  0  0  0  0  0
   59.4524   -9.7816   -0.5960 C   0  0  0  0  0  0  0  0  0  0  0  0
   58.0234   -9.4952   -1.0528 C   0  0  0  0  0  0  0  0  0  0  0  0
   58.0000   -7.9795   -1.2454 C   0  0  0  0  0  0  0  0  0  0  0  0
   58.8966   -7.5612   -0.1766 N   0  0  0  0  0  0  0  0  0  0  0  0
   58.6751   -6.5420    0.7587 C   0  0  0  0  0  0  0  0  0  0  0  0
   57.4547   -5.7135    0.6914 C   0  0  0  0  0  0  0  0  0  0  0  0
   59.4872   -6.2772    1.6931 O   0  0  0  0  0  0  0  0  0  0  0  0
   63.5163   -9.0479   -3.4309 C   0  0  0  0  0  0  0  0  0  0  0  0
   64.4523   -9.6013   -1.1376 C   0  0  0  0  0  0  0  0  0  0  0  0
   64.5915   -8.8685   -2.4439 C   0  0  0  0  0  0  0  0  0  0  0  0
   64.9150   -7.4071   -2.1660 C   0  0  0  0  0  0  0  0  0  0  0  0
   62.1988  -11.6117   -5.9442 C   0  0  0  0  0  0  0  0  0  0  0  0
   60.9517  -11.4300   -5.4320 O   0  0  0  0  0  0  0  0  0  0  0  0
   60.6858  -12.1670   -4.8553 H   0  0  0  0  0  0  0  0  0  0  0  0
   64.8110  -14.7054   -8.9154 C   0  0  0  0  0  0  0  0  0  0  0  0
   65.6379  -15.0725   -7.6315 C   0  0  0  0  0  0  0  0  0  0  0  0
   63.6621  -15.4638   -8.7575 O   0  0  0  0  0  0  0  0  0  0  0  0
   63.0157  -16.0012  -10.2247 P   0  0  0  0  0  0  0  0  0  0  0  0
   61.6288  -16.9140  -10.0509 O   0  0  0  0  0  0  0  0  0  0  0  0
   64.2402  -16.9147  -10.9935 O   0  0  0  0  0  0  0  0  0  0  0  0
   62.8188  -14.7853  -11.1276 O   0  0  0  0  0  0  0  0  0  0  0  0
   61.9067  -17.8527   -9.8247 H   0  0  0  0  0  0  0  0  0  0  0  0
   63.9943  -17.8437  -11.1337 H   0  0  0  0  0  0  0  0  0  0  0  0
   60.7234   -5.2737  -10.3493 C   0  0  0  0  0  0  0  0  0  0  0  0
   59.4052   -5.7910  -10.8412 C   0  0  0  0  0  0  0  0  0  0  0  0
   58.3190   -5.0665  -10.1013 C   0  0  0  0  0  0  0  0  0  0  0  0
   58.2011   -5.3864   -8.6557 C   0  0  0  0  0  0  0  0  0  0  0  0
   57.0230   -4.8054   -7.9421 C   0  0  0  0  0  0  0  0  0  0  0  0
   55.8731   -4.4911   -8.8715 C   0  0  0  0  0  0  0  0  0  0  0  0
   54.7481   -3.7976   -8.1912 C   0  0  0  0  0  0  0  0  0  0  0  0
   53.3897   -4.0164   -8.7669 C   0  0  0  0  0  0  0  0  0  0  0  0
   52.2707   -3.8952   -7.8324 C   0  0  0  0  0  0  0  0  0  0  0  0
   51.9822   -4.7990   -6.8582 C   0  0  0  0  0  0  0  0  0  0  0  0
   50.9133   -4.6442   -5.9775 C   0  0  0  0  0  0  0  0  0  0  0  0
   50.1020   -3.5439   -6.0753 C   0  0  0  0  0  0  0  0  0  0  0  0
   50.3669   -2.6056   -7.0547 C   0  0  0  0  0  0  0  0  0  0  0  0
   51.4305   -2.7848   -7.9119 C   0  0  0  0  0  0  0  0  0  0  0  0
 46 47  1  0  0  0
 47 48  1  0  0  0
 47 45  1  0  0  0
 45 32  1  0  0  0
 32 33  1  0  0  0
 33 34  1  0  0  0
 34 35  2  0  0  0
 34 37  1  0  0  0
 37 38  1  0  0  0
 38 39  1  0  0  0
 39 40  1  0  0  0
 40 41  1  0  0  0
 41 42  1  0  0  0
 42 43  1  0  0  0
 42 44  2  0  0  0
 32 28  1  0  0  0
 28 29  2  0  0  0
 28 30  1  0  0  0
 30  1  1  0  0  0
  1  2  1  0  0  0
  2  3  1  0  0  0
  3  4  2  0  0  0
  4  5  1  0  0  0
  5  6  1  0  0  0
  6  7  1  0  0  0
  7  8  1  0  0  0
  8  9  1  0  0  0
  9 10  1  0  0  0
 10 11  1  0  0  0
 11 12  1  0  0  0
 12 13  1  0  0  0
 13 14  2  0  0  0
 13 15  1  0  0  0
 15 16  1  0  0  0
 16 17  1  0  0  0
 17 18  2  0  0  0
 17 19  1  0  0  0
 19 49  1  0  0  0
 49 50  1  0  0  0
 19 20  1  0  0  0
 20 21  1  0  0  0
 21 22  2  0  0  0
 15 52  1  0  0  0
 52 53  1  0  0  0
 52 54  1  0  0  0
 54 55  1  0  0  0
 55 56  1  0  0  0
 55 57  1  0  0  0
 55 58  2  0  0  0
  5 23  2  0  0  0
 23 24  1  0  0  0
 24 61  1  0  0  0
 61 62  1  0  0  0
 62 63  1  0  0  0
 63 64  1  0  0  0
 64 65  1  0  0  0
 65 66  1  0  0  0
 66 67  1  0  0  0
 67 68  1  0  0  0
 68 69  1  0  0  0
 69 70  2  0  0  0
 70 71  1  0  0  0
 71 72  2  0  0  0
 72 73  1  0  0  0
 73 74  2  0  0  0
 41 37  1  0  0  0
 21  1  1  0  0  0
 74 69  1  0  0  0
 24  3  1  0  0  0
 33 36  1  0  0  0
 30 31  1  0  0  0
 12 25  1  0  0  0
 16 26  1  0  0  0
 50 51  1  0  0  0
 20 27  1  0  0  0
 56 59  1  0  0  0
 57 60  1  0  0  0
M  CHG 1   5   1
M  END
> <minimizedAffinity>
-5.16809

> <CNNscore>
0.2515872121

> <CNNaffinity>
6.7030129433

> <CNN_VS>
1.6863923073

> <CNNaffinity_variance>
0.9145450592

$$$$
[H]OC([H])([H])[C@@]1([H])C(=O)N([H])[C@@]([H])([C@]([H])(OP(=O)(O[H])O[H])C([H])([H])[H])C(=O)N([H])C([H])([H])C([H])([H])C([H])([H])C([H])([H])C([H])([H])C([H])([H])[n+]2c([H])c(n(C([H])([H])C([H])([H])C([H])([H])C([H])([H])C([H])([H])C([H])([H])C([H])([H])C([H])([H])c3c([H])c([H])c([H])c([H])c3[H])c2[H])C([H])([H])[C@]([H])(N([H])C(=O)[C@@]([H])(N([H])C(=O)[C@@]2([H])N(C(=O)C([H])([H])[H])C([H])([H])C([H])([H])C2([H])[H])C([H])([H])C([H])(C([H])([H])[H])C([H])([H])[H])C(=O)N1[H]


 74 77  0  0  0  0  0  0  0  0999 V2000
   61.6662   -8.2855   -5.4806 C   0  0  0  0  0  0  0  0  0  0  0  0
   62.9986   -7.8193   -5.9929 C   0  0  0  0  0  0  0  0  0  0  0  0
   63.8083   -8.8246   -6.7443 C   0  0  0  0  0  0  0  0  0  0  0  0
   64.4384   -9.9639   -6.3014 C   0  0  0  0  0  0  0  0  0  0  0  0
   65.0747  -10.4868   -7.3605 N   0  0  0  0  0  0  0  0  0  0  0  0
   65.9382  -11.6708   -7.4642 C   0  0  0  0  0  0  0  0  0  0  0  0
   65.3263  -12.9883   -7.1722 C   0  0  0  0  0  0  0  0  0  0  0  0
   66.3175  -13.9734   -6.5864 C   0  0  0  0  0  0  0  0  0  0  0  0
   65.9310  -15.4010   -6.8761 C   0  0  0  0  0  0  0  0  0  0  0  0
   64.8489  -15.8846   -5.9261 C   0  0  0  0  0  0  0  0  0  0  0  0
   65.3675  -16.1585   -4.5604 C   0  0  0  0  0  0  0  0  0  0  0  0
   65.0698  -15.1812   -3.5613 N   0  0  0  0  0  0  0  0  0  0  0  0
   64.0720  -14.2258   -3.4256 C   0  0  0  0  0  0  0  0  0  0  0  0
   64.4788  -12.9638   -3.5440 O   0  0  0  0  0  0  0  0  0  0  0  0
   62.6311  -14.3230   -3.1693 C   0  0  0  0  0  0  0  0  0  0  0  0
   61.7801  -13.9406   -4.2810 N   0  0  0  0  0  0  0  0  0  0  0  0
   60.8480  -12.9141   -4.3641 C   0  0  0  0  0  0  0  0  0  0  0  0
   59.6454  -13.2160   -4.7160 O   0  0  0  0  0  0  0  0  0  0  0  0
   61.0252  -11.4457   -4.0980 C   0  0  0  0  0  0  0  0  0  0  0  0
   60.6771  -10.6966   -5.2873 N   0  0  0  0  0  0  0  0  0  0  0  0
   61.2052   -9.5980   -5.9108 C   0  0  0  0  0  0  0  0  0  0  0  0
   61.3334   -9.7508   -7.2240 O   0  0  0  0  0  0  0  0  0  0  0  0
   64.8475   -9.6901   -8.4638 C   0  0  0  0  0  0  0  0  0  0  0  0
   64.0736   -8.6715   -8.0939 N   0  0  0  0  0  0  0  0  0  0  0  0
   65.7962  -15.1827   -2.7469 H   0  0  0  0  0  0  0  0  0  0  0  0
   61.9136  -14.5764   -5.1364 H   0  0  0  0  0  0  0  0  0  0  0  0
   59.7974  -11.1191   -5.7774 H   0  0  0  0  0  0  0  0  0  0  0  0
   60.3393   -7.5133   -3.4923 C   0  0  0  0  0  0  0  0  0  0  0  0
   59.3641   -7.4011   -4.3212 O   0  0  0  0  0  0  0  0  0  0  0  0
   61.5430   -7.9863   -4.0580 N   0  0  0  0  0  0  0  0  0  0  0  0
   62.3689   -8.1305   -3.4509 H   0  0  0  0  0  0  0  0  0  0  0  0
   60.1192   -7.1411   -2.0605 C   0  0  0  0  0  0  0  0  0  0  0  0
   58.7559   -6.7241   -1.9496 N   0  0  0  0  0  0  0  0  0  0  0  0
   58.3619   -5.3897   -1.6129 C   0  0  0  0  0  0  0  0  0  0  0  0
   59.2003   -4.4822   -1.3791 O   0  0  0  0  0  0  0  0  0  0  0  0
   58.0022   -7.4130   -2.1263 H   0  0  0  0  0  0  0  0  0  0  0  0
   56.9385   -5.0108   -1.5356 C   0  0  0  0  0  0  0  0  0  0  0  0
   56.3579   -4.9229   -0.1728 C   0  0  0  0  0  0  0  0  0  0  0  0
   55.3678   -6.0834   -0.0969 C   0  0  0  0  0  0  0  0  0  0  0  0
   55.6828   -6.9122   -1.3413 C   0  0  0  0  0  0  0  0  0  0  0  0
   56.0412   -5.8579   -2.2801 N   0  0  0  0  0  0  0  0  0  0  0  0
   55.5831   -5.7094   -3.5957 C   0  0  0  0  0  0  0  0  0  0  0  0
   54.6839   -6.7153   -4.1956 C   0  0  0  0  0  0  0  0  0  0  0  0
   55.9046   -4.7293   -4.3297 O   0  0  0  0  0  0  0  0  0  0  0  0
   60.5187   -8.1679   -1.1056 C   0  0  0  0  0  0  0  0  0  0  0  0
   61.1805   -6.6255    0.7982 C   0  0  0  0  0  0  0  0  0  0  0  0
   60.4938   -7.8817    0.3365 C   0  0  0  0  0  0  0  0  0  0  0  0
   60.9634   -9.0515    1.1900 C   0  0  0  0  0  0  0  0  0  0  0  0
   59.9768  -11.1636   -2.9992 C   0  0  0  0  0  0  0  0  0  0  0  0
   59.7377  -12.2281   -2.1867 O   0  0  0  0  0  0  0  0  0  0  0  0
   59.5837  -11.9539   -1.2660 H   0  0  0  0  0  0  0  0  0  0  0  0
   62.2159  -15.6397   -2.5816 C   0  0  0  0  0  0  0  0  0  0  0  0
   61.9337  -16.6380   -3.7609 C   0  0  0  0  0  0  0  0  0  0  0  0
   63.2181  -16.2865   -1.8763 O   0  0  0  0  0  0  0  0  0  0  0  0
   62.9787  -16.2525   -0.2027 P   0  0  0  0  0  0  0  0  0  0  0  0
   61.5247  -16.9160    0.2793 O   0  0  0  0  0  0  0  0  0  0  0  0
   63.0737  -14.6120    0.2718 O   0  0  0  0  0  0  0  0  0  0  0  0
   64.1844  -16.9149    0.4605 O   0  0  0  0  0  0  0  0  0  0  0  0
   60.8141  -16.2160    0.1592 H   0  0  0  0  0  0  0  0  0  0  0  0
   62.2501  -14.2781    0.6634 H   0  0  0  0  0  0  0  0  0  0  0  0
   63.6117   -7.5856   -8.9773 C   0  0  0  0  0  0  0  0  0  0  0  0
   63.8719   -7.8964  -10.4206 C   0  0  0  0  0  0  0  0  0  0  0  0
   63.1284   -6.8917  -11.2512 C   0  0  0  0  0  0  0  0  0  0  0  0
   63.2438   -7.0610  -12.7223 C   0  0  0  0  0  0  0  0  0  0  0  0
   63.7841   -8.3710  -13.1985 C   0  0  0  0  0  0  0  0  0  0  0  0
   64.5694   -8.2471  -14.4840 C   0  0  0  0  0  0  0  0  0  0  0  0
   64.7823   -9.5517  -15.1637 C   0  0  0  0  0  0  0  0  0  0  0  0
   64.5702   -9.5721  -16.6400 C   0  0  0  0  0  0  0  0  0  0  0  0
   63.1779   -9.6189  -17.0867 C   0  0  0  0  0  0  0  0  0  0  0  0
   62.4802   -8.5433  -17.5401 C   0  0  0  0  0  0  0  0  0  0  0  0
   61.1569   -8.6282  -17.9690 C   0  0  0  0  0  0  0  0  0  0  0  0
   60.5070   -9.8346  -17.9430 C   0  0  0  0  0  0  0  0  0  0  0  0
   61.1869  -10.9482  -17.4877 C   0  0  0  0  0  0  0  0  0  0  0  0
   62.4946  -10.8346  -17.0695 C   0  0  0  0  0  0  0  0  0  0  0  0
 46 47  1  0  0  0
 47 48  1  0  0  0
 47 45  1  0  0  0
 45 32  1  0  0  0
 32 33  1  0  0  0
 33 34  1  0  0  0
 34 35  2  0  0  0
 34 37  1  0  0  0
 37 38  1  0  0  0
 38 39  1  0  0  0
 39 40  1  0  0  0
 40 41  1  0  0  0
 41 42  1  0  0  0
 42 43  1  0  0  0
 42 44  2  0  0  0
 32 28  1  0  0  0
 28 29  2  0  0  0
 28 30  1  0  0  0
 30  1  1  0  0  0
  1  2  1  0  0  0
  2  3  1  0  0  0
  3  4  2  0  0  0
  4  5  1  0  0  0
  5  6  1  0  0  0
  6  7  1  0  0  0
  7  8  1  0  0  0
  8  9  1  0  0  0
  9 10  1  0  0  0
 10 11  1  0  0  0
 11 12  1  0  0  0
 12 13  1  0  0  0
 13 14  2  0  0  0
 13 15  1  0  0  0
 15 16  1  0  0  0
 16 17  1  0  0  0
 17 18  2  0  0  0
 17 19  1  0  0  0
 19 49  1  0  0  0
 49 50  1  0  0  0
 19 20  1  0  0  0
 20 21  1  0  0  0
 21 22  2  0  0  0
 15 52  1  0  0  0
 52 53  1  0  0  0
 52 54  1  0  0  0
 54 55  1  0  0  0
 55 56  1  0  0  0
 55 57  1  0  0  0
 55 58  2  0  0  0
  5 23  2  0  0  0
 23 24  1  0  0  0
 24 61  1  0  0  0
 61 62  1  0  0  0
 62 63  1  0  0  0
 63 64  1  0  0  0
 64 65  1  0  0  0
 65 66  1  0  0  0
 66 67  1  0  0  0
 67 68  1  0  0  0
 68 69  1  0  0  0
 69 70  2  0  0  0
 70 71  1  0  0  0
 71 72  2  0  0  0
 72 73  1  0  0  0
 73 74  2  0  0  0
 41 37  1  0  0  0
 21  1  1  0  0  0
 74 69  1  0  0  0
 24  3  1  0  0  0
 33 36  1  0  0  0
 30 31  1  0  0  0
 12 25  1  0  0  0
 16 26  1  0  0  0
 50 51  1  0  0  0
 20 27  1  0  0  0
 56 59  1  0  0  0
 57 60  1  0  0  0
M  CHG 1   5   1
M  END
> <minimizedAffinity>
-4.36630

> <CNNscore>
0.2448248267

> <CNNaffinity>
6.1617584229

> <CNN_VS>
1.5085514784

> <CNNaffinity_variance>
0.6892109513

$$$$
[H]c1c([H])c([H])c([C@]([H])(Oc2c(C(=O)N([H])[H])sc(-n3c([H])nc4c([H])c(OC([H])([H])[H])c(OC([H])([H])[H])c([H])c43)c2[H])C([H])([H])[H])c(Cl)c1[H]


 33 36  0  0  0  0  0  0  0  0999 V2000
   55.5218   -4.2636   -9.4468 C   0  0  0  0  0  0  0  0  0  0  0  0
   56.0685   -4.0100  -10.6539 C   0  0  0  0  0  0  0  0  0  0  0  0
   57.3411   -4.4337  -10.9091 C   0  0  0  0  0  0  0  0  0  0  0  0
   57.9433   -5.1077   -9.8369 C   0  0  0  0  0  0  0  0  0  0  0  0
   56.7671   -5.1002   -8.6335 S   0  0  0  0  0  0  0  0  0  0  0  0
   51.9791   -5.2210   -5.7759 C   0  0  0  0  0  0  0  0  0  0  0  0
   51.5373   -4.2667   -6.6635 C   0  0  0  0  0  0  0  0  0  0  0  0
   52.3671   -3.9008   -7.7002 C   0  0  0  0  0  0  0  0  0  0  0  0
   52.2213   -3.0046   -8.7215 N   0  0  0  0  0  0  0  0  0  0  0  0
   53.3506   -3.0241   -9.4846 C   0  0  0  0  0  0  0  0  0  0  0  0
   54.2012   -3.9069   -8.9717 N   0  0  0  0  0  0  0  0  0  0  0  0
   53.6326   -4.4512   -7.8930 C   0  0  0  0  0  0  0  0  0  0  0  0
   54.0472   -5.4064   -6.9854 C   0  0  0  0  0  0  0  0  0  0  0  0
   53.2291   -5.7815   -5.9453 C   0  0  0  0  0  0  0  0  0  0  0  0
   50.0085   -4.9041   -4.4092 C   0  0  0  0  0  0  0  0  0  0  0  0
   51.1840   -5.6404   -4.6962 O   0  0  0  0  0  0  0  0  0  0  0  0
   53.6555   -6.7531   -5.0253 O   0  0  0  0  0  0  0  0  0  0  0  0
   54.8891   -7.4138   -5.2017 C   0  0  0  0  0  0  0  0  0  0  0  0
   59.2742   -5.6931   -9.7432 C   0  0  0  0  0  0  0  0  0  0  0  0
   59.7141   -6.2676   -8.5103 N   0  0  0  0  0  0  0  0  0  0  0  0
   60.1013   -5.7399  -10.6853 O   0  0  0  0  0  0  0  0  0  0  0  0
   59.5373   -5.7287   -7.6315 H   0  0  0  0  0  0  0  0  0  0  0  0
   60.1953   -7.1930   -8.4865 H   0  0  0  0  0  0  0  0  0  0  0  0
   57.9884   -4.2457  -12.0548 O   0  0  0  0  0  0  0  0  0  0  0  0
   58.6194   -4.0692  -13.1540 C   0  0  0  0  0  0  0  0  0  0  0  0
   59.6954   -2.9629  -12.9758 C   0  0  0  0  0  0  0  0  0  0  0  0
   57.7940   -3.7180  -14.3715 C   0  0  0  0  0  0  0  0  0  0  0  0
   56.4328   -3.7877  -14.3253 C   0  0  0  0  0  0  0  0  0  0  0  0
   55.6409   -3.4695  -15.4390 C   0  0  0  0  0  0  0  0  0  0  0  0
   56.2295   -3.0746  -16.6187 C   0  0  0  0  0  0  0  0  0  0  0  0
   57.6012   -3.0043  -16.6649 C   0  0  0  0  0  0  0  0  0  0  0  0
   58.3686   -3.3211  -15.5589 C   0  0  0  0  0  0  0  0  0  0  0  0
   60.1220   -3.2141  -15.6728 Cl  0  0  0  0  0  0  0  0  0  0  0  0
 15 16  1  0  0  0
 16  6  1  0  0  0
  6  7  2  0  0  0
  7  8  1  0  0  0
  8  9  1  0  0  0
  9 10  2  0  0  0
 10 11  1  0  0  0
 11  1  1  0  0  0
  1  2  2  0  0  0
  2  3  1  0  0  0
  3 24  1  0  0  0
 24 25  1  0  0  0
 25 26  1  0  0  0
 25 27  1  0  0  0
 27 28  2  0  0  0
 28 29  1  0  0  0
 29 30  2  0  0  0
 30 31  1  0  0  0
 31 32  2  0  0  0
 32 33  1  0  0  0
  3  4  2  0  0  0
  4  5  1  0  0  0
  4 19  1  0  0  0
 19 20  1  0  0  0
 19 21  2  0  0  0
 11 12  1  0  0  0
 12 13  1  0  0  0
 13 14  2  0  0  0
 14 17  1  0  0  0
 17 18  1  0  0  0
 14  6  1  0  0  0
 12  8  2  0  0  0
  5  1  1  0  0  0
 32 27  1  0  0  0
 20 22  1  0  0  0
 20 23  1  0  0  0
M  END
> <minimizedAffinity>
-8.05861

> <CNNscore>
0.6526823044

> <CNNaffinity>
6.8389077187

> <CNN_VS>
4.4636340141

> <CNNaffinity_variance>
0.1525536329

$$$$
[H]c1c([H])c([H])c([C@]([H])(Oc2c(C(=O)N([H])[H])sc(-n3c([H])nc4c([H])c(OC([H])([H])[H])c(OC([H])([H])[H])c([H])c43)c2[H])C([H])([H])[H])c(Cl)c1[H]


 33 36  0  0  0  0  0  0  0  0999 V2000
   55.3072   -4.4788   -8.6710 C   0  0  0  0  0  0  0  0  0  0  0  0
   54.5019   -5.3244   -7.9950 C   0  0  0  0  0  0  0  0  0  0  0  0
   53.2506   -4.9089   -7.6400 C   0  0  0  0  0  0  0  0  0  0  0  0
   52.9498   -3.5992   -8.0410 C   0  0  0  0  0  0  0  0  0  0  0  0
   54.3423   -3.0805   -8.8306 S   0  0  0  0  0  0  0  0  0  0  0  0
   58.4578   -4.0759  -12.7763 C   0  0  0  0  0  0  0  0  0  0  0  0
   59.1144   -4.6062  -11.6895 C   0  0  0  0  0  0  0  0  0  0  0  0
   58.4114   -4.7768  -10.5173 C   0  0  0  0  0  0  0  0  0  0  0  0
   58.7710   -5.2661   -9.2932 N   0  0  0  0  0  0  0  0  0  0  0  0
   57.6870   -5.2189   -8.4680 C   0  0  0  0  0  0  0  0  0  0  0  0
   56.6572   -4.7139   -9.1393 N   0  0  0  0  0  0  0  0  0  0  0  0
   57.0669   -4.4380  -10.3799 C   0  0  0  0  0  0  0  0  0  0  0  0
   56.4359   -3.9081  -11.4886 C   0  0  0  0  0  0  0  0  0  0  0  0
   57.1256   -3.7322  -12.6656 C   0  0  0  0  0  0  0  0  0  0  0  0
   60.4050   -3.2918  -13.9785 C   0  0  0  0  0  0  0  0  0  0  0  0
   59.1145   -3.8752  -14.0021 O   0  0  0  0  0  0  0  0  0  0  0  0
   56.4793   -3.1930  -13.7899 O   0  0  0  0  0  0  0  0  0  0  0  0
   56.0353   -4.0332  -14.8321 C   0  0  0  0  0  0  0  0  0  0  0  0
   51.7297   -2.8284   -7.8410 C   0  0  0  0  0  0  0  0  0  0  0  0
   51.4363   -1.7241   -8.7003 N   0  0  0  0  0  0  0  0  0  0  0  0
   50.8799   -3.0563   -6.9467 O   0  0  0  0  0  0  0  0  0  0  0  0
   52.2098   -1.0527   -8.9115 H   0  0  0  0  0  0  0  0  0  0  0  0
   50.4832   -1.5915   -9.1036 H   0  0  0  0  0  0  0  0  0  0  0  0
   52.3665   -5.6454   -6.9747 O   0  0  0  0  0  0  0  0  0  0  0  0
   51.5162   -6.3486   -6.3266 C   0  0  0  0  0  0  0  0  0  0  0  0
   50.1775   -6.4185   -7.1118 C   0  0  0  0  0  0  0  0  0  0  0  0
   51.1997   -5.9139   -4.9131 C   0  0  0  0  0  0  0  0  0  0  0  0
   49.9950   -5.3456   -4.6200 C   0  0  0  0  0  0  0  0  0  0  0  0
   49.6736   -4.9312   -3.3186 C   0  0  0  0  0  0  0  0  0  0  0  0
   50.5802   -5.0916   -2.2956 C   0  0  0  0  0  0  0  0  0  0  0  0
   51.7940   -5.6643   -2.5914 C   0  0  0  0  0  0  0  0  0  0  0  0
   52.0965   -6.0680   -3.8790 C   0  0  0  0  0  0  0  0  0  0  0  0
   53.6663   -6.7960   -4.2027 Cl  0  0  0  0  0  0  0  0  0  0  0  0
 15 16  1  0  0  0
 16  6  1  0  0  0
  6  7  2  0  0  0
  7  8  1  0  0  0
  8  9  1  0  0  0
  9 10  2  0  0  0
 10 11  1  0  0  0
 11  1  1  0  0  0
  1  2  2  0  0  0
  2  3  1  0  0  0
  3 24  1  0  0  0
 24 25  1  0  0  0
 25 26  1  0  0  0
 25 27  1  0  0  0
 27 28  2  0  0  0
 28 29  1  0  0  0
 29 30  2  0  0  0
 30 31  1  0  0  0
 31 32  2  0  0  0
 32 33  1  0  0  0
  3  4  2  0  0  0
  4  5  1  0  0  0
  4 19  1  0  0  0
 19 20  1  0  0  0
 19 21  2  0  0  0
 11 12  1  0  0  0
 12 13  1  0  0  0
 13 14  2  0  0  0
 14 17  1  0  0  0
 17 18  1  0  0  0
 14  6  1  0  0  0
 12  8  2  0  0  0
  5  1  1  0  0  0
 32 27  1  0  0  0
 20 22  1  0  0  0
 20 23  1  0  0  0
M  END
> <minimizedAffinity>
-8.83782

> <CNNscore>
0.5704262257

> <CNNaffinity>
7.0302810669

> <CNN_VS>
4.0102567673

> <CNNaffinity_variance>
0.1918456703

$$$$
[H]c1c([H])c([H])c([C@]([H])(Oc2c(C(=O)N([H])[H])sc(-n3c([H])nc4c([H])c(OC([H])([H])[H])c(OC([H])([H])[H])c([H])c43)c2[H])C([H])([H])[H])c(Cl)c1[H]


 33 36  0  0  0  0  0  0  0  0999 V2000
   52.7633   -4.5054   -6.8065 C   0  0  0  0  0  0  0  0  0  0  0  0
   53.8417   -4.4725   -7.6166 C   0  0  0  0  0  0  0  0  0  0  0  0
   54.8884   -5.3120   -7.3636 C   0  0  0  0  0  0  0  0  0  0  0  0
   54.7002   -6.1368   -6.2452 C   0  0  0  0  0  0  0  0  0  0  0  0
   53.1784   -5.7079   -5.6692 S   0  0  0  0  0  0  0  0  0  0  0  0
   48.2965   -3.3769   -4.4156 C   0  0  0  0  0  0  0  0  0  0  0  0
   48.4297   -2.6716   -5.5897 C   0  0  0  0  0  0  0  0  0  0  0  0
   49.5669   -2.8613   -6.3434 C   0  0  0  0  0  0  0  0  0  0  0  0
   49.9846   -2.3230   -7.5279 N   0  0  0  0  0  0  0  0  0  0  0  0
   51.1997   -2.8533   -7.8448 C   0  0  0  0  0  0  0  0  0  0  0  0
   51.5567   -3.7093   -6.8930 N   0  0  0  0  0  0  0  0  0  0  0  0
   50.5886   -3.7335   -5.9735 C   0  0  0  0  0  0  0  0  0  0  0  0
   50.4253   -4.4268   -4.7900 C   0  0  0  0  0  0  0  0  0  0  0  0
   49.2949   -4.2472   -4.0272 C   0  0  0  0  0  0  0  0  0  0  0  0
   46.1919   -4.2627   -3.6169 C   0  0  0  0  0  0  0  0  0  0  0  0
   47.1625   -3.2313   -3.5989 O   0  0  0  0  0  0  0  0  0  0  0  0
   49.1337   -4.9545   -2.8246 O   0  0  0  0  0  0  0  0  0  0  0  0
   50.1784   -5.7567   -2.3202 C   0  0  0  0  0  0  0  0  0  0  0  0
   55.5885   -7.1431   -5.6787 C   0  0  0  0  0  0  0  0  0  0  0  0
   56.9582   -6.8218   -5.4247 N   0  0  0  0  0  0  0  0  0  0  0  0
   55.2452   -8.3127   -5.3822 O   0  0  0  0  0  0  0  0  0  0  0  0
   57.4848   -6.3110   -6.1701 H   0  0  0  0  0  0  0  0  0  0  0  0
   57.4180   -7.0873   -4.5265 H   0  0  0  0  0  0  0  0  0  0  0  0
   56.0029   -5.3745   -8.0853 O   0  0  0  0  0  0  0  0  0  0  0  0
   57.0757   -5.4444   -8.7793 C   0  0  0  0  0  0  0  0  0  0  0  0
   58.2588   -4.8177   -7.9912 C   0  0  0  0  0  0  0  0  0  0  0  0
   57.0489   -4.8104  -10.1520 C   0  0  0  0  0  0  0  0  0  0  0  0
   55.9188   -4.1965  -10.6060 C   0  0  0  0  0  0  0  0  0  0  0  0
   55.8634   -3.6011  -11.8752 C   0  0  0  0  0  0  0  0  0  0  0  0
   56.9643   -3.6242  -12.7010 C   0  0  0  0  0  0  0  0  0  0  0  0
   58.1029   -4.2429  -12.2432 C   0  0  0  0  0  0  0  0  0  0  0  0
   58.1424   -4.8254  -10.9896 C   0  0  0  0  0  0  0  0  0  0  0  0
   59.6267   -5.6048  -10.4527 Cl  0  0  0  0  0  0  0  0  0  0  0  0
 15 16  1  0  0  0
 16  6  1  0  0  0
  6  7  2  0  0  0
  7  8  1  0  0  0
  8  9  1  0  0  0
  9 10  2  0  0  0
 10 11  1  0  0  0
 11  1  1  0  0  0
  1  2  2  0  0  0
  2  3  1  0  0  0
  3 24  1  0  0  0
 24 25  1  0  0  0
 25 26  1  0  0  0
 25 27  1  0  0  0
 27 28  2  0  0  0
 28 29  1  0  0  0
 29 30  2  0  0  0
 30 31  1  0  0  0
 31 32  2  0  0  0
 32 33  1  0  0  0
  3  4  2  0  0  0
  4  5  1  0  0  0
  4 19  1  0  0  0
 19 20  1  0  0  0
 19 21  2  0  0  0
 11 12  1  0  0  0
 12 13  1  0  0  0
 13 14  2  0  0  0
 14 17  1  0  0  0
 17 18  1  0  0  0
 14  6  1  0  0  0
 12  8  2  0  0  0
  5  1  1  0  0  0
 32 27  1  0  0  0
 20 22  1  0  0  0
 20 23  1  0  0  0
M  END
> <minimizedAffinity>
-8.18428

> <CNNscore>
0.5314232707

> <CNNaffinity>
7.2796068192

> <CNN_VS>
3.8685524464

> <CNNaffinity_variance>
0.1808480918

$$$$
[H]c1c([H])c([H])c([C@]([H])(Oc2c(C(=O)N([H])[H])sc(-n3c([H])nc4c([H])c(OC([H])([H])[H])c(OC([H])([H])[H])c([H])c43)c2[H])C([H])([H])[H])c(Cl)c1[H]


 33 36  0  0  0  0  0  0  0  0999 V2000
   54.0686   -3.7586   -9.1033 C   0  0  0  0  0  0  0  0  0  0  0  0
   54.3588   -3.7228  -10.4204 C   0  0  0  0  0  0  0  0  0  0  0  0
   55.5726   -4.1811  -10.8459 C   0  0  0  0  0  0  0  0  0  0  0  0
   56.3981   -4.6508   -9.8142 C   0  0  0  0  0  0  0  0  0  0  0  0
   55.4800   -4.4324   -8.4210 S   0  0  0  0  0  0  0  0  0  0  0  0
   50.7816   -4.8328   -5.2323 C   0  0  0  0  0  0  0  0  0  0  0  0
   50.3867   -3.7149   -5.9308 C   0  0  0  0  0  0  0  0  0  0  0  0
   51.1586   -3.2982   -6.9928 C   0  0  0  0  0  0  0  0  0  0  0  0
   51.0363   -2.2516   -7.8628 N   0  0  0  0  0  0  0  0  0  0  0  0
   52.0795   -2.2877   -8.7394 C   0  0  0  0  0  0  0  0  0  0  0  0
   52.8533   -3.3271   -8.4446 N   0  0  0  0  0  0  0  0  0  0  0  0
   52.3203   -3.9550   -7.3935 C   0  0  0  0  0  0  0  0  0  0  0  0
   52.6901   -5.0737   -6.6724 C   0  0  0  0  0  0  0  0  0  0  0  0
   51.9289   -5.5011   -5.6096 C   0  0  0  0  0  0  0  0  0  0  0  0
   49.0479   -4.4676   -3.5853 C   0  0  0  0  0  0  0  0  0  0  0  0
   50.0410   -5.3123   -4.1389 O   0  0  0  0  0  0  0  0  0  0  0  0
   52.3094   -6.6391   -4.8798 O   0  0  0  0  0  0  0  0  0  0  0  0
   53.2467   -6.5368   -3.8309 C   0  0  0  0  0  0  0  0  0  0  0  0
   57.7432   -5.2057   -9.8866 C   0  0  0  0  0  0  0  0  0  0  0  0
   58.6490   -5.0218   -8.7959 N   0  0  0  0  0  0  0  0  0  0  0  0
   58.1956   -5.8564  -10.8592 O   0  0  0  0  0  0  0  0  0  0  0  0
   58.7174   -4.0666   -8.3757 H   0  0  0  0  0  0  0  0  0  0  0  0
   59.2228   -5.8129   -8.4306 H   0  0  0  0  0  0  0  0  0  0  0  0
   55.9760   -4.1985  -12.1123 O   0  0  0  0  0  0  0  0  0  0  0  0
   56.3613   -4.2062  -13.3326 C   0  0  0  0  0  0  0  0  0  0  0  0
   56.1303   -5.6119  -13.9526 C   0  0  0  0  0  0  0  0  0  0  0  0
   57.7963   -3.8131  -13.6028 C   0  0  0  0  0  0  0  0  0  0  0  0
   58.7373   -3.9211  -12.6215 C   0  0  0  0  0  0  0  0  0  0  0  0
   60.0758   -3.5628  -12.8422 C   0  0  0  0  0  0  0  0  0  0  0  0
   60.4732   -3.0878  -14.0713 C   0  0  0  0  0  0  0  0  0  0  0  0
   59.5248   -2.9792  -15.0599 C   0  0  0  0  0  0  0  0  0  0  0  0
   58.2091   -3.3364  -14.8275 C   0  0  0  0  0  0  0  0  0  0  0  0
   57.0348   -3.1772  -16.1292 Cl  0  0  0  0  0  0  0  0  0  0  0  0
 15 16  1  0  0  0
 16  6  1  0  0  0
  6  7  2  0  0  0
  7  8  1  0  0  0
  8  9  1  0  0  0
  9 10  2  0  0  0
 10 11  1  0  0  0
 11  1  1  0  0  0
  1  2  2  0  0  0
  2  3  1  0  0  0
  3 24  1  0  0  0
 24 25  1  0  0  0
 25 26  1  0  0  0
 25 27  1  0  0  0
 27 28  2  0  0  0
 28 29  1  0  0  0
 29 30  2  0  0  0
 30 31  1  0  0  0
 31 32  2  0  0  0
 32 33  1  0  0  0
  3  4  2  0  0  0
  4  5  1  0  0  0
  4 19  1  0  0  0
 19 20  1  0  0  0
 19 21  2  0  0  0
 11 12  1  0  0  0
 12 13  1  0  0  0
 13 14  2  0  0  0
 14 17  1  0  0  0
 17 18  1  0  0  0
 14  6  1  0  0  0
 12  8  2  0  0  0
  5  1  1  0  0  0
 32 27  1  0  0  0
 20 22  1  0  0  0
 20 23  1  0  0  0
M  END
> <minimizedAffinity>
-7.91127

> <CNNscore>
0.5011486411

> <CNNaffinity>
6.8957824707

> <CNN_VS>
3.4558119774

> <CNNaffinity_variance>
0.1082156524

$$$$
[H]c1c([H])c([H])c([C@]([H])(Oc2c(C(=O)N([H])[H])sc(-n3c([H])nc4c([H])c(OC([H])([H])[H])c(OC([H])([H])[H])c([H])c43)c2[H])C([H])([H])[H])c(Cl)c1[H]


 33 36  0  0  0  0  0  0  0  0999 V2000
   55.0410   -4.6863   -8.1590 C   0  0  0  0  0  0  0  0  0  0  0  0
   54.4678   -5.2494   -7.0751 C   0  0  0  0  0  0  0  0  0  0  0  0
   53.1697   -4.9477   -6.7779 C   0  0  0  0  0  0  0  0  0  0  0  0
   52.5726   -4.0519   -7.6766 C   0  0  0  0  0  0  0  0  0  0  0  0
   53.7861   -3.7202   -8.7942 S   0  0  0  0  0  0  0  0  0  0  0  0
   58.0906   -4.2060  -12.3317 C   0  0  0  0  0  0  0  0  0  0  0  0
   58.7918   -4.6877  -11.2500 C   0  0  0  0  0  0  0  0  0  0  0  0
   58.1199   -4.8712  -10.0617 C   0  0  0  0  0  0  0  0  0  0  0  0
   58.5250   -5.3234   -8.8374 N   0  0  0  0  0  0  0  0  0  0  0  0
   57.4560   -5.3126   -7.9918 C   0  0  0  0  0  0  0  0  0  0  0  0
   56.3912   -4.8666   -8.6502 N   0  0  0  0  0  0  0  0  0  0  0  0
   56.7640   -4.5925   -9.9029 C   0  0  0  0  0  0  0  0  0  0  0  0
   56.0881   -4.1104  -11.0069 C   0  0  0  0  0  0  0  0  0  0  0  0
   56.7463   -3.9222  -12.1999 C   0  0  0  0  0  0  0  0  0  0  0  0
   60.0627   -3.5629  -13.5764 C   0  0  0  0  0  0  0  0  0  0  0  0
   58.7138   -3.9954  -13.5732 O   0  0  0  0  0  0  0  0  0  0  0  0
   56.0544   -3.4318  -13.3194 O   0  0  0  0  0  0  0  0  0  0  0  0
   55.9842   -4.1901  -14.5065 C   0  0  0  0  0  0  0  0  0  0  0  0
   51.2208   -3.5085   -7.6793 C   0  0  0  0  0  0  0  0  0  0  0  0
   51.0159   -2.1106   -7.8977 N   0  0  0  0  0  0  0  0  0  0  0  0
   50.1793   -4.1845   -7.5000 O   0  0  0  0  0  0  0  0  0  0  0  0
   51.6304   -1.4416   -7.3794 H   0  0  0  0  0  0  0  0  0  0  0  0
   50.2786   -1.7681   -8.5518 H   0  0  0  0  0  0  0  0  0  0  0  0
   52.4952   -5.4352   -5.7415 O   0  0  0  0  0  0  0  0  0  0  0  0
   51.8500   -5.9133   -4.7452 C   0  0  0  0  0  0  0  0  0  0  0  0
   50.5132   -5.1436   -4.5607 C   0  0  0  0  0  0  0  0  0  0  0  0
   52.5605   -5.9301   -3.4103 C   0  0  0  0  0  0  0  0  0  0  0  0
   52.0592   -5.2288   -2.3535 C   0  0  0  0  0  0  0  0  0  0  0  0
   52.6970   -5.2242   -1.1038 C   0  0  0  0  0  0  0  0  0  0  0  0
   53.8587   -5.9377   -0.9152 C   0  0  0  0  0  0  0  0  0  0  0  0
   54.3635   -6.6444   -1.9803 C   0  0  0  0  0  0  0  0  0  0  0  0
   53.7236   -6.6394   -3.2063 C   0  0  0  0  0  0  0  0  0  0  0  0
   54.4136   -7.5620   -4.5373 Cl  0  0  0  0  0  0  0  0  0  0  0  0
 15 16  1  0  0  0
 16  6  1  0  0  0
  6  7  2  0  0  0
  7  8  1  0  0  0
  8  9  1  0  0  0
  9 10  2  0  0  0
 10 11  1  0  0  0
 11  1  1  0  0  0
  1  2  2  0  0  0
  2  3  1  0  0  0
  3 24  1  0  0  0
 24 25  1  0  0  0
 25 26  1  0  0  0
 25 27  1  0  0  0
 27 28  2  0  0  0
 28 29  1  0  0  0
 29 30  2  0  0  0
 30 31  1  0  0  0
 31 32  2  0  0  0
 32 33  1  0  0  0
  3  4  2  0  0  0
  4  5  1  0  0  0
  4 19  1  0  0  0
 19 20  1  0  0  0
 19 21  2  0  0  0
 11 12  1  0  0  0
 12 13  1  0  0  0
 13 14  2  0  0  0
 14 17  1  0  0  0
 17 18  1  0  0  0
 14  6  1  0  0  0
 12  8  2  0  0  0
  5  1  1  0  0  0
 32 27  1  0  0  0
 20 22  1  0  0  0
 20 23  1  0  0  0
M  END
> <minimizedAffinity>
-8.78072

> <CNNscore>
0.4290452898

> <CNNaffinity>
6.9630975723

> <CNN_VS>
2.9874842167

> <CNNaffinity_variance>
0.2493078411

$$$$
[H]c1c([H])c([H])c([C@]([H])(Oc2c(C(=O)N([H])[H])sc(-n3c([H])nc4c([H])c(OC([H])([H])[H])c(OC([H])([H])[H])c([H])c43)c2[H])C([H])([H])[H])c(Cl)c1[H]


 33 36  0  0  0  0  0  0  0  0999 V2000
   52.7625   -4.2317   -6.9538 C   0  0  0  0  0  0  0  0  0  0  0  0
   53.4446   -5.0172   -6.0948 C   0  0  0  0  0  0  0  0  0  0  0  0
   54.7037   -5.4280   -6.4268 C   0  0  0  0  0  0  0  0  0  0  0  0
   55.1458   -4.9603   -7.6728 C   0  0  0  0  0  0  0  0  0  0  0  0
   53.8577   -4.0436   -8.2488 S   0  0  0  0  0  0  0  0  0  0  0  0
   48.5615   -4.2098   -3.9054 C   0  0  0  0  0  0  0  0  0  0  0  0
   48.3871   -3.4031   -5.0065 C   0  0  0  0  0  0  0  0  0  0  0  0
   49.4171   -3.3021   -5.9154 C   0  0  0  0  0  0  0  0  0  0  0  0
   49.5488   -2.6006   -7.0807 N   0  0  0  0  0  0  0  0  0  0  0  0
   50.7822   -2.8506   -7.6044 C   0  0  0  0  0  0  0  0  0  0  0  0
   51.4286   -3.6890   -6.8011 N   0  0  0  0  0  0  0  0  0  0  0  0
   50.6272   -3.9780   -5.7729 C   0  0  0  0  0  0  0  0  0  0  0  0
   50.7714   -4.7798   -4.6573 C   0  0  0  0  0  0  0  0  0  0  0  0
   49.7513   -4.8901   -3.7415 C   0  0  0  0  0  0  0  0  0  0  0  0
   46.2282   -4.0066   -3.3001 C   0  0  0  0  0  0  0  0  0  0  0  0
   47.5521   -4.3582   -2.9394 O   0  0  0  0  0  0  0  0  0  0  0  0
   49.9031   -5.7066   -2.6089 O   0  0  0  0  0  0  0  0  0  0  0  0
   51.1833   -6.1378   -2.2034 C   0  0  0  0  0  0  0  0  0  0  0  0
   56.4156   -5.1905   -8.3490 C   0  0  0  0  0  0  0  0  0  0  0  0
   57.5625   -5.5886   -7.5940 N   0  0  0  0  0  0  0  0  0  0  0  0
   56.5998   -5.0656   -9.5837 O   0  0  0  0  0  0  0  0  0  0  0  0
   57.7605   -5.0773   -6.7033 H   0  0  0  0  0  0  0  0  0  0  0  0
   58.1816   -6.3628   -7.9193 H   0  0  0  0  0  0  0  0  0  0  0  0
   55.4747   -6.2009   -5.6686 O   0  0  0  0  0  0  0  0  0  0  0  0
   56.2097   -6.9460   -4.9322 C   0  0  0  0  0  0  0  0  0  0  0  0
   55.3990   -8.1808   -4.4511 C   0  0  0  0  0  0  0  0  0  0  0  0
   56.8381   -6.3043   -3.7156 C   0  0  0  0  0  0  0  0  0  0  0  0
   56.1917   -5.3027   -3.0530 C   0  0  0  0  0  0  0  0  0  0  0  0
   56.7502   -4.6875   -1.9224 C   0  0  0  0  0  0  0  0  0  0  0  0
   57.9800   -5.0875   -1.4513 C   0  0  0  0  0  0  0  0  0  0  0  0
   58.6310   -6.0968   -2.1192 C   0  0  0  0  0  0  0  0  0  0  0  0
   58.0678   -6.6938   -3.2323 C   0  0  0  0  0  0  0  0  0  0  0  0
   58.9449   -7.9824   -4.0502 Cl  0  0  0  0  0  0  0  0  0  0  0  0
 15 16  1  0  0  0
 16  6  1  0  0  0
  6  7  2  0  0  0
  7  8  1  0  0  0
  8  9  1  0  0  0
  9 10  2  0  0  0
 10 11  1  0  0  0
 11  1  1  0  0  0
  1  2  2  0  0  0
  2  3  1  0  0  0
  3 24  1  0  0  0
 24 25  1  0  0  0
 25 26  1  0  0  0
 25 27  1  0  0  0
 27 28  2  0  0  0
 28 29  1  0  0  0
 29 30  2  0  0  0
 30 31  1  0  0  0
 31 32  2  0  0  0
 32 33  1  0  0  0
  3  4  2  0  0  0
  4  5  1  0  0  0
  4 19  1  0  0  0
 19 20  1  0  0  0
 19 21  2  0  0  0
 11 12  1  0  0  0
 12 13  1  0  0  0
 13 14  2  0  0  0
 14 17  1  0  0  0
 17 18  1  0  0  0
 14  6  1  0  0  0
 12  8  2  0  0  0
  5  1  1  0  0  0
 32 27  1  0  0  0
 20 22  1  0  0  0
 20 23  1  0  0  0
M  END
> <minimizedAffinity>
-7.94070

> <CNNscore>
0.4177278280

> <CNNaffinity>
7.0633249283

> <CNN_VS>
2.9505474567

> <CNNaffinity_variance>
0.1595552862

$$$$
[H]c1c([H])c([H])c([C@]([H])(Oc2c(C(=O)N([H])[H])sc(-n3c([H])nc4c([H])c(OC([H])([H])[H])c(OC([H])([H])[H])c([H])c43)c2[H])C([H])([H])[H])c(Cl)c1[H]


 33 36  0  0  0  0  0  0  0  0999 V2000
   52.0320   -4.0777   -7.1096 C   0  0  0  0  0  0  0  0  0  0  0  0
   52.2424   -4.9321   -6.0869 C   0  0  0  0  0  0  0  0  0  0  0  0
   51.3107   -5.0204   -5.0926 C   0  0  0  0  0  0  0  0  0  0  0  0
   50.2062   -4.1746   -5.2698 C   0  0  0  0  0  0  0  0  0  0  0  0
   50.5290   -3.3734   -6.7139 S   0  0  0  0  0  0  0  0  0  0  0  0
   56.8411   -4.6587   -8.9744 C   0  0  0  0  0  0  0  0  0  0  0  0
   56.0220   -4.0310   -9.8847 C   0  0  0  0  0  0  0  0  0  0  0  0
   54.7087   -3.8030   -9.5374 C   0  0  0  0  0  0  0  0  0  0  0  0
   53.6703   -3.2168  -10.2047 N   0  0  0  0  0  0  0  0  0  0  0  0
   52.5664   -3.2434   -9.4054 C   0  0  0  0  0  0  0  0  0  0  0  0
   52.8822   -3.8296   -8.2553 N   0  0  0  0  0  0  0  0  0  0  0  0
   54.1704   -4.1776   -8.3080 C   0  0  0  0  0  0  0  0  0  0  0  0
   55.0179   -4.8055   -7.4161 C   0  0  0  0  0  0  0  0  0  0  0  0
   56.3315   -5.0397   -7.7495 C   0  0  0  0  0  0  0  0  0  0  0  0
   58.5194   -5.3518  -10.5728 C   0  0  0  0  0  0  0  0  0  0  0  0
   58.1905   -4.9221   -9.2638 O   0  0  0  0  0  0  0  0  0  0  0  0
   57.1890   -5.6785   -6.8390 O   0  0  0  0  0  0  0  0  0  0  0  0
   56.6903   -6.1868   -5.6215 C   0  0  0  0  0  0  0  0  0  0  0  0
   49.0320   -3.9984   -4.4254 C   0  0  0  0  0  0  0  0  0  0  0  0
   48.2922   -2.7763   -4.4808 N   0  0  0  0  0  0  0  0  0  0  0  0
   48.5948   -4.8573   -3.6223 O   0  0  0  0  0  0  0  0  0  0  0  0
   48.8312   -1.8801   -4.4732 H   0  0  0  0  0  0  0  0  0  0  0  0
   47.2499   -2.7772   -4.5274 H   0  0  0  0  0  0  0  0  0  0  0  0
   51.4022   -5.8209   -4.0354 O   0  0  0  0  0  0  0  0  0  0  0  0
   51.4810   -6.5897   -3.0155 C   0  0  0  0  0  0  0  0  0  0  0  0
   50.4678   -6.1348   -1.9292 C   0  0  0  0  0  0  0  0  0  0  0  0
   52.8358   -6.7207   -2.3565 C   0  0  0  0  0  0  0  0  0  0  0  0
   53.7402   -5.7025   -2.4311 C   0  0  0  0  0  0  0  0  0  0  0  0
   55.0051   -5.7958   -1.8312 C   0  0  0  0  0  0  0  0  0  0  0  0
   55.3652   -6.9330   -1.1448 C   0  0  0  0  0  0  0  0  0  0  0  0
   54.4536   -7.9587   -1.0698 C   0  0  0  0  0  0  0  0  0  0  0  0
   53.2105   -7.8523   -1.6662 C   0  0  0  0  0  0  0  0  0  0  0  0
   52.0808   -9.1964   -1.5394 Cl  0  0  0  0  0  0  0  0  0  0  0  0
 15 16  1  0  0  0
 16  6  1  0  0  0
  6  7  2  0  0  0
  7  8  1  0  0  0
  8  9  1  0  0  0
  9 10  2  0  0  0
 10 11  1  0  0  0
 11  1  1  0  0  0
  1  2  2  0  0  0
  2  3  1  0  0  0
  3 24  1  0  0  0
 24 25  1  0  0  0
 25 26  1  0  0  0
 25 27  1  0  0  0
 27 28  2  0  0  0
 28 29  1  0  0  0
 29 30  2  0  0  0
 30 31  1  0  0  0
 31 32  2  0  0  0
 32 33  1  0  0  0
  3  4  2  0  0  0
  4  5  1  0  0  0
  4 19  1  0  0  0
 19 20  1  0  0  0
 19 21  2  0  0  0
 11 12  1  0  0  0
 12 13  1  0  0  0
 13 14  2  0  0  0
 14 17  1  0  0  0
 17 18  1  0  0  0
 14  6  1  0  0  0
 12  8  2  0  0  0
  5  1  1  0  0  0
 32 27  1  0  0  0
 20 22  1  0  0  0
 20 23  1  0  0  0
M  END
> <minimizedAffinity>
-8.27627

> <CNNscore>
0.4087205827

> <CNNaffinity>
7.3431768417

> <CNN_VS>
3.0013074875

> <CNNaffinity_variance>
0.2923336029

$$$$
[H]c1c([H])c([H])c([C@]([H])(Oc2c(C(=O)N([H])[H])sc(-n3c([H])nc4c([H])c(OC([H])([H])[H])c(OC([H])([H])[H])c([H])c43)c2[H])C([H])([H])[H])c(Cl)c1[H]


 33 36  0  0  0  0  0  0  0  0999 V2000
   53.2312   -4.9123   -6.4208 C   0  0  0  0  0  0  0  0  0  0  0  0
   54.2047   -5.4888   -5.6857 C   0  0  0  0  0  0  0  0  0  0  0  0
   53.8859   -6.0441   -4.4798 C   0  0  0  0  0  0  0  0  0  0  0  0
   52.5281   -5.9395   -4.1452 C   0  0  0  0  0  0  0  0  0  0  0  0
   51.8438   -5.1284   -5.4511 S   0  0  0  0  0  0  0  0  0  0  0  0
   56.3481   -4.2735  -10.5219 C   0  0  0  0  0  0  0  0  0  0  0  0
   55.1660   -3.5865  -10.6778 C   0  0  0  0  0  0  0  0  0  0  0  0
   54.2290   -3.6563   -9.6706 C   0  0  0  0  0  0  0  0  0  0  0  0
   52.9885   -3.1008   -9.5295 N   0  0  0  0  0  0  0  0  0  0  0  0
   52.4700   -3.4882   -8.3299 C   0  0  0  0  0  0  0  0  0  0  0  0
   53.3495   -4.2710   -7.7138 N   0  0  0  0  0  0  0  0  0  0  0  0
   54.4213   -4.3895   -8.5014 C   0  0  0  0  0  0  0  0  0  0  0  0
   55.6179   -5.0679   -8.3749 C   0  0  0  0  0  0  0  0  0  0  0  0
   56.5626   -5.0072   -9.3726 C   0  0  0  0  0  0  0  0  0  0  0  0
   56.9833   -3.8243  -12.8125 C   0  0  0  0  0  0  0  0  0  0  0  0
   57.3467   -4.2455  -11.5099 O   0  0  0  0  0  0  0  0  0  0  0  0
   57.7776   -5.6989   -9.2390 O   0  0  0  0  0  0  0  0  0  0  0  0
   58.7760   -5.2293   -8.3603 C   0  0  0  0  0  0  0  0  0  0  0  0
   51.8305   -6.4085   -2.9552 C   0  0  0  0  0  0  0  0  0  0  0  0
   51.5565   -5.5000   -1.8859 N   0  0  0  0  0  0  0  0  0  0  0  0
   51.4329   -7.5851   -2.7781 O   0  0  0  0  0  0  0  0  0  0  0  0
   52.3279   -4.8648   -1.5771 H   0  0  0  0  0  0  0  0  0  0  0  0
   50.6193   -5.4705   -1.4284 H   0  0  0  0  0  0  0  0  0  0  0  0
   54.7517   -6.6391   -3.6654 O   0  0  0  0  0  0  0  0  0  0  0  0
   55.5783   -7.2180   -2.8786 C   0  0  0  0  0  0  0  0  0  0  0  0
   54.8237   -7.7993   -1.6513 C   0  0  0  0  0  0  0  0  0  0  0  0
   56.7309   -6.3875   -2.3604 C   0  0  0  0  0  0  0  0  0  0  0  0
   56.5529   -5.0672   -2.0683 C   0  0  0  0  0  0  0  0  0  0  0  0
   57.6036   -4.2712   -1.5876 C   0  0  0  0  0  0  0  0  0  0  0  0
   58.8541   -4.8137   -1.3977 C   0  0  0  0  0  0  0  0  0  0  0  0
   59.0331   -6.1441   -1.6921 C   0  0  0  0  0  0  0  0  0  0  0  0
   57.9879   -6.9162   -2.1652 C   0  0  0  0  0  0  0  0  0  0  0  0
   58.2722   -8.6154   -2.5265 Cl  0  0  0  0  0  0  0  0  0  0  0  0
 15 16  1  0  0  0
 16  6  1  0  0  0
  6  7  2  0  0  0
  7  8  1  0  0  0
  8  9  1  0  0  0
  9 10  2  0  0  0
 10 11  1  0  0  0
 11  1  1  0  0  0
  1  2  2  0  0  0
  2  3  1  0  0  0
  3 24  1  0  0  0
 24 25  1  0  0  0
 25 26  1  0  0  0
 25 27  1  0  0  0
 27 28  2  0  0  0
 28 29  1  0  0  0
 29 30  2  0  0  0
 30 31  1  0  0  0
 31 32  2  0  0  0
 32 33  1  0  0  0
  3  4  2  0  0  0
  4  5  1  0  0  0
  4 19  1  0  0  0
 19 20  1  0  0  0
 19 21  2  0  0  0
 11 12  1  0  0  0
 12 13  1  0  0  0
 13 14  2  0  0  0
 14 17  1  0  0  0
 17 18  1  0  0  0
 14  6  1  0  0  0
 12  8  2  0  0  0
  5  1  1  0  0  0
 32 27  1  0  0  0
 20 22  1  0  0  0
 20 23  1  0  0  0
M  END
> <minimizedAffinity>
-7.33789

> <CNNscore>
0.3515087366

> <CNNaffinity>
6.9035658836

> <CNN_VS>
2.4266636372

> <CNNaffinity_variance>
0.1928793639

$$$$
[H]c1c([H])c([H])c([C@]([H])(Oc2c(C(=O)N([H])[H])sc(-n3c([H])nc4c([H])c(OC([H])([H])[H])c(OC([H])([H])[H])c([H])c43)c2[H])C([H])([H])[H])c(Cl)c1[H]


 33 36  0  0  0  0  0  0  0  0999 V2000
   54.8861   -5.2603   -6.3731 C   0  0  0  0  0  0  0  0  0  0  0  0
   55.8799   -5.4640   -5.4836 C   0  0  0  0  0  0  0  0  0  0  0  0
   55.6157   -6.1632   -4.3410 C   0  0  0  0  0  0  0  0  0  0  0  0
   54.2872   -6.5991   -4.2338 C   0  0  0  0  0  0  0  0  0  0  0  0
   53.5553   -6.0382   -5.6413 S   0  0  0  0  0  0  0  0  0  0  0  0
   57.6572   -4.6648  -10.7216 C   0  0  0  0  0  0  0  0  0  0  0  0
   56.5414   -3.8593  -10.7229 C   0  0  0  0  0  0  0  0  0  0  0  0
   55.6998   -3.9026   -9.6333 C   0  0  0  0  0  0  0  0  0  0  0  0
   54.5406   -3.2409   -9.3409 N   0  0  0  0  0  0  0  0  0  0  0  0
   54.0992   -3.6519   -8.1184 C   0  0  0  0  0  0  0  0  0  0  0  0
   54.9482   -4.5528   -7.6351 N   0  0  0  0  0  0  0  0  0  0  0  0
   55.9246   -4.7233   -8.5300 C   0  0  0  0  0  0  0  0  0  0  0  0
   57.0528   -5.5198   -8.5588 C   0  0  0  0  0  0  0  0  0  0  0  0
   57.9020   -5.4869   -9.6402 C   0  0  0  0  0  0  0  0  0  0  0  0
   58.3210   -3.7716  -12.8695 C   0  0  0  0  0  0  0  0  0  0  0  0
   58.5573   -4.6702  -11.8004 O   0  0  0  0  0  0  0  0  0  0  0  0
   59.0477   -6.2988   -9.6645 O   0  0  0  0  0  0  0  0  0  0  0  0
   60.1358   -6.0276   -8.8091 C   0  0  0  0  0  0  0  0  0  0  0  0
   53.6474   -7.3614   -3.1697 C   0  0  0  0  0  0  0  0  0  0  0  0
   54.2805   -8.5354   -2.6552 N   0  0  0  0  0  0  0  0  0  0  0  0
   52.5470   -7.0678   -2.6436 O   0  0  0  0  0  0  0  0  0  0  0  0
   54.6783   -9.2152   -3.3433 H   0  0  0  0  0  0  0  0  0  0  0  0
   54.3442   -8.7093   -1.6284 H   0  0  0  0  0  0  0  0  0  0  0  0
   56.5063   -6.4291   -3.3907 O   0  0  0  0  0  0  0  0  0  0  0  0
   57.3575   -6.6817   -2.4692 C   0  0  0  0  0  0  0  0  0  0  0  0
   58.1282   -5.3871   -2.0900 C   0  0  0  0  0  0  0  0  0  0  0  0
   58.3790   -7.7599   -2.7537 C   0  0  0  0  0  0  0  0  0  0  0  0
   59.2482   -7.6283   -3.7964 C   0  0  0  0  0  0  0  0  0  0  0  0
   60.2055   -8.6125   -4.0857 C   0  0  0  0  0  0  0  0  0  0  0  0
   60.2889   -9.7478   -3.3122 C   0  0  0  0  0  0  0  0  0  0  0  0
   59.4129   -9.8800   -2.2616 C   0  0  0  0  0  0  0  0  0  0  0  0
   58.4746   -8.9014   -1.9887 C   0  0  0  0  0  0  0  0  0  0  0  0
   57.3765   -9.1214   -0.6305 Cl  0  0  0  0  0  0  0  0  0  0  0  0
 15 16  1  0  0  0
 16  6  1  0  0  0
  6  7  2  0  0  0
  7  8  1  0  0  0
  8  9  1  0  0  0
  9 10  2  0  0  0
 10 11  1  0  0  0
 11  1  1  0  0  0
  1  2  2  0  0  0
  2  3  1  0  0  0
  3 24  1  0  0  0
 24 25  1  0  0  0
 25 26  1  0  0  0
 25 27  1  0  0  0
 27 28  2  0  0  0
 28 29  1  0  0  0
 29 30  2  0  0  0
 30 31  1  0  0  0
 31 32  2  0  0  0
 32 33  1  0  0  0
  3  4  2  0  0  0
  4  5  1  0  0  0
  4 19  1  0  0  0
 19 20  1  0  0  0
 19 21  2  0  0  0
 11 12  1  0  0  0
 12 13  1  0  0  0
 13 14  2  0  0  0
 14 17  1  0  0  0
 17 18  1  0  0  0
 14  6  1  0  0  0
 12  8  2  0  0  0
  5  1  1  0  0  0
 32 27  1  0  0  0
 20 22  1  0  0  0
 20 23  1  0  0  0
M  END
> <minimizedAffinity>
-7.31131

> <CNNscore>
0.3311388493

> <CNNaffinity>
6.4465599060

> <CNN_VS>
2.1347064972

> <CNNaffinity_variance>
0.2724056840

$$$$
[H]c1nc(N([H])c2c([H])c([H])c(S(=O)(=O)N([H])[H])c([H])c2[H])nc2c1N(C([H])([H])[H])C(=O)[C@@]([H])(C([H])([H])C([H])([H])[H])N2C1([H])C([H])([H])C([H])([H])C([H])([H])C1([H])[H]


 33 36  0  0  0  0  0  0  0  0999 V2000
   51.6028   -5.4683   -5.6528 C   0  0  0  0  0  0  0  0  0  0  0  0
   52.8938   -5.0511   -6.2251 N   0  0  0  0  0  0  0  0  0  0  0  0
   52.9527   -4.1888   -7.3708 C   0  0  0  0  0  0  0  0  0  0  0  0
   54.0098   -4.1642   -8.1922 N   0  0  0  0  0  0  0  0  0  0  0  0
   54.0536   -3.3529   -9.2912 C   0  0  0  0  0  0  0  0  0  0  0  0
   52.9758   -2.5925   -9.4862 N   0  0  0  0  0  0  0  0  0  0  0  0
   51.8823   -2.5571   -8.7176 C   0  0  0  0  0  0  0  0  0  0  0  0
   51.8442   -3.3736   -7.6174 C   0  0  0  0  0  0  0  0  0  0  0  0
   50.6984   -3.3867   -6.7864 N   0  0  0  0  0  0  0  0  0  0  0  0
   49.6023   -2.5087   -7.1109 C   0  0  0  0  0  0  0  0  0  0  0  0
   50.6842   -4.2797   -5.6511 C   0  0  0  0  0  0  0  0  0  0  0  0
   49.9164   -4.0432   -4.7073 O   0  0  0  0  0  0  0  0  0  0  0  0
   54.1394   -5.5201   -5.6699 C   0  0  0  0  0  0  0  0  0  0  0  0
   54.4112   -6.9076   -6.2936 C   0  0  0  0  0  0  0  0  0  0  0  0
   55.5298   -7.3640   -5.3431 C   0  0  0  0  0  0  0  0  0  0  0  0
   54.9160   -7.1171   -3.9958 C   0  0  0  0  0  0  0  0  0  0  0  0
   54.0516   -5.8963   -4.2000 C   0  0  0  0  0  0  0  0  0  0  0  0
   49.9601   -6.4657   -7.2988 C   0  0  0  0  0  0  0  0  0  0  0  0
   51.0345   -6.6804   -6.2844 C   0  0  0  0  0  0  0  0  0  0  0  0
   55.2078   -3.3978  -10.1169 N   0  0  0  0  0  0  0  0  0  0  0  0
   55.1741   -2.7867  -11.0024 H   0  0  0  0  0  0  0  0  0  0  0  0
   56.3741   -4.1429   -9.9249 C   0  0  0  0  0  0  0  0  0  0  0  0
   56.8268   -4.6609   -8.7339 C   0  0  0  0  0  0  0  0  0  0  0  0
   58.0157   -5.3729   -8.6406 C   0  0  0  0  0  0  0  0  0  0  0  0
   58.8056   -5.5982   -9.7402 C   0  0  0  0  0  0  0  0  0  0  0  0
   58.3808   -5.0947  -10.9422 C   0  0  0  0  0  0  0  0  0  0  0  0
   57.2073   -4.3940  -11.0234 C   0  0  0  0  0  0  0  0  0  0  0  0
   60.3036   -6.5002   -9.5968 S   0  0  0  0  0  0  0  0  0  0  0  0
   60.0188   -8.1938   -9.7704 N   0  0  0  0  0  0  0  0  0  0  0  0
   61.2322   -6.0552  -10.6770 O   0  0  0  0  0  0  0  0  0  0  0  0
   60.9241   -6.2674   -8.2463 O   0  0  0  0  0  0  0  0  0  0  0  0
   60.2838   -8.5323  -10.7223 H   0  0  0  0  0  0  0  0  0  0  0  0
   59.0275   -8.4222   -9.5303 H   0  0  0  0  0  0  0  0  0  0  0  0
 18 19  1  0  0  0
 19  1  1  0  0  0
  1  2  1  0  0  0
  2 13  1  0  0  0
 13 14  1  0  0  0
 14 15  1  0  0  0
 15 16  1  0  0  0
 16 17  1  0  0  0
  2  3  1  0  0  0
  3  4  2  0  0  0
  4  5  1  0  0  0
  5 20  1  0  0  0
 20 22  1  0  0  0
 22 23  2  0  0  0
 23 24  1  0  0  0
 24 25  2  0  0  0
 25 26  1  0  0  0
 26 27  2  0  0  0
 25 28  1  0  0  0
 28 29  1  0  0  0
 28 30  2  0  0  0
 28 31  2  0  0  0
  5  6  2  0  0  0
  6  7  1  0  0  0
  7  8  2  0  0  0
  8  9  1  0  0  0
  9 10  1  0  0  0
  9 11  1  0  0  0
 11 12  2  0  0  0
 11  1  1  0  0  0
 17 13  1  0  0  0
  8  3  1  0  0  0
 27 22  1  0  0  0
 20 21  1  0  0  0
 29 32  1  0  0  0
 29 33  1  0  0  0
M  END
> <minimizedAffinity>
-10.60679

> <CNNscore>
0.9913229346

> <CNNaffinity>
8.0724534988

> <CNN_VS>
8.0024080276

> <CNNaffinity_variance>
0.0504296906

$$$$
[H]c1nc(N([H])c2c([H])c([H])c(S(=O)(=O)N([H])[H])c([H])c2[H])nc2c1N(C([H])([H])[H])C(=O)[C@@]([H])(C([H])([H])C([H])([H])[H])N2C1([H])C([H])([H])C([H])([H])C([H])([H])C1([H])[H]


 33 36  0  0  0  0  0  0  0  0999 V2000
   52.1633   -5.5628   -6.3503 C   0  0  0  0  0  0  0  0  0  0  0  0
   53.5832   -5.4462   -6.7224 N   0  0  0  0  0  0  0  0  0  0  0  0
   53.9896   -4.6770   -7.8639 C   0  0  0  0  0  0  0  0  0  0  0  0
   55.1389   -4.9106   -8.5098 N   0  0  0  0  0  0  0  0  0  0  0  0
   55.5131   -4.1857   -9.6064 C   0  0  0  0  0  0  0  0  0  0  0  0
   54.6579   -3.2353   -9.9849 N   0  0  0  0  0  0  0  0  0  0  0  0
   53.4937   -2.9386   -9.3982 C   0  0  0  0  0  0  0  0  0  0  0  0
   53.1237   -3.6697   -8.2995 C   0  0  0  0  0  0  0  0  0  0  0  0
   51.8896   -3.4063   -7.6582 N   0  0  0  0  0  0  0  0  0  0  0  0
   51.0603   -2.3443   -8.1702 C   0  0  0  0  0  0  0  0  0  0  0  0
   51.5216   -4.2151   -6.5193 C   0  0  0  0  0  0  0  0  0  0  0  0
   50.6880   -3.7777   -5.7131 O   0  0  0  0  0  0  0  0  0  0  0  0
   54.6076   -6.1258   -5.9685 C   0  0  0  0  0  0  0  0  0  0  0  0
   53.9325   -6.6703   -4.6895 C   0  0  0  0  0  0  0  0  0  0  0  0
   55.2033   -7.0178   -3.8974 C   0  0  0  0  0  0  0  0  0  0  0  0
   55.9910   -5.7439   -3.9946 C   0  0  0  0  0  0  0  0  0  0  0  0
   55.6376   -5.1919   -5.3546 C   0  0  0  0  0  0  0  0  0  0  0  0
   49.9781   -6.5232   -7.1900 C   0  0  0  0  0  0  0  0  0  0  0  0
   51.4561   -6.6679   -7.0357 C   0  0  0  0  0  0  0  0  0  0  0  0
   56.7425   -4.5072  -10.2398 N   0  0  0  0  0  0  0  0  0  0  0  0
   57.4561   -5.0390   -9.6343 H   0  0  0  0  0  0  0  0  0  0  0  0
   57.1404   -4.2104  -11.5458 C   0  0  0  0  0  0  0  0  0  0  0  0
   58.4322   -4.0594  -11.9930 C   0  0  0  0  0  0  0  0  0  0  0  0
   58.7265   -3.7412  -13.3126 C   0  0  0  0  0  0  0  0  0  0  0  0
   57.7360   -3.5602  -14.2453 C   0  0  0  0  0  0  0  0  0  0  0  0
   56.4377   -3.7044  -13.8302 C   0  0  0  0  0  0  0  0  0  0  0  0
   56.1582   -4.0180  -12.5270 C   0  0  0  0  0  0  0  0  0  0  0  0
   58.1330   -3.1582  -15.9063 S   0  0  0  0  0  0  0  0  0  0  0  0
   59.1234   -1.7461  -15.9757 N   0  0  0  0  0  0  0  0  0  0  0  0
   58.8817   -4.3012  -16.5064 O   0  0  0  0  0  0  0  0  0  0  0  0
   56.8781   -2.8870  -16.6903 O   0  0  0  0  0  0  0  0  0  0  0  0
   60.1268   -1.9882  -16.1351 H   0  0  0  0  0  0  0  0  0  0  0  0
   58.9875   -1.1643  -15.1180 H   0  0  0  0  0  0  0  0  0  0  0  0
 18 19  1  0  0  0
 19  1  1  0  0  0
  1  2  1  0  0  0
  2 13  1  0  0  0
 13 14  1  0  0  0
 14 15  1  0  0  0
 15 16  1  0  0  0
 16 17  1  0  0  0
  2  3  1  0  0  0
  3  4  2  0  0  0
  4  5  1  0  0  0
  5 20  1  0  0  0
 20 22  1  0  0  0
 22 23  2  0  0  0
 23 24  1  0  0  0
 24 25  2  0  0  0
 25 26  1  0  0  0
 26 27  2  0  0  0
 25 28  1  0  0  0
 28 29  1  0  0  0
 28 30  2  0  0  0
 28 31  2  0  0  0
  5  6  2  0  0  0
  6  7  1  0  0  0
  7  8  2  0  0  0
  8  9  1  0  0  0
  9 10  1  0  0  0
  9 11  1  0  0  0
 11 12  2  0  0  0
 11  1  1  0  0  0
 17 13  1  0  0  0
  8  3  1  0  0  0
 27 22  1  0  0  0
 20 21  1  0  0  0
 29 32  1  0  0  0
 29 33  1  0  0  0
M  END
> <minimizedAffinity>
-8.85185

> <CNNscore>
0.8023794293

> <CNNaffinity>
7.4454069138

> <CNN_VS>
5.9740414619

> <CNNaffinity_variance>
0.1070965156

$$$$
[H]c1nc(N([H])c2c([H])c([H])c(S(=O)(=O)N([H])[H])c([H])c2[H])nc2c1N(C([H])([H])[H])C(=O)[C@@]([H])(C([H])([H])C([H])([H])[H])N2C1([H])C([H])([H])C([H])([H])C([H])([H])C1([H])[H]


 33 36  0  0  0  0  0  0  0  0999 V2000
   50.9014   -5.1986   -6.1119 C   0  0  0  0  0  0  0  0  0  0  0  0
   52.3642   -5.3646   -6.1412 N   0  0  0  0  0  0  0  0  0  0  0  0
   53.1611   -4.7381   -7.1572 C   0  0  0  0  0  0  0  0  0  0  0  0
   54.3616   -5.2105   -7.5154 N   0  0  0  0  0  0  0  0  0  0  0  0
   55.1090   -4.6195   -8.4952 C   0  0  0  0  0  0  0  0  0  0  0  0
   54.5613   -3.5458   -9.0655 N   0  0  0  0  0  0  0  0  0  0  0  0
   53.3722   -3.0114   -8.7684 C   0  0  0  0  0  0  0  0  0  0  0  0
   52.6271   -3.6092   -7.7855 C   0  0  0  0  0  0  0  0  0  0  0  0
   51.3525   -3.0922   -7.4518 N   0  0  0  0  0  0  0  0  0  0  0  0
   50.8815   -1.9200   -8.1459 C   0  0  0  0  0  0  0  0  0  0  0  0
   50.5853   -3.7647   -6.4292 C   0  0  0  0  0  0  0  0  0  0  0  0
   49.6881   -3.1434   -5.8416 O   0  0  0  0  0  0  0  0  0  0  0  0
   53.0388   -6.1863   -5.1669 C   0  0  0  0  0  0  0  0  0  0  0  0
   52.1109   -6.2687   -3.9340 C   0  0  0  0  0  0  0  0  0  0  0  0
   53.1223   -6.8488   -2.9321 C   0  0  0  0  0  0  0  0  0  0  0  0
   54.2875   -5.9156   -3.0876 C   0  0  0  0  0  0  0  0  0  0  0  0
   54.2573   -5.5238   -4.5452 C   0  0  0  0  0  0  0  0  0  0  0  0
   51.0001   -7.0534   -7.8302 C   0  0  0  0  0  0  0  0  0  0  0  0
   50.1728   -6.1843   -6.9417 C   0  0  0  0  0  0  0  0  0  0  0  0
   56.3663   -5.1923   -8.8223 N   0  0  0  0  0  0  0  0  0  0  0  0
   56.7137   -5.9677   -8.1615 H   0  0  0  0  0  0  0  0  0  0  0  0
   57.2083   -4.8668   -9.8887 C   0  0  0  0  0  0  0  0  0  0  0  0
   58.4695   -5.3656  -10.1168 C   0  0  0  0  0  0  0  0  0  0  0  0
   59.2409   -4.9617  -11.1989 C   0  0  0  0  0  0  0  0  0  0  0  0
   58.7807   -4.0376  -12.1033 C   0  0  0  0  0  0  0  0  0  0  0  0
   57.5265   -3.5221  -11.9033 C   0  0  0  0  0  0  0  0  0  0  0  0
   56.7742   -3.9267  -10.8332 C   0  0  0  0  0  0  0  0  0  0  0  0
   59.7742   -3.5429  -13.4621 S   0  0  0  0  0  0  0  0  0  0  0  0
   58.8121   -3.3272  -14.8790 N   0  0  0  0  0  0  0  0  0  0  0  0
   60.4308   -2.2460  -13.1242 O   0  0  0  0  0  0  0  0  0  0  0  0
   60.8113   -4.5917  -13.7576 O   0  0  0  0  0  0  0  0  0  0  0  0
   58.6237   -2.3169  -15.0652 H   0  0  0  0  0  0  0  0  0  0  0  0
   57.9327   -3.8880  -14.8101 H   0  0  0  0  0  0  0  0  0  0  0  0
 18 19  1  0  0  0
 19  1  1  0  0  0
  1  2  1  0  0  0
  2 13  1  0  0  0
 13 14  1  0  0  0
 14 15  1  0  0  0
 15 16  1  0  0  0
 16 17  1  0  0  0
  2  3  1  0  0  0
  3  4  2  0  0  0
  4  5  1  0  0  0
  5 20  1  0  0  0
 20 22  1  0  0  0
 22 23  2  0  0  0
 23 24  1  0  0  0
 24 25  2  0  0  0
 25 26  1  0  0  0
 26 27  2  0  0  0
 25 28  1  0  0  0
 28 29  1  0  0  0
 28 30  2  0  0  0
 28 31  2  0  0  0
  5  6  2  0  0  0
  6  7  1  0  0  0
  7  8  2  0  0  0
  8  9  1  0  0  0
  9 10  1  0  0  0
  9 11  1  0  0  0
 11 12  2  0  0  0
 11  1  1  0  0  0
 17 13  1  0  0  0
  8  3  1  0  0  0
 27 22  1  0  0  0
 20 21  1  0  0  0
 29 32  1  0  0  0
 29 33  1  0  0  0
M  END
> <minimizedAffinity>
-8.61703

> <CNNscore>
0.5423447490

> <CNNaffinity>
7.2881836891

> <CNN_VS>
3.9527082443

> <CNNaffinity_variance>
0.1637365967

$$$$
[H]c1nc(N([H])c2c([H])c([H])c(S(=O)(=O)N([H])[H])c([H])c2[H])nc2c1N(C([H])([H])[H])C(=O)[C@@]([H])(C([H])([H])C([H])([H])[H])N2C1([H])C([H])([H])C([H])([H])C([H])([H])C1([H])[H]


 33 36  0  0  0  0  0  0  0  0999 V2000
   53.4496   -6.5463   -3.5610 C   0  0  0  0  0  0  0  0  0  0  0  0
   54.3134   -5.6138   -4.3044 N   0  0  0  0  0  0  0  0  0  0  0  0
   54.0010   -5.2275   -5.6508 C   0  0  0  0  0  0  0  0  0  0  0  0
   54.9377   -4.7981   -6.5059 N   0  0  0  0  0  0  0  0  0  0  0  0
   54.6371   -4.4471   -7.7921 C   0  0  0  0  0  0  0  0  0  0  0  0
   53.3532   -4.5619   -8.1330 N   0  0  0  0  0  0  0  0  0  0  0  0
   52.3590   -4.9814   -7.3435 C   0  0  0  0  0  0  0  0  0  0  0  0
   52.6669   -5.3327   -6.0550 C   0  0  0  0  0  0  0  0  0  0  0  0
   51.6512   -5.8035   -5.1889 N   0  0  0  0  0  0  0  0  0  0  0  0
   50.3002   -5.8742   -5.6862 C   0  0  0  0  0  0  0  0  0  0  0  0
   52.0186   -6.1893   -3.8462 C   0  0  0  0  0  0  0  0  0  0  0  0
   51.1461   -6.2161   -2.9663 O   0  0  0  0  0  0  0  0  0  0  0  0
   55.5164   -5.0826   -3.7127 C   0  0  0  0  0  0  0  0  0  0  0  0
   56.6072   -6.1656   -3.8717 C   0  0  0  0  0  0  0  0  0  0  0  0
   57.6463   -5.5793   -2.9024 C   0  0  0  0  0  0  0  0  0  0  0  0
   56.8247   -5.3415   -1.6690 C   0  0  0  0  0  0  0  0  0  0  0  0
   55.4586   -4.9766   -2.1977 C   0  0  0  0  0  0  0  0  0  0  0  0
   54.7844   -8.5780   -2.8587 C   0  0  0  0  0  0  0  0  0  0  0  0
   53.7809   -7.9718   -3.7832 C   0  0  0  0  0  0  0  0  0  0  0  0
   55.6928   -4.0138   -8.6371 N   0  0  0  0  0  0  0  0  0  0  0  0
   55.5227   -3.0901   -9.1627 H   0  0  0  0  0  0  0  0  0  0  0  0
   56.9174   -4.6432   -8.8748 C   0  0  0  0  0  0  0  0  0  0  0  0
   57.8215   -5.0585   -7.9252 C   0  0  0  0  0  0  0  0  0  0  0  0
   59.0278   -5.6580   -8.2635 C   0  0  0  0  0  0  0  0  0  0  0  0
   59.3823   -5.8688   -9.5726 C   0  0  0  0  0  0  0  0  0  0  0  0
   58.5015   -5.4660  -10.5426 C   0  0  0  0  0  0  0  0  0  0  0  0
   57.3149   -4.8758  -10.1984 C   0  0  0  0  0  0  0  0  0  0  0  0
   60.9121   -6.6276   -9.9749 S   0  0  0  0  0  0  0  0  0  0  0  0
   60.7438   -8.3438  -10.0524 N   0  0  0  0  0  0  0  0  0  0  0  0
   61.3553   -6.1268  -11.3091 O   0  0  0  0  0  0  0  0  0  0  0  0
   61.9434   -6.3067   -8.9279 O   0  0  0  0  0  0  0  0  0  0  0  0
   60.6872   -8.6800  -11.0397 H   0  0  0  0  0  0  0  0  0  0  0  0
   59.9262   -8.6551   -9.4804 H   0  0  0  0  0  0  0  0  0  0  0  0
 18 19  1  0  0  0
 19  1  1  0  0  0
  1  2  1  0  0  0
  2 13  1  0  0  0
 13 14  1  0  0  0
 14 15  1  0  0  0
 15 16  1  0  0  0
 16 17  1  0  0  0
  2  3  1  0  0  0
  3  4  2  0  0  0
  4  5  1  0  0  0
  5 20  1  0  0  0
 20 22  1  0  0  0
 22 23  2  0  0  0
 23 24  1  0  0  0
 24 25  2  0  0  0
 25 26  1  0  0  0
 26 27  2  0  0  0
 25 28  1  0  0  0
 28 29  1  0  0  0
 28 30  2  0  0  0
 28 31  2  0  0  0
  5  6  2  0  0  0
  6  7  1  0  0  0
  7  8  2  0  0  0
  8  9  1  0  0  0
  9 10  1  0  0  0
  9 11  1  0  0  0
 11 12  2  0  0  0
 11  1  1  0  0  0
 17 13  1  0  0  0
  8  3  1  0  0  0
 27 22  1  0  0  0
 20 21  1  0  0  0
 29 32  1  0  0  0
 29 33  1  0  0  0
M  END
> <minimizedAffinity>
-7.03558

> <CNNscore>
0.3684567213

> <CNNaffinity>
6.8890013695

> <CNN_VS>
2.5382988453

> <CNNaffinity_variance>
0.3445258141

$$$$
[H]c1nc(N([H])c2c([H])c([H])c(S(=O)(=O)N([H])[H])c([H])c2[H])nc2c1N(C([H])([H])[H])C(=O)[C@@]([H])(C([H])([H])C([H])([H])[H])N2C1([H])C([H])([H])C([H])([H])C([H])([H])C1([H])[H]


 33 36  0  0  0  0  0  0  0  0999 V2000
   62.8103   -5.0550  -15.0794 C   0  0  0  0  0  0  0  0  0  0  0  0
   61.7054   -4.2172  -14.5840 N   0  0  0  0  0  0  0  0  0  0  0  0
   61.0255   -4.5344  -13.3606 C   0  0  0  0  0  0  0  0  0  0  0  0
   59.7734   -4.1294  -13.1139 N   0  0  0  0  0  0  0  0  0  0  0  0
   59.1248   -4.4483  -11.9540 C   0  0  0  0  0  0  0  0  0  0  0  0
   59.8230   -5.1868  -11.0908 N   0  0  0  0  0  0  0  0  0  0  0  0
   61.0726   -5.6316  -11.2592 C   0  0  0  0  0  0  0  0  0  0  0  0
   61.7173   -5.3090  -12.4249 C   0  0  0  0  0  0  0  0  0  0  0  0
   63.0332   -5.7759  -12.6572 N   0  0  0  0  0  0  0  0  0  0  0  0
   63.6748   -6.5642  -11.6352 C   0  0  0  0  0  0  0  0  0  0  0  0
   63.6704   -5.4377  -13.9087 C   0  0  0  0  0  0  0  0  0  0  0  0
   64.9071   -5.4721  -13.9845 O   0  0  0  0  0  0  0  0  0  0  0  0
   61.2524   -3.0681  -15.3284 C   0  0  0  0  0  0  0  0  0  0  0  0
   59.8640   -3.4283  -15.9033 C   0  0  0  0  0  0  0  0  0  0  0  0
   59.7331   -2.2738  -16.9098 C   0  0  0  0  0  0  0  0  0  0  0  0
   61.0346   -2.3571  -17.6528 C   0  0  0  0  0  0  0  0  0  0  0  0
   62.0247   -2.8286  -16.6153 C   0  0  0  0  0  0  0  0  0  0  0  0
   63.1280   -6.4406  -17.1727 C   0  0  0  0  0  0  0  0  0  0  0  0
   62.3667   -6.1958  -15.9119 C   0  0  0  0  0  0  0  0  0  0  0  0
   57.7930   -3.9887  -11.7777 N   0  0  0  0  0  0  0  0  0  0  0  0
   57.4152   -3.3408  -12.5498 H   0  0  0  0  0  0  0  0  0  0  0  0
   56.9196   -4.2674  -10.7233 C   0  0  0  0  0  0  0  0  0  0  0  0
   55.5530   -4.1126  -10.7306 C   0  0  0  0  0  0  0  0  0  0  0  0
   54.7697   -4.3976   -9.6196 C   0  0  0  0  0  0  0  0  0  0  0  0
   55.3231   -4.8521   -8.4487 C   0  0  0  0  0  0  0  0  0  0  0  0
   56.6833   -5.0171   -8.4103 C   0  0  0  0  0  0  0  0  0  0  0  0
   57.4466   -4.7331   -9.5110 C   0  0  0  0  0  0  0  0  0  0  0  0
   54.3127   -5.2047   -7.0585 S   0  0  0  0  0  0  0  0  0  0  0  0
   55.2317   -5.1355   -5.5989 N   0  0  0  0  0  0  0  0  0  0  0  0
   53.2243   -4.1858   -6.9907 O   0  0  0  0  0  0  0  0  0  0  0  0
   53.7282   -6.5858   -7.1768 O   0  0  0  0  0  0  0  0  0  0  0  0
   55.0681   -4.2416   -5.0841 H   0  0  0  0  0  0  0  0  0  0  0  0
   56.2446   -5.2979   -5.7991 H   0  0  0  0  0  0  0  0  0  0  0  0
 18 19  1  0  0  0
 19  1  1  0  0  0
  1  2  1  0  0  0
  2 13  1  0  0  0
 13 14  1  0  0  0
 14 15  1  0  0  0
 15 16  1  0  0  0
 16 17  1  0  0  0
  2  3  1  0  0  0
  3  4  2  0  0  0
  4  5  1  0  0  0
  5 20  1  0  0  0
 20 22  1  0  0  0
 22 23  2  0  0  0
 23 24  1  0  0  0
 24 25  2  0  0  0
 25 26  1  0  0  0
 26 27  2  0  0  0
 25 28  1  0  0  0
 28 29  1  0  0  0
 28 30  2  0  0  0
 28 31  2  0  0  0
  5  6  2  0  0  0
  6  7  1  0  0  0
  7  8  2  0  0  0
  8  9  1  0  0  0
  9 10  1  0  0  0
  9 11  1  0  0  0
 11 12  2  0  0  0
 11  1  1  0  0  0
 17 13  1  0  0  0
  8  3  1  0  0  0
 27 22  1  0  0  0
 20 21  1  0  0  0
 29 32  1  0  0  0
 29 33  1  0  0  0
M  END
> <minimizedAffinity>
-3.55058

> <CNNscore>
0.3248969615

> <CNNaffinity>
5.4459657669

> <CNN_VS>
1.7693777084

> <CNNaffinity_variance>
0.1007762402

$$$$
[H]c1nc(N([H])c2c([H])c([H])c(S(=O)(=O)N([H])[H])c([H])c2[H])nc2c1N(C([H])([H])[H])C(=O)[C@@]([H])(C([H])([H])C([H])([H])[H])N2C1([H])C([H])([H])C([H])([H])C([H])([H])C1([H])[H]


 33 36  0  0  0  0  0  0  0  0999 V2000
   64.6527   -4.4413  -15.3187 C   0  0  0  0  0  0  0  0  0  0  0  0
   63.7413   -5.1841  -14.4323 N   0  0  0  0  0  0  0  0  0  0  0  0
   62.4095   -4.7143  -14.1766 C   0  0  0  0  0  0  0  0  0  0  0  0
   61.7345   -5.0492  -13.0698 N   0  0  0  0  0  0  0  0  0  0  0  0
   60.4727   -4.5855  -12.8235 C   0  0  0  0  0  0  0  0  0  0  0  0
   59.9647   -3.7810  -13.7576 N   0  0  0  0  0  0  0  0  0  0  0  0
   60.5697   -3.3980  -14.8868 C   0  0  0  0  0  0  0  0  0  0  0  0
   61.8353   -3.8657  -15.1276 C   0  0  0  0  0  0  0  0  0  0  0  0
   62.5240   -3.4699  -16.2991 N   0  0  0  0  0  0  0  0  0  0  0  0
   61.8541   -2.5968  -17.2300 C   0  0  0  0  0  0  0  0  0  0  0  0
   63.8663   -3.9622  -16.5056 C   0  0  0  0  0  0  0  0  0  0  0  0
   64.3336   -3.9765  -17.6535 O   0  0  0  0  0  0  0  0  0  0  0  0
   64.1686   -6.3918  -13.7700 C   0  0  0  0  0  0  0  0  0  0  0  0
   65.5624   -6.7423  -14.3377 C   0  0  0  0  0  0  0  0  0  0  0  0
   65.6669   -8.1790  -13.8010 C   0  0  0  0  0  0  0  0  0  0  0  0
   64.3653   -8.7764  -14.2501 C   0  0  0  0  0  0  0  0  0  0  0  0
   63.3879   -7.6276  -14.1860 C   0  0  0  0  0  0  0  0  0  0  0  0
   65.3048   -3.3291  -13.1414 C   0  0  0  0  0  0  0  0  0  0  0  0
   65.4250   -3.3836  -14.6286 C   0  0  0  0  0  0  0  0  0  0  0  0
   59.8326   -4.9797  -11.6190 N   0  0  0  0  0  0  0  0  0  0  0  0
   60.4063   -5.6207  -10.9719 H   0  0  0  0  0  0  0  0  0  0  0  0
   58.5499   -4.6450  -11.1775 C   0  0  0  0  0  0  0  0  0  0  0  0
   57.5703   -4.0174  -11.9110 C   0  0  0  0  0  0  0  0  0  0  0  0
   56.3279   -3.7062  -11.3737 C   0  0  0  0  0  0  0  0  0  0  0  0
   56.0113   -4.0115  -10.0736 C   0  0  0  0  0  0  0  0  0  0  0  0
   56.9670   -4.6380   -9.3167 C   0  0  0  0  0  0  0  0  0  0  0  0
   58.1888   -4.9403   -9.8559 C   0  0  0  0  0  0  0  0  0  0  0  0
   54.4351   -3.6077   -9.4174 S   0  0  0  0  0  0  0  0  0  0  0  0
   54.4670   -2.0602   -8.6532 N   0  0  0  0  0  0  0  0  0  0  0  0
   53.4488   -3.5713  -10.5369 O   0  0  0  0  0  0  0  0  0  0  0  0
   54.0221   -4.6266   -8.3907 O   0  0  0  0  0  0  0  0  0  0  0  0
   54.0441   -1.3231   -9.2605 H   0  0  0  0  0  0  0  0  0  0  0  0
   55.4408   -1.8203   -8.3586 H   0  0  0  0  0  0  0  0  0  0  0  0
 18 19  1  0  0  0
 19  1  1  0  0  0
  1  2  1  0  0  0
  2 13  1  0  0  0
 13 14  1  0  0  0
 14 15  1  0  0  0
 15 16  1  0  0  0
 16 17  1  0  0  0
  2  3  1  0  0  0
  3  4  2  0  0  0
  4  5  1  0  0  0
  5 20  1  0  0  0
 20 22  1  0  0  0
 22 23  2  0  0  0
 23 24  1  0  0  0
 24 25  2  0  0  0
 25 26  1  0  0  0
 26 27  2  0  0  0
 25 28  1  0  0  0
 28 29  1  0  0  0
 28 30  2  0  0  0
 28 31  2  0  0  0
  5  6  2  0  0  0
  6  7  1  0  0  0
  7  8  2  0  0  0
  8  9  1  0  0  0
  9 10  1  0  0  0
  9 11  1  0  0  0
 11 12  2  0  0  0
 11  1  1  0  0  0
 17 13  1  0  0  0
  8  3  1  0  0  0
 27 22  1  0  0  0
 20 21  1  0  0  0
 29 32  1  0  0  0
 29 33  1  0  0  0
M  END
> <minimizedAffinity>
-3.92089

> <CNNscore>
0.2892388999

> <CNNaffinity>
5.3342766762

> <CNN_VS>
1.5428802967

> <CNNaffinity_variance>
0.0249345265

$$$$
[H]c1nc(N([H])c2c([H])c([H])c(S(=O)(=O)N([H])[H])c([H])c2[H])nc2c1N(C([H])([H])[H])C(=O)[C@@]([H])(C([H])([H])C([H])([H])[H])N2C1([H])C([H])([H])C([H])([H])C([H])([H])C1([H])[H]


 33 36  0  0  0  0  0  0  0  0999 V2000
   62.4498  -11.3776   -8.3632 C   0  0  0  0  0  0  0  0  0  0  0  0
   62.1985  -10.2679   -9.2978 N   0  0  0  0  0  0  0  0  0  0  0  0
   61.8261   -8.9667   -8.8204 C   0  0  0  0  0  0  0  0  0  0  0  0
   61.1476   -8.0956   -9.5778 N   0  0  0  0  0  0  0  0  0  0  0  0
   60.7811   -6.8640   -9.1123 C   0  0  0  0  0  0  0  0  0  0  0  0
   61.1448   -6.5930   -7.8584 N   0  0  0  0  0  0  0  0  0  0  0  0
   61.8203   -7.4038   -7.0374 C   0  0  0  0  0  0  0  0  0  0  0  0
   62.1843   -8.6378   -7.5098 C   0  0  0  0  0  0  0  0  0  0  0  0
   62.8814   -9.5387   -6.6696 N   0  0  0  0  0  0  0  0  0  0  0  0
   63.2165   -9.1152   -5.3332 C   0  0  0  0  0  0  0  0  0  0  0  0
   63.2248  -10.8402   -7.1939 C   0  0  0  0  0  0  0  0  0  0  0  0
   64.1473  -11.4785   -6.6669 O   0  0  0  0  0  0  0  0  0  0  0  0
   62.2901  -10.4618  -10.7239 C   0  0  0  0  0  0  0  0  0  0  0  0
   62.6619  -11.9446  -10.9492 C   0  0  0  0  0  0  0  0  0  0  0  0
   63.0503  -11.8539  -12.4338 C   0  0  0  0  0  0  0  0  0  0  0  0
   64.0126  -10.7021  -12.4358 C   0  0  0  0  0  0  0  0  0  0  0  0
   63.4920   -9.7816  -11.3585 C   0  0  0  0  0  0  0  0  0  0  0  0
   60.5659  -11.7490   -6.7153 C   0  0  0  0  0  0  0  0  0  0  0  0
   61.2321  -12.1343   -7.9948 C   0  0  0  0  0  0  0  0  0  0  0  0
   60.0520   -6.0058   -9.9772 N   0  0  0  0  0  0  0  0  0  0  0  0
   60.5514   -5.7253  -10.8885 H   0  0  0  0  0  0  0  0  0  0  0  0
   58.7734   -5.4762   -9.7856 C   0  0  0  0  0  0  0  0  0  0  0  0
   57.9228   -5.0177  -10.7644 C   0  0  0  0  0  0  0  0  0  0  0  0
   56.6738   -4.4862  -10.4704 C   0  0  0  0  0  0  0  0  0  0  0  0
   56.2203   -4.3908   -9.1784 C   0  0  0  0  0  0  0  0  0  0  0  0
   57.0453   -4.8401   -8.1802 C   0  0  0  0  0  0  0  0  0  0  0  0
   58.2749   -5.3622   -8.4807 C   0  0  0  0  0  0  0  0  0  0  0  0
   54.6387   -3.7151   -8.8322 S   0  0  0  0  0  0  0  0  0  0  0  0
   54.6986   -1.9900   -8.8175 N   0  0  0  0  0  0  0  0  0  0  0  0
   53.6901   -4.1546   -9.8973 O   0  0  0  0  0  0  0  0  0  0  0  0
   54.1593   -4.1769   -7.4832 O   0  0  0  0  0  0  0  0  0  0  0  0
   54.3202   -1.5850   -9.7027 H   0  0  0  0  0  0  0  0  0  0  0  0
   55.6700   -1.6618   -8.6150 H   0  0  0  0  0  0  0  0  0  0  0  0
 18 19  1  0  0  0
 19  1  1  0  0  0
  1  2  1  0  0  0
  2 13  1  0  0  0
 13 14  1  0  0  0
 14 15  1  0  0  0
 15 16  1  0  0  0
 16 17  1  0  0  0
  2  3  1  0  0  0
  3  4  2  0  0  0
  4  5  1  0  0  0
  5 20  1  0  0  0
 20 22  1  0  0  0
 22 23  2  0  0  0
 23 24  1  0  0  0
 24 25  2  0  0  0
 25 26  1  0  0  0
 26 27  2  0  0  0
 25 28  1  0  0  0
 28 29  1  0  0  0
 28 30  2  0  0  0
 28 31  2  0  0  0
  5  6  2  0  0  0
  6  7  1  0  0  0
  7  8  2  0  0  0
  8  9  1  0  0  0
  9 10  1  0  0  0
  9 11  1  0  0  0
 11 12  2  0  0  0
 11  1  1  0  0  0
 17 13  1  0  0  0
  8  3  1  0  0  0
 27 22  1  0  0  0
 20 21  1  0  0  0
 29 32  1  0  0  0
 29 33  1  0  0  0
M  END
> <minimizedAffinity>
-7.11465

> <CNNscore>
0.2821706235

> <CNNaffinity>
5.1944293976

> <CNN_VS>
1.4657154083

> <CNNaffinity_variance>
0.3831895292

$$$$
[H]c1nc(N([H])c2c([H])c([H])c(S(=O)(=O)N([H])[H])c([H])c2[H])nc2c1N(C([H])([H])[H])C(=O)[C@@]([H])(C([H])([H])C([H])([H])[H])N2C1([H])C([H])([H])C([H])([H])C([H])([H])C1([H])[H]


 33 36  0  0  0  0  0  0  0  0999 V2000
   64.1495   -8.5919  -10.8364 C   0  0  0  0  0  0  0  0  0  0  0  0
   64.3396   -8.6307   -9.3767 N   0  0  0  0  0  0  0  0  0  0  0  0
   64.1234   -9.8388   -8.6329 C   0  0  0  0  0  0  0  0  0  0  0  0
   63.8192   -9.8297   -7.3290 N   0  0  0  0  0  0  0  0  0  0  0  0
   63.5981  -10.9827   -6.6293 C   0  0  0  0  0  0  0  0  0  0  0  0
   63.7061  -12.1103   -7.3328 N   0  0  0  0  0  0  0  0  0  0  0  0
   64.0042  -12.2069   -8.6326 C   0  0  0  0  0  0  0  0  0  0  0  0
   64.2241  -11.0470   -9.3289 C   0  0  0  0  0  0  0  0  0  0  0  0
   64.5211  -11.0984  -10.7118 N   0  0  0  0  0  0  0  0  0  0  0  0
   64.6120  -12.3880  -11.3493 C   0  0  0  0  0  0  0  0  0  0  0  0
   64.7205   -9.8540  -11.4177 C   0  0  0  0  0  0  0  0  0  0  0  0
   65.3555   -9.8593  -12.4821 O   0  0  0  0  0  0  0  0  0  0  0  0
   64.7205   -7.4478   -8.6450 C   0  0  0  0  0  0  0  0  0  0  0  0
   65.7528   -7.8926   -7.5847 C   0  0  0  0  0  0  0  0  0  0  0  0
   65.7497   -6.6197   -6.7228 C   0  0  0  0  0  0  0  0  0  0  0  0
   64.2835   -6.4095   -6.4801 C   0  0  0  0  0  0  0  0  0  0  0  0
   63.6233   -6.9051   -7.7441 C   0  0  0  0  0  0  0  0  0  0  0  0
   61.6780   -8.7392  -10.3144 C   0  0  0  0  0  0  0  0  0  0  0  0
   62.7576   -8.3029  -11.2489 C   0  0  0  0  0  0  0  0  0  0  0  0
   63.2681  -10.8829   -5.2519 N   0  0  0  0  0  0  0  0  0  0  0  0
   63.9646  -11.3386   -4.5694 H   0  0  0  0  0  0  0  0  0  0  0  0
   62.1489  -10.2748   -4.6777 C   0  0  0  0  0  0  0  0  0  0  0  0
   61.2936  -10.8372   -3.7590 C   0  0  0  0  0  0  0  0  0  0  0  0
   60.1902  -10.1564   -3.2610 C   0  0  0  0  0  0  0  0  0  0  0  0
   59.8946   -8.8776   -3.6625 C   0  0  0  0  0  0  0  0  0  0  0  0
   60.7289   -8.2895   -4.5772 C   0  0  0  0  0  0  0  0  0  0  0  0
   61.8140   -8.9694   -5.0622 C   0  0  0  0  0  0  0  0  0  0  0  0
   58.4946   -8.0384   -3.0193 S   0  0  0  0  0  0  0  0  0  0  0  0
   57.4196   -9.1439   -2.2437 N   0  0  0  0  0  0  0  0  0  0  0  0
   58.9602   -7.0361   -2.0163 O   0  0  0  0  0  0  0  0  0  0  0  0
   57.7418   -7.3559   -4.1285 O   0  0  0  0  0  0  0  0  0  0  0  0
   57.5150   -9.1073   -1.2042 H   0  0  0  0  0  0  0  0  0  0  0  0
   57.5568  -10.1092   -2.6205 H   0  0  0  0  0  0  0  0  0  0  0  0
 18 19  1  0  0  0
 19  1  1  0  0  0
  1  2  1  0  0  0
  2 13  1  0  0  0
 13 14  1  0  0  0
 14 15  1  0  0  0
 15 16  1  0  0  0
 16 17  1  0  0  0
  2  3  1  0  0  0
  3  4  2  0  0  0
  4  5  1  0  0  0
  5 20  1  0  0  0
 20 22  1  0  0  0
 22 23  2  0  0  0
 23 24  1  0  0  0
 24 25  2  0  0  0
 25 26  1  0  0  0
 26 27  2  0  0  0
 25 28  1  0  0  0
 28 29  1  0  0  0
 28 30  2  0  0  0
 28 31  2  0  0  0
  5  6  2  0  0  0
  6  7  1  0  0  0
  7  8  2  0  0  0
  8  9  1  0  0  0
  9 10  1  0  0  0
  9 11  1  0  0  0
 11 12  2  0  0  0
 11  1  1  0  0  0
 17 13  1  0  0  0
  8  3  1  0  0  0
 27 22  1  0  0  0
 20 21  1  0  0  0
 29 32  1  0  0  0
 29 33  1  0  0  0
M  END
> <minimizedAffinity>
-3.32455

> <CNNscore>
0.2777211070

> <CNNaffinity>
5.2426042557

> <CNN_VS>
1.4559818506

> <CNNaffinity_variance>
0.1670054942

$$$$
[H]c1nc(N([H])c2c([H])c([H])c(S(=O)(=O)N([H])[H])c([H])c2[H])nc2c1N(C([H])([H])[H])C(=O)[C@@]([H])(C([H])([H])C([H])([H])[H])N2C1([H])C([H])([H])C([H])([H])C([H])([H])C1([H])[H]


 33 36  0  0  0  0  0  0  0  0999 V2000
   62.9781   -9.7036   -5.9011 C   0  0  0  0  0  0  0  0  0  0  0  0
   62.2675   -9.4285   -7.1610 N   0  0  0  0  0  0  0  0  0  0  0  0
   62.2575   -8.1128   -7.7343 C   0  0  0  0  0  0  0  0  0  0  0  0
   61.2890   -7.7025   -8.5629 N   0  0  0  0  0  0  0  0  0  0  0  0
   61.2757   -6.4428   -9.0930 C   0  0  0  0  0  0  0  0  0  0  0  0
   62.2890   -5.6564   -8.7288 N   0  0  0  0  0  0  0  0  0  0  0  0
   63.2923   -5.9867   -7.9089 C   0  0  0  0  0  0  0  0  0  0  0  0
   63.2995   -7.2510   -7.3800 C   0  0  0  0  0  0  0  0  0  0  0  0
   64.3294   -7.6387   -6.4898 N   0  0  0  0  0  0  0  0  0  0  0  0
   65.3690   -6.6884   -6.1835 C   0  0  0  0  0  0  0  0  0  0  0  0
   64.2890   -8.9706   -5.9318 C   0  0  0  0  0  0  0  0  0  0  0  0
   65.3340   -9.4729   -5.4938 O   0  0  0  0  0  0  0  0  0  0  0  0
   61.5344  -10.4664   -7.8430 C   0  0  0  0  0  0  0  0  0  0  0  0
   61.8469  -11.7893   -7.1081 C   0  0  0  0  0  0  0  0  0  0  0  0
   61.2931  -12.7645   -8.1595 C   0  0  0  0  0  0  0  0  0  0  0  0
   61.9608  -12.2838   -9.4148 C   0  0  0  0  0  0  0  0  0  0  0  0
   62.0750  -10.7904   -9.2260 C   0  0  0  0  0  0  0  0  0  0  0  0
   62.1336  -10.5386   -3.6667 C   0  0  0  0  0  0  0  0  0  0  0  0
   62.1644   -9.4521   -4.6904 C   0  0  0  0  0  0  0  0  0  0  0  0
   60.2045   -6.0847   -9.9535 N   0  0  0  0  0  0  0  0  0  0  0  0
   60.3795   -6.2322  -11.0053 H   0  0  0  0  0  0  0  0  0  0  0  0
   58.9590   -5.5577   -9.6026 C   0  0  0  0  0  0  0  0  0  0  0  0
   58.4366   -5.4689   -8.3334 C   0  0  0  0  0  0  0  0  0  0  0  0
   57.1735   -4.9463   -8.0875 C   0  0  0  0  0  0  0  0  0  0  0  0
   56.3757   -4.4878   -9.1060 C   0  0  0  0  0  0  0  0  0  0  0  0
   56.8688   -4.5625  -10.3827 C   0  0  0  0  0  0  0  0  0  0  0  0
   58.1152   -5.0796  -10.6144 C   0  0  0  0  0  0  0  0  0  0  0  0
   54.7833   -3.8324   -8.7701 S   0  0  0  0  0  0  0  0  0  0  0  0
   54.8076   -2.1071   -8.8179 N   0  0  0  0  0  0  0  0  0  0  0  0
   53.8353   -4.3293   -9.8102 O   0  0  0  0  0  0  0  0  0  0  0  0
   54.3248   -4.2549   -7.4012 O   0  0  0  0  0  0  0  0  0  0  0  0
   54.4137   -1.7420   -9.7137 H   0  0  0  0  0  0  0  0  0  0  0  0
   55.7737   -1.7520   -8.6360 H   0  0  0  0  0  0  0  0  0  0  0  0
 18 19  1  0  0  0
 19  1  1  0  0  0
  1  2  1  0  0  0
  2 13  1  0  0  0
 13 14  1  0  0  0
 14 15  1  0  0  0
 15 16  1  0  0  0
 16 17  1  0  0  0
  2  3  1  0  0  0
  3  4  2  0  0  0
  4  5  1  0  0  0
  5 20  1  0  0  0
 20 22  1  0  0  0
 22 23  2  0  0  0
 23 24  1  0  0  0
 24 25  2  0  0  0
 25 26  1  0  0  0
 26 27  2  0  0  0
 25 28  1  0  0  0
 28 29  1  0  0  0
 28 30  2  0  0  0
 28 31  2  0  0  0
  5  6  2  0  0  0
  6  7  1  0  0  0
  7  8  2  0  0  0
  8  9  1  0  0  0
  9 10  1  0  0  0
  9 11  1  0  0  0
 11 12  2  0  0  0
 11  1  1  0  0  0
 17 13  1  0  0  0
  8  3  1  0  0  0
 27 22  1  0  0  0
 20 21  1  0  0  0
 29 32  1  0  0  0
 29 33  1  0  0  0
M  END
> <minimizedAffinity>
-6.22047

> <CNNscore>
0.2454224080

> <CNNaffinity>
5.3925714493

> <CNN_VS>
1.3234578371

> <CNNaffinity_variance>
0.1305348277

$$$$
[H]c1c([H])c([H])c([C@]([H])(Oc2c(C(=O)N([H])[H])sc(-n3c([H])nc4c([H])c([H])c(OC([H])([H])[H])c([H])c43)c2[H])C([H])([H])[H])c(Cl)c1[H]


 31 34  0  0  0  0  0  0  0  0999 V2000
   54.2144   -4.1647   -7.7733 C   0  0  0  0  0  0  0  0  0  0  0  0
   54.7971   -4.9136   -6.8113 C   0  0  0  0  0  0  0  0  0  0  0  0
   56.0467   -5.3967   -6.9871 C   0  0  0  0  0  0  0  0  0  0  0  0
   56.6556   -5.0691   -8.2151 C   0  0  0  0  0  0  0  0  0  0  0  0
   55.4605   -4.1516   -8.9597 S   0  0  0  0  0  0  0  0  0  0  0  0
   50.1291   -4.1501   -5.6888 C   0  0  0  0  0  0  0  0  0  0  0  0
   49.3078   -3.2015   -6.2359 C   0  0  0  0  0  0  0  0  0  0  0  0
   49.7186   -2.4156   -7.2805 C   0  0  0  0  0  0  0  0  0  0  0  0
   50.9894   -2.5615   -7.8172 C   0  0  0  0  0  0  0  0  0  0  0  0
   51.6047   -1.9377   -8.8121 N   0  0  0  0  0  0  0  0  0  0  0  0
   52.8037   -2.4664   -8.9046 C   0  0  0  0  0  0  0  0  0  0  0  0
   52.9944   -3.4356   -7.9854 N   0  0  0  0  0  0  0  0  0  0  0  0
   51.8368   -3.5174   -7.2760 C   0  0  0  0  0  0  0  0  0  0  0  0
   51.4218   -4.2997   -6.2307 C   0  0  0  0  0  0  0  0  0  0  0  0
   49.0723   -4.6119   -3.4973 C   0  0  0  0  0  0  0  0  0  0  0  0
   49.7656   -4.9640   -4.6543 O   0  0  0  0  0  0  0  0  0  0  0  0
   58.0187   -5.3881   -8.6871 C   0  0  0  0  0  0  0  0  0  0  0  0
   58.2439   -5.5829  -10.0585 N   0  0  0  0  0  0  0  0  0  0  0  0
   58.9391   -5.4844   -7.8686 O   0  0  0  0  0  0  0  0  0  0  0  0
   58.2407   -6.5312  -10.5547 H   0  0  0  0  0  0  0  0  0  0  0  0
   58.4298   -4.7734  -10.6660 H   0  0  0  0  0  0  0  0  0  0  0  0
   56.7472   -6.1370   -6.0871 O   0  0  0  0  0  0  0  0  0  0  0  0
   56.8530   -7.1164   -5.1870 C   0  0  0  0  0  0  0  0  0  0  0  0
   55.3955   -7.3162   -4.5959 C   0  0  0  0  0  0  0  0  0  0  0  0
   57.5910   -6.7505   -3.9560 C   0  0  0  0  0  0  0  0  0  0  0  0
   58.7399   -7.3742   -3.5420 C   0  0  0  0  0  0  0  0  0  0  0  0
   59.3573   -7.0919   -2.3213 C   0  0  0  0  0  0  0  0  0  0  0  0
   58.8190   -6.1550   -1.4812 C   0  0  0  0  0  0  0  0  0  0  0  0
   57.6747   -5.5057   -1.8584 C   0  0  0  0  0  0  0  0  0  0  0  0
   57.0683   -5.7944   -3.0656 C   0  0  0  0  0  0  0  0  0  0  0  0
   55.6383   -4.9507   -3.5739 Cl  0  0  0  0  0  0  0  0  0  0  0  0
 15 16  1  0  0  0
 16  6  1  0  0  0
  6  7  2  0  0  0
  7  8  1  0  0  0
  8  9  2  0  0  0
  9 10  1  0  0  0
 10 11  2  0  0  0
 11 12  1  0  0  0
 12  1  1  0  0  0
  1  2  2  0  0  0
  2  3  1  0  0  0
  3 22  1  0  0  0
 22 23  1  0  0  0
 23 24  1  0  0  0
 23 25  1  0  0  0
 25 26  2  0  0  0
 26 27  1  0  0  0
 27 28  2  0  0  0
 28 29  1  0  0  0
 29 30  2  0  0  0
 30 31  1  0  0  0
  3  4  2  0  0  0
  4  5  1  0  0  0
  4 17  1  0  0  0
 17 18  1  0  0  0
 17 19  2  0  0  0
 12 13  1  0  0  0
 13 14  2  0  0  0
 14  6  1  0  0  0
 13  9  1  0  0  0
  5  1  1  0  0  0
 30 25  1  0  0  0
 18 20  1  0  0  0
 18 21  1  0  0  0
M  END
> <minimizedAffinity>
-8.67338

> <CNNscore>
0.6998561025

> <CNNaffinity>
7.2342309952

> <CNN_VS>
5.0629205704

> <CNNaffinity_variance>
0.2796161473

$$$$
[H]c1c([H])c([H])c([C@]([H])(Oc2c(C(=O)N([H])[H])sc(-n3c([H])nc4c([H])c([H])c(OC([H])([H])[H])c([H])c43)c2[H])C([H])([H])[H])c(Cl)c1[H]


 31 34  0  0  0  0  0  0  0  0999 V2000
   55.1853   -4.4809   -8.8378 C   0  0  0  0  0  0  0  0  0  0  0  0
   54.2934   -5.1743   -8.0965 C   0  0  0  0  0  0  0  0  0  0  0  0
   53.0858   -4.6409   -7.8085 C   0  0  0  0  0  0  0  0  0  0  0  0
   52.8561   -3.3490   -8.3224 C   0  0  0  0  0  0  0  0  0  0  0  0
   54.2982   -3.0352   -9.1263 S   0  0  0  0  0  0  0  0  0  0  0  0
   56.9419   -3.8136  -13.0216 C   0  0  0  0  0  0  0  0  0  0  0  0
   58.2860   -4.0729  -13.0314 C   0  0  0  0  0  0  0  0  0  0  0  0
   58.9419   -4.4933  -11.9042 C   0  0  0  0  0  0  0  0  0  0  0  0
   58.2554   -4.6699  -10.7119 C   0  0  0  0  0  0  0  0  0  0  0  0
   58.6570   -5.0659   -9.5120 N   0  0  0  0  0  0  0  0  0  0  0  0
   57.5960   -5.0576   -8.7374 C   0  0  0  0  0  0  0  0  0  0  0  0
   56.4926   -4.6630   -9.4062 N   0  0  0  0  0  0  0  0  0  0  0  0
   56.8926   -4.4119  -10.6818 C   0  0  0  0  0  0  0  0  0  0  0  0
   56.2416   -3.9903  -11.8111 C   0  0  0  0  0  0  0  0  0  0  0  0
   56.1120   -4.0559  -15.3422 C   0  0  0  0  0  0  0  0  0  0  0  0
   56.2400   -3.4015  -14.1181 O   0  0  0  0  0  0  0  0  0  0  0  0
   51.6346   -2.5223   -8.2376 C   0  0  0  0  0  0  0  0  0  0  0  0
   50.4605   -3.0817   -7.7102 N   0  0  0  0  0  0  0  0  0  0  0  0
   51.6620   -1.3535   -8.6366 O   0  0  0  0  0  0  0  0  0  0  0  0
   49.6796   -3.5322   -8.2871 H   0  0  0  0  0  0  0  0  0  0  0  0
   50.3039   -3.0764   -6.6932 H   0  0  0  0  0  0  0  0  0  0  0  0
   52.0978   -5.2468   -7.0974 O   0  0  0  0  0  0  0  0  0  0  0  0
   51.6070   -6.2571   -6.3771 C   0  0  0  0  0  0  0  0  0  0  0  0
   50.0835   -6.3842   -6.7971 C   0  0  0  0  0  0  0  0  0  0  0  0
   51.4610   -5.9741   -4.9305 C   0  0  0  0  0  0  0  0  0  0  0  0
   50.3213   -5.4629   -4.3649 C   0  0  0  0  0  0  0  0  0  0  0  0
   50.2421   -5.0964   -3.0194 C   0  0  0  0  0  0  0  0  0  0  0  0
   51.3307   -5.2449   -2.2031 C   0  0  0  0  0  0  0  0  0  0  0  0
   52.4873   -5.7559   -2.7270 C   0  0  0  0  0  0  0  0  0  0  0  0
   52.5580   -6.1116   -4.0600 C   0  0  0  0  0  0  0  0  0  0  0  0
   54.0066   -6.7972   -4.7284 Cl  0  0  0  0  0  0  0  0  0  0  0  0
 15 16  1  0  0  0
 16  6  1  0  0  0
  6  7  2  0  0  0
  7  8  1  0  0  0
  8  9  2  0  0  0
  9 10  1  0  0  0
 10 11  2  0  0  0
 11 12  1  0  0  0
 12  1  1  0  0  0
  1  2  2  0  0  0
  2  3  1  0  0  0
  3 22  1  0  0  0
 22 23  1  0  0  0
 23 24  1  0  0  0
 23 25  1  0  0  0
 25 26  2  0  0  0
 26 27  1  0  0  0
 27 28  2  0  0  0
 28 29  1  0  0  0
 29 30  2  0  0  0
 30 31  1  0  0  0
  3  4  2  0  0  0
  4  5  1  0  0  0
  4 17  1  0  0  0
 17 18  1  0  0  0
 17 19  2  0  0  0
 12 13  1  0  0  0
 13 14  2  0  0  0
 14  6  1  0  0  0
 13  9  1  0  0  0
  5  1  1  0  0  0
 30 25  1  0  0  0
 18 20  1  0  0  0
 18 21  1  0  0  0
M  END
> <minimizedAffinity>
-8.72710

> <CNNscore>
0.6786975861

> <CNNaffinity>
7.2142348289

> <CNN_VS>
4.8962836266

> <CNNaffinity_variance>
0.1311996877

$$$$
[H]c1c([H])c([H])c([C@]([H])(Oc2c(C(=O)N([H])[H])sc(-n3c([H])nc4c([H])c([H])c(OC([H])([H])[H])c([H])c43)c2[H])C([H])([H])[H])c(Cl)c1[H]


 31 34  0  0  0  0  0  0  0  0999 V2000
   54.5003   -4.1466   -9.1023 C   0  0  0  0  0  0  0  0  0  0  0  0
   54.2836   -4.7174   -7.8969 C   0  0  0  0  0  0  0  0  0  0  0  0
   53.1254   -4.4967   -7.2367 C   0  0  0  0  0  0  0  0  0  0  0  0
   52.2091   -3.6474   -7.8885 C   0  0  0  0  0  0  0  0  0  0  0  0
   53.0344   -3.2684   -9.3026 S   0  0  0  0  0  0  0  0  0  0  0  0
   58.8794   -5.4998   -9.2691 C   0  0  0  0  0  0  0  0  0  0  0  0
   59.3865   -5.3501  -10.5318 C   0  0  0  0  0  0  0  0  0  0  0  0
   58.6287   -4.8361  -11.5510 C   0  0  0  0  0  0  0  0  0  0  0  0
   57.3151   -4.4493  -11.3290 C   0  0  0  0  0  0  0  0  0  0  0  0
   56.3994   -3.9299  -12.1348 N   0  0  0  0  0  0  0  0  0  0  0  0
   55.3175   -3.7520  -11.4111 C   0  0  0  0  0  0  0  0  0  0  0  0
   55.5014   -4.1445  -10.1333 N   0  0  0  0  0  0  0  0  0  0  0  0
   56.7830   -4.5936  -10.0560 C   0  0  0  0  0  0  0  0  0  0  0  0
   57.5443   -5.1094   -9.0406 C   0  0  0  0  0  0  0  0  0  0  0  0
   60.8731   -6.5523   -8.2444 C   0  0  0  0  0  0  0  0  0  0  0  0
   59.5944   -5.9979   -8.2178 O   0  0  0  0  0  0  0  0  0  0  0  0
   50.8477   -3.2570   -7.4680 C   0  0  0  0  0  0  0  0  0  0  0  0
   50.4781   -1.9036   -7.5039 N   0  0  0  0  0  0  0  0  0  0  0  0
   50.0564   -4.1253   -7.0859 O   0  0  0  0  0  0  0  0  0  0  0  0
   50.5365   -1.2269   -6.6767 H   0  0  0  0  0  0  0  0  0  0  0  0
   50.1184   -1.4950   -8.3771 H   0  0  0  0  0  0  0  0  0  0  0  0
   52.7802   -5.0319   -6.0354 O   0  0  0  0  0  0  0  0  0  0  0  0
   52.6540   -6.0547   -5.1878 C   0  0  0  0  0  0  0  0  0  0  0  0
   51.3406   -5.7593   -4.3502 C   0  0  0  0  0  0  0  0  0  0  0  0
   53.6601   -6.0876   -4.1012 C   0  0  0  0  0  0  0  0  0  0  0  0
   53.4911   -5.4738   -2.8867 C   0  0  0  0  0  0  0  0  0  0  0  0
   54.4968   -5.4198   -1.9189 C   0  0  0  0  0  0  0  0  0  0  0  0
   55.7135   -5.9979   -2.1613 C   0  0  0  0  0  0  0  0  0  0  0  0
   55.9224   -6.6250   -3.3599 C   0  0  0  0  0  0  0  0  0  0  0  0
   54.9236   -6.6698   -4.3131 C   0  0  0  0  0  0  0  0  0  0  0  0
   55.1619   -7.4955   -5.8220 Cl  0  0  0  0  0  0  0  0  0  0  0  0
 15 16  1  0  0  0
 16  6  1  0  0  0
  6  7  2  0  0  0
  7  8  1  0  0  0
  8  9  2  0  0  0
  9 10  1  0  0  0
 10 11  2  0  0  0
 11 12  1  0  0  0
 12  1  1  0  0  0
  1  2  2  0  0  0
  2  3  1  0  0  0
  3 22  1  0  0  0
 22 23  1  0  0  0
 23 24  1  0  0  0
 23 25  1  0  0  0
 25 26  2  0  0  0
 26 27  1  0  0  0
 27 28  2  0  0  0
 28 29  1  0  0  0
 29 30  2  0  0  0
 30 31  1  0  0  0
  3  4  2  0  0  0
  4  5  1  0  0  0
  4 17  1  0  0  0
 17 18  1  0  0  0
 17 19  2  0  0  0
 12 13  1  0  0  0
 13 14  2  0  0  0
 14  6  1  0  0  0
 13  9  1  0  0  0
  5  1  1  0  0  0
 30 25  1  0  0  0
 18 20  1  0  0  0
 18 21  1  0  0  0
M  END
> <minimizedAffinity>
-8.04348

> <CNNscore>
0.6561380029

> <CNNaffinity>
7.2876806259

> <CNN_VS>
4.7817239761

> <CNNaffinity_variance>
0.2140655071

$$$$
[H]c1c([H])c([H])c([C@]([H])(Oc2c(C(=O)N([H])[H])sc(-n3c([H])nc4c([H])c([H])c(OC([H])([H])[H])c([H])c43)c2[H])C([H])([H])[H])c(Cl)c1[H]


 31 34  0  0  0  0  0  0  0  0999 V2000
   55.6135   -4.4948   -8.7199 C   0  0  0  0  0  0  0  0  0  0  0  0
   54.8204   -4.9691   -7.7341 C   0  0  0  0  0  0  0  0  0  0  0  0
   53.5885   -4.4487   -7.5408 C   0  0  0  0  0  0  0  0  0  0  0  0
   53.2268   -3.4064   -8.4175 C   0  0  0  0  0  0  0  0  0  0  0  0
   54.5960   -3.2763   -9.3834 S   0  0  0  0  0  0  0  0  0  0  0  0
   57.4311   -3.8158  -12.8757 C   0  0  0  0  0  0  0  0  0  0  0  0
   58.7478   -4.1899  -12.8972 C   0  0  0  0  0  0  0  0  0  0  0  0
   59.3621   -4.7103  -11.7886 C   0  0  0  0  0  0  0  0  0  0  0  0
   58.6601   -4.8742  -10.6034 C   0  0  0  0  0  0  0  0  0  0  0  0
   59.0231   -5.3510   -9.4208 N   0  0  0  0  0  0  0  0  0  0  0  0
   57.9649   -5.2818   -8.6454 C   0  0  0  0  0  0  0  0  0  0  0  0
   56.9014   -4.7667   -9.2966 N   0  0  0  0  0  0  0  0  0  0  0  0
   57.3247   -4.5005  -10.5615 C   0  0  0  0  0  0  0  0  0  0  0  0
   56.7154   -3.9793  -11.6724 C   0  0  0  0  0  0  0  0  0  0  0  0
   57.1112   -3.4246  -15.3000 C   0  0  0  0  0  0  0  0  0  0  0  0
   56.7702   -3.3009  -13.9540 O   0  0  0  0  0  0  0  0  0  0  0  0
   51.9467   -2.6746   -8.5080 C   0  0  0  0  0  0  0  0  0  0  0  0
   50.7419   -3.3706   -8.3245 N   0  0  0  0  0  0  0  0  0  0  0  0
   51.9540   -1.4630   -8.7491 O   0  0  0  0  0  0  0  0  0  0  0  0
   50.1443   -3.7854   -9.1096 H   0  0  0  0  0  0  0  0  0  0  0  0
   50.3733   -3.5126   -7.3744 H   0  0  0  0  0  0  0  0  0  0  0  0
   52.6910   -4.8559   -6.6040 O   0  0  0  0  0  0  0  0  0  0  0  0
   52.0170   -5.7978   -5.9414 C   0  0  0  0  0  0  0  0  0  0  0  0
   51.1650   -6.5667   -7.0352 C   0  0  0  0  0  0  0  0  0  0  0  0
   50.9328   -5.2879   -5.0704 C   0  0  0  0  0  0  0  0  0  0  0  0
   50.0535   -4.3043   -5.4441 C   0  0  0  0  0  0  0  0  0  0  0  0
   49.1118   -3.7577   -4.5692 C   0  0  0  0  0  0  0  0  0  0  0  0
   49.0359   -4.2041   -3.2775 C   0  0  0  0  0  0  0  0  0  0  0  0
   49.8928   -5.1883   -2.8647 C   0  0  0  0  0  0  0  0  0  0  0  0
   50.8240   -5.7201   -3.7356 C   0  0  0  0  0  0  0  0  0  0  0  0
   51.8908   -6.9960   -3.2365 Cl  0  0  0  0  0  0  0  0  0  0  0  0
 15 16  1  0  0  0
 16  6  1  0  0  0
  6  7  2  0  0  0
  7  8  1  0  0  0
  8  9  2  0  0  0
  9 10  1  0  0  0
 10 11  2  0  0  0
 11 12  1  0  0  0
 12  1  1  0  0  0
  1  2  2  0  0  0
  2  3  1  0  0  0
  3 22  1  0  0  0
 22 23  1  0  0  0
 23 24  1  0  0  0
 23 25  1  0  0  0
 25 26  2  0  0  0
 26 27  1  0  0  0
 27 28  2  0  0  0
 28 29  1  0  0  0
 29 30  2  0  0  0
 30 31  1  0  0  0
  3  4  2  0  0  0
  4  5  1  0  0  0
  4 17  1  0  0  0
 17 18  1  0  0  0
 17 19  2  0  0  0
 12 13  1  0  0  0
 13 14  2  0  0  0
 14  6  1  0  0  0
 13  9  1  0  0  0
  5  1  1  0  0  0
 30 25  1  0  0  0
 18 20  1  0  0  0
 18 21  1  0  0  0
M  END
> <minimizedAffinity>
-7.99182

> <CNNscore>
0.6279649734

> <CNNaffinity>
7.1081972122

> <CNN_VS>
4.4636988640

> <CNNaffinity_variance>
0.1604381502

$$$$
[H]c1c([H])c([H])c([C@]([H])(Oc2c(C(=O)N([H])[H])sc(-n3c([H])nc4c([H])c([H])c(OC([H])([H])[H])c([H])c43)c2[H])C([H])([H])[H])c(Cl)c1[H]


 31 34  0  0  0  0  0  0  0  0999 V2000
   51.9381   -4.0529   -6.9518 C   0  0  0  0  0  0  0  0  0  0  0  0
   51.9367   -4.9243   -5.9191 C   0  0  0  0  0  0  0  0  0  0  0  0
   50.9562   -4.8789   -4.9904 C   0  0  0  0  0  0  0  0  0  0  0  0
   49.9835   -3.8780   -5.1851 C   0  0  0  0  0  0  0  0  0  0  0  0
   50.5235   -3.1406   -6.5955 S   0  0  0  0  0  0  0  0  0  0  0  0
   56.2609   -4.9389   -8.2023 C   0  0  0  0  0  0  0  0  0  0  0  0
   56.4876   -4.5317   -9.4894 C   0  0  0  0  0  0  0  0  0  0  0  0
   55.5074   -3.9274  -10.2320 C   0  0  0  0  0  0  0  0  0  0  0  0
   54.2472   -3.7093   -9.6946 C   0  0  0  0  0  0  0  0  0  0  0  0
   53.1563   -3.1507  -10.2001 N   0  0  0  0  0  0  0  0  0  0  0  0
   52.2380   -3.2001   -9.2619 C   0  0  0  0  0  0  0  0  0  0  0  0
   52.7037   -3.7828   -8.1376 N   0  0  0  0  0  0  0  0  0  0  0  0
   53.9979   -4.1154   -8.3917 C   0  0  0  0  0  0  0  0  0  0  0  0
   54.9809   -4.7204   -7.6538 C   0  0  0  0  0  0  0  0  0  0  0  0
   57.0298   -6.0990   -6.1540 C   0  0  0  0  0  0  0  0  0  0  0  0
   57.2049   -5.5370   -7.4176 O   0  0  0  0  0  0  0  0  0  0  0  0
   48.7665   -3.6031   -4.3940 C   0  0  0  0  0  0  0  0  0  0  0  0
   48.3119   -4.5617   -3.4753 N   0  0  0  0  0  0  0  0  0  0  0  0
   48.1634   -2.5371   -4.5558 O   0  0  0  0  0  0  0  0  0  0  0  0
   47.5731   -5.3087   -3.6793 H   0  0  0  0  0  0  0  0  0  0  0  0
   48.6968   -4.5780   -2.5211 H   0  0  0  0  0  0  0  0  0  0  0  0
   50.8309   -5.7138   -3.9246 O   0  0  0  0  0  0  0  0  0  0  0  0
   51.2668   -6.6946   -3.1318 C   0  0  0  0  0  0  0  0  0  0  0  0
   50.5764   -6.4497   -1.7257 C   0  0  0  0  0  0  0  0  0  0  0  0
   52.6939   -6.5940   -2.7481 C   0  0  0  0  0  0  0  0  0  0  0  0
   53.4632   -5.4785   -2.9583 C   0  0  0  0  0  0  0  0  0  0  0  0
   54.8342   -5.4430   -2.6941 C   0  0  0  0  0  0  0  0  0  0  0  0
   55.4662   -6.5521   -2.2003 C   0  0  0  0  0  0  0  0  0  0  0  0
   54.7340   -7.6857   -1.9719 C   0  0  0  0  0  0  0  0  0  0  0  0
   53.3792   -7.7132   -2.2402 C   0  0  0  0  0  0  0  0  0  0  0  0
   52.4310   -9.1319   -1.9187 Cl  0  0  0  0  0  0  0  0  0  0  0  0
 15 16  1  0  0  0
 16  6  1  0  0  0
  6  7  2  0  0  0
  7  8  1  0  0  0
  8  9  2  0  0  0
  9 10  1  0  0  0
 10 11  2  0  0  0
 11 12  1  0  0  0
 12  1  1  0  0  0
  1  2  2  0  0  0
  2  3  1  0  0  0
  3 22  1  0  0  0
 22 23  1  0  0  0
 23 24  1  0  0  0
 23 25  1  0  0  0
 25 26  2  0  0  0
 26 27  1  0  0  0
 27 28  2  0  0  0
 28 29  1  0  0  0
 29 30  2  0  0  0
 30 31  1  0  0  0
  3  4  2  0  0  0
  4  5  1  0  0  0
  4 17  1  0  0  0
 17 18  1  0  0  0
 17 19  2  0  0  0
 12 13  1  0  0  0
 13 14  2  0  0  0
 14  6  1  0  0  0
 13  9  1  0  0  0
  5  1  1  0  0  0
 30 25  1  0  0  0
 18 20  1  0  0  0
 18 21  1  0  0  0
M  END
> <minimizedAffinity>
-8.21641

> <CNNscore>
0.4834667146

> <CNNaffinity>
7.2371582985

> <CNN_VS>
3.4989252090

> <CNNaffinity_variance>
0.2725277841

$$$$
[H]c1c([H])c([H])c([C@]([H])(Oc2c(C(=O)N([H])[H])sc(-n3c([H])nc4c([H])c([H])c(OC([H])([H])[H])c([H])c43)c2[H])C([H])([H])[H])c(Cl)c1[H]


 31 34  0  0  0  0  0  0  0  0999 V2000
   55.0261   -4.6051   -8.2280 C   0  0  0  0  0  0  0  0  0  0  0  0
   54.2514   -5.1548   -7.2671 C   0  0  0  0  0  0  0  0  0  0  0  0
   53.0137   -4.6679   -7.0282 C   0  0  0  0  0  0  0  0  0  0  0  0
   52.6264   -3.5772   -7.8320 C   0  0  0  0  0  0  0  0  0  0  0  0
   53.9826   -3.3629   -8.8012 S   0  0  0  0  0  0  0  0  0  0  0  0
   56.6928   -3.9230  -12.4461 C   0  0  0  0  0  0  0  0  0  0  0  0
   58.0273   -4.2238  -12.4959 C   0  0  0  0  0  0  0  0  0  0  0  0
   58.6988   -4.6834  -11.3935 C   0  0  0  0  0  0  0  0  0  0  0  0
   58.0386   -4.8584  -10.1862 C   0  0  0  0  0  0  0  0  0  0  0  0
   58.4587   -5.2868   -9.0039 N   0  0  0  0  0  0  0  0  0  0  0  0
   57.4192   -5.2584   -8.2013 C   0  0  0  0  0  0  0  0  0  0  0  0
   56.3116   -4.8184   -8.8340 N   0  0  0  0  0  0  0  0  0  0  0  0
   56.6859   -4.5586  -10.1156 C   0  0  0  0  0  0  0  0  0  0  0  0
   56.0192   -4.0980  -11.2203 C   0  0  0  0  0  0  0  0  0  0  0  0
   56.1990   -3.7410  -14.8660 C   0  0  0  0  0  0  0  0  0  0  0  0
   55.9758   -3.4708  -13.5168 O   0  0  0  0  0  0  0  0  0  0  0  0
   51.3341   -2.8619   -7.8621 C   0  0  0  0  0  0  0  0  0  0  0  0
   50.1649   -3.5369   -7.4789 N   0  0  0  0  0  0  0  0  0  0  0  0
   51.2997   -1.6827   -8.2290 O   0  0  0  0  0  0  0  0  0  0  0  0
   49.4933   -4.0341   -8.1477 H   0  0  0  0  0  0  0  0  0  0  0  0
   49.9008   -3.5780   -6.4852 H   0  0  0  0  0  0  0  0  0  0  0  0
   52.1331   -5.1491   -6.1108 O   0  0  0  0  0  0  0  0  0  0  0  0
   51.7313   -6.0557   -5.2179 C   0  0  0  0  0  0  0  0  0  0  0  0
   50.2118   -5.7181   -4.9164 C   0  0  0  0  0  0  0  0  0  0  0  0
   52.3128   -5.8940   -3.8652 C   0  0  0  0  0  0  0  0  0  0  0  0
   51.7002   -5.2066   -2.8491 C   0  0  0  0  0  0  0  0  0  0  0  0
   52.3147   -4.9682   -1.6176 C   0  0  0  0  0  0  0  0  0  0  0  0
   53.5813   -5.4307   -1.3825 C   0  0  0  0  0  0  0  0  0  0  0  0
   54.2271   -6.1257   -2.3690 C   0  0  0  0  0  0  0  0  0  0  0  0
   53.6133   -6.3530   -3.5856 C   0  0  0  0  0  0  0  0  0  0  0  0
   54.4058   -7.2665   -4.8317 Cl  0  0  0  0  0  0  0  0  0  0  0  0
 15 16  1  0  0  0
 16  6  1  0  0  0
  6  7  2  0  0  0
  7  8  1  0  0  0
  8  9  2  0  0  0
  9 10  1  0  0  0
 10 11  2  0  0  0
 11 12  1  0  0  0
 12  1  1  0  0  0
  1  2  2  0  0  0
  2  3  1  0  0  0
  3 22  1  0  0  0
 22 23  1  0  0  0
 23 24  1  0  0  0
 23 25  1  0  0  0
 25 26  2  0  0  0
 26 27  1  0  0  0
 27 28  2  0  0  0
 28 29  1  0  0  0
 29 30  2  0  0  0
 30 31  1  0  0  0
  3  4  2  0  0  0
  4  5  1  0  0  0
  4 17  1  0  0  0
 17 18  1  0  0  0
 17 19  2  0  0  0
 12 13  1  0  0  0
 13 14  2  0  0  0
 14  6  1  0  0  0
 13  9  1  0  0  0
  5  1  1  0  0  0
 30 25  1  0  0  0
 18 20  1  0  0  0
 18 21  1  0  0  0
M  END
> <minimizedAffinity>
-8.83342

> <CNNscore>
0.4425126016

> <CNNaffinity>
7.0346174240

> <CNN_VS>
3.1129069328

> <CNNaffinity_variance>
0.1721481532

$$$$
[H]c1c([H])c([H])c([C@]([H])(Oc2c(C(=O)N([H])[H])sc(-n3c([H])nc4c([H])c([H])c(OC([H])([H])[H])c([H])c43)c2[H])C([H])([H])[H])c(Cl)c1[H]


 31 34  0  0  0  0  0  0  0  0999 V2000
   59.7426   -5.9569   -9.2717 C   0  0  0  0  0  0  0  0  0  0  0  0
   58.5994   -5.5748   -8.6611 C   0  0  0  0  0  0  0  0  0  0  0  0
   57.5989   -5.0152   -9.3764 C   0  0  0  0  0  0  0  0  0  0  0  0
   57.8501   -4.8658  -10.7550 C   0  0  0  0  0  0  0  0  0  0  0  0
   59.3981   -5.5049  -10.8957 S   0  0  0  0  0  0  0  0  0  0  0  0
   63.6255   -6.7469  -11.5814 C   0  0  0  0  0  0  0  0  0  0  0  0
   64.5529   -7.3552  -10.7791 C   0  0  0  0  0  0  0  0  0  0  0  0
   64.2734   -7.6731   -9.4760 C   0  0  0  0  0  0  0  0  0  0  0  0
   63.0315   -7.3850   -8.9293 C   0  0  0  0  0  0  0  0  0  0  0  0
   62.5285   -7.5948   -7.7207 N   0  0  0  0  0  0  0  0  0  0  0  0
   61.3013   -7.1262   -7.7363 C   0  0  0  0  0  0  0  0  0  0  0  0
   60.9798   -6.6086   -8.9402 N   0  0  0  0  0  0  0  0  0  0  0  0
   62.0782   -6.7682   -9.7264 C   0  0  0  0  0  0  0  0  0  0  0  0
   62.3630   -6.4511  -11.0284 C   0  0  0  0  0  0  0  0  0  0  0  0
   62.9307   -5.9237  -13.8112 C   0  0  0  0  0  0  0  0  0  0  0  0
   63.8504   -6.4175  -12.8874 O   0  0  0  0  0  0  0  0  0  0  0  0
   56.9525   -4.3509  -11.8094 C   0  0  0  0  0  0  0  0  0  0  0  0
   55.8509   -3.5596  -11.4492 N   0  0  0  0  0  0  0  0  0  0  0  0
   57.1805   -4.6282  -12.9915 O   0  0  0  0  0  0  0  0  0  0  0  0
   54.8577   -3.9238  -11.2865 H   0  0  0  0  0  0  0  0  0  0  0  0
   55.9697   -2.5454  -11.3225 H   0  0  0  0  0  0  0  0  0  0  0  0
   56.3965   -4.6147   -8.8839 O   0  0  0  0  0  0  0  0  0  0  0  0
   55.6291   -3.8173   -8.1386 C   0  0  0  0  0  0  0  0  0  0  0  0
   56.4332   -3.5820   -6.7926 C   0  0  0  0  0  0  0  0  0  0  0  0
   54.4028   -4.4560   -7.6073 C   0  0  0  0  0  0  0  0  0  0  0  0
   54.4035   -5.6128   -6.8710 C   0  0  0  0  0  0  0  0  0  0  0  0
   53.2304   -6.2604   -6.4765 C   0  0  0  0  0  0  0  0  0  0  0  0
   52.0117   -5.7413   -6.8211 C   0  0  0  0  0  0  0  0  0  0  0  0
   51.9663   -4.5852   -7.5523 C   0  0  0  0  0  0  0  0  0  0  0  0
   53.1316   -3.9538   -7.9419 C   0  0  0  0  0  0  0  0  0  0  0  0
   53.0883   -2.4660   -8.8362 Cl  0  0  0  0  0  0  0  0  0  0  0  0
 15 16  1  0  0  0
 16  6  1  0  0  0
  6  7  2  0  0  0
  7  8  1  0  0  0
  8  9  2  0  0  0
  9 10  1  0  0  0
 10 11  2  0  0  0
 11 12  1  0  0  0
 12  1  1  0  0  0
  1  2  2  0  0  0
  2  3  1  0  0  0
  3 22  1  0  0  0
 22 23  1  0  0  0
 23 24  1  0  0  0
 23 25  1  0  0  0
 25 26  2  0  0  0
 26 27  1  0  0  0
 27 28  2  0  0  0
 28 29  1  0  0  0
 29 30  2  0  0  0
 30 31  1  0  0  0
  3  4  2  0  0  0
  4  5  1  0  0  0
  4 17  1  0  0  0
 17 18  1  0  0  0
 17 19  2  0  0  0
 12 13  1  0  0  0
 13 14  2  0  0  0
 14  6  1  0  0  0
 13  9  1  0  0  0
  5  1  1  0  0  0
 30 25  1  0  0  0
 18 20  1  0  0  0
 18 21  1  0  0  0
M  END
> <minimizedAffinity>
-6.91932

> <CNNscore>
0.4207984507

> <CNNaffinity>
6.0156087875

> <CNN_VS>
2.5313589573

> <CNNaffinity_variance>
0.5501288772

$$$$
[H]c1c([H])c([H])c([C@]([H])(Oc2c(C(=O)N([H])[H])sc(-n3c([H])nc4c([H])c([H])c(OC([H])([H])[H])c([H])c43)c2[H])C([H])([H])[H])c(Cl)c1[H]


 31 34  0  0  0  0  0  0  0  0999 V2000
   60.1692   -6.0048   -9.1197 C   0  0  0  0  0  0  0  0  0  0  0  0
   59.0108   -5.6846   -8.5022 C   0  0  0  0  0  0  0  0  0  0  0  0
   57.9707   -5.1982   -9.2145 C   0  0  0  0  0  0  0  0  0  0  0  0
   58.1984   -5.0541  -10.5977 C   0  0  0  0  0  0  0  0  0  0  0  0
   59.7814   -5.5988  -10.7461 S   0  0  0  0  0  0  0  0  0  0  0  0
   62.2123   -9.9879  -10.1177 C   0  0  0  0  0  0  0  0  0  0  0  0
   63.4866  -10.0189   -9.6185 C   0  0  0  0  0  0  0  0  0  0  0  0
   64.0020   -8.9677   -8.9066 C   0  0  0  0  0  0  0  0  0  0  0  0
   63.2396   -7.8333   -8.6699 C   0  0  0  0  0  0  0  0  0  0  0  0
   63.5063   -6.7105   -8.0172 N   0  0  0  0  0  0  0  0  0  0  0  0
   62.4289   -5.9631   -8.0968 C   0  0  0  0  0  0  0  0  0  0  0  0
   61.4475   -6.5742   -8.7924 N   0  0  0  0  0  0  0  0  0  0  0  0
   61.9458   -7.7827   -9.1681 C   0  0  0  0  0  0  0  0  0  0  0  0
   61.4355   -8.8358   -9.8805 C   0  0  0  0  0  0  0  0  0  0  0  0
   62.1783  -12.2798  -11.0551 C   0  0  0  0  0  0  0  0  0  0  0  0
   61.6487  -11.0110  -10.8250 O   0  0  0  0  0  0  0  0  0  0  0  0
   57.2604   -4.6111  -11.6495 C   0  0  0  0  0  0  0  0  0  0  0  0
   56.1367   -3.8495  -11.2930 N   0  0  0  0  0  0  0  0  0  0  0  0
   57.4746   -4.9213  -12.8260 O   0  0  0  0  0  0  0  0  0  0  0  0
   55.1618   -4.2449  -11.0962 H   0  0  0  0  0  0  0  0  0  0  0  0
   56.2191   -2.8277  -11.2041 H   0  0  0  0  0  0  0  0  0  0  0  0
   56.7507   -4.8653   -8.7147 O   0  0  0  0  0  0  0  0  0  0  0  0
   55.8966   -4.0100   -8.1496 C   0  0  0  0  0  0  0  0  0  0  0  0
   56.5549   -3.5945   -6.7684 C   0  0  0  0  0  0  0  0  0  0  0  0
   54.6348   -4.6196   -7.6697 C   0  0  0  0  0  0  0  0  0  0  0  0
   54.5777   -5.7770   -6.9367 C   0  0  0  0  0  0  0  0  0  0  0  0
   53.3743   -6.3964   -6.5915 C   0  0  0  0  0  0  0  0  0  0  0  0
   52.1834   -5.8475   -6.9838 C   0  0  0  0  0  0  0  0  0  0  0  0
   52.1956   -4.6896   -7.7136 C   0  0  0  0  0  0  0  0  0  0  0  0
   53.3906   -4.0862   -8.0543 C   0  0  0  0  0  0  0  0  0  0  0  0
   53.4196   -2.5966   -8.9462 Cl  0  0  0  0  0  0  0  0  0  0  0  0
 15 16  1  0  0  0
 16  6  1  0  0  0
  6  7  2  0  0  0
  7  8  1  0  0  0
  8  9  2  0  0  0
  9 10  1  0  0  0
 10 11  2  0  0  0
 11 12  1  0  0  0
 12  1  1  0  0  0
  1  2  2  0  0  0
  2  3  1  0  0  0
  3 22  1  0  0  0
 22 23  1  0  0  0
 23 24  1  0  0  0
 23 25  1  0  0  0
 25 26  2  0  0  0
 26 27  1  0  0  0
 27 28  2  0  0  0
 28 29  1  0  0  0
 29 30  2  0  0  0
 30 31  1  0  0  0
  3  4  2  0  0  0
  4  5  1  0  0  0
  4 17  1  0  0  0
 17 18  1  0  0  0
 17 19  2  0  0  0
 12 13  1  0  0  0
 13 14  2  0  0  0
 14  6  1  0  0  0
 13  9  1  0  0  0
  5  1  1  0  0  0
 30 25  1  0  0  0
 18 20  1  0  0  0
 18 21  1  0  0  0
M  END
> <minimizedAffinity>
-6.58285

> <CNNscore>
0.4168489575

> <CNNaffinity>
5.9699754715

> <CNN_VS>
2.4885780811

> <CNNaffinity_variance>
0.4244773984

$$$$
[H]c1c([H])c([H])c([C@]([H])(Oc2c(C(=O)N([H])[H])sc(-n3c([H])nc4c([H])c([H])c(OC([H])([H])[H])c([H])c43)c2[H])C([H])([H])[H])c(Cl)c1[H]


 31 34  0  0  0  0  0  0  0  0999 V2000
   52.9440   -4.3686   -6.9998 C   0  0  0  0  0  0  0  0  0  0  0  0
   53.7626   -5.1919   -6.3085 C   0  0  0  0  0  0  0  0  0  0  0  0
   54.9913   -5.4893   -6.7857 C   0  0  0  0  0  0  0  0  0  0  0  0
   55.3220   -4.8949   -8.0199 C   0  0  0  0  0  0  0  0  0  0  0  0
   53.9323   -4.0142   -8.3629 S   0  0  0  0  0  0  0  0  0  0  0  0
   49.6350   -4.6699   -3.8384 C   0  0  0  0  0  0  0  0  0  0  0  0
   48.6036   -3.8190   -4.1318 C   0  0  0  0  0  0  0  0  0  0  0  0
   48.6229   -3.0308   -5.2524 C   0  0  0  0  0  0  0  0  0  0  0  0
   49.6977   -3.0744   -6.1284 C   0  0  0  0  0  0  0  0  0  0  0  0
   49.9420   -2.4269   -7.2591 N   0  0  0  0  0  0  0  0  0  0  0  0
   51.1116   -2.8444   -7.6877 C   0  0  0  0  0  0  0  0  0  0  0  0
   51.6486   -3.7630   -6.8579 N   0  0  0  0  0  0  0  0  0  0  0  0
   50.7530   -3.9302   -5.8480 C   0  0  0  0  0  0  0  0  0  0  0  0
   50.7296   -4.7153   -4.7254 C   0  0  0  0  0  0  0  0  0  0  0  0
   50.7535   -6.1712   -2.2173 C   0  0  0  0  0  0  0  0  0  0  0  0
   49.6608   -5.4819   -2.7407 O   0  0  0  0  0  0  0  0  0  0  0  0
   56.5905   -4.9696   -8.7734 C   0  0  0  0  0  0  0  0  0  0  0  0
   57.7464   -5.4384   -8.1300 N   0  0  0  0  0  0  0  0  0  0  0  0
   56.6177   -4.6136   -9.9561 O   0  0  0  0  0  0  0  0  0  0  0  0
   58.4824   -4.8208   -7.6586 H   0  0  0  0  0  0  0  0  0  0  0  0
   57.9338   -6.4493   -8.0885 H   0  0  0  0  0  0  0  0  0  0  0  0
   55.9124   -6.2802   -6.1734 O   0  0  0  0  0  0  0  0  0  0  0  0
   56.3374   -7.0332   -5.1571 C   0  0  0  0  0  0  0  0  0  0  0  0
   55.0627   -7.8265   -4.6476 C   0  0  0  0  0  0  0  0  0  0  0  0
   56.6887   -6.2796   -3.9313 C   0  0  0  0  0  0  0  0  0  0  0  0
   56.0398   -5.1427   -3.5229 C   0  0  0  0  0  0  0  0  0  0  0  0
   56.4585   -4.3834   -2.4279 C   0  0  0  0  0  0  0  0  0  0  0  0
   57.5582   -4.7661   -1.7085 C   0  0  0  0  0  0  0  0  0  0  0  0
   58.2326   -5.8977   -2.0801 C   0  0  0  0  0  0  0  0  0  0  0  0
   57.8140   -6.6402   -3.1672 C   0  0  0  0  0  0  0  0  0  0  0  0
   58.6368   -8.0989   -3.6259 Cl  0  0  0  0  0  0  0  0  0  0  0  0
 15 16  1  0  0  0
 16  6  1  0  0  0
  6  7  2  0  0  0
  7  8  1  0  0  0
  8  9  2  0  0  0
  9 10  1  0  0  0
 10 11  2  0  0  0
 11 12  1  0  0  0
 12  1  1  0  0  0
  1  2  2  0  0  0
  2  3  1  0  0  0
  3 22  1  0  0  0
 22 23  1  0  0  0
 23 24  1  0  0  0
 23 25  1  0  0  0
 25 26  2  0  0  0
 26 27  1  0  0  0
 27 28  2  0  0  0
 28 29  1  0  0  0
 29 30  2  0  0  0
 30 31  1  0  0  0
  3  4  2  0  0  0
  4  5  1  0  0  0
  4 17  1  0  0  0
 17 18  1  0  0  0
 17 19  2  0  0  0
 12 13  1  0  0  0
 13 14  2  0  0  0
 14  6  1  0  0  0
 13  9  1  0  0  0
  5  1  1  0  0  0
 30 25  1  0  0  0
 18 20  1  0  0  0
 18 21  1  0  0  0
M  END
> <minimizedAffinity>
-8.83344

> <CNNscore>
0.3775001168

> <CNNaffinity>
6.9765839577

> <CNN_VS>
2.6336612701

> <CNNaffinity_variance>
0.1752059609

$$$$
[H]c1nc(N([H])c2c([H])c([H])c([H])c([H])c2F)nc2c1C([H])([H])C([H])([H])c1c(C(=O)N([H])[H])nn(C([H])([H])[H])c1-2


 28 31  0  0  0  0  0  0  0  0999 V2000
   53.8964   -6.3576   -6.1025 C   0  0  0  0  0  0  0  0  0  0  0  0
   52.6860   -5.7711   -5.5570 N   0  0  0  0  0  0  0  0  0  0  0  0
   52.0715   -6.1313   -4.4430 N   0  0  0  0  0  0  0  0  0  0  0  0
   50.9816   -5.3981   -4.2126 C   0  0  0  0  0  0  0  0  0  0  0  0
   50.9185   -4.4952   -5.2942 C   0  0  0  0  0  0  0  0  0  0  0  0
   49.9397   -3.4558   -5.5657 C   0  0  0  0  0  0  0  0  0  0  0  0
   50.0766   -2.6398   -6.7872 C   0  0  0  0  0  0  0  0  0  0  0  0
   51.2511   -2.9533   -7.6254 C   0  0  0  0  0  0  0  0  0  0  0  0
   51.4606   -2.2160   -8.7861 C   0  0  0  0  0  0  0  0  0  0  0  0
   52.5226   -2.5110   -9.5364 N   0  0  0  0  0  0  0  0  0  0  0  0
   53.4146   -3.4542   -9.2811 C   0  0  0  0  0  0  0  0  0  0  0  0
   53.1928   -4.1709   -8.1336 N   0  0  0  0  0  0  0  0  0  0  0  0
   52.1590   -3.9516   -7.3166 C   0  0  0  0  0  0  0  0  0  0  0  0
   51.9810   -4.7467   -6.1085 C   0  0  0  0  0  0  0  0  0  0  0  0
   50.0327   -5.4774   -3.0992 C   0  0  0  0  0  0  0  0  0  0  0  0
   50.4713   -6.1543   -1.9267 N   0  0  0  0  0  0  0  0  0  0  0  0
   48.8959   -4.9950   -3.1305 O   0  0  0  0  0  0  0  0  0  0  0  0
   49.8658   -6.7751   -1.3516 H   0  0  0  0  0  0  0  0  0  0  0  0
   51.4624   -6.0152   -1.6310 H   0  0  0  0  0  0  0  0  0  0  0  0
   54.5497   -3.8034  -10.0402 N   0  0  0  0  0  0  0  0  0  0  0  0
   54.4573   -3.6752  -11.0993 H   0  0  0  0  0  0  0  0  0  0  0  0
   55.7833   -4.2961   -9.5909 C   0  0  0  0  0  0  0  0  0  0  0  0
   56.1726   -4.4644   -8.2879 C   0  0  0  0  0  0  0  0  0  0  0  0
   57.4386   -4.9688   -7.9496 C   0  0  0  0  0  0  0  0  0  0  0  0
   58.3486   -5.3183   -8.9012 C   0  0  0  0  0  0  0  0  0  0  0  0
   57.9746   -5.1559  -10.2153 C   0  0  0  0  0  0  0  0  0  0  0  0
   56.7392   -4.6637  -10.5472 C   0  0  0  0  0  0  0  0  0  0  0  0
   56.4345   -4.5286  -11.8749 F   0  0  0  0  0  0  0  0  0  0  0  0
  1  2  1  0  0  0
  2  3  1  0  0  0
  3  4  2  0  0  0
  4 15  1  0  0  0
 15 16  1  0  0  0
 15 17  2  0  0  0
  4  5  1  0  0  0
  5  6  1  0  0  0
  6  7  1  0  0  0
  7  8  1  0  0  0
  8  9  2  0  0  0
  9 10  1  0  0  0
 10 11  2  0  0  0
 11 20  1  0  0  0
 20 22  1  0  0  0
 22 23  2  0  0  0
 23 24  1  0  0  0
 24 25  2  0  0  0
 25 26  1  0  0  0
 26 27  2  0  0  0
 27 28  1  0  0  0
 11 12  1  0  0  0
 12 13  2  0  0  0
 13 14  1  0  0  0
 14  2  1  0  0  0
 14  5  2  0  0  0
 13  8  1  0  0  0
 27 22  1  0  0  0
 16 18  1  0  0  0
 16 19  1  0  0  0
 20 21  1  0  0  0
M  END
> <minimizedAffinity>
-11.19761

> <CNNscore>
0.9501446486

> <CNNaffinity>
7.3631753922

> <CNN_VS>
6.9960818291

> <CNNaffinity_variance>
0.0600624308

$$$$
[H]c1nc(N([H])c2c([H])c([H])c([H])c([H])c2F)nc2c1C([H])([H])C([H])([H])c1c(C(=O)N([H])[H])nn(C([H])([H])[H])c1-2


 28 31  0  0  0  0  0  0  0  0999 V2000
   53.8557   -2.7791   -9.1038 C   0  0  0  0  0  0  0  0  0  0  0  0
   52.7911   -3.1644   -8.1956 N   0  0  0  0  0  0  0  0  0  0  0  0
   51.5695   -2.6598   -8.1580 N   0  0  0  0  0  0  0  0  0  0  0  0
   50.8231   -3.2250   -7.2082 C   0  0  0  0  0  0  0  0  0  0  0  0
   51.6709   -4.1734   -6.5994 C   0  0  0  0  0  0  0  0  0  0  0  0
   51.3893   -5.0860   -5.5039 C   0  0  0  0  0  0  0  0  0  0  0  0
   52.4567   -5.9837   -5.0227 C   0  0  0  0  0  0  0  0  0  0  0  0
   53.7396   -5.8808   -5.7465 C   0  0  0  0  0  0  0  0  0  0  0  0
   54.7915   -6.7068   -5.3641 C   0  0  0  0  0  0  0  0  0  0  0  0
   55.9459   -6.6020   -6.0230 N   0  0  0  0  0  0  0  0  0  0  0  0
   56.1950   -5.7738   -7.0242 C   0  0  0  0  0  0  0  0  0  0  0  0
   55.1476   -4.9674   -7.3879 N   0  0  0  0  0  0  0  0  0  0  0  0
   53.9533   -4.9972   -6.7903 C   0  0  0  0  0  0  0  0  0  0  0  0
   52.8784   -4.1155   -7.2269 C   0  0  0  0  0  0  0  0  0  0  0  0
   49.4305   -2.9532   -6.8432 C   0  0  0  0  0  0  0  0  0  0  0  0
   48.5012   -2.8105   -7.9114 N   0  0  0  0  0  0  0  0  0  0  0  0
   49.0351   -2.8448   -5.6780 O   0  0  0  0  0  0  0  0  0  0  0  0
   47.7265   -2.1158   -7.9208 H   0  0  0  0  0  0  0  0  0  0  0  0
   48.6089   -3.4448   -8.7332 H   0  0  0  0  0  0  0  0  0  0  0  0
   57.3941   -5.6258   -7.7502 N   0  0  0  0  0  0  0  0  0  0  0  0
   58.2898   -5.8890   -7.2256 H   0  0  0  0  0  0  0  0  0  0  0  0
   57.5680   -5.1795   -9.0681 C   0  0  0  0  0  0  0  0  0  0  0  0
   56.6941   -4.4153   -9.7961 C   0  0  0  0  0  0  0  0  0  0  0  0
   56.9708   -4.0232  -11.1157 C   0  0  0  0  0  0  0  0  0  0  0  0
   58.1253   -4.3828  -11.7431 C   0  0  0  0  0  0  0  0  0  0  0  0
   59.0146   -5.1504  -11.0270 C   0  0  0  0  0  0  0  0  0  0  0  0
   58.7461   -5.5340   -9.7389 C   0  0  0  0  0  0  0  0  0  0  0  0
   59.6763   -6.2974   -9.0863 F   0  0  0  0  0  0  0  0  0  0  0  0
  1  2  1  0  0  0
  2  3  1  0  0  0
  3  4  2  0  0  0
  4 15  1  0  0  0
 15 16  1  0  0  0
 15 17  2  0  0  0
  4  5  1  0  0  0
  5  6  1  0  0  0
  6  7  1  0  0  0
  7  8  1  0  0  0
  8  9  2  0  0  0
  9 10  1  0  0  0
 10 11  2  0  0  0
 11 20  1  0  0  0
 20 22  1  0  0  0
 22 23  2  0  0  0
 23 24  1  0  0  0
 24 25  2  0  0  0
 25 26  1  0  0  0
 26 27  2  0  0  0
 27 28  1  0  0  0
 11 12  1  0  0  0
 12 13  2  0  0  0
 13 14  1  0  0  0
 14  2  1  0  0  0
 14  5  2  0  0  0
 13  8  1  0  0  0
 27 22  1  0  0  0
 16 18  1  0  0  0
 16 19  1  0  0  0
 20 21  1  0  0  0
M  END
> <minimizedAffinity>
-8.89039

> <CNNscore>
0.8674258590

> <CNNaffinity>
7.1458654404

> <CNN_VS>
6.1985082626

> <CNNaffinity_variance>
0.0878802016

$$$$
[H]c1nc(N([H])c2c([H])c([H])c([H])c([H])c2F)nc2c1C([H])([H])C([H])([H])c1c(C(=O)N([H])[H])nn(C([H])([H])[H])c1-2


 28 31  0  0  0  0  0  0  0  0999 V2000
   54.8955   -6.3932   -5.7980 C   0  0  0  0  0  0  0  0  0  0  0  0
   53.6237   -6.2260   -5.1187 N   0  0  0  0  0  0  0  0  0  0  0  0
   53.2425   -6.8291   -4.0054 N   0  0  0  0  0  0  0  0  0  0  0  0
   52.0150   -6.4642   -3.6331 C   0  0  0  0  0  0  0  0  0  0  0  0
   51.5982   -5.5435   -4.6166 C   0  0  0  0  0  0  0  0  0  0  0  0
   50.3432   -4.8178   -4.7209 C   0  0  0  0  0  0  0  0  0  0  0  0
   50.1291   -3.9114   -5.8652 C   0  0  0  0  0  0  0  0  0  0  0  0
   51.2618   -3.8076   -6.8066 C   0  0  0  0  0  0  0  0  0  0  0  0
   51.1449   -2.9594   -7.9029 C   0  0  0  0  0  0  0  0  0  0  0  0
   52.1731   -2.8770   -8.7477 N   0  0  0  0  0  0  0  0  0  0  0  0
   53.3163   -3.5350   -8.6445 C   0  0  0  0  0  0  0  0  0  0  0  0
   53.4144   -4.3660   -7.5585 N   0  0  0  0  0  0  0  0  0  0  0  0
   52.4408   -4.5173   -6.6566 C   0  0  0  0  0  0  0  0  0  0  0  0
   52.6086   -5.4147   -5.5209 C   0  0  0  0  0  0  0  0  0  0  0  0
   51.2348   -6.8970   -2.4711 C   0  0  0  0  0  0  0  0  0  0  0  0
   51.5467   -8.1737   -1.9255 N   0  0  0  0  0  0  0  0  0  0  0  0
   50.3394   -6.2203   -1.9551 O   0  0  0  0  0  0  0  0  0  0  0  0
   50.8359   -8.8422   -1.5638 H   0  0  0  0  0  0  0  0  0  0  0  0
   52.5523   -8.4507   -1.8890 H   0  0  0  0  0  0  0  0  0  0  0  0
   54.4290   -3.4822   -9.5081 N   0  0  0  0  0  0  0  0  0  0  0  0
   54.2976   -2.9036  -10.3996 H   0  0  0  0  0  0  0  0  0  0  0  0
   55.6844   -4.0875   -9.3534 C   0  0  0  0  0  0  0  0  0  0  0  0
   56.3276   -4.3491   -8.1720 C   0  0  0  0  0  0  0  0  0  0  0  0
   57.5899   -4.9628   -8.1330 C   0  0  0  0  0  0  0  0  0  0  0  0
   58.2432   -5.3312   -9.2702 C   0  0  0  0  0  0  0  0  0  0  0  0
   57.6121   -5.0761  -10.4659 C   0  0  0  0  0  0  0  0  0  0  0  0
   56.3799   -4.4772  -10.5057 C   0  0  0  0  0  0  0  0  0  0  0  0
   55.8111   -4.2536  -11.7306 F   0  0  0  0  0  0  0  0  0  0  0  0
  1  2  1  0  0  0
  2  3  1  0  0  0
  3  4  2  0  0  0
  4 15  1  0  0  0
 15 16  1  0  0  0
 15 17  2  0  0  0
  4  5  1  0  0  0
  5  6  1  0  0  0
  6  7  1  0  0  0
  7  8  1  0  0  0
  8  9  2  0  0  0
  9 10  1  0  0  0
 10 11  2  0  0  0
 11 20  1  0  0  0
 20 22  1  0  0  0
 22 23  2  0  0  0
 23 24  1  0  0  0
 24 25  2  0  0  0
 25 26  1  0  0  0
 26 27  2  0  0  0
 27 28  1  0  0  0
 11 12  1  0  0  0
 12 13  2  0  0  0
 13 14  1  0  0  0
 14  2  1  0  0  0
 14  5  2  0  0  0
 13  8  1  0  0  0
 27 22  1  0  0  0
 16 18  1  0  0  0
 16 19  1  0  0  0
 20 21  1  0  0  0
M  END
> <minimizedAffinity>
-10.43801

> <CNNscore>
0.8643233776

> <CNNaffinity>
7.1758737564

> <CNN_VS>
6.2022752762

> <CNNaffinity_variance>
0.1455984265

$$$$
[H]c1nc(N([H])c2c([H])c([H])c([H])c([H])c2F)nc2c1C([H])([H])C([H])([H])c1c(C(=O)N([H])[H])nn(C([H])([H])[H])c1-2


 28 31  0  0  0  0  0  0  0  0999 V2000
   54.5662   -6.6899   -5.3563 C   0  0  0  0  0  0  0  0  0  0  0  0
   53.2708   -6.0790   -5.1208 N   0  0  0  0  0  0  0  0  0  0  0  0
   52.4729   -6.3017   -4.0902 N   0  0  0  0  0  0  0  0  0  0  0  0
   51.3501   -5.5856   -4.1621 C   0  0  0  0  0  0  0  0  0  0  0  0
   51.4686   -4.8474   -5.3579 C   0  0  0  0  0  0  0  0  0  0  0  0
   50.5403   -3.8949   -5.9438 C   0  0  0  0  0  0  0  0  0  0  0  0
   50.8816   -3.2547   -7.2285 C   0  0  0  0  0  0  0  0  0  0  0  0
   52.1902   -3.6382   -7.7950 C   0  0  0  0  0  0  0  0  0  0  0  0
   52.5930   -3.0645   -8.9964 C   0  0  0  0  0  0  0  0  0  0  0  0
   53.7751   -3.4214   -9.4995 N   0  0  0  0  0  0  0  0  0  0  0  0
   54.6195   -4.2844   -8.9585 C   0  0  0  0  0  0  0  0  0  0  0  0
   54.2066   -4.8400   -7.7751 N   0  0  0  0  0  0  0  0  0  0  0  0
   53.0415   -4.5474   -7.1911 C   0  0  0  0  0  0  0  0  0  0  0  0
   52.6620   -5.1704   -5.9296 C   0  0  0  0  0  0  0  0  0  0  0  0
   50.2197   -5.5434   -3.2311 C   0  0  0  0  0  0  0  0  0  0  0  0
   50.4302   -6.0977   -1.9374 N   0  0  0  0  0  0  0  0  0  0  0  0
   49.1179   -5.0600   -3.5109 O   0  0  0  0  0  0  0  0  0  0  0  0
   49.7187   -6.6520   -1.4183 H   0  0  0  0  0  0  0  0  0  0  0  0
   51.3575   -5.9347   -1.4872 H   0  0  0  0  0  0  0  0  0  0  0  0
   55.8758   -4.6934   -9.4496 N   0  0  0  0  0  0  0  0  0  0  0  0
   56.4597   -5.2971   -8.7852 H   0  0  0  0  0  0  0  0  0  0  0  0
   56.4610   -4.4138  -10.6928 C   0  0  0  0  0  0  0  0  0  0  0  0
   55.8180   -3.9751  -11.8206 C   0  0  0  0  0  0  0  0  0  0  0  0
   56.5061   -3.7253  -13.0188 C   0  0  0  0  0  0  0  0  0  0  0  0
   57.8522   -3.9063  -13.1235 C   0  0  0  0  0  0  0  0  0  0  0  0
   58.5143   -4.3466  -12.0006 C   0  0  0  0  0  0  0  0  0  0  0  0
   57.8441   -4.5909  -10.8302 C   0  0  0  0  0  0  0  0  0  0  0  0
   58.5668   -5.0273   -9.7526 F   0  0  0  0  0  0  0  0  0  0  0  0
  1  2  1  0  0  0
  2  3  1  0  0  0
  3  4  2  0  0  0
  4 15  1  0  0  0
 15 16  1  0  0  0
 15 17  2  0  0  0
  4  5  1  0  0  0
  5  6  1  0  0  0
  6  7  1  0  0  0
  7  8  1  0  0  0
  8  9  2  0  0  0
  9 10  1  0  0  0
 10 11  2  0  0  0
 11 20  1  0  0  0
 20 22  1  0  0  0
 22 23  2  0  0  0
 23 24  1  0  0  0
 24 25  2  0  0  0
 25 26  1  0  0  0
 26 27  2  0  0  0
 27 28  1  0  0  0
 11 12  1  0  0  0
 12 13  2  0  0  0
 13 14  1  0  0  0
 14  2  1  0  0  0
 14  5  2  0  0  0
 13  8  1  0  0  0
 27 22  1  0  0  0
 16 18  1  0  0  0
 16 19  1  0  0  0
 20 21  1  0  0  0
M  END
> <minimizedAffinity>
-9.59446

> <CNNscore>
0.7620983720

> <CNNaffinity>
7.0969781876

> <CNN_VS>
5.4085955620

> <CNNaffinity_variance>
0.2551867664

$$$$
[H]c1nc(N([H])c2c([H])c([H])c([H])c([H])c2F)nc2c1C([H])([H])C([H])([H])c1c(C(=O)N([H])[H])nn(C([H])([H])[H])c1-2


 28 31  0  0  0  0  0  0  0  0999 V2000
   52.6145   -6.1978   -5.0106 C   0  0  0  0  0  0  0  0  0  0  0  0
   51.4729   -5.3033   -5.0678 N   0  0  0  0  0  0  0  0  0  0  0  0
   50.4393   -5.2950   -4.2431 N   0  0  0  0  0  0  0  0  0  0  0  0
   49.5528   -4.3506   -4.5606 C   0  0  0  0  0  0  0  0  0  0  0  0
   50.0953   -3.7130   -5.6955 C   0  0  0  0  0  0  0  0  0  0  0  0
   49.5598   -2.6052   -6.4691 C   0  0  0  0  0  0  0  0  0  0  0  0
   50.3109   -2.1168   -7.6413 C   0  0  0  0  0  0  0  0  0  0  0  0
   51.5893   -2.8079   -7.9026 C   0  0  0  0  0  0  0  0  0  0  0  0
   52.3654   -2.3941   -8.9802 C   0  0  0  0  0  0  0  0  0  0  0  0
   53.5159   -3.0283   -9.2079 N   0  0  0  0  0  0  0  0  0  0  0  0
   54.0021   -4.0322   -8.4963 C   0  0  0  0  0  0  0  0  0  0  0  0
   53.2245   -4.4269   -7.4384 N   0  0  0  0  0  0  0  0  0  0  0  0
   52.0577   -3.8555   -7.1285 C   0  0  0  0  0  0  0  0  0  0  0  0
   51.2793   -4.3197   -5.9873 C   0  0  0  0  0  0  0  0  0  0  0  0
   48.2858   -4.0148   -3.9061 C   0  0  0  0  0  0  0  0  0  0  0  0
   47.5759   -2.8917   -4.4156 N   0  0  0  0  0  0  0  0  0  0  0  0
   47.8164   -4.6471   -2.9543 O   0  0  0  0  0  0  0  0  0  0  0  0
   47.0669   -2.2057   -3.8213 H   0  0  0  0  0  0  0  0  0  0  0  0
   47.5692   -2.7533   -5.4500 H   0  0  0  0  0  0  0  0  0  0  0  0
   55.2086   -4.7331   -8.6960 N   0  0  0  0  0  0  0  0  0  0  0  0
   55.4637   -5.4437   -7.9365 H   0  0  0  0  0  0  0  0  0  0  0  0
   56.1179   -4.6222   -9.7576 C   0  0  0  0  0  0  0  0  0  0  0  0
   55.8558   -4.1414  -11.0137 C   0  0  0  0  0  0  0  0  0  0  0  0
   56.8472   -4.0748  -12.0059 C   0  0  0  0  0  0  0  0  0  0  0  0
   58.1247   -4.4856  -11.7714 C   0  0  0  0  0  0  0  0  0  0  0  0
   58.4059   -4.9714  -10.5153 C   0  0  0  0  0  0  0  0  0  0  0  0
   57.4394   -5.0371   -9.5457 C   0  0  0  0  0  0  0  0  0  0  0  0
   57.7901   -5.5317   -8.3183 F   0  0  0  0  0  0  0  0  0  0  0  0
  1  2  1  0  0  0
  2  3  1  0  0  0
  3  4  2  0  0  0
  4 15  1  0  0  0
 15 16  1  0  0  0
 15 17  2  0  0  0
  4  5  1  0  0  0
  5  6  1  0  0  0
  6  7  1  0  0  0
  7  8  1  0  0  0
  8  9  2  0  0  0
  9 10  1  0  0  0
 10 11  2  0  0  0
 11 20  1  0  0  0
 20 22  1  0  0  0
 22 23  2  0  0  0
 23 24  1  0  0  0
 24 25  2  0  0  0
 25 26  1  0  0  0
 26 27  2  0  0  0
 27 28  1  0  0  0
 11 12  1  0  0  0
 12 13  2  0  0  0
 13 14  1  0  0  0
 14  2  1  0  0  0
 14  5  2  0  0  0
 13  8  1  0  0  0
 27 22  1  0  0  0
 16 18  1  0  0  0
 16 19  1  0  0  0
 20 21  1  0  0  0
M  END
> <minimizedAffinity>
-10.34162

> <CNNscore>
0.7526853681

> <CNNaffinity>
7.2241845131

> <CNN_VS>
5.4375381470

> <CNNaffinity_variance>
0.1729410142

$$$$
[H]c1nc(N([H])c2c([H])c([H])c([H])c([H])c2F)nc2c1C([H])([H])C([H])([H])c1c(C(=O)N([H])[H])nn(C([H])([H])[H])c1-2


 28 31  0  0  0  0  0  0  0  0999 V2000
   55.8081   -5.1097   -5.8780 C   0  0  0  0  0  0  0  0  0  0  0  0
   56.5742   -5.1590   -7.1099 N   0  0  0  0  0  0  0  0  0  0  0  0
   57.8116   -5.6041   -7.2481 N   0  0  0  0  0  0  0  0  0  0  0  0
   58.2370   -5.5176   -8.5091 C   0  0  0  0  0  0  0  0  0  0  0  0
   57.1519   -4.9632   -9.2191 C   0  0  0  0  0  0  0  0  0  0  0  0
   57.0466   -4.6474  -10.6338 C   0  0  0  0  0  0  0  0  0  0  0  0
   55.7992   -4.0492  -11.1466 C   0  0  0  0  0  0  0  0  0  0  0  0
   54.7363   -3.8510  -10.1410 C   0  0  0  0  0  0  0  0  0  0  0  0
   53.5225   -3.3077  -10.5489 C   0  0  0  0  0  0  0  0  0  0  0  0
   52.5718   -3.1304   -9.6310 N   0  0  0  0  0  0  0  0  0  0  0  0
   52.6706   -3.4258   -8.3451 C   0  0  0  0  0  0  0  0  0  0  0  0
   53.8732   -3.9602   -7.9607 N   0  0  0  0  0  0  0  0  0  0  0  0
   54.8863   -4.1764   -8.8040 C   0  0  0  0  0  0  0  0  0  0  0  0
   56.1395   -4.7515   -8.3328 C   0  0  0  0  0  0  0  0  0  0  0  0
   59.5328   -5.9004   -9.0755 C   0  0  0  0  0  0  0  0  0  0  0  0
   60.4397   -6.5744   -8.2105 N   0  0  0  0  0  0  0  0  0  0  0  0
   59.8666   -5.6703  -10.2424 O   0  0  0  0  0  0  0  0  0  0  0  0
   61.4673   -6.4109   -8.2020 H   0  0  0  0  0  0  0  0  0  0  0  0
   60.0432   -7.2747   -7.5459 H   0  0  0  0  0  0  0  0  0  0  0  0
   51.6980   -3.2578   -7.3389 N   0  0  0  0  0  0  0  0  0  0  0  0
   51.1409   -2.3441   -7.3798 H   0  0  0  0  0  0  0  0  0  0  0  0
   51.3644   -4.1291   -6.2921 C   0  0  0  0  0  0  0  0  0  0  0  0
   52.0620   -5.2407   -5.8979 C   0  0  0  0  0  0  0  0  0  0  0  0
   51.6347   -6.0465   -4.8303 C   0  0  0  0  0  0  0  0  0  0  0  0
   50.5016   -5.7650   -4.1286 C   0  0  0  0  0  0  0  0  0  0  0  0
   49.7883   -4.6521   -4.5107 C   0  0  0  0  0  0  0  0  0  0  0  0
   50.2040   -3.8645   -5.5526 C   0  0  0  0  0  0  0  0  0  0  0  0
   49.4452   -2.7727   -5.8780 F   0  0  0  0  0  0  0  0  0  0  0  0
  1  2  1  0  0  0
  2  3  1  0  0  0
  3  4  2  0  0  0
  4 15  1  0  0  0
 15 16  1  0  0  0
 15 17  2  0  0  0
  4  5  1  0  0  0
  5  6  1  0  0  0
  6  7  1  0  0  0
  7  8  1  0  0  0
  8  9  2  0  0  0
  9 10  1  0  0  0
 10 11  2  0  0  0
 11 20  1  0  0  0
 20 22  1  0  0  0
 22 23  2  0  0  0
 23 24  1  0  0  0
 24 25  2  0  0  0
 25 26  1  0  0  0
 26 27  2  0  0  0
 27 28  1  0  0  0
 11 12  1  0  0  0
 12 13  2  0  0  0
 13 14  1  0  0  0
 14  2  1  0  0  0
 14  5  2  0  0  0
 13  8  1  0  0  0
 27 22  1  0  0  0
 16 18  1  0  0  0
 16 19  1  0  0  0
 20 21  1  0  0  0
M  END
> <minimizedAffinity>
-9.18609

> <CNNscore>
0.7053145170

> <CNNaffinity>
6.9479851723

> <CNN_VS>
4.9005146027

> <CNNaffinity_variance>
0.1619374007

$$$$
[H]c1nc(N([H])c2c([H])c([H])c([H])c([H])c2F)nc2c1C([H])([H])C([H])([H])c1c(C(=O)N([H])[H])nn(C([H])([H])[H])c1-2


 28 31  0  0  0  0  0  0  0  0999 V2000
   53.8639   -6.4980   -5.4845 C   0  0  0  0  0  0  0  0  0  0  0  0
   53.3731   -5.5157   -6.4336 N   0  0  0  0  0  0  0  0  0  0  0  0
   53.9463   -5.1706   -7.5741 N   0  0  0  0  0  0  0  0  0  0  0  0
   53.2482   -4.2381   -8.2236 C   0  0  0  0  0  0  0  0  0  0  0  0
   52.1323   -3.9833   -7.3997 C   0  0  0  0  0  0  0  0  0  0  0  0
   51.0305   -3.0586   -7.6075 C   0  0  0  0  0  0  0  0  0  0  0  0
   49.9752   -2.9545   -6.5818 C   0  0  0  0  0  0  0  0  0  0  0  0
   50.1355   -3.8521   -5.4203 C   0  0  0  0  0  0  0  0  0  0  0  0
   49.1722   -3.8266   -4.4172 C   0  0  0  0  0  0  0  0  0  0  0  0
   49.3299   -4.6391   -3.3719 N   0  0  0  0  0  0  0  0  0  0  0  0
   50.3318   -5.4841   -3.1907 C   0  0  0  0  0  0  0  0  0  0  0  0
   51.2717   -5.4962   -4.1887 N   0  0  0  0  0  0  0  0  0  0  0  0
   51.2030   -4.7211   -5.2744 C   0  0  0  0  0  0  0  0  0  0  0  0
   52.2338   -4.7841   -6.3025 C   0  0  0  0  0  0  0  0  0  0  0  0
   53.5373   -3.5939   -9.5072 C   0  0  0  0  0  0  0  0  0  0  0  0
   54.8636   -3.7213  -10.0071 N   0  0  0  0  0  0  0  0  0  0  0  0
   52.7022   -2.9599  -10.1604 O   0  0  0  0  0  0  0  0  0  0  0  0
   55.3786   -2.9589  -10.4933 H   0  0  0  0  0  0  0  0  0  0  0  0
   55.3436   -4.6384   -9.8745 H   0  0  0  0  0  0  0  0  0  0  0  0
   50.5426   -6.3605   -2.1071 N   0  0  0  0  0  0  0  0  0  0  0  0
   49.6656   -6.8346   -1.7161 H   0  0  0  0  0  0  0  0  0  0  0  0
   51.7490   -6.6929   -1.4743 C   0  0  0  0  0  0  0  0  0  0  0  0
   52.7256   -5.8233   -1.0644 C   0  0  0  0  0  0  0  0  0  0  0  0
   53.9007   -6.2675   -0.4372 C   0  0  0  0  0  0  0  0  0  0  0  0
   54.1324   -7.5892   -0.2026 C   0  0  0  0  0  0  0  0  0  0  0  0
   53.1623   -8.4768   -0.6077 C   0  0  0  0  0  0  0  0  0  0  0  0
   52.0147   -8.0450   -1.2201 C   0  0  0  0  0  0  0  0  0  0  0  0
   51.0924   -8.9838   -1.5967 F   0  0  0  0  0  0  0  0  0  0  0  0
  1  2  1  0  0  0
  2  3  1  0  0  0
  3  4  2  0  0  0
  4 15  1  0  0  0
 15 16  1  0  0  0
 15 17  2  0  0  0
  4  5  1  0  0  0
  5  6  1  0  0  0
  6  7  1  0  0  0
  7  8  1  0  0  0
  8  9  2  0  0  0
  9 10  1  0  0  0
 10 11  2  0  0  0
 11 20  1  0  0  0
 20 22  1  0  0  0
 22 23  2  0  0  0
 23 24  1  0  0  0
 24 25  2  0  0  0
 25 26  1  0  0  0
 26 27  2  0  0  0
 27 28  1  0  0  0
 11 12  1  0  0  0
 12 13  2  0  0  0
 13 14  1  0  0  0
 14  2  1  0  0  0
 14  5  2  0  0  0
 13  8  1  0  0  0
 27 22  1  0  0  0
 16 18  1  0  0  0
 16 19  1  0  0  0
 20 21  1  0  0  0
M  END
> <minimizedAffinity>
-9.68395

> <CNNscore>
0.5877798796

> <CNNaffinity>
6.9752960205

> <CNN_VS>
4.0999388695

> <CNNaffinity_variance>
0.3191756606

$$$$
[H]c1nc(N([H])c2c([H])c([H])c([H])c([H])c2F)nc2c1C([H])([H])C([H])([H])c1c(C(=O)N([H])[H])nn(C([H])([H])[H])c1-2


 28 31  0  0  0  0  0  0  0  0999 V2000
   53.6603   -6.3722   -5.4255 C   0  0  0  0  0  0  0  0  0  0  0  0
   53.2613   -5.4058   -6.4323 N   0  0  0  0  0  0  0  0  0  0  0  0
   53.9056   -5.1273   -7.5529 N   0  0  0  0  0  0  0  0  0  0  0  0
   53.2824   -4.1910   -8.2695 C   0  0  0  0  0  0  0  0  0  0  0  0
   52.1389   -3.8594   -7.5138 C   0  0  0  0  0  0  0  0  0  0  0  0
   51.0904   -2.8975   -7.8103 C   0  0  0  0  0  0  0  0  0  0  0  0
   49.9905   -2.7115   -6.8448 C   0  0  0  0  0  0  0  0  0  0  0  0
   50.0528   -3.5716   -5.6462 C   0  0  0  0  0  0  0  0  0  0  0  0
   49.0424   -3.4687   -4.6957 C   0  0  0  0  0  0  0  0  0  0  0  0
   49.1116   -4.2481   -3.6162 N   0  0  0  0  0  0  0  0  0  0  0  0
   50.0652   -5.1271   -3.3542 C   0  0  0  0  0  0  0  0  0  0  0  0
   51.0526   -5.2154   -4.3012 N   0  0  0  0  0  0  0  0  0  0  0  0
   51.0726   -4.4787   -5.4152 C   0  0  0  0  0  0  0  0  0  0  0  0
   52.1499   -4.6227   -6.3857 C   0  0  0  0  0  0  0  0  0  0  0  0
   53.6636   -3.6072   -9.5580 C   0  0  0  0  0  0  0  0  0  0  0  0
   55.0273   -3.7344   -9.9441 N   0  0  0  0  0  0  0  0  0  0  0  0
   52.8740   -3.0232  -10.3073 O   0  0  0  0  0  0  0  0  0  0  0  0
   55.5682   -2.9879  -10.4270 H   0  0  0  0  0  0  0  0  0  0  0  0
   55.5090   -4.6343   -9.7264 H   0  0  0  0  0  0  0  0  0  0  0  0
   50.1828   -5.9710   -2.2314 N   0  0  0  0  0  0  0  0  0  0  0  0
   49.3061   -6.0586   -1.6226 H   0  0  0  0  0  0  0  0  0  0  0  0
   51.2961   -6.7105   -1.8071 C   0  0  0  0  0  0  0  0  0  0  0  0
   51.4269   -8.0745   -1.8206 C   0  0  0  0  0  0  0  0  0  0  0  0
   52.5929   -8.7139   -1.3696 C   0  0  0  0  0  0  0  0  0  0  0  0
   53.6579   -8.0102   -0.8939 C   0  0  0  0  0  0  0  0  0  0  0  0
   53.5441   -6.6392   -0.8731 C   0  0  0  0  0  0  0  0  0  0  0  0
   52.4067   -6.0135   -1.3129 C   0  0  0  0  0  0  0  0  0  0  0  0
   52.3628   -4.6462   -1.2633 F   0  0  0  0  0  0  0  0  0  0  0  0
  1  2  1  0  0  0
  2  3  1  0  0  0
  3  4  2  0  0  0
  4 15  1  0  0  0
 15 16  1  0  0  0
 15 17  2  0  0  0
  4  5  1  0  0  0
  5  6  1  0  0  0
  6  7  1  0  0  0
  7  8  1  0  0  0
  8  9  2  0  0  0
  9 10  1  0  0  0
 10 11  2  0  0  0
 11 20  1  0  0  0
 20 22  1  0  0  0
 22 23  2  0  0  0
 23 24  1  0  0  0
 24 25  2  0  0  0
 25 26  1  0  0  0
 26 27  2  0  0  0
 27 28  1  0  0  0
 11 12  1  0  0  0
 12 13  2  0  0  0
 13 14  1  0  0  0
 14  2  1  0  0  0
 14  5  2  0  0  0
 13  8  1  0  0  0
 27 22  1  0  0  0
 16 18  1  0  0  0
 16 19  1  0  0  0
 20 21  1  0  0  0
M  END
> <minimizedAffinity>
-9.78576

> <CNNscore>
0.5822169781

> <CNNaffinity>
7.0463838577

> <CNN_VS>
4.1025242805

> <CNNaffinity_variance>
0.3557944894

$$$$
[H]c1nc(N([H])c2c([H])c([H])c([H])c([H])c2F)nc2c1C([H])([H])C([H])([H])c1c(C(=O)N([H])[H])nn(C([H])([H])[H])c1-2


 28 31  0  0  0  0  0  0  0  0999 V2000
   51.0112   -2.0933   -7.8916 C   0  0  0  0  0  0  0  0  0  0  0  0
   50.4971   -2.8528   -6.7666 N   0  0  0  0  0  0  0  0  0  0  0  0
   49.3738   -2.6197   -6.1090 N   0  0  0  0  0  0  0  0  0  0  0  0
   49.1796   -3.4963   -5.1229 C   0  0  0  0  0  0  0  0  0  0  0  0
   50.2961   -4.3560   -5.1790 C   0  0  0  0  0  0  0  0  0  0  0  0
   50.6146   -5.5018   -4.3434 C   0  0  0  0  0  0  0  0  0  0  0  0
   51.8662   -6.2440   -4.5867 C   0  0  0  0  0  0  0  0  0  0  0  0
   52.6837   -5.7481   -5.7119 C   0  0  0  0  0  0  0  0  0  0  0  0
   53.8711   -6.4054   -6.0168 C   0  0  0  0  0  0  0  0  0  0  0  0
   54.6022   -5.9459   -7.0328 N   0  0  0  0  0  0  0  0  0  0  0  0
   54.3043   -4.9061   -7.7946 C   0  0  0  0  0  0  0  0  0  0  0  0
   53.1310   -4.2703   -7.4802 N   0  0  0  0  0  0  0  0  0  0  0  0
   52.3301   -4.6538   -6.4823 C   0  0  0  0  0  0  0  0  0  0  0  0
   51.0929   -3.9371   -6.2011 C   0  0  0  0  0  0  0  0  0  0  0  0
   48.0701   -3.5847   -4.1702 C   0  0  0  0  0  0  0  0  0  0  0  0
   47.0135   -2.6440   -4.3236 N   0  0  0  0  0  0  0  0  0  0  0  0
   48.0111   -4.4189   -3.2610 O   0  0  0  0  0  0  0  0  0  0  0  0
   46.5198   -2.1877   -3.5292 H   0  0  0  0  0  0  0  0  0  0  0  0
   46.7205   -2.4009   -5.2953 H   0  0  0  0  0  0  0  0  0  0  0  0
   55.0416   -4.3831   -8.8761 N   0  0  0  0  0  0  0  0  0  0  0  0
   54.5369   -3.6485   -9.4699 H   0  0  0  0  0  0  0  0  0  0  0  0
   56.3481   -4.6981   -9.2763 C   0  0  0  0  0  0  0  0  0  0  0  0
   57.3546   -5.1799   -8.4810 C   0  0  0  0  0  0  0  0  0  0  0  0
   58.6326   -5.4628   -8.9893 C   0  0  0  0  0  0  0  0  0  0  0  0
   58.9399   -5.2726  -10.3027 C   0  0  0  0  0  0  0  0  0  0  0  0
   57.9411   -4.7892  -11.1161 C   0  0  0  0  0  0  0  0  0  0  0  0
   56.6930   -4.5126  -10.6217 C   0  0  0  0  0  0  0  0  0  0  0  0
   55.7477   -4.0340  -11.4884 F   0  0  0  0  0  0  0  0  0  0  0  0
  1  2  1  0  0  0
  2  3  1  0  0  0
  3  4  2  0  0  0
  4 15  1  0  0  0
 15 16  1  0  0  0
 15 17  2  0  0  0
  4  5  1  0  0  0
  5  6  1  0  0  0
  6  7  1  0  0  0
  7  8  1  0  0  0
  8  9  2  0  0  0
  9 10  1  0  0  0
 10 11  2  0  0  0
 11 20  1  0  0  0
 20 22  1  0  0  0
 22 23  2  0  0  0
 23 24  1  0  0  0
 24 25  2  0  0  0
 25 26  1  0  0  0
 26 27  2  0  0  0
 27 28  1  0  0  0
 11 12  1  0  0  0
 12 13  2  0  0  0
 13 14  1  0  0  0
 14  2  1  0  0  0
 14  5  2  0  0  0
 13  8  1  0  0  0
 27 22  1  0  0  0
 16 18  1  0  0  0
 16 19  1  0  0  0
 20 21  1  0  0  0
M  END
> <minimizedAffinity>
-9.43623

> <CNNscore>
0.5040810108

> <CNNaffinity>
6.9277396202

> <CNN_VS>
3.4921419621

> <CNNaffinity_variance>
0.1179707497

$$$$
[H]c1c([H])c([H])c([C@]([H])(Oc2c(C(=O)N([H])[H])sc(-n3c([H])nc4c([H])c([H])c(OC([H])([H])[H])c([H])c43)c2[H])C([H])([H])[H])c(C(F)(F)F)c1[H]


 34 37  0  0  0  0  0  0  0  0999 V2000
   54.7645   -3.8571   -8.6088 C   0  0  0  0  0  0  0  0  0  0  0  0
   55.3772   -3.3338   -9.7569 C   0  0  0  0  0  0  0  0  0  0  0  0
   56.5865   -3.8090  -10.1088 C   0  0  0  0  0  0  0  0  0  0  0  0
   57.1240   -4.7706   -9.2891 C   0  0  0  0  0  0  0  0  0  0  0  0
   55.9183   -4.9715   -8.0599 S   0  0  0  0  0  0  0  0  0  0  0  0
   51.8774   -5.4575   -5.3890 C   0  0  0  0  0  0  0  0  0  0  0  0
   50.6534   -4.8596   -5.5152 C   0  0  0  0  0  0  0  0  0  0  0  0
   50.3798   -3.9196   -6.4756 C   0  0  0  0  0  0  0  0  0  0  0  0
   51.3795   -3.5705   -7.3397 C   0  0  0  0  0  0  0  0  0  0  0  0
   51.4419   -2.6937   -8.3739 N   0  0  0  0  0  0  0  0  0  0  0  0
   52.6623   -2.7249   -8.8948 C   0  0  0  0  0  0  0  0  0  0  0  0
   53.4277   -3.6487   -8.1878 N   0  0  0  0  0  0  0  0  0  0  0  0
   52.6528   -4.1446   -7.2622 C   0  0  0  0  0  0  0  0  0  0  0  0
   52.8766   -5.0991   -6.2631 C   0  0  0  0  0  0  0  0  0  0  0  0
   53.0900   -6.1491   -3.4075 C   0  0  0  0  0  0  0  0  0  0  0  0
   52.0848   -6.4146   -4.3821 O   0  0  0  0  0  0  0  0  0  0  0  0
   58.3501   -5.5804   -9.3557 C   0  0  0  0  0  0  0  0  0  0  0  0
   59.0998   -5.7472   -8.1865 N   0  0  0  0  0  0  0  0  0  0  0  0
   58.6673   -6.0811  -10.4647 O   0  0  0  0  0  0  0  0  0  0  0  0
   60.0819   -5.3379   -8.0906 H   0  0  0  0  0  0  0  0  0  0  0  0
   58.7450   -6.2514   -7.3793 H   0  0  0  0  0  0  0  0  0  0  0  0
   57.3677   -3.4245  -11.2432 O   0  0  0  0  0  0  0  0  0  0  0  0
   57.1765   -3.8165  -12.5022 C   0  0  0  0  0  0  0  0  0  0  0  0
   56.4552   -5.1697  -12.7830 C   0  0  0  0  0  0  0  0  0  0  0  0
   58.0748   -3.5896  -13.6286 C   0  0  0  0  0  0  0  0  0  0  0  0
   59.4844   -3.5232  -13.3710 C   0  0  0  0  0  0  0  0  0  0  0  0
   60.3846   -3.2849  -14.3746 C   0  0  0  0  0  0  0  0  0  0  0  0
   59.9113   -3.1079  -15.6475 C   0  0  0  0  0  0  0  0  0  0  0  0
   58.5717   -3.1697  -15.9147 C   0  0  0  0  0  0  0  0  0  0  0  0
   57.6296   -3.4157  -14.8971 C   0  0  0  0  0  0  0  0  0  0  0  0
   56.2059   -3.5144  -15.2517 C   0  0  0  0  0  0  0  0  0  0  0  0
   55.3292   -2.7379  -14.5561 F   0  0  0  0  0  0  0  0  0  0  0  0
   56.1638   -2.7584  -16.5151 F   0  0  0  0  0  0  0  0  0  0  0  0
   55.8044   -4.7289  -15.7106 F   0  0  0  0  0  0  0  0  0  0  0  0
 15 16  1  0  0  0
 16  6  1  0  0  0
  6  7  2  0  0  0
  7  8  1  0  0  0
  8  9  2  0  0  0
  9 10  1  0  0  0
 10 11  2  0  0  0
 11 12  1  0  0  0
 12  1  1  0  0  0
  1  2  2  0  0  0
  2  3  1  0  0  0
  3 22  1  0  0  0
 22 23  1  0  0  0
 23 24  1  0  0  0
 23 25  1  0  0  0
 25 26  2  0  0  0
 26 27  1  0  0  0
 27 28  2  0  0  0
 28 29  1  0  0  0
 29 30  2  0  0  0
 30 31  1  0  0  0
 31 32  1  0  0  0
 31 33  1  0  0  0
 31 34  1  0  0  0
  3  4  2  0  0  0
  4  5  1  0  0  0
  4 17  1  0  0  0
 17 18  1  0  0  0
 17 19  2  0  0  0
 12 13  1  0  0  0
 13 14  2  0  0  0
 14  6  1  0  0  0
 13  9  1  0  0  0
  5  1  1  0  0  0
 30 25  1  0  0  0
 18 20  1  0  0  0
 18 21  1  0  0  0
M  END
> <minimizedAffinity>
-8.53833

> <CNNscore>
0.6747397780

> <CNNaffinity>
7.1179490089

> <CNN_VS>
4.8027634621

> <CNNaffinity_variance>
0.1660409868

$$$$
[H]c1c([H])c([H])c([C@]([H])(Oc2c(C(=O)N([H])[H])sc(-n3c([H])nc4c([H])c([H])c(OC([H])([H])[H])c([H])c43)c2[H])C([H])([H])[H])c(C(F)(F)F)c1[H]


 34 37  0  0  0  0  0  0  0  0999 V2000
   54.2713   -4.2326   -8.0002 C   0  0  0  0  0  0  0  0  0  0  0  0
   54.8522   -4.9454   -6.9410 C   0  0  0  0  0  0  0  0  0  0  0  0
   56.1159   -5.3863   -7.0846 C   0  0  0  0  0  0  0  0  0  0  0  0
   56.7263   -5.1033   -8.2817 C   0  0  0  0  0  0  0  0  0  0  0  0
   55.5098   -4.2331   -9.1580 S   0  0  0  0  0  0  0  0  0  0  0  0
   50.2583   -4.3432   -5.7314 C   0  0  0  0  0  0  0  0  0  0  0  0
   49.4270   -3.3617   -6.1973 C   0  0  0  0  0  0  0  0  0  0  0  0
   49.7882   -2.4916   -7.1940 C   0  0  0  0  0  0  0  0  0  0  0  0
   51.0349   -2.6173   -7.7394 C   0  0  0  0  0  0  0  0  0  0  0  0
   51.6906   -1.9344   -8.7120 N   0  0  0  0  0  0  0  0  0  0  0  0
   52.9011   -2.4564   -8.8666 C   0  0  0  0  0  0  0  0  0  0  0  0
   53.0499   -3.5148   -7.9739 N   0  0  0  0  0  0  0  0  0  0  0  0
   51.9319   -3.5995   -7.3063 C   0  0  0  0  0  0  0  0  0  0  0  0
   51.5109   -4.4612   -6.2866 C   0  0  0  0  0  0  0  0  0  0  0  0
   49.3618   -4.6103   -3.4953 C   0  0  0  0  0  0  0  0  0  0  0  0
   49.8197   -5.2005   -4.7090 O   0  0  0  0  0  0  0  0  0  0  0  0
   58.0845   -5.3310   -8.7984 C   0  0  0  0  0  0  0  0  0  0  0  0
   58.2526   -5.4845  -10.1787 N   0  0  0  0  0  0  0  0  0  0  0  0
   59.0303   -5.3805   -7.9712 O   0  0  0  0  0  0  0  0  0  0  0  0
   58.5742   -6.4112  -10.6017 H   0  0  0  0  0  0  0  0  0  0  0  0
   58.0690   -4.7328  -10.8366 H   0  0  0  0  0  0  0  0  0  0  0  0
   56.8905   -6.1120   -6.1264 O   0  0  0  0  0  0  0  0  0  0  0  0
   56.4183   -6.7919   -5.0822 C   0  0  0  0  0  0  0  0  0  0  0  0
   55.2503   -7.8031   -5.2902 C   0  0  0  0  0  0  0  0  0  0  0  0
   56.3022   -6.3081   -3.7112 C   0  0  0  0  0  0  0  0  0  0  0  0
   55.2136   -5.4309   -3.3899 C   0  0  0  0  0  0  0  0  0  0  0  0
   55.0579   -4.9154   -2.1313 C   0  0  0  0  0  0  0  0  0  0  0  0
   55.9715   -5.2548   -1.1692 C   0  0  0  0  0  0  0  0  0  0  0  0
   57.0150   -6.0913   -1.4541 C   0  0  0  0  0  0  0  0  0  0  0  0
   57.1919   -6.6338   -2.7417 C   0  0  0  0  0  0  0  0  0  0  0  0
   58.3078   -7.5621   -2.9776 C   0  0  0  0  0  0  0  0  0  0  0  0
   59.3136   -7.1418   -3.7943 F   0  0  0  0  0  0  0  0  0  0  0  0
   59.0457   -7.4647   -1.7065 F   0  0  0  0  0  0  0  0  0  0  0  0
   57.9836   -8.8813   -2.9411 F   0  0  0  0  0  0  0  0  0  0  0  0
 15 16  1  0  0  0
 16  6  1  0  0  0
  6  7  2  0  0  0
  7  8  1  0  0  0
  8  9  2  0  0  0
  9 10  1  0  0  0
 10 11  2  0  0  0
 11 12  1  0  0  0
 12  1  1  0  0  0
  1  2  2  0  0  0
  2  3  1  0  0  0
  3 22  1  0  0  0
 22 23  1  0  0  0
 23 24  1  0  0  0
 23 25  1  0  0  0
 25 26  2  0  0  0
 26 27  1  0  0  0
 27 28  2  0  0  0
 28 29  1  0  0  0
 29 30  2  0  0  0
 30 31  1  0  0  0
 31 32  1  0  0  0
 31 33  1  0  0  0
 31 34  1  0  0  0
  3  4  2  0  0  0
  4  5  1  0  0  0
  4 17  1  0  0  0
 17 18  1  0  0  0
 17 19  2  0  0  0
 12 13  1  0  0  0
 13 14  2  0  0  0
 14  6  1  0  0  0
 13  9  1  0  0  0
  5  1  1  0  0  0
 30 25  1  0  0  0
 18 20  1  0  0  0
 18 21  1  0  0  0
M  END
> <minimizedAffinity>
-9.29986

> <CNNscore>
0.6373423338

> <CNNaffinity>
7.2523193359

> <CNN_VS>
4.6222100258

> <CNNaffinity_variance>
0.2006857395

$$$$
[H]c1c([H])c([H])c([C@]([H])(Oc2c(C(=O)N([H])[H])sc(-n3c([H])nc4c([H])c([H])c(OC([H])([H])[H])c([H])c43)c2[H])C([H])([H])[H])c(C(F)(F)F)c1[H]


 34 37  0  0  0  0  0  0  0  0999 V2000
   51.5120   -3.7140   -6.7634 C   0  0  0  0  0  0  0  0  0  0  0  0
   51.4713   -4.7457   -5.8140 C   0  0  0  0  0  0  0  0  0  0  0  0
   50.4472   -4.7703   -4.9408 C   0  0  0  0  0  0  0  0  0  0  0  0
   49.5269   -3.7575   -5.0542 C   0  0  0  0  0  0  0  0  0  0  0  0
   50.1300   -2.8117   -6.3758 S   0  0  0  0  0  0  0  0  0  0  0  0
   55.7821   -4.9974   -7.9397 C   0  0  0  0  0  0  0  0  0  0  0  0
   56.0682   -4.5737   -9.2086 C   0  0  0  0  0  0  0  0  0  0  0  0
   55.1739   -3.8763   -9.9797 C   0  0  0  0  0  0  0  0  0  0  0  0
   53.9454   -3.5973   -9.4497 C   0  0  0  0  0  0  0  0  0  0  0  0
   52.8564   -2.9480   -9.9343 N   0  0  0  0  0  0  0  0  0  0  0  0
   51.9027   -2.9538   -9.0112 C   0  0  0  0  0  0  0  0  0  0  0  0
   52.3738   -3.6231   -7.8845 N   0  0  0  0  0  0  0  0  0  0  0  0
   53.5916   -4.0036   -8.1588 C   0  0  0  0  0  0  0  0  0  0  0  0
   54.5432   -4.7119   -7.4156 C   0  0  0  0  0  0  0  0  0  0  0  0
   56.4477   -6.0385   -5.8544 C   0  0  0  0  0  0  0  0  0  0  0  0
   56.7488   -5.7054   -7.2069 O   0  0  0  0  0  0  0  0  0  0  0  0
   48.2587   -3.4673   -4.3679 C   0  0  0  0  0  0  0  0  0  0  0  0
   47.7164   -4.4494   -3.5321 N   0  0  0  0  0  0  0  0  0  0  0  0
   47.7205   -2.3490   -4.5698 O   0  0  0  0  0  0  0  0  0  0  0  0
   46.7946   -4.9353   -3.7676 H   0  0  0  0  0  0  0  0  0  0  0  0
   48.1741   -4.7499   -2.6766 H   0  0  0  0  0  0  0  0  0  0  0  0
   50.2125   -5.7370   -3.9135 O   0  0  0  0  0  0  0  0  0  0  0  0
   50.7493   -5.7382   -2.6939 C   0  0  0  0  0  0  0  0  0  0  0  0
   51.4890   -4.4658   -2.1803 C   0  0  0  0  0  0  0  0  0  0  0  0
   51.3687   -6.8729   -2.0185 C   0  0  0  0  0  0  0  0  0  0  0  0
   50.6087   -7.5662   -1.0188 C   0  0  0  0  0  0  0  0  0  0  0  0
   51.1353   -8.6220   -0.3243 C   0  0  0  0  0  0  0  0  0  0  0  0
   52.4184   -9.0115   -0.6026 C   0  0  0  0  0  0  0  0  0  0  0  0
   53.1590   -8.3655   -1.5534 C   0  0  0  0  0  0  0  0  0  0  0  0
   52.6352   -7.2788   -2.2803 C   0  0  0  0  0  0  0  0  0  0  0  0
   53.4633   -6.6513   -3.3210 C   0  0  0  0  0  0  0  0  0  0  0  0
   54.0582   -5.4635   -3.0200 F   0  0  0  0  0  0  0  0  0  0  0  0
   54.6765   -7.4853   -3.2749 F   0  0  0  0  0  0  0  0  0  0  0  0
   53.0761   -6.8998   -4.5997 F   0  0  0  0  0  0  0  0  0  0  0  0
 15 16  1  0  0  0
 16  6  1  0  0  0
  6  7  2  0  0  0
  7  8  1  0  0  0
  8  9  2  0  0  0
  9 10  1  0  0  0
 10 11  2  0  0  0
 11 12  1  0  0  0
 12  1  1  0  0  0
  1  2  2  0  0  0
  2  3  1  0  0  0
  3 22  1  0  0  0
 22 23  1  0  0  0
 23 24  1  0  0  0
 23 25  1  0  0  0
 25 26  2  0  0  0
 26 27  1  0  0  0
 27 28  2  0  0  0
 28 29  1  0  0  0
 29 30  2  0  0  0
 30 31  1  0  0  0
 31 32  1  0  0  0
 31 33  1  0  0  0
 31 34  1  0  0  0
  3  4  2  0  0  0
  4  5  1  0  0  0
  4 17  1  0  0  0
 17 18  1  0  0  0
 17 19  2  0  0  0
 12 13  1  0  0  0
 13 14  2  0  0  0
 14  6  1  0  0  0
 13  9  1  0  0  0
  5  1  1  0  0  0
 30 25  1  0  0  0
 18 20  1  0  0  0
 18 21  1  0  0  0
M  END
> <minimizedAffinity>
-8.40844

> <CNNscore>
0.6000197530

> <CNNaffinity>
7.4759092331

> <CNN_VS>
4.4856929779

> <CNNaffinity_variance>
0.2075716704

$$$$
[H]c1c([H])c([H])c([C@]([H])(Oc2c(C(=O)N([H])[H])sc(-n3c([H])nc4c([H])c([H])c(OC([H])([H])[H])c([H])c43)c2[H])C([H])([H])[H])c(C(F)(F)F)c1[H]


 34 37  0  0  0  0  0  0  0  0999 V2000
   54.3893   -4.2227   -8.0104 C   0  0  0  0  0  0  0  0  0  0  0  0
   55.0277   -4.8169   -6.9118 C   0  0  0  0  0  0  0  0  0  0  0  0
   56.2946   -5.2454   -7.0640 C   0  0  0  0  0  0  0  0  0  0  0  0
   56.8508   -5.0695   -8.3072 C   0  0  0  0  0  0  0  0  0  0  0  0
   55.5811   -4.3130   -9.2129 S   0  0  0  0  0  0  0  0  0  0  0  0
   50.3546   -4.3948   -5.7844 C   0  0  0  0  0  0  0  0  0  0  0  0
   49.5089   -3.4342   -6.2678 C   0  0  0  0  0  0  0  0  0  0  0  0
   49.8636   -2.5655   -7.2680 C   0  0  0  0  0  0  0  0  0  0  0  0
   51.1185   -2.6707   -7.7988 C   0  0  0  0  0  0  0  0  0  0  0  0
   51.7711   -1.9830   -8.7701 N   0  0  0  0  0  0  0  0  0  0  0  0
   52.9934   -2.4819   -8.9071 C   0  0  0  0  0  0  0  0  0  0  0  0
   53.1536   -3.5294   -8.0036 N   0  0  0  0  0  0  0  0  0  0  0  0
   52.0301   -3.6310   -7.3474 C   0  0  0  0  0  0  0  0  0  0  0  0
   51.6152   -4.4923   -6.3250 C   0  0  0  0  0  0  0  0  0  0  0  0
   49.3444   -4.6627   -3.5974 C   0  0  0  0  0  0  0  0  0  0  0  0
   49.9219   -5.2520   -4.7594 O   0  0  0  0  0  0  0  0  0  0  0  0
   58.1926   -5.3206   -8.8550 C   0  0  0  0  0  0  0  0  0  0  0  0
   58.3220   -5.5058  -10.2356 N   0  0  0  0  0  0  0  0  0  0  0  0
   59.1599   -5.3607   -8.0525 O   0  0  0  0  0  0  0  0  0  0  0  0
   58.6243   -6.4444  -10.6465 H   0  0  0  0  0  0  0  0  0  0  0  0
   58.1270   -4.7670  -10.9048 H   0  0  0  0  0  0  0  0  0  0  0  0
   57.1229   -5.8585   -6.0726 O   0  0  0  0  0  0  0  0  0  0  0  0
   56.7611   -6.8260   -5.2309 C   0  0  0  0  0  0  0  0  0  0  0  0
   55.3863   -7.5353   -5.4229 C   0  0  0  0  0  0  0  0  0  0  0  0
   57.0621   -6.8947   -3.8054 C   0  0  0  0  0  0  0  0  0  0  0  0
   57.9831   -7.8970   -3.3528 C   0  0  0  0  0  0  0  0  0  0  0  0
   58.2912   -8.0388   -2.0264 C   0  0  0  0  0  0  0  0  0  0  0  0
   57.6971   -7.1964   -1.1246 C   0  0  0  0  0  0  0  0  0  0  0  0
   56.8182   -6.2329   -1.5356 C   0  0  0  0  0  0  0  0  0  0  0  0
   56.4895   -6.0693   -2.8953 C   0  0  0  0  0  0  0  0  0  0  0  0
   55.5715   -4.9875   -3.2821 C   0  0  0  0  0  0  0  0  0  0  0  0
   54.3210   -5.3400   -3.6909 F   0  0  0  0  0  0  0  0  0  0  0  0
   55.1916   -4.4398   -1.9687 F   0  0  0  0  0  0  0  0  0  0  0  0
   56.1632   -3.8863   -3.8150 F   0  0  0  0  0  0  0  0  0  0  0  0
 15 16  1  0  0  0
 16  6  1  0  0  0
  6  7  2  0  0  0
  7  8  1  0  0  0
  8  9  2  0  0  0
  9 10  1  0  0  0
 10 11  2  0  0  0
 11 12  1  0  0  0
 12  1  1  0  0  0
  1  2  2  0  0  0
  2  3  1  0  0  0
  3 22  1  0  0  0
 22 23  1  0  0  0
 23 24  1  0  0  0
 23 25  1  0  0  0
 25 26  2  0  0  0
 26 27  1  0  0  0
 27 28  2  0  0  0
 28 29  1  0  0  0
 29 30  2  0  0  0
 30 31  1  0  0  0
 31 32  1  0  0  0
 31 33  1  0  0  0
 31 34  1  0  0  0
  3  4  2  0  0  0
  4  5  1  0  0  0
  4 17  1  0  0  0
 17 18  1  0  0  0
 17 19  2  0  0  0
 12 13  1  0  0  0
 13 14  2  0  0  0
 14  6  1  0  0  0
 13  9  1  0  0  0
  5  1  1  0  0  0
 30 25  1  0  0  0
 18 20  1  0  0  0
 18 21  1  0  0  0
M  END
> <minimizedAffinity>
-9.43533

> <CNNscore>
0.5837966800

> <CNNaffinity>
7.2184576988

> <CNN_VS>
4.2141118050

> <CNNaffinity_variance>
0.2682829499

$$$$
[H]c1c([H])c([H])c([C@]([H])(Oc2c(C(=O)N([H])[H])sc(-n3c([H])nc4c([H])c([H])c(OC([H])([H])[H])c([H])c43)c2[H])C([H])([H])[H])c(C(F)(F)F)c1[H]


 34 37  0  0  0  0  0  0  0  0999 V2000
   51.8779   -4.1948   -6.6518 C   0  0  0  0  0  0  0  0  0  0  0  0
   51.9578   -5.3538   -5.8658 C   0  0  0  0  0  0  0  0  0  0  0  0
   51.0471   -5.5281   -4.8899 C   0  0  0  0  0  0  0  0  0  0  0  0
   50.1146   -4.5308   -4.7433 C   0  0  0  0  0  0  0  0  0  0  0  0
   50.5484   -3.3900   -5.9743 S   0  0  0  0  0  0  0  0  0  0  0  0
   56.1245   -4.8305   -8.3328 C   0  0  0  0  0  0  0  0  0  0  0  0
   56.2186   -4.2959   -9.5886 C   0  0  0  0  0  0  0  0  0  0  0  0
   55.1672   -3.6764  -10.2143 C   0  0  0  0  0  0  0  0  0  0  0  0
   53.9772   -3.5945   -9.5473 C   0  0  0  0  0  0  0  0  0  0  0  0
   52.7703   -3.0658   -9.8732 N   0  0  0  0  0  0  0  0  0  0  0  0
   51.9287   -3.2536   -8.8641 C   0  0  0  0  0  0  0  0  0  0  0  0
   52.5970   -3.9228   -7.8420 N   0  0  0  0  0  0  0  0  0  0  0  0
   53.8165   -4.1222   -8.2618 C   0  0  0  0  0  0  0  0  0  0  0  0
   54.9227   -4.7431   -7.6702 C   0  0  0  0  0  0  0  0  0  0  0  0
   57.1207   -5.9364   -6.4197 C   0  0  0  0  0  0  0  0  0  0  0  0
   57.2446   -5.4486   -7.7530 O   0  0  0  0  0  0  0  0  0  0  0  0
   48.9374   -4.3723   -3.8758 C   0  0  0  0  0  0  0  0  0  0  0  0
   47.9630   -3.4381   -4.2433 N   0  0  0  0  0  0  0  0  0  0  0  0
   48.8663   -5.0835   -2.8413 O   0  0  0  0  0  0  0  0  0  0  0  0
   47.7775   -2.5654   -3.6558 H   0  0  0  0  0  0  0  0  0  0  0  0
   47.3995   -3.5403   -5.0821 H   0  0  0  0  0  0  0  0  0  0  0  0
   50.9437   -6.6385   -3.9949 O   0  0  0  0  0  0  0  0  0  0  0  0
   51.9106   -7.1114   -3.2095 C   0  0  0  0  0  0  0  0  0  0  0  0
   51.5595   -8.1506   -2.1017 C   0  0  0  0  0  0  0  0  0  0  0  0
   53.0759   -6.3778   -2.7285 C   0  0  0  0  0  0  0  0  0  0  0  0
   52.8710   -5.3277   -1.7731 C   0  0  0  0  0  0  0  0  0  0  0  0
   53.9141   -4.5784   -1.2990 C   0  0  0  0  0  0  0  0  0  0  0  0
   55.1753   -4.8508   -1.7584 C   0  0  0  0  0  0  0  0  0  0  0  0
   55.3923   -5.8490   -2.6673 C   0  0  0  0  0  0  0  0  0  0  0  0
   54.3335   -6.6325   -3.1658 C   0  0  0  0  0  0  0  0  0  0  0  0
   54.6334   -7.7205   -4.1085 C   0  0  0  0  0  0  0  0  0  0  0  0
   54.4232   -7.4811   -5.4328 F   0  0  0  0  0  0  0  0  0  0  0  0
   56.1055   -7.6831   -4.1429 F   0  0  0  0  0  0  0  0  0  0  0  0
   54.4585   -8.9767   -3.6204 F   0  0  0  0  0  0  0  0  0  0  0  0
 15 16  1  0  0  0
 16  6  1  0  0  0
  6  7  2  0  0  0
  7  8  1  0  0  0
  8  9  2  0  0  0
  9 10  1  0  0  0
 10 11  2  0  0  0
 11 12  1  0  0  0
 12  1  1  0  0  0
  1  2  2  0  0  0
  2  3  1  0  0  0
  3 22  1  0  0  0
 22 23  1  0  0  0
 23 24  1  0  0  0
 23 25  1  0  0  0
 25 26  2  0  0  0
 26 27  1  0  0  0
 27 28  2  0  0  0
 28 29  1  0  0  0
 29 30  2  0  0  0
 30 31  1  0  0  0
 31 32  1  0  0  0
 31 33  1  0  0  0
 31 34  1  0  0  0
  3  4  2  0  0  0
  4  5  1  0  0  0
  4 17  1  0  0  0
 17 18  1  0  0  0
 17 19  2  0  0  0
 12 13  1  0  0  0
 13 14  2  0  0  0
 14  6  1  0  0  0
 13  9  1  0  0  0
  5  1  1  0  0  0
 30 25  1  0  0  0
 18 20  1  0  0  0
 18 21  1  0  0  0
M  END
> <minimizedAffinity>
-7.44877

> <CNNscore>
0.4959875345

> <CNNaffinity>
7.2952208519

> <CNN_VS>
3.6183385849

> <CNNaffinity_variance>
0.0778414235

$$$$
[H]c1c([H])c([H])c([C@]([H])(Oc2c(C(=O)N([H])[H])sc(-n3c([H])nc4c([H])c([H])c(OC([H])([H])[H])c([H])c43)c2[H])C([H])([H])[H])c(C(F)(F)F)c1[H]


 34 37  0  0  0  0  0  0  0  0999 V2000
   52.0023   -3.8839   -7.0880 C   0  0  0  0  0  0  0  0  0  0  0  0
   52.0533   -4.9022   -6.1247 C   0  0  0  0  0  0  0  0  0  0  0  0
   51.0893   -4.9425   -5.1861 C   0  0  0  0  0  0  0  0  0  0  0  0
   50.1347   -3.9576   -5.2520 C   0  0  0  0  0  0  0  0  0  0  0  0
   50.6230   -3.0149   -6.6223 S   0  0  0  0  0  0  0  0  0  0  0  0
   56.3016   -4.8412   -8.4531 C   0  0  0  0  0  0  0  0  0  0  0  0
   56.4732   -4.4744   -9.7598 C   0  0  0  0  0  0  0  0  0  0  0  0
   55.4739   -3.9126  -10.5125 C   0  0  0  0  0  0  0  0  0  0  0  0
   54.2566   -3.7146   -9.9237 C   0  0  0  0  0  0  0  0  0  0  0  0
   53.0847   -3.2004  -10.3758 N   0  0  0  0  0  0  0  0  0  0  0  0
   52.1900   -3.2352   -9.3961 C   0  0  0  0  0  0  0  0  0  0  0  0
   52.7862   -3.7855   -8.2643 N   0  0  0  0  0  0  0  0  0  0  0  0
   54.0172   -4.0690   -8.5918 C   0  0  0  0  0  0  0  0  0  0  0  0
   55.0729   -4.6381   -7.8699 C   0  0  0  0  0  0  0  0  0  0  0  0
   58.6463   -5.4510   -8.3787 C   0  0  0  0  0  0  0  0  0  0  0  0
   57.3717   -5.4093   -7.7426 O   0  0  0  0  0  0  0  0  0  0  0  0
   48.9061   -3.6929   -4.4878 C   0  0  0  0  0  0  0  0  0  0  0  0
   48.4687   -4.6613   -3.5779 N   0  0  0  0  0  0  0  0  0  0  0  0
   48.3051   -2.6077   -4.6936 O   0  0  0  0  0  0  0  0  0  0  0  0
   47.5556   -5.1951   -3.7274 H   0  0  0  0  0  0  0  0  0  0  0  0
   48.9985   -4.9062   -2.7466 H   0  0  0  0  0  0  0  0  0  0  0  0
   50.9501   -5.9001   -4.1332 O   0  0  0  0  0  0  0  0  0  0  0  0
   51.6979   -5.9774   -3.0331 C   0  0  0  0  0  0  0  0  0  0  0  0
   51.7710   -4.7554   -2.0680 C   0  0  0  0  0  0  0  0  0  0  0  0
   52.9640   -6.6877   -2.8916 C   0  0  0  0  0  0  0  0  0  0  0  0
   54.1110   -6.1767   -3.5851 C   0  0  0  0  0  0  0  0  0  0  0  0
   55.3248   -6.8069   -3.5214 C   0  0  0  0  0  0  0  0  0  0  0  0
   55.4284   -7.9500   -2.7744 C   0  0  0  0  0  0  0  0  0  0  0  0
   54.3477   -8.4523   -2.1038 C   0  0  0  0  0  0  0  0  0  0  0  0
   53.0912   -7.8183   -2.1547 C   0  0  0  0  0  0  0  0  0  0  0  0
   51.9764   -8.3806   -1.3778 C   0  0  0  0  0  0  0  0  0  0  0  0
   51.0737   -9.1542   -2.0425 F   0  0  0  0  0  0  0  0  0  0  0  0
   52.6477   -9.4661   -0.6426 F   0  0  0  0  0  0  0  0  0  0  0  0
   51.5636   -7.6268   -0.3251 F   0  0  0  0  0  0  0  0  0  0  0  0
 15 16  1  0  0  0
 16  6  1  0  0  0
  6  7  2  0  0  0
  7  8  1  0  0  0
  8  9  2  0  0  0
  9 10  1  0  0  0
 10 11  2  0  0  0
 11 12  1  0  0  0
 12  1  1  0  0  0
  1  2  2  0  0  0
  2  3  1  0  0  0
  3 22  1  0  0  0
 22 23  1  0  0  0
 23 24  1  0  0  0
 23 25  1  0  0  0
 25 26  2  0  0  0
 26 27  1  0  0  0
 27 28  2  0  0  0
 28 29  1  0  0  0
 29 30  2  0  0  0
 30 31  1  0  0  0
 31 32  1  0  0  0
 31 33  1  0  0  0
 31 34  1  0  0  0
  3  4  2  0  0  0
  4  5  1  0  0  0
  4 17  1  0  0  0
 17 18  1  0  0  0
 17 19  2  0  0  0
 12 13  1  0  0  0
 13 14  2  0  0  0
 14  6  1  0  0  0
 13  9  1  0  0  0
  5  1  1  0  0  0
 30 25  1  0  0  0
 18 20  1  0  0  0
 18 21  1  0  0  0
M  END
> <minimizedAffinity>
-8.25194

> <CNNscore>
0.4753505588

> <CNNaffinity>
7.2617292404

> <CNN_VS>
3.4518671036

> <CNNaffinity_variance>
0.2222556174

$$$$
[H]c1c([H])c([H])c([C@]([H])(Oc2c(C(=O)N([H])[H])sc(-n3c([H])nc4c([H])c([H])c(OC([H])([H])[H])c([H])c43)c2[H])C([H])([H])[H])c(C(F)(F)F)c1[H]


 34 37  0  0  0  0  0  0  0  0999 V2000
   51.9920   -5.0527   -5.8052 C   0  0  0  0  0  0  0  0  0  0  0  0
   53.1731   -5.4821   -6.4283 C   0  0  0  0  0  0  0  0  0  0  0  0
   53.5921   -4.8244   -7.5255 C   0  0  0  0  0  0  0  0  0  0  0  0
   52.8033   -3.7829   -7.9485 C   0  0  0  0  0  0  0  0  0  0  0  0
   51.5082   -3.7652   -6.7964 S   0  0  0  0  0  0  0  0  0  0  0  0
   53.4669   -7.4183   -2.1320 C   0  0  0  0  0  0  0  0  0  0  0  0
   52.4692   -7.5118   -1.2007 C   0  0  0  0  0  0  0  0  0  0  0  0
   51.2281   -6.9570   -1.3814 C   0  0  0  0  0  0  0  0  0  0  0  0
   50.9863   -6.2826   -2.5452 C   0  0  0  0  0  0  0  0  0  0  0  0
   49.8978   -5.6290   -3.0248 N   0  0  0  0  0  0  0  0  0  0  0  0
   50.1840   -5.1314   -4.2216 C   0  0  0  0  0  0  0  0  0  0  0  0
   51.4966   -5.4666   -4.5438 N   0  0  0  0  0  0  0  0  0  0  0  0
   51.9649   -6.1508   -3.5361 C   0  0  0  0  0  0  0  0  0  0  0  0
   53.2137   -6.7373   -3.2995 C   0  0  0  0  0  0  0  0  0  0  0  0
   55.8851   -7.2760   -2.2173 C   0  0  0  0  0  0  0  0  0  0  0  0
   54.7136   -8.0140   -1.8796 O   0  0  0  0  0  0  0  0  0  0  0  0
   52.9383   -2.7899   -9.0252 C   0  0  0  0  0  0  0  0  0  0  0  0
   53.8763   -1.7640   -8.8682 N   0  0  0  0  0  0  0  0  0  0  0  0
   52.1989   -2.9100  -10.0351 O   0  0  0  0  0  0  0  0  0  0  0  0
   53.5756   -0.7437   -8.7696 H   0  0  0  0  0  0  0  0  0  0  0  0
   54.8758   -1.9409   -8.8312 H   0  0  0  0  0  0  0  0  0  0  0  0
   54.7687   -5.0898   -8.2935 O   0  0  0  0  0  0  0  0  0  0  0  0
   56.0255   -4.8560   -7.9177 C   0  0  0  0  0  0  0  0  0  0  0  0
   56.3406   -3.6204   -7.0209 C   0  0  0  0  0  0  0  0  0  0  0  0
   57.2285   -5.1101   -8.7024 C   0  0  0  0  0  0  0  0  0  0  0  0
   58.3340   -5.7605   -8.0601 C   0  0  0  0  0  0  0  0  0  0  0  0
   59.5047   -6.0057   -8.7260 C   0  0  0  0  0  0  0  0  0  0  0  0
   59.6058   -5.6143  -10.0345 C   0  0  0  0  0  0  0  0  0  0  0  0
   58.5629   -4.9951  -10.6659 C   0  0  0  0  0  0  0  0  0  0  0  0
   57.3496   -4.7355   -9.9995 C   0  0  0  0  0  0  0  0  0  0  0  0
   56.2480   -4.1059  -10.7427 C   0  0  0  0  0  0  0  0  0  0  0  0
   55.9515   -2.8092  -10.4493 F   0  0  0  0  0  0  0  0  0  0  0  0
   56.8772   -3.8624  -12.0520 F   0  0  0  0  0  0  0  0  0  0  0  0
   55.2540   -4.9472  -11.1314 F   0  0  0  0  0  0  0  0  0  0  0  0
 15 16  1  0  0  0
 16  6  1  0  0  0
  6  7  2  0  0  0
  7  8  1  0  0  0
  8  9  2  0  0  0
  9 10  1  0  0  0
 10 11  2  0  0  0
 11 12  1  0  0  0
 12  1  1  0  0  0
  1  2  2  0  0  0
  2  3  1  0  0  0
  3 22  1  0  0  0
 22 23  1  0  0  0
 23 24  1  0  0  0
 23 25  1  0  0  0
 25 26  2  0  0  0
 26 27  1  0  0  0
 27 28  2  0  0  0
 28 29  1  0  0  0
 29 30  2  0  0  0
 30 31  1  0  0  0
 31 32  1  0  0  0
 31 33  1  0  0  0
 31 34  1  0  0  0
  3  4  2  0  0  0
  4  5  1  0  0  0
  4 17  1  0  0  0
 17 18  1  0  0  0
 17 19  2  0  0  0
 12 13  1  0  0  0
 13 14  2  0  0  0
 14  6  1  0  0  0
 13  9  1  0  0  0
  5  1  1  0  0  0
 30 25  1  0  0  0
 18 20  1  0  0  0
 18 21  1  0  0  0
M  END
> <minimizedAffinity>
-8.37277

> <CNNscore>
0.4434078336

> <CNNaffinity>
7.0868806839

> <CNN_VS>
3.1423783302

> <CNNaffinity_variance>
0.2784971595

$$$$
[H]c1c([H])c([H])c([C@]([H])(Oc2c(C(=O)N([H])[H])sc(-n3c([H])nc4c([H])c([H])c(OC([H])([H])[H])c([H])c43)c2[H])C([H])([H])[H])c(C(F)(F)F)c1[H]


 34 37  0  0  0  0  0  0  0  0999 V2000
   55.0144   -5.6287   -5.3596 C   0  0  0  0  0  0  0  0  0  0  0  0
   53.6267   -5.8328   -5.3441 C   0  0  0  0  0  0  0  0  0  0  0  0
   52.9961   -5.8456   -4.1549 C   0  0  0  0  0  0  0  0  0  0  0  0
   53.7859   -5.6671   -3.0458 C   0  0  0  0  0  0  0  0  0  0  0  0
   55.3774   -5.4890   -3.7094 S   0  0  0  0  0  0  0  0  0  0  0  0
   54.5878   -3.7496   -9.5490 C   0  0  0  0  0  0  0  0  0  0  0  0
   55.7742   -3.8327  -10.2252 C   0  0  0  0  0  0  0  0  0  0  0  0
   56.9008   -4.3981   -9.6848 C   0  0  0  0  0  0  0  0  0  0  0  0
   56.8262   -4.8971   -8.4147 C   0  0  0  0  0  0  0  0  0  0  0  0
   57.7330   -5.5006   -7.6048 N   0  0  0  0  0  0  0  0  0  0  0  0
   57.1522   -5.7950   -6.4483 C   0  0  0  0  0  0  0  0  0  0  0  0
   55.8246   -5.3770   -6.4945 N   0  0  0  0  0  0  0  0  0  0  0  0
   55.6429   -4.8417   -7.6707 C   0  0  0  0  0  0  0  0  0  0  0  0
   54.5233   -4.2544   -8.2715 C   0  0  0  0  0  0  0  0  0  0  0  0
   52.4832   -2.5673   -9.3302 C   0  0  0  0  0  0  0  0  0  0  0  0
   53.4735   -3.1588  -10.1671 O   0  0  0  0  0  0  0  0  0  0  0  0
   53.4925   -5.5423   -1.6099 C   0  0  0  0  0  0  0  0  0  0  0  0
   52.5596   -4.5821   -1.2039 N   0  0  0  0  0  0  0  0  0  0  0  0
   54.0995   -6.3045   -0.8149 O   0  0  0  0  0  0  0  0  0  0  0  0
   52.8476   -3.7388   -0.6150 H   0  0  0  0  0  0  0  0  0  0  0  0
   51.5772   -4.6366   -1.4560 H   0  0  0  0  0  0  0  0  0  0  0  0
   51.5960   -6.0204   -3.9228 O   0  0  0  0  0  0  0  0  0  0  0  0
   50.6569   -5.0800   -4.0192 C   0  0  0  0  0  0  0  0  0  0  0  0
   49.4033   -5.1505   -3.0952 C   0  0  0  0  0  0  0  0  0  0  0  0
   50.2307   -4.3995   -5.2368 C   0  0  0  0  0  0  0  0  0  0  0  0
   49.8064   -3.0327   -5.1384 C   0  0  0  0  0  0  0  0  0  0  0  0
   49.3666   -2.3396   -6.2340 C   0  0  0  0  0  0  0  0  0  0  0  0
   49.3371   -2.9811   -7.4436 C   0  0  0  0  0  0  0  0  0  0  0  0
   49.7394   -4.2829   -7.5594 C   0  0  0  0  0  0  0  0  0  0  0  0
   50.1970   -5.0128   -6.4452 C   0  0  0  0  0  0  0  0  0  0  0  0
   50.6578   -6.3958   -6.6387 C   0  0  0  0  0  0  0  0  0  0  0  0
   50.4269   -7.2824   -5.6308 F   0  0  0  0  0  0  0  0  0  0  0  0
   49.6488   -6.9137   -7.5784 F   0  0  0  0  0  0  0  0  0  0  0  0
   51.7673   -6.5357   -7.4108 F   0  0  0  0  0  0  0  0  0  0  0  0
 15 16  1  0  0  0
 16  6  1  0  0  0
  6  7  2  0  0  0
  7  8  1  0  0  0
  8  9  2  0  0  0
  9 10  1  0  0  0
 10 11  2  0  0  0
 11 12  1  0  0  0
 12  1  1  0  0  0
  1  2  2  0  0  0
  2  3  1  0  0  0
  3 22  1  0  0  0
 22 23  1  0  0  0
 23 24  1  0  0  0
 23 25  1  0  0  0
 25 26  2  0  0  0
 26 27  1  0  0  0
 27 28  2  0  0  0
 28 29  1  0  0  0
 29 30  2  0  0  0
 30 31  1  0  0  0
 31 32  1  0  0  0
 31 33  1  0  0  0
 31 34  1  0  0  0
  3  4  2  0  0  0
  4  5  1  0  0  0
  4 17  1  0  0  0
 17 18  1  0  0  0
 17 19  2  0  0  0
 12 13  1  0  0  0
 13 14  2  0  0  0
 14  6  1  0  0  0
 13  9  1  0  0  0
  5  1  1  0  0  0
 30 25  1  0  0  0
 18 20  1  0  0  0
 18 21  1  0  0  0
M  END
> <minimizedAffinity>
-9.16669

> <CNNscore>
0.3802071214

> <CNNaffinity>
7.3249106407

> <CNN_VS>
2.7849831581

> <CNNaffinity_variance>
0.3481834233

$$$$
[H]c1c([H])c([H])c([C@]([H])(Oc2c(C(=O)N([H])[H])sc(-n3c([H])nc4c([H])c([H])c(OC([H])([H])[H])c([H])c43)c2[H])C([H])([H])[H])c(C(F)(F)F)c1[H]


 34 37  0  0  0  0  0  0  0  0999 V2000
   52.8123   -4.3173   -7.0995 C   0  0  0  0  0  0  0  0  0  0  0  0
   53.6664   -4.9860   -6.2103 C   0  0  0  0  0  0  0  0  0  0  0  0
   54.9133   -5.2815   -6.6225 C   0  0  0  0  0  0  0  0  0  0  0  0
   55.2356   -4.9055   -7.9032 C   0  0  0  0  0  0  0  0  0  0  0  0
   53.7833   -4.1547   -8.4797 S   0  0  0  0  0  0  0  0  0  0  0  0
   49.5750   -4.6221   -3.8298 C   0  0  0  0  0  0  0  0  0  0  0  0
   48.5272   -3.7939   -4.1262 C   0  0  0  0  0  0  0  0  0  0  0  0
   48.4980   -3.0022   -5.2456 C   0  0  0  0  0  0  0  0  0  0  0  0
   49.5665   -3.0485   -6.0964 C   0  0  0  0  0  0  0  0  0  0  0  0
   49.8503   -2.4068   -7.2582 N   0  0  0  0  0  0  0  0  0  0  0  0
   51.0385   -2.8064   -7.6944 C   0  0  0  0  0  0  0  0  0  0  0  0
   51.5541   -3.7393   -6.7983 N   0  0  0  0  0  0  0  0  0  0  0  0
   50.6686   -3.8737   -5.8492 C   0  0  0  0  0  0  0  0  0  0  0  0
   50.6455   -4.6612   -4.6921 C   0  0  0  0  0  0  0  0  0  0  0  0
   50.7201   -6.1047   -2.2917 C   0  0  0  0  0  0  0  0  0  0  0  0
   49.5351   -5.4069   -2.6656 O   0  0  0  0  0  0  0  0  0  0  0  0
   56.4768   -4.9701   -8.6899 C   0  0  0  0  0  0  0  0  0  0  0  0
   57.5930   -5.5909   -8.1190 N   0  0  0  0  0  0  0  0  0  0  0  0
   56.4748   -4.4591   -9.8388 O   0  0  0  0  0  0  0  0  0  0  0  0
   58.4743   -5.0387   -7.8751 H   0  0  0  0  0  0  0  0  0  0  0  0
   57.6132   -6.5832   -7.9030 H   0  0  0  0  0  0  0  0  0  0  0  0
   55.9370   -5.9392   -5.8712 O   0  0  0  0  0  0  0  0  0  0  0  0
   56.1081   -5.8804   -4.5511 C   0  0  0  0  0  0  0  0  0  0  0  0
   56.4413   -4.5129   -3.8811 C   0  0  0  0  0  0  0  0  0  0  0  0
   56.7069   -6.9074   -3.7061 C   0  0  0  0  0  0  0  0  0  0  0  0
   58.1072   -7.1800   -3.8568 C   0  0  0  0  0  0  0  0  0  0  0  0
   58.7308   -8.1494   -3.1181 C   0  0  0  0  0  0  0  0  0  0  0  0
   57.9857   -8.8658   -2.2196 C   0  0  0  0  0  0  0  0  0  0  0  0
   56.6502   -8.6201   -2.0590 C   0  0  0  0  0  0  0  0  0  0  0  0
   55.9904   -7.6262   -2.8076 C   0  0  0  0  0  0  0  0  0  0  0  0
   54.5623   -7.3773   -2.5604 C   0  0  0  0  0  0  0  0  0  0  0  0
   54.1677   -6.0834   -2.4014 F   0  0  0  0  0  0  0  0  0  0  0  0
   53.9907   -7.5838   -3.9022 F   0  0  0  0  0  0  0  0  0  0  0  0
   53.9083   -8.3625   -1.8907 F   0  0  0  0  0  0  0  0  0  0  0  0
 15 16  1  0  0  0
 16  6  1  0  0  0
  6  7  2  0  0  0
  7  8  1  0  0  0
  8  9  2  0  0  0
  9 10  1  0  0  0
 10 11  2  0  0  0
 11 12  1  0  0  0
 12  1  1  0  0  0
  1  2  2  0  0  0
  2  3  1  0  0  0
  3 22  1  0  0  0
 22 23  1  0  0  0
 23 24  1  0  0  0
 23 25  1  0  0  0
 25 26  2  0  0  0
 26 27  1  0  0  0
 27 28  2  0  0  0
 28 29  1  0  0  0
 29 30  2  0  0  0
 30 31  1  0  0  0
 31 32  1  0  0  0
 31 33  1  0  0  0
 31 34  1  0  0  0
  3  4  2  0  0  0
  4  5  1  0  0  0
  4 17  1  0  0  0
 17 18  1  0  0  0
 17 19  2  0  0  0
 12 13  1  0  0  0
 13 14  2  0  0  0
 14  6  1  0  0  0
 13  9  1  0  0  0
  5  1  1  0  0  0
 30 25  1  0  0  0
 18 20  1  0  0  0
 18 21  1  0  0  0
M  END
> <minimizedAffinity>
-8.40840

> <CNNscore>
0.3741887212

> <CNNaffinity>
7.0775732994

> <CNN_VS>
2.6483480930

> <CNNaffinity_variance>
0.2444790304

$$$$
[H]c1nc(N([H])c2c([H])c([H])c([H])c([H])c2OC(F)(F)F)nc2c1C([H])([H])C([H])([H])c1c(C(=O)N([H])[H])nn(C([H])([H])[H])c1-2


 32 35  0  0  0  0  0  0  0  0999 V2000
   54.9175   -6.1014   -6.3642 C   0  0  0  0  0  0  0  0  0  0  0  0
   53.6487   -5.8734   -5.7040 N   0  0  0  0  0  0  0  0  0  0  0  0
   53.2162   -6.4322   -4.5825 N   0  0  0  0  0  0  0  0  0  0  0  0
   51.9862   -5.9736   -4.2773 C   0  0  0  0  0  0  0  0  0  0  0  0
   51.6376   -5.0797   -5.2669 C   0  0  0  0  0  0  0  0  0  0  0  0
   50.4026   -4.3018   -5.4105 C   0  0  0  0  0  0  0  0  0  0  0  0
   50.3239   -3.4117   -6.5895 C   0  0  0  0  0  0  0  0  0  0  0  0
   51.4981   -3.4239   -7.4848 C   0  0  0  0  0  0  0  0  0  0  0  0
   51.4687   -2.6039   -8.6161 C   0  0  0  0  0  0  0  0  0  0  0  0
   52.5243   -2.6013   -9.4381 N   0  0  0  0  0  0  0  0  0  0  0  0
   53.6347   -3.3165   -9.2924 C   0  0  0  0  0  0  0  0  0  0  0  0
   53.6491   -4.1187   -8.1745 N   0  0  0  0  0  0  0  0  0  0  0  0
   52.6284   -4.1718   -7.3085 C   0  0  0  0  0  0  0  0  0  0  0  0
   52.6894   -5.0404   -6.1354 C   0  0  0  0  0  0  0  0  0  0  0  0
   51.1800   -6.3476   -3.1264 C   0  0  0  0  0  0  0  0  0  0  0  0
   51.5511   -7.4507   -2.3172 N   0  0  0  0  0  0  0  0  0  0  0  0
   50.1579   -5.6887   -2.8568 O   0  0  0  0  0  0  0  0  0  0  0  0
   51.2304   -8.4209   -2.5880 H   0  0  0  0  0  0  0  0  0  0  0  0
   52.1324   -7.3738   -1.4513 H   0  0  0  0  0  0  0  0  0  0  0  0
   54.7361   -3.3131  -10.1493 N   0  0  0  0  0  0  0  0  0  0  0  0
   54.6263   -2.6314  -10.9924 H   0  0  0  0  0  0  0  0  0  0  0  0
   55.9418   -4.0131  -10.0881 C   0  0  0  0  0  0  0  0  0  0  0  0
   56.4026   -4.6694   -8.9797 C   0  0  0  0  0  0  0  0  0  0  0  0
   57.6505   -5.3157   -8.9703 C   0  0  0  0  0  0  0  0  0  0  0  0
   58.4365   -5.2940  -10.0975 C   0  0  0  0  0  0  0  0  0  0  0  0
   57.9855   -4.6384  -11.2192 C   0  0  0  0  0  0  0  0  0  0  0  0
   56.7655   -4.0068  -11.2303 C   0  0  0  0  0  0  0  0  0  0  0  0
   56.4018   -3.3824  -12.4091 O   0  0  0  0  0  0  0  0  0  0  0  0
   56.6231   -3.9222  -13.6950 C   0  0  0  0  0  0  0  0  0  0  0  0
   56.2545   -5.2649  -13.6753 F   0  0  0  0  0  0  0  0  0  0  0  0
   57.8810   -3.6982  -14.1499 F   0  0  0  0  0  0  0  0  0  0  0  0
   55.6886   -3.3409  -14.5803 F   0  0  0  0  0  0  0  0  0  0  0  0
  1  2  1  0  0  0
  2  3  1  0  0  0
  3  4  2  0  0  0
  4 15  1  0  0  0
 15 16  1  0  0  0
 15 17  2  0  0  0
  4  5  1  0  0  0
  5  6  1  0  0  0
  6  7  1  0  0  0
  7  8  1  0  0  0
  8  9  2  0  0  0
  9 10  1  0  0  0
 10 11  2  0  0  0
 11 20  1  0  0  0
 20 22  1  0  0  0
 22 23  2  0  0  0
 23 24  1  0  0  0
 24 25  2  0  0  0
 25 26  1  0  0  0
 26 27  2  0  0  0
 27 28  1  0  0  0
 28 29  1  0  0  0
 29 30  1  0  0  0
 29 31  1  0  0  0
 29 32  1  0  0  0
 11 12  1  0  0  0
 12 13  2  0  0  0
 13 14  1  0  0  0
 14  2  1  0  0  0
 14  5  2  0  0  0
 13  8  1  0  0  0
 27 22  1  0  0  0
 16 18  1  0  0  0
 16 19  1  0  0  0
 20 21  1  0  0  0
M  END
> <minimizedAffinity>
-10.92376

> <CNNscore>
0.9669733644

> <CNNaffinity>
7.5631079674

> <CNN_VS>
7.3133239746

> <CNNaffinity_variance>
0.0255473554

$$$$
[H]c1nc(N([H])c2c([H])c([H])c([H])c([H])c2OC(F)(F)F)nc2c1C([H])([H])C([H])([H])c1c(C(=O)N([H])[H])nn(C([H])([H])[H])c1-2


 32 35  0  0  0  0  0  0  0  0999 V2000
   54.0148   -6.2217   -5.9679 C   0  0  0  0  0  0  0  0  0  0  0  0
   52.7614   -5.6992   -5.4640 N   0  0  0  0  0  0  0  0  0  0  0  0
   52.1253   -6.0660   -4.3604 N   0  0  0  0  0  0  0  0  0  0  0  0
   50.9883   -5.3562   -4.2199 C   0  0  0  0  0  0  0  0  0  0  0  0
   50.9169   -4.5010   -5.2986 C   0  0  0  0  0  0  0  0  0  0  0  0
   49.8798   -3.5167   -5.6251 C   0  0  0  0  0  0  0  0  0  0  0  0
   50.0884   -2.7332   -6.8624 C   0  0  0  0  0  0  0  0  0  0  0  0
   51.3139   -3.0469   -7.6240 C   0  0  0  0  0  0  0  0  0  0  0  0
   51.5523   -2.3373   -8.8042 C   0  0  0  0  0  0  0  0  0  0  0  0
   52.6583   -2.6075   -9.5068 N   0  0  0  0  0  0  0  0  0  0  0  0
   53.5861   -3.5065   -9.1958 C   0  0  0  0  0  0  0  0  0  0  0  0
   53.3378   -4.1970   -8.0318 N   0  0  0  0  0  0  0  0  0  0  0  0
   52.2518   -3.9790   -7.2784 C   0  0  0  0  0  0  0  0  0  0  0  0
   52.0308   -4.7386   -6.0502 C   0  0  0  0  0  0  0  0  0  0  0  0
   50.0216   -5.4684   -3.1395 C   0  0  0  0  0  0  0  0  0  0  0  0
   50.3715   -6.1124   -1.9263 N   0  0  0  0  0  0  0  0  0  0  0  0
   48.8803   -4.9925   -3.2895 O   0  0  0  0  0  0  0  0  0  0  0  0
   50.2609   -7.1607   -1.8473 H   0  0  0  0  0  0  0  0  0  0  0  0
   50.7398   -5.6152   -1.0831 H   0  0  0  0  0  0  0  0  0  0  0  0
   54.7401   -3.7876   -9.9282 N   0  0  0  0  0  0  0  0  0  0  0  0
   54.6755   -3.4817  -10.9721 H   0  0  0  0  0  0  0  0  0  0  0  0
   55.9489   -4.3666   -9.5395 C   0  0  0  0  0  0  0  0  0  0  0  0
   56.3486   -4.5309   -8.2415 C   0  0  0  0  0  0  0  0  0  0  0  0
   57.6019   -5.0787   -7.9189 C   0  0  0  0  0  0  0  0  0  0  0  0
   58.4561   -5.4623   -8.9250 C   0  0  0  0  0  0  0  0  0  0  0  0
   58.0671   -5.3033  -10.2344 C   0  0  0  0  0  0  0  0  0  0  0  0
   56.8418   -4.7688  -10.5515 C   0  0  0  0  0  0  0  0  0  0  0  0
   56.5438   -4.6574  -11.8970 O   0  0  0  0  0  0  0  0  0  0  0  0
   57.0512   -3.6462  -12.7418 C   0  0  0  0  0  0  0  0  0  0  0  0
   57.4870   -2.5894  -11.9466 F   0  0  0  0  0  0  0  0  0  0  0  0
   56.1772   -3.2857  -13.7142 F   0  0  0  0  0  0  0  0  0  0  0  0
   58.2432   -4.1245  -13.3296 F   0  0  0  0  0  0  0  0  0  0  0  0
  1  2  1  0  0  0
  2  3  1  0  0  0
  3  4  2  0  0  0
  4 15  1  0  0  0
 15 16  1  0  0  0
 15 17  2  0  0  0
  4  5  1  0  0  0
  5  6  1  0  0  0
  6  7  1  0  0  0
  7  8  1  0  0  0
  8  9  2  0  0  0
  9 10  1  0  0  0
 10 11  2  0  0  0
 11 20  1  0  0  0
 20 22  1  0  0  0
 22 23  2  0  0  0
 23 24  1  0  0  0
 24 25  2  0  0  0
 25 26  1  0  0  0
 26 27  2  0  0  0
 27 28  1  0  0  0
 28 29  1  0  0  0
 29 30  1  0  0  0
 29 31  1  0  0  0
 29 32  1  0  0  0
 11 12  1  0  0  0
 12 13  2  0  0  0
 13 14  1  0  0  0
 14  2  1  0  0  0
 14  5  2  0  0  0
 13  8  1  0  0  0
 27 22  1  0  0  0
 16 18  1  0  0  0
 16 19  1  0  0  0
 20 21  1  0  0  0
M  END
> <minimizedAffinity>
-10.98334

> <CNNscore>
0.9351195693

> <CNNaffinity>
7.6632819176

> <CNN_VS>
7.1660847664

> <CNNaffinity_variance>
0.1175484806

$$$$
[H]c1nc(N([H])c2c([H])c([H])c([H])c([H])c2OC(F)(F)F)nc2c1C([H])([H])C([H])([H])c1c(C(=O)N([H])[H])nn(C([H])([H])[H])c1-2


 32 35  0  0  0  0  0  0  0  0999 V2000
   53.7167   -6.5231   -5.7479 C   0  0  0  0  0  0  0  0  0  0  0  0
   52.5120   -5.7622   -5.4881 N   0  0  0  0  0  0  0  0  0  0  0  0
   51.6654   -5.9200   -4.4803 N   0  0  0  0  0  0  0  0  0  0  0  0
   50.6604   -5.0267   -4.5716 C   0  0  0  0  0  0  0  0  0  0  0  0
   50.8988   -4.2730   -5.7008 C   0  0  0  0  0  0  0  0  0  0  0  0
   50.1078   -3.1687   -6.2536 C   0  0  0  0  0  0  0  0  0  0  0  0
   50.6299   -2.5448   -7.4891 C   0  0  0  0  0  0  0  0  0  0  0  0
   51.8819   -3.1195   -8.0209 C   0  0  0  0  0  0  0  0  0  0  0  0
   52.4118   -2.5679   -9.1905 C   0  0  0  0  0  0  0  0  0  0  0  0
   53.5462   -3.0753   -9.6863 N   0  0  0  0  0  0  0  0  0  0  0  0
   54.2479   -4.0796   -9.1718 C   0  0  0  0  0  0  0  0  0  0  0  0
   53.7140   -4.6124   -8.0209 N   0  0  0  0  0  0  0  0  0  0  0  0
   52.5826   -4.1549   -7.4686 C   0  0  0  0  0  0  0  0  0  0  0  0
   52.0537   -4.7541   -6.2456 C   0  0  0  0  0  0  0  0  0  0  0  0
   49.5395   -4.8832   -3.6566 C   0  0  0  0  0  0  0  0  0  0  0  0
   48.4510   -4.0353   -3.9813 N   0  0  0  0  0  0  0  0  0  0  0  0
   49.5437   -5.5134   -2.5821 O   0  0  0  0  0  0  0  0  0  0  0  0
   48.5054   -3.0083   -3.7371 H   0  0  0  0  0  0  0  0  0  0  0  0
   47.5769   -4.3584   -4.4560 H   0  0  0  0  0  0  0  0  0  0  0  0
   55.4315   -4.6082   -9.6884 N   0  0  0  0  0  0  0  0  0  0  0  0
   55.8694   -5.3839   -9.0607 H   0  0  0  0  0  0  0  0  0  0  0  0
   56.1192   -4.3231  -10.8689 C   0  0  0  0  0  0  0  0  0  0  0  0
   55.5300   -4.1837  -12.0956 C   0  0  0  0  0  0  0  0  0  0  0  0
   56.2872   -3.9440  -13.2550 C   0  0  0  0  0  0  0  0  0  0  0  0
   57.6552   -3.8455  -13.1660 C   0  0  0  0  0  0  0  0  0  0  0  0
   58.2607   -3.9830  -11.9389 C   0  0  0  0  0  0  0  0  0  0  0  0
   57.5219   -4.2166  -10.8045 C   0  0  0  0  0  0  0  0  0  0  0  0
   58.2254   -4.3329   -9.6199 O   0  0  0  0  0  0  0  0  0  0  0  0
   58.5494   -5.5624   -9.0059 C   0  0  0  0  0  0  0  0  0  0  0  0
   58.5241   -6.5578   -9.9794 F   0  0  0  0  0  0  0  0  0  0  0  0
   57.7800   -5.8272   -7.9209 F   0  0  0  0  0  0  0  0  0  0  0  0
   59.9082   -5.5156   -8.6231 F   0  0  0  0  0  0  0  0  0  0  0  0
  1  2  1  0  0  0
  2  3  1  0  0  0
  3  4  2  0  0  0
  4 15  1  0  0  0
 15 16  1  0  0  0
 15 17  2  0  0  0
  4  5  1  0  0  0
  5  6  1  0  0  0
  6  7  1  0  0  0
  7  8  1  0  0  0
  8  9  2  0  0  0
  9 10  1  0  0  0
 10 11  2  0  0  0
 11 20  1  0  0  0
 20 22  1  0  0  0
 22 23  2  0  0  0
 23 24  1  0  0  0
 24 25  2  0  0  0
 25 26  1  0  0  0
 26 27  2  0  0  0
 27 28  1  0  0  0
 28 29  1  0  0  0
 29 30  1  0  0  0
 29 31  1  0  0  0
 29 32  1  0  0  0
 11 12  1  0  0  0
 12 13  2  0  0  0
 13 14  1  0  0  0
 14  2  1  0  0  0
 14  5  2  0  0  0
 13  8  1  0  0  0
 27 22  1  0  0  0
 16 18  1  0  0  0
 16 19  1  0  0  0
 20 21  1  0  0  0
M  END
> <minimizedAffinity>
-9.62071

> <CNNscore>
0.6689902544

> <CNNaffinity>
7.2015428543

> <CNN_VS>
4.8177618980

> <CNNaffinity_variance>
0.1912568510

$$$$
[H]c1nc(N([H])c2c([H])c([H])c([H])c([H])c2OC(F)(F)F)nc2c1C([H])([H])C([H])([H])c1c(C(=O)N([H])[H])nn(C([H])([H])[H])c1-2


 32 35  0  0  0  0  0  0  0  0999 V2000
   54.7085   -6.8498   -6.3071 C   0  0  0  0  0  0  0  0  0  0  0  0
   53.6474   -6.6780   -5.3364 N   0  0  0  0  0  0  0  0  0  0  0  0
   53.4812   -7.3454   -4.2032 N   0  0  0  0  0  0  0  0  0  0  0  0
   52.3797   -6.9078   -3.5617 C   0  0  0  0  0  0  0  0  0  0  0  0
   51.8329   -5.9124   -4.3430 C   0  0  0  0  0  0  0  0  0  0  0  0
   50.6287   -5.1107   -4.1019 C   0  0  0  0  0  0  0  0  0  0  0  0
   50.2974   -4.1024   -5.1323 C   0  0  0  0  0  0  0  0  0  0  0  0
   51.2172   -4.0342   -6.2855 C   0  0  0  0  0  0  0  0  0  0  0  0
   50.9428   -3.1012   -7.2891 C   0  0  0  0  0  0  0  0  0  0  0  0
   51.7660   -3.0246   -8.3409 N   0  0  0  0  0  0  0  0  0  0  0  0
   52.8521   -3.7629   -8.5433 C   0  0  0  0  0  0  0  0  0  0  0  0
   53.1094   -4.6768   -7.5473 N   0  0  0  0  0  0  0  0  0  0  0  0
   52.3290   -4.8084   -6.4665 C   0  0  0  0  0  0  0  0  0  0  0  0
   52.6424   -5.7946   -5.4352 C   0  0  0  0  0  0  0  0  0  0  0  0
   51.8649   -7.3905   -2.2904 C   0  0  0  0  0  0  0  0  0  0  0  0
   51.3258   -8.6970   -2.1829 N   0  0  0  0  0  0  0  0  0  0  0  0
   51.9018   -6.6442   -1.2937 O   0  0  0  0  0  0  0  0  0  0  0  0
   50.3061   -8.8555   -2.4122 H   0  0  0  0  0  0  0  0  0  0  0  0
   51.8754   -9.5359   -1.8863 H   0  0  0  0  0  0  0  0  0  0  0  0
   53.7113   -3.6824   -9.6400 N   0  0  0  0  0  0  0  0  0  0  0  0
   53.2577   -3.2110  -10.5114 H   0  0  0  0  0  0  0  0  0  0  0  0
   55.0402   -4.0815   -9.7891 C   0  0  0  0  0  0  0  0  0  0  0  0
   55.6047   -4.4730  -10.9721 C   0  0  0  0  0  0  0  0  0  0  0  0
   56.9384   -4.9099  -11.0445 C   0  0  0  0  0  0  0  0  0  0  0  0
   57.7044   -4.9493   -9.9041 C   0  0  0  0  0  0  0  0  0  0  0  0
   57.1499   -4.5580   -8.7079 C   0  0  0  0  0  0  0  0  0  0  0  0
   55.8465   -4.1298   -8.6355 C   0  0  0  0  0  0  0  0  0  0  0  0
   55.3868   -3.7523   -7.3875 O   0  0  0  0  0  0  0  0  0  0  0  0
   56.1364   -3.8678   -6.1964 C   0  0  0  0  0  0  0  0  0  0  0  0
   56.7832   -2.6561   -5.9672 F   0  0  0  0  0  0  0  0  0  0  0  0
   56.9597   -4.9456   -6.1957 F   0  0  0  0  0  0  0  0  0  0  0  0
   55.2306   -3.9628   -5.1168 F   0  0  0  0  0  0  0  0  0  0  0  0
  1  2  1  0  0  0
  2  3  1  0  0  0
  3  4  2  0  0  0
  4 15  1  0  0  0
 15 16  1  0  0  0
 15 17  2  0  0  0
  4  5  1  0  0  0
  5  6  1  0  0  0
  6  7  1  0  0  0
  7  8  1  0  0  0
  8  9  2  0  0  0
  9 10  1  0  0  0
 10 11  2  0  0  0
 11 20  1  0  0  0
 20 22  1  0  0  0
 22 23  2  0  0  0
 23 24  1  0  0  0
 24 25  2  0  0  0
 25 26  1  0  0  0
 26 27  2  0  0  0
 27 28  1  0  0  0
 28 29  1  0  0  0
 29 30  1  0  0  0
 29 31  1  0  0  0
 29 32  1  0  0  0
 11 12  1  0  0  0
 12 13  2  0  0  0
 13 14  1  0  0  0
 14  2  1  0  0  0
 14  5  2  0  0  0
 13  8  1  0  0  0
 27 22  1  0  0  0
 16 18  1  0  0  0
 16 19  1  0  0  0
 20 21  1  0  0  0
M  END
> <minimizedAffinity>
-7.73953

> <CNNscore>
0.4089551270

> <CNNaffinity>
7.0332345963

> <CNN_VS>
2.8762774467

> <CNNaffinity_variance>
0.6096315980

$$$$
[H]c1nc(N([H])c2c([H])c([H])c([H])c([H])c2OC(F)(F)F)nc2c1C([H])([H])C([H])([H])c1c(C(=O)N([H])[H])nn(C([H])([H])[H])c1-2


 32 35  0  0  0  0  0  0  0  0999 V2000
   53.0152   -3.0260   -8.8825 C   0  0  0  0  0  0  0  0  0  0  0  0
   52.4023   -3.6199   -7.7123 N   0  0  0  0  0  0  0  0  0  0  0  0
   51.1579   -3.4538   -7.2869 N   0  0  0  0  0  0  0  0  0  0  0  0
   50.9503   -4.1671   -6.1625 C   0  0  0  0  0  0  0  0  0  0  0  0
   52.1345   -4.8117   -5.8756 C   0  0  0  0  0  0  0  0  0  0  0  0
   52.4454   -5.7110   -4.7596 C   0  0  0  0  0  0  0  0  0  0  0  0
   53.8191   -6.2589   -4.7245 C   0  0  0  0  0  0  0  0  0  0  0  0
   54.7139   -5.8232   -5.8153 C   0  0  0  0  0  0  0  0  0  0  0  0
   56.0243   -6.3090   -5.8223 C   0  0  0  0  0  0  0  0  0  0  0  0
   56.8489   -5.9257   -6.8036 N   0  0  0  0  0  0  0  0  0  0  0  0
   56.5491   -5.1064   -7.8060 C   0  0  0  0  0  0  0  0  0  0  0  0
   55.2560   -4.6363   -7.7859 N   0  0  0  0  0  0  0  0  0  0  0  0
   54.3765   -4.9777   -6.8349 C   0  0  0  0  0  0  0  0  0  0  0  0
   53.0137   -4.4516   -6.8551 C   0  0  0  0  0  0  0  0  0  0  0  0
   49.7162   -4.2441   -5.3974 C   0  0  0  0  0  0  0  0  0  0  0  0
   48.9203   -3.0881   -5.1994 N   0  0  0  0  0  0  0  0  0  0  0  0
   49.3633   -5.3376   -4.9162 O   0  0  0  0  0  0  0  0  0  0  0  0
   49.1334   -2.4473   -4.3861 H   0  0  0  0  0  0  0  0  0  0  0  0
   48.1184   -2.8157   -5.8131 H   0  0  0  0  0  0  0  0  0  0  0  0
   57.4089   -4.7074   -8.8300 N   0  0  0  0  0  0  0  0  0  0  0  0
   58.4288   -4.5249   -8.4924 H   0  0  0  0  0  0  0  0  0  0  0  0
   57.1810   -4.5296  -10.1953 C   0  0  0  0  0  0  0  0  0  0  0  0
   55.9601   -4.2570  -10.7491 C   0  0  0  0  0  0  0  0  0  0  0  0
   55.7904   -4.1371  -12.1390 C   0  0  0  0  0  0  0  0  0  0  0  0
   56.8713   -4.2962  -12.9727 C   0  0  0  0  0  0  0  0  0  0  0  0
   58.1047   -4.5701  -12.4296 C   0  0  0  0  0  0  0  0  0  0  0  0
   58.2726   -4.6867  -11.0711 C   0  0  0  0  0  0  0  0  0  0  0  0
   59.5533   -4.9569  -10.6259 O   0  0  0  0  0  0  0  0  0  0  0  0
   59.9117   -6.1058   -9.8873 C   0  0  0  0  0  0  0  0  0  0  0  0
   61.1805   -6.5099  -10.2948 F   0  0  0  0  0  0  0  0  0  0  0  0
   58.9725   -7.0824   -9.9453 F   0  0  0  0  0  0  0  0  0  0  0  0
   60.1095   -5.7178   -8.5436 F   0  0  0  0  0  0  0  0  0  0  0  0
  1  2  1  0  0  0
  2  3  1  0  0  0
  3  4  2  0  0  0
  4 15  1  0  0  0
 15 16  1  0  0  0
 15 17  2  0  0  0
  4  5  1  0  0  0
  5  6  1  0  0  0
  6  7  1  0  0  0
  7  8  1  0  0  0
  8  9  2  0  0  0
  9 10  1  0  0  0
 10 11  2  0  0  0
 11 20  1  0  0  0
 20 22  1  0  0  0
 22 23  2  0  0  0
 23 24  1  0  0  0
 24 25  2  0  0  0
 25 26  1  0  0  0
 26 27  2  0  0  0
 27 28  1  0  0  0
 28 29  1  0  0  0
 29 30  1  0  0  0
 29 31  1  0  0  0
 29 32  1  0  0  0
 11 12  1  0  0  0
 12 13  2  0  0  0
 13 14  1  0  0  0
 14  2  1  0  0  0
 14  5  2  0  0  0
 13  8  1  0  0  0
 27 22  1  0  0  0
 16 18  1  0  0  0
 16 19  1  0  0  0
 20 21  1  0  0  0
M  END
> <minimizedAffinity>
-7.75117

> <CNNscore>
0.3192329705

> <CNNaffinity>
6.8764939308

> <CNN_VS>
2.1952035427

> <CNNaffinity_variance>
0.1279391050

$$$$
[H]c1nc(N([H])c2c([H])c([H])c([H])c([H])c2OC(F)(F)F)nc2c1C([H])([H])C([H])([H])c1c(C(=O)N([H])[H])nn(C([H])([H])[H])c1-2


 32 35  0  0  0  0  0  0  0  0999 V2000
   56.3658   -5.5889   -6.1530 C   0  0  0  0  0  0  0  0  0  0  0  0
   55.5126   -4.9381   -7.1257 N   0  0  0  0  0  0  0  0  0  0  0  0
   54.2843   -4.4778   -6.9345 N   0  0  0  0  0  0  0  0  0  0  0  0
   53.8071   -3.9360   -8.0725 C   0  0  0  0  0  0  0  0  0  0  0  0
   54.7971   -4.0688   -9.0224 C   0  0  0  0  0  0  0  0  0  0  0  0
   54.7872   -3.6459  -10.4267 C   0  0  0  0  0  0  0  0  0  0  0  0
   56.0163   -3.9234  -11.2018 C   0  0  0  0  0  0  0  0  0  0  0  0
   57.1012   -4.6035  -10.4664 C   0  0  0  0  0  0  0  0  0  0  0  0
   58.2809   -4.8931  -11.1576 C   0  0  0  0  0  0  0  0  0  0  0  0
   59.2751   -5.5081  -10.5069 N   0  0  0  0  0  0  0  0  0  0  0  0
   59.2640   -5.8866   -9.2332 C   0  0  0  0  0  0  0  0  0  0  0  0
   58.0965   -5.5950   -8.5658 N   0  0  0  0  0  0  0  0  0  0  0  0
   57.0607   -4.9814   -9.1535 C   0  0  0  0  0  0  0  0  0  0  0  0
   55.8404   -4.6936   -8.4035 C   0  0  0  0  0  0  0  0  0  0  0  0
   52.5005   -3.3276   -8.2642 C   0  0  0  0  0  0  0  0  0  0  0  0
   51.3751   -3.8002   -7.5435 N   0  0  0  0  0  0  0  0  0  0  0  0
   52.3779   -2.3849   -9.0693 O   0  0  0  0  0  0  0  0  0  0  0  0
   50.8173   -4.6107   -7.9301 H   0  0  0  0  0  0  0  0  0  0  0  0
   51.0479   -3.3966   -6.6359 H   0  0  0  0  0  0  0  0  0  0  0  0
   60.3013   -6.5271   -8.5544 N   0  0  0  0  0  0  0  0  0  0  0  0
   59.9781   -7.0250   -7.6405 H   0  0  0  0  0  0  0  0  0  0  0  0
   61.6566   -6.6485   -8.8644 C   0  0  0  0  0  0  0  0  0  0  0  0
   62.1771   -6.5373  -10.1247 C   0  0  0  0  0  0  0  0  0  0  0  0
   63.5479   -6.7185  -10.3755 C   0  0  0  0  0  0  0  0  0  0  0  0
   64.3964   -7.0157   -9.3360 C   0  0  0  0  0  0  0  0  0  0  0  0
   63.8868   -7.1299   -8.0638 C   0  0  0  0  0  0  0  0  0  0  0  0
   62.5471   -6.9522   -7.8167 C   0  0  0  0  0  0  0  0  0  0  0  0
   62.1369   -7.0820   -6.5028 O   0  0  0  0  0  0  0  0  0  0  0  0
   61.9141   -8.3187   -5.8587 C   0  0  0  0  0  0  0  0  0  0  0  0
   60.7746   -8.2007   -5.0669 F   0  0  0  0  0  0  0  0  0  0  0  0
   63.0071   -8.7704   -5.1950 F   0  0  0  0  0  0  0  0  0  0  0  0
   61.5327   -9.2605   -6.8398 F   0  0  0  0  0  0  0  0  0  0  0  0
  1  2  1  0  0  0
  2  3  1  0  0  0
  3  4  2  0  0  0
  4 15  1  0  0  0
 15 16  1  0  0  0
 15 17  2  0  0  0
  4  5  1  0  0  0
  5  6  1  0  0  0
  6  7  1  0  0  0
  7  8  1  0  0  0
  8  9  2  0  0  0
  9 10  1  0  0  0
 10 11  2  0  0  0
 11 20  1  0  0  0
 20 22  1  0  0  0
 22 23  2  0  0  0
 23 24  1  0  0  0
 24 25  2  0  0  0
 25 26  1  0  0  0
 26 27  2  0  0  0
 27 28  1  0  0  0
 28 29  1  0  0  0
 29 30  1  0  0  0
 29 31  1  0  0  0
 29 32  1  0  0  0
 11 12  1  0  0  0
 12 13  2  0  0  0
 13 14  1  0  0  0
 14  2  1  0  0  0
 14  5  2  0  0  0
 13  8  1  0  0  0
 27 22  1  0  0  0
 16 18  1  0  0  0
 16 19  1  0  0  0
 20 21  1  0  0  0
M  END
> <minimizedAffinity>
-7.69379

> <CNNscore>
0.3128806353

> <CNNaffinity>
6.1035618782

> <CNN_VS>
1.9096863270

> <CNNaffinity_variance>
0.1250429004

$$$$
[H]c1nc(N([H])c2c([H])c([H])c([H])c([H])c2OC(F)(F)F)nc2c1C([H])([H])C([H])([H])c1c(C(=O)N([H])[H])nn(C([H])([H])[H])c1-2


 32 35  0  0  0  0  0  0  0  0999 V2000
   53.1701   -2.9694   -9.0676 C   0  0  0  0  0  0  0  0  0  0  0  0
   52.4941   -3.5226   -7.9122 N   0  0  0  0  0  0  0  0  0  0  0  0
   51.2403   -3.3095   -7.5383 N   0  0  0  0  0  0  0  0  0  0  0  0
   50.9670   -3.9956   -6.4110 C   0  0  0  0  0  0  0  0  0  0  0  0
   52.1180   -4.6720   -6.0676 C   0  0  0  0  0  0  0  0  0  0  0  0
   52.3568   -5.5605   -4.9254 C   0  0  0  0  0  0  0  0  0  0  0  0
   53.7097   -6.1507   -4.8280 C   0  0  0  0  0  0  0  0  0  0  0  0
   54.6592   -5.7632   -5.8904 C   0  0  0  0  0  0  0  0  0  0  0  0
   55.9525   -6.2902   -5.8384 C   0  0  0  0  0  0  0  0  0  0  0  0
   56.8260   -5.9509   -6.7933 N   0  0  0  0  0  0  0  0  0  0  0  0
   56.5913   -5.1407   -7.8201 C   0  0  0  0  0  0  0  0  0  0  0  0
   55.3142   -4.6298   -7.8581 N   0  0  0  0  0  0  0  0  0  0  0  0
   54.3884   -4.9260   -6.9363 C   0  0  0  0  0  0  0  0  0  0  0  0
   53.0451   -4.3576   -7.0182 C   0  0  0  0  0  0  0  0  0  0  0  0
   49.7027   -4.0199   -5.6931 C   0  0  0  0  0  0  0  0  0  0  0  0
   48.9838   -2.8200   -5.4635 N   0  0  0  0  0  0  0  0  0  0  0  0
   49.2555   -5.1068   -5.2806 O   0  0  0  0  0  0  0  0  0  0  0  0
   49.2111   -2.2366   -4.6118 H   0  0  0  0  0  0  0  0  0  0  0  0
   48.2268   -2.4607   -6.0893 H   0  0  0  0  0  0  0  0  0  0  0  0
   57.5021   -4.7876   -8.8166 N   0  0  0  0  0  0  0  0  0  0  0  0
   57.1980   -3.9125   -9.3905 H   0  0  0  0  0  0  0  0  0  0  0  0
   58.7273   -5.3518   -9.1743 C   0  0  0  0  0  0  0  0  0  0  0  0
   59.6818   -5.7624   -8.2844 C   0  0  0  0  0  0  0  0  0  0  0  0
   60.9166   -6.2789   -8.7126 C   0  0  0  0  0  0  0  0  0  0  0  0
   61.1831   -6.3784  -10.0572 C   0  0  0  0  0  0  0  0  0  0  0  0
   60.2324   -5.9699  -10.9631 C   0  0  0  0  0  0  0  0  0  0  0  0
   59.0244   -5.4655  -10.5461 C   0  0  0  0  0  0  0  0  0  0  0  0
   58.1353   -5.0894  -11.5358 O   0  0  0  0  0  0  0  0  0  0  0  0
   58.2402   -3.8985  -12.2872 C   0  0  0  0  0  0  0  0  0  0  0  0
   57.5047   -4.0543  -13.4593 F   0  0  0  0  0  0  0  0  0  0  0  0
   59.5253   -3.5131  -12.4851 F   0  0  0  0  0  0  0  0  0  0  0  0
   57.5419   -2.8829  -11.5971 F   0  0  0  0  0  0  0  0  0  0  0  0
  1  2  1  0  0  0
  2  3  1  0  0  0
  3  4  2  0  0  0
  4 15  1  0  0  0
 15 16  1  0  0  0
 15 17  2  0  0  0
  4  5  1  0  0  0
  5  6  1  0  0  0
  6  7  1  0  0  0
  7  8  1  0  0  0
  8  9  2  0  0  0
  9 10  1  0  0  0
 10 11  2  0  0  0
 11 20  1  0  0  0
 20 22  1  0  0  0
 22 23  2  0  0  0
 23 24  1  0  0  0
 24 25  2  0  0  0
 25 26  1  0  0  0
 26 27  2  0  0  0
 27 28  1  0  0  0
 28 29  1  0  0  0
 29 30  1  0  0  0
 29 31  1  0  0  0
 29 32  1  0  0  0
 11 12  1  0  0  0
 12 13  2  0  0  0
 13 14  1  0  0  0
 14  2  1  0  0  0
 14  5  2  0  0  0
 13  8  1  0  0  0
 27 22  1  0  0  0
 16 18  1  0  0  0
 16 19  1  0  0  0
 20 21  1  0  0  0
M  END
> <minimizedAffinity>
-6.93717

> <CNNscore>
0.2707480192

> <CNNaffinity>
6.7019758224

> <CNN_VS>
1.8145467043

> <CNNaffinity_variance>
0.2175975591

$$$$
[H]c1nc(N([H])c2c([H])c([H])c([H])c([H])c2OC(F)(F)F)nc2c1C([H])([H])C([H])([H])c1c(C(=O)N([H])[H])nn(C([H])([H])[H])c1-2


 32 35  0  0  0  0  0  0  0  0999 V2000
   52.6777   -4.3877   -8.7593 C   0  0  0  0  0  0  0  0  0  0  0  0
   54.0540   -4.3251   -9.2061 N   0  0  0  0  0  0  0  0  0  0  0  0
   54.5058   -3.8152  -10.3433 N   0  0  0  0  0  0  0  0  0  0  0  0
   55.8464   -3.9369  -10.4087 C   0  0  0  0  0  0  0  0  0  0  0  0
   56.2471   -4.5579   -9.2451 C   0  0  0  0  0  0  0  0  0  0  0  0
   57.6010   -4.9261   -8.8181 C   0  0  0  0  0  0  0  0  0  0  0  0
   57.7141   -5.5831   -7.4976 C   0  0  0  0  0  0  0  0  0  0  0  0
   56.4447   -5.7972   -6.7743 C   0  0  0  0  0  0  0  0  0  0  0  0
   56.4990   -6.4203   -5.5245 C   0  0  0  0  0  0  0  0  0  0  0  0
   55.3587   -6.6216   -4.8543 N   0  0  0  0  0  0  0  0  0  0  0  0
   54.1393   -6.2830   -5.2598 C   0  0  0  0  0  0  0  0  0  0  0  0
   54.1017   -5.6708   -6.4915 N   0  0  0  0  0  0  0  0  0  0  0  0
   55.2029   -5.4374   -7.2177 C   0  0  0  0  0  0  0  0  0  0  0  0
   55.1126   -4.7848   -8.5217 C   0  0  0  0  0  0  0  0  0  0  0  0
   56.7069   -3.4985  -11.4957 C   0  0  0  0  0  0  0  0  0  0  0  0
   56.5025   -3.9804  -12.8129 N   0  0  0  0  0  0  0  0  0  0  0  0
   57.6276   -2.6935  -11.2590 O   0  0  0  0  0  0  0  0  0  0  0  0
   56.9552   -4.8895  -13.1064 H   0  0  0  0  0  0  0  0  0  0  0  0
   55.9233   -3.4913  -13.5334 H   0  0  0  0  0  0  0  0  0  0  0  0
   52.9501   -6.4921   -4.5603 N   0  0  0  0  0  0  0  0  0  0  0  0
   52.8836   -7.4801   -4.1053 H   0  0  0  0  0  0  0  0  0  0  0  0
   51.8629   -5.6465   -4.3359 C   0  0  0  0  0  0  0  0  0  0  0  0
   51.5231   -5.1264   -3.1171 C   0  0  0  0  0  0  0  0  0  0  0  0
   50.3854   -4.3184   -2.9507 C   0  0  0  0  0  0  0  0  0  0  0  0
   49.5863   -4.0373   -4.0330 C   0  0  0  0  0  0  0  0  0  0  0  0
   49.9163   -4.5531   -5.2644 C   0  0  0  0  0  0  0  0  0  0  0  0
   51.0286   -5.3424   -5.4289 C   0  0  0  0  0  0  0  0  0  0  0  0
   51.2760   -5.8057   -6.7079 O   0  0  0  0  0  0  0  0  0  0  0  0
   50.5533   -6.8476   -7.3290 C   0  0  0  0  0  0  0  0  0  0  0  0
   50.2295   -7.7937   -6.3599 F   0  0  0  0  0  0  0  0  0  0  0  0
   51.1914   -7.3576   -8.4116 F   0  0  0  0  0  0  0  0  0  0  0  0
   49.2953   -6.3361   -7.7178 F   0  0  0  0  0  0  0  0  0  0  0  0
  1  2  1  0  0  0
  2  3  1  0  0  0
  3  4  2  0  0  0
  4 15  1  0  0  0
 15 16  1  0  0  0
 15 17  2  0  0  0
  4  5  1  0  0  0
  5  6  1  0  0  0
  6  7  1  0  0  0
  7  8  1  0  0  0
  8  9  2  0  0  0
  9 10  1  0  0  0
 10 11  2  0  0  0
 11 20  1  0  0  0
 20 22  1  0  0  0
 22 23  2  0  0  0
 23 24  1  0  0  0
 24 25  2  0  0  0
 25 26  1  0  0  0
 26 27  2  0  0  0
 27 28  1  0  0  0
 28 29  1  0  0  0
 29 30  1  0  0  0
 29 31  1  0  0  0
 29 32  1  0  0  0
 11 12  1  0  0  0
 12 13  2  0  0  0
 13 14  1  0  0  0
 14  2  1  0  0  0
 14  5  2  0  0  0
 13  8  1  0  0  0
 27 22  1  0  0  0
 16 18  1  0  0  0
 16 19  1  0  0  0
 20 21  1  0  0  0
M  END
> <minimizedAffinity>
-7.15495

> <CNNscore>
0.2645902038

> <CNNaffinity>
6.8772950172

> <CNN_VS>
1.8196648359

> <CNNaffinity_variance>
0.3647271693

$$$$
[H]c1nc(N([H])c2c([H])c([H])c([H])c([H])c2OC(F)(F)F)nc2c1C([H])([H])C([H])([H])c1c(C(=O)N([H])[H])nn(C([H])([H])[H])c1-2


 32 35  0  0  0  0  0  0  0  0999 V2000
   55.5539   -6.9688   -4.3459 C   0  0  0  0  0  0  0  0  0  0  0  0
   54.1502   -6.7625   -4.0548 N   0  0  0  0  0  0  0  0  0  0  0  0
   53.4791   -7.1922   -2.9954 N   0  0  0  0  0  0  0  0  0  0  0  0
   52.1903   -6.8056   -3.0716 C   0  0  0  0  0  0  0  0  0  0  0  0
   52.0562   -6.0959   -4.2457 C   0  0  0  0  0  0  0  0  0  0  0  0
   50.8589   -5.4587   -4.8038 C   0  0  0  0  0  0  0  0  0  0  0  0
   51.0334   -4.7558   -6.0936 C   0  0  0  0  0  0  0  0  0  0  0  0
   52.3936   -4.7912   -6.6672 C   0  0  0  0  0  0  0  0  0  0  0  0
   52.6075   -4.1463   -7.8884 C   0  0  0  0  0  0  0  0  0  0  0  0
   53.8339   -4.1672   -8.4226 N   0  0  0  0  0  0  0  0  0  0  0  0
   54.9070   -4.7533   -7.9024 C   0  0  0  0  0  0  0  0  0  0  0  0
   54.6813   -5.3839   -6.7005 N   0  0  0  0  0  0  0  0  0  0  0  0
   53.4801   -5.4034   -6.1077 C   0  0  0  0  0  0  0  0  0  0  0  0
   53.2888   -6.0875   -4.8311 C   0  0  0  0  0  0  0  0  0  0  0  0
   51.1413   -7.0820   -2.1034 C   0  0  0  0  0  0  0  0  0  0  0  0
   51.0999   -8.3256   -1.4243 N   0  0  0  0  0  0  0  0  0  0  0  0
   50.2771   -6.2145   -1.8750 O   0  0  0  0  0  0  0  0  0  0  0  0
   50.6045   -9.1437   -1.8746 H   0  0  0  0  0  0  0  0  0  0  0  0
   51.5334   -8.4976   -0.4883 H   0  0  0  0  0  0  0  0  0  0  0  0
   56.1864   -4.7742   -8.4591 N   0  0  0  0  0  0  0  0  0  0  0  0
   56.9710   -4.9855   -7.7330 H   0  0  0  0  0  0  0  0  0  0  0  0
   56.6114   -4.5932   -9.7760 C   0  0  0  0  0  0  0  0  0  0  0  0
   55.8063   -4.1777  -10.8010 C   0  0  0  0  0  0  0  0  0  0  0  0
   56.2868   -4.0619  -12.1165 C   0  0  0  0  0  0  0  0  0  0  0  0
   57.5971   -4.3717  -12.3920 C   0  0  0  0  0  0  0  0  0  0  0  0
   58.4180   -4.7902  -11.3711 C   0  0  0  0  0  0  0  0  0  0  0  0
   57.9501   -4.9031  -10.0844 C   0  0  0  0  0  0  0  0  0  0  0  0
   58.8569   -5.3258   -9.1301 O   0  0  0  0  0  0  0  0  0  0  0  0
   59.8799   -6.2692   -9.3693 C   0  0  0  0  0  0  0  0  0  0  0  0
   60.8381   -5.6775  -10.1884 F   0  0  0  0  0  0  0  0  0  0  0  0
   59.4063   -7.4521   -9.8338 F   0  0  0  0  0  0  0  0  0  0  0  0
   60.5732   -6.4797   -8.1568 F   0  0  0  0  0  0  0  0  0  0  0  0
  1  2  1  0  0  0
  2  3  1  0  0  0
  3  4  2  0  0  0
  4 15  1  0  0  0
 15 16  1  0  0  0
 15 17  2  0  0  0
  4  5  1  0  0  0
  5  6  1  0  0  0
  6  7  1  0  0  0
  7  8  1  0  0  0
  8  9  2  0  0  0
  9 10  1  0  0  0
 10 11  2  0  0  0
 11 20  1  0  0  0
 20 22  1  0  0  0
 22 23  2  0  0  0
 23 24  1  0  0  0
 24 25  2  0  0  0
 25 26  1  0  0  0
 26 27  2  0  0  0
 27 28  1  0  0  0
 28 29  1  0  0  0
 29 30  1  0  0  0
 29 31  1  0  0  0
 29 32  1  0  0  0
 11 12  1  0  0  0
 12 13  2  0  0  0
 13 14  1  0  0  0
 14  2  1  0  0  0
 14  5  2  0  0  0
 13  8  1  0  0  0
 27 22  1  0  0  0
 16 18  1  0  0  0
 16 19  1  0  0  0
 20 21  1  0  0  0
M  END
> <minimizedAffinity>
-9.11681

> <CNNscore>
0.2637084723

> <CNNaffinity>
6.5332803726

> <CNN_VS>
1.7228814363

> <CNNaffinity_variance>
0.2171286047

$$$$
[H]c1nc(N([H])c2c([H])c(N3C([H])([H])C([H])([H])N(C(=O)N4C([H])([H])C([H])([H])N([H])C([H])([H])C4([H])[H])C([H])([H])C3([H])[H])c([H])c([H])c2OC(F)(F)F)nc2c1C([H])([H])C([H])([H])c1c(C(=O)N([H])[H])nn(C([H])([H])[H])c1-2


 47 52  0  0  0  0  0  0  0  0999 V2000
   52.0305   -4.3943   -6.3327 C   0  0  0  0  0  0  0  0  0  0  0  0
   52.8081   -5.0015   -5.3794 C   0  0  0  0  0  0  0  0  0  0  0  0
   52.2945   -5.9369   -4.4585 C   0  0  0  0  0  0  0  0  0  0  0  0
   50.9591   -6.2766   -4.4928 C   0  0  0  0  0  0  0  0  0  0  0  0
   50.1969   -5.6662   -5.4417 C   0  0  0  0  0  0  0  0  0  0  0  0
   50.6640   -4.7550   -6.3454 C   0  0  0  0  0  0  0  0  0  0  0  0
   53.1347   -6.5025   -3.4666 N   0  0  0  0  0  0  0  0  0  0  0  0
   53.6315   -7.8910   -3.5927 C   0  0  0  0  0  0  0  0  0  0  0  0
   55.1608   -7.8696   -3.4381 C   0  0  0  0  0  0  0  0  0  0  0  0
   55.5446   -7.0813   -2.3108 N   0  0  0  0  0  0  0  0  0  0  0  0
   54.4355   -6.6825   -1.4154 C   0  0  0  0  0  0  0  0  0  0  0  0
   53.5377   -5.7922   -2.2867 C   0  0  0  0  0  0  0  0  0  0  0  0
   56.8414   -6.6693   -2.0142 C   0  0  0  0  0  0  0  0  0  0  0  0
   56.9935   -5.9866   -0.9095 O   0  0  0  0  0  0  0  0  0  0  0  0
   58.0398   -6.8689   -2.7173 N   0  0  0  0  0  0  0  0  0  0  0  0
   58.1806   -7.5563   -3.9721 C   0  0  0  0  0  0  0  0  0  0  0  0
   59.6562   -7.6738   -4.3353 C   0  0  0  0  0  0  0  0  0  0  0  0
   60.4714   -8.2156   -3.2809 N   0  0  0  0  0  0  0  0  0  0  0  0
   60.2495   -7.5476   -2.0160 C   0  0  0  0  0  0  0  0  0  0  0  0
   59.3162   -6.3581   -2.1696 C   0  0  0  0  0  0  0  0  0  0  0  0
   60.4233   -9.2526   -3.1994 H   0  0  0  0  0  0  0  0  0  0  0  0
   52.5225   -3.5162   -7.3061 N   0  0  0  0  0  0  0  0  0  0  0  0
   52.0716   -2.5201   -7.3020 H   0  0  0  0  0  0  0  0  0  0  0  0
   56.7128   -5.5040   -6.1711 C   0  0  0  0  0  0  0  0  0  0  0  0
   57.4244   -5.4917   -7.4249 N   0  0  0  0  0  0  0  0  0  0  0  0
   58.6566   -5.9188   -7.6321 N   0  0  0  0  0  0  0  0  0  0  0  0
   58.9818   -5.7473   -8.9258 C   0  0  0  0  0  0  0  0  0  0  0  0
   57.8730   -5.1759   -9.5581 C   0  0  0  0  0  0  0  0  0  0  0  0
   57.7008   -4.7723  -10.9533 C   0  0  0  0  0  0  0  0  0  0  0  0
   56.3582   -4.2841  -11.3409 C   0  0  0  0  0  0  0  0  0  0  0  0
   55.3944   -4.0844  -10.2543 C   0  0  0  0  0  0  0  0  0  0  0  0
   54.1619   -3.5042  -10.5858 C   0  0  0  0  0  0  0  0  0  0  0  0
   53.2942   -3.3641   -9.5724 N   0  0  0  0  0  0  0  0  0  0  0  0
   53.4818   -3.7112   -8.3138 C   0  0  0  0  0  0  0  0  0  0  0  0
   54.6954   -4.2845   -7.9823 N   0  0  0  0  0  0  0  0  0  0  0  0
   55.6082   -4.4540   -8.9453 C   0  0  0  0  0  0  0  0  0  0  0  0
   56.9160   -5.0265   -8.6011 C   0  0  0  0  0  0  0  0  0  0  0  0
   60.2579   -6.0742   -9.5879 C   0  0  0  0  0  0  0  0  0  0  0  0
   61.2442   -6.7095   -8.7976 N   0  0  0  0  0  0  0  0  0  0  0  0
   60.4584   -5.7987  -10.7958 O   0  0  0  0  0  0  0  0  0  0  0  0
   62.0150   -6.1425   -8.3611 H   0  0  0  0  0  0  0  0  0  0  0  0
   61.3003   -7.7254   -8.5884 H   0  0  0  0  0  0  0  0  0  0  0  0
   49.8632   -4.1407   -7.2907 O   0  0  0  0  0  0  0  0  0  0  0  0
   49.2734   -2.8685   -7.0787 C   0  0  0  0  0  0  0  0  0  0  0  0
   48.9583   -2.7760   -5.7361 F   0  0  0  0  0  0  0  0  0  0  0  0
   50.2012   -1.8530   -7.3021 F   0  0  0  0  0  0  0  0  0  0  0  0
   48.2181   -2.6399   -7.9114 F   0  0  0  0  0  0  0  0  0  0  0  0
 24 25  1  0  0  0
 25 26  1  0  0  0
 26 27  2  0  0  0
 27 38  1  0  0  0
 38 39  1  0  0  0
 38 40  2  0  0  0
 27 28  1  0  0  0
 28 29  1  0  0  0
 29 30  1  0  0  0
 30 31  1  0  0  0
 31 32  2  0  0  0
 32 33  1  0  0  0
 33 34  2  0  0  0
 34 22  1  0  0  0
 22  1  1  0  0  0
  1  2  2  0  0  0
  2  3  1  0  0  0
  3  4  2  0  0  0
  4  5  1  0  0  0
  5  6  2  0  0  0
  6 43  1  0  0  0
 43 44  1  0  0  0
 44 45  1  0  0  0
 44 46  1  0  0  0
 44 47  1  0  0  0
  3  7  1  0  0  0
  7  8  1  0  0  0
  8  9  1  0  0  0
  9 10  1  0  0  0
 10 11  1  0  0  0
 11 12  1  0  0  0
 10 13  1  0  0  0
 13 14  2  0  0  0
 13 15  1  0  0  0
 15 16  1  0  0  0
 16 17  1  0  0  0
 17 18  1  0  0  0
 18 19  1  0  0  0
 19 20  1  0  0  0
 34 35  1  0  0  0
 35 36  2  0  0  0
 36 37  1  0  0  0
 37 25  1  0  0  0
 37 28  2  0  0  0
 36 31  1  0  0  0
  6  1  1  0  0  0
 12  7  1  0  0  0
 20 15  1  0  0  0
 39 41  1  0  0  0
 39 42  1  0  0  0
 22 23  1  0  0  0
 18 21  1  0  0  0
M  END
> <minimizedAffinity>
-9.47376

> <CNNscore>
0.4951846302

> <CNNaffinity>
7.8358092308

> <CNN_VS>
3.8801722527

> <CNNaffinity_variance>
0.1021237820

$$$$
[H]c1nc(N([H])c2c([H])c(N3C([H])([H])C([H])([H])N(C(=O)N4C([H])([H])C([H])([H])N([H])C([H])([H])C4([H])[H])C([H])([H])C3([H])[H])c([H])c([H])c2OC(F)(F)F)nc2c1C([H])([H])C([H])([H])c1c(C(=O)N([H])[H])nn(C([H])([H])[H])c1-2


 47 52  0  0  0  0  0  0  0  0999 V2000
   52.3328   -5.1265   -5.3318 C   0  0  0  0  0  0  0  0  0  0  0  0
   53.4396   -5.1250   -4.5210 C   0  0  0  0  0  0  0  0  0  0  0  0
   53.5224   -5.8930   -3.3420 C   0  0  0  0  0  0  0  0  0  0  0  0
   52.4635   -6.6894   -2.9618 C   0  0  0  0  0  0  0  0  0  0  0  0
   51.3700   -6.6812   -3.7731 C   0  0  0  0  0  0  0  0  0  0  0  0
   51.2585   -5.9469   -4.9191 C   0  0  0  0  0  0  0  0  0  0  0  0
   54.6742   -5.8213   -2.5187 N   0  0  0  0  0  0  0  0  0  0  0  0
   54.8765   -6.7796   -1.4090 C   0  0  0  0  0  0  0  0  0  0  0  0
   56.2682   -7.4124   -1.5689 C   0  0  0  0  0  0  0  0  0  0  0  0
   57.2532   -6.4109   -1.8259 N   0  0  0  0  0  0  0  0  0  0  0  0
   56.7963   -5.0159   -1.6352 C   0  0  0  0  0  0  0  0  0  0  0  0
   55.6930   -4.8247   -2.6860 C   0  0  0  0  0  0  0  0  0  0  0  0
   58.5620   -6.6486   -2.2384 C   0  0  0  0  0  0  0  0  0  0  0  0
   59.3246   -5.5961   -2.3800 O   0  0  0  0  0  0  0  0  0  0  0  0
   59.2148   -7.8557   -2.5336 N   0  0  0  0  0  0  0  0  0  0  0  0
   58.6278   -9.1674   -2.4938 C   0  0  0  0  0  0  0  0  0  0  0  0
   59.6982  -10.2216   -2.7505 C   0  0  0  0  0  0  0  0  0  0  0  0
   60.8626  -10.0803   -1.9175 N   0  0  0  0  0  0  0  0  0  0  0  0
   61.3830   -8.7295   -1.9246 C   0  0  0  0  0  0  0  0  0  0  0  0
   60.6432   -7.8521   -2.9209 C   0  0  0  0  0  0  0  0  0  0  0  0
   60.7421  -10.4573   -0.9544 H   0  0  0  0  0  0  0  0  0  0  0  0
   52.2457   -4.4317   -6.5443 N   0  0  0  0  0  0  0  0  0  0  0  0
   51.3022   -3.9044   -6.7095 H   0  0  0  0  0  0  0  0  0  0  0  0
   56.6631   -6.1564   -5.9872 C   0  0  0  0  0  0  0  0  0  0  0  0
   57.2982   -5.8233   -7.2380 N   0  0  0  0  0  0  0  0  0  0  0  0
   58.5516   -6.0705   -7.5719 N   0  0  0  0  0  0  0  0  0  0  0  0
   58.7853   -5.6147   -8.8154 C   0  0  0  0  0  0  0  0  0  0  0  0
   57.5934   -5.0486   -9.2786 C   0  0  0  0  0  0  0  0  0  0  0  0
   57.3049   -4.3984  -10.5565 C   0  0  0  0  0  0  0  0  0  0  0  0
   55.9023   -3.9860  -10.7884 C   0  0  0  0  0  0  0  0  0  0  0  0
   54.9869   -4.1058   -9.6494 C   0  0  0  0  0  0  0  0  0  0  0  0
   53.6882   -3.6033   -9.8119 C   0  0  0  0  0  0  0  0  0  0  0  0
   52.8699   -3.7567   -8.7600 N   0  0  0  0  0  0  0  0  0  0  0  0
   53.1606   -4.3234   -7.6050 C   0  0  0  0  0  0  0  0  0  0  0  0
   54.4399   -4.8210   -7.4404 N   0  0  0  0  0  0  0  0  0  0  0  0
   55.3087   -4.7015   -8.4506 C   0  0  0  0  0  0  0  0  0  0  0  0
   56.6822   -5.1912   -8.2768 C   0  0  0  0  0  0  0  0  0  0  0  0
   60.0471   -5.6700   -9.5760 C   0  0  0  0  0  0  0  0  0  0  0  0
   61.2339   -5.8695   -8.8325 N   0  0  0  0  0  0  0  0  0  0  0  0
   60.0653   -5.5434  -10.8246 O   0  0  0  0  0  0  0  0  0  0  0  0
   61.8336   -5.0474   -8.5670 H   0  0  0  0  0  0  0  0  0  0  0  0
   61.6032   -6.7825   -8.5022 H   0  0  0  0  0  0  0  0  0  0  0  0
   50.1294   -5.9482   -5.7176 O   0  0  0  0  0  0  0  0  0  0  0  0
   50.1271   -6.4789   -7.0328 C   0  0  0  0  0  0  0  0  0  0  0  0
   50.1138   -5.4115   -7.9107 F   0  0  0  0  0  0  0  0  0  0  0  0
   51.3215   -7.1470   -7.2955 F   0  0  0  0  0  0  0  0  0  0  0  0
   49.1149   -7.3707   -7.2312 F   0  0  0  0  0  0  0  0  0  0  0  0
 24 25  1  0  0  0
 25 26  1  0  0  0
 26 27  2  0  0  0
 27 38  1  0  0  0
 38 39  1  0  0  0
 38 40  2  0  0  0
 27 28  1  0  0  0
 28 29  1  0  0  0
 29 30  1  0  0  0
 30 31  1  0  0  0
 31 32  2  0  0  0
 32 33  1  0  0  0
 33 34  2  0  0  0
 34 22  1  0  0  0
 22  1  1  0  0  0
  1  2  2  0  0  0
  2  3  1  0  0  0
  3  4  2  0  0  0
  4  5  1  0  0  0
  5  6  2  0  0  0
  6 43  1  0  0  0
 43 44  1  0  0  0
 44 45  1  0  0  0
 44 46  1  0  0  0
 44 47  1  0  0  0
  3  7  1  0  0  0
  7  8  1  0  0  0
  8  9  1  0  0  0
  9 10  1  0  0  0
 10 11  1  0  0  0
 11 12  1  0  0  0
 10 13  1  0  0  0
 13 14  2  0  0  0
 13 15  1  0  0  0
 15 16  1  0  0  0
 16 17  1  0  0  0
 17 18  1  0  0  0
 18 19  1  0  0  0
 19 20  1  0  0  0
 34 35  1  0  0  0
 35 36  2  0  0  0
 36 37  1  0  0  0
 37 25  1  0  0  0
 37 28  2  0  0  0
 36 31  1  0  0  0
  6  1  1  0  0  0
 12  7  1  0  0  0
 20 15  1  0  0  0
 39 41  1  0  0  0
 39 42  1  0  0  0
 22 23  1  0  0  0
 18 21  1  0  0  0
M  END
> <minimizedAffinity>
-8.62612

> <CNNscore>
0.4520964324

> <CNNaffinity>
7.6982049942

> <CNN_VS>
3.4803309441

> <CNNaffinity_variance>
0.1805518866

$$$$
[H]c1nc(N([H])c2c([H])c(N3C([H])([H])C([H])([H])N(C(=O)N4C([H])([H])C([H])([H])N([H])C([H])([H])C4([H])[H])C([H])([H])C3([H])[H])c([H])c([H])c2OC(F)(F)F)nc2c1C([H])([H])C([H])([H])c1c(C(=O)N([H])[H])nn(C([H])([H])[H])c1-2


 47 52  0  0  0  0  0  0  0  0999 V2000
   51.9932   -4.3789   -6.5954 C   0  0  0  0  0  0  0  0  0  0  0  0
   52.7712   -5.1144   -5.7375 C   0  0  0  0  0  0  0  0  0  0  0  0
   52.2306   -6.0327   -4.8147 C   0  0  0  0  0  0  0  0  0  0  0  0
   50.8669   -6.2220   -4.7485 C   0  0  0  0  0  0  0  0  0  0  0  0
   50.1050   -5.4852   -5.6033 C   0  0  0  0  0  0  0  0  0  0  0  0
   50.5981   -4.5868   -6.5059 C   0  0  0  0  0  0  0  0  0  0  0  0
   53.0783   -6.7357   -3.9220 N   0  0  0  0  0  0  0  0  0  0  0  0
   54.3992   -7.2367   -4.3636 C   0  0  0  0  0  0  0  0  0  0  0  0
   55.4604   -6.7290   -3.3740 C   0  0  0  0  0  0  0  0  0  0  0  0
   55.0386   -6.9414   -2.0263 N   0  0  0  0  0  0  0  0  0  0  0  0
   53.8434   -7.8004   -1.8694 C   0  0  0  0  0  0  0  0  0  0  0  0
   52.7159   -7.0227   -2.5636 C   0  0  0  0  0  0  0  0  0  0  0  0
   55.6465   -6.4065   -0.8932 C   0  0  0  0  0  0  0  0  0  0  0  0
   55.1334   -6.7545    0.2579 O   0  0  0  0  0  0  0  0  0  0  0  0
   56.7427   -5.5375   -0.7768 N   0  0  0  0  0  0  0  0  0  0  0  0
   57.4905   -4.9677   -1.8644 C   0  0  0  0  0  0  0  0  0  0  0  0
   58.6814   -4.1870   -1.3208 C   0  0  0  0  0  0  0  0  0  0  0  0
   59.4860   -4.9314   -0.3891 N   0  0  0  0  0  0  0  0  0  0  0  0
   58.6918   -5.5517    0.6501 C   0  0  0  0  0  0  0  0  0  0  0  0
   57.2329   -5.1355    0.5604 C   0  0  0  0  0  0  0  0  0  0  0  0
   60.1467   -5.5985   -0.8394 H   0  0  0  0  0  0  0  0  0  0  0  0
   52.5017   -3.5125   -7.5708 N   0  0  0  0  0  0  0  0  0  0  0  0
   52.0415   -2.5210   -7.5952 H   0  0  0  0  0  0  0  0  0  0  0  0
   56.6907   -5.4129   -6.2904 C   0  0  0  0  0  0  0  0  0  0  0  0
   57.4328   -5.4171   -7.5264 N   0  0  0  0  0  0  0  0  0  0  0  0
   58.6758   -5.8302   -7.6940 N   0  0  0  0  0  0  0  0  0  0  0  0
   59.0304   -5.6820   -8.9828 C   0  0  0  0  0  0  0  0  0  0  0  0
   57.9296   -5.1408   -9.6544 C   0  0  0  0  0  0  0  0  0  0  0  0
   57.7861   -4.7701  -11.0619 C   0  0  0  0  0  0  0  0  0  0  0  0
   56.4467   -4.3103  -11.4928 C   0  0  0  0  0  0  0  0  0  0  0  0
   55.4535   -4.1016  -10.4347 C   0  0  0  0  0  0  0  0  0  0  0  0
   54.2214   -3.5470  -10.8089 C   0  0  0  0  0  0  0  0  0  0  0  0
   53.3270   -3.3979   -9.8203 N   0  0  0  0  0  0  0  0  0  0  0  0
   53.4884   -3.7150   -8.5503 C   0  0  0  0  0  0  0  0  0  0  0  0
   54.7015   -4.2629   -8.1766 N   0  0  0  0  0  0  0  0  0  0  0  0
   55.6402   -4.4396   -9.1132 C   0  0  0  0  0  0  0  0  0  0  0  0
   56.9471   -4.9850   -8.7246 C   0  0  0  0  0  0  0  0  0  0  0  0
   60.3270   -6.0040   -9.6062 C   0  0  0  0  0  0  0  0  0  0  0  0
   61.3419   -6.4974   -8.7531 N   0  0  0  0  0  0  0  0  0  0  0  0
   60.5200   -5.8450  -10.8361 O   0  0  0  0  0  0  0  0  0  0  0  0
   62.0771   -5.8459   -8.3776 H   0  0  0  0  0  0  0  0  0  0  0  0
   61.4530   -7.4813   -8.4391 H   0  0  0  0  0  0  0  0  0  0  0  0
   49.7987   -3.8420   -7.3536 O   0  0  0  0  0  0  0  0  0  0  0  0
   49.3303   -2.5465   -7.0164 C   0  0  0  0  0  0  0  0  0  0  0  0
   49.2141   -2.4927   -5.6403 F   0  0  0  0  0  0  0  0  0  0  0  0
   50.2828   -1.5808   -7.3360 F   0  0  0  0  0  0  0  0  0  0  0  0
   48.1859   -2.2187   -7.6812 F   0  0  0  0  0  0  0  0  0  0  0  0
 24 25  1  0  0  0
 25 26  1  0  0  0
 26 27  2  0  0  0
 27 38  1  0  0  0
 38 39  1  0  0  0
 38 40  2  0  0  0
 27 28  1  0  0  0
 28 29  1  0  0  0
 29 30  1  0  0  0
 30 31  1  0  0  0
 31 32  2  0  0  0
 32 33  1  0  0  0
 33 34  2  0  0  0
 34 22  1  0  0  0
 22  1  1  0  0  0
  1  2  2  0  0  0
  2  3  1  0  0  0
  3  4  2  0  0  0
  4  5  1  0  0  0
  5  6  2  0  0  0
  6 43  1  0  0  0
 43 44  1  0  0  0
 44 45  1  0  0  0
 44 46  1  0  0  0
 44 47  1  0  0  0
  3  7  1  0  0  0
  7  8  1  0  0  0
  8  9  1  0  0  0
  9 10  1  0  0  0
 10 11  1  0  0  0
 11 12  1  0  0  0
 10 13  1  0  0  0
 13 14  2  0  0  0
 13 15  1  0  0  0
 15 16  1  0  0  0
 16 17  1  0  0  0
 17 18  1  0  0  0
 18 19  1  0  0  0
 19 20  1  0  0  0
 34 35  1  0  0  0
 35 36  2  0  0  0
 36 37  1  0  0  0
 37 25  1  0  0  0
 37 28  2  0  0  0
 36 31  1  0  0  0
  6  1  1  0  0  0
 12  7  1  0  0  0
 20 15  1  0  0  0
 39 41  1  0  0  0
 39 42  1  0  0  0
 22 23  1  0  0  0
 18 21  1  0  0  0
M  END
> <minimizedAffinity>
-10.83846

> <CNNscore>
0.3419869840

> <CNNaffinity>
7.6933960915

> <CNN_VS>
2.6310412884

> <CNNaffinity_variance>
0.0985026285

$$$$
[H]c1nc(N([H])c2c([H])c(N3C([H])([H])C([H])([H])N(C(=O)N4C([H])([H])C([H])([H])N([H])C([H])([H])C4([H])[H])C([H])([H])C3([H])[H])c([H])c([H])c2OC(F)(F)F)nc2c1C([H])([H])C([H])([H])c1c(C(=O)N([H])[H])nn(C([H])([H])[H])c1-2


 47 52  0  0  0  0  0  0  0  0999 V2000
   57.6380   -4.7670   -9.9811 C   0  0  0  0  0  0  0  0  0  0  0  0
   58.5973   -5.5190   -9.3514 C   0  0  0  0  0  0  0  0  0  0  0  0
   59.8273   -5.8480   -9.9562 C   0  0  0  0  0  0  0  0  0  0  0  0
   60.1073   -5.4096  -11.2327 C   0  0  0  0  0  0  0  0  0  0  0  0
   59.1471   -4.6659  -11.8483 C   0  0  0  0  0  0  0  0  0  0  0  0
   57.9458   -4.3329  -11.2905 C   0  0  0  0  0  0  0  0  0  0  0  0
   60.7657   -6.6640   -9.2756 N   0  0  0  0  0  0  0  0  0  0  0  0
   60.4117   -8.0365   -8.8496 C   0  0  0  0  0  0  0  0  0  0  0  0
   61.4848   -8.9975   -9.3861 C   0  0  0  0  0  0  0  0  0  0  0  0
   62.7942   -8.4917   -9.1234 N   0  0  0  0  0  0  0  0  0  0  0  0
   62.8480   -7.3330   -8.2038 C   0  0  0  0  0  0  0  0  0  0  0  0
   62.0887   -6.2204   -8.9410 C   0  0  0  0  0  0  0  0  0  0  0  0
   63.9782   -8.9896   -9.6618 C   0  0  0  0  0  0  0  0  0  0  0  0
   65.0824   -8.4137   -9.2635 O   0  0  0  0  0  0  0  0  0  0  0  0
   64.1900  -10.0296  -10.5803 N   0  0  0  0  0  0  0  0  0  0  0  0
   63.1704  -10.8237  -11.2101 C   0  0  0  0  0  0  0  0  0  0  0  0
   63.8133  -11.9320  -12.0355 C   0  0  0  0  0  0  0  0  0  0  0  0
   64.7867  -12.7044  -11.3105 N   0  0  0  0  0  0  0  0  0  0  0  0
   65.7538  -11.8701  -10.6292 C   0  0  0  0  0  0  0  0  0  0  0  0
   65.5666  -10.4023  -10.9758 C   0  0  0  0  0  0  0  0  0  0  0  0
   64.3730  -13.4282  -10.6867 H   0  0  0  0  0  0  0  0  0  0  0  0
   56.4378   -4.3634   -9.3834 N   0  0  0  0  0  0  0  0  0  0  0  0
   55.9610   -3.4933   -9.8429 H   0  0  0  0  0  0  0  0  0  0  0  0
   51.9794   -2.8911   -8.5155 C   0  0  0  0  0  0  0  0  0  0  0  0
   51.6457   -3.5799   -7.2937 N   0  0  0  0  0  0  0  0  0  0  0  0
   50.5119   -3.4845   -6.6236 N   0  0  0  0  0  0  0  0  0  0  0  0
   50.5643   -4.2713   -5.5341 C   0  0  0  0  0  0  0  0  0  0  0  0
   51.8165   -4.8939   -5.5342 C   0  0  0  0  0  0  0  0  0  0  0  0
   52.3914   -5.8318   -4.5704 C   0  0  0  0  0  0  0  0  0  0  0  0
   53.7174   -6.3975   -4.9064 C   0  0  0  0  0  0  0  0  0  0  0  0
   54.3969   -5.8268   -6.0735 C   0  0  0  0  0  0  0  0  0  0  0  0
   55.7049   -6.2604   -6.3324 C   0  0  0  0  0  0  0  0  0  0  0  0
   56.2842   -5.7395   -7.4245 N   0  0  0  0  0  0  0  0  0  0  0  0
   55.7552   -4.8726   -8.2660 C   0  0  0  0  0  0  0  0  0  0  0  0
   54.4653   -4.4427   -8.0153 N   0  0  0  0  0  0  0  0  0  0  0  0
   53.8276   -4.9223   -6.9415 C   0  0  0  0  0  0  0  0  0  0  0  0
   52.4713   -4.4462   -6.6409 C   0  0  0  0  0  0  0  0  0  0  0  0
   49.5262   -4.4593   -4.5043 C   0  0  0  0  0  0  0  0  0  0  0  0
   48.6665   -3.3638   -4.2552 N   0  0  0  0  0  0  0  0  0  0  0  0
   49.4137   -5.5408   -3.8774 O   0  0  0  0  0  0  0  0  0  0  0  0
   48.8584   -2.7163   -3.4490 H   0  0  0  0  0  0  0  0  0  0  0  0
   47.8212   -3.1119   -4.8038 H   0  0  0  0  0  0  0  0  0  0  0  0
   56.9831   -3.5863  -11.9449 O   0  0  0  0  0  0  0  0  0  0  0  0
   56.6835   -3.7664  -13.3193 C   0  0  0  0  0  0  0  0  0  0  0  0
   56.2725   -5.0754  -13.4861 F   0  0  0  0  0  0  0  0  0  0  0  0
   55.5842   -2.9934  -13.6882 F   0  0  0  0  0  0  0  0  0  0  0  0
   57.7196   -3.4048  -14.1285 F   0  0  0  0  0  0  0  0  0  0  0  0
 24 25  1  0  0  0
 25 26  1  0  0  0
 26 27  2  0  0  0
 27 38  1  0  0  0
 38 39  1  0  0  0
 38 40  2  0  0  0
 27 28  1  0  0  0
 28 29  1  0  0  0
 29 30  1  0  0  0
 30 31  1  0  0  0
 31 32  2  0  0  0
 32 33  1  0  0  0
 33 34  2  0  0  0
 34 22  1  0  0  0
 22  1  1  0  0  0
  1  2  2  0  0  0
  2  3  1  0  0  0
  3  4  2  0  0  0
  4  5  1  0  0  0
  5  6  2  0  0  0
  6 43  1  0  0  0
 43 44  1  0  0  0
 44 45  1  0  0  0
 44 46  1  0  0  0
 44 47  1  0  0  0
  3  7  1  0  0  0
  7  8  1  0  0  0
  8  9  1  0  0  0
  9 10  1  0  0  0
 10 11  1  0  0  0
 11 12  1  0  0  0
 10 13  1  0  0  0
 13 14  2  0  0  0
 13 15  1  0  0  0
 15 16  1  0  0  0
 16 17  1  0  0  0
 17 18  1  0  0  0
 18 19  1  0  0  0
 19 20  1  0  0  0
 34 35  1  0  0  0
 35 36  2  0  0  0
 36 37  1  0  0  0
 37 25  1  0  0  0
 37 28  2  0  0  0
 36 31  1  0  0  0
  6  1  1  0  0  0
 12  7  1  0  0  0
 20 15  1  0  0  0
 39 41  1  0  0  0
 39 42  1  0  0  0
 22 23  1  0  0  0
 18 21  1  0  0  0
M  END
> <minimizedAffinity>
-7.73573

> <CNNscore>
0.3046925068

> <CNNaffinity>
7.1831865311

> <CNN_VS>
2.1886630058

> <CNNaffinity_variance>
0.1887824833

$$$$
[H]c1nc(N([H])c2c([H])c(N3C([H])([H])C([H])([H])N(C(=O)N4C([H])([H])C([H])([H])N([H])C([H])([H])C4([H])[H])C([H])([H])C3([H])[H])c([H])c([H])c2OC(F)(F)F)nc2c1C([H])([H])C([H])([H])c1c(C(=O)N([H])[H])nn(C([H])([H])[H])c1-2


 47 52  0  0  0  0  0  0  0  0999 V2000
   51.7442   -6.8026   -1.3043 C   0  0  0  0  0  0  0  0  0  0  0  0
   52.9830   -6.2563   -1.5258 C   0  0  0  0  0  0  0  0  0  0  0  0
   54.1401   -6.6894   -0.8471 C   0  0  0  0  0  0  0  0  0  0  0  0
   54.0552   -7.7030    0.0832 C   0  0  0  0  0  0  0  0  0  0  0  0
   52.8204   -8.2360    0.2959 C   0  0  0  0  0  0  0  0  0  0  0  0
   51.6814   -7.8368   -0.3431 C   0  0  0  0  0  0  0  0  0  0  0  0
   55.3883   -6.0607   -1.0842 N   0  0  0  0  0  0  0  0  0  0  0  0
   56.0964   -5.3434   -0.0003 C   0  0  0  0  0  0  0  0  0  0  0  0
   57.5303   -5.8914    0.0812 C   0  0  0  0  0  0  0  0  0  0  0  0
   58.1181   -5.9663   -1.2181 N   0  0  0  0  0  0  0  0  0  0  0  0
   57.3574   -5.2894   -2.2925 C   0  0  0  0  0  0  0  0  0  0  0  0
   56.0300   -6.0577   -2.3677 C   0  0  0  0  0  0  0  0  0  0  0  0
   59.3083   -6.6175   -1.5326 C   0  0  0  0  0  0  0  0  0  0  0  0
   59.7016   -6.5359   -2.7768 O   0  0  0  0  0  0  0  0  0  0  0  0
   60.1765   -7.3630   -0.7196 N   0  0  0  0  0  0  0  0  0  0  0  0
   59.9937   -7.6459    0.6780 C   0  0  0  0  0  0  0  0  0  0  0  0
   61.2193   -8.3685    1.2246 C   0  0  0  0  0  0  0  0  0  0  0  0
   62.4627   -7.7109    0.9224 N   0  0  0  0  0  0  0  0  0  0  0  0
   62.5803   -7.3755   -0.4809 C   0  0  0  0  0  0  0  0  0  0  0  0
   61.4188   -7.9332   -1.2869 C   0  0  0  0  0  0  0  0  0  0  0  0
   62.6774   -6.9048    1.5456 H   0  0  0  0  0  0  0  0  0  0  0  0
   50.5896   -6.4450   -2.0112 N   0  0  0  0  0  0  0  0  0  0  0  0
   49.6660   -6.9097   -1.6555 H   0  0  0  0  0  0  0  0  0  0  0  0
   53.8390   -6.5586   -5.5079 C   0  0  0  0  0  0  0  0  0  0  0  0
   53.3585   -5.5559   -6.4257 N   0  0  0  0  0  0  0  0  0  0  0  0
   53.9320   -5.1881   -7.5568 N   0  0  0  0  0  0  0  0  0  0  0  0
   53.1970   -4.2267   -8.1435 C   0  0  0  0  0  0  0  0  0  0  0  0
   52.0950   -3.9869   -7.3165 C   0  0  0  0  0  0  0  0  0  0  0  0
   50.9985   -3.0325   -7.4777 C   0  0  0  0  0  0  0  0  0  0  0  0
   49.9170   -3.0893   -6.4686 C   0  0  0  0  0  0  0  0  0  0  0  0
   50.1416   -3.9666   -5.3156 C   0  0  0  0  0  0  0  0  0  0  0  0
   49.1869   -3.9376   -4.2892 C   0  0  0  0  0  0  0  0  0  0  0  0
   49.4096   -4.7744   -3.2647 N   0  0  0  0  0  0  0  0  0  0  0  0
   50.4220   -5.6086   -3.1275 C   0  0  0  0  0  0  0  0  0  0  0  0
   51.3656   -5.6413   -4.1374 N   0  0  0  0  0  0  0  0  0  0  0  0
   51.2054   -4.8317   -5.1903 C   0  0  0  0  0  0  0  0  0  0  0  0
   52.2192   -4.8277   -6.2527 C   0  0  0  0  0  0  0  0  0  0  0  0
   53.4726   -3.5246   -9.4102 C   0  0  0  0  0  0  0  0  0  0  0  0
   54.7731   -3.6644   -9.9491 N   0  0  0  0  0  0  0  0  0  0  0  0
   52.5938   -2.8338   -9.9809 O   0  0  0  0  0  0  0  0  0  0  0  0
   55.4959   -2.9192   -9.7808 H   0  0  0  0  0  0  0  0  0  0  0  0
   55.1153   -4.4587  -10.5243 H   0  0  0  0  0  0  0  0  0  0  0  0
   50.4372   -8.3881   -0.0972 O   0  0  0  0  0  0  0  0  0  0  0  0
   50.0508   -9.6541   -0.6063 C   0  0  0  0  0  0  0  0  0  0  0  0
   50.6777   -9.8191   -1.8270 F   0  0  0  0  0  0  0  0  0  0  0  0
   50.5481  -10.6793    0.1959 F   0  0  0  0  0  0  0  0  0  0  0  0
   48.6963   -9.8027   -0.6558 F   0  0  0  0  0  0  0  0  0  0  0  0
 24 25  1  0  0  0
 25 26  1  0  0  0
 26 27  2  0  0  0
 27 38  1  0  0  0
 38 39  1  0  0  0
 38 40  2  0  0  0
 27 28  1  0  0  0
 28 29  1  0  0  0
 29 30  1  0  0  0
 30 31  1  0  0  0
 31 32  2  0  0  0
 32 33  1  0  0  0
 33 34  2  0  0  0
 34 22  1  0  0  0
 22  1  1  0  0  0
  1  2  2  0  0  0
  2  3  1  0  0  0
  3  4  2  0  0  0
  4  5  1  0  0  0
  5  6  2  0  0  0
  6 43  1  0  0  0
 43 44  1  0  0  0
 44 45  1  0  0  0
 44 46  1  0  0  0
 44 47  1  0  0  0
  3  7  1  0  0  0
  7  8  1  0  0  0
  8  9  1  0  0  0
  9 10  1  0  0  0
 10 11  1  0  0  0
 11 12  1  0  0  0
 10 13  1  0  0  0
 13 14  2  0  0  0
 13 15  1  0  0  0
 15 16  1  0  0  0
 16 17  1  0  0  0
 17 18  1  0  0  0
 18 19  1  0  0  0
 19 20  1  0  0  0
 34 35  1  0  0  0
 35 36  2  0  0  0
 36 37  1  0  0  0
 37 25  1  0  0  0
 37 28  2  0  0  0
 36 31  1  0  0  0
  6  1  1  0  0  0
 12  7  1  0  0  0
 20 15  1  0  0  0
 39 41  1  0  0  0
 39 42  1  0  0  0
 22 23  1  0  0  0
 18 21  1  0  0  0
M  END
> <minimizedAffinity>
-11.70942

> <CNNscore>
0.1852731556

> <CNNaffinity>
7.3158807755

> <CNN_VS>
1.3554363251

> <CNNaffinity_variance>
0.1401897222

$$$$
[H]c1nc(N([H])c2c([H])c(N3C([H])([H])C([H])([H])N(C(=O)N4C([H])([H])C([H])([H])N([H])C([H])([H])C4([H])[H])C([H])([H])C3([H])[H])c([H])c([H])c2OC(F)(F)F)nc2c1C([H])([H])C([H])([H])c1c(C(=O)N([H])[H])nn(C([H])([H])[H])c1-2


 47 52  0  0  0  0  0  0  0  0999 V2000
   57.1271   -4.2083  -10.7492 C   0  0  0  0  0  0  0  0  0  0  0  0
   58.3741   -4.7800  -10.7697 C   0  0  0  0  0  0  0  0  0  0  0  0
   58.9377   -5.4212   -9.6481 C   0  0  0  0  0  0  0  0  0  0  0  0
   58.2303   -5.4936   -8.4672 C   0  0  0  0  0  0  0  0  0  0  0  0
   56.9949   -4.9211   -8.4583 C   0  0  0  0  0  0  0  0  0  0  0  0
   56.4230   -4.2911   -9.5265 C   0  0  0  0  0  0  0  0  0  0  0  0
   60.2481   -5.9582   -9.7122 N   0  0  0  0  0  0  0  0  0  0  0  0
   61.0070   -6.2607   -8.4781 C   0  0  0  0  0  0  0  0  0  0  0  0
   61.4948   -7.7163   -8.5590 C   0  0  0  0  0  0  0  0  0  0  0  0
   62.0821   -7.9832   -9.8330 N   0  0  0  0  0  0  0  0  0  0  0  0
   62.3241   -6.7908  -10.6762 C   0  0  0  0  0  0  0  0  0  0  0  0
   60.9244   -6.2220  -10.9501 C   0  0  0  0  0  0  0  0  0  0  0  0
   62.4202   -9.2428  -10.3214 C   0  0  0  0  0  0  0  0  0  0  0  0
   62.9888   -9.2739  -11.4984 O   0  0  0  0  0  0  0  0  0  0  0  0
   62.2498  -10.5132   -9.7492 N   0  0  0  0  0  0  0  0  0  0  0  0
   61.6337  -10.7948   -8.4812 C   0  0  0  0  0  0  0  0  0  0  0  0
   61.7628  -12.2794   -8.1612 C   0  0  0  0  0  0  0  0  0  0  0  0
   63.1050  -12.7834   -8.2801 N   0  0  0  0  0  0  0  0  0  0  0  0
   63.7199  -12.4185   -9.5387 C   0  0  0  0  0  0  0  0  0  0  0  0
   62.7336  -11.7184  -10.4589 C   0  0  0  0  0  0  0  0  0  0  0  0
   63.7117  -12.5686   -7.4615 H   0  0  0  0  0  0  0  0  0  0  0  0
   56.5102   -3.6273  -11.8639 N   0  0  0  0  0  0  0  0  0  0  0  0
   55.6681   -2.9681  -11.6364 H   0  0  0  0  0  0  0  0  0  0  0  0
   60.8829   -2.6431  -13.5098 C   0  0  0  0  0  0  0  0  0  0  0  0
   60.7488   -2.8611  -14.9287 N   0  0  0  0  0  0  0  0  0  0  0  0
   61.6895   -2.6956  -15.8404 N   0  0  0  0  0  0  0  0  0  0  0  0
   61.1970   -2.9935  -17.0559 C   0  0  0  0  0  0  0  0  0  0  0  0
   59.8614   -3.3687  -16.8796 C   0  0  0  0  0  0  0  0  0  0  0  0
   58.8671   -3.7714  -17.8738 C   0  0  0  0  0  0  0  0  0  0  0  0
   57.5519   -4.2102  -17.3554 C   0  0  0  0  0  0  0  0  0  0  0  0
   57.3184   -4.0259  -15.9198 C   0  0  0  0  0  0  0  0  0  0  0  0
   56.0362   -4.3178  -15.4336 C   0  0  0  0  0  0  0  0  0  0  0  0
   55.8676   -4.1661  -14.1115 N   0  0  0  0  0  0  0  0  0  0  0  0
   56.7733   -3.7747  -13.2361 C   0  0  0  0  0  0  0  0  0  0  0  0
   58.0394   -3.4865  -13.7107 N   0  0  0  0  0  0  0  0  0  0  0  0
   58.2774   -3.6165  -15.0207 C   0  0  0  0  0  0  0  0  0  0  0  0
   59.6066   -3.2776  -15.5452 C   0  0  0  0  0  0  0  0  0  0  0  0
   61.8953   -2.9358  -18.3531 C   0  0  0  0  0  0  0  0  0  0  0  0
   62.3835   -4.1580  -18.8716 N   0  0  0  0  0  0  0  0  0  0  0  0
   62.0503   -1.8514  -18.9658 O   0  0  0  0  0  0  0  0  0  0  0  0
   63.3917   -4.4236  -18.7333 H   0  0  0  0  0  0  0  0  0  0  0  0
   61.8335   -4.8606  -19.4034 H   0  0  0  0  0  0  0  0  0  0  0  0
   55.1704   -3.7066   -9.4847 O   0  0  0  0  0  0  0  0  0  0  0  0
   54.1691   -4.1158   -8.5675 C   0  0  0  0  0  0  0  0  0  0  0  0
   54.4644   -3.5393   -7.3466 F   0  0  0  0  0  0  0  0  0  0  0  0
   52.9297   -3.5883   -8.9250 F   0  0  0  0  0  0  0  0  0  0  0  0
   54.0310   -5.4715   -8.5200 F   0  0  0  0  0  0  0  0  0  0  0  0
 24 25  1  0  0  0
 25 26  1  0  0  0
 26 27  2  0  0  0
 27 38  1  0  0  0
 38 39  1  0  0  0
 38 40  2  0  0  0
 27 28  1  0  0  0
 28 29  1  0  0  0
 29 30  1  0  0  0
 30 31  1  0  0  0
 31 32  2  0  0  0
 32 33  1  0  0  0
 33 34  2  0  0  0
 34 22  1  0  0  0
 22  1  1  0  0  0
  1  2  2  0  0  0
  2  3  1  0  0  0
  3  4  2  0  0  0
  4  5  1  0  0  0
  5  6  2  0  0  0
  6 43  1  0  0  0
 43 44  1  0  0  0
 44 45  1  0  0  0
 44 46  1  0  0  0
 44 47  1  0  0  0
  3  7  1  0  0  0
  7  8  1  0  0  0
  8  9  1  0  0  0
  9 10  1  0  0  0
 10 11  1  0  0  0
 11 12  1  0  0  0
 10 13  1  0  0  0
 13 14  2  0  0  0
 13 15  1  0  0  0
 15 16  1  0  0  0
 16 17  1  0  0  0
 17 18  1  0  0  0
 18 19  1  0  0  0
 19 20  1  0  0  0
 34 35  1  0  0  0
 35 36  2  0  0  0
 36 37  1  0  0  0
 37 25  1  0  0  0
 37 28  2  0  0  0
 36 31  1  0  0  0
  6  1  1  0  0  0
 12  7  1  0  0  0
 20 15  1  0  0  0
 39 41  1  0  0  0
 39 42  1  0  0  0
 22 23  1  0  0  0
 18 21  1  0  0  0
M  END
> <minimizedAffinity>
-7.08422

> <CNNscore>
0.1604588032

> <CNNaffinity>
6.0113005638

> <CNN_VS>
0.9645661116

> <CNNaffinity_variance>
0.6247264147

$$$$
[H]c1nc(N([H])c2c([H])c(N3C([H])([H])C([H])([H])N(C(=O)N4C([H])([H])C([H])([H])N([H])C([H])([H])C4([H])[H])C([H])([H])C3([H])[H])c([H])c([H])c2OC(F)(F)F)nc2c1C([H])([H])C([H])([H])c1c(C(=O)N([H])[H])nn(C([H])([H])[H])c1-2


 47 52  0  0  0  0  0  0  0  0999 V2000
   58.0087   -4.9672   -8.5747 C   0  0  0  0  0  0  0  0  0  0  0  0
   59.1691   -5.4740   -8.0465 C   0  0  0  0  0  0  0  0  0  0  0  0
   60.1514   -6.1092   -8.8328 C   0  0  0  0  0  0  0  0  0  0  0  0
   59.9673   -6.2412  -10.1925 C   0  0  0  0  0  0  0  0  0  0  0  0
   58.8113   -5.7362  -10.7050 C   0  0  0  0  0  0  0  0  0  0  0  0
   57.8403   -5.1182   -9.9698 C   0  0  0  0  0  0  0  0  0  0  0  0
   61.3130   -6.6526   -8.2285 N   0  0  0  0  0  0  0  0  0  0  0  0
   61.2121   -7.5343   -7.0440 C   0  0  0  0  0  0  0  0  0  0  0  0
   61.9892   -8.8271   -7.3403 C   0  0  0  0  0  0  0  0  0  0  0  0
   63.2720   -8.5311   -7.8937 N   0  0  0  0  0  0  0  0  0  0  0  0
   63.6720   -7.1074   -7.8279 C   0  0  0  0  0  0  0  0  0  0  0  0
   62.6402   -6.3766   -8.6991 C   0  0  0  0  0  0  0  0  0  0  0  0
   64.1349   -9.4547   -8.4784 C   0  0  0  0  0  0  0  0  0  0  0  0
   65.2863   -8.9916   -8.8896 O   0  0  0  0  0  0  0  0  0  0  0  0
   63.9727  -10.8305   -8.7048 N   0  0  0  0  0  0  0  0  0  0  0  0
   62.8073  -11.6094   -8.3854 C   0  0  0  0  0  0  0  0  0  0  0  0
   63.0773  -13.0833   -8.6643 C   0  0  0  0  0  0  0  0  0  0  0  0
   64.2880  -13.5748   -8.0623 N   0  0  0  0  0  0  0  0  0  0  0  0
   65.4261  -12.7260   -8.3443 C   0  0  0  0  0  0  0  0  0  0  0  0
   65.0665  -11.6162   -9.3183 C   0  0  0  0  0  0  0  0  0  0  0  0
   64.1965  -13.7977   -7.0493 H   0  0  0  0  0  0  0  0  0  0  0  0
   57.0472   -4.2688   -7.8341 N   0  0  0  0  0  0  0  0  0  0  0  0
   57.3910   -3.3255   -7.4012 H   0  0  0  0  0  0  0  0  0  0  0  0
   55.9538   -5.6047   -3.3823 C   0  0  0  0  0  0  0  0  0  0  0  0
   54.5442   -5.8937   -3.4706 N   0  0  0  0  0  0  0  0  0  0  0  0
   53.7699   -6.3299   -2.4940 N   0  0  0  0  0  0  0  0  0  0  0  0
   52.5142   -6.4866   -2.9497 C   0  0  0  0  0  0  0  0  0  0  0  0
   52.5162   -6.1211   -4.2995 C   0  0  0  0  0  0  0  0  0  0  0  0
   51.4192   -6.1209   -5.2669 C   0  0  0  0  0  0  0  0  0  0  0  0
   51.7206   -5.5772   -6.6103 C   0  0  0  0  0  0  0  0  0  0  0  0
   53.1252   -5.2637   -6.8906 C   0  0  0  0  0  0  0  0  0  0  0  0
   53.4480   -4.8677   -8.1962 C   0  0  0  0  0  0  0  0  0  0  0  0
   54.7364   -4.5605   -8.4085 N   0  0  0  0  0  0  0  0  0  0  0  0
   55.7157   -4.5940   -7.5255 C   0  0  0  0  0  0  0  0  0  0  0  0
   55.4021   -4.9831   -6.2365 N   0  0  0  0  0  0  0  0  0  0  0  0
   54.1343   -5.3041   -5.9548 C   0  0  0  0  0  0  0  0  0  0  0  0
   53.7930   -5.7558   -4.5998 C   0  0  0  0  0  0  0  0  0  0  0  0
   51.3350   -6.9630   -2.2040 C   0  0  0  0  0  0  0  0  0  0  0  0
   51.3888   -8.2827   -1.6974 N   0  0  0  0  0  0  0  0  0  0  0  0
   50.3305   -6.2310   -2.0299 O   0  0  0  0  0  0  0  0  0  0  0  0
   50.9383   -9.0700   -2.2298 H   0  0  0  0  0  0  0  0  0  0  0  0
   51.8439   -8.5808   -0.8126 H   0  0  0  0  0  0  0  0  0  0  0  0
   56.6691   -4.6259  -10.5158 O   0  0  0  0  0  0  0  0  0  0  0  0
   56.6360   -3.9427  -11.7581 C   0  0  0  0  0  0  0  0  0  0  0  0
   57.5649   -2.9213  -11.6945 F   0  0  0  0  0  0  0  0  0  0  0  0
   57.0806   -4.7710  -12.7868 F   0  0  0  0  0  0  0  0  0  0  0  0
   55.3801   -3.5280  -12.0896 F   0  0  0  0  0  0  0  0  0  0  0  0
 24 25  1  0  0  0
 25 26  1  0  0  0
 26 27  2  0  0  0
 27 38  1  0  0  0
 38 39  1  0  0  0
 38 40  2  0  0  0
 27 28  1  0  0  0
 28 29  1  0  0  0
 29 30  1  0  0  0
 30 31  1  0  0  0
 31 32  2  0  0  0
 32 33  1  0  0  0
 33 34  2  0  0  0
 34 22  1  0  0  0
 22  1  1  0  0  0
  1  2  2  0  0  0
  2  3  1  0  0  0
  3  4  2  0  0  0
  4  5  1  0  0  0
  5  6  2  0  0  0
  6 43  1  0  0  0
 43 44  1  0  0  0
 44 45  1  0  0  0
 44 46  1  0  0  0
 44 47  1  0  0  0
  3  7  1  0  0  0
  7  8  1  0  0  0
  8  9  1  0  0  0
  9 10  1  0  0  0
 10 11  1  0  0  0
 11 12  1  0  0  0
 10 13  1  0  0  0
 13 14  2  0  0  0
 13 15  1  0  0  0
 15 16  1  0  0  0
 16 17  1  0  0  0
 17 18  1  0  0  0
 18 19  1  0  0  0
 19 20  1  0  0  0
 34 35  1  0  0  0
 35 36  2  0  0  0
 36 37  1  0  0  0
 37 25  1  0  0  0
 37 28  2  0  0  0
 36 31  1  0  0  0
  6  1  1  0  0  0
 12  7  1  0  0  0
 20 15  1  0  0  0
 39 41  1  0  0  0
 39 42  1  0  0  0
 22 23  1  0  0  0
 18 21  1  0  0  0
M  END
> <minimizedAffinity>
-8.09352

> <CNNscore>
0.1501135975

> <CNNaffinity>
6.7093901634

> <CNN_VS>
1.0071706772

> <CNNaffinity_variance>
0.0335085541

$$$$
[H]c1nc(N([H])c2c([H])c(N3C([H])([H])C([H])([H])N(C(=O)N4C([H])([H])C([H])([H])N([H])C([H])([H])C4([H])[H])C([H])([H])C3([H])[H])c([H])c([H])c2OC(F)(F)F)nc2c1C([H])([H])C([H])([H])c1c(C(=O)N([H])[H])nn(C([H])([H])[H])c1-2


 47 52  0  0  0  0  0  0  0  0999 V2000
   57.8438   -4.9073   -9.9437 C   0  0  0  0  0  0  0  0  0  0  0  0
   58.7654   -5.7385   -9.3588 C   0  0  0  0  0  0  0  0  0  0  0  0
   59.9925   -6.0669   -9.9696 C   0  0  0  0  0  0  0  0  0  0  0  0
   60.3086   -5.5461  -11.2061 C   0  0  0  0  0  0  0  0  0  0  0  0
   59.3856   -4.7242  -11.7776 C   0  0  0  0  0  0  0  0  0  0  0  0
   58.1881   -4.3894  -11.2129 C   0  0  0  0  0  0  0  0  0  0  0  0
   60.8900   -6.9649   -9.3389 N   0  0  0  0  0  0  0  0  0  0  0  0
   61.9027   -6.4768   -8.3761 C   0  0  0  0  0  0  0  0  0  0  0  0
   61.7652   -7.2920   -7.0802 C   0  0  0  0  0  0  0  0  0  0  0  0
   61.6783   -8.6882   -7.3672 N   0  0  0  0  0  0  0  0  0  0  0  0
   61.9862   -9.0630   -8.7658 C   0  0  0  0  0  0  0  0  0  0  0  0
   60.8938   -8.3763   -9.5982 C   0  0  0  0  0  0  0  0  0  0  0  0
   61.3267   -9.6821   -6.4573 C   0  0  0  0  0  0  0  0  0  0  0  0
   61.3457  -10.9102   -6.9053 O   0  0  0  0  0  0  0  0  0  0  0  0
   60.9474   -9.5847   -5.1093 N   0  0  0  0  0  0  0  0  0  0  0  0
   60.8111   -8.3691   -4.3540 C   0  0  0  0  0  0  0  0  0  0  0  0
   60.5126   -8.6965   -2.8956 C   0  0  0  0  0  0  0  0  0  0  0  0
   61.4279   -9.6423   -2.3148 N   0  0  0  0  0  0  0  0  0  0  0  0
   61.5966  -10.8209   -3.1381 C   0  0  0  0  0  0  0  0  0  0  0  0
   60.6539  -10.8081   -4.3301 C   0  0  0  0  0  0  0  0  0  0  0  0
   62.3362   -9.2264   -2.0209 H   0  0  0  0  0  0  0  0  0  0  0  0
   56.6492   -4.5051   -9.3340 N   0  0  0  0  0  0  0  0  0  0  0  0
   56.1421   -3.6657   -9.8174 H   0  0  0  0  0  0  0  0  0  0  0  0
   52.1146   -3.2511   -8.5199 C   0  0  0  0  0  0  0  0  0  0  0  0
   51.8301   -3.8787   -7.2535 N   0  0  0  0  0  0  0  0  0  0  0  0
   50.6963   -3.8089   -6.5802 N   0  0  0  0  0  0  0  0  0  0  0  0
   50.8024   -4.5193   -5.4433 C   0  0  0  0  0  0  0  0  0  0  0  0
   52.0900   -5.0642   -5.4154 C   0  0  0  0  0  0  0  0  0  0  0  0
   52.7261   -5.9019   -4.3991 C   0  0  0  0  0  0  0  0  0  0  0  0
   54.0821   -6.4071   -4.7108 C   0  0  0  0  0  0  0  0  0  0  0  0
   54.7193   -5.8728   -5.9183 C   0  0  0  0  0  0  0  0  0  0  0  0
   56.0497   -6.2426   -6.1613 C   0  0  0  0  0  0  0  0  0  0  0  0
   56.5903   -5.7591   -7.2898 N   0  0  0  0  0  0  0  0  0  0  0  0
   56.0049   -4.9815   -8.1800 C   0  0  0  0  0  0  0  0  0  0  0  0
   54.6928   -4.6149   -7.9450 N   0  0  0  0  0  0  0  0  0  0  0  0
   54.0914   -5.0619   -6.8369 C   0  0  0  0  0  0  0  0  0  0  0  0
   52.7103   -4.6500   -6.5546 C   0  0  0  0  0  0  0  0  0  0  0  0
   49.7833   -4.7029   -4.3938 C   0  0  0  0  0  0  0  0  0  0  0  0
   48.9047   -3.6194   -4.1589 N   0  0  0  0  0  0  0  0  0  0  0  0
   49.7023   -5.7706   -3.7390 O   0  0  0  0  0  0  0  0  0  0  0  0
   49.0947   -2.9483   -3.3718 H   0  0  0  0  0  0  0  0  0  0  0  0
   48.0465   -3.3984   -4.7009 H   0  0  0  0  0  0  0  0  0  0  0  0
   57.2634   -3.5616  -11.8229 O   0  0  0  0  0  0  0  0  0  0  0  0
   56.7878   -3.7904  -13.1392 C   0  0  0  0  0  0  0  0  0  0  0  0
   56.4484   -5.1270  -13.2311 F   0  0  0  0  0  0  0  0  0  0  0  0
   55.5973   -3.1000  -13.3588 F   0  0  0  0  0  0  0  0  0  0  0  0
   57.6735   -3.3781  -14.0905 F   0  0  0  0  0  0  0  0  0  0  0  0
 24 25  1  0  0  0
 25 26  1  0  0  0
 26 27  2  0  0  0
 27 38  1  0  0  0
 38 39  1  0  0  0
 38 40  2  0  0  0
 27 28  1  0  0  0
 28 29  1  0  0  0
 29 30  1  0  0  0
 30 31  1  0  0  0
 31 32  2  0  0  0
 32 33  1  0  0  0
 33 34  2  0  0  0
 34 22  1  0  0  0
 22  1  1  0  0  0
  1  2  2  0  0  0
  2  3  1  0  0  0
  3  4  2  0  0  0
  4  5  1  0  0  0
  5  6  2  0  0  0
  6 43  1  0  0  0
 43 44  1  0  0  0
 44 45  1  0  0  0
 44 46  1  0  0  0
 44 47  1  0  0  0
  3  7  1  0  0  0
  7  8  1  0  0  0
  8  9  1  0  0  0
  9 10  1  0  0  0
 10 11  1  0  0  0
 11 12  1  0  0  0
 10 13  1  0  0  0
 13 14  2  0  0  0
 13 15  1  0  0  0
 15 16  1  0  0  0
 16 17  1  0  0  0
 17 18  1  0  0  0
 18 19  1  0  0  0
 19 20  1  0  0  0
 34 35  1  0  0  0
 35 36  2  0  0  0
 36 37  1  0  0  0
 37 25  1  0  0  0
 37 28  2  0  0  0
 36 31  1  0  0  0
  6  1  1  0  0  0
 12  7  1  0  0  0
 20 15  1  0  0  0
 39 41  1  0  0  0
 39 42  1  0  0  0
 22 23  1  0  0  0
 18 21  1  0  0  0
M  END
> <minimizedAffinity>
-8.34594

> <CNNscore>
0.1389911324

> <CNNaffinity>
6.8452568054

> <CNN_VS>
0.9514300227

> <CNNaffinity_variance>
0.2773008943

$$$$
[H]c1nc(N([H])c2c([H])c(N3C([H])([H])C([H])([H])N(C(=O)N4C([H])([H])C([H])([H])N([H])C([H])([H])C4([H])[H])C([H])([H])C3([H])[H])c([H])c([H])c2OC(F)(F)F)nc2c1C([H])([H])C([H])([H])c1c(C(=O)N([H])[H])nn(C([H])([H])[H])c1-2


 47 52  0  0  0  0  0  0  0  0999 V2000
   52.2234   -5.3837   -5.0110 C   0  0  0  0  0  0  0  0  0  0  0  0
   52.9225   -5.8006   -3.9066 C   0  0  0  0  0  0  0  0  0  0  0  0
   52.3212   -5.9727   -2.6434 C   0  0  0  0  0  0  0  0  0  0  0  0
   50.9761   -5.7200   -2.4797 C   0  0  0  0  0  0  0  0  0  0  0  0
   50.2931   -5.3050   -3.5822 C   0  0  0  0  0  0  0  0  0  0  0  0
   50.8471   -5.1266   -4.8176 C   0  0  0  0  0  0  0  0  0  0  0  0
   53.1000   -6.3652   -1.5258 N   0  0  0  0  0  0  0  0  0  0  0  0
   53.6993   -7.7166   -1.4537 C   0  0  0  0  0  0  0  0  0  0  0  0
   55.2021   -7.5609   -1.1703 C   0  0  0  0  0  0  0  0  0  0  0  0
   55.4233   -6.6322   -0.1082 N   0  0  0  0  0  0  0  0  0  0  0  0
   54.2100   -6.2294    0.6379 C   0  0  0  0  0  0  0  0  0  0  0  0
   53.3407   -5.5069   -0.4013 C   0  0  0  0  0  0  0  0  0  0  0  0
   56.6554   -6.0924    0.2525 C   0  0  0  0  0  0  0  0  0  0  0  0
   56.6558   -5.2887    1.2837 O   0  0  0  0  0  0  0  0  0  0  0  0
   57.9257   -6.2709   -0.3176 N   0  0  0  0  0  0  0  0  0  0  0  0
   58.2308   -7.0722   -1.4715 C   0  0  0  0  0  0  0  0  0  0  0  0
   59.7387   -7.1122   -1.6900 C   0  0  0  0  0  0  0  0  0  0  0  0
   60.4851   -7.4766   -0.5154 N   0  0  0  0  0  0  0  0  0  0  0  0
   60.0999   -6.6997    0.6437 C   0  0  0  0  0  0  0  0  0  0  0  0
   59.1071   -5.6085    0.2789 C   0  0  0  0  0  0  0  0  0  0  0  0
   60.4998   -8.5000   -0.3240 H   0  0  0  0  0  0  0  0  0  0  0  0
   52.7739   -5.2712   -6.2936 N   0  0  0  0  0  0  0  0  0  0  0  0
   52.0471   -5.1400   -7.0998 H   0  0  0  0  0  0  0  0  0  0  0  0
   53.8674   -3.7484  -10.6848 C   0  0  0  0  0  0  0  0  0  0  0  0
   55.2830   -4.0076  -10.7716 N   0  0  0  0  0  0  0  0  0  0  0  0
   56.0600   -3.7797  -11.8146 N   0  0  0  0  0  0  0  0  0  0  0  0
   57.3211   -4.1478  -11.5266 C   0  0  0  0  0  0  0  0  0  0  0  0
   57.3198   -4.6354  -10.2159 C   0  0  0  0  0  0  0  0  0  0  0  0
   58.4221   -5.1765   -9.4214 C   0  0  0  0  0  0  0  0  0  0  0  0
   58.1179   -5.5211   -8.0143 C   0  0  0  0  0  0  0  0  0  0  0  0
   56.7091   -5.4562   -7.6134 C   0  0  0  0  0  0  0  0  0  0  0  0
   56.3862   -5.8994   -6.3231 C   0  0  0  0  0  0  0  0  0  0  0  0
   55.0932   -5.7978   -5.9804 N   0  0  0  0  0  0  0  0  0  0  0  0
   54.1097   -5.3306   -6.7247 C   0  0  0  0  0  0  0  0  0  0  0  0
   54.4234   -4.8917   -7.9976 N   0  0  0  0  0  0  0  0  0  0  0  0
   55.6956   -4.9645   -8.4049 C   0  0  0  0  0  0  0  0  0  0  0  0
   56.0378   -4.5375   -9.7677 C   0  0  0  0  0  0  0  0  0  0  0  0
   58.5051   -4.0790  -12.4024 C   0  0  0  0  0  0  0  0  0  0  0  0
   58.3895   -3.2944  -13.5738 N   0  0  0  0  0  0  0  0  0  0  0  0
   59.5643   -4.6906  -12.1211 O   0  0  0  0  0  0  0  0  0  0  0  0
   58.1655   -3.7517  -14.4940 H   0  0  0  0  0  0  0  0  0  0  0  0
   58.5084   -2.2643  -13.6349 H   0  0  0  0  0  0  0  0  0  0  0  0
   50.1311   -4.6912   -5.9176 O   0  0  0  0  0  0  0  0  0  0  0  0
   49.8453   -3.3211   -6.1469 C   0  0  0  0  0  0  0  0  0  0  0  0
   51.0100   -2.7230   -6.5896 F   0  0  0  0  0  0  0  0  0  0  0  0
   48.9431   -3.1764   -7.1990 F   0  0  0  0  0  0  0  0  0  0  0  0
   49.2929   -2.7163   -5.0568 F   0  0  0  0  0  0  0  0  0  0  0  0
 24 25  1  0  0  0
 25 26  1  0  0  0
 26 27  2  0  0  0
 27 38  1  0  0  0
 38 39  1  0  0  0
 38 40  2  0  0  0
 27 28  1  0  0  0
 28 29  1  0  0  0
 29 30  1  0  0  0
 30 31  1  0  0  0
 31 32  2  0  0  0
 32 33  1  0  0  0
 33 34  2  0  0  0
 34 22  1  0  0  0
 22  1  1  0  0  0
  1  2  2  0  0  0
  2  3  1  0  0  0
  3  4  2  0  0  0
  4  5  1  0  0  0
  5  6  2  0  0  0
  6 43  1  0  0  0
 43 44  1  0  0  0
 44 45  1  0  0  0
 44 46  1  0  0  0
 44 47  1  0  0  0
  3  7  1  0  0  0
  7  8  1  0  0  0
  8  9  1  0  0  0
  9 10  1  0  0  0
 10 11  1  0  0  0
 11 12  1  0  0  0
 10 13  1  0  0  0
 13 14  2  0  0  0
 13 15  1  0  0  0
 15 16  1  0  0  0
 16 17  1  0  0  0
 17 18  1  0  0  0
 18 19  1  0  0  0
 19 20  1  0  0  0
 34 35  1  0  0  0
 35 36  2  0  0  0
 36 37  1  0  0  0
 37 25  1  0  0  0
 37 28  2  0  0  0
 36 31  1  0  0  0
  6  1  1  0  0  0
 12  7  1  0  0  0
 20 15  1  0  0  0
 39 41  1  0  0  0
 39 42  1  0  0  0
 22 23  1  0  0  0
 18 21  1  0  0  0
M  END
> <minimizedAffinity>
-11.22897

> <CNNscore>
0.1267488152

> <CNNaffinity>
7.3217263222

> <CNN_VS>
0.9280201197

> <CNNaffinity_variance>
0.1588647962

$$$$
[H]c1c([H])c(-c2nc(C([H])([H])[H])c3c([H])nc(N([H])c4c([H])c(OC([H])([H])[H])c(OC([H])([H])[H])c(OC([H])([H])[H])c4[H])nn23)c([H])c(C(F)(F)F)c1[H]


 34 37  0  0  0  0  0  0  0  0999 V2000
   52.9595   -3.3379   -8.7014 C   0  0  0  0  0  0  0  0  0  0  0  0
   53.3929   -3.2972   -9.9807 N   0  0  0  0  0  0  0  0  0  0  0  0
   54.6015   -3.7007  -10.3602 C   0  0  0  0  0  0  0  0  0  0  0  0
   55.4266   -4.1781   -9.3447 C   0  0  0  0  0  0  0  0  0  0  0  0
   56.7083   -4.6404   -9.3416 C   0  0  0  0  0  0  0  0  0  0  0  0
   57.5698   -4.7784  -10.5307 C   0  0  0  0  0  0  0  0  0  0  0  0
   57.0128   -4.9358   -8.0770 N   0  0  0  0  0  0  0  0  0  0  0  0
   55.9761   -4.6889   -7.2589 C   0  0  0  0  0  0  0  0  0  0  0  0
   54.9933   -4.2165   -8.0695 N   0  0  0  0  0  0  0  0  0  0  0  0
   53.7751   -3.8013   -7.7636 N   0  0  0  0  0  0  0  0  0  0  0  0
   55.9645   -4.9526   -5.8166 C   0  0  0  0  0  0  0  0  0  0  0  0
   56.2077   -4.0266   -4.8553 C   0  0  0  0  0  0  0  0  0  0  0  0
   56.2007   -4.3064   -3.5095 C   0  0  0  0  0  0  0  0  0  0  0  0
   55.9263   -5.6558   -3.1185 C   0  0  0  0  0  0  0  0  0  0  0  0
   55.6742   -6.5934   -4.0668 C   0  0  0  0  0  0  0  0  0  0  0  0
   55.7023   -6.2448   -5.3845 C   0  0  0  0  0  0  0  0  0  0  0  0
   55.4385   -7.9877   -3.6504 C   0  0  0  0  0  0  0  0  0  0  0  0
   56.5543   -8.5841   -3.1003 F   0  0  0  0  0  0  0  0  0  0  0  0
   54.9502   -8.7699   -4.6534 F   0  0  0  0  0  0  0  0  0  0  0  0
   54.4384   -8.0492   -2.6323 F   0  0  0  0  0  0  0  0  0  0  0  0
   51.6356   -2.8562   -8.3957 N   0  0  0  0  0  0  0  0  0  0  0  0
   51.1332   -2.1671   -9.0103 H   0  0  0  0  0  0  0  0  0  0  0  0
   50.5582   -5.0319   -5.6003 C   0  0  0  0  0  0  0  0  0  0  0  0
   51.1762   -4.5391   -6.7125 C   0  0  0  0  0  0  0  0  0  0  0  0
   50.9461   -3.2768   -7.2385 C   0  0  0  0  0  0  0  0  0  0  0  0
   50.0225   -2.5088   -6.5516 C   0  0  0  0  0  0  0  0  0  0  0  0
   49.3676   -2.9352   -5.4422 C   0  0  0  0  0  0  0  0  0  0  0  0
   49.6347   -4.1994   -4.9449 C   0  0  0  0  0  0  0  0  0  0  0  0
   52.1076   -6.6250   -4.5879 C   0  0  0  0  0  0  0  0  0  0  0  0
   50.8254   -6.3196   -5.1136 O   0  0  0  0  0  0  0  0  0  0  0  0
   48.4379   -2.2190   -4.7201 O   0  0  0  0  0  0  0  0  0  0  0  0
   47.1254   -2.6987   -4.5714 C   0  0  0  0  0  0  0  0  0  0  0  0
   49.0483   -4.7494   -3.8273 O   0  0  0  0  0  0  0  0  0  0  0  0
   49.7748   -5.0863   -2.6291 C   0  0  0  0  0  0  0  0  0  0  0  0
 29 30  1  0  0  0
 30 23  1  0  0  0
 23 24  2  0  0  0
 24 25  1  0  0  0
 25 21  1  0  0  0
 21  1  1  0  0  0
  1  2  1  0  0  0
  2  3  2  0  0  0
  3  4  1  0  0  0
  4  5  2  0  0  0
  5  6  1  0  0  0
  5  7  1  0  0  0
  7  8  2  0  0  0
  8 11  1  0  0  0
 11 12  2  0  0  0
 12 13  1  0  0  0
 13 14  2  0  0  0
 14 15  1  0  0  0
 15 16  2  0  0  0
 15 17  1  0  0  0
 17 18  1  0  0  0
 17 19  1  0  0  0
 17 20  1  0  0  0
  8  9  1  0  0  0
  9 10  1  0  0  0
 25 26  2  0  0  0
 26 27  1  0  0  0
 27 31  1  0  0  0
 31 32  1  0  0  0
 27 28  2  0  0  0
 28 33  1  0  0  0
 33 34  1  0  0  0
 28 23  1  0  0  0
 10  1  2  0  0  0
  9  4  1  0  0  0
 16 11  1  0  0  0
 21 22  1  0  0  0
M  END
> <minimizedAffinity>
-8.75747

> <CNNscore>
0.9227530360

> <CNNaffinity>
7.9580488205

> <CNN_VS>
7.3433136940

> <CNNaffinity_variance>
0.1498967111

$$$$
[H]c1c([H])c(-c2nc(C([H])([H])[H])c3c([H])nc(N([H])c4c([H])c(OC([H])([H])[H])c(OC([H])([H])[H])c(OC([H])([H])[H])c4[H])nn23)c([H])c(C(F)(F)F)c1[H]


 34 37  0  0  0  0  0  0  0  0999 V2000
   52.6004   -3.3961   -8.5878 C   0  0  0  0  0  0  0  0  0  0  0  0
   51.4382   -2.7090   -8.5311 N   0  0  0  0  0  0  0  0  0  0  0  0
   50.5488   -2.8493   -7.5528 C   0  0  0  0  0  0  0  0  0  0  0  0
   50.8801   -3.7693   -6.5611 C   0  0  0  0  0  0  0  0  0  0  0  0
   50.2249   -4.1945   -5.4447 C   0  0  0  0  0  0  0  0  0  0  0  0
   48.9131   -3.7023   -4.9842 C   0  0  0  0  0  0  0  0  0  0  0  0
   50.9947   -5.1199   -4.8700 N   0  0  0  0  0  0  0  0  0  0  0  0
   52.1278   -5.3081   -5.5668 C   0  0  0  0  0  0  0  0  0  0  0  0
   52.0387   -4.4545   -6.6202 N   0  0  0  0  0  0  0  0  0  0  0  0
   52.8800   -4.2619   -7.6227 N   0  0  0  0  0  0  0  0  0  0  0  0
   53.2098   -6.2183   -5.1787 C   0  0  0  0  0  0  0  0  0  0  0  0
   54.0145   -6.8832   -6.0452 C   0  0  0  0  0  0  0  0  0  0  0  0
   55.0148   -7.7397   -5.6512 C   0  0  0  0  0  0  0  0  0  0  0  0
   55.1996   -7.9344   -4.2451 C   0  0  0  0  0  0  0  0  0  0  0  0
   54.4079   -7.2720   -3.3640 C   0  0  0  0  0  0  0  0  0  0  0  0
   53.4317   -6.4406   -3.8271 C   0  0  0  0  0  0  0  0  0  0  0  0
   54.5806   -7.5180   -1.9208 C   0  0  0  0  0  0  0  0  0  0  0  0
   53.5898   -8.3149   -1.3855 F   0  0  0  0  0  0  0  0  0  0  0  0
   54.6883   -6.3718   -1.1923 F   0  0  0  0  0  0  0  0  0  0  0  0
   55.8016   -8.2154   -1.6693 F   0  0  0  0  0  0  0  0  0  0  0  0
   53.4857   -3.1819   -9.7052 N   0  0  0  0  0  0  0  0  0  0  0  0
   53.1859   -2.6598  -10.5670 H   0  0  0  0  0  0  0  0  0  0  0  0
   56.7343   -4.3910  -11.0065 C   0  0  0  0  0  0  0  0  0  0  0  0
   55.4604   -3.9125  -10.9065 C   0  0  0  0  0  0  0  0  0  0  0  0
   54.8064   -3.6789   -9.7062 C   0  0  0  0  0  0  0  0  0  0  0  0
   55.5391   -3.9649   -8.5676 C   0  0  0  0  0  0  0  0  0  0  0  0
   56.8075   -4.4464   -8.5918 C   0  0  0  0  0  0  0  0  0  0  0  0
   57.4267   -4.6560   -9.8123 C   0  0  0  0  0  0  0  0  0  0  0  0
   56.6828   -4.2317  -13.4428 C   0  0  0  0  0  0  0  0  0  0  0  0
   57.3468   -4.6136  -12.2482 O   0  0  0  0  0  0  0  0  0  0  0  0
   57.5832   -4.7521   -7.4948 O   0  0  0  0  0  0  0  0  0  0  0  0
   57.0113   -5.3545   -6.3612 C   0  0  0  0  0  0  0  0  0  0  0  0
   58.7082   -5.1314   -9.9773 O   0  0  0  0  0  0  0  0  0  0  0  0
   59.0947   -6.4933   -9.7071 C   0  0  0  0  0  0  0  0  0  0  0  0
 29 30  1  0  0  0
 30 23  1  0  0  0
 23 24  2  0  0  0
 24 25  1  0  0  0
 25 21  1  0  0  0
 21  1  1  0  0  0
  1  2  1  0  0  0
  2  3  2  0  0  0
  3  4  1  0  0  0
  4  5  2  0  0  0
  5  6  1  0  0  0
  5  7  1  0  0  0
  7  8  2  0  0  0
  8 11  1  0  0  0
 11 12  2  0  0  0
 12 13  1  0  0  0
 13 14  2  0  0  0
 14 15  1  0  0  0
 15 16  2  0  0  0
 15 17  1  0  0  0
 17 18  1  0  0  0
 17 19  1  0  0  0
 17 20  1  0  0  0
  8  9  1  0  0  0
  9 10  1  0  0  0
 25 26  2  0  0  0
 26 27  1  0  0  0
 27 31  1  0  0  0
 31 32  1  0  0  0
 27 28  2  0  0  0
 28 33  1  0  0  0
 33 34  1  0  0  0
 28 23  1  0  0  0
 10  1  2  0  0  0
  9  4  1  0  0  0
 16 11  1  0  0  0
 21 22  1  0  0  0
M  END
> <minimizedAffinity>
-8.31326

> <CNNscore>
0.8989201188

> <CNNaffinity>
7.6833252907

> <CNN_VS>
6.9066958427

> <CNNaffinity_variance>
0.1157058328

$$$$
[H]c1c([H])c(-c2nc(C([H])([H])[H])c3c([H])nc(N([H])c4c([H])c(OC([H])([H])[H])c(OC([H])([H])[H])c(OC([H])([H])[H])c4[H])nn23)c([H])c(C(F)(F)F)c1[H]


 34 37  0  0  0  0  0  0  0  0999 V2000
   52.7549   -3.3730   -8.6205 C   0  0  0  0  0  0  0  0  0  0  0  0
   53.2061   -2.9535   -9.8232 N   0  0  0  0  0  0  0  0  0  0  0  0
   54.4085   -3.2559  -10.3032 C   0  0  0  0  0  0  0  0  0  0  0  0
   55.2072   -4.0462   -9.4804 C   0  0  0  0  0  0  0  0  0  0  0  0
   56.4762   -4.5243   -9.6140 C   0  0  0  0  0  0  0  0  0  0  0  0
   57.3493   -4.3150  -10.7841 C   0  0  0  0  0  0  0  0  0  0  0  0
   56.7560   -5.2030   -8.5004 N   0  0  0  0  0  0  0  0  0  0  0  0
   55.7155   -5.1896   -7.6506 C   0  0  0  0  0  0  0  0  0  0  0  0
   54.7563   -4.4623   -8.2808 N   0  0  0  0  0  0  0  0  0  0  0  0
   53.5456   -4.1259   -7.8673 N   0  0  0  0  0  0  0  0  0  0  0  0
   55.6780   -5.8836   -6.3596 C   0  0  0  0  0  0  0  0  0  0  0  0
   55.3412   -7.1864   -6.1871 C   0  0  0  0  0  0  0  0  0  0  0  0
   55.3042   -7.8075   -4.9614 C   0  0  0  0  0  0  0  0  0  0  0  0
   55.6360   -7.0195   -3.8133 C   0  0  0  0  0  0  0  0  0  0  0  0
   55.9818   -5.7163   -3.9683 C   0  0  0  0  0  0  0  0  0  0  0  0
   55.9926   -5.1650   -5.2151 C   0  0  0  0  0  0  0  0  0  0  0  0
   56.2763   -4.9063   -2.7724 C   0  0  0  0  0  0  0  0  0  0  0  0
   55.2279   -4.8629   -1.8766 F   0  0  0  0  0  0  0  0  0  0  0  0
   56.6752   -3.6382   -3.0704 F   0  0  0  0  0  0  0  0  0  0  0  0
   57.3718   -5.4616   -2.0428 F   0  0  0  0  0  0  0  0  0  0  0  0
   51.4403   -2.9702   -8.1873 N   0  0  0  0  0  0  0  0  0  0  0  0
   50.8651   -2.2681   -8.7175 H   0  0  0  0  0  0  0  0  0  0  0  0
   49.3050   -3.1675   -5.1689 C   0  0  0  0  0  0  0  0  0  0  0  0
   49.9193   -2.7480   -6.3128 C   0  0  0  0  0  0  0  0  0  0  0  0
   50.8591   -3.4908   -7.0114 C   0  0  0  0  0  0  0  0  0  0  0  0
   51.1546   -4.7300   -6.4710 C   0  0  0  0  0  0  0  0  0  0  0  0
   50.5862   -5.2094   -5.3360 C   0  0  0  0  0  0  0  0  0  0  0  0
   49.6450   -4.4387   -4.6750 C   0  0  0  0  0  0  0  0  0  0  0  0
   46.9941   -2.7434   -4.5030 C   0  0  0  0  0  0  0  0  0  0  0  0
   48.3638   -2.3725   -4.4992 O   0  0  0  0  0  0  0  0  0  0  0  0
   50.8424   -6.4300   -4.7501 O   0  0  0  0  0  0  0  0  0  0  0  0
   52.0226   -6.6358   -4.0155 C   0  0  0  0  0  0  0  0  0  0  0  0
   48.9891   -4.8082   -3.5222 O   0  0  0  0  0  0  0  0  0  0  0  0
   49.6642   -5.2209   -2.3177 C   0  0  0  0  0  0  0  0  0  0  0  0
 29 30  1  0  0  0
 30 23  1  0  0  0
 23 24  2  0  0  0
 24 25  1  0  0  0
 25 21  1  0  0  0
 21  1  1  0  0  0
  1  2  1  0  0  0
  2  3  2  0  0  0
  3  4  1  0  0  0
  4  5  2  0  0  0
  5  6  1  0  0  0
  5  7  1  0  0  0
  7  8  2  0  0  0
  8 11  1  0  0  0
 11 12  2  0  0  0
 12 13  1  0  0  0
 13 14  2  0  0  0
 14 15  1  0  0  0
 15 16  2  0  0  0
 15 17  1  0  0  0
 17 18  1  0  0  0
 17 19  1  0  0  0
 17 20  1  0  0  0
  8  9  1  0  0  0
  9 10  1  0  0  0
 25 26  2  0  0  0
 26 27  1  0  0  0
 27 31  1  0  0  0
 31 32  1  0  0  0
 27 28  2  0  0  0
 28 33  1  0  0  0
 33 34  1  0  0  0
 28 23  1  0  0  0
 10  1  2  0  0  0
  9  4  1  0  0  0
 16 11  1  0  0  0
 21 22  1  0  0  0
M  END
> <minimizedAffinity>
-8.59045

> <CNNscore>
0.7865694165

> <CNNaffinity>
7.7503433228

> <CNN_VS>
6.0961828232

> <CNNaffinity_variance>
0.0909821391

$$$$
[H]c1c([H])c(-c2nc(C([H])([H])[H])c3c([H])nc(N([H])c4c([H])c(OC([H])([H])[H])c(OC([H])([H])[H])c(OC([H])([H])[H])c4[H])nn23)c([H])c(C(F)(F)F)c1[H]


 34 37  0  0  0  0  0  0  0  0999 V2000
   52.8602   -3.3009   -8.7266 C   0  0  0  0  0  0  0  0  0  0  0  0
   53.3633   -2.9309   -9.9250 N   0  0  0  0  0  0  0  0  0  0  0  0
   54.5620   -3.3018  -10.3648 C   0  0  0  0  0  0  0  0  0  0  0  0
   55.2988   -4.1109   -9.5034 C   0  0  0  0  0  0  0  0  0  0  0  0
   56.5460   -4.6526   -9.5915 C   0  0  0  0  0  0  0  0  0  0  0  0
   57.4593   -4.5122  -10.7410 C   0  0  0  0  0  0  0  0  0  0  0  0
   56.7625   -5.3186   -8.4563 N   0  0  0  0  0  0  0  0  0  0  0  0
   55.7015   -5.2358   -7.6363 C   0  0  0  0  0  0  0  0  0  0  0  0
   54.7962   -4.4775   -8.3082 N   0  0  0  0  0  0  0  0  0  0  0  0
   53.5927   -4.0738   -7.9359 N   0  0  0  0  0  0  0  0  0  0  0  0
   55.5956   -5.8977   -6.3323 C   0  0  0  0  0  0  0  0  0  0  0  0
   55.2137   -7.1858   -6.1433 C   0  0  0  0  0  0  0  0  0  0  0  0
   55.1129   -7.7764   -4.9061 C   0  0  0  0  0  0  0  0  0  0  0  0
   55.4256   -6.9715   -3.7644 C   0  0  0  0  0  0  0  0  0  0  0  0
   55.8159   -5.6830   -3.9356 C   0  0  0  0  0  0  0  0  0  0  0  0
   55.8892   -5.1618   -5.1932 C   0  0  0  0  0  0  0  0  0  0  0  0
   56.0904   -4.8540   -2.7480 C   0  0  0  0  0  0  0  0  0  0  0  0
   55.0130   -4.7629   -1.8910 F   0  0  0  0  0  0  0  0  0  0  0  0
   56.5332   -3.6038   -3.0594 F   0  0  0  0  0  0  0  0  0  0  0  0
   57.1446   -5.4209   -1.9683 F   0  0  0  0  0  0  0  0  0  0  0  0
   51.5557   -2.8254   -8.3388 N   0  0  0  0  0  0  0  0  0  0  0  0
   51.0345   -2.1006   -8.8939 H   0  0  0  0  0  0  0  0  0  0  0  0
   50.6043   -5.1250   -5.5974 C   0  0  0  0  0  0  0  0  0  0  0  0
   51.1769   -4.5799   -6.7095 C   0  0  0  0  0  0  0  0  0  0  0  0
   50.9122   -3.3013   -7.1765 C   0  0  0  0  0  0  0  0  0  0  0  0
   50.0029   -2.5744   -6.4284 C   0  0  0  0  0  0  0  0  0  0  0  0
   49.3925   -3.0536   -5.3153 C   0  0  0  0  0  0  0  0  0  0  0  0
   49.6932   -4.3324   -4.8782 C   0  0  0  0  0  0  0  0  0  0  0  0
   52.0023   -6.6502   -4.3001 C   0  0  0  0  0  0  0  0  0  0  0  0
   50.9050   -6.4269   -5.1718 O   0  0  0  0  0  0  0  0  0  0  0  0
   48.4790   -2.3800   -4.5340 O   0  0  0  0  0  0  0  0  0  0  0  0
   47.1208   -2.7400   -4.5522 C   0  0  0  0  0  0  0  0  0  0  0  0
   49.1530   -4.9345   -3.7641 O   0  0  0  0  0  0  0  0  0  0  0  0
   49.8630   -5.0935   -2.5201 C   0  0  0  0  0  0  0  0  0  0  0  0
 29 30  1  0  0  0
 30 23  1  0  0  0
 23 24  2  0  0  0
 24 25  1  0  0  0
 25 21  1  0  0  0
 21  1  1  0  0  0
  1  2  1  0  0  0
  2  3  2  0  0  0
  3  4  1  0  0  0
  4  5  2  0  0  0
  5  6  1  0  0  0
  5  7  1  0  0  0
  7  8  2  0  0  0
  8 11  1  0  0  0
 11 12  2  0  0  0
 12 13  1  0  0  0
 13 14  2  0  0  0
 14 15  1  0  0  0
 15 16  2  0  0  0
 15 17  1  0  0  0
 17 18  1  0  0  0
 17 19  1  0  0  0
 17 20  1  0  0  0
  8  9  1  0  0  0
  9 10  1  0  0  0
 25 26  2  0  0  0
 26 27  1  0  0  0
 27 31  1  0  0  0
 31 32  1  0  0  0
 27 28  2  0  0  0
 28 33  1  0  0  0
 33 34  1  0  0  0
 28 23  1  0  0  0
 10  1  2  0  0  0
  9  4  1  0  0  0
 16 11  1  0  0  0
 21 22  1  0  0  0
M  END
> <minimizedAffinity>
-8.99682

> <CNNscore>
0.7474533916

> <CNNaffinity>
7.6488852501

> <CNN_VS>
5.7171850204

> <CNNaffinity_variance>
0.0655030981

$$$$
[H]c1c([H])c(-c2nc(C([H])([H])[H])c3c([H])nc(N([H])c4c([H])c(OC([H])([H])[H])c(OC([H])([H])[H])c(OC([H])([H])[H])c4[H])nn23)c([H])c(C(F)(F)F)c1[H]


 34 37  0  0  0  0  0  0  0  0999 V2000
   52.8794   -3.7681   -8.2601 C   0  0  0  0  0  0  0  0  0  0  0  0
   53.3235   -3.6779   -9.5331 N   0  0  0  0  0  0  0  0  0  0  0  0
   54.5674   -3.9709   -9.8999 C   0  0  0  0  0  0  0  0  0  0  0  0
   55.4183   -4.3837   -8.8775 C   0  0  0  0  0  0  0  0  0  0  0  0
   56.7355   -4.7323   -8.8611 C   0  0  0  0  0  0  0  0  0  0  0  0
   57.6205   -4.7837  -10.0398 C   0  0  0  0  0  0  0  0  0  0  0  0
   57.0487   -5.0116   -7.5951 N   0  0  0  0  0  0  0  0  0  0  0  0
   55.9843   -4.8638   -6.7888 C   0  0  0  0  0  0  0  0  0  0  0  0
   54.9742   -4.4715   -7.6085 N   0  0  0  0  0  0  0  0  0  0  0  0
   53.7206   -4.1671   -7.3154 N   0  0  0  0  0  0  0  0  0  0  0  0
   55.9779   -5.1407   -5.3490 C   0  0  0  0  0  0  0  0  0  0  0  0
   56.2393   -4.2271   -4.3806 C   0  0  0  0  0  0  0  0  0  0  0  0
   56.2367   -4.5193   -3.0375 C   0  0  0  0  0  0  0  0  0  0  0  0
   55.9464   -5.8685   -2.6573 C   0  0  0  0  0  0  0  0  0  0  0  0
   55.6758   -6.7937   -3.6126 C   0  0  0  0  0  0  0  0  0  0  0  0
   55.7007   -6.4332   -4.9271 C   0  0  0  0  0  0  0  0  0  0  0  0
   55.4237   -8.1886   -3.2077 C   0  0  0  0  0  0  0  0  0  0  0  0
   56.5645   -8.8478   -2.7988 F   0  0  0  0  0  0  0  0  0  0  0  0
   54.7941   -8.9191   -4.1700 F   0  0  0  0  0  0  0  0  0  0  0  0
   54.5386   -8.2378   -2.0876 F   0  0  0  0  0  0  0  0  0  0  0  0
   51.5147   -3.4066   -7.9680 N   0  0  0  0  0  0  0  0  0  0  0  0
   50.9191   -2.8683   -8.6466 H   0  0  0  0  0  0  0  0  0  0  0  0
   49.3268   -3.1463   -4.9925 C   0  0  0  0  0  0  0  0  0  0  0  0
   49.9651   -2.9021   -6.1735 C   0  0  0  0  0  0  0  0  0  0  0  0
   50.9079   -3.7465   -6.7402 C   0  0  0  0  0  0  0  0  0  0  0  0
   51.1801   -4.8971   -6.0212 C   0  0  0  0  0  0  0  0  0  0  0  0
   50.5871   -5.2023   -4.8395 C   0  0  0  0  0  0  0  0  0  0  0  0
   49.6438   -4.3357   -4.3140 C   0  0  0  0  0  0  0  0  0  0  0  0
   47.0313   -2.3196   -4.8873 C   0  0  0  0  0  0  0  0  0  0  0  0
   48.3836   -2.2545   -4.4620 O   0  0  0  0  0  0  0  0  0  0  0  0
   50.8195   -6.3275   -4.0789 O   0  0  0  0  0  0  0  0  0  0  0  0
   51.9836   -6.4346   -3.2991 C   0  0  0  0  0  0  0  0  0  0  0  0
   48.9644   -4.5289   -3.1322 O   0  0  0  0  0  0  0  0  0  0  0  0
   47.5426   -4.7516   -3.0567 C   0  0  0  0  0  0  0  0  0  0  0  0
 29 30  1  0  0  0
 30 23  1  0  0  0
 23 24  2  0  0  0
 24 25  1  0  0  0
 25 21  1  0  0  0
 21  1  1  0  0  0
  1  2  1  0  0  0
  2  3  2  0  0  0
  3  4  1  0  0  0
  4  5  2  0  0  0
  5  6  1  0  0  0
  5  7  1  0  0  0
  7  8  2  0  0  0
  8 11  1  0  0  0
 11 12  2  0  0  0
 12 13  1  0  0  0
 13 14  2  0  0  0
 14 15  1  0  0  0
 15 16  2  0  0  0
 15 17  1  0  0  0
 17 18  1  0  0  0
 17 19  1  0  0  0
 17 20  1  0  0  0
  8  9  1  0  0  0
  9 10  1  0  0  0
 25 26  2  0  0  0
 26 27  1  0  0  0
 27 31  1  0  0  0
 31 32  1  0  0  0
 27 28  2  0  0  0
 28 33  1  0  0  0
 33 34  1  0  0  0
 28 23  1  0  0  0
 10  1  2  0  0  0
  9  4  1  0  0  0
 16 11  1  0  0  0
 21 22  1  0  0  0
M  END
> <minimizedAffinity>
-7.88008

> <CNNscore>
0.7338748574

> <CNNaffinity>
7.7400383949

> <CNN_VS>
5.6802196503

> <CNNaffinity_variance>
0.3185845315

$$$$
[H]c1c([H])c(-c2nc(C([H])([H])[H])c3c([H])nc(N([H])c4c([H])c(OC([H])([H])[H])c(OC([H])([H])[H])c(OC([H])([H])[H])c4[H])nn23)c([H])c(C(F)(F)F)c1[H]


 34 37  0  0  0  0  0  0  0  0999 V2000
   53.1610   -3.2257   -8.8913 C   0  0  0  0  0  0  0  0  0  0  0  0
   53.6670   -2.9953  -10.1229 N   0  0  0  0  0  0  0  0  0  0  0  0
   54.8573   -3.4332  -10.5219 C   0  0  0  0  0  0  0  0  0  0  0  0
   55.5819   -4.1592   -9.5797 C   0  0  0  0  0  0  0  0  0  0  0  0
   56.8187   -4.7303   -9.6108 C   0  0  0  0  0  0  0  0  0  0  0  0
   57.7308   -4.7306  -10.7697 C   0  0  0  0  0  0  0  0  0  0  0  0
   57.0264   -5.2750   -8.4112 N   0  0  0  0  0  0  0  0  0  0  0  0
   55.9697   -5.0854   -7.6035 C   0  0  0  0  0  0  0  0  0  0  0  0
   55.0763   -4.3865   -8.3516 N   0  0  0  0  0  0  0  0  0  0  0  0
   53.8816   -3.9231   -8.0232 N   0  0  0  0  0  0  0  0  0  0  0  0
   55.8557   -5.6021   -6.2361 C   0  0  0  0  0  0  0  0  0  0  0  0
   56.8555   -6.2093   -5.5488 C   0  0  0  0  0  0  0  0  0  0  0  0
   56.7154   -6.6941   -4.2702 C   0  0  0  0  0  0  0  0  0  0  0  0
   55.4352   -6.5476   -3.6467 C   0  0  0  0  0  0  0  0  0  0  0  0
   54.4258   -5.9365   -4.3172 C   0  0  0  0  0  0  0  0  0  0  0  0
   54.6357   -5.4836   -5.5858 C   0  0  0  0  0  0  0  0  0  0  0  0
   53.1009   -5.8341   -3.6789 C   0  0  0  0  0  0  0  0  0  0  0  0
   52.3802   -7.0091   -3.7369 F   0  0  0  0  0  0  0  0  0  0  0  0
   52.3477   -4.8114   -4.1717 F   0  0  0  0  0  0  0  0  0  0  0  0
   53.2315   -5.5411   -2.2870 F   0  0  0  0  0  0  0  0  0  0  0  0
   51.8666   -2.6873   -8.5550 N   0  0  0  0  0  0  0  0  0  0  0  0
   51.4455   -1.8741   -9.0712 H   0  0  0  0  0  0  0  0  0  0  0  0
   50.3551   -5.1923   -6.2859 C   0  0  0  0  0  0  0  0  0  0  0  0
   51.0675   -4.5883   -7.2806 C   0  0  0  0  0  0  0  0  0  0  0  0
   51.0983   -3.2189   -7.4975 C   0  0  0  0  0  0  0  0  0  0  0  0
   50.3417   -2.4634   -6.6190 C   0  0  0  0  0  0  0  0  0  0  0  0
   49.6065   -2.9963   -5.6106 C   0  0  0  0  0  0  0  0  0  0  0  0
   49.6118   -4.3681   -5.4235 C   0  0  0  0  0  0  0  0  0  0  0  0
   50.1919   -7.4352   -7.2381 C   0  0  0  0  0  0  0  0  0  0  0  0
   50.3558   -6.5841   -6.1144 O   0  0  0  0  0  0  0  0  0  0  0  0
   48.8333   -2.2971   -4.7095 O   0  0  0  0  0  0  0  0  0  0  0  0
   47.4352   -2.4388   -4.7071 C   0  0  0  0  0  0  0  0  0  0  0  0
   48.9189   -5.0342   -4.4378 O   0  0  0  0  0  0  0  0  0  0  0  0
   49.3633   -5.1205   -3.0695 C   0  0  0  0  0  0  0  0  0  0  0  0
 29 30  1  0  0  0
 30 23  1  0  0  0
 23 24  2  0  0  0
 24 25  1  0  0  0
 25 21  1  0  0  0
 21  1  1  0  0  0
  1  2  1  0  0  0
  2  3  2  0  0  0
  3  4  1  0  0  0
  4  5  2  0  0  0
  5  6  1  0  0  0
  5  7  1  0  0  0
  7  8  2  0  0  0
  8 11  1  0  0  0
 11 12  2  0  0  0
 12 13  1  0  0  0
 13 14  2  0  0  0
 14 15  1  0  0  0
 15 16  2  0  0  0
 15 17  1  0  0  0
 17 18  1  0  0  0
 17 19  1  0  0  0
 17 20  1  0  0  0
  8  9  1  0  0  0
  9 10  1  0  0  0
 25 26  2  0  0  0
 26 27  1  0  0  0
 27 31  1  0  0  0
 31 32  1  0  0  0
 27 28  2  0  0  0
 28 33  1  0  0  0
 33 34  1  0  0  0
 28 23  1  0  0  0
 10  1  2  0  0  0
  9  4  1  0  0  0
 16 11  1  0  0  0
 21 22  1  0  0  0
M  END
> <minimizedAffinity>
-7.85379

> <CNNscore>
0.7194786072

> <CNNaffinity>
7.6588697433

> <CNN_VS>
5.5103931427

> <CNNaffinity_variance>
0.2575598359

$$$$
[H]c1c([H])c(-c2nc(C([H])([H])[H])c3c([H])nc(N([H])c4c([H])c(OC([H])([H])[H])c(OC([H])([H])[H])c(OC([H])([H])[H])c4[H])nn23)c([H])c(C(F)(F)F)c1[H]


 34 37  0  0  0  0  0  0  0  0999 V2000
   51.7099   -3.8247   -7.8034 C   0  0  0  0  0  0  0  0  0  0  0  0
   50.6615   -2.9797   -7.9177 N   0  0  0  0  0  0  0  0  0  0  0  0
   49.7627   -2.7899   -6.9565 C   0  0  0  0  0  0  0  0  0  0  0  0
   49.9566   -3.5293   -5.7922 C   0  0  0  0  0  0  0  0  0  0  0  0
   49.2477   -3.6216   -4.6322 C   0  0  0  0  0  0  0  0  0  0  0  0
   48.0234   -2.8624   -4.3163 C   0  0  0  0  0  0  0  0  0  0  0  0
   49.8738   -4.5136   -3.8631 N   0  0  0  0  0  0  0  0  0  0  0  0
   50.9658   -5.0000   -4.4762 C   0  0  0  0  0  0  0  0  0  0  0  0
   51.0016   -4.3725   -5.6808 N   0  0  0  0  0  0  0  0  0  0  0  0
   51.8605   -4.5094   -6.6775 N   0  0  0  0  0  0  0  0  0  0  0  0
   51.9026   -5.9600   -3.8840 C   0  0  0  0  0  0  0  0  0  0  0  0
   53.1999   -6.1083   -4.2523 C   0  0  0  0  0  0  0  0  0  0  0  0
   54.0522   -7.0258   -3.6855 C   0  0  0  0  0  0  0  0  0  0  0  0
   53.5234   -7.8678   -2.6557 C   0  0  0  0  0  0  0  0  0  0  0  0
   52.2297   -7.7284   -2.2702 C   0  0  0  0  0  0  0  0  0  0  0  0
   51.4404   -6.7992   -2.8802 C   0  0  0  0  0  0  0  0  0  0  0  0
   51.6877   -8.6335   -1.2406 C   0  0  0  0  0  0  0  0  0  0  0  0
   52.3396   -8.5273   -0.0294 F   0  0  0  0  0  0  0  0  0  0  0  0
   51.6643   -9.9377   -1.6339 F   0  0  0  0  0  0  0  0  0  0  0  0
   50.3219   -8.3216   -0.9614 F   0  0  0  0  0  0  0  0  0  0  0  0
   52.6153   -3.9703   -8.9158 N   0  0  0  0  0  0  0  0  0  0  0  0
   52.2859   -3.9512   -9.9139 H   0  0  0  0  0  0  0  0  0  0  0  0
   55.7935   -4.7987   -7.2066 C   0  0  0  0  0  0  0  0  0  0  0  0
   54.4755   -4.5864   -7.4888 C   0  0  0  0  0  0  0  0  0  0  0  0
   53.9995   -4.1624   -8.7203 C   0  0  0  0  0  0  0  0  0  0  0  0
   54.9657   -3.9581   -9.6898 C   0  0  0  0  0  0  0  0  0  0  0  0
   56.2930   -4.1453   -9.4787 C   0  0  0  0  0  0  0  0  0  0  0  0
   56.7243   -4.5789   -8.2365 C   0  0  0  0  0  0  0  0  0  0  0  0
   56.1869   -4.3239   -4.8437 C   0  0  0  0  0  0  0  0  0  0  0  0
   56.2208   -5.2238   -5.9404 O   0  0  0  0  0  0  0  0  0  0  0  0
   57.2987   -3.9554  -10.4013 O   0  0  0  0  0  0  0  0  0  0  0  0
   57.0436   -4.1000  -11.7757 C   0  0  0  0  0  0  0  0  0  0  0  0
   58.0366   -4.8145   -7.8933 O   0  0  0  0  0  0  0  0  0  0  0  0
   58.9035   -5.7068   -8.6209 C   0  0  0  0  0  0  0  0  0  0  0  0
 29 30  1  0  0  0
 30 23  1  0  0  0
 23 24  2  0  0  0
 24 25  1  0  0  0
 25 21  1  0  0  0
 21  1  1  0  0  0
  1  2  1  0  0  0
  2  3  2  0  0  0
  3  4  1  0  0  0
  4  5  2  0  0  0
  5  6  1  0  0  0
  5  7  1  0  0  0
  7  8  2  0  0  0
  8 11  1  0  0  0
 11 12  2  0  0  0
 12 13  1  0  0  0
 13 14  2  0  0  0
 14 15  1  0  0  0
 15 16  2  0  0  0
 15 17  1  0  0  0
 17 18  1  0  0  0
 17 19  1  0  0  0
 17 20  1  0  0  0
  8  9  1  0  0  0
  9 10  1  0  0  0
 25 26  2  0  0  0
 26 27  1  0  0  0
 27 31  1  0  0  0
 31 32  1  0  0  0
 27 28  2  0  0  0
 28 33  1  0  0  0
 33 34  1  0  0  0
 28 23  1  0  0  0
 10  1  2  0  0  0
  9  4  1  0  0  0
 16 11  1  0  0  0
 21 22  1  0  0  0
M  END
> <minimizedAffinity>
-8.79126

> <CNNscore>
0.6835898757

> <CNNaffinity>
7.6585998535

> <CNN_VS>
5.2353415489

> <CNNaffinity_variance>
0.4450862408

$$$$
[H]c1c([H])c(-c2nc(C([H])([H])[H])c3c([H])nc(N([H])c4c([H])c(OC([H])([H])[H])c(OC([H])([H])[H])c(OC([H])([H])[H])c4[H])nn23)c([H])c(C(F)(F)F)c1[H]


 34 37  0  0  0  0  0  0  0  0999 V2000
   51.6496   -3.9179   -7.7487 C   0  0  0  0  0  0  0  0  0  0  0  0
   50.6632   -3.0197   -7.9636 N   0  0  0  0  0  0  0  0  0  0  0  0
   49.7415   -2.7097   -7.0569 C   0  0  0  0  0  0  0  0  0  0  0  0
   49.8415   -3.3784   -5.8393 C   0  0  0  0  0  0  0  0  0  0  0  0
   49.0832   -3.3474   -4.7076 C   0  0  0  0  0  0  0  0  0  0  0  0
   47.8989   -2.4944   -4.4957 C   0  0  0  0  0  0  0  0  0  0  0  0
   49.6199   -4.2216   -3.8551 N   0  0  0  0  0  0  0  0  0  0  0  0
   50.7015   -4.8152   -4.3869 C   0  0  0  0  0  0  0  0  0  0  0  0
   50.8248   -4.2748   -5.6274 N   0  0  0  0  0  0  0  0  0  0  0  0
   51.7116   -4.5322   -6.5748 N   0  0  0  0  0  0  0  0  0  0  0  0
   51.5505   -5.7884   -3.6928 C   0  0  0  0  0  0  0  0  0  0  0  0
   52.8698   -5.9850   -3.9405 C   0  0  0  0  0  0  0  0  0  0  0  0
   53.6384   -6.9139   -3.2802 C   0  0  0  0  0  0  0  0  0  0  0  0
   52.9936   -7.7140   -2.2837 C   0  0  0  0  0  0  0  0  0  0  0  0
   51.6759   -7.5260   -2.0183 C   0  0  0  0  0  0  0  0  0  0  0  0
   50.9743   -6.5884   -2.7164 C   0  0  0  0  0  0  0  0  0  0  0  0
   51.0158   -8.3887   -1.0219 C   0  0  0  0  0  0  0  0  0  0  0  0
   50.4932   -9.5432   -1.5673 F   0  0  0  0  0  0  0  0  0  0  0  0
   50.0506   -7.7420   -0.3104 F   0  0  0  0  0  0  0  0  0  0  0  0
   51.9506   -8.8283   -0.0352 F   0  0  0  0  0  0  0  0  0  0  0  0
   52.5867   -4.1947   -8.8087 N   0  0  0  0  0  0  0  0  0  0  0  0
   52.2856   -4.3033   -9.8100 H   0  0  0  0  0  0  0  0  0  0  0  0
   56.2474   -4.0932   -9.3541 C   0  0  0  0  0  0  0  0  0  0  0  0
   54.8968   -3.9800   -9.5114 C   0  0  0  0  0  0  0  0  0  0  0  0
   53.9657   -4.3501   -8.5527 C   0  0  0  0  0  0  0  0  0  0  0  0
   54.4945   -4.8592   -7.3796 C   0  0  0  0  0  0  0  0  0  0  0  0
   55.8251   -5.0038   -7.1561 C   0  0  0  0  0  0  0  0  0  0  0  0
   56.7206   -4.6124   -8.1368 C   0  0  0  0  0  0  0  0  0  0  0  0
   56.8681   -4.0245  -11.7150 C   0  0  0  0  0  0  0  0  0  0  0  0
   57.1452   -3.7073  -10.3598 O   0  0  0  0  0  0  0  0  0  0  0  0
   56.4087   -5.5061   -6.0134 O   0  0  0  0  0  0  0  0  0  0  0  0
   56.0677   -6.7845   -5.5401 C   0  0  0  0  0  0  0  0  0  0  0  0
   58.0910   -4.6974   -8.0353 O   0  0  0  0  0  0  0  0  0  0  0  0
   58.8780   -5.7118   -8.6902 C   0  0  0  0  0  0  0  0  0  0  0  0
 29 30  1  0  0  0
 30 23  1  0  0  0
 23 24  2  0  0  0
 24 25  1  0  0  0
 25 21  1  0  0  0
 21  1  1  0  0  0
  1  2  1  0  0  0
  2  3  2  0  0  0
  3  4  1  0  0  0
  4  5  2  0  0  0
  5  6  1  0  0  0
  5  7  1  0  0  0
  7  8  2  0  0  0
  8 11  1  0  0  0
 11 12  2  0  0  0
 12 13  1  0  0  0
 13 14  2  0  0  0
 14 15  1  0  0  0
 15 16  2  0  0  0
 15 17  1  0  0  0
 17 18  1  0  0  0
 17 19  1  0  0  0
 17 20  1  0  0  0
  8  9  1  0  0  0
  9 10  1  0  0  0
 25 26  2  0  0  0
 26 27  1  0  0  0
 27 31  1  0  0  0
 31 32  1  0  0  0
 27 28  2  0  0  0
 28 33  1  0  0  0
 33 34  1  0  0  0
 28 23  1  0  0  0
 10  1  2  0  0  0
  9  4  1  0  0  0
 16 11  1  0  0  0
 21 22  1  0  0  0
M  END
> <minimizedAffinity>
-9.25559

> <CNNscore>
0.6490750313

> <CNNaffinity>
7.5966987610

> <CNN_VS>
4.9308276176

> <CNNaffinity_variance>
0.4186779559

$$$$
[H]c1c([H])c(-c2nc(C([H])([H])[H])c3c([H])nc(N([H])c4c([H])c(OC([H])([H])[H])c(OC([H])([H])[H])c(OC([H])([H])[H])c4[H])nn23)c([H])c(C(F)(F)F)c1[H]


 34 37  0  0  0  0  0  0  0  0999 V2000
   51.8396   -3.6439   -7.8527 C   0  0  0  0  0  0  0  0  0  0  0  0
   50.5717   -3.2190   -7.6578 N   0  0  0  0  0  0  0  0  0  0  0  0
   49.8639   -3.4949   -6.5667 C   0  0  0  0  0  0  0  0  0  0  0  0
   50.5096   -4.2700   -5.6065 C   0  0  0  0  0  0  0  0  0  0  0  0
   50.1080   -4.7667   -4.4029 C   0  0  0  0  0  0  0  0  0  0  0  0
   48.7884   -4.5428   -3.7834 C   0  0  0  0  0  0  0  0  0  0  0  0
   51.1271   -5.4751   -3.9143 N   0  0  0  0  0  0  0  0  0  0  0  0
   52.1778   -5.4529   -4.7512 C   0  0  0  0  0  0  0  0  0  0  0  0
   51.7732   -4.6941   -5.8032 N   0  0  0  0  0  0  0  0  0  0  0  0
   52.4200   -4.3786   -6.9133 N   0  0  0  0  0  0  0  0  0  0  0  0
   53.4723   -6.0896   -4.4894 C   0  0  0  0  0  0  0  0  0  0  0  0
   54.1065   -6.9384   -5.3366 C   0  0  0  0  0  0  0  0  0  0  0  0
   55.3160   -7.5293   -5.0585 C   0  0  0  0  0  0  0  0  0  0  0  0
   55.9229   -7.2264   -3.7980 C   0  0  0  0  0  0  0  0  0  0  0  0
   55.3056   -6.3739   -2.9412 C   0  0  0  0  0  0  0  0  0  0  0  0
   54.1038   -5.8278   -3.2819 C   0  0  0  0  0  0  0  0  0  0  0  0
   55.9209   -6.1077   -1.6283 C   0  0  0  0  0  0  0  0  0  0  0  0
   55.1203   -6.4833   -0.5694 F   0  0  0  0  0  0  0  0  0  0  0  0
   56.3064   -4.8104   -1.4717 F   0  0  0  0  0  0  0  0  0  0  0  0
   57.1264   -6.8582   -1.4733 F   0  0  0  0  0  0  0  0  0  0  0  0
   52.5099   -3.3041   -9.0829 N   0  0  0  0  0  0  0  0  0  0  0  0
   52.0186   -2.8154   -9.8734 H   0  0  0  0  0  0  0  0  0  0  0  0
   56.0755   -3.9666   -8.3372 C   0  0  0  0  0  0  0  0  0  0  0  0
   54.7490   -3.6663   -8.2276 C   0  0  0  0  0  0  0  0  0  0  0  0
   53.8671   -3.6256   -9.2971 C   0  0  0  0  0  0  0  0  0  0  0  0
   54.4199   -3.9179  -10.5315 C   0  0  0  0  0  0  0  0  0  0  0  0
   55.7298   -4.2208  -10.7152 C   0  0  0  0  0  0  0  0  0  0  0  0
   56.5738   -4.2599   -9.6183 C   0  0  0  0  0  0  0  0  0  0  0  0
   56.3737   -4.0080   -5.9138 C   0  0  0  0  0  0  0  0  0  0  0  0
   56.9246   -3.9889   -7.2215 O   0  0  0  0  0  0  0  0  0  0  0  0
   56.3363   -4.5163  -11.9167 O   0  0  0  0  0  0  0  0  0  0  0  0
   56.6882   -3.4904  -12.8103 C   0  0  0  0  0  0  0  0  0  0  0  0
   57.9167   -4.5599   -9.6644 O   0  0  0  0  0  0  0  0  0  0  0  0
   58.4315   -5.9034   -9.7475 C   0  0  0  0  0  0  0  0  0  0  0  0
 29 30  1  0  0  0
 30 23  1  0  0  0
 23 24  2  0  0  0
 24 25  1  0  0  0
 25 21  1  0  0  0
 21  1  1  0  0  0
  1  2  1  0  0  0
  2  3  2  0  0  0
  3  4  1  0  0  0
  4  5  2  0  0  0
  5  6  1  0  0  0
  5  7  1  0  0  0
  7  8  2  0  0  0
  8 11  1  0  0  0
 11 12  2  0  0  0
 12 13  1  0  0  0
 13 14  2  0  0  0
 14 15  1  0  0  0
 15 16  2  0  0  0
 15 17  1  0  0  0
 17 18  1  0  0  0
 17 19  1  0  0  0
 17 20  1  0  0  0
  8  9  1  0  0  0
  9 10  1  0  0  0
 25 26  2  0  0  0
 26 27  1  0  0  0
 27 31  1  0  0  0
 31 32  1  0  0  0
 27 28  2  0  0  0
 28 33  1  0  0  0
 33 34  1  0  0  0
 28 23  1  0  0  0
 10  1  2  0  0  0
  9  4  1  0  0  0
 16 11  1  0  0  0
 21 22  1  0  0  0
M  END
> <minimizedAffinity>
-8.21233

> <CNNscore>
0.6251733899

> <CNNaffinity>
7.5307364464

> <CNN_VS>
4.7080159187

> <CNNaffinity_variance>
0.3545415103

$$$$
[H]c1nc(N([H])c2c([H])c([H])c([H])c([H])c2N([H])[H])nc2c1C([H])([H])C([H])([H])c1c(C(=O)N([H])[H])nn(C([H])([H])[H])c1-2


 30 33  0  0  0  0  0  0  0  0999 V2000
   53.7271   -6.3318   -6.3352 C   0  0  0  0  0  0  0  0  0  0  0  0
   52.5697   -5.7997   -5.6458 N   0  0  0  0  0  0  0  0  0  0  0  0
   51.9958   -6.1855   -4.5403 N   0  0  0  0  0  0  0  0  0  0  0  0
   50.9379   -5.4193   -4.2387 C   0  0  0  0  0  0  0  0  0  0  0  0
   50.8185   -4.4502   -5.2408 C   0  0  0  0  0  0  0  0  0  0  0  0
   49.9047   -3.3407   -5.4579 C   0  0  0  0  0  0  0  0  0  0  0  0
   49.9700   -2.5865   -6.7252 C   0  0  0  0  0  0  0  0  0  0  0  0
   51.1326   -2.8676   -7.5732 C   0  0  0  0  0  0  0  0  0  0  0  0
   51.3982   -2.1236   -8.7270 C   0  0  0  0  0  0  0  0  0  0  0  0
   52.4589   -2.4425   -9.4837 N   0  0  0  0  0  0  0  0  0  0  0  0
   53.2988   -3.4261   -9.2269 C   0  0  0  0  0  0  0  0  0  0  0  0
   53.0172   -4.1407   -8.0892 N   0  0  0  0  0  0  0  0  0  0  0  0
   51.9858   -3.8877   -7.2855 C   0  0  0  0  0  0  0  0  0  0  0  0
   51.8509   -4.7249   -6.0931 C   0  0  0  0  0  0  0  0  0  0  0  0
   50.0549   -5.5283   -3.1078 C   0  0  0  0  0  0  0  0  0  0  0  0
   50.5137   -6.1758   -1.9351 N   0  0  0  0  0  0  0  0  0  0  0  0
   48.8865   -5.0584   -3.1475 O   0  0  0  0  0  0  0  0  0  0  0  0
   50.2507   -7.1605   -1.7528 H   0  0  0  0  0  0  0  0  0  0  0  0
   51.1115   -5.6709   -1.2571 H   0  0  0  0  0  0  0  0  0  0  0  0
   54.4302   -3.8206   -9.9714 N   0  0  0  0  0  0  0  0  0  0  0  0
   54.3304   -3.7462  -11.0493 H   0  0  0  0  0  0  0  0  0  0  0  0
   55.6575   -4.2916   -9.5320 C   0  0  0  0  0  0  0  0  0  0  0  0
   55.9822   -4.5032   -8.2295 C   0  0  0  0  0  0  0  0  0  0  0  0
   57.2484   -4.9829   -7.8624 C   0  0  0  0  0  0  0  0  0  0  0  0
   58.2081   -5.2573   -8.7995 C   0  0  0  0  0  0  0  0  0  0  0  0
   57.9080   -5.0542  -10.1052 C   0  0  0  0  0  0  0  0  0  0  0  0
   56.6671   -4.5848  -10.4562 C   0  0  0  0  0  0  0  0  0  0  0  0
   56.4028   -4.3890  -11.8352 N   0  0  0  0  0  0  0  0  0  0  0  0
   55.8377   -5.1193  -12.3207 H   0  0  0  0  0  0  0  0  0  0  0  0
   56.7441   -3.5621  -12.3692 H   0  0  0  0  0  0  0  0  0  0  0  0
  1  2  1  0  0  0
  2  3  1  0  0  0
  3  4  2  0  0  0
  4 15  1  0  0  0
 15 16  1  0  0  0
 15 17  2  0  0  0
  4  5  1  0  0  0
  5  6  1  0  0  0
  6  7  1  0  0  0
  7  8  1  0  0  0
  8  9  2  0  0  0
  9 10  1  0  0  0
 10 11  2  0  0  0
 11 20  1  0  0  0
 20 22  1  0  0  0
 22 23  2  0  0  0
 23 24  1  0  0  0
 24 25  2  0  0  0
 25 26  1  0  0  0
 26 27  2  0  0  0
 27 28  1  0  0  0
 11 12  1  0  0  0
 12 13  2  0  0  0
 13 14  1  0  0  0
 14  2  1  0  0  0
 14  5  2  0  0  0
 13  8  1  0  0  0
 27 22  1  0  0  0
 16 18  1  0  0  0
 16 19  1  0  0  0
 20 21  1  0  0  0
 28 29  1  0  0  0
 28 30  1  0  0  0
M  END
> <minimizedAffinity>
-10.99348

> <CNNscore>
0.9405462146

> <CNNaffinity>
7.3793287277

> <CNN_VS>
6.9405999184

> <CNNaffinity_variance>
0.0828012973

$$$$
[H]c1nc(N([H])c2c([H])c([H])c([H])c([H])c2N([H])[H])nc2c1C([H])([H])C([H])([H])c1c(C(=O)N([H])[H])nn(C([H])([H])[H])c1-2


 30 33  0  0  0  0  0  0  0  0999 V2000
   53.9724   -2.8224   -8.8781 C   0  0  0  0  0  0  0  0  0  0  0  0
   52.8171   -3.1636   -8.0738 N   0  0  0  0  0  0  0  0  0  0  0  0
   51.6142   -2.6602   -8.0699 N   0  0  0  0  0  0  0  0  0  0  0  0
   50.8292   -3.2618   -7.1650 C   0  0  0  0  0  0  0  0  0  0  0  0
   51.5952   -4.2435   -6.5269 C   0  0  0  0  0  0  0  0  0  0  0  0
   51.3072   -5.2248   -5.4938 C   0  0  0  0  0  0  0  0  0  0  0  0
   52.4101   -6.0294   -4.9322 C   0  0  0  0  0  0  0  0  0  0  0  0
   53.6876   -5.9435   -5.6466 C   0  0  0  0  0  0  0  0  0  0  0  0
   54.7722   -6.7611   -5.3143 C   0  0  0  0  0  0  0  0  0  0  0  0
   55.9283   -6.6203   -5.9800 N   0  0  0  0  0  0  0  0  0  0  0  0
   56.1378   -5.7520   -6.9500 C   0  0  0  0  0  0  0  0  0  0  0  0
   55.0583   -4.9620   -7.2579 N   0  0  0  0  0  0  0  0  0  0  0  0
   53.8782   -5.0397   -6.6456 C   0  0  0  0  0  0  0  0  0  0  0  0
   52.8218   -4.1462   -7.1218 C   0  0  0  0  0  0  0  0  0  0  0  0
   49.4487   -2.9888   -6.8642 C   0  0  0  0  0  0  0  0  0  0  0  0
   48.5224   -2.8681   -7.9283 N   0  0  0  0  0  0  0  0  0  0  0  0
   49.0564   -2.8567   -5.6742 O   0  0  0  0  0  0  0  0  0  0  0  0
   48.2398   -1.9297   -8.2624 H   0  0  0  0  0  0  0  0  0  0  0  0
   48.1248   -3.7127   -8.3757 H   0  0  0  0  0  0  0  0  0  0  0  0
   57.3193   -5.5456   -7.6925 N   0  0  0  0  0  0  0  0  0  0  0  0
   58.2461   -5.7080   -7.1522 H   0  0  0  0  0  0  0  0  0  0  0  0
   57.4767   -5.1646   -9.0158 C   0  0  0  0  0  0  0  0  0  0  0  0
   56.5716   -4.4388   -9.7235 C   0  0  0  0  0  0  0  0  0  0  0  0
   56.8028   -4.0910  -11.0627 C   0  0  0  0  0  0  0  0  0  0  0  0
   57.9479   -4.4677  -11.7116 C   0  0  0  0  0  0  0  0  0  0  0  0
   58.8658   -5.1923  -11.0270 C   0  0  0  0  0  0  0  0  0  0  0  0
   58.6323   -5.5284   -9.7171 C   0  0  0  0  0  0  0  0  0  0  0  0
   59.6234   -6.2873   -9.0450 N   0  0  0  0  0  0  0  0  0  0  0  0
   60.2586   -5.7736   -8.3962 H   0  0  0  0  0  0  0  0  0  0  0  0
   59.7381   -7.3149   -9.1722 H   0  0  0  0  0  0  0  0  0  0  0  0
  1  2  1  0  0  0
  2  3  1  0  0  0
  3  4  2  0  0  0
  4 15  1  0  0  0
 15 16  1  0  0  0
 15 17  2  0  0  0
  4  5  1  0  0  0
  5  6  1  0  0  0
  6  7  1  0  0  0
  7  8  1  0  0  0
  8  9  2  0  0  0
  9 10  1  0  0  0
 10 11  2  0  0  0
 11 20  1  0  0  0
 20 22  1  0  0  0
 22 23  2  0  0  0
 23 24  1  0  0  0
 24 25  2  0  0  0
 25 26  1  0  0  0
 26 27  2  0  0  0
 27 28  1  0  0  0
 11 12  1  0  0  0
 12 13  2  0  0  0
 13 14  1  0  0  0
 14  2  1  0  0  0
 14  5  2  0  0  0
 13  8  1  0  0  0
 27 22  1  0  0  0
 16 18  1  0  0  0
 16 19  1  0  0  0
 20 21  1  0  0  0
 28 29  1  0  0  0
 28 30  1  0  0  0
M  END
> <minimizedAffinity>
-9.15183

> <CNNscore>
0.8465827703

> <CNNaffinity>
7.1247963905

> <CNN_VS>
6.0317296982

> <CNNaffinity_variance>
0.1029257327

$$$$
[H]c1nc(N([H])c2c([H])c([H])c([H])c([H])c2N([H])[H])nc2c1C([H])([H])C([H])([H])c1c(C(=O)N([H])[H])nn(C([H])([H])[H])c1-2


 30 33  0  0  0  0  0  0  0  0999 V2000
   54.0464   -6.6355   -5.8984 C   0  0  0  0  0  0  0  0  0  0  0  0
   52.8248   -5.9578   -5.5155 N   0  0  0  0  0  0  0  0  0  0  0  0
   52.0334   -6.1571   -4.4984 N   0  0  0  0  0  0  0  0  0  0  0  0
   50.9968   -5.3071   -4.5043 C   0  0  0  0  0  0  0  0  0  0  0  0
   51.1318   -4.4837   -5.6275 C   0  0  0  0  0  0  0  0  0  0  0  0
   50.3556   -3.3737   -6.1552 C   0  0  0  0  0  0  0  0  0  0  0  0
   50.7043   -2.8087   -7.4736 C   0  0  0  0  0  0  0  0  0  0  0  0
   51.9778   -3.2607   -8.0423 C   0  0  0  0  0  0  0  0  0  0  0  0
   52.5016   -2.6993   -9.2111 C   0  0  0  0  0  0  0  0  0  0  0  0
   53.6561   -3.1710   -9.7053 N   0  0  0  0  0  0  0  0  0  0  0  0
   54.3617   -4.1474   -9.1692 C   0  0  0  0  0  0  0  0  0  0  0  0
   53.8274   -4.6811   -8.0230 N   0  0  0  0  0  0  0  0  0  0  0  0
   52.6884   -4.2694   -7.4690 C   0  0  0  0  0  0  0  0  0  0  0  0
   52.2790   -4.9237   -6.2258 C   0  0  0  0  0  0  0  0  0  0  0  0
   49.9177   -5.2145   -3.5569 C   0  0  0  0  0  0  0  0  0  0  0  0
   50.0670   -5.8120   -2.2818 N   0  0  0  0  0  0  0  0  0  0  0  0
   48.8490   -4.6129   -3.8455 O   0  0  0  0  0  0  0  0  0  0  0  0
   49.6465   -6.7393   -2.0942 H   0  0  0  0  0  0  0  0  0  0  0  0
   50.5946   -5.3275   -1.5344 H   0  0  0  0  0  0  0  0  0  0  0  0
   55.5778   -4.6954   -9.6285 N   0  0  0  0  0  0  0  0  0  0  0  0
   56.0167   -5.4582   -8.9939 H   0  0  0  0  0  0  0  0  0  0  0  0
   56.3013   -4.4052  -10.7745 C   0  0  0  0  0  0  0  0  0  0  0  0
   55.7680   -3.8981  -11.9170 C   0  0  0  0  0  0  0  0  0  0  0  0
   56.5672   -3.6300  -13.0383 C   0  0  0  0  0  0  0  0  0  0  0  0
   57.9154   -3.8676  -13.0286 C   0  0  0  0  0  0  0  0  0  0  0  0
   58.4706   -4.3734  -11.9007 C   0  0  0  0  0  0  0  0  0  0  0  0
   57.6821   -4.6329  -10.8079 C   0  0  0  0  0  0  0  0  0  0  0  0
   58.3109   -5.1615   -9.6524 N   0  0  0  0  0  0  0  0  0  0  0  0
   58.5059   -4.4990   -8.8705 H   0  0  0  0  0  0  0  0  0  0  0  0
   58.5794   -6.1636   -9.5576 H   0  0  0  0  0  0  0  0  0  0  0  0
  1  2  1  0  0  0
  2  3  1  0  0  0
  3  4  2  0  0  0
  4 15  1  0  0  0
 15 16  1  0  0  0
 15 17  2  0  0  0
  4  5  1  0  0  0
  5  6  1  0  0  0
  6  7  1  0  0  0
  7  8  1  0  0  0
  8  9  2  0  0  0
  9 10  1  0  0  0
 10 11  2  0  0  0
 11 20  1  0  0  0
 20 22  1  0  0  0
 22 23  2  0  0  0
 23 24  1  0  0  0
 24 25  2  0  0  0
 25 26  1  0  0  0
 26 27  2  0  0  0
 27 28  1  0  0  0
 11 12  1  0  0  0
 12 13  2  0  0  0
 13 14  1  0  0  0
 14  2  1  0  0  0
 14  5  2  0  0  0
 13  8  1  0  0  0
 27 22  1  0  0  0
 16 18  1  0  0  0
 16 19  1  0  0  0
 20 21  1  0  0  0
 28 29  1  0  0  0
 28 30  1  0  0  0
M  END
> <minimizedAffinity>
-9.46180

> <CNNscore>
0.8167874217

> <CNNaffinity>
7.1628599167

> <CNN_VS>
5.8505339622

> <CNNaffinity_variance>
0.2818810940

$$$$
[H]c1nc(N([H])c2c([H])c([H])c([H])c([H])c2N([H])[H])nc2c1C([H])([H])C([H])([H])c1c(C(=O)N([H])[H])nn(C([H])([H])[H])c1-2


 30 33  0  0  0  0  0  0  0  0999 V2000
   53.4896   -6.2240   -5.2562 C   0  0  0  0  0  0  0  0  0  0  0  0
   53.1691   -5.3202   -6.3419 N   0  0  0  0  0  0  0  0  0  0  0  0
   53.8154   -5.0657   -7.4455 N   0  0  0  0  0  0  0  0  0  0  0  0
   53.1758   -4.1565   -8.1947 C   0  0  0  0  0  0  0  0  0  0  0  0
   52.0099   -3.7914   -7.5127 C   0  0  0  0  0  0  0  0  0  0  0  0
   50.9136   -2.8863   -7.8159 C   0  0  0  0  0  0  0  0  0  0  0  0
   49.8903   -2.6185   -6.7862 C   0  0  0  0  0  0  0  0  0  0  0  0
   49.9303   -3.4903   -5.6080 C   0  0  0  0  0  0  0  0  0  0  0  0
   48.9355   -3.4460   -4.6264 C   0  0  0  0  0  0  0  0  0  0  0  0
   49.0366   -4.2443   -3.5531 N   0  0  0  0  0  0  0  0  0  0  0  0
   50.0221   -5.0932   -3.3362 C   0  0  0  0  0  0  0  0  0  0  0  0
   50.9852   -5.1186   -4.3140 N   0  0  0  0  0  0  0  0  0  0  0  0
   50.9578   -4.3595   -5.4079 C   0  0  0  0  0  0  0  0  0  0  0  0
   52.0475   -4.5373   -6.3682 C   0  0  0  0  0  0  0  0  0  0  0  0
   53.5695   -3.6203   -9.4707 C   0  0  0  0  0  0  0  0  0  0  0  0
   54.8919   -3.8342   -9.9297 N   0  0  0  0  0  0  0  0  0  0  0  0
   52.7582   -2.9673  -10.1799 O   0  0  0  0  0  0  0  0  0  0  0  0
   55.6015   -3.0876   -9.8247 H   0  0  0  0  0  0  0  0  0  0  0  0
   55.1550   -4.7333  -10.3703 H   0  0  0  0  0  0  0  0  0  0  0  0
   50.1969   -5.9606   -2.2375 N   0  0  0  0  0  0  0  0  0  0  0  0
   49.3360   -6.0707   -1.5864 H   0  0  0  0  0  0  0  0  0  0  0  0
   51.3087   -6.6979   -1.8614 C   0  0  0  0  0  0  0  0  0  0  0  0
   51.4024   -8.0511   -1.9447 C   0  0  0  0  0  0  0  0  0  0  0  0
   52.5640   -8.7276   -1.5435 C   0  0  0  0  0  0  0  0  0  0  0  0
   53.6499   -8.0540   -1.0521 C   0  0  0  0  0  0  0  0  0  0  0  0
   53.5805   -6.7038   -0.9593 C   0  0  0  0  0  0  0  0  0  0  0  0
   52.4406   -6.0494   -1.3540 C   0  0  0  0  0  0  0  0  0  0  0  0
   52.4182   -4.6367   -1.2370 N   0  0  0  0  0  0  0  0  0  0  0  0
   52.5733   -4.0837   -2.1079 H   0  0  0  0  0  0  0  0  0  0  0  0
   52.2564   -4.1420   -0.3345 H   0  0  0  0  0  0  0  0  0  0  0  0
  1  2  1  0  0  0
  2  3  1  0  0  0
  3  4  2  0  0  0
  4 15  1  0  0  0
 15 16  1  0  0  0
 15 17  2  0  0  0
  4  5  1  0  0  0
  5  6  1  0  0  0
  6  7  1  0  0  0
  7  8  1  0  0  0
  8  9  2  0  0  0
  9 10  1  0  0  0
 10 11  2  0  0  0
 11 20  1  0  0  0
 20 22  1  0  0  0
 22 23  2  0  0  0
 23 24  1  0  0  0
 24 25  2  0  0  0
 25 26  1  0  0  0
 26 27  2  0  0  0
 27 28  1  0  0  0
 11 12  1  0  0  0
 12 13  2  0  0  0
 13 14  1  0  0  0
 14  2  1  0  0  0
 14  5  2  0  0  0
 13  8  1  0  0  0
 27 22  1  0  0  0
 16 18  1  0  0  0
 16 19  1  0  0  0
 20 21  1  0  0  0
 28 29  1  0  0  0
 28 30  1  0  0  0
M  END
> <minimizedAffinity>
-10.05022

> <CNNscore>
0.7165115476

> <CNNaffinity>
7.1701078415

> <CNN_VS>
5.1374650002

> <CNNaffinity_variance>
0.2218665779

$$$$
[H]c1nc(N([H])c2c([H])c([H])c([H])c([H])c2N([H])[H])nc2c1C([H])([H])C([H])([H])c1c(C(=O)N([H])[H])nn(C([H])([H])[H])c1-2


 30 33  0  0  0  0  0  0  0  0999 V2000
   52.7466   -6.1789   -5.2349 C   0  0  0  0  0  0  0  0  0  0  0  0
   51.5666   -5.3426   -5.1545 N   0  0  0  0  0  0  0  0  0  0  0  0
   50.5663   -5.3742   -4.3186 N   0  0  0  0  0  0  0  0  0  0  0  0
   49.6666   -4.4175   -4.5875 C   0  0  0  0  0  0  0  0  0  0  0  0
   50.1287   -3.7028   -5.6980 C   0  0  0  0  0  0  0  0  0  0  0  0
   49.6204   -2.5575   -6.4348 C   0  0  0  0  0  0  0  0  0  0  0  0
   50.2977   -2.1375   -7.6774 C   0  0  0  0  0  0  0  0  0  0  0  0
   51.5940   -2.7702   -7.9400 C   0  0  0  0  0  0  0  0  0  0  0  0
   52.4103   -2.3618   -8.9993 C   0  0  0  0  0  0  0  0  0  0  0  0
   53.5734   -2.9951   -9.2133 N   0  0  0  0  0  0  0  0  0  0  0  0
   54.0281   -3.9996   -8.4902 C   0  0  0  0  0  0  0  0  0  0  0  0
   53.2095   -4.3812   -7.4566 N   0  0  0  0  0  0  0  0  0  0  0  0
   52.0419   -3.8045   -7.1778 C   0  0  0  0  0  0  0  0  0  0  0  0
   51.3099   -4.3120   -6.0168 C   0  0  0  0  0  0  0  0  0  0  0  0
   48.4374   -4.1334   -3.8954 C   0  0  0  0  0  0  0  0  0  0  0  0
   47.5704   -3.1395   -4.4105 N   0  0  0  0  0  0  0  0  0  0  0  0
   48.1249   -4.7536   -2.8441 O   0  0  0  0  0  0  0  0  0  0  0  0
   47.5761   -2.1880   -4.0023 H   0  0  0  0  0  0  0  0  0  0  0  0
   46.9295   -3.3574   -5.1938 H   0  0  0  0  0  0  0  0  0  0  0  0
   55.2344   -4.7127   -8.6531 N   0  0  0  0  0  0  0  0  0  0  0  0
   55.4688   -5.4219   -7.8661 H   0  0  0  0  0  0  0  0  0  0  0  0
   56.1711   -4.6442   -9.6724 C   0  0  0  0  0  0  0  0  0  0  0  0
   55.9129   -4.1992  -10.9302 C   0  0  0  0  0  0  0  0  0  0  0  0
   56.9162   -4.1595  -11.9099 C   0  0  0  0  0  0  0  0  0  0  0  0
   58.1951   -4.5667  -11.6402 C   0  0  0  0  0  0  0  0  0  0  0  0
   58.4774   -5.0147  -10.3928 C   0  0  0  0  0  0  0  0  0  0  0  0
   57.4904   -5.0504   -9.4399 C   0  0  0  0  0  0  0  0  0  0  0  0
   57.8365   -5.5274   -8.1506 N   0  0  0  0  0  0  0  0  0  0  0  0
   57.9946   -4.8149   -7.4052 H   0  0  0  0  0  0  0  0  0  0  0  0
   57.9367   -6.5396   -7.9252 H   0  0  0  0  0  0  0  0  0  0  0  0
  1  2  1  0  0  0
  2  3  1  0  0  0
  3  4  2  0  0  0
  4 15  1  0  0  0
 15 16  1  0  0  0
 15 17  2  0  0  0
  4  5  1  0  0  0
  5  6  1  0  0  0
  6  7  1  0  0  0
  7  8  1  0  0  0
  8  9  2  0  0  0
  9 10  1  0  0  0
 10 11  2  0  0  0
 11 20  1  0  0  0
 20 22  1  0  0  0
 22 23  2  0  0  0
 23 24  1  0  0  0
 24 25  2  0  0  0
 25 26  1  0  0  0
 26 27  2  0  0  0
 27 28  1  0  0  0
 11 12  1  0  0  0
 12 13  2  0  0  0
 13 14  1  0  0  0
 14  2  1  0  0  0
 14  5  2  0  0  0
 13  8  1  0  0  0
 27 22  1  0  0  0
 16 18  1  0  0  0
 16 19  1  0  0  0
 20 21  1  0  0  0
 28 29  1  0  0  0
 28 30  1  0  0  0
M  END
> <minimizedAffinity>
-10.35365

> <CNNscore>
0.7047016025

> <CNNaffinity>
7.1294226646

> <CNN_VS>
5.0241155624

> <CNNaffinity_variance>
0.2080135345

$$$$
[H]c1nc(N([H])c2c([H])c([H])c([H])c([H])c2N([H])[H])nc2c1C([H])([H])C([H])([H])c1c(C(=O)N([H])[H])nn(C([H])([H])[H])c1-2


 30 33  0  0  0  0  0  0  0  0999 V2000
   54.4562   -6.7687   -5.2483 C   0  0  0  0  0  0  0  0  0  0  0  0
   53.3501   -6.5848   -4.3314 N   0  0  0  0  0  0  0  0  0  0  0  0
   53.1271   -7.1169   -3.1619 N   0  0  0  0  0  0  0  0  0  0  0  0
   51.9760   -6.6803   -2.6313 C   0  0  0  0  0  0  0  0  0  0  0  0
   51.4041   -5.7844   -3.5412 C   0  0  0  0  0  0  0  0  0  0  0  0
   50.1948   -4.9778   -3.5276 C   0  0  0  0  0  0  0  0  0  0  0  0
   49.8059   -4.2359   -4.7431 C   0  0  0  0  0  0  0  0  0  0  0  0
   50.8171   -4.1776   -5.8032 C   0  0  0  0  0  0  0  0  0  0  0  0
   50.6413   -3.3889   -6.9444 C   0  0  0  0  0  0  0  0  0  0  0  0
   51.5845   -3.3955   -7.8983 N   0  0  0  0  0  0  0  0  0  0  0  0
   52.6969   -4.1021   -7.8526 C   0  0  0  0  0  0  0  0  0  0  0  0
   52.8464   -4.8670   -6.7227 N   0  0  0  0  0  0  0  0  0  0  0  0
   51.9581   -4.9154   -5.7316 C   0  0  0  0  0  0  0  0  0  0  0  0
   52.2902   -5.7566   -4.5813 C   0  0  0  0  0  0  0  0  0  0  0  0
   51.3901   -7.0341   -1.3656 C   0  0  0  0  0  0  0  0  0  0  0  0
   52.1068   -6.7635   -0.1747 N   0  0  0  0  0  0  0  0  0  0  0  0
   50.2552   -7.5781   -1.3039 O   0  0  0  0  0  0  0  0  0  0  0  0
   52.6382   -7.5204    0.2909 H   0  0  0  0  0  0  0  0  0  0  0  0
   52.1034   -5.8127    0.2347 H   0  0  0  0  0  0  0  0  0  0  0  0
   53.7299   -4.1612   -8.8115 N   0  0  0  0  0  0  0  0  0  0  0  0
   53.4374   -3.9263   -9.8296 H   0  0  0  0  0  0  0  0  0  0  0  0
   55.0699   -4.4759   -8.6492 C   0  0  0  0  0  0  0  0  0  0  0  0
   55.6360   -4.8621   -7.4756 C   0  0  0  0  0  0  0  0  0  0  0  0
   57.0031   -5.1648   -7.3904 C   0  0  0  0  0  0  0  0  0  0  0  0
   57.8227   -5.0838   -8.4840 C   0  0  0  0  0  0  0  0  0  0  0  0
   57.2815   -4.7007   -9.6658 C   0  0  0  0  0  0  0  0  0  0  0  0
   55.9431   -4.4064   -9.7410 C   0  0  0  0  0  0  0  0  0  0  0  0
   55.4255   -4.0104  -11.0000 N   0  0  0  0  0  0  0  0  0  0  0  0
   54.9033   -4.7284  -11.5479 H   0  0  0  0  0  0  0  0  0  0  0  0
   55.5447   -3.0514  -11.3893 H   0  0  0  0  0  0  0  0  0  0  0  0
  1  2  1  0  0  0
  2  3  1  0  0  0
  3  4  2  0  0  0
  4 15  1  0  0  0
 15 16  1  0  0  0
 15 17  2  0  0  0
  4  5  1  0  0  0
  5  6  1  0  0  0
  6  7  1  0  0  0
  7  8  1  0  0  0
  8  9  2  0  0  0
  9 10  1  0  0  0
 10 11  2  0  0  0
 11 20  1  0  0  0
 20 22  1  0  0  0
 22 23  2  0  0  0
 23 24  1  0  0  0
 24 25  2  0  0  0
 25 26  1  0  0  0
 26 27  2  0  0  0
 27 28  1  0  0  0
 11 12  1  0  0  0
 12 13  2  0  0  0
 13 14  1  0  0  0
 14  2  1  0  0  0
 14  5  2  0  0  0
 13  8  1  0  0  0
 27 22  1  0  0  0
 16 18  1  0  0  0
 16 19  1  0  0  0
 20 21  1  0  0  0
 28 29  1  0  0  0
 28 30  1  0  0  0
M  END
> <minimizedAffinity>
-10.16427

> <CNNscore>
0.6362111568

> <CNNaffinity>
6.9645013809

> <CNN_VS>
4.4308934212

> <CNNaffinity_variance>
0.4058285356

$$$$
[H]c1nc(N([H])c2c([H])c([H])c([H])c([H])c2N([H])[H])nc2c1C([H])([H])C([H])([H])c1c(C(=O)N([H])[H])nn(C([H])([H])[H])c1-2


 30 33  0  0  0  0  0  0  0  0999 V2000
   51.2975   -2.0976   -8.2455 C   0  0  0  0  0  0  0  0  0  0  0  0
   50.6624   -2.7143   -7.0990 N   0  0  0  0  0  0  0  0  0  0  0  0
   49.5475   -2.4168   -6.4916 N   0  0  0  0  0  0  0  0  0  0  0  0
   49.3110   -3.2403   -5.4606 C   0  0  0  0  0  0  0  0  0  0  0  0
   50.3696   -4.1530   -5.3972 C   0  0  0  0  0  0  0  0  0  0  0  0
   50.6680   -5.2829   -4.5327 C   0  0  0  0  0  0  0  0  0  0  0  0
   51.9753   -5.9585   -4.6497 C   0  0  0  0  0  0  0  0  0  0  0  0
   52.7832   -5.5827   -5.8141 C   0  0  0  0  0  0  0  0  0  0  0  0
   53.9728   -6.2469   -6.1288 C   0  0  0  0  0  0  0  0  0  0  0  0
   54.6894   -5.8427   -7.1884 N   0  0  0  0  0  0  0  0  0  0  0  0
   54.3601   -4.8436   -7.9834 C   0  0  0  0  0  0  0  0  0  0  0  0
   53.1886   -4.2085   -7.6542 N   0  0  0  0  0  0  0  0  0  0  0  0
   52.4208   -4.5485   -6.6205 C   0  0  0  0  0  0  0  0  0  0  0  0
   51.1847   -3.7885   -6.4319 C   0  0  0  0  0  0  0  0  0  0  0  0
   48.1928   -3.2324   -4.5550 C   0  0  0  0  0  0  0  0  0  0  0  0
   47.9701   -4.3579   -3.7251 N   0  0  0  0  0  0  0  0  0  0  0  0
   47.4145   -2.2436   -4.4916 O   0  0  0  0  0  0  0  0  0  0  0  0
   47.2610   -5.0635   -3.9919 H   0  0  0  0  0  0  0  0  0  0  0  0
   48.5122   -4.4807   -2.8517 H   0  0  0  0  0  0  0  0  0  0  0  0
   55.0588   -4.3621   -9.1104 N   0  0  0  0  0  0  0  0  0  0  0  0
   54.5146   -3.6603   -9.7338 H   0  0  0  0  0  0  0  0  0  0  0  0
   56.3429   -4.6514   -9.5445 C   0  0  0  0  0  0  0  0  0  0  0  0
   57.3072   -5.2239   -8.7770 C   0  0  0  0  0  0  0  0  0  0  0  0
   58.5865   -5.4864   -9.2891 C   0  0  0  0  0  0  0  0  0  0  0  0
   58.9165   -5.1771  -10.5813 C   0  0  0  0  0  0  0  0  0  0  0  0
   57.9718   -4.6052  -11.3666 C   0  0  0  0  0  0  0  0  0  0  0  0
   56.7225   -4.3517  -10.8582 C   0  0  0  0  0  0  0  0  0  0  0  0
   55.7698   -3.7523  -11.7201 N   0  0  0  0  0  0  0  0  0  0  0  0
   55.0483   -4.3770  -12.1413 H   0  0  0  0  0  0  0  0  0  0  0  0
   55.7638   -2.7346  -11.9432 H   0  0  0  0  0  0  0  0  0  0  0  0
  1  2  1  0  0  0
  2  3  1  0  0  0
  3  4  2  0  0  0
  4 15  1  0  0  0
 15 16  1  0  0  0
 15 17  2  0  0  0
  4  5  1  0  0  0
  5  6  1  0  0  0
  6  7  1  0  0  0
  7  8  1  0  0  0
  8  9  2  0  0  0
  9 10  1  0  0  0
 10 11  2  0  0  0
 11 20  1  0  0  0
 20 22  1  0  0  0
 22 23  2  0  0  0
 23 24  1  0  0  0
 24 25  2  0  0  0
 25 26  1  0  0  0
 26 27  2  0  0  0
 27 28  1  0  0  0
 11 12  1  0  0  0
 12 13  2  0  0  0
 13 14  1  0  0  0
 14  2  1  0  0  0
 14  5  2  0  0  0
 13  8  1  0  0  0
 27 22  1  0  0  0
 16 18  1  0  0  0
 16 19  1  0  0  0
 20 21  1  0  0  0
 28 29  1  0  0  0
 28 30  1  0  0  0
M  END
> <minimizedAffinity>
-9.65278

> <CNNscore>
0.6291108131

> <CNNaffinity>
7.0776925087

> <CNN_VS>
4.4526529312

> <CNNaffinity_variance>
0.1691148281

$$$$
[H]c1nc(N([H])c2c([H])c([H])c([H])c([H])c2N([H])[H])nc2c1C([H])([H])C([H])([H])c1c(C(=O)N([H])[H])nn(C([H])([H])[H])c1-2


 30 33  0  0  0  0  0  0  0  0999 V2000
   53.9943   -6.2182   -5.3066 C   0  0  0  0  0  0  0  0  0  0  0  0
   53.4127   -5.3231   -6.2857 N   0  0  0  0  0  0  0  0  0  0  0  0
   53.8825   -4.9018   -7.4268 N   0  0  0  0  0  0  0  0  0  0  0  0
   53.0242   -4.0743   -8.0398 C   0  0  0  0  0  0  0  0  0  0  0  0
   51.8975   -3.9506   -7.2196 C   0  0  0  0  0  0  0  0  0  0  0  0
   50.6416   -3.2292   -7.3445 C   0  0  0  0  0  0  0  0  0  0  0  0
   49.7090   -3.1963   -6.2007 C   0  0  0  0  0  0  0  0  0  0  0  0
   50.0208   -4.1126   -5.0994 C   0  0  0  0  0  0  0  0  0  0  0  0
   49.1471   -4.2922   -4.0226 C   0  0  0  0  0  0  0  0  0  0  0  0
   49.4952   -5.1201   -3.0261 N   0  0  0  0  0  0  0  0  0  0  0  0
   50.6236   -5.8002   -2.9716 C   0  0  0  0  0  0  0  0  0  0  0  0
   51.4636   -5.6076   -4.0400 N   0  0  0  0  0  0  0  0  0  0  0  0
   51.1918   -4.8047   -5.0673 C   0  0  0  0  0  0  0  0  0  0  0  0
   52.1826   -4.7416   -6.1422 C   0  0  0  0  0  0  0  0  0  0  0  0
   53.1815   -3.4092   -9.3061 C   0  0  0  0  0  0  0  0  0  0  0  0
   54.3818   -3.5902  -10.0352 N   0  0  0  0  0  0  0  0  0  0  0  0
   52.2710   -2.6727   -9.7712 O   0  0  0  0  0  0  0  0  0  0  0  0
   55.1235   -2.8689   -9.9952 H   0  0  0  0  0  0  0  0  0  0  0  0
   54.5235   -4.4400  -10.6091 H   0  0  0  0  0  0  0  0  0  0  0  0
   51.0581   -6.6849   -1.9623 N   0  0  0  0  0  0  0  0  0  0  0  0
   50.3277   -7.4180   -1.6363 H   0  0  0  0  0  0  0  0  0  0  0  0
   52.2842   -6.7600   -1.3202 C   0  0  0  0  0  0  0  0  0  0  0  0
   52.9863   -5.6878   -0.8682 C   0  0  0  0  0  0  0  0  0  0  0  0
   54.2237   -5.8447   -0.2261 C   0  0  0  0  0  0  0  0  0  0  0  0
   54.7746   -7.0823   -0.0285 C   0  0  0  0  0  0  0  0  0  0  0  0
   54.0934   -8.1670   -0.4705 C   0  0  0  0  0  0  0  0  0  0  0  0
   52.8834   -8.0053   -1.0976 C   0  0  0  0  0  0  0  0  0  0  0  0
   52.2104   -9.1714   -1.5415 N   0  0  0  0  0  0  0  0  0  0  0  0
   51.4221   -9.5198   -0.9536 H   0  0  0  0  0  0  0  0  0  0  0  0
   52.4681   -9.6815   -2.4126 H   0  0  0  0  0  0  0  0  0  0  0  0
  1  2  1  0  0  0
  2  3  1  0  0  0
  3  4  2  0  0  0
  4 15  1  0  0  0
 15 16  1  0  0  0
 15 17  2  0  0  0
  4  5  1  0  0  0
  5  6  1  0  0  0
  6  7  1  0  0  0
  7  8  1  0  0  0
  8  9  2  0  0  0
  9 10  1  0  0  0
 10 11  2  0  0  0
 11 20  1  0  0  0
 20 22  1  0  0  0
 22 23  2  0  0  0
 23 24  1  0  0  0
 24 25  2  0  0  0
 25 26  1  0  0  0
 26 27  2  0  0  0
 27 28  1  0  0  0
 11 12  1  0  0  0
 12 13  2  0  0  0
 13 14  1  0  0  0
 14  2  1  0  0  0
 14  5  2  0  0  0
 13  8  1  0  0  0
 27 22  1  0  0  0
 16 18  1  0  0  0
 16 19  1  0  0  0
 20 21  1  0  0  0
 28 29  1  0  0  0
 28 30  1  0  0  0
M  END
> <minimizedAffinity>
-9.65104

> <CNNscore>
0.5066975951

> <CNNaffinity>
6.8112306595

> <CNN_VS>
3.4512341022

> <CNNaffinity_variance>
0.3635352850

$$$$
[H]c1nc(N([H])c2c([H])c([H])c([H])c([H])c2N([H])[H])nc2c1C([H])([H])C([H])([H])c1c(C(=O)N([H])[H])nn(C([H])([H])[H])c1-2


 30 33  0  0  0  0  0  0  0  0999 V2000
   52.0494   -2.8747   -9.1250 C   0  0  0  0  0  0  0  0  0  0  0  0
   51.6768   -3.4322   -7.8412 N   0  0  0  0  0  0  0  0  0  0  0  0
   50.5712   -3.3144   -7.1598 N   0  0  0  0  0  0  0  0  0  0  0  0
   50.6267   -3.9940   -6.0056 C   0  0  0  0  0  0  0  0  0  0  0  0
   51.8826   -4.6068   -5.9360 C   0  0  0  0  0  0  0  0  0  0  0  0
   52.5189   -5.4798   -4.9633 C   0  0  0  0  0  0  0  0  0  0  0  0
   53.9418   -5.8353   -5.1314 C   0  0  0  0  0  0  0  0  0  0  0  0
   54.5404   -5.4703   -6.4191 C   0  0  0  0  0  0  0  0  0  0  0  0
   55.8321   -5.8747   -6.7703 C   0  0  0  0  0  0  0  0  0  0  0  0
   56.3433   -5.4874   -7.9486 N   0  0  0  0  0  0  0  0  0  0  0  0
   55.7151   -4.7361   -8.8315 C   0  0  0  0  0  0  0  0  0  0  0  0
   54.4493   -4.3530   -8.4640 N   0  0  0  0  0  0  0  0  0  0  0  0
   53.8706   -4.6950   -7.3144 C   0  0  0  0  0  0  0  0  0  0  0  0
   52.5006   -4.2302   -7.0953 C   0  0  0  0  0  0  0  0  0  0  0  0
   49.6128   -4.1066   -4.9907 C   0  0  0  0  0  0  0  0  0  0  0  0
   49.5725   -5.2688   -4.1829 N   0  0  0  0  0  0  0  0  0  0  0  0
   48.7662   -3.1905   -4.8131 O   0  0  0  0  0  0  0  0  0  0  0  0
   48.9002   -6.0255   -4.4007 H   0  0  0  0  0  0  0  0  0  0  0  0
   50.2115   -5.3678   -3.3744 H   0  0  0  0  0  0  0  0  0  0  0  0
   56.1846   -4.2897  -10.0847 N   0  0  0  0  0  0  0  0  0  0  0  0
   55.4777   -3.7113  -10.6704 H   0  0  0  0  0  0  0  0  0  0  0  0
   57.4195   -4.4794  -10.6849 C   0  0  0  0  0  0  0  0  0  0  0  0
   58.4007   -5.2824  -10.1959 C   0  0  0  0  0  0  0  0  0  0  0  0
   59.6272   -5.4234  -10.8623 C   0  0  0  0  0  0  0  0  0  0  0  0
   59.8862   -4.7589  -12.0309 C   0  0  0  0  0  0  0  0  0  0  0  0
   58.9232   -3.9519  -12.5385 C   0  0  0  0  0  0  0  0  0  0  0  0
   57.7260   -3.8194  -11.8807 C   0  0  0  0  0  0  0  0  0  0  0  0
   56.7514   -2.9634  -12.4527 N   0  0  0  0  0  0  0  0  0  0  0  0
   55.9710   -3.4137  -12.9784 H   0  0  0  0  0  0  0  0  0  0  0  0
   56.7851   -1.9254  -12.3694 H   0  0  0  0  0  0  0  0  0  0  0  0
  1  2  1  0  0  0
  2  3  1  0  0  0
  3  4  2  0  0  0
  4 15  1  0  0  0
 15 16  1  0  0  0
 15 17  2  0  0  0
  4  5  1  0  0  0
  5  6  1  0  0  0
  6  7  1  0  0  0
  7  8  1  0  0  0
  8  9  2  0  0  0
  9 10  1  0  0  0
 10 11  2  0  0  0
 11 20  1  0  0  0
 20 22  1  0  0  0
 22 23  2  0  0  0
 23 24  1  0  0  0
 24 25  2  0  0  0
 25 26  1  0  0  0
 26 27  2  0  0  0
 27 28  1  0  0  0
 11 12  1  0  0  0
 12 13  2  0  0  0
 13 14  1  0  0  0
 14  2  1  0  0  0
 14  5  2  0  0  0
 13  8  1  0  0  0
 27 22  1  0  0  0
 16 18  1  0  0  0
 16 19  1  0  0  0
 20 21  1  0  0  0
 28 29  1  0  0  0
 28 30  1  0  0  0
M  END
> <minimizedAffinity>
-7.09314

> <CNNscore>
0.4658507109

> <CNNaffinity>
6.7230858803

> <CNN_VS>
3.1319544315

> <CNNaffinity_variance>
0.3418926597

$$$$
[H]c1nc(N([H])[H])nc(-c2c([H])c([H])c3c(nc([H])n3-c3sc(C(=O)N([H])[H])c(O[C@@]([H])(c4c([H])c([H])c([H])c([H])c4C(F)(F)F)C([H])([H])[H])c3[H])c2[H])c1[H]


 41 45  0  0  0  0  0  0  0  0999 V2000
   56.8942   -4.6058  -11.3596 C   0  0  0  0  0  0  0  0  0  0  0  0
   55.6626   -4.1381  -11.1126 C   0  0  0  0  0  0  0  0  0  0  0  0
   55.2561   -4.0899   -9.8013 C   0  0  0  0  0  0  0  0  0  0  0  0
   56.6057   -4.6981   -8.9603 S   0  0  0  0  0  0  0  0  0  0  0  0
   57.6436   -4.9965  -10.2803 C   0  0  0  0  0  0  0  0  0  0  0  0
   53.9802   -3.6296   -9.2971 N   0  0  0  0  0  0  0  0  0  0  0  0
   53.1387   -2.7280   -9.8232 C   0  0  0  0  0  0  0  0  0  0  0  0
   52.0574   -2.5891   -9.0372 N   0  0  0  0  0  0  0  0  0  0  0  0
   52.2021   -3.4139   -7.9863 C   0  0  0  0  0  0  0  0  0  0  0  0
   51.4406   -3.7097   -6.8688 C   0  0  0  0  0  0  0  0  0  0  0  0
   51.8325   -4.6300   -5.9060 C   0  0  0  0  0  0  0  0  0  0  0  0
   53.0368   -5.2539   -6.1082 C   0  0  0  0  0  0  0  0  0  0  0  0
   53.8335   -4.9849   -7.2195 C   0  0  0  0  0  0  0  0  0  0  0  0
   53.4057   -4.0664   -8.1472 C   0  0  0  0  0  0  0  0  0  0  0  0
   50.9723   -4.8886   -4.7530 C   0  0  0  0  0  0  0  0  0  0  0  0
   49.6878   -4.4328   -4.6852 C   0  0  0  0  0  0  0  0  0  0  0  0
   48.9544   -4.7377   -3.5349 C   0  0  0  0  0  0  0  0  0  0  0  0
   49.4715   -5.4426   -2.5367 N   0  0  0  0  0  0  0  0  0  0  0  0
   50.7476   -5.8958   -2.6035 C   0  0  0  0  0  0  0  0  0  0  0  0
   51.2621   -6.6435   -1.5197 N   0  0  0  0  0  0  0  0  0  0  0  0
   51.4471   -5.6035   -3.7032 N   0  0  0  0  0  0  0  0  0  0  0  0
   51.7066   -6.1493   -0.7306 H   0  0  0  0  0  0  0  0  0  0  0  0
   51.1980   -7.6729   -1.5088 H   0  0  0  0  0  0  0  0  0  0  0  0
   59.0232   -5.5460  -10.2722 C   0  0  0  0  0  0  0  0  0  0  0  0
   59.4025   -6.4525   -9.2569 N   0  0  0  0  0  0  0  0  0  0  0  0
   59.8119   -5.1959  -11.1586 O   0  0  0  0  0  0  0  0  0  0  0  0
   59.0945   -6.3560   -8.2488 H   0  0  0  0  0  0  0  0  0  0  0  0
   60.0131   -7.2689   -9.4634 H   0  0  0  0  0  0  0  0  0  0  0  0
   57.4548   -4.7167  -12.6544 O   0  0  0  0  0  0  0  0  0  0  0  0
   56.2581   -5.4270  -14.4928 C   0  0  0  0  0  0  0  0  0  0  0  0
   56.8799   -4.1595  -13.8190 C   0  0  0  0  0  0  0  0  0  0  0  0
   57.9398   -3.6222  -14.6735 C   0  0  0  0  0  0  0  0  0  0  0  0
   59.2706   -3.6019  -14.1865 C   0  0  0  0  0  0  0  0  0  0  0  0
   60.3175   -3.1102  -14.9254 C   0  0  0  0  0  0  0  0  0  0  0  0
   60.0716   -2.6198  -16.1811 C   0  0  0  0  0  0  0  0  0  0  0  0
   58.7954   -2.6385  -16.6496 C   0  0  0  0  0  0  0  0  0  0  0  0
   57.6960   -3.1336  -15.9241 C   0  0  0  0  0  0  0  0  0  0  0  0
   56.3692   -3.1036  -16.5207 C   0  0  0  0  0  0  0  0  0  0  0  0
   56.0690   -4.2278  -17.3050 F   0  0  0  0  0  0  0  0  0  0  0  0
   55.3434   -2.6974  -15.7285 F   0  0  0  0  0  0  0  0  0  0  0  0
   56.3988   -2.0891  -17.5299 F   0  0  0  0  0  0  0  0  0  0  0  0
 30 31  1  0  0  0
 31 29  1  0  0  0
 29  1  1  0  0  0
  1  2  1  0  0  0
  2  3  2  0  0  0
  3  4  1  0  0  0
  4  5  1  0  0  0
  5 24  1  0  0  0
 24 25  1  0  0  0
 24 26  2  0  0  0
  3  6  1  0  0  0
  6  7  1  0  0  0
  7  8  2  0  0  0
  8  9  1  0  0  0
  9 10  2  0  0  0
 10 11  1  0  0  0
 11 12  2  0  0  0
 12 13  1  0  0  0
 13 14  2  0  0  0
 11 15  1  0  0  0
 15 16  2  0  0  0
 16 17  1  0  0  0
 17 18  2  0  0  0
 18 19  1  0  0  0
 19 20  1  0  0  0
 19 21  2  0  0  0
 31 32  1  0  0  0
 32 33  2  0  0  0
 33 34  1  0  0  0
 34 35  2  0  0  0
 35 36  1  0  0  0
 36 37  2  0  0  0
 37 38  1  0  0  0
 38 39  1  0  0  0
 38 40  1  0  0  0
 38 41  1  0  0  0
  5  1  2  0  0  0
 14  6  1  0  0  0
 21 15  1  0  0  0
 37 32  1  0  0  0
 14  9  1  0  0  0
 25 27  1  0  0  0
 25 28  1  0  0  0
 20 22  1  0  0  0
 20 23  1  0  0  0
M  END
> <minimizedAffinity>
-9.52906

> <CNNscore>
0.6733083129

> <CNNaffinity>
7.4857940674

> <CNN_VS>
5.0402474403

> <CNNaffinity_variance>
0.0608801544

$$$$
[H]c1nc(N([H])[H])nc(-c2c([H])c([H])c3c(nc([H])n3-c3sc(C(=O)N([H])[H])c(O[C@@]([H])(c4c([H])c([H])c([H])c([H])c4C(F)(F)F)C([H])([H])[H])c3[H])c2[H])c1[H]


 41 45  0  0  0  0  0  0  0  0999 V2000
   57.3355   -4.8264  -11.0744 C   0  0  0  0  0  0  0  0  0  0  0  0
   56.0889   -4.3563  -10.9278 C   0  0  0  0  0  0  0  0  0  0  0  0
   55.5760   -4.3119   -9.6542 C   0  0  0  0  0  0  0  0  0  0  0  0
   56.8501   -4.9271   -8.7074 S   0  0  0  0  0  0  0  0  0  0  0  0
   57.9925   -5.2234   -9.9386 C   0  0  0  0  0  0  0  0  0  0  0  0
   54.2639   -3.8500   -9.2550 N   0  0  0  0  0  0  0  0  0  0  0  0
   53.4365   -3.0052   -9.8871 C   0  0  0  0  0  0  0  0  0  0  0  0
   52.3089   -2.8407   -9.1745 N   0  0  0  0  0  0  0  0  0  0  0  0
   52.4088   -3.5910   -8.0642 C   0  0  0  0  0  0  0  0  0  0  0  0
   51.5899   -3.8306   -6.9743 C   0  0  0  0  0  0  0  0  0  0  0  0
   51.9436   -4.6760   -5.9312 C   0  0  0  0  0  0  0  0  0  0  0  0
   53.1699   -5.2829   -6.0228 C   0  0  0  0  0  0  0  0  0  0  0  0
   54.0242   -5.0687   -7.1028 C   0  0  0  0  0  0  0  0  0  0  0  0
   53.6325   -4.2237   -8.1127 C   0  0  0  0  0  0  0  0  0  0  0  0
   51.0233   -4.8786   -4.8140 C   0  0  0  0  0  0  0  0  0  0  0  0
   49.7737   -4.3307   -4.7906 C   0  0  0  0  0  0  0  0  0  0  0  0
   48.9766   -4.5887   -3.6717 C   0  0  0  0  0  0  0  0  0  0  0  0
   49.4024   -5.3359   -2.6612 N   0  0  0  0  0  0  0  0  0  0  0  0
   50.6438   -5.8805   -2.6839 C   0  0  0  0  0  0  0  0  0  0  0  0
   51.0608   -6.6707   -1.5884 N   0  0  0  0  0  0  0  0  0  0  0  0
   51.4043   -5.6330   -3.7537 N   0  0  0  0  0  0  0  0  0  0  0  0
   51.5094   -6.2154   -0.7786 H   0  0  0  0  0  0  0  0  0  0  0  0
   50.9216   -7.6928   -1.5894 H   0  0  0  0  0  0  0  0  0  0  0  0
   59.3654   -5.7767   -9.8191 C   0  0  0  0  0  0  0  0  0  0  0  0
   59.7514   -6.4211   -8.6224 N   0  0  0  0  0  0  0  0  0  0  0  0
   60.1426   -5.6603  -10.7744 O   0  0  0  0  0  0  0  0  0  0  0  0
   59.4623   -6.0823   -7.6621 H   0  0  0  0  0  0  0  0  0  0  0  0
   60.3486   -7.2726   -8.6367 H   0  0  0  0  0  0  0  0  0  0  0  0
   58.0006   -4.9340  -12.3190 O   0  0  0  0  0  0  0  0  0  0  0  0
   58.3093   -2.6699  -12.0104 C   0  0  0  0  0  0  0  0  0  0  0  0
   58.6503   -3.8594  -12.9676 C   0  0  0  0  0  0  0  0  0  0  0  0
   58.0262   -3.6316  -14.2717 C   0  0  0  0  0  0  0  0  0  0  0  0
   56.6301   -3.8331  -14.4096 C   0  0  0  0  0  0  0  0  0  0  0  0
   55.9732   -3.6448  -15.5999 C   0  0  0  0  0  0  0  0  0  0  0  0
   56.6897   -3.2472  -16.6983 C   0  0  0  0  0  0  0  0  0  0  0  0
   58.0290   -3.0536  -16.5675 C   0  0  0  0  0  0  0  0  0  0  0  0
   58.7387   -3.2356  -15.3661 C   0  0  0  0  0  0  0  0  0  0  0  0
   60.1748   -3.0027  -15.3376 C   0  0  0  0  0  0  0  0  0  0  0  0
   60.7333   -2.7191  -16.5933 F   0  0  0  0  0  0  0  0  0  0  0  0
   60.6556   -2.2235  -14.3344 F   0  0  0  0  0  0  0  0  0  0  0  0
   60.7875   -4.2673  -15.0656 F   0  0  0  0  0  0  0  0  0  0  0  0
 30 31  1  0  0  0
 31 29  1  0  0  0
 29  1  1  0  0  0
  1  2  1  0  0  0
  2  3  2  0  0  0
  3  4  1  0  0  0
  4  5  1  0  0  0
  5 24  1  0  0  0
 24 25  1  0  0  0
 24 26  2  0  0  0
  3  6  1  0  0  0
  6  7  1  0  0  0
  7  8  2  0  0  0
  8  9  1  0  0  0
  9 10  2  0  0  0
 10 11  1  0  0  0
 11 12  2  0  0  0
 12 13  1  0  0  0
 13 14  2  0  0  0
 11 15  1  0  0  0
 15 16  2  0  0  0
 16 17  1  0  0  0
 17 18  2  0  0  0
 18 19  1  0  0  0
 19 20  1  0  0  0
 19 21  2  0  0  0
 31 32  1  0  0  0
 32 33  2  0  0  0
 33 34  1  0  0  0
 34 35  2  0  0  0
 35 36  1  0  0  0
 36 37  2  0  0  0
 37 38  1  0  0  0
 38 39  1  0  0  0
 38 40  1  0  0  0
 38 41  1  0  0  0
  5  1  2  0  0  0
 14  6  1  0  0  0
 21 15  1  0  0  0
 37 32  1  0  0  0
 14  9  1  0  0  0
 25 27  1  0  0  0
 25 28  1  0  0  0
 20 22  1  0  0  0
 20 23  1  0  0  0
M  END
> <minimizedAffinity>
-9.20809

> <CNNscore>
0.5880735517

> <CNNaffinity>
7.3752975464

> <CNN_VS>
4.3372173309

> <CNNaffinity_variance>
0.0925786346

$$$$
[H]c1nc(N([H])[H])nc(-c2c([H])c([H])c3c(nc([H])n3-c3sc(C(=O)N([H])[H])c(O[C@@]([H])(c4c([H])c([H])c([H])c([H])c4C(F)(F)F)C([H])([H])[H])c3[H])c2[H])c1[H]


 41 45  0  0  0  0  0  0  0  0999 V2000
   51.1252   -5.2004   -4.6860 C   0  0  0  0  0  0  0  0  0  0  0  0
   51.9489   -4.9709   -5.7181 C   0  0  0  0  0  0  0  0  0  0  0  0
   51.5481   -4.0480   -6.6534 C   0  0  0  0  0  0  0  0  0  0  0  0
   50.0376   -3.5337   -6.0598 S   0  0  0  0  0  0  0  0  0  0  0  0
   49.9514   -4.4931   -4.6525 C   0  0  0  0  0  0  0  0  0  0  0  0
   52.2637   -3.6409   -7.8435 N   0  0  0  0  0  0  0  0  0  0  0  0
   51.8727   -2.8137   -8.8236 C   0  0  0  0  0  0  0  0  0  0  0  0
   52.8404   -2.7020   -9.7496 N   0  0  0  0  0  0  0  0  0  0  0  0
   53.8734   -3.4691   -9.3620 C   0  0  0  0  0  0  0  0  0  0  0  0
   55.1220   -3.7574   -9.8852 C   0  0  0  0  0  0  0  0  0  0  0  0
   56.0258   -4.6097   -9.2652 C   0  0  0  0  0  0  0  0  0  0  0  0
   55.6247   -5.1722   -8.0806 C   0  0  0  0  0  0  0  0  0  0  0  0
   54.3765   -4.9082   -7.5199 C   0  0  0  0  0  0  0  0  0  0  0  0
   53.5141   -4.0580   -8.1686 C   0  0  0  0  0  0  0  0  0  0  0  0
   57.3269   -4.8640   -9.8806 C   0  0  0  0  0  0  0  0  0  0  0  0
   57.6378   -4.4261  -11.1352 C   0  0  0  0  0  0  0  0  0  0  0  0
   58.9117   -4.7261  -11.6264 C   0  0  0  0  0  0  0  0  0  0  0  0
   59.7980   -5.4096  -10.9137 N   0  0  0  0  0  0  0  0  0  0  0  0
   59.4897   -5.8449   -9.6672 C   0  0  0  0  0  0  0  0  0  0  0  0
   60.4610   -6.5698   -8.9396 N   0  0  0  0  0  0  0  0  0  0  0  0
   58.2720   -5.5576   -9.1993 N   0  0  0  0  0  0  0  0  0  0  0  0
   60.5154   -7.5940   -9.0507 H   0  0  0  0  0  0  0  0  0  0  0  0
   61.1134   -6.0882   -8.3020 H   0  0  0  0  0  0  0  0  0  0  0  0
   48.8722   -4.5547   -3.6343 C   0  0  0  0  0  0  0  0  0  0  0  0
   47.6729   -3.8396   -3.8509 N   0  0  0  0  0  0  0  0  0  0  0  0
   49.0488   -5.2338   -2.6155 O   0  0  0  0  0  0  0  0  0  0  0  0
   47.6437   -2.8745   -4.2849 H   0  0  0  0  0  0  0  0  0  0  0  0
   46.7504   -4.2410   -3.5868 H   0  0  0  0  0  0  0  0  0  0  0  0
   51.3968   -6.1193   -3.6445 O   0  0  0  0  0  0  0  0  0  0  0  0
   53.4638   -6.9890   -4.1806 C   0  0  0  0  0  0  0  0  0  0  0  0
   52.6633   -6.2809   -3.0383 C   0  0  0  0  0  0  0  0  0  0  0  0
   52.5413   -7.1853   -1.8940 C   0  0  0  0  0  0  0  0  0  0  0  0
   51.4441   -8.0807   -1.8402 C   0  0  0  0  0  0  0  0  0  0  0  0
   51.2581   -8.9554   -0.7990 C   0  0  0  0  0  0  0  0  0  0  0  0
   52.1645   -8.9669    0.2287 C   0  0  0  0  0  0  0  0  0  0  0  0
   53.2175   -8.1084    0.1785 C   0  0  0  0  0  0  0  0  0  0  0  0
   53.4433   -7.1976   -0.8701 C   0  0  0  0  0  0  0  0  0  0  0  0
   54.6032   -6.3202   -0.8224 C   0  0  0  0  0  0  0  0  0  0  0  0
   54.3940   -5.0629   -1.4094 F   0  0  0  0  0  0  0  0  0  0  0  0
   55.2953   -6.2724    0.3453 F   0  0  0  0  0  0  0  0  0  0  0  0
   55.5662   -6.8678   -1.7287 F   0  0  0  0  0  0  0  0  0  0  0  0
 30 31  1  0  0  0
 31 29  1  0  0  0
 29  1  1  0  0  0
  1  2  1  0  0  0
  2  3  2  0  0  0
  3  4  1  0  0  0
  4  5  1  0  0  0
  5 24  1  0  0  0
 24 25  1  0  0  0
 24 26  2  0  0  0
  3  6  1  0  0  0
  6  7  1  0  0  0
  7  8  2  0  0  0
  8  9  1  0  0  0
  9 10  2  0  0  0
 10 11  1  0  0  0
 11 12  2  0  0  0
 12 13  1  0  0  0
 13 14  2  0  0  0
 11 15  1  0  0  0
 15 16  2  0  0  0
 16 17  1  0  0  0
 17 18  2  0  0  0
 18 19  1  0  0  0
 19 20  1  0  0  0
 19 21  2  0  0  0
 31 32  1  0  0  0
 32 33  2  0  0  0
 33 34  1  0  0  0
 34 35  2  0  0  0
 35 36  1  0  0  0
 36 37  2  0  0  0
 37 38  1  0  0  0
 38 39  1  0  0  0
 38 40  1  0  0  0
 38 41  1  0  0  0
  5  1  2  0  0  0
 14  6  1  0  0  0
 21 15  1  0  0  0
 37 32  1  0  0  0
 14  9  1  0  0  0
 25 27  1  0  0  0
 25 28  1  0  0  0
 20 22  1  0  0  0
 20 23  1  0  0  0
M  END
> <minimizedAffinity>
-9.76172

> <CNNscore>
0.5195239186

> <CNNaffinity>
7.7459130287

> <CNN_VS>
4.0241870880

> <CNNaffinity_variance>
0.1853915751

$$$$
[H]c1nc(N([H])[H])nc(-c2c([H])c([H])c3c(nc([H])n3-c3sc(C(=O)N([H])[H])c(O[C@@]([H])(c4c([H])c([H])c([H])c([H])c4C(F)(F)F)C([H])([H])[H])c3[H])c2[H])c1[H]


 41 45  0  0  0  0  0  0  0  0999 V2000
   52.8821   -4.1480   -7.5303 C   0  0  0  0  0  0  0  0  0  0  0  0
   54.0463   -4.4928   -8.0980 C   0  0  0  0  0  0  0  0  0  0  0  0
   54.3284   -3.9625   -9.3334 C   0  0  0  0  0  0  0  0  0  0  0  0
   52.9606   -3.0025   -9.6586 S   0  0  0  0  0  0  0  0  0  0  0  0
   52.0716   -3.2942   -8.2327 C   0  0  0  0  0  0  0  0  0  0  0  0
   55.5119   -4.1913  -10.1342 N   0  0  0  0  0  0  0  0  0  0  0  0
   55.7098   -3.9502  -11.4382 C   0  0  0  0  0  0  0  0  0  0  0  0
   56.9564   -4.3072  -11.7916 N   0  0  0  0  0  0  0  0  0  0  0  0
   57.5741   -4.7866  -10.6989 C   0  0  0  0  0  0  0  0  0  0  0  0
   58.8348   -5.2951  -10.4375 C   0  0  0  0  0  0  0  0  0  0  0  0
   59.2297   -5.7349   -9.1812 C   0  0  0  0  0  0  0  0  0  0  0  0
   58.2980   -5.6446   -8.1791 C   0  0  0  0  0  0  0  0  0  0  0  0
   57.0183   -5.1389   -8.4001 C   0  0  0  0  0  0  0  0  0  0  0  0
   56.6711   -4.7150   -9.6598 C   0  0  0  0  0  0  0  0  0  0  0  0
   60.5798   -6.2590   -8.9842 C   0  0  0  0  0  0  0  0  0  0  0  0
   61.4648   -6.3986  -10.0136 C   0  0  0  0  0  0  0  0  0  0  0  0
   62.7299   -6.9110   -9.7123 C   0  0  0  0  0  0  0  0  0  0  0  0
   63.0747   -7.2539   -8.4778 N   0  0  0  0  0  0  0  0  0  0  0  0
   62.1959   -7.1155   -7.4546 C   0  0  0  0  0  0  0  0  0  0  0  0
   62.6009   -7.4920   -6.1536 N   0  0  0  0  0  0  0  0  0  0  0  0
   60.9874   -6.6259   -7.7442 N   0  0  0  0  0  0  0  0  0  0  0  0
   62.4730   -8.4688   -5.8473 H   0  0  0  0  0  0  0  0  0  0  0  0
   63.0214   -6.8041   -5.5102 H   0  0  0  0  0  0  0  0  0  0  0  0
   50.7432   -2.7594   -7.8398 C   0  0  0  0  0  0  0  0  0  0  0  0
   50.5501   -1.3611   -7.7754 N   0  0  0  0  0  0  0  0  0  0  0  0
   49.8322   -3.5539   -7.5770 O   0  0  0  0  0  0  0  0  0  0  0  0
   51.2823   -0.6911   -7.4074 H   0  0  0  0  0  0  0  0  0  0  0  0
   49.6615   -0.9241   -8.0936 H   0  0  0  0  0  0  0  0  0  0  0  0
   52.4502   -4.6102   -6.2642 O   0  0  0  0  0  0  0  0  0  0  0  0
   51.1862   -6.5249   -6.4938 C   0  0  0  0  0  0  0  0  0  0  0  0
   52.4979   -5.9618   -5.8537 C   0  0  0  0  0  0  0  0  0  0  0  0
   52.3979   -6.0292   -4.3951 C   0  0  0  0  0  0  0  0  0  0  0  0
   53.4777   -6.5751   -3.6571 C   0  0  0  0  0  0  0  0  0  0  0  0
   53.4572   -6.6767   -2.2885 C   0  0  0  0  0  0  0  0  0  0  0  0
   52.3538   -6.2352   -1.6062 C   0  0  0  0  0  0  0  0  0  0  0  0
   51.3171   -5.7114   -2.3128 C   0  0  0  0  0  0  0  0  0  0  0  0
   51.2997   -5.5898   -3.7146 C   0  0  0  0  0  0  0  0  0  0  0  0
   50.1351   -5.0155   -4.3715 C   0  0  0  0  0  0  0  0  0  0  0  0
   50.3169   -3.6933   -4.8049 F   0  0  0  0  0  0  0  0  0  0  0  0
   49.4785   -5.8004   -5.2646 F   0  0  0  0  0  0  0  0  0  0  0  0
   49.1492   -4.8169   -3.3532 F   0  0  0  0  0  0  0  0  0  0  0  0
 30 31  1  0  0  0
 31 29  1  0  0  0
 29  1  1  0  0  0
  1  2  1  0  0  0
  2  3  2  0  0  0
  3  4  1  0  0  0
  4  5  1  0  0  0
  5 24  1  0  0  0
 24 25  1  0  0  0
 24 26  2  0  0  0
  3  6  1  0  0  0
  6  7  1  0  0  0
  7  8  2  0  0  0
  8  9  1  0  0  0
  9 10  2  0  0  0
 10 11  1  0  0  0
 11 12  2  0  0  0
 12 13  1  0  0  0
 13 14  2  0  0  0
 11 15  1  0  0  0
 15 16  2  0  0  0
 16 17  1  0  0  0
 17 18  2  0  0  0
 18 19  1  0  0  0
 19 20  1  0  0  0
 19 21  2  0  0  0
 31 32  1  0  0  0
 32 33  2  0  0  0
 33 34  1  0  0  0
 34 35  2  0  0  0
 35 36  1  0  0  0
 36 37  2  0  0  0
 37 38  1  0  0  0
 38 39  1  0  0  0
 38 40  1  0  0  0
 38 41  1  0  0  0
  5  1  2  0  0  0
 14  6  1  0  0  0
 21 15  1  0  0  0
 37 32  1  0  0  0
 14  9  1  0  0  0
 25 27  1  0  0  0
 25 28  1  0  0  0
 20 22  1  0  0  0
 20 23  1  0  0  0
M  END
> <minimizedAffinity>
-10.08440

> <CNNscore>
0.4516612291

> <CNNaffinity>
7.6119279861

> <CNN_VS>
3.4380128384

> <CNNaffinity_variance>
0.1911643893

$$$$
[H]c1nc(N([H])[H])nc(-c2c([H])c([H])c3c(nc([H])n3-c3sc(C(=O)N([H])[H])c(O[C@@]([H])(c4c([H])c([H])c([H])c([H])c4C(F)(F)F)C([H])([H])[H])c3[H])c2[H])c1[H]


 41 45  0  0  0  0  0  0  0  0999 V2000
   52.5980   -4.0631   -7.4096 C   0  0  0  0  0  0  0  0  0  0  0  0
   53.7003   -4.4416   -8.0716 C   0  0  0  0  0  0  0  0  0  0  0  0
   53.9714   -3.8098   -9.2609 C   0  0  0  0  0  0  0  0  0  0  0  0
   52.6798   -2.7111   -9.4130 S   0  0  0  0  0  0  0  0  0  0  0  0
   51.8346   -3.0763   -7.9774 C   0  0  0  0  0  0  0  0  0  0  0  0
   55.0924   -4.0504  -10.1439 N   0  0  0  0  0  0  0  0  0  0  0  0
   55.1939   -3.8256  -11.4618 C   0  0  0  0  0  0  0  0  0  0  0  0
   56.4108   -4.1890  -11.9017 N   0  0  0  0  0  0  0  0  0  0  0  0
   57.1070   -4.6561  -10.8515 C   0  0  0  0  0  0  0  0  0  0  0  0
   58.3831   -5.1634  -10.6775 C   0  0  0  0  0  0  0  0  0  0  0  0
   58.8692   -5.5884   -9.4484 C   0  0  0  0  0  0  0  0  0  0  0  0
   58.0139   -5.4841   -8.3815 C   0  0  0  0  0  0  0  0  0  0  0  0
   56.7218   -4.9791   -8.5139 C   0  0  0  0  0  0  0  0  0  0  0  0
   56.2831   -4.5702   -9.7497 C   0  0  0  0  0  0  0  0  0  0  0  0
   60.2297   -6.1123   -9.3449 C   0  0  0  0  0  0  0  0  0  0  0  0
   60.7970   -6.4355   -8.1466 C   0  0  0  0  0  0  0  0  0  0  0  0
   62.1051   -6.9280   -8.1636 C   0  0  0  0  0  0  0  0  0  0  0  0
   62.7847   -7.0820   -9.2928 N   0  0  0  0  0  0  0  0  0  0  0  0
   62.2216   -6.7611  -10.4836 C   0  0  0  0  0  0  0  0  0  0  0  0
   62.9779   -6.9395  -11.6645 N   0  0  0  0  0  0  0  0  0  0  0  0
   60.9716   -6.2905  -10.4658 N   0  0  0  0  0  0  0  0  0  0  0  0
   63.5904   -6.1768  -11.9926 H   0  0  0  0  0  0  0  0  0  0  0  0
   62.9249   -7.8201  -12.1992 H   0  0  0  0  0  0  0  0  0  0  0  0
   50.5775   -2.4776   -7.4610 C   0  0  0  0  0  0  0  0  0  0  0  0
   49.6391   -3.2999   -6.7980 N   0  0  0  0  0  0  0  0  0  0  0  0
   50.3803   -1.2673   -7.6238 O   0  0  0  0  0  0  0  0  0  0  0  0
   49.4162   -4.2885   -7.1040 H   0  0  0  0  0  0  0  0  0  0  0  0
   49.1178   -2.9599   -5.9647 H   0  0  0  0  0  0  0  0  0  0  0  0
   52.1854   -4.6183   -6.1749 O   0  0  0  0  0  0  0  0  0  0  0  0
   50.8675   -6.5069   -6.2876 C   0  0  0  0  0  0  0  0  0  0  0  0
   52.2782   -5.9908   -5.8509 C   0  0  0  0  0  0  0  0  0  0  0  0
   52.4254   -6.1381   -4.4021 C   0  0  0  0  0  0  0  0  0  0  0  0
   51.2625   -6.1599   -3.5923 C   0  0  0  0  0  0  0  0  0  0  0  0
   51.3184   -6.2899   -2.2271 C   0  0  0  0  0  0  0  0  0  0  0  0
   52.5419   -6.4032   -1.6203 C   0  0  0  0  0  0  0  0  0  0  0  0
   53.6583   -6.3824   -2.3959 C   0  0  0  0  0  0  0  0  0  0  0  0
   53.6432   -6.2511   -3.7968 C   0  0  0  0  0  0  0  0  0  0  0  0
   54.8996   -6.2378   -4.5308 C   0  0  0  0  0  0  0  0  0  0  0  0
   55.1057   -7.3709   -5.3325 F   0  0  0  0  0  0  0  0  0  0  0  0
   55.2551   -5.0709   -5.1281 F   0  0  0  0  0  0  0  0  0  0  0  0
   55.9389   -6.4174   -3.5633 F   0  0  0  0  0  0  0  0  0  0  0  0
 30 31  1  0  0  0
 31 29  1  0  0  0
 29  1  1  0  0  0
  1  2  1  0  0  0
  2  3  2  0  0  0
  3  4  1  0  0  0
  4  5  1  0  0  0
  5 24  1  0  0  0
 24 25  1  0  0  0
 24 26  2  0  0  0
  3  6  1  0  0  0
  6  7  1  0  0  0
  7  8  2  0  0  0
  8  9  1  0  0  0
  9 10  2  0  0  0
 10 11  1  0  0  0
 11 12  2  0  0  0
 12 13  1  0  0  0
 13 14  2  0  0  0
 11 15  1  0  0  0
 15 16  2  0  0  0
 16 17  1  0  0  0
 17 18  2  0  0  0
 18 19  1  0  0  0
 19 20  1  0  0  0
 19 21  2  0  0  0
 31 32  1  0  0  0
 32 33  2  0  0  0
 33 34  1  0  0  0
 34 35  2  0  0  0
 35 36  1  0  0  0
 36 37  2  0  0  0
 37 38  1  0  0  0
 38 39  1  0  0  0
 38 40  1  0  0  0
 38 41  1  0  0  0
  5  1  2  0  0  0
 14  6  1  0  0  0
 21 15  1  0  0  0
 37 32  1  0  0  0
 14  9  1  0  0  0
 25 27  1  0  0  0
 25 28  1  0  0  0
 20 22  1  0  0  0
 20 23  1  0  0  0
M  END
> <minimizedAffinity>
-9.58430

> <CNNscore>
0.3627251685

> <CNNaffinity>
7.3754472733

> <CNN_VS>
2.6752603054

> <CNNaffinity_variance>
0.4614581168

$$$$
[H]c1nc(N([H])[H])nc(-c2c([H])c([H])c3c(nc([H])n3-c3sc(C(=O)N([H])[H])c(O[C@@]([H])(c4c([H])c([H])c([H])c([H])c4C(F)(F)F)C([H])([H])[H])c3[H])c2[H])c1[H]


 41 45  0  0  0  0  0  0  0  0999 V2000
   52.8258   -4.0744   -7.5740 C   0  0  0  0  0  0  0  0  0  0  0  0
   53.9645   -4.4770   -8.1552 C   0  0  0  0  0  0  0  0  0  0  0  0
   54.3038   -3.8938   -9.3517 C   0  0  0  0  0  0  0  0  0  0  0  0
   53.0233   -2.8052   -9.6229 S   0  0  0  0  0  0  0  0  0  0  0  0
   52.0965   -3.1134   -8.2248 C   0  0  0  0  0  0  0  0  0  0  0  0
   55.4740   -4.1676  -10.1578 N   0  0  0  0  0  0  0  0  0  0  0  0
   55.6584   -3.9777  -11.4723 C   0  0  0  0  0  0  0  0  0  0  0  0
   56.8958   -4.3639  -11.8274 N   0  0  0  0  0  0  0  0  0  0  0  0
   57.5213   -4.8104  -10.7251 C   0  0  0  0  0  0  0  0  0  0  0  0
   58.7786   -5.3253  -10.4604 C   0  0  0  0  0  0  0  0  0  0  0  0
   59.1839   -5.7232   -9.1934 C   0  0  0  0  0  0  0  0  0  0  0  0
   58.2663   -5.5835   -8.1840 C   0  0  0  0  0  0  0  0  0  0  0  0
   56.9904   -5.0697   -8.4081 C   0  0  0  0  0  0  0  0  0  0  0  0
   56.6325   -4.6884   -9.6785 C   0  0  0  0  0  0  0  0  0  0  0  0
   60.5297   -6.2572   -8.9936 C   0  0  0  0  0  0  0  0  0  0  0  0
   61.4209   -6.3895  -10.0185 C   0  0  0  0  0  0  0  0  0  0  0  0
   62.6811   -6.9126   -9.7148 C   0  0  0  0  0  0  0  0  0  0  0  0
   63.0155   -7.2722   -8.4821 N   0  0  0  0  0  0  0  0  0  0  0  0
   62.1305   -7.1410   -7.4634 C   0  0  0  0  0  0  0  0  0  0  0  0
   62.5245   -7.5352   -6.1642 N   0  0  0  0  0  0  0  0  0  0  0  0
   60.9267   -6.6411   -7.7552 N   0  0  0  0  0  0  0  0  0  0  0  0
   62.3891   -8.5149   -5.8705 H   0  0  0  0  0  0  0  0  0  0  0  0
   62.9444   -6.8574   -5.5098 H   0  0  0  0  0  0  0  0  0  0  0  0
   50.8117   -2.4970   -7.8068 C   0  0  0  0  0  0  0  0  0  0  0  0
   49.7314   -3.3292   -7.4369 N   0  0  0  0  0  0  0  0  0  0  0  0
   50.7167   -1.2637   -7.7919 O   0  0  0  0  0  0  0  0  0  0  0  0
   49.5007   -4.2350   -7.9337 H   0  0  0  0  0  0  0  0  0  0  0  0
   49.1052   -3.0799   -6.6446 H   0  0  0  0  0  0  0  0  0  0  0  0
   52.3424   -4.5797   -6.3435 O   0  0  0  0  0  0  0  0  0  0  0  0
   51.1038   -6.5112   -6.1168 C   0  0  0  0  0  0  0  0  0  0  0  0
   52.5314   -5.9088   -5.9017 C   0  0  0  0  0  0  0  0  0  0  0  0
   52.8496   -5.9042   -4.4730 C   0  0  0  0  0  0  0  0  0  0  0  0
   51.7890   -5.9217   -3.5331 C   0  0  0  0  0  0  0  0  0  0  0  0
   52.0062   -5.9141   -2.1779 C   0  0  0  0  0  0  0  0  0  0  0  0
   53.2947   -5.8886   -1.7119 C   0  0  0  0  0  0  0  0  0  0  0  0
   54.3131   -5.8717   -2.6124 C   0  0  0  0  0  0  0  0  0  0  0  0
   54.1322   -5.8789   -4.0079 C   0  0  0  0  0  0  0  0  0  0  0  0
   55.2946   -5.8564   -4.8831 C   0  0  0  0  0  0  0  0  0  0  0  0
   55.3465   -6.9237   -5.7927 F   0  0  0  0  0  0  0  0  0  0  0  0
   55.6402   -4.6586   -5.4222 F   0  0  0  0  0  0  0  0  0  0  0  0
   56.4275   -6.1637   -4.0643 F   0  0  0  0  0  0  0  0  0  0  0  0
 30 31  1  0  0  0
 31 29  1  0  0  0
 29  1  1  0  0  0
  1  2  1  0  0  0
  2  3  2  0  0  0
  3  4  1  0  0  0
  4  5  1  0  0  0
  5 24  1  0  0  0
 24 25  1  0  0  0
 24 26  2  0  0  0
  3  6  1  0  0  0
  6  7  1  0  0  0
  7  8  2  0  0  0
  8  9  1  0  0  0
  9 10  2  0  0  0
 10 11  1  0  0  0
 11 12  2  0  0  0
 12 13  1  0  0  0
 13 14  2  0  0  0
 11 15  1  0  0  0
 15 16  2  0  0  0
 16 17  1  0  0  0
 17 18  2  0  0  0
 18 19  1  0  0  0
 19 20  1  0  0  0
 19 21  2  0  0  0
 31 32  1  0  0  0
 32 33  2  0  0  0
 33 34  1  0  0  0
 34 35  2  0  0  0
 35 36  1  0  0  0
 36 37  2  0  0  0
 37 38  1  0  0  0
 38 39  1  0  0  0
 38 40  1  0  0  0
 38 41  1  0  0  0
  5  1  2  0  0  0
 14  6  1  0  0  0
 21 15  1  0  0  0
 37 32  1  0  0  0
 14  9  1  0  0  0
 25 27  1  0  0  0
 25 28  1  0  0  0
 20 22  1  0  0  0
 20 23  1  0  0  0
M  END
> <minimizedAffinity>
-9.60951

> <CNNscore>
0.3549525738

> <CNNaffinity>
7.4804000854

> <CNN_VS>
2.6551873684

> <CNNaffinity_variance>
0.3104099929

$$$$
[H]c1nc(N([H])[H])nc(-c2c([H])c([H])c3c(nc([H])n3-c3sc(C(=O)N([H])[H])c(O[C@@]([H])(c4c([H])c([H])c([H])c([H])c4C(F)(F)F)C([H])([H])[H])c3[H])c2[H])c1[H]


 41 45  0  0  0  0  0  0  0  0999 V2000
   54.6192   -4.9844   -6.4248 C   0  0  0  0  0  0  0  0  0  0  0  0
   55.3226   -4.8594   -7.5588 C   0  0  0  0  0  0  0  0  0  0  0  0
   56.6020   -5.3595   -7.5672 C   0  0  0  0  0  0  0  0  0  0  0  0
   56.7778   -5.9859   -5.9940 S   0  0  0  0  0  0  0  0  0  0  0  0
   55.2382   -5.6017   -5.3689 C   0  0  0  0  0  0  0  0  0  0  0  0
   57.5430   -5.3373   -8.6664 N   0  0  0  0  0  0  0  0  0  0  0  0
   58.8297   -5.7140   -8.6856 C   0  0  0  0  0  0  0  0  0  0  0  0
   59.3477   -5.5322   -9.9124 N   0  0  0  0  0  0  0  0  0  0  0  0
   58.3806   -5.0301  -10.6987 C   0  0  0  0  0  0  0  0  0  0  0  0
   58.3073   -4.6454  -12.0264 C   0  0  0  0  0  0  0  0  0  0  0  0
   57.1508   -4.1431  -12.6077 C   0  0  0  0  0  0  0  0  0  0  0  0
   56.0514   -4.0387  -11.7947 C   0  0  0  0  0  0  0  0  0  0  0  0
   56.0831   -4.4149  -10.4532 C   0  0  0  0  0  0  0  0  0  0  0  0
   57.2497   -4.9072   -9.9203 C   0  0  0  0  0  0  0  0  0  0  0  0
   57.1522   -3.7587  -14.0178 C   0  0  0  0  0  0  0  0  0  0  0  0
   56.0056   -3.6854  -14.7543 C   0  0  0  0  0  0  0  0  0  0  0  0
   56.1227   -3.3077  -16.0950 C   0  0  0  0  0  0  0  0  0  0  0  0
   57.2961   -3.0274  -16.6475 N   0  0  0  0  0  0  0  0  0  0  0  0
   58.4355   -3.1000  -15.9163 C   0  0  0  0  0  0  0  0  0  0  0  0
   59.6661   -2.7936  -16.5410 N   0  0  0  0  0  0  0  0  0  0  0  0
   58.3220   -3.4611  -14.6353 N   0  0  0  0  0  0  0  0  0  0  0  0
   60.1857   -3.5404  -17.0275 H   0  0  0  0  0  0  0  0  0  0  0  0
   60.0483   -1.8358  -16.5164 H   0  0  0  0  0  0  0  0  0  0  0  0
   54.6930   -5.8663   -4.0132 C   0  0  0  0  0  0  0  0  0  0  0  0
   54.8782   -4.9075   -2.9921 N   0  0  0  0  0  0  0  0  0  0  0  0
   54.0864   -6.9248   -3.8084 O   0  0  0  0  0  0  0  0  0  0  0  0
   55.7730   -4.3550   -2.8708 H   0  0  0  0  0  0  0  0  0  0  0  0
   54.1267   -4.7013   -2.3030 H   0  0  0  0  0  0  0  0  0  0  0  0
   53.2921   -4.5208   -6.2603 O   0  0  0  0  0  0  0  0  0  0  0  0
   51.9771   -6.0630   -7.3597 C   0  0  0  0  0  0  0  0  0  0  0  0
   52.1879   -5.3572   -5.9796 C   0  0  0  0  0  0  0  0  0  0  0  0
   51.0202   -4.5308   -5.6700 C   0  0  0  0  0  0  0  0  0  0  0  0
   50.5340   -3.6330   -6.6529 C   0  0  0  0  0  0  0  0  0  0  0  0
   49.4478   -2.8223   -6.4365 C   0  0  0  0  0  0  0  0  0  0  0  0
   48.8067   -2.8797   -5.2267 C   0  0  0  0  0  0  0  0  0  0  0  0
   49.2721   -3.7404   -4.2828 C   0  0  0  0  0  0  0  0  0  0  0  0
   50.3810   -4.5873   -4.4656 C   0  0  0  0  0  0  0  0  0  0  0  0
   50.7970   -5.4697   -3.3859 C   0  0  0  0  0  0  0  0  0  0  0  0
   50.9317   -6.8138   -3.7654 F   0  0  0  0  0  0  0  0  0  0  0  0
   51.7905   -5.0267   -2.5726 F   0  0  0  0  0  0  0  0  0  0  0  0
   49.6860   -5.5680   -2.4889 F   0  0  0  0  0  0  0  0  0  0  0  0
 30 31  1  0  0  0
 31 29  1  0  0  0
 29  1  1  0  0  0
  1  2  1  0  0  0
  2  3  2  0  0  0
  3  4  1  0  0  0
  4  5  1  0  0  0
  5 24  1  0  0  0
 24 25  1  0  0  0
 24 26  2  0  0  0
  3  6  1  0  0  0
  6  7  1  0  0  0
  7  8  2  0  0  0
  8  9  1  0  0  0
  9 10  2  0  0  0
 10 11  1  0  0  0
 11 12  2  0  0  0
 12 13  1  0  0  0
 13 14  2  0  0  0
 11 15  1  0  0  0
 15 16  2  0  0  0
 16 17  1  0  0  0
 17 18  2  0  0  0
 18 19  1  0  0  0
 19 20  1  0  0  0
 19 21  2  0  0  0
 31 32  1  0  0  0
 32 33  2  0  0  0
 33 34  1  0  0  0
 34 35  2  0  0  0
 35 36  1  0  0  0
 36 37  2  0  0  0
 37 38  1  0  0  0
 38 39  1  0  0  0
 38 40  1  0  0  0
 38 41  1  0  0  0
  5  1  2  0  0  0
 14  6  1  0  0  0
 21 15  1  0  0  0
 37 32  1  0  0  0
 14  9  1  0  0  0
 25 27  1  0  0  0
 25 28  1  0  0  0
 20 22  1  0  0  0
 20 23  1  0  0  0
M  END
> <minimizedAffinity>
-11.23087

> <CNNscore>
0.3272552192

> <CNNaffinity>
6.8018751144

> <CNN_VS>
2.2259490490

> <CNNaffinity_variance>
0.7152689695

$$$$
[H]c1nc(N([H])[H])nc(-c2c([H])c([H])c3c(nc([H])n3-c3sc(C(=O)N([H])[H])c(O[C@@]([H])(c4c([H])c([H])c([H])c([H])c4C(F)(F)F)C([H])([H])[H])c3[H])c2[H])c1[H]


 41 45  0  0  0  0  0  0  0  0999 V2000
   52.9731   -4.2854   -7.2868 C   0  0  0  0  0  0  0  0  0  0  0  0
   54.1971   -4.7288   -7.6059 C   0  0  0  0  0  0  0  0  0  0  0  0
   54.7877   -4.2009   -8.7282 C   0  0  0  0  0  0  0  0  0  0  0  0
   53.6154   -3.1056   -9.2977 S   0  0  0  0  0  0  0  0  0  0  0  0
   52.4150   -3.3415   -8.1094 C   0  0  0  0  0  0  0  0  0  0  0  0
   56.0915   -4.5255   -9.2656 N   0  0  0  0  0  0  0  0  0  0  0  0
   57.1128   -5.1655   -8.6780 C   0  0  0  0  0  0  0  0  0  0  0  0
   58.1494   -5.2629   -9.5280 N   0  0  0  0  0  0  0  0  0  0  0  0
   57.7926   -4.6767  -10.6833 C   0  0  0  0  0  0  0  0  0  0  0  0
   58.4161   -4.4658  -11.9010 C   0  0  0  0  0  0  0  0  0  0  0  0
   57.8053   -3.8118  -12.9626 C   0  0  0  0  0  0  0  0  0  0  0  0
   56.5240   -3.3693  -12.7547 C   0  0  0  0  0  0  0  0  0  0  0  0
   55.8608   -3.5613  -11.5442 C   0  0  0  0  0  0  0  0  0  0  0  0
   56.5043   -4.2141  -10.5210 C   0  0  0  0  0  0  0  0  0  0  0  0
   58.5296   -3.6280  -14.2186 C   0  0  0  0  0  0  0  0  0  0  0  0
   57.8906   -3.3813  -15.3990 C   0  0  0  0  0  0  0  0  0  0  0  0
   58.6818   -3.2225  -16.5404 C   0  0  0  0  0  0  0  0  0  0  0  0
   60.0054   -3.3051  -16.4966 N   0  0  0  0  0  0  0  0  0  0  0  0
   60.6408   -3.5501  -15.3242 C   0  0  0  0  0  0  0  0  0  0  0  0
   62.0521   -3.6308  -15.3185 N   0  0  0  0  0  0  0  0  0  0  0  0
   59.8834   -3.7018  -14.2344 N   0  0  0  0  0  0  0  0  0  0  0  0
   62.5073   -4.5373  -15.5068 H   0  0  0  0  0  0  0  0  0  0  0  0
   62.6293   -2.7970  -15.1295 H   0  0  0  0  0  0  0  0  0  0  0  0
   51.0864   -2.6892   -7.9880 C   0  0  0  0  0  0  0  0  0  0  0  0
   49.9405   -3.4858   -7.7674 N   0  0  0  0  0  0  0  0  0  0  0  0
   51.0135   -1.4580   -8.0831 O   0  0  0  0  0  0  0  0  0  0  0  0
   49.7901   -4.4260   -8.2299 H   0  0  0  0  0  0  0  0  0  0  0  0
   49.1817   -3.1738   -7.1280 H   0  0  0  0  0  0  0  0  0  0  0  0
   52.2364   -4.7317   -6.1638 O   0  0  0  0  0  0  0  0  0  0  0  0
   50.7549   -6.4968   -6.2422 C   0  0  0  0  0  0  0  0  0  0  0  0
   52.1754   -6.0780   -5.7382 C   0  0  0  0  0  0  0  0  0  0  0  0
   52.2088   -6.1261   -4.2757 C   0  0  0  0  0  0  0  0  0  0  0  0
   50.9920   -6.0186   -3.5570 C   0  0  0  0  0  0  0  0  0  0  0  0
   50.9417   -6.0504   -2.1858 C   0  0  0  0  0  0  0  0  0  0  0  0
   52.1087   -6.1911   -1.4814 C   0  0  0  0  0  0  0  0  0  0  0  0
   53.2767   -6.2943   -2.1695 C   0  0  0  0  0  0  0  0  0  0  0  0
   53.3703   -6.2663   -3.5733 C   0  0  0  0  0  0  0  0  0  0  0  0
   54.6742   -6.3823   -4.2089 C   0  0  0  0  0  0  0  0  0  0  0  0
   54.7693   -7.4354   -5.1313 F   0  0  0  0  0  0  0  0  0  0  0  0
   55.2635   -5.2320   -4.6265 F   0  0  0  0  0  0  0  0  0  0  0  0
   55.5795   -6.8435   -3.2008 F   0  0  0  0  0  0  0  0  0  0  0  0
 30 31  1  0  0  0
 31 29  1  0  0  0
 29  1  1  0  0  0
  1  2  1  0  0  0
  2  3  2  0  0  0
  3  4  1  0  0  0
  4  5  1  0  0  0
  5 24  1  0  0  0
 24 25  1  0  0  0
 24 26  2  0  0  0
  3  6  1  0  0  0
  6  7  1  0  0  0
  7  8  2  0  0  0
  8  9  1  0  0  0
  9 10  2  0  0  0
 10 11  1  0  0  0
 11 12  2  0  0  0
 12 13  1  0  0  0
 13 14  2  0  0  0
 11 15  1  0  0  0
 15 16  2  0  0  0
 16 17  1  0  0  0
 17 18  2  0  0  0
 18 19  1  0  0  0
 19 20  1  0  0  0
 19 21  2  0  0  0
 31 32  1  0  0  0
 32 33  2  0  0  0
 33 34  1  0  0  0
 34 35  2  0  0  0
 35 36  1  0  0  0
 36 37  2  0  0  0
 37 38  1  0  0  0
 38 39  1  0  0  0
 38 40  1  0  0  0
 38 41  1  0  0  0
  5  1  2  0  0  0
 14  6  1  0  0  0
 21 15  1  0  0  0
 37 32  1  0  0  0
 14  9  1  0  0  0
 25 27  1  0  0  0
 25 28  1  0  0  0
 20 22  1  0  0  0
 20 23  1  0  0  0
M  END
> <minimizedAffinity>
-9.22475

> <CNNscore>
0.3005890250

> <CNNaffinity>
7.2120752335

> <CNN_VS>
2.1678707600

> <CNNaffinity_variance>
0.1576049030

$$$$
[H]c1nc(N([H])[H])nc(-c2c([H])c([H])c3c(nc([H])n3-c3sc(C(=O)N([H])[H])c(O[C@@]([H])(c4c([H])c([H])c([H])c([H])c4C(F)(F)F)C([H])([H])[H])c3[H])c2[H])c1[H]


 41 45  0  0  0  0  0  0  0  0999 V2000
   59.2450   -3.5272  -13.7026 C   0  0  0  0  0  0  0  0  0  0  0  0
   59.1437   -3.8905  -12.4164 C   0  0  0  0  0  0  0  0  0  0  0  0
   57.8906   -4.1932  -11.9421 C   0  0  0  0  0  0  0  0  0  0  0  0
   56.8991   -3.9605  -13.3063 S   0  0  0  0  0  0  0  0  0  0  0  0
   58.0871   -3.4889  -14.4354 C   0  0  0  0  0  0  0  0  0  0  0  0
   57.5387   -4.6038  -10.5998 N   0  0  0  0  0  0  0  0  0  0  0  0
   58.2942   -5.2185   -9.6783 C   0  0  0  0  0  0  0  0  0  0  0  0
   57.5830   -5.4215   -8.5561 N   0  0  0  0  0  0  0  0  0  0  0  0
   56.3482   -4.9302   -8.7552 C   0  0  0  0  0  0  0  0  0  0  0  0
   55.1986   -4.8465   -7.9888 C   0  0  0  0  0  0  0  0  0  0  0  0
   54.0210   -4.2723   -8.4482 C   0  0  0  0  0  0  0  0  0  0  0  0
   54.0387   -3.7763   -9.7266 C   0  0  0  0  0  0  0  0  0  0  0  0
   55.1749   -3.8405  -10.5309 C   0  0  0  0  0  0  0  0  0  0  0  0
   56.3184   -4.4178  -10.0345 C   0  0  0  0  0  0  0  0  0  0  0  0
   52.8479   -4.2209   -7.5780 C   0  0  0  0  0  0  0  0  0  0  0  0
   52.6577   -5.1073   -6.5580 C   0  0  0  0  0  0  0  0  0  0  0  0
   51.4996   -4.9668   -5.7880 C   0  0  0  0  0  0  0  0  0  0  0  0
   50.6078   -4.0133   -6.0255 N   0  0  0  0  0  0  0  0  0  0  0  0
   50.7961   -3.1323   -7.0387 C   0  0  0  0  0  0  0  0  0  0  0  0
   49.8233   -2.1308   -7.2597 N   0  0  0  0  0  0  0  0  0  0  0  0
   51.9033   -3.2680   -7.7736 N   0  0  0  0  0  0  0  0  0  0  0  0
   49.0189   -2.3341   -7.8728 H   0  0  0  0  0  0  0  0  0  0  0  0
   49.9082   -1.2032   -6.8164 H   0  0  0  0  0  0  0  0  0  0  0  0
   57.9179   -3.1233  -15.8647 C   0  0  0  0  0  0  0  0  0  0  0  0
   58.6753   -2.0586  -16.4024 N   0  0  0  0  0  0  0  0  0  0  0  0
   57.1142   -3.7623  -16.5547 O   0  0  0  0  0  0  0  0  0  0  0  0
   58.8816   -1.1671  -15.8702 H   0  0  0  0  0  0  0  0  0  0  0  0
   59.0692   -2.1085  -17.3638 H   0  0  0  0  0  0  0  0  0  0  0  0
   60.4637   -3.1861  -14.3361 O   0  0  0  0  0  0  0  0  0  0  0  0
   62.6321   -2.4154  -14.1928 C   0  0  0  0  0  0  0  0  0  0  0  0
   61.7301   -3.6668  -13.9327 C   0  0  0  0  0  0  0  0  0  0  0  0
   62.1396   -4.7571  -14.8191 C   0  0  0  0  0  0  0  0  0  0  0  0
   61.8231   -4.6769  -16.1982 C   0  0  0  0  0  0  0  0  0  0  0  0
   62.1685   -5.6602  -17.0912 C   0  0  0  0  0  0  0  0  0  0  0  0
   62.8447   -6.7622  -16.6369 C   0  0  0  0  0  0  0  0  0  0  0  0
   63.1490   -6.8406  -15.3142 C   0  0  0  0  0  0  0  0  0  0  0  0
   62.8131   -5.8548  -14.3678 C   0  0  0  0  0  0  0  0  0  0  0  0
   63.1857   -6.0409  -12.9735 C   0  0  0  0  0  0  0  0  0  0  0  0
   64.2944   -5.2806  -12.5714 F   0  0  0  0  0  0  0  0  0  0  0  0
   62.1789   -6.0677  -12.0622 F   0  0  0  0  0  0  0  0  0  0  0  0
   63.7300   -7.3605  -12.8696 F   0  0  0  0  0  0  0  0  0  0  0  0
 30 31  1  0  0  0
 31 29  1  0  0  0
 29  1  1  0  0  0
  1  2  1  0  0  0
  2  3  2  0  0  0
  3  4  1  0  0  0
  4  5  1  0  0  0
  5 24  1  0  0  0
 24 25  1  0  0  0
 24 26  2  0  0  0
  3  6  1  0  0  0
  6  7  1  0  0  0
  7  8  2  0  0  0
  8  9  1  0  0  0
  9 10  2  0  0  0
 10 11  1  0  0  0
 11 12  2  0  0  0
 12 13  1  0  0  0
 13 14  2  0  0  0
 11 15  1  0  0  0
 15 16  2  0  0  0
 16 17  1  0  0  0
 17 18  2  0  0  0
 18 19  1  0  0  0
 19 20  1  0  0  0
 19 21  2  0  0  0
 31 32  1  0  0  0
 32 33  2  0  0  0
 33 34  1  0  0  0
 34 35  2  0  0  0
 35 36  1  0  0  0
 36 37  2  0  0  0
 37 38  1  0  0  0
 38 39  1  0  0  0
 38 40  1  0  0  0
 38 41  1  0  0  0
  5  1  2  0  0  0
 14  6  1  0  0  0
 21 15  1  0  0  0
 37 32  1  0  0  0
 14  9  1  0  0  0
 25 27  1  0  0  0
 25 28  1  0  0  0
 20 22  1  0  0  0
 20 23  1  0  0  0
M  END
> <minimizedAffinity>
-8.66906

> <CNNscore>
0.2955495715

> <CNNaffinity>
6.7524323463

> <CNN_VS>
1.9956785440

> <CNNaffinity_variance>
0.1522344053

$$$$
[H]c1nc(N([H])c2c([H])c([H])c([H])c([H])c2C(F)(F)F)nc2c1C([H])([H])C([H])([H])c1c(C(=O)N([H])[H])nn(C([H])([H])[H])c1-2


 31 34  0  0  0  0  0  0  0  0999 V2000
   53.9024   -6.3241   -6.2513 C   0  0  0  0  0  0  0  0  0  0  0  0
   52.6784   -5.7383   -5.6845 N   0  0  0  0  0  0  0  0  0  0  0  0
   52.0505   -6.1018   -4.5900 N   0  0  0  0  0  0  0  0  0  0  0  0
   50.9567   -5.3245   -4.3906 C   0  0  0  0  0  0  0  0  0  0  0  0
   50.9090   -4.4237   -5.4315 C   0  0  0  0  0  0  0  0  0  0  0  0
   49.9371   -3.3598   -5.7077 C   0  0  0  0  0  0  0  0  0  0  0  0
   50.1670   -2.5546   -6.9139 C   0  0  0  0  0  0  0  0  0  0  0  0
   51.3305   -2.8923   -7.7222 C   0  0  0  0  0  0  0  0  0  0  0  0
   51.6290   -2.1823   -8.8940 C   0  0  0  0  0  0  0  0  0  0  0  0
   52.7051   -2.5425   -9.5820 N   0  0  0  0  0  0  0  0  0  0  0  0
   53.5643   -3.5091   -9.3086 C   0  0  0  0  0  0  0  0  0  0  0  0
   53.2730   -4.2094   -8.1563 N   0  0  0  0  0  0  0  0  0  0  0  0
   52.1996   -3.8989   -7.4109 C   0  0  0  0  0  0  0  0  0  0  0  0
   51.9925   -4.7151   -6.2082 C   0  0  0  0  0  0  0  0  0  0  0  0
   50.0204   -5.4288   -3.2884 C   0  0  0  0  0  0  0  0  0  0  0  0
   50.3972   -6.0198   -2.0583 N   0  0  0  0  0  0  0  0  0  0  0  0
   48.8606   -4.9876   -3.4307 O   0  0  0  0  0  0  0  0  0  0  0  0
   51.3344   -5.8581   -1.6559 H   0  0  0  0  0  0  0  0  0  0  0  0
   49.7295   -6.6291   -1.5405 H   0  0  0  0  0  0  0  0  0  0  0  0
   54.7143   -3.8890  -10.0485 N   0  0  0  0  0  0  0  0  0  0  0  0
   54.6461   -3.7617  -11.1272 H   0  0  0  0  0  0  0  0  0  0  0  0
   55.9176   -4.3916   -9.5741 C   0  0  0  0  0  0  0  0  0  0  0  0
   56.1089   -4.7173   -8.2462 C   0  0  0  0  0  0  0  0  0  0  0  0
   57.3252   -5.2000   -7.7749 C   0  0  0  0  0  0  0  0  0  0  0  0
   58.3560   -5.3566   -8.6427 C   0  0  0  0  0  0  0  0  0  0  0  0
   58.1637   -5.0345   -9.9509 C   0  0  0  0  0  0  0  0  0  0  0  0
   56.9845   -4.5522  -10.4819 C   0  0  0  0  0  0  0  0  0  0  0  0
   56.8660   -4.2427  -11.9190 C   0  0  0  0  0  0  0  0  0  0  0  0
   55.8638   -4.9022  -12.5738 F   0  0  0  0  0  0  0  0  0  0  0  0
   58.0490   -4.7021  -12.5370 F   0  0  0  0  0  0  0  0  0  0  0  0
   56.8546   -2.8823  -12.1965 F   0  0  0  0  0  0  0  0  0  0  0  0
  1  2  1  0  0  0
  2  3  1  0  0  0
  3  4  2  0  0  0
  4 15  1  0  0  0
 15 16  1  0  0  0
 15 17  2  0  0  0
  4  5  1  0  0  0
  5  6  1  0  0  0
  6  7  1  0  0  0
  7  8  1  0  0  0
  8  9  2  0  0  0
  9 10  1  0  0  0
 10 11  2  0  0  0
 11 20  1  0  0  0
 20 22  1  0  0  0
 22 23  2  0  0  0
 23 24  1  0  0  0
 24 25  2  0  0  0
 25 26  1  0  0  0
 26 27  2  0  0  0
 27 28  1  0  0  0
 28 29  1  0  0  0
 28 30  1  0  0  0
 28 31  1  0  0  0
 11 12  1  0  0  0
 12 13  2  0  0  0
 13 14  1  0  0  0
 14  2  1  0  0  0
 14  5  2  0  0  0
 13  8  1  0  0  0
 27 22  1  0  0  0
 16 18  1  0  0  0
 16 19  1  0  0  0
 20 21  1  0  0  0
M  END
> <minimizedAffinity>
-11.57791

> <CNNscore>
0.9511649609

> <CNNaffinity>
7.5887231827

> <CNN_VS>
7.2181277275

> <CNNaffinity_variance>
0.0532502532

$$$$
[H]c1nc(N([H])c2c([H])c([H])c([H])c([H])c2C(F)(F)F)nc2c1C([H])([H])C([H])([H])c1c(C(=O)N([H])[H])nn(C([H])([H])[H])c1-2


 31 34  0  0  0  0  0  0  0  0999 V2000
   55.2854   -6.2254   -6.2145 C   0  0  0  0  0  0  0  0  0  0  0  0
   53.9975   -6.0206   -5.5347 N   0  0  0  0  0  0  0  0  0  0  0  0
   53.5919   -6.5630   -4.4097 N   0  0  0  0  0  0  0  0  0  0  0  0
   52.3436   -6.1324   -4.0988 C   0  0  0  0  0  0  0  0  0  0  0  0
   51.9562   -5.2683   -5.0989 C   0  0  0  0  0  0  0  0  0  0  0  0
   50.7035   -4.5216   -5.2606 C   0  0  0  0  0  0  0  0  0  0  0  0
   50.5946   -3.6676   -6.4502 C   0  0  0  0  0  0  0  0  0  0  0  0
   51.7343   -3.6486   -7.3568 C   0  0  0  0  0  0  0  0  0  0  0  0
   51.7206   -2.8669   -8.5209 C   0  0  0  0  0  0  0  0  0  0  0  0
   52.7932   -2.8960   -9.3017 N   0  0  0  0  0  0  0  0  0  0  0  0
   53.9104   -3.5814   -9.1307 C   0  0  0  0  0  0  0  0  0  0  0  0
   53.9265   -4.3515   -7.9862 N   0  0  0  0  0  0  0  0  0  0  0  0
   52.8754   -4.3702   -7.1502 C   0  0  0  0  0  0  0  0  0  0  0  0
   53.0090   -5.2281   -5.9663 C   0  0  0  0  0  0  0  0  0  0  0  0
   51.5706   -6.5144   -2.9330 C   0  0  0  0  0  0  0  0  0  0  0  0
   51.4010   -5.6283   -1.8419 N   0  0  0  0  0  0  0  0  0  0  0  0
   51.0460   -7.6473   -2.8946 O   0  0  0  0  0  0  0  0  0  0  0  0
   51.2530   -4.6180   -1.9957 H   0  0  0  0  0  0  0  0  0  0  0  0
   51.4236   -5.9868   -0.8641 H   0  0  0  0  0  0  0  0  0  0  0  0
   55.0548   -3.6077   -9.9697 N   0  0  0  0  0  0  0  0  0  0  0  0
   54.9679   -3.0591  -10.9056 H   0  0  0  0  0  0  0  0  0  0  0  0
   56.2734   -4.2331   -9.7465 C   0  0  0  0  0  0  0  0  0  0  0  0
   56.7341   -4.5196   -8.4771 C   0  0  0  0  0  0  0  0  0  0  0  0
   57.9667   -5.1270   -8.2614 C   0  0  0  0  0  0  0  0  0  0  0  0
   58.7413   -5.4487   -9.3275 C   0  0  0  0  0  0  0  0  0  0  0  0
   58.2838   -5.1648  -10.5774 C   0  0  0  0  0  0  0  0  0  0  0  0
   57.0731   -4.5650  -10.8594 C   0  0  0  0  0  0  0  0  0  0  0  0
   56.6552   -4.3085  -12.2503 C   0  0  0  0  0  0  0  0  0  0  0  0
   55.4886   -4.9132  -12.6265 F   0  0  0  0  0  0  0  0  0  0  0  0
   57.6343   -4.8869  -13.0867 F   0  0  0  0  0  0  0  0  0  0  0  0
   56.6746   -2.9646  -12.5987 F   0  0  0  0  0  0  0  0  0  0  0  0
  1  2  1  0  0  0
  2  3  1  0  0  0
  3  4  2  0  0  0
  4 15  1  0  0  0
 15 16  1  0  0  0
 15 17  2  0  0  0
  4  5  1  0  0  0
  5  6  1  0  0  0
  6  7  1  0  0  0
  7  8  1  0  0  0
  8  9  2  0  0  0
  9 10  1  0  0  0
 10 11  2  0  0  0
 11 20  1  0  0  0
 20 22  1  0  0  0
 22 23  2  0  0  0
 23 24  1  0  0  0
 24 25  2  0  0  0
 25 26  1  0  0  0
 26 27  2  0  0  0
 27 28  1  0  0  0
 28 29  1  0  0  0
 28 30  1  0  0  0
 28 31  1  0  0  0
 11 12  1  0  0  0
 12 13  2  0  0  0
 13 14  1  0  0  0
 14  2  1  0  0  0
 14  5  2  0  0  0
 13  8  1  0  0  0
 27 22  1  0  0  0
 16 18  1  0  0  0
 16 19  1  0  0  0
 20 21  1  0  0  0
M  END
> <minimizedAffinity>
-10.19114

> <CNNscore>
0.8212230206

> <CNNaffinity>
7.3682885170

> <CNN_VS>
6.0510082245

> <CNNaffinity_variance>
0.1595521420

$$$$
[H]c1nc(N([H])c2c([H])c([H])c([H])c([H])c2C(F)(F)F)nc2c1C([H])([H])C([H])([H])c1c(C(=O)N([H])[H])nn(C([H])([H])[H])c1-2


 31 34  0  0  0  0  0  0  0  0999 V2000
   50.8694   -1.5054   -7.8946 C   0  0  0  0  0  0  0  0  0  0  0  0
   50.3426   -2.4174   -6.8682 N   0  0  0  0  0  0  0  0  0  0  0  0
   49.2921   -2.2369   -6.1013 N   0  0  0  0  0  0  0  0  0  0  0  0
   49.1194   -3.2996   -5.2760 C   0  0  0  0  0  0  0  0  0  0  0  0
   50.1309   -4.1923   -5.5538 C   0  0  0  0  0  0  0  0  0  0  0  0
   50.4177   -5.5011   -4.9557 C   0  0  0  0  0  0  0  0  0  0  0  0
   51.5840   -6.2233   -5.4794 C   0  0  0  0  0  0  0  0  0  0  0  0
   52.3466   -5.5704   -6.5346 C   0  0  0  0  0  0  0  0  0  0  0  0
   53.4785   -6.1807   -7.0937 C   0  0  0  0  0  0  0  0  0  0  0  0
   54.1259   -5.5301   -8.0522 N   0  0  0  0  0  0  0  0  0  0  0  0
   53.8441   -4.3478   -8.5717 C   0  0  0  0  0  0  0  0  0  0  0  0
   52.7309   -3.7450   -8.0234 N   0  0  0  0  0  0  0  0  0  0  0  0
   52.0277   -4.3462   -7.0496 C   0  0  0  0  0  0  0  0  0  0  0  0
   50.8642   -3.6069   -6.5447 C   0  0  0  0  0  0  0  0  0  0  0  0
   48.0673   -3.4579   -4.2909 C   0  0  0  0  0  0  0  0  0  0  0  0
   48.0886   -4.5232   -3.3586 N   0  0  0  0  0  0  0  0  0  0  0  0
   47.1264   -2.6368   -4.2675 O   0  0  0  0  0  0  0  0  0  0  0  0
   48.9725   -4.8293   -2.9213 H   0  0  0  0  0  0  0  0  0  0  0  0
   47.2071   -5.0147   -3.1006 H   0  0  0  0  0  0  0  0  0  0  0  0
   54.5404   -3.6574   -9.5978 N   0  0  0  0  0  0  0  0  0  0  0  0
   54.1706   -2.6611   -9.8326 H   0  0  0  0  0  0  0  0  0  0  0  0
   55.6376   -4.0837  -10.3327 C   0  0  0  0  0  0  0  0  0  0  0  0
   55.6176   -4.1611  -11.7109 C   0  0  0  0  0  0  0  0  0  0  0  0
   56.7146   -4.6102  -12.4386 C   0  0  0  0  0  0  0  0  0  0  0  0
   57.8387   -4.9841  -11.7778 C   0  0  0  0  0  0  0  0  0  0  0  0
   57.8547   -4.9065  -10.4192 C   0  0  0  0  0  0  0  0  0  0  0  0
   56.8029   -4.4703   -9.6393 C   0  0  0  0  0  0  0  0  0  0  0  0
   56.9179   -4.4078   -8.1702 C   0  0  0  0  0  0  0  0  0  0  0  0
   56.3320   -3.3186   -7.5882 F   0  0  0  0  0  0  0  0  0  0  0  0
   58.2904   -4.2680   -7.8713 F   0  0  0  0  0  0  0  0  0  0  0  0
   56.5591   -5.5879   -7.5328 F   0  0  0  0  0  0  0  0  0  0  0  0
  1  2  1  0  0  0
  2  3  1  0  0  0
  3  4  2  0  0  0
  4 15  1  0  0  0
 15 16  1  0  0  0
 15 17  2  0  0  0
  4  5  1  0  0  0
  5  6  1  0  0  0
  6  7  1  0  0  0
  7  8  1  0  0  0
  8  9  2  0  0  0
  9 10  1  0  0  0
 10 11  2  0  0  0
 11 20  1  0  0  0
 20 22  1  0  0  0
 22 23  2  0  0  0
 23 24  1  0  0  0
 24 25  2  0  0  0
 25 26  1  0  0  0
 26 27  2  0  0  0
 27 28  1  0  0  0
 28 29  1  0  0  0
 28 30  1  0  0  0
 28 31  1  0  0  0
 11 12  1  0  0  0
 12 13  2  0  0  0
 13 14  1  0  0  0
 14  2  1  0  0  0
 14  5  2  0  0  0
 13  8  1  0  0  0
 27 22  1  0  0  0
 16 18  1  0  0  0
 16 19  1  0  0  0
 20 21  1  0  0  0
M  END
> <minimizedAffinity>
-9.29129

> <CNNscore>
0.6823688745

> <CNNaffinity>
7.4193663597

> <CNN_VS>
5.0627446175

> <CNNaffinity_variance>
0.3122122288

$$$$
[H]c1nc(N([H])c2c([H])c([H])c([H])c([H])c2C(F)(F)F)nc2c1C([H])([H])C([H])([H])c1c(C(=O)N([H])[H])nn(C([H])([H])[H])c1-2


 31 34  0  0  0  0  0  0  0  0999 V2000
   52.7658   -6.1274   -5.3163 C   0  0  0  0  0  0  0  0  0  0  0  0
   51.5866   -5.2496   -5.2764 N   0  0  0  0  0  0  0  0  0  0  0  0
   50.5959   -5.2800   -4.4150 N   0  0  0  0  0  0  0  0  0  0  0  0
   49.6895   -4.3119   -4.7007 C   0  0  0  0  0  0  0  0  0  0  0  0
   50.1537   -3.6422   -5.8112 C   0  0  0  0  0  0  0  0  0  0  0  0
   49.5657   -2.5121   -6.5391 C   0  0  0  0  0  0  0  0  0  0  0  0
   50.3165   -2.0128   -7.6981 C   0  0  0  0  0  0  0  0  0  0  0  0
   51.5661   -2.6895   -8.0175 C   0  0  0  0  0  0  0  0  0  0  0  0
   52.3495   -2.2864   -9.1085 C   0  0  0  0  0  0  0  0  0  0  0  0
   53.4768   -2.9465   -9.3417 N   0  0  0  0  0  0  0  0  0  0  0  0
   53.9822   -3.9649   -8.6673 C   0  0  0  0  0  0  0  0  0  0  0  0
   53.2134   -4.3636   -7.5935 N   0  0  0  0  0  0  0  0  0  0  0  0
   52.0605   -3.7405   -7.2990 C   0  0  0  0  0  0  0  0  0  0  0  0
   51.3296   -4.2547   -6.1342 C   0  0  0  0  0  0  0  0  0  0  0  0
   48.4665   -4.0403   -3.9706 C   0  0  0  0  0  0  0  0  0  0  0  0
   47.5697   -3.0286   -4.3910 N   0  0  0  0  0  0  0  0  0  0  0  0
   48.2028   -4.7138   -2.9523 O   0  0  0  0  0  0  0  0  0  0  0  0
   47.3743   -2.8744   -5.3932 H   0  0  0  0  0  0  0  0  0  0  0  0
   47.0928   -2.4233   -3.6901 H   0  0  0  0  0  0  0  0  0  0  0  0
   55.1895   -4.6664   -8.9216 N   0  0  0  0  0  0  0  0  0  0  0  0
   55.4702   -5.4099   -8.1781 H   0  0  0  0  0  0  0  0  0  0  0  0
   56.0524   -4.5346  -10.0004 C   0  0  0  0  0  0  0  0  0  0  0  0
   55.6090   -4.1946  -11.2628 C   0  0  0  0  0  0  0  0  0  0  0  0
   56.4780   -4.0859  -12.3434 C   0  0  0  0  0  0  0  0  0  0  0  0
   57.8007   -4.3203  -12.1548 C   0  0  0  0  0  0  0  0  0  0  0  0
   58.2342   -4.6553  -10.9090 C   0  0  0  0  0  0  0  0  0  0  0  0
   57.4261   -4.7793   -9.7970 C   0  0  0  0  0  0  0  0  0  0  0  0
   57.9896   -5.1343   -8.4811 C   0  0  0  0  0  0  0  0  0  0  0  0
   57.3123   -6.1094   -7.8038 F   0  0  0  0  0  0  0  0  0  0  0  0
   57.8699   -3.9915   -7.6612 F   0  0  0  0  0  0  0  0  0  0  0  0
   59.3558   -5.3803   -8.5084 F   0  0  0  0  0  0  0  0  0  0  0  0
  1  2  1  0  0  0
  2  3  1  0  0  0
  3  4  2  0  0  0
  4 15  1  0  0  0
 15 16  1  0  0  0
 15 17  2  0  0  0
  4  5  1  0  0  0
  5  6  1  0  0  0
  6  7  1  0  0  0
  7  8  1  0  0  0
  8  9  2  0  0  0
  9 10  1  0  0  0
 10 11  2  0  0  0
 11 20  1  0  0  0
 20 22  1  0  0  0
 22 23  2  0  0  0
 23 24  1  0  0  0
 24 25  2  0  0  0
 25 26  1  0  0  0
 26 27  2  0  0  0
 27 28  1  0  0  0
 28 29  1  0  0  0
 28 30  1  0  0  0
 28 31  1  0  0  0
 11 12  1  0  0  0
 12 13  2  0  0  0
 13 14  1  0  0  0
 14  2  1  0  0  0
 14  5  2  0  0  0
 13  8  1  0  0  0
 27 22  1  0  0  0
 16 18  1  0  0  0
 16 19  1  0  0  0
 20 21  1  0  0  0
M  END
> <minimizedAffinity>
-10.53139

> <CNNscore>
0.6476265192

> <CNNaffinity>
7.3150796890

> <CNN_VS>
4.7374396324

> <CNNaffinity_variance>
0.3360597193

$$$$
[H]c1nc(N([H])c2c([H])c([H])c([H])c([H])c2C(F)(F)F)nc2c1C([H])([H])C([H])([H])c1c(C(=O)N([H])[H])nn(C([H])([H])[H])c1-2


 31 34  0  0  0  0  0  0  0  0999 V2000
   53.7420   -2.6909   -9.0899 C   0  0  0  0  0  0  0  0  0  0  0  0
   52.6811   -3.1011   -8.1578 N   0  0  0  0  0  0  0  0  0  0  0  0
   51.4710   -2.6019   -8.0538 N   0  0  0  0  0  0  0  0  0  0  0  0
   50.7773   -3.2397   -7.0778 C   0  0  0  0  0  0  0  0  0  0  0  0
   51.6166   -4.1940   -6.5468 C   0  0  0  0  0  0  0  0  0  0  0  0
   51.3760   -5.1598   -5.4687 C   0  0  0  0  0  0  0  0  0  0  0  0
   52.4857   -6.0604   -5.1315 C   0  0  0  0  0  0  0  0  0  0  0  0
   53.7178   -5.9049   -5.8923 C   0  0  0  0  0  0  0  0  0  0  0  0
   54.8329   -6.7164   -5.6386 C   0  0  0  0  0  0  0  0  0  0  0  0
   55.9229   -6.5214   -6.3699 N   0  0  0  0  0  0  0  0  0  0  0  0
   56.1116   -5.6399   -7.3367 C   0  0  0  0  0  0  0  0  0  0  0  0
   55.0161   -4.8401   -7.5883 N   0  0  0  0  0  0  0  0  0  0  0  0
   53.8798   -4.9824   -6.8864 C   0  0  0  0  0  0  0  0  0  0  0  0
   52.7835   -4.0737   -7.2439 C   0  0  0  0  0  0  0  0  0  0  0  0
   49.4119   -2.9631   -6.6760 C   0  0  0  0  0  0  0  0  0  0  0  0
   49.0727   -2.7640   -5.3160 N   0  0  0  0  0  0  0  0  0  0  0  0
   48.5210   -2.9001   -7.5493 O   0  0  0  0  0  0  0  0  0  0  0  0
   49.6957   -2.2351   -4.6847 H   0  0  0  0  0  0  0  0  0  0  0  0
   48.1848   -3.1511   -4.9327 H   0  0  0  0  0  0  0  0  0  0  0  0
   57.2802   -5.4367   -8.1160 N   0  0  0  0  0  0  0  0  0  0  0  0
   58.2245   -5.6379   -7.6138 H   0  0  0  0  0  0  0  0  0  0  0  0
   57.3743   -5.0253   -9.4379 C   0  0  0  0  0  0  0  0  0  0  0  0
   56.3511   -4.3529  -10.0760 C   0  0  0  0  0  0  0  0  0  0  0  0
   56.4451   -3.9632  -11.4079 C   0  0  0  0  0  0  0  0  0  0  0  0
   57.5738   -4.2507  -12.1034 C   0  0  0  0  0  0  0  0  0  0  0  0
   58.5802   -4.9136  -11.4711 C   0  0  0  0  0  0  0  0  0  0  0  0
   58.5505   -5.3270  -10.1546 C   0  0  0  0  0  0  0  0  0  0  0  0
   59.6980   -6.0292   -9.5502 C   0  0  0  0  0  0  0  0  0  0  0  0
   60.0721   -5.5747   -8.3166 F   0  0  0  0  0  0  0  0  0  0  0  0
   60.8165   -5.7714  -10.3718 F   0  0  0  0  0  0  0  0  0  0  0  0
   59.5807   -7.4125   -9.5757 F   0  0  0  0  0  0  0  0  0  0  0  0
  1  2  1  0  0  0
  2  3  1  0  0  0
  3  4  2  0  0  0
  4 15  1  0  0  0
 15 16  1  0  0  0
 15 17  2  0  0  0
  4  5  1  0  0  0
  5  6  1  0  0  0
  6  7  1  0  0  0
  7  8  1  0  0  0
  8  9  2  0  0  0
  9 10  1  0  0  0
 10 11  2  0  0  0
 11 20  1  0  0  0
 20 22  1  0  0  0
 22 23  2  0  0  0
 23 24  1  0  0  0
 24 25  2  0  0  0
 25 26  1  0  0  0
 26 27  2  0  0  0
 27 28  1  0  0  0
 28 29  1  0  0  0
 28 30  1  0  0  0
 28 31  1  0  0  0
 11 12  1  0  0  0
 12 13  2  0  0  0
 13 14  1  0  0  0
 14  2  1  0  0  0
 14  5  2  0  0  0
 13  8  1  0  0  0
 27 22  1  0  0  0
 16 18  1  0  0  0
 16 19  1  0  0  0
 20 21  1  0  0  0
M  END
> <minimizedAffinity>
-9.26751

> <CNNscore>
0.5973982215

> <CNNaffinity>
7.0385422707

> <CNN_VS>
4.2048125267

> <CNNaffinity_variance>
0.1512301117

$$$$
[H]c1nc(N([H])c2c([H])c([H])c([H])c([H])c2C(F)(F)F)nc2c1C([H])([H])C([H])([H])c1c(C(=O)N([H])[H])nn(C([H])([H])[H])c1-2


 31 34  0  0  0  0  0  0  0  0999 V2000
   53.7362   -6.4097   -5.3785 C   0  0  0  0  0  0  0  0  0  0  0  0
   53.2299   -5.4204   -6.3417 N   0  0  0  0  0  0  0  0  0  0  0  0
   53.7865   -5.0458   -7.4704 N   0  0  0  0  0  0  0  0  0  0  0  0
   53.0220   -4.1110   -8.0886 C   0  0  0  0  0  0  0  0  0  0  0  0
   51.9228   -3.8968   -7.2867 C   0  0  0  0  0  0  0  0  0  0  0  0
   50.7843   -2.9912   -7.4777 C   0  0  0  0  0  0  0  0  0  0  0  0
   49.7558   -2.9960   -6.4296 C   0  0  0  0  0  0  0  0  0  0  0  0
   49.9669   -3.8915   -5.3005 C   0  0  0  0  0  0  0  0  0  0  0  0
   49.0416   -3.9618   -4.2493 C   0  0  0  0  0  0  0  0  0  0  0  0
   49.2960   -4.8000   -3.2524 N   0  0  0  0  0  0  0  0  0  0  0  0
   50.3340   -5.6053   -3.1062 C   0  0  0  0  0  0  0  0  0  0  0  0
   51.2460   -5.5380   -4.1391 N   0  0  0  0  0  0  0  0  0  0  0  0
   51.0524   -4.7117   -5.1802 C   0  0  0  0  0  0  0  0  0  0  0  0
   52.0918   -4.7271   -6.2170 C   0  0  0  0  0  0  0  0  0  0  0  0
   53.3138   -3.4647   -9.3534 C   0  0  0  0  0  0  0  0  0  0  0  0
   54.5836   -3.5909   -9.9666 N   0  0  0  0  0  0  0  0  0  0  0  0
   52.4254   -2.7850   -9.9092 O   0  0  0  0  0  0  0  0  0  0  0  0
   55.0949   -4.4879   -9.9507 H   0  0  0  0  0  0  0  0  0  0  0  0
   55.0208   -2.7750  -10.4447 H   0  0  0  0  0  0  0  0  0  0  0  0
   50.5999   -6.5004   -2.0374 N   0  0  0  0  0  0  0  0  0  0  0  0
   49.7559   -7.0994   -1.7010 H   0  0  0  0  0  0  0  0  0  0  0  0
   51.7987   -6.7182   -1.3733 C   0  0  0  0  0  0  0  0  0  0  0  0
   52.7671   -5.7409   -1.2589 C   0  0  0  0  0  0  0  0  0  0  0  0
   53.9752   -5.9745   -0.6103 C   0  0  0  0  0  0  0  0  0  0  0  0
   54.2121   -7.1974   -0.0731 C   0  0  0  0  0  0  0  0  0  0  0  0
   53.2552   -8.1583   -0.1878 C   0  0  0  0  0  0  0  0  0  0  0  0
   52.0381   -7.9916   -0.8170 C   0  0  0  0  0  0  0  0  0  0  0  0
   51.0557   -9.0899   -0.8797 C   0  0  0  0  0  0  0  0  0  0  0  0
   49.8526   -8.8268   -0.2870 F   0  0  0  0  0  0  0  0  0  0  0  0
   51.5883  -10.1607   -0.1298 F   0  0  0  0  0  0  0  0  0  0  0  0
   50.8976   -9.6234   -2.1518 F   0  0  0  0  0  0  0  0  0  0  0  0
  1  2  1  0  0  0
  2  3  1  0  0  0
  3  4  2  0  0  0
  4 15  1  0  0  0
 15 16  1  0  0  0
 15 17  2  0  0  0
  4  5  1  0  0  0
  5  6  1  0  0  0
  6  7  1  0  0  0
  7  8  1  0  0  0
  8  9  2  0  0  0
  9 10  1  0  0  0
 10 11  2  0  0  0
 11 20  1  0  0  0
 20 22  1  0  0  0
 22 23  2  0  0  0
 23 24  1  0  0  0
 24 25  2  0  0  0
 25 26  1  0  0  0
 26 27  2  0  0  0
 27 28  1  0  0  0
 28 29  1  0  0  0
 28 30  1  0  0  0
 28 31  1  0  0  0
 11 12  1  0  0  0
 12 13  2  0  0  0
 13 14  1  0  0  0
 14  2  1  0  0  0
 14  5  2  0  0  0
 13  8  1  0  0  0
 27 22  1  0  0  0
 16 18  1  0  0  0
 16 19  1  0  0  0
 20 21  1  0  0  0
M  END
> <minimizedAffinity>
-10.26441

> <CNNscore>
0.5921645164

> <CNNaffinity>
7.0897917747

> <CNN_VS>
4.1983232498

> <CNNaffinity_variance>
0.4373896718

$$$$
[H]c1nc(N([H])c2c([H])c([H])c([H])c([H])c2C(F)(F)F)nc2c1C([H])([H])C([H])([H])c1c(C(=O)N([H])[H])nn(C([H])([H])[H])c1-2


 31 34  0  0  0  0  0  0  0  0999 V2000
   54.1737   -6.5903   -5.5726 C   0  0  0  0  0  0  0  0  0  0  0  0
   52.8986   -5.8988   -5.3303 N   0  0  0  0  0  0  0  0  0  0  0  0
   52.0664   -6.0827   -4.3314 N   0  0  0  0  0  0  0  0  0  0  0  0
   50.9950   -5.2589   -4.4491 C   0  0  0  0  0  0  0  0  0  0  0  0
   51.1809   -4.5198   -5.5964 C   0  0  0  0  0  0  0  0  0  0  0  0
   50.3294   -3.4851   -6.1941 C   0  0  0  0  0  0  0  0  0  0  0  0
   50.8131   -2.8713   -7.4373 C   0  0  0  0  0  0  0  0  0  0  0  0
   52.0847   -3.3515   -7.9604 C   0  0  0  0  0  0  0  0  0  0  0  0
   52.6246   -2.8284   -9.1441 C   0  0  0  0  0  0  0  0  0  0  0  0
   53.7876   -3.3111   -9.5632 N   0  0  0  0  0  0  0  0  0  0  0  0
   54.5338   -4.2472   -9.0028 C   0  0  0  0  0  0  0  0  0  0  0  0
   54.0048   -4.7637   -7.8381 N   0  0  0  0  0  0  0  0  0  0  0  0
   52.8317   -4.3219   -7.3556 C   0  0  0  0  0  0  0  0  0  0  0  0
   52.3706   -4.9476   -6.1100 C   0  0  0  0  0  0  0  0  0  0  0  0
   49.8715   -5.1781   -3.5361 C   0  0  0  0  0  0  0  0  0  0  0  0
   48.7397   -4.3811   -3.8334 N   0  0  0  0  0  0  0  0  0  0  0  0
   49.9065   -5.8254   -2.4685 O   0  0  0  0  0  0  0  0  0  0  0  0
   48.3642   -4.3283   -4.7939 H   0  0  0  0  0  0  0  0  0  0  0  0
   48.2686   -3.8345   -3.0820 H   0  0  0  0  0  0  0  0  0  0  0  0
   55.7777   -4.7587   -9.4559 N   0  0  0  0  0  0  0  0  0  0  0  0
   56.2485   -5.4978   -8.8106 H   0  0  0  0  0  0  0  0  0  0  0  0
   56.4657   -4.4466  -10.6199 C   0  0  0  0  0  0  0  0  0  0  0  0
   55.8535   -3.8416  -11.6993 C   0  0  0  0  0  0  0  0  0  0  0  0
   56.5456   -3.5519  -12.8705 C   0  0  0  0  0  0  0  0  0  0  0  0
   57.8609   -3.8721  -12.9582 C   0  0  0  0  0  0  0  0  0  0  0  0
   58.4610   -4.4684  -11.8922 C   0  0  0  0  0  0  0  0  0  0  0  0
   57.8328   -4.7818  -10.7039 C   0  0  0  0  0  0  0  0  0  0  0  0
   58.5706   -5.4171   -9.5961 C   0  0  0  0  0  0  0  0  0  0  0  0
   58.4588   -4.7874   -8.3881 F   0  0  0  0  0  0  0  0  0  0  0  0
   59.9435   -5.3267   -9.9118 F   0  0  0  0  0  0  0  0  0  0  0  0
   58.3453   -6.7828   -9.4879 F   0  0  0  0  0  0  0  0  0  0  0  0
  1  2  1  0  0  0
  2  3  1  0  0  0
  3  4  2  0  0  0
  4 15  1  0  0  0
 15 16  1  0  0  0
 15 17  2  0  0  0
  4  5  1  0  0  0
  5  6  1  0  0  0
  6  7  1  0  0  0
  7  8  1  0  0  0
  8  9  2  0  0  0
  9 10  1  0  0  0
 10 11  2  0  0  0
 11 20  1  0  0  0
 20 22  1  0  0  0
 22 23  2  0  0  0
 23 24  1  0  0  0
 24 25  2  0  0  0
 25 26  1  0  0  0
 26 27  2  0  0  0
 27 28  1  0  0  0
 28 29  1  0  0  0
 28 30  1  0  0  0
 28 31  1  0  0  0
 11 12  1  0  0  0
 12 13  2  0  0  0
 13 14  1  0  0  0
 14  2  1  0  0  0
 14  5  2  0  0  0
 13  8  1  0  0  0
 27 22  1  0  0  0
 16 18  1  0  0  0
 16 19  1  0  0  0
 20 21  1  0  0  0
M  END
> <minimizedAffinity>
-10.06227

> <CNNscore>
0.5313127637

> <CNNaffinity>
7.0118074417

> <CNN_VS>
3.7254626751

> <CNNaffinity_variance>
0.1910892129

$$$$
[H]c1nc(N([H])c2c([H])c([H])c([H])c([H])c2C(F)(F)F)nc2c1C([H])([H])C([H])([H])c1c(C(=O)N([H])[H])nn(C([H])([H])[H])c1-2


 31 34  0  0  0  0  0  0  0  0999 V2000
   56.6752   -5.7996   -6.2707 C   0  0  0  0  0  0  0  0  0  0  0  0
   55.8822   -5.0988   -7.2918 N   0  0  0  0  0  0  0  0  0  0  0  0
   54.6679   -4.6147   -7.1681 N   0  0  0  0  0  0  0  0  0  0  0  0
   54.2677   -4.0360   -8.3280 C   0  0  0  0  0  0  0  0  0  0  0  0
   55.3047   -4.1737   -9.2241 C   0  0  0  0  0  0  0  0  0  0  0  0
   55.4040   -3.7307  -10.6193 C   0  0  0  0  0  0  0  0  0  0  0  0
   56.6614   -4.0282  -11.3169 C   0  0  0  0  0  0  0  0  0  0  0  0
   57.6842   -4.7387  -10.5616 C   0  0  0  0  0  0  0  0  0  0  0  0
   58.9155   -5.0705  -11.1448 C   0  0  0  0  0  0  0  0  0  0  0  0
   59.8023   -5.7173  -10.3990 N   0  0  0  0  0  0  0  0  0  0  0  0
   59.6841   -6.1058   -9.1410 C   0  0  0  0  0  0  0  0  0  0  0  0
   58.4736   -5.7806   -8.5648 N   0  0  0  0  0  0  0  0  0  0  0  0
   57.5296   -5.1262   -9.2611 C   0  0  0  0  0  0  0  0  0  0  0  0
   56.2830   -4.8367   -8.5417 C   0  0  0  0  0  0  0  0  0  0  0  0
   52.9893   -3.3963   -8.5704 C   0  0  0  0  0  0  0  0  0  0  0  0
   51.9104   -3.5453   -7.6658 N   0  0  0  0  0  0  0  0  0  0  0  0
   52.8411   -2.7013   -9.5976 O   0  0  0  0  0  0  0  0  0  0  0  0
   52.0686   -3.5470   -6.6454 H   0  0  0  0  0  0  0  0  0  0  0  0
   50.9372   -3.6559   -8.0207 H   0  0  0  0  0  0  0  0  0  0  0  0
   60.6371   -6.7969   -8.3483 N   0  0  0  0  0  0  0  0  0  0  0  0
   60.2389   -7.3288   -7.4864 H   0  0  0  0  0  0  0  0  0  0  0  0
   62.0088   -6.8911   -8.5358 C   0  0  0  0  0  0  0  0  0  0  0  0
   62.8669   -5.8504   -8.2414 C   0  0  0  0  0  0  0  0  0  0  0  0
   64.2384   -5.9455   -8.4528 C   0  0  0  0  0  0  0  0  0  0  0  0
   64.7513   -7.0929   -8.9632 C   0  0  0  0  0  0  0  0  0  0  0  0
   63.9023   -8.1166   -9.2522 C   0  0  0  0  0  0  0  0  0  0  0  0
   62.5350   -8.0869   -9.0663 C   0  0  0  0  0  0  0  0  0  0  0  0
   61.6953   -9.2534   -9.3970 C   0  0  0  0  0  0  0  0  0  0  0  0
   62.3561  -10.2965   -9.9831 F   0  0  0  0  0  0  0  0  0  0  0  0
   60.7714   -8.8299  -10.3767 F   0  0  0  0  0  0  0  0  0  0  0  0
   60.8925   -9.6773   -8.3465 F   0  0  0  0  0  0  0  0  0  0  0  0
  1  2  1  0  0  0
  2  3  1  0  0  0
  3  4  2  0  0  0
  4 15  1  0  0  0
 15 16  1  0  0  0
 15 17  2  0  0  0
  4  5  1  0  0  0
  5  6  1  0  0  0
  6  7  1  0  0  0
  7  8  1  0  0  0
  8  9  2  0  0  0
  9 10  1  0  0  0
 10 11  2  0  0  0
 11 20  1  0  0  0
 20 22  1  0  0  0
 22 23  2  0  0  0
 23 24  1  0  0  0
 24 25  2  0  0  0
 25 26  1  0  0  0
 26 27  2  0  0  0
 27 28  1  0  0  0
 28 29  1  0  0  0
 28 30  1  0  0  0
 28 31  1  0  0  0
 11 12  1  0  0  0
 12 13  2  0  0  0
 13 14  1  0  0  0
 14  2  1  0  0  0
 14  5  2  0  0  0
 13  8  1  0  0  0
 27 22  1  0  0  0
 16 18  1  0  0  0
 16 19  1  0  0  0
 20 21  1  0  0  0
M  END
> <minimizedAffinity>
-7.62643

> <CNNscore>
0.5217739344

> <CNNaffinity>
6.1565489769

> <CNN_VS>
3.2123267651

> <CNNaffinity_variance>
0.2200647146

$$$$
[H]c1nc(N([H])c2c([H])c([H])c([H])c([H])c2C(F)(F)F)nc2c1C([H])([H])C([H])([H])c1c(C(=O)N([H])[H])nn(C([H])([H])[H])c1-2


 31 34  0  0  0  0  0  0  0  0999 V2000
   54.0543   -2.1606   -8.9840 C   0  0  0  0  0  0  0  0  0  0  0  0
   52.9874   -2.8267   -8.2219 N   0  0  0  0  0  0  0  0  0  0  0  0
   51.7158   -2.5027   -8.1758 N   0  0  0  0  0  0  0  0  0  0  0  0
   51.0392   -3.3523   -7.3630 C   0  0  0  0  0  0  0  0  0  0  0  0
   51.9557   -4.2585   -6.8772 C   0  0  0  0  0  0  0  0  0  0  0  0
   51.7631   -5.3878   -5.9604 C   0  0  0  0  0  0  0  0  0  0  0  0
   52.9549   -6.1802   -5.6321 C   0  0  0  0  0  0  0  0  0  0  0  0
   54.2118   -5.7668   -6.2406 C   0  0  0  0  0  0  0  0  0  0  0  0
   55.4035   -6.4595   -5.9828 C   0  0  0  0  0  0  0  0  0  0  0  0
   56.5123   -6.0291   -6.5714 N   0  0  0  0  0  0  0  0  0  0  0  0
   56.6562   -5.0047   -7.3943 C   0  0  0  0  0  0  0  0  0  0  0  0
   55.4853   -4.3214   -7.6495 N   0  0  0  0  0  0  0  0  0  0  0  0
   54.3259   -4.7016   -7.0879 C   0  0  0  0  0  0  0  0  0  0  0  0
   53.1479   -3.8967   -7.4338 C   0  0  0  0  0  0  0  0  0  0  0  0
   49.6204   -3.3080   -7.0670 C   0  0  0  0  0  0  0  0  0  0  0  0
   48.6567   -3.2296   -8.1011 N   0  0  0  0  0  0  0  0  0  0  0  0
   49.2456   -3.3400   -5.8759 O   0  0  0  0  0  0  0  0  0  0  0  0
   48.7746   -3.7603   -8.9790 H   0  0  0  0  0  0  0  0  0  0  0  0
   47.8111   -2.6315   -7.9885 H   0  0  0  0  0  0  0  0  0  0  0  0
   57.8454   -4.5498   -8.0213 N   0  0  0  0  0  0  0  0  0  0  0  0
   58.0615   -3.4888   -7.9124 H   0  0  0  0  0  0  0  0  0  0  0  0
   58.7734   -5.2844   -8.7459 C   0  0  0  0  0  0  0  0  0  0  0  0
   59.8183   -5.9544   -8.1415 C   0  0  0  0  0  0  0  0  0  0  0  0
   60.7567   -6.6705   -8.8772 C   0  0  0  0  0  0  0  0  0  0  0  0
   60.6449   -6.7139  -10.2284 C   0  0  0  0  0  0  0  0  0  0  0  0
   59.6136   -6.0522  -10.8206 C   0  0  0  0  0  0  0  0  0  0  0  0
   58.6508   -5.3255  -10.1500 C   0  0  0  0  0  0  0  0  0  0  0  0
   57.5598   -4.6514  -10.8782 C   0  0  0  0  0  0  0  0  0  0  0  0
   56.2999   -5.0703  -10.5535 F   0  0  0  0  0  0  0  0  0  0  0  0
   57.7020   -4.9939  -12.2402 F   0  0  0  0  0  0  0  0  0  0  0  0
   57.6595   -3.2665  -10.8732 F   0  0  0  0  0  0  0  0  0  0  0  0
  1  2  1  0  0  0
  2  3  1  0  0  0
  3  4  2  0  0  0
  4 15  1  0  0  0
 15 16  1  0  0  0
 15 17  2  0  0  0
  4  5  1  0  0  0
  5  6  1  0  0  0
  6  7  1  0  0  0
  7  8  1  0  0  0
  8  9  2  0  0  0
  9 10  1  0  0  0
 10 11  2  0  0  0
 11 20  1  0  0  0
 20 22  1  0  0  0
 22 23  2  0  0  0
 23 24  1  0  0  0
 24 25  2  0  0  0
 25 26  1  0  0  0
 26 27  2  0  0  0
 27 28  1  0  0  0
 28 29  1  0  0  0
 28 30  1  0  0  0
 28 31  1  0  0  0
 11 12  1  0  0  0
 12 13  2  0  0  0
 13 14  1  0  0  0
 14  2  1  0  0  0
 14  5  2  0  0  0
 13  8  1  0  0  0
 27 22  1  0  0  0
 16 18  1  0  0  0
 16 19  1  0  0  0
 20 21  1  0  0  0
M  END
> <minimizedAffinity>
-6.25753

> <CNNscore>
0.4938945472

> <CNNaffinity>
6.8471288681

> <CNN_VS>
3.3817596436

> <CNNaffinity_variance>
0.2279739827

$$$$
[H]c1c([H])c([H])c(C([H])([H])Oc2c(C(=O)N([H])[H])sc(-n3c([H])nc4c([H])c(OC([H])([H])[H])c(OC([H])([H])[H])c([H])c43)c2[H])c(Cl)c1[H]


 32 35  0  0  0  0  0  0  0  0999 V2000
   55.3170   -4.1398   -9.1722 C   0  0  0  0  0  0  0  0  0  0  0  0
   55.8936   -4.2237  -10.4146 C   0  0  0  0  0  0  0  0  0  0  0  0
   57.1250   -4.7589  -10.4931 C   0  0  0  0  0  0  0  0  0  0  0  0
   57.6950   -5.1738   -9.3196 C   0  0  0  0  0  0  0  0  0  0  0  0
   56.5031   -4.8063   -8.1546 S   0  0  0  0  0  0  0  0  0  0  0  0
   51.1124   -4.4668   -6.1245 C   0  0  0  0  0  0  0  0  0  0  0  0
   51.0199   -3.4572   -7.0656 C   0  0  0  0  0  0  0  0  0  0  0  0
   52.0496   -3.2472   -7.9408 C   0  0  0  0  0  0  0  0  0  0  0  0
   52.1952   -2.3403   -8.9342 N   0  0  0  0  0  0  0  0  0  0  0  0
   53.3977   -2.5772   -9.4783 C   0  0  0  0  0  0  0  0  0  0  0  0
   54.0073   -3.6027   -8.8563 N   0  0  0  0  0  0  0  0  0  0  0  0
   53.1837   -4.0405   -7.8889 C   0  0  0  0  0  0  0  0  0  0  0  0
   53.2945   -5.0541   -6.9557 C   0  0  0  0  0  0  0  0  0  0  0  0
   52.2515   -5.2623   -6.0737 C   0  0  0  0  0  0  0  0  0  0  0  0
   49.4015   -3.6070   -4.6459 C   0  0  0  0  0  0  0  0  0  0  0  0
   50.0800   -4.6762   -5.2482 O   0  0  0  0  0  0  0  0  0  0  0  0
   52.2767   -6.2562   -5.1047 O   0  0  0  0  0  0  0  0  0  0  0  0
   53.0518   -6.2232   -3.9464 C   0  0  0  0  0  0  0  0  0  0  0  0
   59.0235   -5.7945   -9.0901 C   0  0  0  0  0  0  0  0  0  0  0  0
   59.4284   -6.8932   -9.8690 N   0  0  0  0  0  0  0  0  0  0  0  0
   59.7306   -5.2890   -8.1879 O   0  0  0  0  0  0  0  0  0  0  0  0
   59.3295   -6.8771  -10.8990 H   0  0  0  0  0  0  0  0  0  0  0  0
   59.8317   -7.7342   -9.4197 H   0  0  0  0  0  0  0  0  0  0  0  0
   57.8557   -4.9156  -11.7030 O   0  0  0  0  0  0  0  0  0  0  0  0
   58.3085   -3.7790  -12.3990 C   0  0  0  0  0  0  0  0  0  0  0  0
   57.7546   -3.7000  -13.7501 C   0  0  0  0  0  0  0  0  0  0  0  0
   56.4297   -3.9266  -14.0325 C   0  0  0  0  0  0  0  0  0  0  0  0
   55.8972   -3.8536  -15.3104 C   0  0  0  0  0  0  0  0  0  0  0  0
   56.7084   -3.5422  -16.3626 C   0  0  0  0  0  0  0  0  0  0  0  0
   58.0412   -3.3080  -16.1235 C   0  0  0  0  0  0  0  0  0  0  0  0
   58.5575   -3.3835  -14.8502 C   0  0  0  0  0  0  0  0  0  0  0  0
   60.2644   -3.0774  -14.5871 Cl  0  0  0  0  0  0  0  0  0  0  0  0
 15 16  1  0  0  0
 16  6  1  0  0  0
  6  7  2  0  0  0
  7  8  1  0  0  0
  8  9  1  0  0  0
  9 10  2  0  0  0
 10 11  1  0  0  0
 11  1  1  0  0  0
  1  2  2  0  0  0
  2  3  1  0  0  0
  3 24  1  0  0  0
 24 25  1  0  0  0
 25 26  1  0  0  0
 26 27  2  0  0  0
 27 28  1  0  0  0
 28 29  2  0  0  0
 29 30  1  0  0  0
 30 31  2  0  0  0
 31 32  1  0  0  0
  3  4  2  0  0  0
  4  5  1  0  0  0
  4 19  1  0  0  0
 19 20  1  0  0  0
 19 21  2  0  0  0
 11 12  1  0  0  0
 12 13  1  0  0  0
 13 14  2  0  0  0
 14 17  1  0  0  0
 17 18  1  0  0  0
 14  6  1  0  0  0
 12  8  2  0  0  0
  5  1  1  0  0  0
 31 26  1  0  0  0
 20 22  1  0  0  0
 20 23  1  0  0  0
M  END
> <minimizedAffinity>
-8.79531

> <CNNscore>
0.8598640561

> <CNNaffinity>
7.1619901657

> <CNN_VS>
6.1583380699

> <CNNaffinity_variance>
0.0804777592

$$$$
[H]c1c([H])c([H])c(C([H])([H])Oc2c(C(=O)N([H])[H])sc(-n3c([H])nc4c([H])c(OC([H])([H])[H])c(OC([H])([H])[H])c([H])c43)c2[H])c(Cl)c1[H]


 32 35  0  0  0  0  0  0  0  0999 V2000
   54.7636   -4.0275   -8.3334 C   0  0  0  0  0  0  0  0  0  0  0  0
   55.3541   -4.6584   -7.2675 C   0  0  0  0  0  0  0  0  0  0  0  0
   56.5636   -5.2122   -7.4656 C   0  0  0  0  0  0  0  0  0  0  0  0
   57.0993   -5.0956   -8.7201 C   0  0  0  0  0  0  0  0  0  0  0  0
   55.9067   -4.2239   -9.5749 S   0  0  0  0  0  0  0  0  0  0  0  0
   50.0291   -3.7124   -6.1978 C   0  0  0  0  0  0  0  0  0  0  0  0
   50.2173   -2.8104   -7.2296 C   0  0  0  0  0  0  0  0  0  0  0  0
   51.4141   -2.7731   -7.8905 C   0  0  0  0  0  0  0  0  0  0  0  0
   51.8353   -1.9957   -8.9144 N   0  0  0  0  0  0  0  0  0  0  0  0
   53.0944   -2.3766   -9.1747 C   0  0  0  0  0  0  0  0  0  0  0  0
   53.4724   -3.3668   -8.3461 N   0  0  0  0  0  0  0  0  0  0  0  0
   52.4377   -3.6341   -7.5313 C   0  0  0  0  0  0  0  0  0  0  0  0
   52.2687   -4.5423   -6.5031 C   0  0  0  0  0  0  0  0  0  0  0  0
   51.0577   -4.5761   -5.8386 C   0  0  0  0  0  0  0  0  0  0  0  0
   48.3926   -2.6722   -4.7514 C   0  0  0  0  0  0  0  0  0  0  0  0
   48.8296   -3.7486   -5.5366 O   0  0  0  0  0  0  0  0  0  0  0  0
   50.8000   -5.4545   -4.7950 O   0  0  0  0  0  0  0  0  0  0  0  0
   51.7575   -5.9447   -3.9083 C   0  0  0  0  0  0  0  0  0  0  0  0
   58.3978   -5.5963   -9.2357 C   0  0  0  0  0  0  0  0  0  0  0  0
   59.4034   -5.9937   -8.3365 N   0  0  0  0  0  0  0  0  0  0  0  0
   58.5285   -5.6377  -10.4809 O   0  0  0  0  0  0  0  0  0  0  0  0
   59.1859   -6.6209   -7.5426 H   0  0  0  0  0  0  0  0  0  0  0  0
   60.3766   -5.6624   -8.4584 H   0  0  0  0  0  0  0  0  0  0  0  0
   57.3045   -5.8995   -6.4651 O   0  0  0  0  0  0  0  0  0  0  0  0
   56.6479   -6.7932   -5.5984 C   0  0  0  0  0  0  0  0  0  0  0  0
   56.5373   -6.2656   -4.2390 C   0  0  0  0  0  0  0  0  0  0  0  0
   55.4937   -5.4756   -3.8230 C   0  0  0  0  0  0  0  0  0  0  0  0
   55.3820   -4.9718   -2.5363 C   0  0  0  0  0  0  0  0  0  0  0  0
   56.3448   -5.2595   -1.6130 C   0  0  0  0  0  0  0  0  0  0  0  0
   57.4066   -6.0471   -1.9882 C   0  0  0  0  0  0  0  0  0  0  0  0
   57.5058   -6.5411   -3.2687 C   0  0  0  0  0  0  0  0  0  0  0  0
   58.8770   -7.5428   -3.7077 Cl  0  0  0  0  0  0  0  0  0  0  0  0
 15 16  1  0  0  0
 16  6  1  0  0  0
  6  7  2  0  0  0
  7  8  1  0  0  0
  8  9  1  0  0  0
  9 10  2  0  0  0
 10 11  1  0  0  0
 11  1  1  0  0  0
  1  2  2  0  0  0
  2  3  1  0  0  0
  3 24  1  0  0  0
 24 25  1  0  0  0
 25 26  1  0  0  0
 26 27  2  0  0  0
 27 28  1  0  0  0
 28 29  2  0  0  0
 29 30  1  0  0  0
 30 31  2  0  0  0
 31 32  1  0  0  0
  3  4  2  0  0  0
  4  5  1  0  0  0
  4 19  1  0  0  0
 19 20  1  0  0  0
 19 21  2  0  0  0
 11 12  1  0  0  0
 12 13  1  0  0  0
 13 14  2  0  0  0
 14 17  1  0  0  0
 17 18  1  0  0  0
 14  6  1  0  0  0
 12  8  2  0  0  0
  5  1  1  0  0  0
 31 26  1  0  0  0
 20 22  1  0  0  0
 20 23  1  0  0  0
M  END
> <minimizedAffinity>
-8.35350

> <CNNscore>
0.8456894755

> <CNNaffinity>
7.4172563553

> <CNN_VS>
6.2726955414

> <CNNaffinity_variance>
0.0811473280

$$$$
[H]c1c([H])c([H])c(C([H])([H])Oc2c(C(=O)N([H])[H])sc(-n3c([H])nc4c([H])c(OC([H])([H])[H])c(OC([H])([H])[H])c([H])c43)c2[H])c(Cl)c1[H]


 32 35  0  0  0  0  0  0  0  0999 V2000
   55.2859   -5.3949   -5.0166 C   0  0  0  0  0  0  0  0  0  0  0  0
   53.9617   -5.7403   -4.9149 C   0  0  0  0  0  0  0  0  0  0  0  0
   53.3970   -5.6842   -3.6955 C   0  0  0  0  0  0  0  0  0  0  0  0
   54.1990   -5.2852   -2.6603 C   0  0  0  0  0  0  0  0  0  0  0  0
   55.7028   -5.0038   -3.4167 S   0  0  0  0  0  0  0  0  0  0  0  0
   55.5744   -4.0227  -10.0275 C   0  0  0  0  0  0  0  0  0  0  0  0
   56.7186   -4.6538   -9.5737 C   0  0  0  0  0  0  0  0  0  0  0  0
   56.7934   -5.0744   -8.2745 C   0  0  0  0  0  0  0  0  0  0  0  0
   57.7856   -5.7043   -7.6043 N   0  0  0  0  0  0  0  0  0  0  0  0
   57.3333   -5.8819   -6.3544 C   0  0  0  0  0  0  0  0  0  0  0  0
   56.0908   -5.3830   -6.2231 N   0  0  0  0  0  0  0  0  0  0  0  0
   55.7290   -4.8712   -7.4118 C   0  0  0  0  0  0  0  0  0  0  0  0
   54.5775   -4.2426   -7.8468 C   0  0  0  0  0  0  0  0  0  0  0  0
   54.5068   -3.8195   -9.1602 C   0  0  0  0  0  0  0  0  0  0  0  0
   56.5003   -3.9196  -12.2601 C   0  0  0  0  0  0  0  0  0  0  0  0
   55.5007   -3.6018  -11.3294 O   0  0  0  0  0  0  0  0  0  0  0  0
   53.3907   -3.1801   -9.6824 O   0  0  0  0  0  0  0  0  0  0  0  0
   52.5185   -2.3729   -8.9538 C   0  0  0  0  0  0  0  0  0  0  0  0
   53.8658   -5.1278   -1.2225 C   0  0  0  0  0  0  0  0  0  0  0  0
   52.5690   -4.7393   -0.8414 N   0  0  0  0  0  0  0  0  0  0  0  0
   54.7869   -5.3570   -0.4049 O   0  0  0  0  0  0  0  0  0  0  0  0
   51.7371   -5.2029   -1.2462 H   0  0  0  0  0  0  0  0  0  0  0  0
   52.4308   -3.9823   -0.1489 H   0  0  0  0  0  0  0  0  0  0  0  0
   52.0393   -6.0096   -3.4248 O   0  0  0  0  0  0  0  0  0  0  0  0
   51.1533   -6.2568   -4.4902 C   0  0  0  0  0  0  0  0  0  0  0  0
   50.4350   -5.0520   -4.9038 C   0  0  0  0  0  0  0  0  0  0  0  0
   49.6575   -4.3108   -4.0480 C   0  0  0  0  0  0  0  0  0  0  0  0
   48.9736   -3.1679   -4.4325 C   0  0  0  0  0  0  0  0  0  0  0  0
   49.0590   -2.7325   -5.7230 C   0  0  0  0  0  0  0  0  0  0  0  0
   49.8268   -3.4455   -6.6121 C   0  0  0  0  0  0  0  0  0  0  0  0
   50.5009   -4.5786   -6.2178 C   0  0  0  0  0  0  0  0  0  0  0  0
   51.4705   -5.4604   -7.3834 Cl  0  0  0  0  0  0  0  0  0  0  0  0
 15 16  1  0  0  0
 16  6  1  0  0  0
  6  7  2  0  0  0
  7  8  1  0  0  0
  8  9  1  0  0  0
  9 10  2  0  0  0
 10 11  1  0  0  0
 11  1  1  0  0  0
  1  2  2  0  0  0
  2  3  1  0  0  0
  3 24  1  0  0  0
 24 25  1  0  0  0
 25 26  1  0  0  0
 26 27  2  0  0  0
 27 28  1  0  0  0
 28 29  2  0  0  0
 29 30  1  0  0  0
 30 31  2  0  0  0
 31 32  1  0  0  0
  3  4  2  0  0  0
  4  5  1  0  0  0
  4 19  1  0  0  0
 19 20  1  0  0  0
 19 21  2  0  0  0
 11 12  1  0  0  0
 12 13  1  0  0  0
 13 14  2  0  0  0
 14 17  1  0  0  0
 17 18  1  0  0  0
 14  6  1  0  0  0
 12  8  2  0  0  0
  5  1  1  0  0  0
 31 26  1  0  0  0
 20 22  1  0  0  0
 20 23  1  0  0  0
M  END
> <minimizedAffinity>
-9.08296

> <CNNscore>
0.6711601019

> <CNNaffinity>
7.4983854294

> <CNN_VS>
5.0326170921

> <CNNaffinity_variance>
0.1950294971

$$$$
[H]c1c([H])c([H])c(C([H])([H])Oc2c(C(=O)N([H])[H])sc(-n3c([H])nc4c([H])c(OC([H])([H])[H])c(OC([H])([H])[H])c([H])c43)c2[H])c(Cl)c1[H]


 32 35  0  0  0  0  0  0  0  0999 V2000
   53.9752   -4.1799   -9.0262 C   0  0  0  0  0  0  0  0  0  0  0  0
   53.7388   -5.0470   -7.9893 C   0  0  0  0  0  0  0  0  0  0  0  0
   52.6351   -4.8432   -7.2483 C   0  0  0  0  0  0  0  0  0  0  0  0
   51.8428   -3.7828   -7.5976 C   0  0  0  0  0  0  0  0  0  0  0  0
   52.6578   -3.1107   -8.9381 S   0  0  0  0  0  0  0  0  0  0  0  0
   58.9968   -5.3572   -9.7140 C   0  0  0  0  0  0  0  0  0  0  0  0
   58.4001   -4.8493  -10.8540 C   0  0  0  0  0  0  0  0  0  0  0  0
   57.0800   -4.4927  -10.8293 C   0  0  0  0  0  0  0  0  0  0  0  0
   56.2835   -3.9819  -11.7962 N   0  0  0  0  0  0  0  0  0  0  0  0
   55.0770   -3.8186  -11.2340 C   0  0  0  0  0  0  0  0  0  0  0  0
   55.0951   -4.2112   -9.9473 N   0  0  0  0  0  0  0  0  0  0  0  0
   56.3385   -4.6379   -9.6686 C   0  0  0  0  0  0  0  0  0  0  0  0
   56.9170   -5.1436   -8.5195 C   0  0  0  0  0  0  0  0  0  0  0  0
   58.2510   -5.5023   -8.5495 C   0  0  0  0  0  0  0  0  0  0  0  0
   60.9660   -6.0445  -10.9396 C   0  0  0  0  0  0  0  0  0  0  0  0
   60.3194   -5.7140   -9.7400 O   0  0  0  0  0  0  0  0  0  0  0  0
   58.9133   -6.0180   -7.4437 O   0  0  0  0  0  0  0  0  0  0  0  0
   60.0232   -6.8596   -7.4980 C   0  0  0  0  0  0  0  0  0  0  0  0
   50.5790   -3.3120   -6.9779 C   0  0  0  0  0  0  0  0  0  0  0  0
   50.1316   -1.9987   -7.2079 N   0  0  0  0  0  0  0  0  0  0  0  0
   49.9635   -4.1365   -6.2632 O   0  0  0  0  0  0  0  0  0  0  0  0
   50.1062   -1.6083   -8.1659 H   0  0  0  0  0  0  0  0  0  0  0  0
   49.8213   -1.4049   -6.4188 H   0  0  0  0  0  0  0  0  0  0  0  0
   52.2509   -5.6511   -6.1428 O   0  0  0  0  0  0  0  0  0  0  0  0
   52.7395   -5.3547   -4.8565 C   0  0  0  0  0  0  0  0  0  0  0  0
   53.7037   -6.3493   -4.3878 C   0  0  0  0  0  0  0  0  0  0  0  0
   54.8072   -6.7252   -5.1140 C   0  0  0  0  0  0  0  0  0  0  0  0
   55.7256   -7.6672   -4.6766 C   0  0  0  0  0  0  0  0  0  0  0  0
   55.5496   -8.2690   -3.4645 C   0  0  0  0  0  0  0  0  0  0  0  0
   54.4578   -7.9214   -2.7058 C   0  0  0  0  0  0  0  0  0  0  0  0
   53.5534   -6.9848   -3.1514 C   0  0  0  0  0  0  0  0  0  0  0  0
   52.1729   -6.5689   -2.1527 Cl  0  0  0  0  0  0  0  0  0  0  0  0
 15 16  1  0  0  0
 16  6  1  0  0  0
  6  7  2  0  0  0
  7  8  1  0  0  0
  8  9  1  0  0  0
  9 10  2  0  0  0
 10 11  1  0  0  0
 11  1  1  0  0  0
  1  2  2  0  0  0
  2  3  1  0  0  0
  3 24  1  0  0  0
 24 25  1  0  0  0
 25 26  1  0  0  0
 26 27  2  0  0  0
 27 28  1  0  0  0
 28 29  2  0  0  0
 29 30  1  0  0  0
 30 31  2  0  0  0
 31 32  1  0  0  0
  3  4  2  0  0  0
  4  5  1  0  0  0
  4 19  1  0  0  0
 19 20  1  0  0  0
 19 21  2  0  0  0
 11 12  1  0  0  0
 12 13  1  0  0  0
 13 14  2  0  0  0
 14 17  1  0  0  0
 17 18  1  0  0  0
 14  6  1  0  0  0
 12  8  2  0  0  0
  5  1  1  0  0  0
 31 26  1  0  0  0
 20 22  1  0  0  0
 20 23  1  0  0  0
M  END
> <minimizedAffinity>
-5.11434

> <CNNscore>
0.6315301657

> <CNNaffinity>
7.1488084793

> <CNN_VS>
4.5146880150

> <CNNaffinity_variance>
0.3627233207

$$$$
[H]c1c([H])c([H])c(C([H])([H])Oc2c(C(=O)N([H])[H])sc(-n3c([H])nc4c([H])c(OC([H])([H])[H])c(OC([H])([H])[H])c([H])c43)c2[H])c(Cl)c1[H]


 32 35  0  0  0  0  0  0  0  0999 V2000
   52.2689   -4.5468   -6.5780 C   0  0  0  0  0  0  0  0  0  0  0  0
   52.9222   -5.4005   -5.7252 C   0  0  0  0  0  0  0  0  0  0  0  0
   52.2871   -5.7551   -4.5939 C   0  0  0  0  0  0  0  0  0  0  0  0
   51.0390   -5.2291   -4.3945 C   0  0  0  0  0  0  0  0  0  0  0  0
   50.7950   -4.2647   -5.7814 S   0  0  0  0  0  0  0  0  0  0  0  0
   56.2574   -4.3303   -9.9127 C   0  0  0  0  0  0  0  0  0  0  0  0
   55.1515   -3.6219  -10.3469 C   0  0  0  0  0  0  0  0  0  0  0  0
   54.0222   -3.5849   -9.5763 C   0  0  0  0  0  0  0  0  0  0  0  0
   52.8328   -2.9726   -9.7788 N   0  0  0  0  0  0  0  0  0  0  0  0
   52.0799   -3.2632   -8.7078 C   0  0  0  0  0  0  0  0  0  0  0  0
   52.7613   -4.0372   -7.8436 N   0  0  0  0  0  0  0  0  0  0  0  0
   53.9812   -4.2534   -8.3640 C   0  0  0  0  0  0  0  0  0  0  0  0
   55.0761   -4.9666   -7.9134 C   0  0  0  0  0  0  0  0  0  0  0  0
   56.2147   -5.0008   -8.6954 C   0  0  0  0  0  0  0  0  0  0  0  0
   57.3759   -3.9444  -12.0228 C   0  0  0  0  0  0  0  0  0  0  0  0
   57.3882   -4.3665  -10.6856 O   0  0  0  0  0  0  0  0  0  0  0  0
   57.3597   -5.6913   -8.3220 O   0  0  0  0  0  0  0  0  0  0  0  0
   58.6644   -5.2468   -8.5304 C   0  0  0  0  0  0  0  0  0  0  0  0
   50.1061   -5.4323   -3.2582 C   0  0  0  0  0  0  0  0  0  0  0  0
   50.5239   -6.1587   -2.1288 N   0  0  0  0  0  0  0  0  0  0  0  0
   48.9643   -4.9298   -3.3731 O   0  0  0  0  0  0  0  0  0  0  0  0
   51.4341   -5.9597   -1.6784 H   0  0  0  0  0  0  0  0  0  0  0  0
   49.9238   -6.9038   -1.7332 H   0  0  0  0  0  0  0  0  0  0  0  0
   52.8277   -6.6290   -3.6109 O   0  0  0  0  0  0  0  0  0  0  0  0
   54.1584   -7.0732   -3.7255 C   0  0  0  0  0  0  0  0  0  0  0  0
   55.0722   -6.3087   -2.8775 C   0  0  0  0  0  0  0  0  0  0  0  0
   55.8298   -5.2621   -3.3431 C   0  0  0  0  0  0  0  0  0  0  0  0
   56.6981   -4.5327   -2.5457 C   0  0  0  0  0  0  0  0  0  0  0  0
   56.8274   -4.8487   -1.2244 C   0  0  0  0  0  0  0  0  0  0  0  0
   56.0870   -5.8897   -0.7179 C   0  0  0  0  0  0  0  0  0  0  0  0
   55.2285   -6.6059   -1.5202 C   0  0  0  0  0  0  0  0  0  0  0  0
   54.3011   -7.9276   -0.8350 Cl  0  0  0  0  0  0  0  0  0  0  0  0
 15 16  1  0  0  0
 16  6  1  0  0  0
  6  7  2  0  0  0
  7  8  1  0  0  0
  8  9  1  0  0  0
  9 10  2  0  0  0
 10 11  1  0  0  0
 11  1  1  0  0  0
  1  2  2  0  0  0
  2  3  1  0  0  0
  3 24  1  0  0  0
 24 25  1  0  0  0
 25 26  1  0  0  0
 26 27  2  0  0  0
 27 28  1  0  0  0
 28 29  2  0  0  0
 29 30  1  0  0  0
 30 31  2  0  0  0
 31 32  1  0  0  0
  3  4  2  0  0  0
  4  5  1  0  0  0
  4 19  1  0  0  0
 19 20  1  0  0  0
 19 21  2  0  0  0
 11 12  1  0  0  0
 12 13  1  0  0  0
 13 14  2  0  0  0
 14 17  1  0  0  0
 17 18  1  0  0  0
 14  6  1  0  0  0
 12  8  2  0  0  0
  5  1  1  0  0  0
 31 26  1  0  0  0
 20 22  1  0  0  0
 20 23  1  0  0  0
M  END
> <minimizedAffinity>
-8.18896

> <CNNscore>
0.5738870502

> <CNNaffinity>
7.1095681190

> <CNN_VS>
4.0800890923

> <CNNaffinity_variance>
0.0882767737

$$$$
[H]c1c([H])c([H])c(C([H])([H])Oc2c(C(=O)N([H])[H])sc(-n3c([H])nc4c([H])c(OC([H])([H])[H])c(OC([H])([H])[H])c([H])c43)c2[H])c(Cl)c1[H]


 32 35  0  0  0  0  0  0  0  0999 V2000
   52.8329   -3.7338   -7.8499 C   0  0  0  0  0  0  0  0  0  0  0  0
   53.7053   -4.5752   -7.2064 C   0  0  0  0  0  0  0  0  0  0  0  0
   54.8376   -4.9077   -7.8515 C   0  0  0  0  0  0  0  0  0  0  0  0
   55.0185   -4.3735   -9.0989 C   0  0  0  0  0  0  0  0  0  0  0  0
   53.6134   -3.4323   -9.3287 S   0  0  0  0  0  0  0  0  0  0  0  0
   49.1244   -4.2262   -4.2334 C   0  0  0  0  0  0  0  0  0  0  0  0
   48.8596   -3.2199   -5.1449 C   0  0  0  0  0  0  0  0  0  0  0  0
   49.7444   -2.9693   -6.1572 C   0  0  0  0  0  0  0  0  0  0  0  0
   49.7114   -2.0564   -7.1551 N   0  0  0  0  0  0  0  0  0  0  0  0
   50.8316   -2.2461   -7.8675 C   0  0  0  0  0  0  0  0  0  0  0  0
   51.5626   -3.2480   -7.3461 N   0  0  0  0  0  0  0  0  0  0  0  0
   50.9035   -3.7183   -6.2736 C   0  0  0  0  0  0  0  0  0  0  0  0
   51.1855   -4.7280   -5.3726 C   0  0  0  0  0  0  0  0  0  0  0  0
   50.2885   -4.9773   -4.3517 C   0  0  0  0  0  0  0  0  0  0  0  0
   46.8785   -4.1498   -3.3375 C   0  0  0  0  0  0  0  0  0  0  0  0
   48.2371   -4.4763   -3.2197 O   0  0  0  0  0  0  0  0  0  0  0  0
   50.4902   -5.9705   -3.4029 O   0  0  0  0  0  0  0  0  0  0  0  0
   51.4119   -5.9031   -2.3593 C   0  0  0  0  0  0  0  0  0  0  0  0
   56.1510   -4.5536  -10.0412 C   0  0  0  0  0  0  0  0  0  0  0  0
   57.4002   -4.9867   -9.5620 N   0  0  0  0  0  0  0  0  0  0  0  0
   55.9228   -4.3019  -11.2470 O   0  0  0  0  0  0  0  0  0  0  0  0
   57.4698   -5.7974   -8.9225 H   0  0  0  0  0  0  0  0  0  0  0  0
   58.2681   -4.4980   -9.8442 H   0  0  0  0  0  0  0  0  0  0  0  0
   55.8396   -5.7667   -7.3218 O   0  0  0  0  0  0  0  0  0  0  0  0
   56.4372   -5.4645   -6.0838 C   0  0  0  0  0  0  0  0  0  0  0  0
   55.8504   -6.2296   -4.9844 C   0  0  0  0  0  0  0  0  0  0  0  0
   55.3993   -7.5193   -5.1243 C   0  0  0  0  0  0  0  0  0  0  0  0
   54.8420   -8.2510   -4.0871 C   0  0  0  0  0  0  0  0  0  0  0  0
   54.7226   -7.6858   -2.8507 C   0  0  0  0  0  0  0  0  0  0  0  0
   55.1619   -6.3967   -2.6676 C   0  0  0  0  0  0  0  0  0  0  0  0
   55.7134   -5.6810   -3.7056 C   0  0  0  0  0  0  0  0  0  0  0  0
   56.2621   -4.0379   -3.4305 Cl  0  0  0  0  0  0  0  0  0  0  0  0
 15 16  1  0  0  0
 16  6  1  0  0  0
  6  7  2  0  0  0
  7  8  1  0  0  0
  8  9  1  0  0  0
  9 10  2  0  0  0
 10 11  1  0  0  0
 11  1  1  0  0  0
  1  2  2  0  0  0
  2  3  1  0  0  0
  3 24  1  0  0  0
 24 25  1  0  0  0
 25 26  1  0  0  0
 26 27  2  0  0  0
 27 28  1  0  0  0
 28 29  2  0  0  0
 29 30  1  0  0  0
 30 31  2  0  0  0
 31 32  1  0  0  0
  3  4  2  0  0  0
  4  5  1  0  0  0
  4 19  1  0  0  0
 19 20  1  0  0  0
 19 21  2  0  0  0
 11 12  1  0  0  0
 12 13  1  0  0  0
 13 14  2  0  0  0
 14 17  1  0  0  0
 17 18  1  0  0  0
 14  6  1  0  0  0
 12  8  2  0  0  0
  5  1  1  0  0  0
 31 26  1  0  0  0
 20 22  1  0  0  0
 20 23  1  0  0  0
M  END
> <minimizedAffinity>
-8.42567

> <CNNscore>
0.5728598237

> <CNNaffinity>
7.4812941551

> <CNN_VS>
4.2857327461

> <CNNaffinity_variance>
0.2560587525

$$$$
[H]c1c([H])c([H])c(C([H])([H])Oc2c(C(=O)N([H])[H])sc(-n3c([H])nc4c([H])c(OC([H])([H])[H])c(OC([H])([H])[H])c([H])c43)c2[H])c(Cl)c1[H]


 32 35  0  0  0  0  0  0  0  0999 V2000
   55.5206   -4.4697   -9.3639 C   0  0  0  0  0  0  0  0  0  0  0  0
   55.4752   -4.9009   -8.0620 C   0  0  0  0  0  0  0  0  0  0  0  0
   54.3350   -4.6952   -7.3789 C   0  0  0  0  0  0  0  0  0  0  0  0
   53.3171   -4.0706   -8.0482 C   0  0  0  0  0  0  0  0  0  0  0  0
   53.9795   -3.7932   -9.5965 S   0  0  0  0  0  0  0  0  0  0  0  0
   60.4903   -5.8802   -9.9864 C   0  0  0  0  0  0  0  0  0  0  0  0
   59.9161   -5.3984  -11.1489 C   0  0  0  0  0  0  0  0  0  0  0  0
   58.6117   -4.9874  -11.1433 C   0  0  0  0  0  0  0  0  0  0  0  0
   57.8377   -4.4869  -12.1337 N   0  0  0  0  0  0  0  0  0  0  0  0
   56.6384   -4.2501  -11.5824 C   0  0  0  0  0  0  0  0  0  0  0  0
   56.6392   -4.5868  -10.2798 N   0  0  0  0  0  0  0  0  0  0  0  0
   57.8638   -5.0515   -9.9794 C   0  0  0  0  0  0  0  0  0  0  0  0
   58.4200   -5.5300   -8.8080 C   0  0  0  0  0  0  0  0  0  0  0  0
   59.7382   -5.9439   -8.8187 C   0  0  0  0  0  0  0  0  0  0  0  0
   62.3831   -6.8526  -11.1372 C   0  0  0  0  0  0  0  0  0  0  0  0
   61.7973   -6.2916   -9.9933 O   0  0  0  0  0  0  0  0  0  0  0  0
   60.3777   -6.4377   -7.6899 O   0  0  0  0  0  0  0  0  0  0  0  0
   61.2244   -7.5450   -7.6714 C   0  0  0  0  0  0  0  0  0  0  0  0
   51.9599   -3.7112   -7.5670 C   0  0  0  0  0  0  0  0  0  0  0  0
   51.3623   -2.5093   -7.9867 N   0  0  0  0  0  0  0  0  0  0  0  0
   51.4065   -4.5238   -6.7906 O   0  0  0  0  0  0  0  0  0  0  0  0
   51.3573   -2.2414   -8.9862 H   0  0  0  0  0  0  0  0  0  0  0  0
   50.9188   -1.8760   -7.2982 H   0  0  0  0  0  0  0  0  0  0  0  0
   54.1299   -5.0822   -6.0259 O   0  0  0  0  0  0  0  0  0  0  0  0
   54.7810   -6.2219   -5.5178 C   0  0  0  0  0  0  0  0  0  0  0  0
   55.4126   -5.9679   -4.2236 C   0  0  0  0  0  0  0  0  0  0  0  0
   55.9154   -4.7422   -3.8616 C   0  0  0  0  0  0  0  0  0  0  0  0
   56.5155   -4.4936   -2.6368 C   0  0  0  0  0  0  0  0  0  0  0  0
   56.6263   -5.5009   -1.7228 C   0  0  0  0  0  0  0  0  0  0  0  0
   56.1358   -6.7434   -2.0453 C   0  0  0  0  0  0  0  0  0  0  0  0
   55.5423   -6.9772   -3.2647 C   0  0  0  0  0  0  0  0  0  0  0  0
   54.9289   -8.5775   -3.6376 Cl  0  0  0  0  0  0  0  0  0  0  0  0
 15 16  1  0  0  0
 16  6  1  0  0  0
  6  7  2  0  0  0
  7  8  1  0  0  0
  8  9  1  0  0  0
  9 10  2  0  0  0
 10 11  1  0  0  0
 11  1  1  0  0  0
  1  2  2  0  0  0
  2  3  1  0  0  0
  3 24  1  0  0  0
 24 25  1  0  0  0
 25 26  1  0  0  0
 26 27  2  0  0  0
 27 28  1  0  0  0
 28 29  2  0  0  0
 29 30  1  0  0  0
 30 31  2  0  0  0
 31 32  1  0  0  0
  3  4  2  0  0  0
  4  5  1  0  0  0
  4 19  1  0  0  0
 19 20  1  0  0  0
 19 21  2  0  0  0
 11 12  1  0  0  0
 12 13  1  0  0  0
 13 14  2  0  0  0
 14 17  1  0  0  0
 17 18  1  0  0  0
 14  6  1  0  0  0
 12  8  2  0  0  0
  5  1  1  0  0  0
 31 26  1  0  0  0
 20 22  1  0  0  0
 20 23  1  0  0  0
M  END
> <minimizedAffinity>
-6.50976

> <CNNscore>
0.5139708519

> <CNNaffinity>
6.7864060402

> <CNN_VS>
3.4880149364

> <CNNaffinity_variance>
0.4322518706

$$$$
[H]c1c([H])c([H])c(C([H])([H])Oc2c(C(=O)N([H])[H])sc(-n3c([H])nc4c([H])c(OC([H])([H])[H])c(OC([H])([H])[H])c([H])c43)c2[H])c(Cl)c1[H]


 32 35  0  0  0  0  0  0  0  0999 V2000
   52.8390   -3.8648   -7.6629 C   0  0  0  0  0  0  0  0  0  0  0  0
   53.6792   -4.6859   -6.9538 C   0  0  0  0  0  0  0  0  0  0  0  0
   54.8552   -5.0100   -7.5202 C   0  0  0  0  0  0  0  0  0  0  0  0
   55.1090   -4.4884   -8.7603 C   0  0  0  0  0  0  0  0  0  0  0  0
   53.7093   -3.5701   -9.0922 S   0  0  0  0  0  0  0  0  0  0  0  0
   49.0045   -4.2181   -4.1635 C   0  0  0  0  0  0  0  0  0  0  0  0
   48.7417   -3.2968   -5.1614 C   0  0  0  0  0  0  0  0  0  0  0  0
   49.6580   -3.0915   -6.1557 C   0  0  0  0  0  0  0  0  0  0  0  0
   49.6335   -2.2610   -7.2235 N   0  0  0  0  0  0  0  0  0  0  0  0
   50.7882   -2.4619   -7.8751 C   0  0  0  0  0  0  0  0  0  0  0  0
   51.5324   -3.3910   -7.2483 N   0  0  0  0  0  0  0  0  0  0  0  0
   50.8470   -3.8017   -6.1678 C   0  0  0  0  0  0  0  0  0  0  0  0
   51.1275   -4.7264   -5.1795 C   0  0  0  0  0  0  0  0  0  0  0  0
   50.1986   -4.9302   -4.1771 C   0  0  0  0  0  0  0  0  0  0  0  0
   46.7308   -4.1073   -3.3445 C   0  0  0  0  0  0  0  0  0  0  0  0
   48.0857   -4.4228   -3.1679 O   0  0  0  0  0  0  0  0  0  0  0  0
   50.3964   -5.8379   -3.1455 O   0  0  0  0  0  0  0  0  0  0  0  0
   51.5243   -6.6432   -2.9952 C   0  0  0  0  0  0  0  0  0  0  0  0
   56.3023   -4.6638   -9.6253 C   0  0  0  0  0  0  0  0  0  0  0  0
   57.5327   -5.0376   -9.0559 N   0  0  0  0  0  0  0  0  0  0  0  0
   56.1408   -4.4627  -10.8512 O   0  0  0  0  0  0  0  0  0  0  0  0
   57.5882   -5.8223   -8.3835 H   0  0  0  0  0  0  0  0  0  0  0  0
   58.4006   -4.5304   -9.3034 H   0  0  0  0  0  0  0  0  0  0  0  0
   55.8323   -5.8483   -6.9161 O   0  0  0  0  0  0  0  0  0  0  0  0
   55.4460   -6.7732   -5.9280 C   0  0  0  0  0  0  0  0  0  0  0  0
   55.6301   -6.2479   -4.5757 C   0  0  0  0  0  0  0  0  0  0  0  0
   56.0636   -4.9702   -4.3194 C   0  0  0  0  0  0  0  0  0  0  0  0
   56.2406   -4.4650   -3.0405 C   0  0  0  0  0  0  0  0  0  0  0  0
   55.9780   -5.2564   -1.9602 C   0  0  0  0  0  0  0  0  0  0  0  0
   55.5421   -6.5422   -2.1726 C   0  0  0  0  0  0  0  0  0  0  0  0
   55.3704   -7.0316   -3.4472 C   0  0  0  0  0  0  0  0  0  0  0  0
   54.8121   -8.6786   -3.6755 Cl  0  0  0  0  0  0  0  0  0  0  0  0
 15 16  1  0  0  0
 16  6  1  0  0  0
  6  7  2  0  0  0
  7  8  1  0  0  0
  8  9  1  0  0  0
  9 10  2  0  0  0
 10 11  1  0  0  0
 11  1  1  0  0  0
  1  2  2  0  0  0
  2  3  1  0  0  0
  3 24  1  0  0  0
 24 25  1  0  0  0
 25 26  1  0  0  0
 26 27  2  0  0  0
 27 28  1  0  0  0
 28 29  2  0  0  0
 29 30  1  0  0  0
 30 31  2  0  0  0
 31 32  1  0  0  0
  3  4  2  0  0  0
  4  5  1  0  0  0
  4 19  1  0  0  0
 19 20  1  0  0  0
 19 21  2  0  0  0
 11 12  1  0  0  0
 12 13  1  0  0  0
 13 14  2  0  0  0
 14 17  1  0  0  0
 17 18  1  0  0  0
 14  6  1  0  0  0
 12  8  2  0  0  0
  5  1  1  0  0  0
 31 26  1  0  0  0
 20 22  1  0  0  0
 20 23  1  0  0  0
M  END
> <minimizedAffinity>
-8.33897

> <CNNscore>
0.4988231957

> <CNNaffinity>
7.3399329185

> <CNN_VS>
3.6613287926

> <CNNaffinity_variance>
0.2332368195

$$$$
[H]c1c([H])c([H])c(C([H])([H])Oc2c(C(=O)N([H])[H])sc(-n3c([H])nc4c([H])c(OC([H])([H])[H])c(OC([H])([H])[H])c([H])c43)c2[H])c(Cl)c1[H]


 32 35  0  0  0  0  0  0  0  0999 V2000
   54.3868   -4.3027   -8.1116 C   0  0  0  0  0  0  0  0  0  0  0  0
   53.5699   -4.9816   -7.2429 C   0  0  0  0  0  0  0  0  0  0  0  0
   52.3269   -4.5030   -7.0565 C   0  0  0  0  0  0  0  0  0  0  0  0
   51.9873   -3.3752   -7.7543 C   0  0  0  0  0  0  0  0  0  0  0  0
   53.4026   -3.0228   -8.6406 S   0  0  0  0  0  0  0  0  0  0  0  0
   57.9849   -4.4948  -11.8655 C   0  0  0  0  0  0  0  0  0  0  0  0
   58.4564   -4.9369  -10.6425 C   0  0  0  0  0  0  0  0  0  0  0  0
   57.6253   -4.9459   -9.5563 C   0  0  0  0  0  0  0  0  0  0  0  0
   57.8464   -5.3249   -8.2766 N   0  0  0  0  0  0  0  0  0  0  0  0
   56.6898   -5.1277   -7.6271 C   0  0  0  0  0  0  0  0  0  0  0  0
   55.7542   -4.6377   -8.4605 N   0  0  0  0  0  0  0  0  0  0  0  0
   56.3147   -4.5144   -9.6757 C   0  0  0  0  0  0  0  0  0  0  0  0
   55.8254   -4.0691  -10.8893 C   0  0  0  0  0  0  0  0  0  0  0  0
   56.6689   -4.0620  -11.9837 C   0  0  0  0  0  0  0  0  0  0  0  0
   59.7763   -3.4785  -13.1345 C   0  0  0  0  0  0  0  0  0  0  0  0
   58.8185   -4.4864  -12.9529 O   0  0  0  0  0  0  0  0  0  0  0  0
   56.2630   -3.6320  -13.2397 O   0  0  0  0  0  0  0  0  0  0  0  0
   56.0062   -4.4674  -14.3257 C   0  0  0  0  0  0  0  0  0  0  0  0
   50.7075   -2.6235   -7.7567 C   0  0  0  0  0  0  0  0  0  0  0  0
   49.4883   -3.3137   -7.6341 N   0  0  0  0  0  0  0  0  0  0  0  0
   50.7884   -1.3786   -7.8712 O   0  0  0  0  0  0  0  0  0  0  0  0
   49.3590   -4.0341   -6.9025 H   0  0  0  0  0  0  0  0  0  0  0  0
   48.7029   -3.1086   -8.2766 H   0  0  0  0  0  0  0  0  0  0  0  0
   51.3627   -5.0904   -6.1918 O   0  0  0  0  0  0  0  0  0  0  0  0
   51.7028   -6.2265   -5.4337 C   0  0  0  0  0  0  0  0  0  0  0  0
   52.2488   -5.8747   -4.1235 C   0  0  0  0  0  0  0  0  0  0  0  0
   53.5759   -6.0177   -3.8004 C   0  0  0  0  0  0  0  0  0  0  0  0
   54.1009   -5.6865   -2.5608 C   0  0  0  0  0  0  0  0  0  0  0  0
   53.2793   -5.1900   -1.5909 C   0  0  0  0  0  0  0  0  0  0  0  0
   51.9438   -5.0311   -1.8730 C   0  0  0  0  0  0  0  0  0  0  0  0
   51.4351   -5.3637   -3.1077 C   0  0  0  0  0  0  0  0  0  0  0  0
   49.7244   -5.1458   -3.4278 Cl  0  0  0  0  0  0  0  0  0  0  0  0
 15 16  1  0  0  0
 16  6  1  0  0  0
  6  7  2  0  0  0
  7  8  1  0  0  0
  8  9  1  0  0  0
  9 10  2  0  0  0
 10 11  1  0  0  0
 11  1  1  0  0  0
  1  2  2  0  0  0
  2  3  1  0  0  0
  3 24  1  0  0  0
 24 25  1  0  0  0
 25 26  1  0  0  0
 26 27  2  0  0  0
 27 28  1  0  0  0
 28 29  2  0  0  0
 29 30  1  0  0  0
 30 31  2  0  0  0
 31 32  1  0  0  0
  3  4  2  0  0  0
  4  5  1  0  0  0
  4 19  1  0  0  0
 19 20  1  0  0  0
 19 21  2  0  0  0
 11 12  1  0  0  0
 12 13  1  0  0  0
 13 14  2  0  0  0
 14 17  1  0  0  0
 17 18  1  0  0  0
 14  6  1  0  0  0
 12  8  2  0  0  0
  5  1  1  0  0  0
 31 26  1  0  0  0
 20 22  1  0  0  0
 20 23  1  0  0  0
M  END
> <minimizedAffinity>
-9.17106

> <CNNscore>
0.4792992771

> <CNNaffinity>
7.0168828964

> <CNN_VS>
3.3631868362

> <CNNaffinity_variance>
0.2078084648

$$$$
[H]c1nc(N([H])c2c([H])c([H])c([H])c([H])c2N([H])C([H])([H])[H])nc2c1C([H])([H])C([H])([H])c1c(C(=O)N([H])[H])nn(C([H])([H])[H])c1-2


 30 33  0  0  0  0  0  0  0  0999 V2000
   53.4876   -3.4582   -9.2092 C   0  0  0  0  0  0  0  0  0  0  0  0
   52.5095   -2.5238   -9.4849 N   0  0  0  0  0  0  0  0  0  0  0  0
   51.4511   -2.2967   -8.7317 C   0  0  0  0  0  0  0  0  0  0  0  0
   51.2966   -3.0596   -7.5550 C   0  0  0  0  0  0  0  0  0  0  0  0
   50.1082   -2.7991   -6.7288 C   0  0  0  0  0  0  0  0  0  0  0  0
   49.9797   -3.5787   -5.4942 C   0  0  0  0  0  0  0  0  0  0  0  0
   51.0335   -4.5835   -5.2418 C   0  0  0  0  0  0  0  0  0  0  0  0
   51.1171   -5.4580   -4.1833 C   0  0  0  0  0  0  0  0  0  0  0  0
   52.2375   -6.1559   -4.3906 N   0  0  0  0  0  0  0  0  0  0  0  0
   52.8591   -5.7768   -5.5071 N   0  0  0  0  0  0  0  0  0  0  0  0
   54.1115   -6.3593   -6.0140 C   0  0  0  0  0  0  0  0  0  0  0  0
   52.1269   -4.8026   -6.0477 C   0  0  0  0  0  0  0  0  0  0  0  0
   52.2616   -3.9930   -7.2682 C   0  0  0  0  0  0  0  0  0  0  0  0
   53.3321   -4.1731   -8.0952 N   0  0  0  0  0  0  0  0  0  0  0  0
   50.1755   -5.5983   -3.0578 C   0  0  0  0  0  0  0  0  0  0  0  0
   50.5786   -6.2725   -1.8837 N   0  0  0  0  0  0  0  0  0  0  0  0
   49.0191   -5.1222   -3.1379 O   0  0  0  0  0  0  0  0  0  0  0  0
   50.4931   -7.3081   -1.8206 H   0  0  0  0  0  0  0  0  0  0  0  0
   50.9656   -5.7718   -1.0609 H   0  0  0  0  0  0  0  0  0  0  0  0
   54.5107   -3.5533  -10.1747 N   0  0  0  0  0  0  0  0  0  0  0  0
   54.2913   -3.0869  -11.1400 H   0  0  0  0  0  0  0  0  0  0  0  0
   56.6235   -4.1243  -11.2187 C   0  0  0  0  0  0  0  0  0  0  0  0
   57.9054   -4.6685  -11.1269 C   0  0  0  0  0  0  0  0  0  0  0  0
   58.3789   -5.2267   -9.9669 C   0  0  0  0  0  0  0  0  0  0  0  0
   57.5645   -5.2430   -8.8815 C   0  0  0  0  0  0  0  0  0  0  0  0
   56.2766   -4.6934   -8.9804 C   0  0  0  0  0  0  0  0  0  0  0  0
   55.7749   -4.1329  -10.1146 C   0  0  0  0  0  0  0  0  0  0  0  0
   56.5922   -4.3120  -13.7048 C   0  0  0  0  0  0  0  0  0  0  0  0
   56.2555   -3.5900  -12.4894 N   0  0  0  0  0  0  0  0  0  0  0  0
   55.7440   -2.6985  -12.6132 H   0  0  0  0  0  0  0  0  0  0  0  0
 28 29  1  0  0  0
 29 22  1  0  0  0
 22 23  2  0  0  0
 23 24  1  0  0  0
 24 25  2  0  0  0
 25 26  1  0  0  0
 26 27  2  0  0  0
 27 20  1  0  0  0
 20  1  1  0  0  0
  1  2  2  0  0  0
  2  3  1  0  0  0
  3  4  2  0  0  0
  4  5  1  0  0  0
  5  6  1  0  0  0
  6  7  1  0  0  0
  7  8  1  0  0  0
  8  9  2  0  0  0
  9 10  1  0  0  0
 10 11  1  0  0  0
 10 12  1  0  0  0
 12 13  1  0  0  0
 13 14  2  0  0  0
  8 15  1  0  0  0
 15 16  1  0  0  0
 15 17  2  0  0  0
 27 22  1  0  0  0
 14  1  1  0  0  0
 13  4  1  0  0  0
 12  7  2  0  0  0
 29 30  1  0  0  0
 20 21  1  0  0  0
 16 18  1  0  0  0
 16 19  1  0  0  0
M  END
> <minimizedAffinity>
-10.94206

> <CNNscore>
0.9608130455

> <CNNaffinity>
7.4528794289

> <CNN_VS>
7.1608238220

> <CNNaffinity_variance>
0.0347958468

$$$$
[H]c1nc(N([H])c2c([H])c([H])c([H])c([H])c2N([H])C([H])([H])[H])nc2c1C([H])([H])C([H])([H])c1c(C(=O)N([H])[H])nn(C([H])([H])[H])c1-2


 30 33  0  0  0  0  0  0  0  0999 V2000
   53.2907   -3.4665   -9.2283 C   0  0  0  0  0  0  0  0  0  0  0  0
   52.3751   -2.4583   -9.4540 N   0  0  0  0  0  0  0  0  0  0  0  0
   51.3556   -2.1765   -8.6663 C   0  0  0  0  0  0  0  0  0  0  0  0
   51.1779   -2.9569   -7.5044 C   0  0  0  0  0  0  0  0  0  0  0  0
   50.0331   -2.6344   -6.6393 C   0  0  0  0  0  0  0  0  0  0  0  0
   49.8815   -3.4348   -5.4207 C   0  0  0  0  0  0  0  0  0  0  0  0
   50.8670   -4.5180   -5.2221 C   0  0  0  0  0  0  0  0  0  0  0  0
   50.9155   -5.4234   -4.1877 C   0  0  0  0  0  0  0  0  0  0  0  0
   51.9774   -6.1933   -4.4430 N   0  0  0  0  0  0  0  0  0  0  0  0
   52.5951   -5.8302   -5.5669 N   0  0  0  0  0  0  0  0  0  0  0  0
   53.7889   -6.4866   -6.1226 C   0  0  0  0  0  0  0  0  0  0  0  0
   51.9205   -4.7929   -6.0633 C   0  0  0  0  0  0  0  0  0  0  0  0
   52.0808   -3.9634   -7.2672 C   0  0  0  0  0  0  0  0  0  0  0  0
   53.1136   -4.1973   -8.1279 N   0  0  0  0  0  0  0  0  0  0  0  0
   49.9960   -5.5259   -3.0400 C   0  0  0  0  0  0  0  0  0  0  0  0
   50.4090   -6.1938   -1.8658 N   0  0  0  0  0  0  0  0  0  0  0  0
   48.8498   -5.0231   -3.1015 O   0  0  0  0  0  0  0  0  0  0  0  0
   50.3003   -7.2261   -1.7864 H   0  0  0  0  0  0  0  0  0  0  0  0
   50.8260   -5.6916   -1.0587 H   0  0  0  0  0  0  0  0  0  0  0  0
   54.2788   -3.6086  -10.2241 N   0  0  0  0  0  0  0  0  0  0  0  0
   53.9875   -3.2793  -11.2261 H   0  0  0  0  0  0  0  0  0  0  0  0
   56.2101   -4.3001   -8.9311 C   0  0  0  0  0  0  0  0  0  0  0  0
   57.5017   -4.8265   -8.8809 C   0  0  0  0  0  0  0  0  0  0  0  0
   58.2000   -5.1536  -10.0153 C   0  0  0  0  0  0  0  0  0  0  0  0
   57.6036   -4.9544  -11.2178 C   0  0  0  0  0  0  0  0  0  0  0  0
   56.3042   -4.4253  -11.2612 C   0  0  0  0  0  0  0  0  0  0  0  0
   55.5835   -4.0892  -10.1567 C   0  0  0  0  0  0  0  0  0  0  0  0
   56.4304   -3.5435   -6.5655 C   0  0  0  0  0  0  0  0  0  0  0  0
   55.6065   -3.9912   -7.6757 N   0  0  0  0  0  0  0  0  0  0  0  0
   54.5898   -4.0596   -7.4931 H   0  0  0  0  0  0  0  0  0  0  0  0
 28 29  1  0  0  0
 29 22  1  0  0  0
 22 23  2  0  0  0
 23 24  1  0  0  0
 24 25  2  0  0  0
 25 26  1  0  0  0
 26 27  2  0  0  0
 27 20  1  0  0  0
 20  1  1  0  0  0
  1  2  2  0  0  0
  2  3  1  0  0  0
  3  4  2  0  0  0
  4  5  1  0  0  0
  5  6  1  0  0  0
  6  7  1  0  0  0
  7  8  1  0  0  0
  8  9  2  0  0  0
  9 10  1  0  0  0
 10 11  1  0  0  0
 10 12  1  0  0  0
 12 13  1  0  0  0
 13 14  2  0  0  0
  8 15  1  0  0  0
 15 16  1  0  0  0
 15 17  2  0  0  0
 27 22  1  0  0  0
 14  1  1  0  0  0
 13  4  1  0  0  0
 12  7  2  0  0  0
 29 30  1  0  0  0
 20 21  1  0  0  0
 16 18  1  0  0  0
 16 19  1  0  0  0
M  END
> <minimizedAffinity>
-10.43438

> <CNNscore>
0.9388406277

> <CNNaffinity>
7.4840402603

> <CNN_VS>
7.0263209343

> <CNNaffinity_variance>
0.0877043754

$$$$
[H]c1nc(N([H])c2c([H])c([H])c([H])c([H])c2N([H])C([H])([H])[H])nc2c1C([H])([H])C([H])([H])c1c(C(=O)N([H])[H])nn(C([H])([H])[H])c1-2


 30 33  0  0  0  0  0  0  0  0999 V2000
   54.1864   -4.4726   -8.2364 C   0  0  0  0  0  0  0  0  0  0  0  0
   54.5903   -5.5876   -7.5297 N   0  0  0  0  0  0  0  0  0  0  0  0
   53.9319   -6.1167   -6.5169 C   0  0  0  0  0  0  0  0  0  0  0  0
   52.7245   -5.5060   -6.1174 C   0  0  0  0  0  0  0  0  0  0  0  0
   52.0050   -6.1039   -4.9826 C   0  0  0  0  0  0  0  0  0  0  0  0
   50.7370   -5.4753   -4.6009 C   0  0  0  0  0  0  0  0  0  0  0  0
   50.3464   -4.2724   -5.3653 C   0  0  0  0  0  0  0  0  0  0  0  0
   49.2323   -3.4881   -5.1761 C   0  0  0  0  0  0  0  0  0  0  0  0
   49.3136   -2.5309   -6.1048 N   0  0  0  0  0  0  0  0  0  0  0  0
   50.4031   -2.6640   -6.8609 N   0  0  0  0  0  0  0  0  0  0  0  0
   50.7802   -1.7640   -7.9621 C   0  0  0  0  0  0  0  0  0  0  0  0
   51.0552   -3.7387   -6.4169 C   0  0  0  0  0  0  0  0  0  0  0  0
   52.3106   -4.3959   -6.8110 C   0  0  0  0  0  0  0  0  0  0  0  0
   53.0445   -3.9037   -7.8509 N   0  0  0  0  0  0  0  0  0  0  0  0
   48.1720   -3.6627   -4.1670 C   0  0  0  0  0  0  0  0  0  0  0  0
   47.0036   -2.8713   -4.2307 N   0  0  0  0  0  0  0  0  0  0  0  0
   48.3024   -4.5101   -3.2531 O   0  0  0  0  0  0  0  0  0  0  0  0
   46.9872   -1.9280   -3.7906 H   0  0  0  0  0  0  0  0  0  0  0  0
   46.1397   -3.1936   -4.7073 H   0  0  0  0  0  0  0  0  0  0  0  0
   55.0670   -4.0632   -9.2587 N   0  0  0  0  0  0  0  0  0  0  0  0
   54.7035   -3.2508   -9.8953 H   0  0  0  0  0  0  0  0  0  0  0  0
   56.8571   -4.2984  -10.8775 C   0  0  0  0  0  0  0  0  0  0  0  0
   58.1543   -4.7078  -11.1894 C   0  0  0  0  0  0  0  0  0  0  0  0
   58.9654   -5.3228  -10.2700 C   0  0  0  0  0  0  0  0  0  0  0  0
   58.4782   -5.5330   -9.0210 C   0  0  0  0  0  0  0  0  0  0  0  0
   57.1729   -5.1182   -8.7137 C   0  0  0  0  0  0  0  0  0  0  0  0
   56.3415   -4.5065   -9.6007 C   0  0  0  0  0  0  0  0  0  0  0  0
   56.5469   -3.8555  -13.3116 C   0  0  0  0  0  0  0  0  0  0  0  0
   56.1191   -3.6848  -11.9332 N   0  0  0  0  0  0  0  0  0  0  0  0
   55.2695   -3.1122  -11.7851 H   0  0  0  0  0  0  0  0  0  0  0  0
 28 29  1  0  0  0
 29 22  1  0  0  0
 22 23  2  0  0  0
 23 24  1  0  0  0
 24 25  2  0  0  0
 25 26  1  0  0  0
 26 27  2  0  0  0
 27 20  1  0  0  0
 20  1  1  0  0  0
  1  2  2  0  0  0
  2  3  1  0  0  0
  3  4  2  0  0  0
  4  5  1  0  0  0
  5  6  1  0  0  0
  6  7  1  0  0  0
  7  8  1  0  0  0
  8  9  2  0  0  0
  9 10  1  0  0  0
 10 11  1  0  0  0
 10 12  1  0  0  0
 12 13  1  0  0  0
 13 14  2  0  0  0
  8 15  1  0  0  0
 15 16  1  0  0  0
 15 17  2  0  0  0
 27 22  1  0  0  0
 14  1  1  0  0  0
 13  4  1  0  0  0
 12  7  2  0  0  0
 29 30  1  0  0  0
 20 21  1  0  0  0
 16 18  1  0  0  0
 16 19  1  0  0  0
M  END
> <minimizedAffinity>
-9.51848

> <CNNscore>
0.7872955203

> <CNNaffinity>
7.3018999100

> <CNN_VS>
5.7487530708

> <CNNaffinity_variance>
0.1383045465

$$$$
[H]c1nc(N([H])c2c([H])c([H])c([H])c([H])c2N([H])C([H])([H])[H])nc2c1C([H])([H])C([H])([H])c1c(C(=O)N([H])[H])nn(C([H])([H])[H])c1-2


 30 33  0  0  0  0  0  0  0  0999 V2000
   54.2226   -4.2229   -8.3736 C   0  0  0  0  0  0  0  0  0  0  0  0
   53.7679   -3.1950   -9.1751 N   0  0  0  0  0  0  0  0  0  0  0  0
   52.6321   -2.5485   -8.9988 C   0  0  0  0  0  0  0  0  0  0  0  0
   51.8131   -2.9273   -7.9143 C   0  0  0  0  0  0  0  0  0  0  0  0
   50.5469   -2.2011   -7.7345 C   0  0  0  0  0  0  0  0  0  0  0  0
   49.7233   -2.5866   -6.5848 C   0  0  0  0  0  0  0  0  0  0  0  0
   50.2306   -3.7038   -5.7613 C   0  0  0  0  0  0  0  0  0  0  0  0
   49.6287   -4.2717   -4.6624 C   0  0  0  0  0  0  0  0  0  0  0  0
   50.4644   -5.2340   -4.2611 N   0  0  0  0  0  0  0  0  0  0  0  0
   51.5472   -5.3059   -5.0350 N   0  0  0  0  0  0  0  0  0  0  0  0
   52.6473   -6.2668   -4.8585 C   0  0  0  0  0  0  0  0  0  0  0  0
   51.4194   -4.3643   -5.9702 C   0  0  0  0  0  0  0  0  0  0  0  0
   52.2524   -3.9484   -7.1088 C   0  0  0  0  0  0  0  0  0  0  0  0
   53.4414   -4.5726   -7.3519 N   0  0  0  0  0  0  0  0  0  0  0  0
   48.3386   -3.9009   -4.0533 C   0  0  0  0  0  0  0  0  0  0  0  0
   47.6300   -2.7783   -4.5361 N   0  0  0  0  0  0  0  0  0  0  0  0
   47.8677   -4.5771   -3.1092 O   0  0  0  0  0  0  0  0  0  0  0  0
   47.8457   -1.8277   -4.1705 H   0  0  0  0  0  0  0  0  0  0  0  0
   46.8863   -2.8584   -5.2557 H   0  0  0  0  0  0  0  0  0  0  0  0
   55.4494   -4.7922   -8.7724 N   0  0  0  0  0  0  0  0  0  0  0  0
   55.8711   -5.5308   -8.0839 H   0  0  0  0  0  0  0  0  0  0  0  0
   57.5736   -4.9395   -9.9326 C   0  0  0  0  0  0  0  0  0  0  0  0
   58.3261   -4.7714  -11.0958 C   0  0  0  0  0  0  0  0  0  0  0  0
   57.7833   -4.2617  -12.2478 C   0  0  0  0  0  0  0  0  0  0  0  0
   56.4715   -3.9145  -12.2420 C   0  0  0  0  0  0  0  0  0  0  0  0
   55.7201   -4.0868  -11.0689 C   0  0  0  0  0  0  0  0  0  0  0  0
   56.2262   -4.5883   -9.9093 C   0  0  0  0  0  0  0  0  0  0  0  0
   59.6264   -5.9622   -8.9539 C   0  0  0  0  0  0  0  0  0  0  0  0
   58.2685   -5.4666   -8.8033 N   0  0  0  0  0  0  0  0  0  0  0  0
   57.8650   -5.5186   -7.8515 H   0  0  0  0  0  0  0  0  0  0  0  0
 28 29  1  0  0  0
 29 22  1  0  0  0
 22 23  2  0  0  0
 23 24  1  0  0  0
 24 25  2  0  0  0
 25 26  1  0  0  0
 26 27  2  0  0  0
 27 20  1  0  0  0
 20  1  1  0  0  0
  1  2  2  0  0  0
  2  3  1  0  0  0
  3  4  2  0  0  0
  4  5  1  0  0  0
  5  6  1  0  0  0
  6  7  1  0  0  0
  7  8  1  0  0  0
  8  9  2  0  0  0
  9 10  1  0  0  0
 10 11  1  0  0  0
 10 12  1  0  0  0
 12 13  1  0  0  0
 13 14  2  0  0  0
  8 15  1  0  0  0
 15 16  1  0  0  0
 15 17  2  0  0  0
 27 22  1  0  0  0
 14  1  1  0  0  0
 13  4  1  0  0  0
 12  7  2  0  0  0
 29 30  1  0  0  0
 20 21  1  0  0  0
 16 18  1  0  0  0
 16 19  1  0  0  0
M  END
> <minimizedAffinity>
-10.06164

> <CNNscore>
0.7286210060

> <CNNaffinity>
7.2061753273

> <CNN_VS>
5.2505707741

> <CNNaffinity_variance>
0.1591085792

$$$$
[H]c1nc(N([H])c2c([H])c([H])c([H])c([H])c2N([H])C([H])([H])[H])nc2c1C([H])([H])C([H])([H])c1c(C(=O)N([H])[H])nn(C([H])([H])[H])c1-2


 30 33  0  0  0  0  0  0  0  0999 V2000
   52.8004   -3.3085   -8.5251 C   0  0  0  0  0  0  0  0  0  0  0  0
   52.7292   -3.1057   -9.8887 N   0  0  0  0  0  0  0  0  0  0  0  0
   53.7035   -3.3606  -10.7401 C   0  0  0  0  0  0  0  0  0  0  0  0
   54.9128   -3.8788  -10.2304 C   0  0  0  0  0  0  0  0  0  0  0  0
   55.9920   -4.1522  -11.1914 C   0  0  0  0  0  0  0  0  0  0  0  0
   57.2300   -4.7192  -10.6487 C   0  0  0  0  0  0  0  0  0  0  0  0
   57.2785   -4.9033   -9.1833 C   0  0  0  0  0  0  0  0  0  0  0  0
   58.3314   -5.3772   -8.4356 C   0  0  0  0  0  0  0  0  0  0  0  0
   57.8990   -5.3654   -7.1714 N   0  0  0  0  0  0  0  0  0  0  0  0
   56.6476   -4.9161   -7.0788 N   0  0  0  0  0  0  0  0  0  0  0  0
   55.8931   -4.7754   -5.8235 C   0  0  0  0  0  0  0  0  0  0  0  0
   56.2468   -4.6250   -8.3165 C   0  0  0  0  0  0  0  0  0  0  0  0
   54.9982   -4.0853   -8.8759 C   0  0  0  0  0  0  0  0  0  0  0  0
   53.9470   -3.7984   -8.0543 N   0  0  0  0  0  0  0  0  0  0  0  0
   59.6551   -5.8081   -8.9205 C   0  0  0  0  0  0  0  0  0  0  0  0
   59.9406   -5.7795  -10.3037 N   0  0  0  0  0  0  0  0  0  0  0  0
   60.5281   -6.1995   -8.1113 O   0  0  0  0  0  0  0  0  0  0  0  0
   59.6808   -6.5869  -10.9074 H   0  0  0  0  0  0  0  0  0  0  0  0
   60.4085   -4.9718  -10.7576 H   0  0  0  0  0  0  0  0  0  0  0  0
   51.6484   -2.9311   -7.8050 N   0  0  0  0  0  0  0  0  0  0  0  0
   51.2058   -1.9730   -8.0942 H   0  0  0  0  0  0  0  0  0  0  0  0
   51.1708   -4.9232   -6.5076 C   0  0  0  0  0  0  0  0  0  0  0  0
   50.5017   -5.5417   -5.4504 C   0  0  0  0  0  0  0  0  0  0  0  0
   49.6175   -4.8633   -4.6508 C   0  0  0  0  0  0  0  0  0  0  0  0
   49.3963   -3.5491   -4.9068 C   0  0  0  0  0  0  0  0  0  0  0  0
   50.0730   -2.9329   -5.9712 C   0  0  0  0  0  0  0  0  0  0  0  0
   50.9553   -3.5755   -6.7841 C   0  0  0  0  0  0  0  0  0  0  0  0
   53.0364   -6.5755   -6.5879 C   0  0  0  0  0  0  0  0  0  0  0  0
   52.0508   -5.7509   -7.2666 N   0  0  0  0  0  0  0  0  0  0  0  0
   52.0347   -5.8136   -8.2998 H   0  0  0  0  0  0  0  0  0  0  0  0
 28 29  1  0  0  0
 29 22  1  0  0  0
 22 23  2  0  0  0
 23 24  1  0  0  0
 24 25  2  0  0  0
 25 26  1  0  0  0
 26 27  2  0  0  0
 27 20  1  0  0  0
 20  1  1  0  0  0
  1  2  2  0  0  0
  2  3  1  0  0  0
  3  4  2  0  0  0
  4  5  1  0  0  0
  5  6  1  0  0  0
  6  7  1  0  0  0
  7  8  1  0  0  0
  8  9  2  0  0  0
  9 10  1  0  0  0
 10 11  1  0  0  0
 10 12  1  0  0  0
 12 13  1  0  0  0
 13 14  2  0  0  0
  8 15  1  0  0  0
 15 16  1  0  0  0
 15 17  2  0  0  0
 27 22  1  0  0  0
 14  1  1  0  0  0
 13  4  1  0  0  0
 12  7  2  0  0  0
 29 30  1  0  0  0
 20 21  1  0  0  0
 16 18  1  0  0  0
 16 19  1  0  0  0
M  END
> <minimizedAffinity>
-8.39366

> <CNNscore>
0.6467803717

> <CNNaffinity>
6.9743814468

> <CNN_VS>
4.5108928680

> <CNNaffinity_variance>
0.1657252759

$$$$
[H]c1nc(N([H])c2c([H])c([H])c([H])c([H])c2N([H])C([H])([H])[H])nc2c1C([H])([H])C([H])([H])c1c(C(=O)N([H])[H])nn(C([H])([H])[H])c1-2


 30 33  0  0  0  0  0  0  0  0999 V2000
   53.1657   -4.8031   -7.3064 C   0  0  0  0  0  0  0  0  0  0  0  0
   52.9209   -3.8377   -8.2623 N   0  0  0  0  0  0  0  0  0  0  0  0
   51.8633   -3.0501   -8.2838 C   0  0  0  0  0  0  0  0  0  0  0  0
   50.9046   -3.1966   -7.2591 C   0  0  0  0  0  0  0  0  0  0  0  0
   49.7280   -2.3153   -7.3001 C   0  0  0  0  0  0  0  0  0  0  0  0
   48.7577   -2.4598   -6.2109 C   0  0  0  0  0  0  0  0  0  0  0  0
   49.0412   -3.5164   -5.2175 C   0  0  0  0  0  0  0  0  0  0  0  0
   48.2720   -3.8721   -4.1340 C   0  0  0  0  0  0  0  0  0  0  0  0
   48.9390   -4.8655   -3.5394 N   0  0  0  0  0  0  0  0  0  0  0  0
   50.0725   -5.1546   -4.1781 N   0  0  0  0  0  0  0  0  0  0  0  0
   51.0222   -6.2043   -3.7769 C   0  0  0  0  0  0  0  0  0  0  0  0
   50.1524   -4.3279   -5.2210 C   0  0  0  0  0  0  0  0  0  0  0  0
   51.1347   -4.1531   -6.3017 C   0  0  0  0  0  0  0  0  0  0  0  0
   52.2539   -4.9329   -6.3430 N   0  0  0  0  0  0  0  0  0  0  0  0
   46.9866   -3.2852   -3.7139 C   0  0  0  0  0  0  0  0  0  0  0  0
   46.0470   -4.0765   -3.0164 N   0  0  0  0  0  0  0  0  0  0  0  0
   46.7239   -2.0875   -3.9725 O   0  0  0  0  0  0  0  0  0  0  0  0
   45.3729   -4.6712   -3.5415 H   0  0  0  0  0  0  0  0  0  0  0  0
   45.9958   -4.0935   -1.9799 H   0  0  0  0  0  0  0  0  0  0  0  0
   54.3437   -5.5523   -7.5034 N   0  0  0  0  0  0  0  0  0  0  0  0
   54.6042   -5.7534   -8.5471 H   0  0  0  0  0  0  0  0  0  0  0  0
   56.6162   -5.7994   -6.6942 C   0  0  0  0  0  0  0  0  0  0  0  0
   57.5108   -6.2984   -5.7464 C   0  0  0  0  0  0  0  0  0  0  0  0
   57.0989   -7.0738   -4.6926 C   0  0  0  0  0  0  0  0  0  0  0  0
   55.7764   -7.3564   -4.5800 C   0  0  0  0  0  0  0  0  0  0  0  0
   54.8818   -6.8507   -5.5364 C   0  0  0  0  0  0  0  0  0  0  0  0
   55.2558   -6.0798   -6.5937 C   0  0  0  0  0  0  0  0  0  0  0  0
   58.4889   -5.3640   -8.2818 C   0  0  0  0  0  0  0  0  0  0  0  0
   57.1828   -5.0192   -7.7459 N   0  0  0  0  0  0  0  0  0  0  0  0
   56.7137   -4.2014   -8.1734 H   0  0  0  0  0  0  0  0  0  0  0  0
 28 29  1  0  0  0
 29 22  1  0  0  0
 22 23  2  0  0  0
 23 24  1  0  0  0
 24 25  2  0  0  0
 25 26  1  0  0  0
 26 27  2  0  0  0
 27 20  1  0  0  0
 20  1  1  0  0  0
  1  2  2  0  0  0
  2  3  1  0  0  0
  3  4  2  0  0  0
  4  5  1  0  0  0
  5  6  1  0  0  0
  6  7  1  0  0  0
  7  8  1  0  0  0
  8  9  2  0  0  0
  9 10  1  0  0  0
 10 11  1  0  0  0
 10 12  1  0  0  0
 12 13  1  0  0  0
 13 14  2  0  0  0
  8 15  1  0  0  0
 15 16  1  0  0  0
 15 17  2  0  0  0
 27 22  1  0  0  0
 14  1  1  0  0  0
 13  4  1  0  0  0
 12  7  2  0  0  0
 29 30  1  0  0  0
 20 21  1  0  0  0
 16 18  1  0  0  0
 16 19  1  0  0  0
M  END
> <minimizedAffinity>
-7.69673

> <CNNscore>
0.5974926949

> <CNNaffinity>
7.1082687378

> <CNN_VS>
4.2471385002

> <CNNaffinity_variance>
0.2196337283

$$$$
[H]c1nc(N([H])c2c([H])c([H])c([H])c([H])c2N([H])C([H])([H])[H])nc2c1C([H])([H])C([H])([H])c1c(C(=O)N([H])[H])nn(C([H])([H])[H])c1-2


 30 33  0  0  0  0  0  0  0  0999 V2000
   59.6836   -6.0370   -8.9452 C   0  0  0  0  0  0  0  0  0  0  0  0
   59.7897   -5.7038  -10.2807 N   0  0  0  0  0  0  0  0  0  0  0  0
   58.8441   -5.1167  -10.9879 C   0  0  0  0  0  0  0  0  0  0  0  0
   57.6299   -4.8015  -10.3421 C   0  0  0  0  0  0  0  0  0  0  0  0
   56.5829   -4.1525  -11.1455 C   0  0  0  0  0  0  0  0  0  0  0  0
   55.3399   -3.8041  -10.4510 C   0  0  0  0  0  0  0  0  0  0  0  0
   55.2535   -4.1941   -9.0283 C   0  0  0  0  0  0  0  0  0  0  0  0
   54.1882   -4.0151   -8.1766 C   0  0  0  0  0  0  0  0  0  0  0  0
   54.5846   -4.5216   -7.0054 N   0  0  0  0  0  0  0  0  0  0  0  0
   55.8252   -5.0050   -7.0680 N   0  0  0  0  0  0  0  0  0  0  0  0
   56.5417   -5.6356   -5.9482 C   0  0  0  0  0  0  0  0  0  0  0  0
   56.2556   -4.8102   -8.3147 C   0  0  0  0  0  0  0  0  0  0  0  0
   57.5100   -5.1273   -9.0139 C   0  0  0  0  0  0  0  0  0  0  0  0
   58.5327   -5.7347   -8.3449 N   0  0  0  0  0  0  0  0  0  0  0  0
   52.8861   -3.3965   -8.4848 C   0  0  0  0  0  0  0  0  0  0  0  0
   51.7643   -3.6784   -7.6740 N   0  0  0  0  0  0  0  0  0  0  0  0
   52.7700   -2.6216   -9.4627 O   0  0  0  0  0  0  0  0  0  0  0  0
   51.1813   -4.5199   -7.8633 H   0  0  0  0  0  0  0  0  0  0  0  0
   51.4871   -3.0715   -6.8789 H   0  0  0  0  0  0  0  0  0  0  0  0
   60.8084   -6.6917   -8.4027 N   0  0  0  0  0  0  0  0  0  0  0  0
   60.5939   -7.4214   -7.6160 H   0  0  0  0  0  0  0  0  0  0  0  0
   62.7147   -7.2498   -9.7937 C   0  0  0  0  0  0  0  0  0  0  0  0
   64.0655   -7.0926  -10.1071 C   0  0  0  0  0  0  0  0  0  0  0  0
   64.8965   -6.2896   -9.3682 C   0  0  0  0  0  0  0  0  0  0  0  0
   64.3751   -5.6326   -8.3014 C   0  0  0  0  0  0  0  0  0  0  0  0
   63.0155   -5.7946   -7.9920 C   0  0  0  0  0  0  0  0  0  0  0  0
   62.1634   -6.5830   -8.7024 C   0  0  0  0  0  0  0  0  0  0  0  0
   61.9793   -9.5576  -10.3856 C   0  0  0  0  0  0  0  0  0  0  0  0
   61.9699   -8.1264  -10.6378 N   0  0  0  0  0  0  0  0  0  0  0  0
   61.3998   -7.8066  -11.4405 H   0  0  0  0  0  0  0  0  0  0  0  0
 28 29  1  0  0  0
 29 22  1  0  0  0
 22 23  2  0  0  0
 23 24  1  0  0  0
 24 25  2  0  0  0
 25 26  1  0  0  0
 26 27  2  0  0  0
 27 20  1  0  0  0
 20  1  1  0  0  0
  1  2  2  0  0  0
  2  3  1  0  0  0
  3  4  2  0  0  0
  4  5  1  0  0  0
  5  6  1  0  0  0
  6  7  1  0  0  0
  7  8  1  0  0  0
  8  9  2  0  0  0
  9 10  1  0  0  0
 10 11  1  0  0  0
 10 12  1  0  0  0
 12 13  1  0  0  0
 13 14  2  0  0  0
  8 15  1  0  0  0
 15 16  1  0  0  0
 15 17  2  0  0  0
 27 22  1  0  0  0
 14  1  1  0  0  0
 13  4  1  0  0  0
 12  7  2  0  0  0
 29 30  1  0  0  0
 20 21  1  0  0  0
 16 18  1  0  0  0
 16 19  1  0  0  0
M  END
> <minimizedAffinity>
-7.32755

> <CNNscore>
0.5382117033

> <CNNaffinity>
6.0007400513

> <CNN_VS>
3.2296686172

> <CNNaffinity_variance>
0.1528728157

$$$$
[H]c1nc(N([H])c2c([H])c([H])c([H])c([H])c2N([H])C([H])([H])[H])nc2c1C([H])([H])C([H])([H])c1c(C(=O)N([H])[H])nn(C([H])([H])[H])c1-2


 30 33  0  0  0  0  0  0  0  0999 V2000
   53.8882   -4.1299   -8.1471 C   0  0  0  0  0  0  0  0  0  0  0  0
   52.6411   -3.5663   -8.3277 N   0  0  0  0  0  0  0  0  0  0  0  0
   51.6182   -3.7227   -7.5100 C   0  0  0  0  0  0  0  0  0  0  0  0
   51.8008   -4.5236   -6.3629 C   0  0  0  0  0  0  0  0  0  0  0  0
   50.6492   -4.6935   -5.4640 C   0  0  0  0  0  0  0  0  0  0  0  0
   50.8655   -5.5031   -4.2614 C   0  0  0  0  0  0  0  0  0  0  0  0
   52.2056   -6.1074   -4.1112 C   0  0  0  0  0  0  0  0  0  0  0  0
   52.6415   -6.9315   -3.0997 C   0  0  0  0  0  0  0  0  0  0  0  0
   53.9133   -7.2125   -3.3977 N   0  0  0  0  0  0  0  0  0  0  0  0
   54.3012   -6.6201   -4.5269 N   0  0  0  0  0  0  0  0  0  0  0  0
   55.6399   -6.7408   -5.1255 C   0  0  0  0  0  0  0  0  0  0  0  0
   53.2553   -5.9305   -4.9830 C   0  0  0  0  0  0  0  0  0  0  0  0
   53.0359   -5.0910   -6.1705 C   0  0  0  0  0  0  0  0  0  0  0  0
   54.0498   -4.8844   -7.0603 N   0  0  0  0  0  0  0  0  0  0  0  0
   51.8740   -7.4052   -1.9337 C   0  0  0  0  0  0  0  0  0  0  0  0
   51.8392   -6.6304   -0.7531 N   0  0  0  0  0  0  0  0  0  0  0  0
   51.2523   -8.4921   -1.9852 O   0  0  0  0  0  0  0  0  0  0  0  0
   52.5931   -6.7280   -0.0419 H   0  0  0  0  0  0  0  0  0  0  0  0
   51.0788   -5.9518   -0.5564 H   0  0  0  0  0  0  0  0  0  0  0  0
   54.8204   -3.8553   -9.1687 N   0  0  0  0  0  0  0  0  0  0  0  0
   54.5111   -3.0994   -9.8969 H   0  0  0  0  0  0  0  0  0  0  0  0
   56.6608   -4.3075  -10.6814 C   0  0  0  0  0  0  0  0  0  0  0  0
   57.9524   -4.7896  -10.8985 C   0  0  0  0  0  0  0  0  0  0  0  0
   58.7035   -5.3404   -9.8916 C   0  0  0  0  0  0  0  0  0  0  0  0
   58.1612   -5.4119   -8.6497 C   0  0  0  0  0  0  0  0  0  0  0  0
   56.8619   -4.9245   -8.4381 C   0  0  0  0  0  0  0  0  0  0  0  0
   56.0891   -4.3732   -9.4133 C   0  0  0  0  0  0  0  0  0  0  0  0
   56.6384   -3.7886  -13.1202 C   0  0  0  0  0  0  0  0  0  0  0  0
   55.9878   -3.7738  -11.8208 N   0  0  0  0  0  0  0  0  0  0  0  0
   55.0359   -3.3682  -11.7899 H   0  0  0  0  0  0  0  0  0  0  0  0
 28 29  1  0  0  0
 29 22  1  0  0  0
 22 23  2  0  0  0
 23 24  1  0  0  0
 24 25  2  0  0  0
 25 26  1  0  0  0
 26 27  2  0  0  0
 27 20  1  0  0  0
 20  1  1  0  0  0
  1  2  2  0  0  0
  2  3  1  0  0  0
  3  4  2  0  0  0
  4  5  1  0  0  0
  5  6  1  0  0  0
  6  7  1  0  0  0
  7  8  1  0  0  0
  8  9  2  0  0  0
  9 10  1  0  0  0
 10 11  1  0  0  0
 10 12  1  0  0  0
 12 13  1  0  0  0
 13 14  2  0  0  0
  8 15  1  0  0  0
 15 16  1  0  0  0
 15 17  2  0  0  0
 27 22  1  0  0  0
 14  1  1  0  0  0
 13  4  1  0  0  0
 12  7  2  0  0  0
 29 30  1  0  0  0
 20 21  1  0  0  0
 16 18  1  0  0  0
 16 19  1  0  0  0
M  END
> <minimizedAffinity>
-9.74200

> <CNNscore>
0.5182205439

> <CNNaffinity>
6.8066358566

> <CNN_VS>
3.5273385048

> <CNNaffinity_variance>
0.2522692978

$$$$
[H]c1nc(N([H])c2c([H])c([H])c([H])c([H])c2N([H])C([H])([H])[H])nc2c1C([H])([H])C([H])([H])c1c(C(=O)N([H])[H])nn(C([H])([H])[H])c1-2


 30 33  0  0  0  0  0  0  0  0999 V2000
   52.6727   -3.7992   -7.9516 C   0  0  0  0  0  0  0  0  0  0  0  0
   52.4887   -3.3680   -9.2500 N   0  0  0  0  0  0  0  0  0  0  0  0
   53.4054   -3.4164  -10.1968 C   0  0  0  0  0  0  0  0  0  0  0  0
   54.6715   -3.9458   -9.8696 C   0  0  0  0  0  0  0  0  0  0  0  0
   55.6851   -3.9875  -10.9344 C   0  0  0  0  0  0  0  0  0  0  0  0
   56.9845   -4.5691  -10.5853 C   0  0  0  0  0  0  0  0  0  0  0  0
   57.1528   -5.0009   -9.1821 C   0  0  0  0  0  0  0  0  0  0  0  0
   58.2794   -5.5367   -8.6027 C   0  0  0  0  0  0  0  0  0  0  0  0
   57.9448   -5.7683   -7.3300 N   0  0  0  0  0  0  0  0  0  0  0  0
   56.6857   -5.4131   -7.0752 N   0  0  0  0  0  0  0  0  0  0  0  0
   56.0238   -5.5344   -5.7667 C   0  0  0  0  0  0  0  0  0  0  0  0
   56.1791   -4.9354   -8.2122 C   0  0  0  0  0  0  0  0  0  0  0  0
   54.8691   -4.3783   -8.5818 C   0  0  0  0  0  0  0  0  0  0  0  0
   53.8722   -4.2977   -7.6533 N   0  0  0  0  0  0  0  0  0  0  0  0
   59.5798   -5.8019   -9.2444 C   0  0  0  0  0  0  0  0  0  0  0  0
   60.6328   -6.3678   -8.4918 N   0  0  0  0  0  0  0  0  0  0  0  0
   59.7552   -5.5278  -10.4546 O   0  0  0  0  0  0  0  0  0  0  0  0
   61.2621   -5.7560   -7.9320 H   0  0  0  0  0  0  0  0  0  0  0  0
   60.8130   -7.3898   -8.4700 H   0  0  0  0  0  0  0  0  0  0  0  0
   51.5637   -3.6177   -7.1000 N   0  0  0  0  0  0  0  0  0  0  0  0
   50.8616   -2.8347   -7.4024 H   0  0  0  0  0  0  0  0  0  0  0  0
   50.0286   -3.9234   -5.2481 C   0  0  0  0  0  0  0  0  0  0  0  0
   49.6441   -4.6240   -4.1039 C   0  0  0  0  0  0  0  0  0  0  0  0
   50.3790   -5.6712   -3.6092 C   0  0  0  0  0  0  0  0  0  0  0  0
   51.5135   -6.0269   -4.2634 C   0  0  0  0  0  0  0  0  0  0  0  0
   51.8940   -5.3185   -5.4140 C   0  0  0  0  0  0  0  0  0  0  0  0
   51.1898   -4.2752   -5.9315 C   0  0  0  0  0  0  0  0  0  0  0  0
   48.0453   -2.4761   -4.8129 C   0  0  0  0  0  0  0  0  0  0  0  0
   49.1791   -2.8472   -5.6429 N   0  0  0  0  0  0  0  0  0  0  0  0
   49.3189   -2.2888   -6.5033 H   0  0  0  0  0  0  0  0  0  0  0  0
 28 29  1  0  0  0
 29 22  1  0  0  0
 22 23  2  0  0  0
 23 24  1  0  0  0
 24 25  2  0  0  0
 25 26  1  0  0  0
 26 27  2  0  0  0
 27 20  1  0  0  0
 20  1  1  0  0  0
  1  2  2  0  0  0
  2  3  1  0  0  0
  3  4  2  0  0  0
  4  5  1  0  0  0
  5  6  1  0  0  0
  6  7  1  0  0  0
  7  8  1  0  0  0
  8  9  2  0  0  0
  9 10  1  0  0  0
 10 11  1  0  0  0
 10 12  1  0  0  0
 12 13  1  0  0  0
 13 14  2  0  0  0
  8 15  1  0  0  0
 15 16  1  0  0  0
 15 17  2  0  0  0
 27 22  1  0  0  0
 14  1  1  0  0  0
 13  4  1  0  0  0
 12  7  2  0  0  0
 29 30  1  0  0  0
 20 21  1  0  0  0
 16 18  1  0  0  0
 16 19  1  0  0  0
M  END
> <minimizedAffinity>
-9.06907

> <CNNscore>
0.4267831445

> <CNNaffinity>
6.7717943192

> <CNN_VS>
2.8900876045

> <CNNaffinity_variance>
0.1397374272

$$$$
[H]c1nc(N([H])c2c([H])c(C([H])([H])C([H])([H])C([H])([H])N(C([H])([H])[H])C([H])([H])[H])c([H])c([H])c2C([H])([H])[H])nc2c1C([H])([H])C(=S)N([H])c1c([H])c(Cl)c([H])c([H])c1-2


 33 36  0  0  0  0  0  0  0  0999 V2000
   54.0787   -3.5364   -8.9156 C   0  0  0  0  0  0  0  0  0  0  0  0
   52.8176   -3.1767   -9.0889 N   0  0  0  0  0  0  0  0  0  0  0  0
   51.8158   -3.5763   -8.2888 C   0  0  0  0  0  0  0  0  0  0  0  0
   52.0640   -4.4163   -7.2013 C   0  0  0  0  0  0  0  0  0  0  0  0
   50.8546   -4.7432   -6.4475 C   0  0  0  0  0  0  0  0  0  0  0  0
   51.0475   -5.0632   -5.0334 C   0  0  0  0  0  0  0  0  0  0  0  0
   49.8391   -4.5408   -4.0473 S   0  0  0  0  0  0  0  0  0  0  0  0
   52.0779   -5.7418   -4.3391 N   0  0  0  0  0  0  0  0  0  0  0  0
   53.3746   -6.0765   -4.7873 C   0  0  0  0  0  0  0  0  0  0  0  0
   54.0877   -6.8907   -3.9337 C   0  0  0  0  0  0  0  0  0  0  0  0
   55.3774   -7.3188   -4.2139 C   0  0  0  0  0  0  0  0  0  0  0  0
   56.2565   -8.3544   -3.1037 Cl  0  0  0  0  0  0  0  0  0  0  0  0
   55.9305   -6.8911   -5.4020 C   0  0  0  0  0  0  0  0  0  0  0  0
   55.2248   -6.0767   -6.2620 C   0  0  0  0  0  0  0  0  0  0  0  0
   53.9439   -5.6478   -5.9897 C   0  0  0  0  0  0  0  0  0  0  0  0
   53.3647   -4.7916   -7.0169 C   0  0  0  0  0  0  0  0  0  0  0  0
   54.3224   -4.3637   -7.8446 N   0  0  0  0  0  0  0  0  0  0  0  0
   51.8649   -6.0391   -3.3690 H   0  0  0  0  0  0  0  0  0  0  0  0
   55.2015   -3.1760   -9.6945 N   0  0  0  0  0  0  0  0  0  0  0  0
   55.1730   -2.1919  -10.0954 H   0  0  0  0  0  0  0  0  0  0  0  0
   58.2698   -5.2841   -9.4234 C   0  0  0  0  0  0  0  0  0  0  0  0
   58.5666   -5.4164  -10.7543 C   0  0  0  0  0  0  0  0  0  0  0  0
   57.7661   -4.8191  -11.7344 C   0  0  0  0  0  0  0  0  0  0  0  0
   56.6606   -4.0853  -11.3670 C   0  0  0  0  0  0  0  0  0  0  0  0
   55.7865   -3.4370  -12.3921 C   0  0  0  0  0  0  0  0  0  0  0  0
   56.3395   -3.9385  -10.0056 C   0  0  0  0  0  0  0  0  0  0  0  0
   57.1515   -4.5409   -9.0747 C   0  0  0  0  0  0  0  0  0  0  0  0
   59.1446   -5.9186   -8.4259 C   0  0  0  0  0  0  0  0  0  0  0  0
   60.5648   -6.0835   -8.7913 C   0  0  0  0  0  0  0  0  0  0  0  0
   60.9596   -7.4865   -9.0511 C   0  0  0  0  0  0  0  0  0  0  0  0
   61.9442   -9.1231  -10.5154 C   0  0  0  0  0  0  0  0  0  0  0  0
   61.4687   -7.7790  -10.3386 N   0  0  0  0  0  0  0  0  0  0  0  0
   62.3851   -6.7867  -10.8516 C   0  0  0  0  0  0  0  0  0  0  0  0
 31 32  1  0  0  0
 32 33  1  0  0  0
 32 30  1  0  0  0
 30 29  1  0  0  0
 29 28  1  0  0  0
 28 21  1  0  0  0
 21 22  2  0  0  0
 22 23  1  0  0  0
 23 24  2  0  0  0
 24 25  1  0  0  0
 24 26  1  0  0  0
 26 19  1  0  0  0
 19  1  1  0  0  0
  1  2  2  0  0  0
  2  3  1  0  0  0
  3  4  2  0  0  0
  4  5  1  0  0  0
  5  6  1  0  0  0
  6  7  2  0  0  0
  6  8  1  0  0  0
  8  9  1  0  0  0
  9 10  2  0  0  0
 10 11  1  0  0  0
 11 12  1  0  0  0
 11 13  2  0  0  0
 13 14  1  0  0  0
 14 15  2  0  0  0
 15 16  1  0  0  0
 16 17  2  0  0  0
 26 27  2  0  0  0
 27 21  1  0  0  0
 17  1  1  0  0  0
 16  4  1  0  0  0
 15  9  1  0  0  0
 19 20  1  0  0  0
  8 18  1  0  0  0
M  END
> <minimizedAffinity>
-8.79792

> <CNNscore>
0.8486079574

> <CNNaffinity>
7.8647985458

> <CNN_VS>
6.6741304398

> <CNNaffinity_variance>
0.1475675404

$$$$
[H]c1nc(N([H])c2c([H])c(C([H])([H])C([H])([H])C([H])([H])N(C([H])([H])[H])C([H])([H])[H])c([H])c([H])c2C([H])([H])[H])nc2c1C([H])([H])C(=S)N([H])c1c([H])c(Cl)c([H])c([H])c1-2


 33 36  0  0  0  0  0  0  0  0999 V2000
   54.1317   -3.5327   -8.3373 C   0  0  0  0  0  0  0  0  0  0  0  0
   52.8700   -3.2011   -8.5559 N   0  0  0  0  0  0  0  0  0  0  0  0
   51.8435   -3.6677   -7.8264 C   0  0  0  0  0  0  0  0  0  0  0  0
   52.0647   -4.5524   -6.7690 C   0  0  0  0  0  0  0  0  0  0  0  0
   50.8309   -4.9500   -6.0926 C   0  0  0  0  0  0  0  0  0  0  0  0
   50.9650   -5.3332   -4.6874 C   0  0  0  0  0  0  0  0  0  0  0  0
   49.6949   -4.8942   -3.7391 S   0  0  0  0  0  0  0  0  0  0  0  0
   51.9812   -6.0152   -3.9758 N   0  0  0  0  0  0  0  0  0  0  0  0
   53.3077   -6.2906   -4.3742 C   0  0  0  0  0  0  0  0  0  0  0  0
   54.0034   -7.1250   -3.5258 C   0  0  0  0  0  0  0  0  0  0  0  0
   55.3178   -7.5019   -3.7615 C   0  0  0  0  0  0  0  0  0  0  0  0
   56.1737   -8.5651   -2.6593 Cl  0  0  0  0  0  0  0  0  0  0  0  0
   55.9142   -7.0011   -4.8990 C   0  0  0  0  0  0  0  0  0  0  0  0
   55.2261   -6.1661   -5.7535 C   0  0  0  0  0  0  0  0  0  0  0  0
   53.9209   -5.7876   -5.5252 C   0  0  0  0  0  0  0  0  0  0  0  0
   53.3659   -4.8991   -6.5381 C   0  0  0  0  0  0  0  0  0  0  0  0
   54.3488   -4.4041   -7.2960 N   0  0  0  0  0  0  0  0  0  0  0  0
   51.7308   -6.3655   -3.0326 H   0  0  0  0  0  0  0  0  0  0  0  0
   55.2792   -3.1029   -9.0414 N   0  0  0  0  0  0  0  0  0  0  0  0
   55.5877   -2.1073   -8.8326 H   0  0  0  0  0  0  0  0  0  0  0  0
   56.5987   -4.5762  -12.2069 C   0  0  0  0  0  0  0  0  0  0  0  0
   57.6782   -5.2533  -11.7036 C   0  0  0  0  0  0  0  0  0  0  0  0
   57.9721   -5.2269  -10.3358 C   0  0  0  0  0  0  0  0  0  0  0  0
   57.1713   -4.5123   -9.4734 C   0  0  0  0  0  0  0  0  0  0  0  0
   57.4618   -4.4650   -8.0075 C   0  0  0  0  0  0  0  0  0  0  0  0
   56.0589   -3.8105   -9.9713 C   0  0  0  0  0  0  0  0  0  0  0  0
   55.8050   -3.8623  -11.3210 C   0  0  0  0  0  0  0  0  0  0  0  0
   56.3194   -4.6403  -13.6494 C   0  0  0  0  0  0  0  0  0  0  0  0
   56.8105   -3.5203  -14.4754 C   0  0  0  0  0  0  0  0  0  0  0  0
   56.3337   -3.5527  -15.8765 C   0  0  0  0  0  0  0  0  0  0  0  0
   57.4905   -4.7034  -17.6457 C   0  0  0  0  0  0  0  0  0  0  0  0
   57.3207   -3.4941  -16.8889 N   0  0  0  0  0  0  0  0  0  0  0  0
   58.5748   -2.9192  -16.4594 C   0  0  0  0  0  0  0  0  0  0  0  0
 31 32  1  0  0  0
 32 33  1  0  0  0
 32 30  1  0  0  0
 30 29  1  0  0  0
 29 28  1  0  0  0
 28 21  1  0  0  0
 21 22  2  0  0  0
 22 23  1  0  0  0
 23 24  2  0  0  0
 24 25  1  0  0  0
 24 26  1  0  0  0
 26 19  1  0  0  0
 19  1  1  0  0  0
  1  2  2  0  0  0
  2  3  1  0  0  0
  3  4  2  0  0  0
  4  5  1  0  0  0
  5  6  1  0  0  0
  6  7  2  0  0  0
  6  8  1  0  0  0
  8  9  1  0  0  0
  9 10  2  0  0  0
 10 11  1  0  0  0
 11 12  1  0  0  0
 11 13  2  0  0  0
 13 14  1  0  0  0
 14 15  2  0  0  0
 15 16  1  0  0  0
 16 17  2  0  0  0
 26 27  2  0  0  0
 27 21  1  0  0  0
 17  1  1  0  0  0
 16  4  1  0  0  0
 15  9  1  0  0  0
 19 20  1  0  0  0
  8 18  1  0  0  0
M  END
> <minimizedAffinity>
-8.95929

> <CNNscore>
0.8282522559

> <CNNaffinity>
7.8625764847

> <CNN_VS>
6.5121965408

> <CNNaffinity_variance>
0.1178134456

$$$$
[H]c1nc(N([H])c2c([H])c(C([H])([H])C([H])([H])C([H])([H])N(C([H])([H])[H])C([H])([H])[H])c([H])c([H])c2C([H])([H])[H])nc2c1C([H])([H])C(=S)N([H])c1c([H])c(Cl)c([H])c([H])c1-2


 33 36  0  0  0  0  0  0  0  0999 V2000
   53.2156   -3.2180   -8.7141 C   0  0  0  0  0  0  0  0  0  0  0  0
   52.2016   -2.4842   -9.1418 N   0  0  0  0  0  0  0  0  0  0  0  0
   51.0014   -2.4552   -8.5400 C   0  0  0  0  0  0  0  0  0  0  0  0
   50.7579   -3.2213   -7.3983 C   0  0  0  0  0  0  0  0  0  0  0  0
   49.3984   -3.0605   -6.8847 C   0  0  0  0  0  0  0  0  0  0  0  0
   49.2238   -3.2882   -5.4505 C   0  0  0  0  0  0  0  0  0  0  0  0
   48.1133   -2.3070   -4.7368 S   0  0  0  0  0  0  0  0  0  0  0  0
   49.8264   -4.1962   -4.5468 N   0  0  0  0  0  0  0  0  0  0  0  0
   50.9892   -4.9781   -4.7222 C   0  0  0  0  0  0  0  0  0  0  0  0
   51.2247   -5.8946   -3.7198 C   0  0  0  0  0  0  0  0  0  0  0  0
   52.3205   -6.7458   -3.7289 C   0  0  0  0  0  0  0  0  0  0  0  0
   52.5900   -7.8998   -2.4353 Cl  0  0  0  0  0  0  0  0  0  0  0  0
   53.1823   -6.6390   -4.7995 C   0  0  0  0  0  0  0  0  0  0  0  0
   52.9548   -5.7254   -5.8067 C   0  0  0  0  0  0  0  0  0  0  0  0
   51.8689   -4.8771   -5.8037 C   0  0  0  0  0  0  0  0  0  0  0  0
   51.8014   -3.9817   -6.9514 C   0  0  0  0  0  0  0  0  0  0  0  0
   52.9751   -3.9723   -7.5899 N   0  0  0  0  0  0  0  0  0  0  0  0
   49.3609   -4.3126   -3.6278 H   0  0  0  0  0  0  0  0  0  0  0  0
   54.5107   -3.3214   -9.2702 N   0  0  0  0  0  0  0  0  0  0  0  0
   54.6738   -2.7344  -10.1414 H   0  0  0  0  0  0  0  0  0  0  0  0
   56.8026   -5.3928   -7.1755 C   0  0  0  0  0  0  0  0  0  0  0  0
   57.8155   -5.5846   -8.0777 C   0  0  0  0  0  0  0  0  0  0  0  0
   57.7478   -5.0392   -9.3646 C   0  0  0  0  0  0  0  0  0  0  0  0
   56.6508   -4.2970   -9.7406 C   0  0  0  0  0  0  0  0  0  0  0  0
   56.5505   -3.7032  -11.1090 C   0  0  0  0  0  0  0  0  0  0  0  0
   55.6007   -4.0894   -8.8283 C   0  0  0  0  0  0  0  0  0  0  0  0
   55.7063   -4.6422   -7.5745 C   0  0  0  0  0  0  0  0  0  0  0  0
   56.9198   -5.9742   -5.8296 C   0  0  0  0  0  0  0  0  0  0  0  0
   56.3095   -5.2173   -4.7195 C   0  0  0  0  0  0  0  0  0  0  0  0
   56.5364   -5.8185   -3.3858 C   0  0  0  0  0  0  0  0  0  0  0  0
   57.4301   -4.5471   -1.5482 C   0  0  0  0  0  0  0  0  0  0  0  0
   56.2690   -5.0008   -2.2624 N   0  0  0  0  0  0  0  0  0  0  0  0
   55.2374   -5.5132   -1.3901 C   0  0  0  0  0  0  0  0  0  0  0  0
 31 32  1  0  0  0
 32 33  1  0  0  0
 32 30  1  0  0  0
 30 29  1  0  0  0
 29 28  1  0  0  0
 28 21  1  0  0  0
 21 22  2  0  0  0
 22 23  1  0  0  0
 23 24  2  0  0  0
 24 25  1  0  0  0
 24 26  1  0  0  0
 26 19  1  0  0  0
 19  1  1  0  0  0
  1  2  2  0  0  0
  2  3  1  0  0  0
  3  4  2  0  0  0
  4  5  1  0  0  0
  5  6  1  0  0  0
  6  7  2  0  0  0
  6  8  1  0  0  0
  8  9  1  0  0  0
  9 10  2  0  0  0
 10 11  1  0  0  0
 11 12  1  0  0  0
 11 13  2  0  0  0
 13 14  1  0  0  0
 14 15  2  0  0  0
 15 16  1  0  0  0
 16 17  2  0  0  0
 26 27  2  0  0  0
 27 21  1  0  0  0
 17  1  1  0  0  0
 16  4  1  0  0  0
 15  9  1  0  0  0
 19 20  1  0  0  0
  8 18  1  0  0  0
M  END
> <minimizedAffinity>
-9.28102

> <CNNscore>
0.8165962696

> <CNNaffinity>
8.2788448334

> <CNN_VS>
6.7604737282

> <CNNaffinity_variance>
0.1952056289

$$$$
[H]c1nc(N([H])c2c([H])c(C([H])([H])C([H])([H])C([H])([H])N(C([H])([H])[H])C([H])([H])[H])c([H])c([H])c2C([H])([H])[H])nc2c1C([H])([H])C(=S)N([H])c1c([H])c(Cl)c([H])c([H])c1-2


 33 36  0  0  0  0  0  0  0  0999 V2000
   54.2090   -3.6384   -8.7150 C   0  0  0  0  0  0  0  0  0  0  0  0
   52.9433   -3.3032   -8.9032 N   0  0  0  0  0  0  0  0  0  0  0  0
   51.9394   -3.7268   -8.1182 C   0  0  0  0  0  0  0  0  0  0  0  0
   52.1903   -4.5670   -7.0315 C   0  0  0  0  0  0  0  0  0  0  0  0
   50.9779   -4.9218   -6.2952 C   0  0  0  0  0  0  0  0  0  0  0  0
   51.1587   -5.2448   -4.8801 C   0  0  0  0  0  0  0  0  0  0  0  0
   49.9273   -4.7516   -3.9077 S   0  0  0  0  0  0  0  0  0  0  0  0
   52.1935   -5.9059   -4.1756 N   0  0  0  0  0  0  0  0  0  0  0  0
   53.5024   -6.2124   -4.6082 C   0  0  0  0  0  0  0  0  0  0  0  0
   54.2205   -7.0163   -3.7491 C   0  0  0  0  0  0  0  0  0  0  0  0
   55.5222   -7.4171   -4.0143 C   0  0  0  0  0  0  0  0  0  0  0  0
   56.4074   -8.4402   -2.8974 Cl  0  0  0  0  0  0  0  0  0  0  0  0
   56.0820   -6.9725   -5.1931 C   0  0  0  0  0  0  0  0  0  0  0  0
   55.3713   -6.1682   -6.0585 C   0  0  0  0  0  0  0  0  0  0  0  0
   54.0786   -5.7665   -5.8010 C   0  0  0  0  0  0  0  0  0  0  0  0
   53.4957   -4.9170   -6.8317 C   0  0  0  0  0  0  0  0  0  0  0  0
   54.4553   -4.4659   -7.6448 N   0  0  0  0  0  0  0  0  0  0  0  0
   51.9739   -6.2122   -3.2097 H   0  0  0  0  0  0  0  0  0  0  0  0
   55.3344   -3.2517   -9.4774 N   0  0  0  0  0  0  0  0  0  0  0  0
   55.3128   -2.2507   -9.8343 H   0  0  0  0  0  0  0  0  0  0  0  0
   58.4241   -5.3381   -9.2977 C   0  0  0  0  0  0  0  0  0  0  0  0
   58.6791   -5.4731  -10.6369 C   0  0  0  0  0  0  0  0  0  0  0  0
   57.8436   -4.8848  -11.5929 C   0  0  0  0  0  0  0  0  0  0  0  0
   56.7454   -4.1571  -11.1927 C   0  0  0  0  0  0  0  0  0  0  0  0
   55.8346   -3.5184  -12.1915 C   0  0  0  0  0  0  0  0  0  0  0  0
   56.4671   -4.0076   -9.8222 C   0  0  0  0  0  0  0  0  0  0  0  0
   57.3125   -4.6012   -8.9158 C   0  0  0  0  0  0  0  0  0  0  0  0
   59.3347   -5.9632   -8.3265 C   0  0  0  0  0  0  0  0  0  0  0  0
   60.7218   -6.2029   -8.7697 C   0  0  0  0  0  0  0  0  0  0  0  0
   61.3555   -7.3872   -8.1471 C   0  0  0  0  0  0  0  0  0  0  0  0
   63.3249   -6.8752   -6.8619 C   0  0  0  0  0  0  0  0  0  0  0  0
   61.9269   -7.2063   -6.8652 N   0  0  0  0  0  0  0  0  0  0  0  0
   61.5929   -8.2443   -5.9172 C   0  0  0  0  0  0  0  0  0  0  0  0
 31 32  1  0  0  0
 32 33  1  0  0  0
 32 30  1  0  0  0
 30 29  1  0  0  0
 29 28  1  0  0  0
 28 21  1  0  0  0
 21 22  2  0  0  0
 22 23  1  0  0  0
 23 24  2  0  0  0
 24 25  1  0  0  0
 24 26  1  0  0  0
 26 19  1  0  0  0
 19  1  1  0  0  0
  1  2  2  0  0  0
  2  3  1  0  0  0
  3  4  2  0  0  0
  4  5  1  0  0  0
  5  6  1  0  0  0
  6  7  2  0  0  0
  6  8  1  0  0  0
  8  9  1  0  0  0
  9 10  2  0  0  0
 10 11  1  0  0  0
 11 12  1  0  0  0
 11 13  2  0  0  0
 13 14  1  0  0  0
 14 15  2  0  0  0
 15 16  1  0  0  0
 16 17  2  0  0  0
 26 27  2  0  0  0
 27 21  1  0  0  0
 17  1  1  0  0  0
 16  4  1  0  0  0
 15  9  1  0  0  0
 19 20  1  0  0  0
  8 18  1  0  0  0
M  END
> <minimizedAffinity>
-8.59553

> <CNNscore>
0.8099650145

> <CNNaffinity>
7.8557891846

> <CNN_VS>
6.3629145622

> <CNNaffinity_variance>
0.1870286465

$$$$
[H]c1nc(N([H])c2c([H])c(C([H])([H])C([H])([H])C([H])([H])N(C([H])([H])[H])C([H])([H])[H])c([H])c([H])c2C([H])([H])[H])nc2c1C([H])([H])C(=S)N([H])c1c([H])c(Cl)c([H])c([H])c1-2


 33 36  0  0  0  0  0  0  0  0999 V2000
   53.7515   -3.4138   -9.1102 C   0  0  0  0  0  0  0  0  0  0  0  0
   52.6877   -2.7507   -9.5323 N   0  0  0  0  0  0  0  0  0  0  0  0
   51.5004   -2.7770   -8.9053 C   0  0  0  0  0  0  0  0  0  0  0  0
   51.3257   -3.5283   -7.7412 C   0  0  0  0  0  0  0  0  0  0  0  0
   49.9699   -3.4344   -7.2019 C   0  0  0  0  0  0  0  0  0  0  0  0
   49.8384   -3.6373   -5.7594 C   0  0  0  0  0  0  0  0  0  0  0  0
   48.6872   -2.7054   -5.0442 S   0  0  0  0  0  0  0  0  0  0  0  0
   50.5116   -4.4867   -4.8486 N   0  0  0  0  0  0  0  0  0  0  0  0
   51.7144   -5.2036   -5.0313 C   0  0  0  0  0  0  0  0  0  0  0  0
   52.0237   -6.0804   -4.0136 C   0  0  0  0  0  0  0  0  0  0  0  0
   53.1671   -6.8664   -4.0272 C   0  0  0  0  0  0  0  0  0  0  0  0
   53.5303   -7.9713   -2.7138 Cl  0  0  0  0  0  0  0  0  0  0  0  0
   53.9990   -6.7356   -5.1186 C   0  0  0  0  0  0  0  0  0  0  0  0
   53.6978   -5.8613   -6.1412 C   0  0  0  0  0  0  0  0  0  0  0  0
   52.5643   -5.0777   -6.1338 C   0  0  0  0  0  0  0  0  0  0  0  0
   52.4209   -4.2157   -7.3000 C   0  0  0  0  0  0  0  0  0  0  0  0
   53.5788   -4.1535   -7.9640 N   0  0  0  0  0  0  0  0  0  0  0  0
   50.0726   -4.6077   -3.9171 H   0  0  0  0  0  0  0  0  0  0  0  0
   55.0388   -3.4552   -9.6920 N   0  0  0  0  0  0  0  0  0  0  0  0
   55.1345   -2.9263  -10.6091 H   0  0  0  0  0  0  0  0  0  0  0  0
   58.1523   -5.5041   -9.4915 C   0  0  0  0  0  0  0  0  0  0  0  0
   58.4595   -5.3124   -8.1703 C   0  0  0  0  0  0  0  0  0  0  0  0
   57.6519   -4.5165   -7.3503 C   0  0  0  0  0  0  0  0  0  0  0  0
   56.5292   -3.9114   -7.8689 C   0  0  0  0  0  0  0  0  0  0  0  0
   55.6486   -3.0546   -7.0170 C   0  0  0  0  0  0  0  0  0  0  0  0
   56.1976   -4.0960   -9.2231 C   0  0  0  0  0  0  0  0  0  0  0  0
   57.0169   -4.8853   -9.9942 C   0  0  0  0  0  0  0  0  0  0  0  0
   59.0220   -6.3579  -10.3148 C   0  0  0  0  0  0  0  0  0  0  0  0
   60.3949   -6.5840   -9.8231 C   0  0  0  0  0  0  0  0  0  0  0  0
   60.7684   -8.0128   -9.7194 C   0  0  0  0  0  0  0  0  0  0  0  0
   62.1639   -9.8307  -10.4546 C   0  0  0  0  0  0  0  0  0  0  0  0
   61.6350   -8.5207  -10.7161 N   0  0  0  0  0  0  0  0  0  0  0  0
   62.6442   -7.5845  -11.1551 C   0  0  0  0  0  0  0  0  0  0  0  0
 31 32  1  0  0  0
 32 33  1  0  0  0
 32 30  1  0  0  0
 30 29  1  0  0  0
 29 28  1  0  0  0
 28 21  1  0  0  0
 21 22  2  0  0  0
 22 23  1  0  0  0
 23 24  2  0  0  0
 24 25  1  0  0  0
 24 26  1  0  0  0
 26 19  1  0  0  0
 19  1  1  0  0  0
  1  2  2  0  0  0
  2  3  1  0  0  0
  3  4  2  0  0  0
  4  5  1  0  0  0
  5  6  1  0  0  0
  6  7  2  0  0  0
  6  8  1  0  0  0
  8  9  1  0  0  0
  9 10  2  0  0  0
 10 11  1  0  0  0
 11 12  1  0  0  0
 11 13  2  0  0  0
 13 14  1  0  0  0
 14 15  2  0  0  0
 15 16  1  0  0  0
 16 17  2  0  0  0
 26 27  2  0  0  0
 27 21  1  0  0  0
 17  1  1  0  0  0
 16  4  1  0  0  0
 15  9  1  0  0  0
 19 20  1  0  0  0
  8 18  1  0  0  0
M  END
> <minimizedAffinity>
-8.14003

> <CNNscore>
0.7696098685

> <CNNaffinity>
7.6735639572

> <CNN_VS>
5.9056506157

> <CNNaffinity_variance>
0.2139863074

$$$$
[H]c1nc(N([H])c2c([H])c(C([H])([H])C([H])([H])C([H])([H])N(C([H])([H])[H])C([H])([H])[H])c([H])c([H])c2C([H])([H])[H])nc2c1C([H])([H])C(=S)N([H])c1c([H])c(Cl)c([H])c([H])c1-2


 33 36  0  0  0  0  0  0  0  0999 V2000
   52.3971   -4.1459   -7.9303 C   0  0  0  0  0  0  0  0  0  0  0  0
   52.9543   -3.5665   -8.9808 N   0  0  0  0  0  0  0  0  0  0  0  0
   54.2777   -3.5607   -9.2094 C   0  0  0  0  0  0  0  0  0  0  0  0
   55.1569   -4.1854   -8.3225 C   0  0  0  0  0  0  0  0  0  0  0  0
   56.5551   -4.0758   -8.7360 C   0  0  0  0  0  0  0  0  0  0  0  0
   57.4444   -5.1430   -8.2783 C   0  0  0  0  0  0  0  0  0  0  0  0
   58.6132   -5.5630   -9.3566 S   0  0  0  0  0  0  0  0  0  0  0  0
   57.4995   -5.8921   -7.0782 N   0  0  0  0  0  0  0  0  0  0  0  0
   56.5237   -6.0115   -6.0645 C   0  0  0  0  0  0  0  0  0  0  0  0
   56.9438   -6.6813   -4.9353 C   0  0  0  0  0  0  0  0  0  0  0  0
   56.1172   -6.8908   -3.8407 C   0  0  0  0  0  0  0  0  0  0  0  0
   56.6850   -7.7489   -2.4197 Cl  0  0  0  0  0  0  0  0  0  0  0  0
   54.8342   -6.3940   -3.9259 C   0  0  0  0  0  0  0  0  0  0  0  0
   54.4051   -5.7228   -5.0512 C   0  0  0  0  0  0  0  0  0  0  0  0
   55.2207   -5.5115   -6.1417 C   0  0  0  0  0  0  0  0  0  0  0  0
   54.5875   -4.7856   -7.2352 C   0  0  0  0  0  0  0  0  0  0  0  0
   53.2635   -4.7607   -7.0573 N   0  0  0  0  0  0  0  0  0  0  0  0
   58.3689   -6.4307   -6.9079 H   0  0  0  0  0  0  0  0  0  0  0  0
   51.0252   -4.2089   -7.5969 N   0  0  0  0  0  0  0  0  0  0  0  0
   50.3763   -4.4408   -8.4063 H   0  0  0  0  0  0  0  0  0  0  0  0
   49.9709   -4.5814   -4.0358 C   0  0  0  0  0  0  0  0  0  0  0  0
   49.1310   -3.5034   -3.9390 C   0  0  0  0  0  0  0  0  0  0  0  0
   48.9119   -2.6595   -5.0334 C   0  0  0  0  0  0  0  0  0  0  0  0
   49.5452   -2.9066   -6.2307 C   0  0  0  0  0  0  0  0  0  0  0  0
   49.3312   -2.0213   -7.4163 C   0  0  0  0  0  0  0  0  0  0  0  0
   50.4114   -4.0082   -6.3494 C   0  0  0  0  0  0  0  0  0  0  0  0
   50.5992   -4.8124   -5.2509 C   0  0  0  0  0  0  0  0  0  0  0  0
   50.1636   -5.4494   -2.8642 C   0  0  0  0  0  0  0  0  0  0  0  0
   51.5280   -5.5266   -2.3072 C   0  0  0  0  0  0  0  0  0  0  0  0
   51.8415   -6.8217   -1.6622 C   0  0  0  0  0  0  0  0  0  0  0  0
   53.5276   -5.5791   -0.4766 C   0  0  0  0  0  0  0  0  0  0  0  0
   52.7743   -6.7964   -0.5984 N   0  0  0  0  0  0  0  0  0  0  0  0
   53.5992   -7.9792   -0.5071 C   0  0  0  0  0  0  0  0  0  0  0  0
 31 32  1  0  0  0
 32 33  1  0  0  0
 32 30  1  0  0  0
 30 29  1  0  0  0
 29 28  1  0  0  0
 28 21  1  0  0  0
 21 22  2  0  0  0
 22 23  1  0  0  0
 23 24  2  0  0  0
 24 25  1  0  0  0
 24 26  1  0  0  0
 26 19  1  0  0  0
 19  1  1  0  0  0
  1  2  2  0  0  0
  2  3  1  0  0  0
  3  4  2  0  0  0
  4  5  1  0  0  0
  5  6  1  0  0  0
  6  7  2  0  0  0
  6  8  1  0  0  0
  8  9  1  0  0  0
  9 10  2  0  0  0
 10 11  1  0  0  0
 11 12  1  0  0  0
 11 13  2  0  0  0
 13 14  1  0  0  0
 14 15  2  0  0  0
 15 16  1  0  0  0
 16 17  2  0  0  0
 26 27  2  0  0  0
 27 21  1  0  0  0
 17  1  1  0  0  0
 16  4  1  0  0  0
 15  9  1  0  0  0
 19 20  1  0  0  0
  8 18  1  0  0  0
M  END
> <minimizedAffinity>
-9.88992

> <CNNscore>
0.5382942557

> <CNNaffinity>
7.9248209000

> <CNN_VS>
4.2658853531

> <CNNaffinity_variance>
0.2627992332

$$$$
[H]c1nc(N([H])c2c([H])c(C([H])([H])C([H])([H])C([H])([H])N(C([H])([H])[H])C([H])([H])[H])c([H])c([H])c2C([H])([H])[H])nc2c1C([H])([H])C(=S)N([H])c1c([H])c(Cl)c([H])c([H])c1-2


 33 36  0  0  0  0  0  0  0  0999 V2000
   56.7636   -4.2800  -11.1216 C   0  0  0  0  0  0  0  0  0  0  0  0
   57.7840   -4.8484  -10.5006 N   0  0  0  0  0  0  0  0  0  0  0  0
   57.7552   -5.2146   -9.2089 C   0  0  0  0  0  0  0  0  0  0  0  0
   56.6118   -5.0076   -8.4347 C   0  0  0  0  0  0  0  0  0  0  0  0
   56.7671   -5.4695   -7.0561 C   0  0  0  0  0  0  0  0  0  0  0  0
   55.5374   -5.8664   -6.3707 C   0  0  0  0  0  0  0  0  0  0  0  0
   55.7131   -7.1366   -5.3407 S   0  0  0  0  0  0  0  0  0  0  0  0
   54.2134   -5.3674   -6.4180 N   0  0  0  0  0  0  0  0  0  0  0  0
   53.6298   -4.4958   -7.3635 C   0  0  0  0  0  0  0  0  0  0  0  0
   52.3634   -4.0580   -7.0400 C   0  0  0  0  0  0  0  0  0  0  0  0
   51.6407   -3.1971   -7.8533 C   0  0  0  0  0  0  0  0  0  0  0  0
   50.0300   -2.6607   -7.4108 Cl  0  0  0  0  0  0  0  0  0  0  0  0
   52.2485   -2.7871   -9.0208 C   0  0  0  0  0  0  0  0  0  0  0  0
   53.5149   -3.2197   -9.3526 C   0  0  0  0  0  0  0  0  0  0  0  0
   54.2379   -4.0748   -8.5496 C   0  0  0  0  0  0  0  0  0  0  0  0
   55.5543   -4.4207   -9.0702 C   0  0  0  0  0  0  0  0  0  0  0  0
   55.6381   -4.0762  -10.3585 N   0  0  0  0  0  0  0  0  0  0  0  0
   53.5749   -5.6758   -5.6615 H   0  0  0  0  0  0  0  0  0  0  0  0
   56.6901   -3.8576  -12.4682 N   0  0  0  0  0  0  0  0  0  0  0  0
   55.7072   -3.6701  -12.8272 H   0  0  0  0  0  0  0  0  0  0  0  0
   60.0692   -3.4266  -13.9939 C   0  0  0  0  0  0  0  0  0  0  0  0
   59.7006   -3.2357  -15.2995 C   0  0  0  0  0  0  0  0  0  0  0  0
   58.3535   -3.2486  -15.6777 C   0  0  0  0  0  0  0  0  0  0  0  0
   57.3749   -3.4560  -14.7316 C   0  0  0  0  0  0  0  0  0  0  0  0
   55.9278   -3.4762  -15.1066 C   0  0  0  0  0  0  0  0  0  0  0  0
   57.7337   -3.6542  -13.3862 C   0  0  0  0  0  0  0  0  0  0  0  0
   59.0678   -3.6340  -13.0565 C   0  0  0  0  0  0  0  0  0  0  0  0
   61.4959   -3.3937  -13.6381 C   0  0  0  0  0  0  0  0  0  0  0  0
   62.4156   -2.7882  -14.6206 C   0  0  0  0  0  0  0  0  0  0  0  0
   63.4225   -1.8825  -14.0226 C   0  0  0  0  0  0  0  0  0  0  0  0
   64.6604   -1.2401  -15.9840 C   0  0  0  0  0  0  0  0  0  0  0  0
   63.8979   -0.8284  -14.8381 N   0  0  0  0  0  0  0  0  0  0  0  0
   64.5214    0.2502  -14.1062 C   0  0  0  0  0  0  0  0  0  0  0  0
 31 32  1  0  0  0
 32 33  1  0  0  0
 32 30  1  0  0  0
 30 29  1  0  0  0
 29 28  1  0  0  0
 28 21  1  0  0  0
 21 22  2  0  0  0
 22 23  1  0  0  0
 23 24  2  0  0  0
 24 25  1  0  0  0
 24 26  1  0  0  0
 26 19  1  0  0  0
 19  1  1  0  0  0
  1  2  2  0  0  0
  2  3  1  0  0  0
  3  4  2  0  0  0
  4  5  1  0  0  0
  5  6  1  0  0  0
  6  7  2  0  0  0
  6  8  1  0  0  0
  8  9  1  0  0  0
  9 10  2  0  0  0
 10 11  1  0  0  0
 11 12  1  0  0  0
 11 13  2  0  0  0
 13 14  1  0  0  0
 14 15  2  0  0  0
 15 16  1  0  0  0
 16 17  2  0  0  0
 26 27  2  0  0  0
 27 21  1  0  0  0
 17  1  1  0  0  0
 16  4  1  0  0  0
 15  9  1  0  0  0
 19 20  1  0  0  0
  8 18  1  0  0  0
M  END
> <minimizedAffinity>
-8.78732

> <CNNscore>
0.5340389013

> <CNNaffinity>
6.8950052261

> <CNN_VS>
3.6822009087

> <CNNaffinity_variance>
0.1207955480

$$$$
[H]c1nc(N([H])c2c([H])c(C([H])([H])C([H])([H])C([H])([H])N(C([H])([H])[H])C([H])([H])[H])c([H])c([H])c2C([H])([H])[H])nc2c1C([H])([H])C(=S)N([H])c1c([H])c(Cl)c([H])c([H])c1-2


 33 36  0  0  0  0  0  0  0  0999 V2000
   54.4895   -4.2942   -8.1423 C   0  0  0  0  0  0  0  0  0  0  0  0
   53.5853   -3.6221   -8.8353 N   0  0  0  0  0  0  0  0  0  0  0  0
   52.3048   -3.4906   -8.4525 C   0  0  0  0  0  0  0  0  0  0  0  0
   51.8516   -4.0743   -7.2677 C   0  0  0  0  0  0  0  0  0  0  0  0
   50.4331   -3.8240   -7.0167 C   0  0  0  0  0  0  0  0  0  0  0  0
   50.0191   -3.8324   -5.6139 C   0  0  0  0  0  0  0  0  0  0  0  0
   48.8424   -2.7436   -5.2460 S   0  0  0  0  0  0  0  0  0  0  0  0
   50.4339   -4.6010   -4.4997 N   0  0  0  0  0  0  0  0  0  0  0  0
   51.5815   -5.4126   -4.3630 C   0  0  0  0  0  0  0  0  0  0  0  0
   51.6180   -6.1709   -3.2124 C   0  0  0  0  0  0  0  0  0  0  0  0
   52.6699   -7.0254   -2.9146 C   0  0  0  0  0  0  0  0  0  0  0  0
   52.6841   -7.9753   -1.4398 Cl  0  0  0  0  0  0  0  0  0  0  0  0
   53.6979   -7.0894   -3.8308 C   0  0  0  0  0  0  0  0  0  0  0  0
   53.6700   -6.3347   -4.9843 C   0  0  0  0  0  0  0  0  0  0  0  0
   52.6287   -5.4841   -5.2860 C   0  0  0  0  0  0  0  0  0  0  0  0
   52.7808   -4.7701   -6.5473 C   0  0  0  0  0  0  0  0  0  0  0  0
   54.0425   -4.8689   -6.9758 N   0  0  0  0  0  0  0  0  0  0  0  0
   49.8210   -4.5735   -3.6640 H   0  0  0  0  0  0  0  0  0  0  0  0
   55.8535   -4.4935   -8.4540 N   0  0  0  0  0  0  0  0  0  0  0  0
   56.4851   -4.6659   -7.6165 H   0  0  0  0  0  0  0  0  0  0  0  0
   56.5306   -4.1103  -12.1045 C   0  0  0  0  0  0  0  0  0  0  0  0
   57.8274   -4.5509  -12.1372 C   0  0  0  0  0  0  0  0  0  0  0  0
   58.4761   -4.9704  -10.9705 C   0  0  0  0  0  0  0  0  0  0  0  0
   57.8106   -4.9437   -9.7654 C   0  0  0  0  0  0  0  0  0  0  0  0
   58.4786   -5.3847   -8.5027 C   0  0  0  0  0  0  0  0  0  0  0  0
   56.4790   -4.4943   -9.7117 C   0  0  0  0  0  0  0  0  0  0  0  0
   55.8783   -4.0912  -10.8803 C   0  0  0  0  0  0  0  0  0  0  0  0
   55.8831   -3.6896  -13.3562 C   0  0  0  0  0  0  0  0  0  0  0  0
   56.0941   -4.5471  -14.5385 C   0  0  0  0  0  0  0  0  0  0  0  0
   56.4980   -3.8056  -15.7545 C   0  0  0  0  0  0  0  0  0  0  0  0
   58.7880   -3.0726  -15.8599 C   0  0  0  0  0  0  0  0  0  0  0  0
   57.8034   -4.0454  -16.2451 N   0  0  0  0  0  0  0  0  0  0  0  0
   57.8558   -4.3713  -17.6518 C   0  0  0  0  0  0  0  0  0  0  0  0
 31 32  1  0  0  0
 32 33  1  0  0  0
 32 30  1  0  0  0
 30 29  1  0  0  0
 29 28  1  0  0  0
 28 21  1  0  0  0
 21 22  2  0  0  0
 22 23  1  0  0  0
 23 24  2  0  0  0
 24 25  1  0  0  0
 24 26  1  0  0  0
 26 19  1  0  0  0
 19  1  1  0  0  0
  1  2  2  0  0  0
  2  3  1  0  0  0
  3  4  2  0  0  0
  4  5  1  0  0  0
  5  6  1  0  0  0
  6  7  2  0  0  0
  6  8  1  0  0  0
  8  9  1  0  0  0
  9 10  2  0  0  0
 10 11  1  0  0  0
 11 12  1  0  0  0
 11 13  2  0  0  0
 13 14  1  0  0  0
 14 15  2  0  0  0
 15 16  1  0  0  0
 16 17  2  0  0  0
 26 27  2  0  0  0
 27 21  1  0  0  0
 17  1  1  0  0  0
 16  4  1  0  0  0
 15  9  1  0  0  0
 19 20  1  0  0  0
  8 18  1  0  0  0
M  END
> <minimizedAffinity>
-9.85823

> <CNNscore>
0.5036986470

> <CNNaffinity>
7.4749212265

> <CNN_VS>
3.7651076317

> <CNNaffinity_variance>
0.0972697586

$$$$
[H]c1nc(N([H])c2c([H])c(C([H])([H])C([H])([H])C([H])([H])N(C([H])([H])[H])C([H])([H])[H])c([H])c([H])c2C([H])([H])[H])nc2c1C([H])([H])C(=S)N([H])c1c([H])c(Cl)c([H])c([H])c1-2


 33 36  0  0  0  0  0  0  0  0999 V2000
   54.4329   -4.1080   -8.2273 C   0  0  0  0  0  0  0  0  0  0  0  0
   54.9991   -4.8106   -7.2601 N   0  0  0  0  0  0  0  0  0  0  0  0
   56.1855   -5.4267   -7.3880 C   0  0  0  0  0  0  0  0  0  0  0  0
   56.9014   -5.3531   -8.5846 C   0  0  0  0  0  0  0  0  0  0  0  0
   58.1672   -6.0835   -8.5358 C   0  0  0  0  0  0  0  0  0  0  0  0
   59.2224   -5.5974   -9.4244 C   0  0  0  0  0  0  0  0  0  0  0  0
   60.7406   -5.7097   -8.8017 S   0  0  0  0  0  0  0  0  0  0  0  0
   59.1950   -5.0456  -10.7279 N   0  0  0  0  0  0  0  0  0  0  0  0
   58.0916   -4.5465  -11.4541 C   0  0  0  0  0  0  0  0  0  0  0  0
   58.3608   -4.2323  -12.7690 C   0  0  0  0  0  0  0  0  0  0  0  0
   57.3950   -3.7301  -13.6293 C   0  0  0  0  0  0  0  0  0  0  0  0
   57.7731   -3.3397  -15.2974 Cl  0  0  0  0  0  0  0  0  0  0  0  0
   56.1303   -3.5536  -13.1099 C   0  0  0  0  0  0  0  0  0  0  0  0
   55.8517   -3.8651  -11.7961 C   0  0  0  0  0  0  0  0  0  0  0  0
   56.8061   -4.3639  -10.9364 C   0  0  0  0  0  0  0  0  0  0  0  0
   56.3219   -4.6290   -9.5877 C   0  0  0  0  0  0  0  0  0  0  0  0
   55.1383   -4.0362   -9.4054 N   0  0  0  0  0  0  0  0  0  0  0  0
   60.1015   -4.9952  -11.2286 H   0  0  0  0  0  0  0  0  0  0  0  0
   53.1956   -3.4256   -8.1977 N   0  0  0  0  0  0  0  0  0  0  0  0
   53.0928   -2.6503   -8.9176 H   0  0  0  0  0  0  0  0  0  0  0  0
   50.8876   -4.8322   -5.6235 C   0  0  0  0  0  0  0  0  0  0  0  0
   49.8551   -3.9392   -5.7394 C   0  0  0  0  0  0  0  0  0  0  0  0
   49.9149   -2.8826   -6.6548 C   0  0  0  0  0  0  0  0  0  0  0  0
   51.0239   -2.7282   -7.4561 C   0  0  0  0  0  0  0  0  0  0  0  0
   51.1160   -1.6081   -8.4421 C   0  0  0  0  0  0  0  0  0  0  0  0
   52.0941   -3.6346   -7.3513 C   0  0  0  0  0  0  0  0  0  0  0  0
   51.9957   -4.6585   -6.4399 C   0  0  0  0  0  0  0  0  0  0  0  0
   50.7785   -5.9350   -4.6565 C   0  0  0  0  0  0  0  0  0  0  0  0
   51.4387   -5.7460   -3.3503 C   0  0  0  0  0  0  0  0  0  0  0  0
   52.6219   -6.6115   -3.1441 C   0  0  0  0  0  0  0  0  0  0  0  0
   54.5784   -7.1571   -4.4352 C   0  0  0  0  0  0  0  0  0  0  0  0
   53.8446   -6.1652   -3.6992 N   0  0  0  0  0  0  0  0  0  0  0  0
   54.6739   -5.4196   -2.7803 C   0  0  0  0  0  0  0  0  0  0  0  0
 31 32  1  0  0  0
 32 33  1  0  0  0
 32 30  1  0  0  0
 30 29  1  0  0  0
 29 28  1  0  0  0
 28 21  1  0  0  0
 21 22  2  0  0  0
 22 23  1  0  0  0
 23 24  2  0  0  0
 24 25  1  0  0  0
 24 26  1  0  0  0
 26 19  1  0  0  0
 19  1  1  0  0  0
  1  2  2  0  0  0
  2  3  1  0  0  0
  3  4  2  0  0  0
  4  5  1  0  0  0
  5  6  1  0  0  0
  6  7  2  0  0  0
  6  8  1  0  0  0
  8  9  1  0  0  0
  9 10  2  0  0  0
 10 11  1  0  0  0
 11 12  1  0  0  0
 11 13  2  0  0  0
 13 14  1  0  0  0
 14 15  2  0  0  0
 15 16  1  0  0  0
 16 17  2  0  0  0
 26 27  2  0  0  0
 27 21  1  0  0  0
 17  1  1  0  0  0
 16  4  1  0  0  0
 15  9  1  0  0  0
 19 20  1  0  0  0
  8 18  1  0  0  0
M  END
> <minimizedAffinity>
-8.23589

> <CNNscore>
0.4762109816

> <CNNaffinity>
7.2539329529

> <CNN_VS>
3.4544024467

> <CNNaffinity_variance>
0.1424689740

$$$$
[H]c1sc(-c2c([H])c([H])c3c(nc([H])n3-c3sc(C(=O)N([H])[H])c(O[C@@]([H])(c4c([H])c([H])c([H])c([H])c4C(F)(F)F)C([H])([H])[H])c3[H])c2[H])c([H])c1[H]


 37 41  0  0  0  0  0  0  0  0999 V2000
   57.1727   -4.6473  -11.1953 C   0  0  0  0  0  0  0  0  0  0  0  0
   55.9253   -4.1886  -10.9981 C   0  0  0  0  0  0  0  0  0  0  0  0
   55.4408   -4.1972   -9.7172 C   0  0  0  0  0  0  0  0  0  0  0  0
   56.7280   -4.8415   -8.8220 S   0  0  0  0  0  0  0  0  0  0  0  0
   57.8613   -5.0900  -10.0853 C   0  0  0  0  0  0  0  0  0  0  0  0
   54.1560   -3.7621   -9.2642 N   0  0  0  0  0  0  0  0  0  0  0  0
   53.3146   -2.8969   -9.8523 C   0  0  0  0  0  0  0  0  0  0  0  0
   52.1971   -2.7350   -9.1286 N   0  0  0  0  0  0  0  0  0  0  0  0
   52.3066   -3.5157   -8.0337 C   0  0  0  0  0  0  0  0  0  0  0  0
   51.5249   -3.7895   -6.9374 C   0  0  0  0  0  0  0  0  0  0  0  0
   51.8968   -4.6560   -5.9394 C   0  0  0  0  0  0  0  0  0  0  0  0
   53.1160   -5.2835   -6.0420 C   0  0  0  0  0  0  0  0  0  0  0  0
   53.9325   -5.0221   -7.1498 C   0  0  0  0  0  0  0  0  0  0  0  0
   53.5294   -4.1496   -8.1298 C   0  0  0  0  0  0  0  0  0  0  0  0
   51.0183   -4.9077   -4.7911 C   0  0  0  0  0  0  0  0  0  0  0  0
   49.7807   -4.3572   -4.5863 C   0  0  0  0  0  0  0  0  0  0  0  0
   49.1282   -4.7111   -3.4723 C   0  0  0  0  0  0  0  0  0  0  0  0
   49.7507   -5.5937   -2.6291 C   0  0  0  0  0  0  0  0  0  0  0  0
   51.2289   -5.8988   -3.4241 S   0  0  0  0  0  0  0  0  0  0  0  0
   59.2220   -5.6345  -10.0151 C   0  0  0  0  0  0  0  0  0  0  0  0
   59.5994   -6.3634   -8.8756 N   0  0  0  0  0  0  0  0  0  0  0  0
   60.0087   -5.4472  -10.9474 O   0  0  0  0  0  0  0  0  0  0  0  0
   59.8148   -7.3881   -8.8617 H   0  0  0  0  0  0  0  0  0  0  0  0
   59.6869   -5.8862   -7.9368 H   0  0  0  0  0  0  0  0  0  0  0  0
   57.8334   -4.7114  -12.4453 O   0  0  0  0  0  0  0  0  0  0  0  0
   56.3545   -5.4029  -14.2038 C   0  0  0  0  0  0  0  0  0  0  0  0
   57.2252   -4.2570  -13.5904 C   0  0  0  0  0  0  0  0  0  0  0  0
   58.0385   -3.6353  -14.6248 C   0  0  0  0  0  0  0  0  0  0  0  0
   59.4224   -3.5453  -14.4054 C   0  0  0  0  0  0  0  0  0  0  0  0
   60.2986   -2.9805  -15.3064 C   0  0  0  0  0  0  0  0  0  0  0  0
   59.7909   -2.4798  -16.4795 C   0  0  0  0  0  0  0  0  0  0  0  0
   58.4372   -2.5667  -16.6957 C   0  0  0  0  0  0  0  0  0  0  0  0
   57.5387   -3.1410  -15.7822 C   0  0  0  0  0  0  0  0  0  0  0  0
   56.1223   -3.1799  -16.0931 C   0  0  0  0  0  0  0  0  0  0  0  0
   55.7006   -4.3730  -16.7040 F   0  0  0  0  0  0  0  0  0  0  0  0
   55.9355   -2.2817  -17.1874 F   0  0  0  0  0  0  0  0  0  0  0  0
   55.2506   -2.6857  -15.1820 F   0  0  0  0  0  0  0  0  0  0  0  0
 26 27  1  0  0  0
 27 25  1  0  0  0
 25  1  1  0  0  0
  1  2  1  0  0  0
  2  3  2  0  0  0
  3  4  1  0  0  0
  4  5  1  0  0  0
  5 20  1  0  0  0
 20 21  1  0  0  0
 20 22  2  0  0  0
  3  6  1  0  0  0
  6  7  1  0  0  0
  7  8  2  0  0  0
  8  9  1  0  0  0
  9 10  2  0  0  0
 10 11  1  0  0  0
 11 12  2  0  0  0
 12 13  1  0  0  0
 13 14  2  0  0  0
 11 15  1  0  0  0
 15 16  2  0  0  0
 16 17  1  0  0  0
 17 18  2  0  0  0
 18 19  1  0  0  0
 27 28  1  0  0  0
 28 29  2  0  0  0
 29 30  1  0  0  0
 30 31  2  0  0  0
 31 32  1  0  0  0
 32 33  2  0  0  0
 33 34  1  0  0  0
 34 35  1  0  0  0
 34 36  1  0  0  0
 34 37  1  0  0  0
  5  1  2  0  0  0
 14  6  1  0  0  0
 19 15  1  0  0  0
 33 28  1  0  0  0
 14  9  1  0  0  0
 21 23  1  0  0  0
 21 24  1  0  0  0
M  END
> <minimizedAffinity>
-8.82976

> <CNNscore>
0.6395140290

> <CNNaffinity>
7.3230829239

> <CNN_VS>
4.6832141876

> <CNNaffinity_variance>
0.1785755903

$$$$
[H]c1sc(-c2c([H])c([H])c3c(nc([H])n3-c3sc(C(=O)N([H])[H])c(O[C@@]([H])(c4c([H])c([H])c([H])c([H])c4C(F)(F)F)C([H])([H])[H])c3[H])c2[H])c([H])c1[H]


 37 41  0  0  0  0  0  0  0  0999 V2000
   52.8311   -4.0708   -7.5497 C   0  0  0  0  0  0  0  0  0  0  0  0
   53.9717   -4.4717   -8.1358 C   0  0  0  0  0  0  0  0  0  0  0  0
   54.2996   -3.9070   -9.3396 C   0  0  0  0  0  0  0  0  0  0  0  0
   53.0169   -2.8363   -9.6257 S   0  0  0  0  0  0  0  0  0  0  0  0
   52.0844   -3.1205   -8.2144 C   0  0  0  0  0  0  0  0  0  0  0  0
   55.4515   -4.1698  -10.1452 N   0  0  0  0  0  0  0  0  0  0  0  0
   55.6120   -3.9625  -11.4619 C   0  0  0  0  0  0  0  0  0  0  0  0
   56.8355   -4.3325  -11.8683 N   0  0  0  0  0  0  0  0  0  0  0  0
   57.4983   -4.7960  -10.7885 C   0  0  0  0  0  0  0  0  0  0  0  0
   58.7502   -5.3078  -10.5464 C   0  0  0  0  0  0  0  0  0  0  0  0
   59.1748   -5.7159   -9.3061 C   0  0  0  0  0  0  0  0  0  0  0  0
   58.3014   -5.6069   -8.2498 C   0  0  0  0  0  0  0  0  0  0  0  0
   57.0187   -5.0883   -8.4693 C   0  0  0  0  0  0  0  0  0  0  0  0
   56.6268   -4.6895   -9.7228 C   0  0  0  0  0  0  0  0  0  0  0  0
   60.5252   -6.2557   -9.1095 C   0  0  0  0  0  0  0  0  0  0  0  0
   61.0410   -6.7299   -7.9323 C   0  0  0  0  0  0  0  0  0  0  0  0
   62.3003   -7.1834   -7.9523 C   0  0  0  0  0  0  0  0  0  0  0  0
   62.9697   -7.1362   -9.1470 C   0  0  0  0  0  0  0  0  0  0  0  0
   61.8135   -6.4584  -10.2026 S   0  0  0  0  0  0  0  0  0  0  0  0
   50.8129   -2.5124   -7.8063 C   0  0  0  0  0  0  0  0  0  0  0  0
   49.7309   -3.3529   -7.4980 N   0  0  0  0  0  0  0  0  0  0  0  0
   50.7114   -1.2842   -7.7400 O   0  0  0  0  0  0  0  0  0  0  0  0
   49.3117   -3.4679   -6.5453 H   0  0  0  0  0  0  0  0  0  0  0  0
   49.2701   -3.9342   -8.2507 H   0  0  0  0  0  0  0  0  0  0  0  0
   52.3374   -4.5430   -6.3102 O   0  0  0  0  0  0  0  0  0  0  0  0
   50.9856   -6.5185   -6.4774 C   0  0  0  0  0  0  0  0  0  0  0  0
   52.3387   -5.8847   -6.0138 C   0  0  0  0  0  0  0  0  0  0  0  0
   52.6542   -6.3097   -4.6583 C   0  0  0  0  0  0  0  0  0  0  0  0
   51.6031   -6.3738   -3.7296 C   0  0  0  0  0  0  0  0  0  0  0  0
   51.7716   -6.7611   -2.4181 C   0  0  0  0  0  0  0  0  0  0  0  0
   53.0335   -7.1016   -1.9984 C   0  0  0  0  0  0  0  0  0  0  0  0
   54.0631   -7.0392   -2.9055 C   0  0  0  0  0  0  0  0  0  0  0  0
   53.8986   -6.6456   -4.2433 C   0  0  0  0  0  0  0  0  0  0  0  0
   55.0480   -6.6010   -5.1271 C   0  0  0  0  0  0  0  0  0  0  0  0
   54.9838   -7.5067   -6.1996 F   0  0  0  0  0  0  0  0  0  0  0  0
   56.1279   -7.1840   -4.3970 F   0  0  0  0  0  0  0  0  0  0  0  0
   55.5608   -5.3908   -5.4538 F   0  0  0  0  0  0  0  0  0  0  0  0
 26 27  1  0  0  0
 27 25  1  0  0  0
 25  1  1  0  0  0
  1  2  1  0  0  0
  2  3  2  0  0  0
  3  4  1  0  0  0
  4  5  1  0  0  0
  5 20  1  0  0  0
 20 21  1  0  0  0
 20 22  2  0  0  0
  3  6  1  0  0  0
  6  7  1  0  0  0
  7  8  2  0  0  0
  8  9  1  0  0  0
  9 10  2  0  0  0
 10 11  1  0  0  0
 11 12  2  0  0  0
 12 13  1  0  0  0
 13 14  2  0  0  0
 11 15  1  0  0  0
 15 16  2  0  0  0
 16 17  1  0  0  0
 17 18  2  0  0  0
 18 19  1  0  0  0
 27 28  1  0  0  0
 28 29  2  0  0  0
 29 30  1  0  0  0
 30 31  2  0  0  0
 31 32  1  0  0  0
 32 33  2  0  0  0
 33 34  1  0  0  0
 34 35  1  0  0  0
 34 36  1  0  0  0
 34 37  1  0  0  0
  5  1  2  0  0  0
 14  6  1  0  0  0
 19 15  1  0  0  0
 33 28  1  0  0  0
 14  9  1  0  0  0
 21 23  1  0  0  0
 21 24  1  0  0  0
M  END
> <minimizedAffinity>
-8.88274

> <CNNscore>
0.6279647350

> <CNNaffinity>
7.8194937706

> <CNN_VS>
4.9103665352

> <CNNaffinity_variance>
0.2687999308

$$$$
[H]c1sc(-c2c([H])c([H])c3c(nc([H])n3-c3sc(C(=O)N([H])[H])c(O[C@@]([H])(c4c([H])c([H])c([H])c([H])c4C(F)(F)F)C([H])([H])[H])c3[H])c2[H])c([H])c1[H]


 37 41  0  0  0  0  0  0  0  0999 V2000
   57.3779   -4.8922  -11.0738 C   0  0  0  0  0  0  0  0  0  0  0  0
   56.1297   -4.4158  -10.9312 C   0  0  0  0  0  0  0  0  0  0  0  0
   55.6236   -4.3313   -9.6614 C   0  0  0  0  0  0  0  0  0  0  0  0
   56.8922   -4.9153   -8.7006 S   0  0  0  0  0  0  0  0  0  0  0  0
   58.0454   -5.2576   -9.9234 C   0  0  0  0  0  0  0  0  0  0  0  0
   54.3337   -3.8601   -9.2627 N   0  0  0  0  0  0  0  0  0  0  0  0
   53.5337   -2.9870   -9.8953 C   0  0  0  0  0  0  0  0  0  0  0  0
   52.3949   -2.7877   -9.2154 N   0  0  0  0  0  0  0  0  0  0  0  0
   52.4473   -3.5513   -8.1044 C   0  0  0  0  0  0  0  0  0  0  0  0
   51.6208   -3.7884   -7.0327 C   0  0  0  0  0  0  0  0  0  0  0  0
   51.9369   -4.6452   -6.0075 C   0  0  0  0  0  0  0  0  0  0  0  0
   53.1444   -5.3012   -6.0552 C   0  0  0  0  0  0  0  0  0  0  0  0
   54.0059   -5.0774   -7.1369 C   0  0  0  0  0  0  0  0  0  0  0  0
   53.6581   -4.2136   -8.1453 C   0  0  0  0  0  0  0  0  0  0  0  0
   51.0123   -4.8573   -4.8877 C   0  0  0  0  0  0  0  0  0  0  0  0
   49.7672   -4.3020   -4.7534 C   0  0  0  0  0  0  0  0  0  0  0  0
   49.0698   -4.6169   -3.6550 C   0  0  0  0  0  0  0  0  0  0  0  0
   49.6576   -5.4678   -2.7561 C   0  0  0  0  0  0  0  0  0  0  0  0
   51.1671   -5.7986   -3.4786 S   0  0  0  0  0  0  0  0  0  0  0  0
   59.4019   -5.8009   -9.7913 C   0  0  0  0  0  0  0  0  0  0  0  0
   59.7729   -6.4025   -8.5777 N   0  0  0  0  0  0  0  0  0  0  0  0
   60.1908   -5.7234  -10.7372 O   0  0  0  0  0  0  0  0  0  0  0  0
   59.9805   -7.4210   -8.4505 H   0  0  0  0  0  0  0  0  0  0  0  0
   59.8631   -5.8254   -7.6971 H   0  0  0  0  0  0  0  0  0  0  0  0
   58.0594   -5.0477  -12.3044 O   0  0  0  0  0  0  0  0  0  0  0  0
   58.4731   -2.6964  -12.0632 C   0  0  0  0  0  0  0  0  0  0  0  0
   58.5461   -3.9580  -12.9854 C   0  0  0  0  0  0  0  0  0  0  0  0
   58.0099   -3.6493  -14.3026 C   0  0  0  0  0  0  0  0  0  0  0  0
   56.6202   -3.7379  -14.4822 C   0  0  0  0  0  0  0  0  0  0  0  0
   55.9910   -3.4709  -15.6787 C   0  0  0  0  0  0  0  0  0  0  0  0
   56.7643   -3.0993  -16.7504 C   0  0  0  0  0  0  0  0  0  0  0  0
   58.1240   -3.0123  -16.5765 C   0  0  0  0  0  0  0  0  0  0  0  0
   58.7717   -3.2827  -15.3603 C   0  0  0  0  0  0  0  0  0  0  0  0
   60.2156   -3.1734  -15.2738 C   0  0  0  0  0  0  0  0  0  0  0  0
   60.6644   -2.1198  -14.4594 F   0  0  0  0  0  0  0  0  0  0  0  0
   60.6494   -2.6847  -16.5435 F   0  0  0  0  0  0  0  0  0  0  0  0
   60.9404   -4.3114  -15.1568 F   0  0  0  0  0  0  0  0  0  0  0  0
 26 27  1  0  0  0
 27 25  1  0  0  0
 25  1  1  0  0  0
  1  2  1  0  0  0
  2  3  2  0  0  0
  3  4  1  0  0  0
  4  5  1  0  0  0
  5 20  1  0  0  0
 20 21  1  0  0  0
 20 22  2  0  0  0
  3  6  1  0  0  0
  6  7  1  0  0  0
  7  8  2  0  0  0
  8  9  1  0  0  0
  9 10  2  0  0  0
 10 11  1  0  0  0
 11 12  2  0  0  0
 12 13  1  0  0  0
 13 14  2  0  0  0
 11 15  1  0  0  0
 15 16  2  0  0  0
 16 17  1  0  0  0
 17 18  2  0  0  0
 18 19  1  0  0  0
 27 28  1  0  0  0
 28 29  2  0  0  0
 29 30  1  0  0  0
 30 31  2  0  0  0
 31 32  1  0  0  0
 32 33  2  0  0  0
 33 34  1  0  0  0
 34 35  1  0  0  0
 34 36  1  0  0  0
 34 37  1  0  0  0
  5  1  2  0  0  0
 14  6  1  0  0  0
 19 15  1  0  0  0
 33 28  1  0  0  0
 14  9  1  0  0  0
 21 23  1  0  0  0
 21 24  1  0  0  0
M  END
> <minimizedAffinity>
-8.35518

> <CNNscore>
0.5736622810

> <CNNaffinity>
7.1478409767

> <CNN_VS>
4.1004467010

> <CNNaffinity_variance>
0.1807568520

$$$$
[H]c1sc(-c2c([H])c([H])c3c(nc([H])n3-c3sc(C(=O)N([H])[H])c(O[C@@]([H])(c4c([H])c([H])c([H])c([H])c4C(F)(F)F)C([H])([H])[H])c3[H])c2[H])c([H])c1[H]


 37 41  0  0  0  0  0  0  0  0999 V2000
   52.8487   -4.0080   -7.5370 C   0  0  0  0  0  0  0  0  0  0  0  0
   53.9920   -4.4162   -8.1129 C   0  0  0  0  0  0  0  0  0  0  0  0
   54.3055   -3.8960   -9.3404 C   0  0  0  0  0  0  0  0  0  0  0  0
   53.0063   -2.8558   -9.6621 S   0  0  0  0  0  0  0  0  0  0  0  0
   52.0852   -3.0959   -8.2352 C   0  0  0  0  0  0  0  0  0  0  0  0
   55.4569   -4.1750  -10.1413 N   0  0  0  0  0  0  0  0  0  0  0  0
   55.6198   -3.9857  -11.4605 C   0  0  0  0  0  0  0  0  0  0  0  0
   56.8418   -4.3669  -11.8607 N   0  0  0  0  0  0  0  0  0  0  0  0
   57.5012   -4.8196  -10.7743 C   0  0  0  0  0  0  0  0  0  0  0  0
   58.7504   -5.3345  -10.5243 C   0  0  0  0  0  0  0  0  0  0  0  0
   59.1716   -5.7285   -9.2784 C   0  0  0  0  0  0  0  0  0  0  0  0
   58.2977   -5.6014   -8.2244 C   0  0  0  0  0  0  0  0  0  0  0  0
   57.0179   -5.0793   -8.4520 C   0  0  0  0  0  0  0  0  0  0  0  0
   56.6292   -4.6950   -9.7110 C   0  0  0  0  0  0  0  0  0  0  0  0
   60.5192   -6.2724   -9.0734 C   0  0  0  0  0  0  0  0  0  0  0  0
   61.0296   -6.7388   -7.8908 C   0  0  0  0  0  0  0  0  0  0  0  0
   62.2871   -7.1978   -7.9033 C   0  0  0  0  0  0  0  0  0  0  0  0
   62.9599   -7.1636   -9.0965 C   0  0  0  0  0  0  0  0  0  0  0  0
   61.8096   -6.4898  -10.1610 S   0  0  0  0  0  0  0  0  0  0  0  0
   50.8073   -2.4896   -7.8447 C   0  0  0  0  0  0  0  0  0  0  0  0
   49.7139   -3.3305   -7.5809 N   0  0  0  0  0  0  0  0  0  0  0  0
   50.7105   -1.2626   -7.7540 O   0  0  0  0  0  0  0  0  0  0  0  0
   49.2712   -3.4638   -6.6413 H   0  0  0  0  0  0  0  0  0  0  0  0
   49.2686   -3.8928   -8.3569 H   0  0  0  0  0  0  0  0  0  0  0  0
   52.3682   -4.4367   -6.2767 O   0  0  0  0  0  0  0  0  0  0  0  0
   51.4733   -6.6129   -6.7467 C   0  0  0  0  0  0  0  0  0  0  0  0
   52.4639   -5.7529   -5.8942 C   0  0  0  0  0  0  0  0  0  0  0  0
   52.3379   -6.0912   -4.4845 C   0  0  0  0  0  0  0  0  0  0  0  0
   53.4098   -6.7599   -3.8721 C   0  0  0  0  0  0  0  0  0  0  0  0
   53.4131   -7.1339   -2.5459 C   0  0  0  0  0  0  0  0  0  0  0  0
   52.3100   -6.8368   -1.7846 C   0  0  0  0  0  0  0  0  0  0  0  0
   51.2602   -6.1829   -2.3822 C   0  0  0  0  0  0  0  0  0  0  0  0
   51.2502   -5.7988   -3.7327 C   0  0  0  0  0  0  0  0  0  0  0  0
   50.0910   -5.1194   -4.2794 C   0  0  0  0  0  0  0  0  0  0  0  0
   50.2766   -3.7419   -4.4860 F   0  0  0  0  0  0  0  0  0  0  0  0
   49.1317   -5.0672   -3.2229 F   0  0  0  0  0  0  0  0  0  0  0  0
   49.3866   -5.7364   -5.2579 F   0  0  0  0  0  0  0  0  0  0  0  0
 26 27  1  0  0  0
 27 25  1  0  0  0
 25  1  1  0  0  0
  1  2  1  0  0  0
  2  3  2  0  0  0
  3  4  1  0  0  0
  4  5  1  0  0  0
  5 20  1  0  0  0
 20 21  1  0  0  0
 20 22  2  0  0  0
  3  6  1  0  0  0
  6  7  1  0  0  0
  7  8  2  0  0  0
  8  9  1  0  0  0
  9 10  2  0  0  0
 10 11  1  0  0  0
 11 12  2  0  0  0
 12 13  1  0  0  0
 13 14  2  0  0  0
 11 15  1  0  0  0
 15 16  2  0  0  0
 16 17  1  0  0  0
 17 18  2  0  0  0
 18 19  1  0  0  0
 27 28  1  0  0  0
 28 29  2  0  0  0
 29 30  1  0  0  0
 30 31  2  0  0  0
 31 32  1  0  0  0
 32 33  2  0  0  0
 33 34  1  0  0  0
 34 35  1  0  0  0
 34 36  1  0  0  0
 34 37  1  0  0  0
  5  1  2  0  0  0
 14  6  1  0  0  0
 19 15  1  0  0  0
 33 28  1  0  0  0
 14  9  1  0  0  0
 21 23  1  0  0  0
 21 24  1  0  0  0
M  END
> <minimizedAffinity>
-9.01927

> <CNNscore>
0.4929908812

> <CNNaffinity>
7.5435066223

> <CNN_VS>
3.7188799381

> <CNNaffinity_variance>
0.2015562057

$$$$
[H]c1sc(-c2c([H])c([H])c3c(nc([H])n3-c3sc(C(=O)N([H])[H])c(O[C@@]([H])(c4c([H])c([H])c([H])c([H])c4C(F)(F)F)C([H])([H])[H])c3[H])c2[H])c([H])c1[H]


 37 41  0  0  0  0  0  0  0  0999 V2000
   52.9377   -4.2454   -7.1918 C   0  0  0  0  0  0  0  0  0  0  0  0
   54.1684   -4.7092   -7.4665 C   0  0  0  0  0  0  0  0  0  0  0  0
   54.7819   -4.2486   -8.6011 C   0  0  0  0  0  0  0  0  0  0  0  0
   53.6350   -3.1857   -9.2555 S   0  0  0  0  0  0  0  0  0  0  0  0
   52.3950   -3.3410   -8.0806 C   0  0  0  0  0  0  0  0  0  0  0  0
   56.0784   -4.5928   -9.0965 N   0  0  0  0  0  0  0  0  0  0  0  0
   57.0447   -5.2952   -8.4838 C   0  0  0  0  0  0  0  0  0  0  0  0
   58.1287   -5.4168   -9.2642 N   0  0  0  0  0  0  0  0  0  0  0  0
   57.8680   -4.7765  -10.4228 C   0  0  0  0  0  0  0  0  0  0  0  0
   58.5481   -4.5434  -11.5937 C   0  0  0  0  0  0  0  0  0  0  0  0
   58.0233   -3.8351  -12.6462 C   0  0  0  0  0  0  0  0  0  0  0  0
   56.7496   -3.3320  -12.5228 C   0  0  0  0  0  0  0  0  0  0  0  0
   56.0342   -3.5553  -11.3393 C   0  0  0  0  0  0  0  0  0  0  0  0
   56.5896   -4.2683  -10.3062 C   0  0  0  0  0  0  0  0  0  0  0  0
   58.7994   -3.6181  -13.8727 C   0  0  0  0  0  0  0  0  0  0  0  0
   58.2866   -3.4255  -15.1284 C   0  0  0  0  0  0  0  0  0  0  0  0
   59.1596   -3.2437  -16.1268 C   0  0  0  0  0  0  0  0  0  0  0  0
   60.4929   -3.2653  -15.8117 C   0  0  0  0  0  0  0  0  0  0  0  0
   60.4799   -3.5393  -14.1279 S   0  0  0  0  0  0  0  0  0  0  0  0
   51.0847   -2.6831   -8.0243 C   0  0  0  0  0  0  0  0  0  0  0  0
   49.9437   -3.4696   -7.7967 N   0  0  0  0  0  0  0  0  0  0  0  0
   51.0026   -1.4611   -8.1759 O   0  0  0  0  0  0  0  0  0  0  0  0
   49.3497   -3.4317   -6.9351 H   0  0  0  0  0  0  0  0  0  0  0  0
   49.6190   -4.1680   -8.5203 H   0  0  0  0  0  0  0  0  0  0  0  0
   52.1578   -4.6085   -6.0679 O   0  0  0  0  0  0  0  0  0  0  0  0
   50.8908   -6.6387   -6.2434 C   0  0  0  0  0  0  0  0  0  0  0  0
   52.1252   -5.9070   -5.6201 C   0  0  0  0  0  0  0  0  0  0  0  0
   52.1917   -6.1640   -4.1892 C   0  0  0  0  0  0  0  0  0  0  0  0
   51.0019   -6.0693   -3.4498 C   0  0  0  0  0  0  0  0  0  0  0  0
   50.9329   -6.2893   -2.0914 C   0  0  0  0  0  0  0  0  0  0  0  0
   52.0885   -6.6180   -1.4271 C   0  0  0  0  0  0  0  0  0  0  0  0
   53.2535   -6.7108   -2.1488 C   0  0  0  0  0  0  0  0  0  0  0  0
   53.3310   -6.4881   -3.5330 C   0  0  0  0  0  0  0  0  0  0  0  0
   54.6093   -6.5998   -4.2097 C   0  0  0  0  0  0  0  0  0  0  0  0
   54.6640   -7.6249   -5.1693 F   0  0  0  0  0  0  0  0  0  0  0  0
   55.5178   -7.1359   -3.2472 F   0  0  0  0  0  0  0  0  0  0  0  0
   55.2427   -5.4610   -4.5788 F   0  0  0  0  0  0  0  0  0  0  0  0
 26 27  1  0  0  0
 27 25  1  0  0  0
 25  1  1  0  0  0
  1  2  1  0  0  0
  2  3  2  0  0  0
  3  4  1  0  0  0
  4  5  1  0  0  0
  5 20  1  0  0  0
 20 21  1  0  0  0
 20 22  2  0  0  0
  3  6  1  0  0  0
  6  7  1  0  0  0
  7  8  2  0  0  0
  8  9  1  0  0  0
  9 10  2  0  0  0
 10 11  1  0  0  0
 11 12  2  0  0  0
 12 13  1  0  0  0
 13 14  2  0  0  0
 11 15  1  0  0  0
 15 16  2  0  0  0
 16 17  1  0  0  0
 17 18  2  0  0  0
 18 19  1  0  0  0
 27 28  1  0  0  0
 28 29  2  0  0  0
 29 30  1  0  0  0
 30 31  2  0  0  0
 31 32  1  0  0  0
 32 33  2  0  0  0
 33 34  1  0  0  0
 34 35  1  0  0  0
 34 36  1  0  0  0
 34 37  1  0  0  0
  5  1  2  0  0  0
 14  6  1  0  0  0
 19 15  1  0  0  0
 33 28  1  0  0  0
 14  9  1  0  0  0
 21 23  1  0  0  0
 21 24  1  0  0  0
M  END
> <minimizedAffinity>
-8.45629

> <CNNscore>
0.3763016760

> <CNNaffinity>
7.3300423622

> <CNN_VS>
2.7583072186

> <CNNaffinity_variance>
0.1423247606

$$$$
[H]c1sc(-c2c([H])c([H])c3c(nc([H])n3-c3sc(C(=O)N([H])[H])c(O[C@@]([H])(c4c([H])c([H])c([H])c([H])c4C(F)(F)F)C([H])([H])[H])c3[H])c2[H])c([H])c1[H]


 37 41  0  0  0  0  0  0  0  0999 V2000
   57.7766   -5.3997   -9.9174 C   0  0  0  0  0  0  0  0  0  0  0  0
   58.7255   -5.9709   -9.1569 C   0  0  0  0  0  0  0  0  0  0  0  0
   59.9957   -6.0312   -9.6654 C   0  0  0  0  0  0  0  0  0  0  0  0
   59.8388   -5.2945  -11.1840 S   0  0  0  0  0  0  0  0  0  0  0  0
   58.1650   -4.9210  -11.1512 C   0  0  0  0  0  0  0  0  0  0  0  0
   61.1606   -6.5851   -9.0479 N   0  0  0  0  0  0  0  0  0  0  0  0
   61.9557   -6.0290   -8.1199 C   0  0  0  0  0  0  0  0  0  0  0  0
   62.9567   -6.8535   -7.7780 N   0  0  0  0  0  0  0  0  0  0  0  0
   62.8160   -7.9836   -8.5012 C   0  0  0  0  0  0  0  0  0  0  0  0
   63.4948   -9.1732   -8.6112 C   0  0  0  0  0  0  0  0  0  0  0  0
   63.1166  -10.1855   -9.4581 C   0  0  0  0  0  0  0  0  0  0  0  0
   61.9993   -9.9998  -10.2377 C   0  0  0  0  0  0  0  0  0  0  0  0
   61.2889   -8.7960  -10.1450 C   0  0  0  0  0  0  0  0  0  0  0  0
   61.6951   -7.8044   -9.2873 C   0  0  0  0  0  0  0  0  0  0  0  0
   63.8831  -11.4348   -9.5321 C   0  0  0  0  0  0  0  0  0  0  0  0
   63.8431  -12.3464  -10.5539 C   0  0  0  0  0  0  0  0  0  0  0  0
   64.6191  -13.4313  -10.4395 C   0  0  0  0  0  0  0  0  0  0  0  0
   65.3887  -13.5410   -9.3112 C   0  0  0  0  0  0  0  0  0  0  0  0
   65.0004  -12.1216   -8.4480 S   0  0  0  0  0  0  0  0  0  0  0  0
   57.3435   -4.2594  -12.1712 C   0  0  0  0  0  0  0  0  0  0  0  0
   56.7130   -3.0469  -11.8479 N   0  0  0  0  0  0  0  0  0  0  0  0
   57.2183   -4.7708  -13.2874 O   0  0  0  0  0  0  0  0  0  0  0  0
   56.9472   -2.1169  -12.2684 H   0  0  0  0  0  0  0  0  0  0  0  0
   55.9368   -3.0189  -11.1313 H   0  0  0  0  0  0  0  0  0  0  0  0
   56.4167   -5.2500   -9.5548 O   0  0  0  0  0  0  0  0  0  0  0  0
   57.2135   -4.3771   -7.4665 C   0  0  0  0  0  0  0  0  0  0  0  0
   56.0492   -4.4371   -8.5098 C   0  0  0  0  0  0  0  0  0  0  0  0
   54.7826   -4.6801   -7.8357 C   0  0  0  0  0  0  0  0  0  0  0  0
   54.7391   -5.6963   -6.8678 C   0  0  0  0  0  0  0  0  0  0  0  0
   53.6025   -6.0227   -6.1605 C   0  0  0  0  0  0  0  0  0  0  0  0
   52.4531   -5.3170   -6.4166 C   0  0  0  0  0  0  0  0  0  0  0  0
   52.4938   -4.3227   -7.3633 C   0  0  0  0  0  0  0  0  0  0  0  0
   53.6483   -3.9847   -8.0876 C   0  0  0  0  0  0  0  0  0  0  0  0
   53.5935   -2.9244   -9.0760 C   0  0  0  0  0  0  0  0  0  0  0  0
   54.3028   -1.7660   -8.7163 F   0  0  0  0  0  0  0  0  0  0  0  0
   52.2637   -2.4065   -9.0233 F   0  0  0  0  0  0  0  0  0  0  0  0
   53.7050   -3.2586  -10.3838 F   0  0  0  0  0  0  0  0  0  0  0  0
 26 27  1  0  0  0
 27 25  1  0  0  0
 25  1  1  0  0  0
  1  2  1  0  0  0
  2  3  2  0  0  0
  3  4  1  0  0  0
  4  5  1  0  0  0
  5 20  1  0  0  0
 20 21  1  0  0  0
 20 22  2  0  0  0
  3  6  1  0  0  0
  6  7  1  0  0  0
  7  8  2  0  0  0
  8  9  1  0  0  0
  9 10  2  0  0  0
 10 11  1  0  0  0
 11 12  2  0  0  0
 12 13  1  0  0  0
 13 14  2  0  0  0
 11 15  1  0  0  0
 15 16  2  0  0  0
 16 17  1  0  0  0
 17 18  2  0  0  0
 18 19  1  0  0  0
 27 28  1  0  0  0
 28 29  2  0  0  0
 29 30  1  0  0  0
 30 31  2  0  0  0
 31 32  1  0  0  0
 32 33  2  0  0  0
 33 34  1  0  0  0
 34 35  1  0  0  0
 34 36  1  0  0  0
 34 37  1  0  0  0
  5  1  2  0  0  0
 14  6  1  0  0  0
 19 15  1  0  0  0
 33 28  1  0  0  0
 14  9  1  0  0  0
 21 23  1  0  0  0
 21 24  1  0  0  0
M  END
> <minimizedAffinity>
-7.10703

> <CNNscore>
0.3378154337

> <CNNaffinity>
6.1174755096

> <CNN_VS>
2.0665776730

> <CNNaffinity_variance>
0.5136073828

$$$$
[H]c1sc(-c2c([H])c([H])c3c(nc([H])n3-c3sc(C(=O)N([H])[H])c(O[C@@]([H])(c4c([H])c([H])c([H])c([H])c4C(F)(F)F)C([H])([H])[H])c3[H])c2[H])c([H])c1[H]


 37 41  0  0  0  0  0  0  0  0999 V2000
   62.0591   -6.6051   -7.8692 C   0  0  0  0  0  0  0  0  0  0  0  0
   60.8845   -6.0718   -8.2449 C   0  0  0  0  0  0  0  0  0  0  0  0
   60.6012   -6.0396   -9.5844 C   0  0  0  0  0  0  0  0  0  0  0  0
   61.9715   -6.7494  -10.2858 S   0  0  0  0  0  0  0  0  0  0  0  0
   62.8829   -7.0765   -8.8700 C   0  0  0  0  0  0  0  0  0  0  0  0
   59.4263   -5.5275  -10.2187 N   0  0  0  0  0  0  0  0  0  0  0  0
   58.1692   -5.5023   -9.7478 C   0  0  0  0  0  0  0  0  0  0  0  0
   57.3291   -4.9411  -10.6298 N   0  0  0  0  0  0  0  0  0  0  0  0
   58.0540   -4.5870  -11.7112 C   0  0  0  0  0  0  0  0  0  0  0  0
   57.7915   -3.9875  -12.9194 C   0  0  0  0  0  0  0  0  0  0  0  0
   58.7538   -3.7398  -13.8669 C   0  0  0  0  0  0  0  0  0  0  0  0
   60.0491   -4.1110  -13.5928 C   0  0  0  0  0  0  0  0  0  0  0  0
   60.3439   -4.7242  -12.3683 C   0  0  0  0  0  0  0  0  0  0  0  0
   59.3570   -4.9570  -11.4432 C   0  0  0  0  0  0  0  0  0  0  0  0
   58.4120   -3.0961  -15.1406 C   0  0  0  0  0  0  0  0  0  0  0  0
   59.2146   -2.2476  -15.8566 C   0  0  0  0  0  0  0  0  0  0  0  0
   58.7236   -1.7583  -17.0018 C   0  0  0  0  0  0  0  0  0  0  0  0
   57.4600   -2.1455  -17.3636 C   0  0  0  0  0  0  0  0  0  0  0  0
   57.0014   -3.1818  -16.0884 S   0  0  0  0  0  0  0  0  0  0  0  0
   64.2051   -7.6999   -8.7430 C   0  0  0  0  0  0  0  0  0  0  0  0
   64.3170   -9.0880   -8.9244 N   0  0  0  0  0  0  0  0  0  0  0  0
   65.1907   -7.0048   -8.4814 O   0  0  0  0  0  0  0  0  0  0  0  0
   64.8187   -9.5519   -9.7179 H   0  0  0  0  0  0  0  0  0  0  0  0
   63.8785   -9.7575   -8.2343 H   0  0  0  0  0  0  0  0  0  0  0  0
   62.5159   -6.7220   -6.5348 O   0  0  0  0  0  0  0  0  0  0  0  0
   61.4726   -8.8828   -6.5584 C   0  0  0  0  0  0  0  0  0  0  0  0
   62.5302   -7.9387   -5.8966 C   0  0  0  0  0  0  0  0  0  0  0  0
   62.4029   -7.9794   -4.4475 C   0  0  0  0  0  0  0  0  0  0  0  0
   61.1565   -8.3360   -3.9083 C   0  0  0  0  0  0  0  0  0  0  0  0
   60.9085   -8.4113   -2.5551 C   0  0  0  0  0  0  0  0  0  0  0  0
   61.9342   -8.1222   -1.6896 C   0  0  0  0  0  0  0  0  0  0  0  0
   63.1541   -7.7728   -2.2154 C   0  0  0  0  0  0  0  0  0  0  0  0
   63.4139   -7.6942   -3.5930 C   0  0  0  0  0  0  0  0  0  0  0  0
   64.7330   -7.3069   -4.0560 C   0  0  0  0  0  0  0  0  0  0  0  0
   65.6855   -7.1736   -3.0315 F   0  0  0  0  0  0  0  0  0  0  0  0
   64.6250   -5.9386   -4.4501 F   0  0  0  0  0  0  0  0  0  0  0  0
   65.2114   -7.8799   -5.1860 F   0  0  0  0  0  0  0  0  0  0  0  0
 26 27  1  0  0  0
 27 25  1  0  0  0
 25  1  1  0  0  0
  1  2  1  0  0  0
  2  3  2  0  0  0
  3  4  1  0  0  0
  4  5  1  0  0  0
  5 20  1  0  0  0
 20 21  1  0  0  0
 20 22  2  0  0  0
  3  6  1  0  0  0
  6  7  1  0  0  0
  7  8  2  0  0  0
  8  9  1  0  0  0
  9 10  2  0  0  0
 10 11  1  0  0  0
 11 12  2  0  0  0
 12 13  1  0  0  0
 13 14  2  0  0  0
 11 15  1  0  0  0
 15 16  2  0  0  0
 16 17  1  0  0  0
 17 18  2  0  0  0
 18 19  1  0  0  0
 27 28  1  0  0  0
 28 29  2  0  0  0
 29 30  1  0  0  0
 30 31  2  0  0  0
 31 32  1  0  0  0
 32 33  2  0  0  0
 33 34  1  0  0  0
 34 35  1  0  0  0
 34 36  1  0  0  0
 34 37  1  0  0  0
  5  1  2  0  0  0
 14  6  1  0  0  0
 19 15  1  0  0  0
 33 28  1  0  0  0
 14  9  1  0  0  0
 21 23  1  0  0  0
 21 24  1  0  0  0
M  END
> <minimizedAffinity>
-2.25282

> <CNNscore>
0.3237687945

> <CNNaffinity>
5.5839323997

> <CNN_VS>
1.8079030514

> <CNNaffinity_variance>
0.4248797297

$$$$
[H]c1sc(-c2c([H])c([H])c3c(nc([H])n3-c3sc(C(=O)N([H])[H])c(O[C@@]([H])(c4c([H])c([H])c([H])c([H])c4C(F)(F)F)C([H])([H])[H])c3[H])c2[H])c([H])c1[H]


 37 41  0  0  0  0  0  0  0  0999 V2000
   53.8424   -5.2712   -6.7352 C   0  0  0  0  0  0  0  0  0  0  0  0
   54.9402   -5.3633   -7.5043 C   0  0  0  0  0  0  0  0  0  0  0  0
   54.9317   -4.7035   -8.7045 C   0  0  0  0  0  0  0  0  0  0  0  0
   53.4017   -3.9744   -8.7332 S   0  0  0  0  0  0  0  0  0  0  0  0
   52.7958   -4.5169   -7.2230 C   0  0  0  0  0  0  0  0  0  0  0  0
   55.9732   -4.6532   -9.6832 N   0  0  0  0  0  0  0  0  0  0  0  0
   55.9137   -4.1827  -10.9392 C   0  0  0  0  0  0  0  0  0  0  0  0
   57.0961   -4.3019  -11.5611 N   0  0  0  0  0  0  0  0  0  0  0  0
   57.9574   -4.8665  -10.6896 C   0  0  0  0  0  0  0  0  0  0  0  0
   59.2789   -5.2417  -10.7144 C   0  0  0  0  0  0  0  0  0  0  0  0
   59.9237   -5.8146   -9.6462 C   0  0  0  0  0  0  0  0  0  0  0  0
   59.2098   -6.0242   -8.4899 C   0  0  0  0  0  0  0  0  0  0  0  0
   57.8606   -5.6508   -8.4380 C   0  0  0  0  0  0  0  0  0  0  0  0
   57.2469   -5.0802   -9.5251 C   0  0  0  0  0  0  0  0  0  0  0  0
   61.3384   -6.1952   -9.7331 C   0  0  0  0  0  0  0  0  0  0  0  0
   62.0186   -6.5160  -10.8781 C   0  0  0  0  0  0  0  0  0  0  0  0
   63.3118   -6.8388  -10.7540 C   0  0  0  0  0  0  0  0  0  0  0  0
   63.8487   -6.8220   -9.4934 C   0  0  0  0  0  0  0  0  0  0  0  0
   62.5250   -6.3548   -8.5240 S   0  0  0  0  0  0  0  0  0  0  0  0
   51.4954   -4.2515   -6.5974 C   0  0  0  0  0  0  0  0  0  0  0  0
   50.8907   -3.0006   -6.8018 N   0  0  0  0  0  0  0  0  0  0  0  0
   50.9555   -5.1209   -5.9076 O   0  0  0  0  0  0  0  0  0  0  0  0
   50.0083   -2.8408   -7.3424 H   0  0  0  0  0  0  0  0  0  0  0  0
   51.3209   -2.1234   -6.3991 H   0  0  0  0  0  0  0  0  0  0  0  0
   53.6754   -5.8832   -5.4700 O   0  0  0  0  0  0  0  0  0  0  0  0
   55.6110   -4.8121   -4.5405 C   0  0  0  0  0  0  0  0  0  0  0  0
   54.1325   -5.2761   -4.3253 C   0  0  0  0  0  0  0  0  0  0  0  0
   54.0049   -5.9740   -3.0547 C   0  0  0  0  0  0  0  0  0  0  0  0
   53.1510   -5.4223   -2.0863 C   0  0  0  0  0  0  0  0  0  0  0  0
   52.9444   -5.9868   -0.8464 C   0  0  0  0  0  0  0  0  0  0  0  0
   53.6088   -7.1492   -0.5432 C   0  0  0  0  0  0  0  0  0  0  0  0
   54.4448   -7.6902   -1.4893 C   0  0  0  0  0  0  0  0  0  0  0  0
   54.6599   -7.1205   -2.7545 C   0  0  0  0  0  0  0  0  0  0  0  0
   55.5698   -7.7592   -3.6864 C   0  0  0  0  0  0  0  0  0  0  0  0
   54.9358   -8.3680   -4.7828 F   0  0  0  0  0  0  0  0  0  0  0  0
   56.0557   -8.9268   -3.0233 F   0  0  0  0  0  0  0  0  0  0  0  0
   56.7234   -7.1215   -3.9975 F   0  0  0  0  0  0  0  0  0  0  0  0
 26 27  1  0  0  0
 27 25  1  0  0  0
 25  1  1  0  0  0
  1  2  1  0  0  0
  2  3  2  0  0  0
  3  4  1  0  0  0
  4  5  1  0  0  0
  5 20  1  0  0  0
 20 21  1  0  0  0
 20 22  2  0  0  0
  3  6  1  0  0  0
  6  7  1  0  0  0
  7  8  2  0  0  0
  8  9  1  0  0  0
  9 10  2  0  0  0
 10 11  1  0  0  0
 11 12  2  0  0  0
 12 13  1  0  0  0
 13 14  2  0  0  0
 11 15  1  0  0  0
 15 16  2  0  0  0
 16 17  1  0  0  0
 17 18  2  0  0  0
 18 19  1  0  0  0
 27 28  1  0  0  0
 28 29  2  0  0  0
 29 30  1  0  0  0
 30 31  2  0  0  0
 31 32  1  0  0  0
 32 33  2  0  0  0
 33 34  1  0  0  0
 34 35  1  0  0  0
 34 36  1  0  0  0
 34 37  1  0  0  0
  5  1  2  0  0  0
 14  6  1  0  0  0
 19 15  1  0  0  0
 33 28  1  0  0  0
 14  9  1  0  0  0
 21 23  1  0  0  0
 21 24  1  0  0  0
M  END
> <minimizedAffinity>
-7.69598

> <CNNscore>
0.2812095582

> <CNNaffinity>
7.0796308517

> <CNN_VS>
1.9908598661

> <CNNaffinity_variance>
0.4965187013

$$$$
[H]c1sc(-c2c([H])c([H])c3c(nc([H])n3-c3sc(C(=O)N([H])[H])c(O[C@@]([H])(c4c([H])c([H])c([H])c([H])c4C(F)(F)F)C([H])([H])[H])c3[H])c2[H])c([H])c1[H]


 37 41  0  0  0  0  0  0  0  0999 V2000
   53.5079   -4.4903   -7.2669 C   0  0  0  0  0  0  0  0  0  0  0  0
   54.7316   -4.7603   -7.7517 C   0  0  0  0  0  0  0  0  0  0  0  0
   55.0288   -4.3115   -9.0111 C   0  0  0  0  0  0  0  0  0  0  0  0
   53.6032   -3.5281   -9.4880 S   0  0  0  0  0  0  0  0  0  0  0  0
   52.6519   -3.7812   -8.0834 C   0  0  0  0  0  0  0  0  0  0  0  0
   56.2530   -4.4739   -9.7320 N   0  0  0  0  0  0  0  0  0  0  0  0
   57.4321   -4.9294   -9.2794 C   0  0  0  0  0  0  0  0  0  0  0  0
   58.3562   -4.9406  -10.2513 N   0  0  0  0  0  0  0  0  0  0  0  0
   57.7685   -4.4797  -11.3748 C   0  0  0  0  0  0  0  0  0  0  0  0
   58.1633   -4.2547  -12.6715 C   0  0  0  0  0  0  0  0  0  0  0  0
   57.3275   -3.7621  -13.6431 C   0  0  0  0  0  0  0  0  0  0  0  0
   56.0262   -3.4789  -13.3010 C   0  0  0  0  0  0  0  0  0  0  0  0
   55.5978   -3.6992  -11.9856 C   0  0  0  0  0  0  0  0  0  0  0  0
   56.4603   -4.1929  -11.0389 C   0  0  0  0  0  0  0  0  0  0  0  0
   57.8076   -3.5420  -15.0123 C   0  0  0  0  0  0  0  0  0  0  0  0
   59.0557   -3.1038  -15.3688 C   0  0  0  0  0  0  0  0  0  0  0  0
   59.3068   -2.9635  -16.6762 C   0  0  0  0  0  0  0  0  0  0  0  0
   58.2963   -3.2691  -17.5497 C   0  0  0  0  0  0  0  0  0  0  0  0
   57.0282   -3.7427  -16.5115 S   0  0  0  0  0  0  0  0  0  0  0  0
   51.2750   -3.3553   -7.8082 C   0  0  0  0  0  0  0  0  0  0  0  0
   50.9679   -1.9861   -7.8644 N   0  0  0  0  0  0  0  0  0  0  0  0
   50.4139   -4.1959   -7.5340 O   0  0  0  0  0  0  0  0  0  0  0  0
   50.3452   -1.5386   -8.5775 H   0  0  0  0  0  0  0  0  0  0  0  0
   51.3716   -1.3150   -7.1549 H   0  0  0  0  0  0  0  0  0  0  0  0
   53.0300   -4.8730   -5.9909 O   0  0  0  0  0  0  0  0  0  0  0  0
   54.0918   -6.9966   -5.6436 C   0  0  0  0  0  0  0  0  0  0  0  0
   53.8365   -5.5492   -5.1076 C   0  0  0  0  0  0  0  0  0  0  0  0
   53.4655   -5.5924   -3.7011 C   0  0  0  0  0  0  0  0  0  0  0  0
   54.4957   -5.7103   -2.7544 C   0  0  0  0  0  0  0  0  0  0  0  0
   54.2753   -5.7611   -1.3952 C   0  0  0  0  0  0  0  0  0  0  0  0
   52.9805   -5.6931   -0.9442 C   0  0  0  0  0  0  0  0  0  0  0  0
   51.9714   -5.5780   -1.8690 C   0  0  0  0  0  0  0  0  0  0  0  0
   52.1887   -5.5256   -3.2552 C   0  0  0  0  0  0  0  0  0  0  0  0
   51.0583   -5.4128   -4.1574 C   0  0  0  0  0  0  0  0  0  0  0  0
   49.8172   -5.6951   -3.5618 F   0  0  0  0  0  0  0  0  0  0  0  0
   51.1491   -6.5299   -5.0424 F   0  0  0  0  0  0  0  0  0  0  0  0
   51.0320   -4.3758   -5.0281 F   0  0  0  0  0  0  0  0  0  0  0  0
 26 27  1  0  0  0
 27 25  1  0  0  0
 25  1  1  0  0  0
  1  2  1  0  0  0
  2  3  2  0  0  0
  3  4  1  0  0  0
  4  5  1  0  0  0
  5 20  1  0  0  0
 20 21  1  0  0  0
 20 22  2  0  0  0
  3  6  1  0  0  0
  6  7  1  0  0  0
  7  8  2  0  0  0
  8  9  1  0  0  0
  9 10  2  0  0  0
 10 11  1  0  0  0
 11 12  2  0  0  0
 12 13  1  0  0  0
 13 14  2  0  0  0
 11 15  1  0  0  0
 15 16  2  0  0  0
 16 17  1  0  0  0
 17 18  2  0  0  0
 18 19  1  0  0  0
 27 28  1  0  0  0
 28 29  2  0  0  0
 29 30  1  0  0  0
 30 31  2  0  0  0
 31 32  1  0  0  0
 32 33  2  0  0  0
 33 34  1  0  0  0
 34 35  1  0  0  0
 34 36  1  0  0  0
 34 37  1  0  0  0
  5  1  2  0  0  0
 14  6  1  0  0  0
 19 15  1  0  0  0
 33 28  1  0  0  0
 14  9  1  0  0  0
 21 23  1  0  0  0
 21 24  1  0  0  0
M  END
> <minimizedAffinity>
-8.61930

> <CNNscore>
0.2798489928

> <CNNaffinity>
7.1076865196

> <CNN_VS>
1.9890788794

> <CNNaffinity_variance>
0.1610117108

$$$$
[H]c1nc(N([H])c2c([H])c([H])c([H])c([H])c2SC([H])([H])[H])nc2c1C([H])([H])C([H])([H])c1c(C(=O)N([H])[H])nn(C([H])([H])[H])c1-2


 29 32  0  0  0  0  0  0  0  0999 V2000
   53.4762   -3.4120   -9.2178 C   0  0  0  0  0  0  0  0  0  0  0  0
   52.5490   -2.4993   -9.4628 N   0  0  0  0  0  0  0  0  0  0  0  0
   51.4681   -2.2560   -8.7005 C   0  0  0  0  0  0  0  0  0  0  0  0
   51.2619   -2.9981   -7.5482 C   0  0  0  0  0  0  0  0  0  0  0  0
   50.0713   -2.6997   -6.7474 C   0  0  0  0  0  0  0  0  0  0  0  0
   49.8933   -3.5162   -5.5276 C   0  0  0  0  0  0  0  0  0  0  0  0
   50.9354   -4.5199   -5.2806 C   0  0  0  0  0  0  0  0  0  0  0  0
   51.0405   -5.4180   -4.2381 C   0  0  0  0  0  0  0  0  0  0  0  0
   52.1645   -6.1213   -4.4561 N   0  0  0  0  0  0  0  0  0  0  0  0
   52.7726   -5.7416   -5.5446 N   0  0  0  0  0  0  0  0  0  0  0  0
   53.9962   -6.2489   -6.1117 C   0  0  0  0  0  0  0  0  0  0  0  0
   52.0281   -4.7479   -6.0742 C   0  0  0  0  0  0  0  0  0  0  0  0
   52.2086   -3.9507   -7.2715 C   0  0  0  0  0  0  0  0  0  0  0  0
   53.2621   -4.1440   -8.0704 N   0  0  0  0  0  0  0  0  0  0  0  0
   50.1155   -5.5705   -3.1251 C   0  0  0  0  0  0  0  0  0  0  0  0
   50.4686   -6.2362   -1.9243 N   0  0  0  0  0  0  0  0  0  0  0  0
   48.9651   -5.0985   -3.2263 O   0  0  0  0  0  0  0  0  0  0  0  0
   50.7855   -5.6416   -1.1239 H   0  0  0  0  0  0  0  0  0  0  0  0
   50.4171   -7.2905   -1.8312 H   0  0  0  0  0  0  0  0  0  0  0  0
   54.6267   -3.6948   -9.9988 N   0  0  0  0  0  0  0  0  0  0  0  0
   54.5430   -3.4441  -11.0520 H   0  0  0  0  0  0  0  0  0  0  0  0
   56.7538   -4.5650  -10.6373 C   0  0  0  0  0  0  0  0  0  0  0  0
   57.9793   -5.1130  -10.3345 C   0  0  0  0  0  0  0  0  0  0  0  0
   58.3084   -5.3463   -9.0187 C   0  0  0  0  0  0  0  0  0  0  0  0
   57.4521   -5.0502   -7.9867 C   0  0  0  0  0  0  0  0  0  0  0  0
   56.2045   -4.4922   -8.2944 C   0  0  0  0  0  0  0  0  0  0  0  0
   55.8457   -4.2458   -9.6135 C   0  0  0  0  0  0  0  0  0  0  0  0
   57.7813   -3.7549  -13.3061 C   0  0  0  0  0  0  0  0  0  0  0  0
   56.3469   -4.2722  -12.3256 S   0  0  0  0  0  0  0  0  0  0  0  0
 28 29  1  0  0  0
 29 22  1  0  0  0
 22 23  2  0  0  0
 23 24  1  0  0  0
 24 25  2  0  0  0
 25 26  1  0  0  0
 26 27  2  0  0  0
 27 20  1  0  0  0
 20  1  1  0  0  0
  1  2  2  0  0  0
  2  3  1  0  0  0
  3  4  2  0  0  0
  4  5  1  0  0  0
  5  6  1  0  0  0
  6  7  1  0  0  0
  7  8  1  0  0  0
  8  9  2  0  0  0
  9 10  1  0  0  0
 10 11  1  0  0  0
 10 12  1  0  0  0
 12 13  1  0  0  0
 13 14  2  0  0  0
  8 15  1  0  0  0
 15 16  1  0  0  0
 15 17  2  0  0  0
 27 22  1  0  0  0
 14  1  1  0  0  0
 13  4  1  0  0  0
 12  7  2  0  0  0
 20 21  1  0  0  0
 16 18  1  0  0  0
 16 19  1  0  0  0
M  END
> <minimizedAffinity>
-10.75297

> <CNNscore>
0.9771382809

> <CNNaffinity>
7.6191277504

> <CNN_VS>
7.4449415207

> <CNNaffinity_variance>
0.0177153256

$$$$
[H]c1nc(N([H])c2c([H])c([H])c([H])c([H])c2SC([H])([H])[H])nc2c1C([H])([H])C([H])([H])c1c(C(=O)N([H])[H])nn(C([H])([H])[H])c1-2


 29 32  0  0  0  0  0  0  0  0999 V2000
   53.8825   -3.5137   -9.3989 C   0  0  0  0  0  0  0  0  0  0  0  0
   52.9378   -2.6049   -9.5840 N   0  0  0  0  0  0  0  0  0  0  0  0
   51.8631   -2.4202   -8.7968 C   0  0  0  0  0  0  0  0  0  0  0  0
   51.6838   -3.2254   -7.6830 C   0  0  0  0  0  0  0  0  0  0  0  0
   50.4990   -2.9894   -6.8532 C   0  0  0  0  0  0  0  0  0  0  0  0
   50.3499   -3.8720   -5.6763 C   0  0  0  0  0  0  0  0  0  0  0  0
   51.4110   -4.8698   -5.4954 C   0  0  0  0  0  0  0  0  0  0  0  0
   51.5439   -5.8198   -4.5033 C   0  0  0  0  0  0  0  0  0  0  0  0
   52.6761   -6.4919   -4.7719 N   0  0  0  0  0  0  0  0  0  0  0  0
   53.2639   -6.0452   -5.8459 N   0  0  0  0  0  0  0  0  0  0  0  0
   54.4880   -6.5015   -6.4539 C   0  0  0  0  0  0  0  0  0  0  0  0
   52.4968   -5.0375   -6.3131 C   0  0  0  0  0  0  0  0  0  0  0  0
   52.6490   -4.1753   -7.4687 C   0  0  0  0  0  0  0  0  0  0  0  0
   53.6950   -4.3088   -8.2894 N   0  0  0  0  0  0  0  0  0  0  0  0
   50.6361   -6.0461   -3.3888 C   0  0  0  0  0  0  0  0  0  0  0  0
   50.9647   -6.8851   -2.2942 N   0  0  0  0  0  0  0  0  0  0  0  0
   49.5233   -5.4820   -3.3916 O   0  0  0  0  0  0  0  0  0  0  0  0
   51.3448   -6.4233   -1.4358 H   0  0  0  0  0  0  0  0  0  0  0  0
   50.8344   -7.9359   -2.3338 H   0  0  0  0  0  0  0  0  0  0  0  0
   55.0271   -3.7358  -10.2076 N   0  0  0  0  0  0  0  0  0  0  0  0
   54.9567   -3.3551  -11.2222 H   0  0  0  0  0  0  0  0  0  0  0  0
   56.6991   -4.2210   -8.5770 C   0  0  0  0  0  0  0  0  0  0  0  0
   57.8771   -4.8178   -8.1900 C   0  0  0  0  0  0  0  0  0  0  0  0
   58.5889   -5.5622   -9.1028 C   0  0  0  0  0  0  0  0  0  0  0  0
   58.1642   -5.7336  -10.3975 C   0  0  0  0  0  0  0  0  0  0  0  0
   56.9650   -5.1263  -10.7920 C   0  0  0  0  0  0  0  0  0  0  0  0
   56.2258   -4.3693   -9.8919 C   0  0  0  0  0  0  0  0  0  0  0  0
   56.2541   -3.6736   -5.6897 C   0  0  0  0  0  0  0  0  0  0  0  0
   55.7993   -3.2714   -7.3979 S   0  0  0  0  0  0  0  0  0  0  0  0
 28 29  1  0  0  0
 29 22  1  0  0  0
 22 23  2  0  0  0
 23 24  1  0  0  0
 24 25  2  0  0  0
 25 26  1  0  0  0
 26 27  2  0  0  0
 27 20  1  0  0  0
 20  1  1  0  0  0
  1  2  2  0  0  0
  2  3  1  0  0  0
  3  4  2  0  0  0
  4  5  1  0  0  0
  5  6  1  0  0  0
  6  7  1  0  0  0
  7  8  1  0  0  0
  8  9  2  0  0  0
  9 10  1  0  0  0
 10 11  1  0  0  0
 10 12  1  0  0  0
 12 13  1  0  0  0
 13 14  2  0  0  0
  8 15  1  0  0  0
 15 16  1  0  0  0
 15 17  2  0  0  0
 27 22  1  0  0  0
 14  1  1  0  0  0
 13  4  1  0  0  0
 12  7  2  0  0  0
 20 21  1  0  0  0
 16 18  1  0  0  0
 16 19  1  0  0  0
M  END
> <minimizedAffinity>
-8.77036

> <CNNscore>
0.8608500361

> <CNNaffinity>
7.2766561508

> <CNN_VS>
6.2641096115

> <CNNaffinity_variance>
0.1210740358

$$$$
[H]c1nc(N([H])c2c([H])c([H])c([H])c([H])c2SC([H])([H])[H])nc2c1C([H])([H])C([H])([H])c1c(C(=O)N([H])[H])nn(C([H])([H])[H])c1-2


 29 32  0  0  0  0  0  0  0  0999 V2000
   54.4458   -4.2252   -8.9470 C   0  0  0  0  0  0  0  0  0  0  0  0
   53.7412   -3.2691   -9.5321 N   0  0  0  0  0  0  0  0  0  0  0  0
   52.5667   -2.7818   -9.0944 C   0  0  0  0  0  0  0  0  0  0  0  0
   52.0033   -3.2914   -7.9351 C   0  0  0  0  0  0  0  0  0  0  0  0
   50.7226   -2.7313   -7.4945 C   0  0  0  0  0  0  0  0  0  0  0  0
   50.1606   -3.3056   -6.2534 C   0  0  0  0  0  0  0  0  0  0  0  0
   50.9621   -4.3632   -5.6261 C   0  0  0  0  0  0  0  0  0  0  0  0
   50.7000   -5.0789   -4.4757 C   0  0  0  0  0  0  0  0  0  0  0  0
   51.7277   -5.9298   -4.3167 N   0  0  0  0  0  0  0  0  0  0  0  0
   52.6107   -5.8092   -5.2677 N   0  0  0  0  0  0  0  0  0  0  0  0
   53.8406   -6.5382   -5.4471 C   0  0  0  0  0  0  0  0  0  0  0  0
   52.1571   -4.8422   -6.0931 C   0  0  0  0  0  0  0  0  0  0  0  0
   52.7139   -4.2833   -7.3095 C   0  0  0  0  0  0  0  0  0  0  0  0
   53.8774   -4.7249   -7.7958 N   0  0  0  0  0  0  0  0  0  0  0  0
   49.5397   -4.9374   -3.6089 C   0  0  0  0  0  0  0  0  0  0  0  0
   48.4379   -4.1076   -3.9369 N   0  0  0  0  0  0  0  0  0  0  0  0
   49.5080   -5.5692   -2.5336 O   0  0  0  0  0  0  0  0  0  0  0  0
   47.6109   -4.5665   -4.3841 H   0  0  0  0  0  0  0  0  0  0  0  0
   48.4420   -3.0662   -3.7413 H   0  0  0  0  0  0  0  0  0  0  0  0
   55.6857   -4.7621   -9.3805 N   0  0  0  0  0  0  0  0  0  0  0  0
   56.1323   -5.4917   -8.7115 H   0  0  0  0  0  0  0  0  0  0  0  0
   57.7888   -4.7764  -10.5060 C   0  0  0  0  0  0  0  0  0  0  0  0
   58.5737   -4.5357  -11.6104 C   0  0  0  0  0  0  0  0  0  0  0  0
   57.9992   -4.0125  -12.7463 C   0  0  0  0  0  0  0  0  0  0  0  0
   56.6597   -3.7188  -12.8202 C   0  0  0  0  0  0  0  0  0  0  0  0
   55.8602   -3.9638  -11.6962 C   0  0  0  0  0  0  0  0  0  0  0  0
   56.4131   -4.4913  -10.5362 C   0  0  0  0  0  0  0  0  0  0  0  0
   60.1706   -6.1614   -9.3911 C   0  0  0  0  0  0  0  0  0  0  0  0
   58.5381   -5.4462   -9.0597 S   0  0  0  0  0  0  0  0  0  0  0  0
 28 29  1  0  0  0
 29 22  1  0  0  0
 22 23  2  0  0  0
 23 24  1  0  0  0
 24 25  2  0  0  0
 25 26  1  0  0  0
 26 27  2  0  0  0
 27 20  1  0  0  0
 20  1  1  0  0  0
  1  2  2  0  0  0
  2  3  1  0  0  0
  3  4  2  0  0  0
  4  5  1  0  0  0
  5  6  1  0  0  0
  6  7  1  0  0  0
  7  8  1  0  0  0
  8  9  2  0  0  0
  9 10  1  0  0  0
 10 11  1  0  0  0
 10 12  1  0  0  0
 12 13  1  0  0  0
 13 14  2  0  0  0
  8 15  1  0  0  0
 15 16  1  0  0  0
 15 17  2  0  0  0
 27 22  1  0  0  0
 14  1  1  0  0  0
 13  4  1  0  0  0
 12  7  2  0  0  0
 20 21  1  0  0  0
 16 18  1  0  0  0
 16 19  1  0  0  0
M  END
> <minimizedAffinity>
-9.87287

> <CNNscore>
0.7577244043

> <CNNaffinity>
7.1793594360

> <CNN_VS>
5.4399757385

> <CNNaffinity_variance>
0.0822042376

$$$$
[H]c1nc(N([H])c2c([H])c([H])c([H])c([H])c2SC([H])([H])[H])nc2c1C([H])([H])C([H])([H])c1c(C(=O)N([H])[H])nn(C([H])([H])[H])c1-2


 29 32  0  0  0  0  0  0  0  0999 V2000
   53.8258   -4.5452   -8.3838 C   0  0  0  0  0  0  0  0  0  0  0  0
   54.0586   -5.7095   -7.7982 N   0  0  0  0  0  0  0  0  0  0  0  0
   53.3195   -6.2539   -6.8153 C   0  0  0  0  0  0  0  0  0  0  0  0
   52.2077   -5.5767   -6.3395 C   0  0  0  0  0  0  0  0  0  0  0  0
   51.4311   -6.2065   -5.2680 C   0  0  0  0  0  0  0  0  0  0  0  0
   50.2544   -5.4477   -4.7929 C   0  0  0  0  0  0  0  0  0  0  0  0
   50.0202   -4.1610   -5.4592 C   0  0  0  0  0  0  0  0  0  0  0  0
   49.0155   -3.2420   -5.2350 C   0  0  0  0  0  0  0  0  0  0  0  0
   49.2300   -2.2298   -6.0924 N   0  0  0  0  0  0  0  0  0  0  0  0
   50.2817   -2.4352   -6.8342 N   0  0  0  0  0  0  0  0  0  0  0  0
   50.8331   -1.5892   -7.8620 C   0  0  0  0  0  0  0  0  0  0  0  0
   50.7895   -3.6284   -6.4593 C   0  0  0  0  0  0  0  0  0  0  0  0
   51.9446   -4.3674   -6.9299 C   0  0  0  0  0  0  0  0  0  0  0  0
   52.7188   -3.8802   -7.9038 N   0  0  0  0  0  0  0  0  0  0  0  0
   47.9389   -3.3506   -4.2620 C   0  0  0  0  0  0  0  0  0  0  0  0
   47.8033   -4.4632   -3.3939 N   0  0  0  0  0  0  0  0  0  0  0  0
   47.0993   -2.4310   -4.1845 O   0  0  0  0  0  0  0  0  0  0  0  0
   48.1949   -4.3663   -2.4286 H   0  0  0  0  0  0  0  0  0  0  0  0
   47.3272   -5.3590   -3.7000 H   0  0  0  0  0  0  0  0  0  0  0  0
   54.5832   -3.9421   -9.4212 N   0  0  0  0  0  0  0  0  0  0  0  0
   54.1367   -3.0571   -9.8646 H   0  0  0  0  0  0  0  0  0  0  0  0
   56.7878   -4.7735   -9.0492 C   0  0  0  0  0  0  0  0  0  0  0  0
   58.0282   -5.1627   -9.5005 C   0  0  0  0  0  0  0  0  0  0  0  0
   58.3069   -5.1017  -10.8468 C   0  0  0  0  0  0  0  0  0  0  0  0
   57.3854   -4.6631  -11.7657 C   0  0  0  0  0  0  0  0  0  0  0  0
   56.1225   -4.2669  -11.3068 C   0  0  0  0  0  0  0  0  0  0  0  0
   55.8135   -4.3179   -9.9535 C   0  0  0  0  0  0  0  0  0  0  0  0
   56.4734   -3.2273   -6.5304 C   0  0  0  0  0  0  0  0  0  0  0  0
   56.4458   -4.8572   -7.3236 S   0  0  0  0  0  0  0  0  0  0  0  0
 28 29  1  0  0  0
 29 22  1  0  0  0
 22 23  2  0  0  0
 23 24  1  0  0  0
 24 25  2  0  0  0
 25 26  1  0  0  0
 26 27  2  0  0  0
 27 20  1  0  0  0
 20  1  1  0  0  0
  1  2  2  0  0  0
  2  3  1  0  0  0
  3  4  2  0  0  0
  4  5  1  0  0  0
  5  6  1  0  0  0
  6  7  1  0  0  0
  7  8  1  0  0  0
  8  9  2  0  0  0
  9 10  1  0  0  0
 10 11  1  0  0  0
 10 12  1  0  0  0
 12 13  1  0  0  0
 13 14  2  0  0  0
  8 15  1  0  0  0
 15 16  1  0  0  0
 15 17  2  0  0  0
 27 22  1  0  0  0
 14  1  1  0  0  0
 13  4  1  0  0  0
 12  7  2  0  0  0
 20 21  1  0  0  0
 16 18  1  0  0  0
 16 19  1  0  0  0
M  END
> <minimizedAffinity>
-8.72556

> <CNNscore>
0.7453412414

> <CNNaffinity>
7.3946557045

> <CNN_VS>
5.5115418434

> <CNNaffinity_variance>
0.1665496677

$$$$
[H]c1nc(N([H])c2c([H])c([H])c([H])c([H])c2SC([H])([H])[H])nc2c1C([H])([H])C([H])([H])c1c(C(=O)N([H])[H])nn(C([H])([H])[H])c1-2


 29 32  0  0  0  0  0  0  0  0999 V2000
   53.1769   -4.5583   -7.4250 C   0  0  0  0  0  0  0  0  0  0  0  0
   52.9041   -3.5854   -8.2804 N   0  0  0  0  0  0  0  0  0  0  0  0
   51.8104   -2.8031   -8.2547 C   0  0  0  0  0  0  0  0  0  0  0  0
   50.8567   -2.9920   -7.2669 C   0  0  0  0  0  0  0  0  0  0  0  0
   49.6808   -2.1172   -7.2765 C   0  0  0  0  0  0  0  0  0  0  0  0
   48.6911   -2.3555   -6.2042 C   0  0  0  0  0  0  0  0  0  0  0  0
   49.0187   -3.4395   -5.2704 C   0  0  0  0  0  0  0  0  0  0  0  0
   48.2987   -3.8905   -4.1830 C   0  0  0  0  0  0  0  0  0  0  0  0
   49.0105   -4.8972   -3.6486 N   0  0  0  0  0  0  0  0  0  0  0  0
   50.1139   -5.1157   -4.3070 N   0  0  0  0  0  0  0  0  0  0  0  0
   51.1328   -6.1009   -4.0473 C   0  0  0  0  0  0  0  0  0  0  0  0
   50.1412   -4.2227   -5.3188 C   0  0  0  0  0  0  0  0  0  0  0  0
   51.1157   -3.9942   -6.3677 C   0  0  0  0  0  0  0  0  0  0  0  0
   52.2229   -4.7379   -6.4473 N   0  0  0  0  0  0  0  0  0  0  0  0
   47.0220   -3.3756   -3.7113 C   0  0  0  0  0  0  0  0  0  0  0  0
   46.0597   -4.1934   -3.0668 N   0  0  0  0  0  0  0  0  0  0  0  0
   46.7587   -2.1675   -3.8779 O   0  0  0  0  0  0  0  0  0  0  0  0
   46.0516   -4.1872   -2.0206 H   0  0  0  0  0  0  0  0  0  0  0  0
   45.3737   -4.7887   -3.6123 H   0  0  0  0  0  0  0  0  0  0  0  0
   54.3184   -5.4012   -7.4227 N   0  0  0  0  0  0  0  0  0  0  0  0
   54.1988   -6.3394   -6.8890 H   0  0  0  0  0  0  0  0  0  0  0  0
   56.6907   -5.5761   -7.2459 C   0  0  0  0  0  0  0  0  0  0  0  0
   57.9591   -5.4099   -7.7531 C   0  0  0  0  0  0  0  0  0  0  0  0
   58.1188   -4.8739   -9.0106 C   0  0  0  0  0  0  0  0  0  0  0  0
   57.0504   -4.4950   -9.7857 C   0  0  0  0  0  0  0  0  0  0  0  0
   55.7589   -4.6640   -9.2698 C   0  0  0  0  0  0  0  0  0  0  0  0
   55.5678   -5.2025   -8.0037 C   0  0  0  0  0  0  0  0  0  0  0  0
   55.9610   -5.0360   -4.4156 C   0  0  0  0  0  0  0  0  0  0  0  0
   56.5021   -6.2632   -5.6353 S   0  0  0  0  0  0  0  0  0  0  0  0
 28 29  1  0  0  0
 29 22  1  0  0  0
 22 23  2  0  0  0
 23 24  1  0  0  0
 24 25  2  0  0  0
 25 26  1  0  0  0
 26 27  2  0  0  0
 27 20  1  0  0  0
 20  1  1  0  0  0
  1  2  2  0  0  0
  2  3  1  0  0  0
  3  4  2  0  0  0
  4  5  1  0  0  0
  5  6  1  0  0  0
  6  7  1  0  0  0
  7  8  1  0  0  0
  8  9  2  0  0  0
  9 10  1  0  0  0
 10 11  1  0  0  0
 10 12  1  0  0  0
 12 13  1  0  0  0
 13 14  2  0  0  0
  8 15  1  0  0  0
 15 16  1  0  0  0
 15 17  2  0  0  0
 27 22  1  0  0  0
 14  1  1  0  0  0
 13  4  1  0  0  0
 12  7  2  0  0  0
 20 21  1  0  0  0
 16 18  1  0  0  0
 16 19  1  0  0  0
M  END
> <minimizedAffinity>
-8.68560

> <CNNscore>
0.7077741027

> <CNNaffinity>
7.3786749840

> <CNN_VS>
5.2224349976

> <CNNaffinity_variance>
0.2139079273

$$$$
[H]c1nc(N([H])c2c([H])c([H])c([H])c([H])c2SC([H])([H])[H])nc2c1C([H])([H])C([H])([H])c1c(C(=O)N([H])[H])nn(C([H])([H])[H])c1-2


 29 32  0  0  0  0  0  0  0  0999 V2000
   54.5073   -4.9457   -7.8667 C   0  0  0  0  0  0  0  0  0  0  0  0
   54.7372   -5.9528   -7.0386 N   0  0  0  0  0  0  0  0  0  0  0  0
   53.9396   -6.3307   -6.0238 C   0  0  0  0  0  0  0  0  0  0  0  0
   52.7637   -5.6378   -5.7828 C   0  0  0  0  0  0  0  0  0  0  0  0
   51.9247   -6.0836   -4.6668 C   0  0  0  0  0  0  0  0  0  0  0  0
   50.6807   -5.3149   -4.4481 C   0  0  0  0  0  0  0  0  0  0  0  0
   50.4512   -4.2044   -5.3801 C   0  0  0  0  0  0  0  0  0  0  0  0
   49.3934   -3.3194   -5.4261 C   0  0  0  0  0  0  0  0  0  0  0  0
   49.6384   -2.4896   -6.4542 N   0  0  0  0  0  0  0  0  0  0  0  0
   50.7577   -2.7782   -7.0562 N   0  0  0  0  0  0  0  0  0  0  0  0
   51.3598   -2.1254   -8.1909 C   0  0  0  0  0  0  0  0  0  0  0  0
   51.2808   -3.8398   -6.4070 C   0  0  0  0  0  0  0  0  0  0  0  0
   52.5020   -4.5895   -6.6270 C   0  0  0  0  0  0  0  0  0  0  0  0
   53.3362   -4.2637   -7.6186 N   0  0  0  0  0  0  0  0  0  0  0  0
   48.2425   -3.2929   -4.5360 C   0  0  0  0  0  0  0  0  0  0  0  0
   47.9288   -4.3633   -3.6609 N   0  0  0  0  0  0  0  0  0  0  0  0
   47.4991   -2.2909   -4.5390 O   0  0  0  0  0  0  0  0  0  0  0  0
   48.2561   -4.2821   -2.6705 H   0  0  0  0  0  0  0  0  0  0  0  0
   47.3865   -5.2135   -3.9863 H   0  0  0  0  0  0  0  0  0  0  0  0
   55.3253   -4.5204   -8.9453 N   0  0  0  0  0  0  0  0  0  0  0  0
   54.8467   -3.8477   -9.6507 H   0  0  0  0  0  0  0  0  0  0  0  0
   57.0694   -4.6854  -10.5642 C   0  0  0  0  0  0  0  0  0  0  0  0
   58.3645   -4.9800  -10.9243 C   0  0  0  0  0  0  0  0  0  0  0  0
   59.2468   -5.4264   -9.9671 C   0  0  0  0  0  0  0  0  0  0  0  0
   58.8804   -5.5907   -8.6538 C   0  0  0  0  0  0  0  0  0  0  0  0
   57.5621   -5.2909   -8.2867 C   0  0  0  0  0  0  0  0  0  0  0  0
   56.6500   -4.8385   -9.2317 C   0  0  0  0  0  0  0  0  0  0  0  0
   56.7508   -3.9002  -13.4131 C   0  0  0  0  0  0  0  0  0  0  0  0
   55.9518   -4.1151  -11.8001 S   0  0  0  0  0  0  0  0  0  0  0  0
 28 29  1  0  0  0
 29 22  1  0  0  0
 22 23  2  0  0  0
 23 24  1  0  0  0
 24 25  2  0  0  0
 25 26  1  0  0  0
 26 27  2  0  0  0
 27 20  1  0  0  0
 20  1  1  0  0  0
  1  2  2  0  0  0
  2  3  1  0  0  0
  3  4  2  0  0  0
  4  5  1  0  0  0
  5  6  1  0  0  0
  6  7  1  0  0  0
  7  8  1  0  0  0
  8  9  2  0  0  0
  9 10  1  0  0  0
 10 11  1  0  0  0
 10 12  1  0  0  0
 12 13  1  0  0  0
 13 14  2  0  0  0
  8 15  1  0  0  0
 15 16  1  0  0  0
 15 17  2  0  0  0
 27 22  1  0  0  0
 14  1  1  0  0  0
 13  4  1  0  0  0
 12  7  2  0  0  0
 20 21  1  0  0  0
 16 18  1  0  0  0
 16 19  1  0  0  0
M  END
> <minimizedAffinity>
-9.03084

> <CNNscore>
0.6328769326

> <CNNaffinity>
7.2252950668

> <CNN_VS>
4.5727224350

> <CNNaffinity_variance>
0.1497166455

$$$$
[H]c1nc(N([H])c2c([H])c([H])c([H])c([H])c2SC([H])([H])[H])nc2c1C([H])([H])C([H])([H])c1c(C(=O)N([H])[H])nn(C([H])([H])[H])c1-2


 29 32  0  0  0  0  0  0  0  0999 V2000
   56.1608   -5.6698   -7.1730 C   0  0  0  0  0  0  0  0  0  0  0  0
   55.9480   -6.5225   -6.1829 N   0  0  0  0  0  0  0  0  0  0  0  0
   54.8006   -6.6523   -5.4934 C   0  0  0  0  0  0  0  0  0  0  0  0
   53.7177   -5.8467   -5.8085 C   0  0  0  0  0  0  0  0  0  0  0  0
   52.4872   -6.0217   -5.0318 C   0  0  0  0  0  0  0  0  0  0  0  0
   51.3592   -5.1410   -5.4036 C   0  0  0  0  0  0  0  0  0  0  0  0
   51.6228   -4.2059   -6.5039 C   0  0  0  0  0  0  0  0  0  0  0  0
   50.7761   -3.2724   -7.0661 C   0  0  0  0  0  0  0  0  0  0  0  0
   51.4761   -2.6632   -8.0380 N   0  0  0  0  0  0  0  0  0  0  0  0
   52.6876   -3.1342   -8.1333 N   0  0  0  0  0  0  0  0  0  0  0  0
   53.7326   -2.7431   -9.0450 C   0  0  0  0  0  0  0  0  0  0  0  0
   52.8023   -4.0935   -7.1906 C   0  0  0  0  0  0  0  0  0  0  0  0
   53.9122   -4.9542   -6.8312 C   0  0  0  0  0  0  0  0  0  0  0  0
   55.0785   -4.8738   -7.4783 N   0  0  0  0  0  0  0  0  0  0  0  0
   49.3990   -3.0036   -6.6805 C   0  0  0  0  0  0  0  0  0  0  0  0
   49.0027   -2.8370   -5.3295 N   0  0  0  0  0  0  0  0  0  0  0  0
   48.5285   -2.9153   -7.5699 O   0  0  0  0  0  0  0  0  0  0  0  0
   48.9260   -1.8569   -4.9717 H   0  0  0  0  0  0  0  0  0  0  0  0
   48.7909   -3.6633   -4.7009 H   0  0  0  0  0  0  0  0  0  0  0  0
   57.3559   -5.5065   -7.9202 N   0  0  0  0  0  0  0  0  0  0  0  0
   58.2728   -5.7115   -7.3757 H   0  0  0  0  0  0  0  0  0  0  0  0
   58.7694   -5.4022   -9.8388 C   0  0  0  0  0  0  0  0  0  0  0  0
   59.0120   -5.0528  -11.1475 C   0  0  0  0  0  0  0  0  0  0  0  0
   58.0248   -4.4264  -11.8736 C   0  0  0  0  0  0  0  0  0  0  0  0
   56.7953   -4.1340  -11.3365 C   0  0  0  0  0  0  0  0  0  0  0  0
   56.5478   -4.4895  -10.0042 C   0  0  0  0  0  0  0  0  0  0  0  0
   57.5256   -5.1227   -9.2476 C   0  0  0  0  0  0  0  0  0  0  0  0
   61.5141   -6.5396   -9.9261 C   0  0  0  0  0  0  0  0  0  0  0  0
   60.0423   -6.2033   -8.9224 S   0  0  0  0  0  0  0  0  0  0  0  0
 28 29  1  0  0  0
 29 22  1  0  0  0
 22 23  2  0  0  0
 23 24  1  0  0  0
 24 25  2  0  0  0
 25 26  1  0  0  0
 26 27  2  0  0  0
 27 20  1  0  0  0
 20  1  1  0  0  0
  1  2  2  0  0  0
  2  3  1  0  0  0
  3  4  2  0  0  0
  4  5  1  0  0  0
  5  6  1  0  0  0
  6  7  1  0  0  0
  7  8  1  0  0  0
  8  9  2  0  0  0
  9 10  1  0  0  0
 10 11  1  0  0  0
 10 12  1  0  0  0
 12 13  1  0  0  0
 13 14  2  0  0  0
  8 15  1  0  0  0
 15 16  1  0  0  0
 15 17  2  0  0  0
 27 22  1  0  0  0
 14  1  1  0  0  0
 13  4  1  0  0  0
 12  7  2  0  0  0
 20 21  1  0  0  0
 16 18  1  0  0  0
 16 19  1  0  0  0
M  END
> <minimizedAffinity>
-8.53109

> <CNNscore>
0.6232023835

> <CNNaffinity>
7.0122847557

> <CNN_VS>
4.3700723648

> <CNNaffinity_variance>
0.1569531709

$$$$
[H]c1nc(N([H])c2c([H])c([H])c([H])c([H])c2SC([H])([H])[H])nc2c1C([H])([H])C([H])([H])c1c(C(=O)N([H])[H])nn(C([H])([H])[H])c1-2


 29 32  0  0  0  0  0  0  0  0999 V2000
   53.3739   -5.7406   -6.8968 C   0  0  0  0  0  0  0  0  0  0  0  0
   53.2979   -4.8592   -7.8818 N   0  0  0  0  0  0  0  0  0  0  0  0
   52.3323   -3.9357   -8.0343 C   0  0  0  0  0  0  0  0  0  0  0  0
   51.3053   -3.8593   -7.1066 C   0  0  0  0  0  0  0  0  0  0  0  0
   50.2742   -2.8382   -7.3115 C   0  0  0  0  0  0  0  0  0  0  0  0
   49.1996   -2.7943   -6.2969 C   0  0  0  0  0  0  0  0  0  0  0  0
   49.3086   -3.7821   -5.2167 C   0  0  0  0  0  0  0  0  0  0  0  0
   48.4680   -3.9825   -4.1409 C   0  0  0  0  0  0  0  0  0  0  0  0
   48.9910   -5.0001   -3.4361 N   0  0  0  0  0  0  0  0  0  0  0  0
   50.0863   -5.4542   -3.9771 N   0  0  0  0  0  0  0  0  0  0  0  0
   50.9317   -6.5292   -3.5233 C   0  0  0  0  0  0  0  0  0  0  0  0
   50.3040   -4.7135   -5.0844 C   0  0  0  0  0  0  0  0  0  0  0  0
   51.3608   -4.7618   -6.0757 C   0  0  0  0  0  0  0  0  0  0  0  0
   52.3487   -5.6563   -5.9803 N   0  0  0  0  0  0  0  0  0  0  0  0
   47.2562   -3.2378   -3.8336 C   0  0  0  0  0  0  0  0  0  0  0  0
   46.1495   -3.8213   -3.1667 N   0  0  0  0  0  0  0  0  0  0  0  0
   47.1829   -2.0381   -4.1680 O   0  0  0  0  0  0  0  0  0  0  0  0
   46.0834   -3.6746   -2.1329 H   0  0  0  0  0  0  0  0  0  0  0  0
   45.4153   -4.3835   -3.6840 H   0  0  0  0  0  0  0  0  0  0  0  0
   54.3762   -6.7266   -6.7056 N   0  0  0  0  0  0  0  0  0  0  0  0
   54.5376   -7.3909   -7.5494 H   0  0  0  0  0  0  0  0  0  0  0  0
   56.4633   -6.3895   -5.6010 C   0  0  0  0  0  0  0  0  0  0  0  0
   57.3175   -6.5826   -4.5396 C   0  0  0  0  0  0  0  0  0  0  0  0
   56.9062   -7.3475   -3.4720 C   0  0  0  0  0  0  0  0  0  0  0  0
   55.6639   -7.9309   -3.4253 C   0  0  0  0  0  0  0  0  0  0  0  0
   54.7938   -7.7346   -4.5057 C   0  0  0  0  0  0  0  0  0  0  0  0
   55.1823   -6.9673   -5.5965 C   0  0  0  0  0  0  0  0  0  0  0  0
   56.4112   -3.6978   -6.8606 C   0  0  0  0  0  0  0  0  0  0  0  0
   57.0037   -5.4082   -6.9600 S   0  0  0  0  0  0  0  0  0  0  0  0
 28 29  1  0  0  0
 29 22  1  0  0  0
 22 23  2  0  0  0
 23 24  1  0  0  0
 24 25  2  0  0  0
 25 26  1  0  0  0
 26 27  2  0  0  0
 27 20  1  0  0  0
 20  1  1  0  0  0
  1  2  2  0  0  0
  2  3  1  0  0  0
  3  4  2  0  0  0
  4  5  1  0  0  0
  5  6  1  0  0  0
  6  7  1  0  0  0
  7  8  1  0  0  0
  8  9  2  0  0  0
  9 10  1  0  0  0
 10 11  1  0  0  0
 10 12  1  0  0  0
 12 13  1  0  0  0
 13 14  2  0  0  0
  8 15  1  0  0  0
 15 16  1  0  0  0
 15 17  2  0  0  0
 27 22  1  0  0  0
 14  1  1  0  0  0
 13  4  1  0  0  0
 12  7  2  0  0  0
 20 21  1  0  0  0
 16 18  1  0  0  0
 16 19  1  0  0  0
M  END
> <minimizedAffinity>
-8.35881

> <CNNscore>
0.5973697305

> <CNNaffinity>
7.1312179565

> <CNN_VS>
4.2599735260

> <CNNaffinity_variance>
0.1074547991

$$$$
[H]c1nc(N([H])c2c([H])c([H])c([H])c([H])c2SC([H])([H])[H])nc2c1C([H])([H])C([H])([H])c1c(C(=O)N([H])[H])nn(C([H])([H])[H])c1-2


 29 32  0  0  0  0  0  0  0  0999 V2000
   53.8281   -3.6483   -8.5069 C   0  0  0  0  0  0  0  0  0  0  0  0
   53.5880   -3.3228   -9.7675 N   0  0  0  0  0  0  0  0  0  0  0  0
   54.4339   -3.5010  -10.7977 C   0  0  0  0  0  0  0  0  0  0  0  0
   55.6770   -4.0710  -10.5720 C   0  0  0  0  0  0  0  0  0  0  0  0
   56.5671   -4.2467  -11.7231 C   0  0  0  0  0  0  0  0  0  0  0  0
   57.8817   -4.8585  -11.4342 C   0  0  0  0  0  0  0  0  0  0  0  0
   58.1212   -5.2093  -10.0292 C   0  0  0  0  0  0  0  0  0  0  0  0
   59.2385   -5.7862   -9.4609 C   0  0  0  0  0  0  0  0  0  0  0  0
   58.9764   -5.9067   -8.1484 N   0  0  0  0  0  0  0  0  0  0  0  0
   57.7919   -5.4553   -7.8455 N   0  0  0  0  0  0  0  0  0  0  0  0
   57.1523   -5.4108   -6.5551 C   0  0  0  0  0  0  0  0  0  0  0  0
   57.2414   -5.0168   -8.9973 C   0  0  0  0  0  0  0  0  0  0  0  0
   55.9506   -4.4174   -9.2738 C   0  0  0  0  0  0  0  0  0  0  0  0
   55.0661   -4.2139   -8.2932 N   0  0  0  0  0  0  0  0  0  0  0  0
   60.4572   -6.1841  -10.1493 C   0  0  0  0  0  0  0  0  0  0  0  0
   61.3025   -7.2167   -9.6707 N   0  0  0  0  0  0  0  0  0  0  0  0
   60.7755   -5.5965  -11.2029 O   0  0  0  0  0  0  0  0  0  0  0  0
   61.1741   -8.1691  -10.0842 H   0  0  0  0  0  0  0  0  0  0  0  0
   62.0362   -7.0416   -8.9265 H   0  0  0  0  0  0  0  0  0  0  0  0
   52.9604   -3.4746   -7.3976 N   0  0  0  0  0  0  0  0  0  0  0  0
   53.1710   -2.6083   -6.7776 H   0  0  0  0  0  0  0  0  0  0  0  0
   52.1412   -5.2643   -6.0501 C   0  0  0  0  0  0  0  0  0  0  0  0
   51.1237   -6.0726   -5.5974 C   0  0  0  0  0  0  0  0  0  0  0  0
   49.8462   -5.8800   -6.0715 C   0  0  0  0  0  0  0  0  0  0  0  0
   49.5454   -4.9024   -6.9879 C   0  0  0  0  0  0  0  0  0  0  0  0
   50.5809   -4.0792   -7.4491 C   0  0  0  0  0  0  0  0  0  0  0  0
   51.8799   -4.2509   -6.9879 C   0  0  0  0  0  0  0  0  0  0  0  0
   53.8078   -6.6609   -4.0236 C   0  0  0  0  0  0  0  0  0  0  0  0
   53.7709   -5.5228   -5.4343 S   0  0  0  0  0  0  0  0  0  0  0  0
 28 29  1  0  0  0
 29 22  1  0  0  0
 22 23  2  0  0  0
 23 24  1  0  0  0
 24 25  2  0  0  0
 25 26  1  0  0  0
 26 27  2  0  0  0
 27 20  1  0  0  0
 20  1  1  0  0  0
  1  2  2  0  0  0
  2  3  1  0  0  0
  3  4  2  0  0  0
  4  5  1  0  0  0
  5  6  1  0  0  0
  6  7  1  0  0  0
  7  8  1  0  0  0
  8  9  2  0  0  0
  9 10  1  0  0  0
 10 11  1  0  0  0
 10 12  1  0  0  0
 12 13  1  0  0  0
 13 14  2  0  0  0
  8 15  1  0  0  0
 15 16  1  0  0  0
 15 17  2  0  0  0
 27 22  1  0  0  0
 14  1  1  0  0  0
 13  4  1  0  0  0
 12  7  2  0  0  0
 20 21  1  0  0  0
 16 18  1  0  0  0
 16 19  1  0  0  0
M  END
> <minimizedAffinity>
-6.17113

> <CNNscore>
0.5625795126

> <CNNaffinity>
6.6762747765

> <CNN_VS>
3.7559354305

> <CNNaffinity_variance>
0.1560850590

$$$$
[H]c1nc(N([H])c2c([H])c(Cl)c([H])c(C([H])([H])C([H])([H])C([H])([H])N(C([H])([H])[H])C([H])([H])[H])c2[H])nc2c1C([H])([H])C(=S)N([H])c1c([H])c(Cl)c([H])c([H])c1-2


 33 36  0  0  0  0  0  0  0  0999 V2000
   54.1294   -3.5545  -10.1119 C   0  0  0  0  0  0  0  0  0  0  0  0
   52.9217   -3.0411   -9.9632 N   0  0  0  0  0  0  0  0  0  0  0  0
   52.1306   -3.1049   -8.8970 C   0  0  0  0  0  0  0  0  0  0  0  0
   52.6443   -3.8051   -7.7929 C   0  0  0  0  0  0  0  0  0  0  0  0
   51.7188   -3.8237   -6.6572 C   0  0  0  0  0  0  0  0  0  0  0  0
   51.6091   -5.1043   -5.9390 C   0  0  0  0  0  0  0  0  0  0  0  0
   50.1261   -5.7720   -5.7393 S   0  0  0  0  0  0  0  0  0  0  0  0
   52.7171   -5.8431   -5.3758 N   0  0  0  0  0  0  0  0  0  0  0  0
   54.0866   -5.7921   -5.7424 C   0  0  0  0  0  0  0  0  0  0  0  0
   54.8919   -6.4772   -4.8692 C   0  0  0  0  0  0  0  0  0  0  0  0
   56.2679   -6.5091   -5.1078 C   0  0  0  0  0  0  0  0  0  0  0  0
   57.3698   -7.3548   -4.0522 Cl  0  0  0  0  0  0  0  0  0  0  0  0
   56.7722   -5.8534   -6.2097 C   0  0  0  0  0  0  0  0  0  0  0  0
   55.9565   -5.1563   -7.0991 C   0  0  0  0  0  0  0  0  0  0  0  0
   54.6059   -5.1412   -6.8401 C   0  0  0  0  0  0  0  0  0  0  0  0
   53.8961   -4.3659   -7.8786 C   0  0  0  0  0  0  0  0  0  0  0  0
   54.5952   -4.2333   -9.0052 N   0  0  0  0  0  0  0  0  0  0  0  0
   52.4673   -6.4910   -4.6042 H   0  0  0  0  0  0  0  0  0  0  0  0
   54.9843   -3.5086  -11.2074 N   0  0  0  0  0  0  0  0  0  0  0  0
   54.5977   -3.1154  -12.1322 H   0  0  0  0  0  0  0  0  0  0  0  0
   58.4938   -3.8735  -12.3223 C   0  0  0  0  0  0  0  0  0  0  0  0
   59.0163   -4.6813  -11.3449 C   0  0  0  0  0  0  0  0  0  0  0  0
   58.2488   -5.1306  -10.3112 C   0  0  0  0  0  0  0  0  0  0  0  0
   58.8833   -6.1633   -9.0457 Cl  0  0  0  0  0  0  0  0  0  0  0  0
   56.9158   -4.7495  -10.2689 C   0  0  0  0  0  0  0  0  0  0  0  0
   56.3321   -3.9452  -11.2113 C   0  0  0  0  0  0  0  0  0  0  0  0
   57.1771   -3.5166  -12.2504 C   0  0  0  0  0  0  0  0  0  0  0  0
   59.3053   -3.3669  -13.4618 C   0  0  0  0  0  0  0  0  0  0  0  0
   58.6514   -3.6946  -14.7887 C   0  0  0  0  0  0  0  0  0  0  0  0
   59.3003   -2.8755  -15.8719 C   0  0  0  0  0  0  0  0  0  0  0  0
   58.5182   -1.4959  -17.6532 C   0  0  0  0  0  0  0  0  0  0  0  0
   58.4086   -2.8075  -17.0371 N   0  0  0  0  0  0  0  0  0  0  0  0
   57.0410   -3.0646  -16.5970 C   0  0  0  0  0  0  0  0  0  0  0  0
 31 32  1  0  0  0
 32 33  1  0  0  0
 32 30  1  0  0  0
 30 29  1  0  0  0
 29 28  1  0  0  0
 28 21  1  0  0  0
 21 22  2  0  0  0
 22 23  1  0  0  0
 23 24  1  0  0  0
 23 25  2  0  0  0
 25 26  1  0  0  0
 26 19  1  0  0  0
 19  1  1  0  0  0
  1  2  2  0  0  0
  2  3  1  0  0  0
  3  4  2  0  0  0
  4  5  1  0  0  0
  5  6  1  0  0  0
  6  7  2  0  0  0
  6  8  1  0  0  0
  8  9  1  0  0  0
  9 10  2  0  0  0
 10 11  1  0  0  0
 11 12  1  0  0  0
 11 13  2  0  0  0
 13 14  1  0  0  0
 14 15  2  0  0  0
 15 16  1  0  0  0
 16 17  2  0  0  0
 26 27  2  0  0  0
 27 21  1  0  0  0
 17  1  1  0  0  0
 16  4  1  0  0  0
 15  9  1  0  0  0
 19 20  1  0  0  0
  8 18  1  0  0  0
M  END
> <minimizedAffinity>
-7.58841

> <CNNscore>
0.7899466157

> <CNNaffinity>
7.6582169533

> <CNN_VS>
6.0495824814

> <CNNaffinity_variance>
0.1000242010

$$$$
[H]c1nc(N([H])c2c([H])c(Cl)c([H])c(C([H])([H])C([H])([H])C([H])([H])N(C([H])([H])[H])C([H])([H])[H])c2[H])nc2c1C([H])([H])C(=S)N([H])c1c([H])c(Cl)c([H])c([H])c1-2


 33 36  0  0  0  0  0  0  0  0999 V2000
   51.6057   -3.8323   -7.7957 C   0  0  0  0  0  0  0  0  0  0  0  0
   50.6869   -2.8837   -7.8072 N   0  0  0  0  0  0  0  0  0  0  0  0
   49.8531   -2.5396   -6.8309 C   0  0  0  0  0  0  0  0  0  0  0  0
   49.9644   -3.2773   -5.6406 C   0  0  0  0  0  0  0  0  0  0  0  0
   49.0196   -2.8338   -4.6124 C   0  0  0  0  0  0  0  0  0  0  0  0
   48.3625   -3.9016   -3.8404 C   0  0  0  0  0  0  0  0  0  0  0  0
   46.7259   -3.9279   -3.7657 S   0  0  0  0  0  0  0  0  0  0  0  0
   49.0462   -4.9530   -3.1207 N   0  0  0  0  0  0  0  0  0  0  0  0
   50.3509   -5.4653   -3.3393 C   0  0  0  0  0  0  0  0  0  0  0  0
   50.7536   -6.3224   -2.3475 C   0  0  0  0  0  0  0  0  0  0  0  0
   52.0218   -6.9016   -2.4338 C   0  0  0  0  0  0  0  0  0  0  0  0
   52.6196   -8.0030   -1.2200 Cl  0  0  0  0  0  0  0  0  0  0  0  0
   52.8267   -6.5950   -3.5093 C   0  0  0  0  0  0  0  0  0  0  0  0
   52.4203   -5.7244   -4.5189 C   0  0  0  0  0  0  0  0  0  0  0  0
   51.1672   -5.1686   -4.4088 C   0  0  0  0  0  0  0  0  0  0  0  0
   50.9002   -4.2806   -5.5592 C   0  0  0  0  0  0  0  0  0  0  0  0
   51.6813   -4.5317   -6.6092 N   0  0  0  0  0  0  0  0  0  0  0  0
   48.5036   -5.3806   -2.3460 H   0  0  0  0  0  0  0  0  0  0  0  0
   52.4933   -4.2200   -8.7932 N   0  0  0  0  0  0  0  0  0  0  0  0
   52.0915   -4.4407   -9.7674 H   0  0  0  0  0  0  0  0  0  0  0  0
   55.7253   -4.9864   -7.1624 C   0  0  0  0  0  0  0  0  0  0  0  0
   56.6182   -4.7144   -8.1671 C   0  0  0  0  0  0  0  0  0  0  0  0
   56.1994   -4.2724   -9.3873 C   0  0  0  0  0  0  0  0  0  0  0  0
   57.3120   -3.9155  -10.6932 Cl  0  0  0  0  0  0  0  0  0  0  0  0
   54.8382   -4.1023   -9.5925 C   0  0  0  0  0  0  0  0  0  0  0  0
   53.8944   -4.3560   -8.6330 C   0  0  0  0  0  0  0  0  0  0  0  0
   54.3914   -4.8085   -7.3978 C   0  0  0  0  0  0  0  0  0  0  0  0
   56.1510   -5.4701   -5.8213 C   0  0  0  0  0  0  0  0  0  0  0  0
   55.8214   -6.9375   -5.6379 C   0  0  0  0  0  0  0  0  0  0  0  0
   56.1797   -7.3501   -4.2355 C   0  0  0  0  0  0  0  0  0  0  0  0
   58.5246   -7.4687   -3.8162 C   0  0  0  0  0  0  0  0  0  0  0  0
   57.3605   -6.5991   -3.7891 N   0  0  0  0  0  0  0  0  0  0  0  0
   57.1153   -6.0974   -2.4408 C   0  0  0  0  0  0  0  0  0  0  0  0
 31 32  1  0  0  0
 32 33  1  0  0  0
 32 30  1  0  0  0
 30 29  1  0  0  0
 29 28  1  0  0  0
 28 21  1  0  0  0
 21 22  2  0  0  0
 22 23  1  0  0  0
 23 24  1  0  0  0
 23 25  2  0  0  0
 25 26  1  0  0  0
 26 19  1  0  0  0
 19  1  1  0  0  0
  1  2  2  0  0  0
  2  3  1  0  0  0
  3  4  2  0  0  0
  4  5  1  0  0  0
  5  6  1  0  0  0
  6  7  2  0  0  0
  6  8  1  0  0  0
  8  9  1  0  0  0
  9 10  2  0  0  0
 10 11  1  0  0  0
 11 12  1  0  0  0
 11 13  2  0  0  0
 13 14  1  0  0  0
 14 15  2  0  0  0
 15 16  1  0  0  0
 16 17  2  0  0  0
 26 27  2  0  0  0
 27 21  1  0  0  0
 17  1  1  0  0  0
 16  4  1  0  0  0
 15  9  1  0  0  0
 19 20  1  0  0  0
  8 18  1  0  0  0
M  END
> <minimizedAffinity>
-8.64090

> <CNNscore>
0.6031121612

> <CNNaffinity>
8.0397396088

> <CNN_VS>
4.8488645554

> <CNNaffinity_variance>
0.1990090162

$$$$
[H]c1nc(N([H])c2c([H])c(Cl)c([H])c(C([H])([H])C([H])([H])C([H])([H])N(C([H])([H])[H])C([H])([H])[H])c2[H])nc2c1C([H])([H])C(=S)N([H])c1c([H])c(Cl)c([H])c([H])c1-2


 33 36  0  0  0  0  0  0  0  0999 V2000
   51.6161   -3.8638   -7.7929 C   0  0  0  0  0  0  0  0  0  0  0  0
   50.6705   -2.9419   -7.8002 N   0  0  0  0  0  0  0  0  0  0  0  0
   49.8373   -2.6160   -6.8173 C   0  0  0  0  0  0  0  0  0  0  0  0
   49.9818   -3.3431   -5.6241 C   0  0  0  0  0  0  0  0  0  0  0  0
   49.0352   -2.9206   -4.5885 C   0  0  0  0  0  0  0  0  0  0  0  0
   48.4169   -4.0021   -3.8038 C   0  0  0  0  0  0  0  0  0  0  0  0
   46.7826   -4.0747   -3.7119 S   0  0  0  0  0  0  0  0  0  0  0  0
   49.1377   -5.0292   -3.0853 N   0  0  0  0  0  0  0  0  0  0  0  0
   50.4542   -5.5054   -3.3145 C   0  0  0  0  0  0  0  0  0  0  0  0
   50.8915   -6.3447   -2.3221 C   0  0  0  0  0  0  0  0  0  0  0  0
   52.1748   -6.8879   -2.4183 C   0  0  0  0  0  0  0  0  0  0  0  0
   52.8163   -7.9646   -1.2046 Cl  0  0  0  0  0  0  0  0  0  0  0  0
   52.9595   -6.5649   -3.5039 C   0  0  0  0  0  0  0  0  0  0  0  0
   52.5181   -5.7123   -4.5141 C   0  0  0  0  0  0  0  0  0  0  0  0
   51.2508   -5.1918   -4.3941 C   0  0  0  0  0  0  0  0  0  0  0  0
   50.9467   -4.3187   -5.5467 C   0  0  0  0  0  0  0  0  0  0  0  0
   51.7238   -4.5536   -6.6034 N   0  0  0  0  0  0  0  0  0  0  0  0
   48.6156   -5.4676   -2.3025 H   0  0  0  0  0  0  0  0  0  0  0  0
   52.5043   -4.2318   -8.7973 N   0  0  0  0  0  0  0  0  0  0  0  0
   52.1125   -4.3699   -9.7907 H   0  0  0  0  0  0  0  0  0  0  0  0
   56.1264   -4.2127   -9.5540 C   0  0  0  0  0  0  0  0  0  0  0  0
   56.6537   -4.7690   -8.4168 C   0  0  0  0  0  0  0  0  0  0  0  0
   55.8545   -5.1679   -7.3864 C   0  0  0  0  0  0  0  0  0  0  0  0
   56.4940   -5.8819   -5.9196 Cl  0  0  0  0  0  0  0  0  0  0  0  0
   54.4839   -4.9972   -7.5142 C   0  0  0  0  0  0  0  0  0  0  0  0
   53.8932   -4.4484   -8.6214 C   0  0  0  0  0  0  0  0  0  0  0  0
   54.7722   -4.0585   -9.6474 C   0  0  0  0  0  0  0  0  0  0  0  0
   56.9718   -3.7674  -10.6945 C   0  0  0  0  0  0  0  0  0  0  0  0
   56.3864   -4.2153  -12.0182 C   0  0  0  0  0  0  0  0  0  0  0  0
   57.3427   -3.8584  -13.1243 C   0  0  0  0  0  0  0  0  0  0  0  0
   56.0128   -5.0282  -14.7216 C   0  0  0  0  0  0  0  0  0  0  0  0
   56.6079   -3.7442  -14.3911 N   0  0  0  0  0  0  0  0  0  0  0  0
   57.5343   -3.3147  -15.4338 C   0  0  0  0  0  0  0  0  0  0  0  0
 31 32  1  0  0  0
 32 33  1  0  0  0
 32 30  1  0  0  0
 30 29  1  0  0  0
 29 28  1  0  0  0
 28 21  1  0  0  0
 21 22  2  0  0  0
 22 23  1  0  0  0
 23 24  1  0  0  0
 23 25  2  0  0  0
 25 26  1  0  0  0
 26 19  1  0  0  0
 19  1  1  0  0  0
  1  2  2  0  0  0
  2  3  1  0  0  0
  3  4  2  0  0  0
  4  5  1  0  0  0
  5  6  1  0  0  0
  6  7  2  0  0  0
  6  8  1  0  0  0
  8  9  1  0  0  0
  9 10  2  0  0  0
 10 11  1  0  0  0
 11 12  1  0  0  0
 11 13  2  0  0  0
 13 14  1  0  0  0
 14 15  2  0  0  0
 15 16  1  0  0  0
 16 17  2  0  0  0
 26 27  2  0  0  0
 27 21  1  0  0  0
 17  1  1  0  0  0
 16  4  1  0  0  0
 15  9  1  0  0  0
 19 20  1  0  0  0
  8 18  1  0  0  0
M  END
> <minimizedAffinity>
-9.29016

> <CNNscore>
0.4798356295

> <CNNaffinity>
7.7420234680

> <CNN_VS>
3.7148985863

> <CNNaffinity_variance>
0.0921397433

$$$$
[H]c1nc(N([H])c2c([H])c(Cl)c([H])c(C([H])([H])C([H])([H])C([H])([H])N(C([H])([H])[H])C([H])([H])[H])c2[H])nc2c1C([H])([H])C(=S)N([H])c1c([H])c(Cl)c([H])c([H])c1-2


 33 36  0  0  0  0  0  0  0  0999 V2000
   56.2261   -4.1662   -9.2402 C   0  0  0  0  0  0  0  0  0  0  0  0
   57.3357   -4.7370   -8.8076 N   0  0  0  0  0  0  0  0  0  0  0  0
   57.5037   -5.4782   -7.7172 C   0  0  0  0  0  0  0  0  0  0  0  0
   56.3585   -5.6780   -6.9287 C   0  0  0  0  0  0  0  0  0  0  0  0
   56.6226   -6.5100   -5.7519 C   0  0  0  0  0  0  0  0  0  0  0  0
   55.9822   -6.0736   -4.5000 C   0  0  0  0  0  0  0  0  0  0  0  0
   56.9179   -5.8400   -3.1753 S   0  0  0  0  0  0  0  0  0  0  0  0
   54.5674   -5.8304   -4.3267 N   0  0  0  0  0  0  0  0  0  0  0  0
   53.6015   -5.5101   -5.3150 C   0  0  0  0  0  0  0  0  0  0  0  0
   52.3196   -5.5408   -4.8289 C   0  0  0  0  0  0  0  0  0  0  0  0
   51.2647   -5.2465   -5.6959 C   0  0  0  0  0  0  0  0  0  0  0  0
   49.6022   -5.2608   -5.1673 Cl  0  0  0  0  0  0  0  0  0  0  0  0
   51.5435   -4.9352   -7.0089 C   0  0  0  0  0  0  0  0  0  0  0  0
   52.8451   -4.9030   -7.5061 C   0  0  0  0  0  0  0  0  0  0  0  0
   53.8643   -5.1969   -6.6308 C   0  0  0  0  0  0  0  0  0  0  0  0
   55.1687   -5.1119   -7.3198 C   0  0  0  0  0  0  0  0  0  0  0  0
   55.1266   -4.3872   -8.4371 N   0  0  0  0  0  0  0  0  0  0  0  0
   54.2249   -5.9027   -3.3495 H   0  0  0  0  0  0  0  0  0  0  0  0
   56.0119   -3.3870  -10.3716 N   0  0  0  0  0  0  0  0  0  0  0  0
   55.3260   -2.5608  -10.2921 H   0  0  0  0  0  0  0  0  0  0  0  0
   58.6947   -3.7672  -12.8916 C   0  0  0  0  0  0  0  0  0  0  0  0
   57.9753   -4.0188  -14.0318 C   0  0  0  0  0  0  0  0  0  0  0  0
   56.6125   -4.0644  -14.0146 C   0  0  0  0  0  0  0  0  0  0  0  0
   55.6620   -4.3832  -15.4517 Cl  0  0  0  0  0  0  0  0  0  0  0  0
   55.9633   -3.8491  -12.8079 C   0  0  0  0  0  0  0  0  0  0  0  0
   56.6210   -3.5938  -11.6339 C   0  0  0  0  0  0  0  0  0  0  0  0
   58.0241   -3.5599  -11.7196 C   0  0  0  0  0  0  0  0  0  0  0  0
   60.1815   -3.7116  -12.8781 C   0  0  0  0  0  0  0  0  0  0  0  0
   60.7143   -2.9978  -14.1037 C   0  0  0  0  0  0  0  0  0  0  0  0
   62.1712   -3.3350  -14.2742 C   0  0  0  0  0  0  0  0  0  0  0  0
   63.4507   -2.7123  -16.1882 C   0  0  0  0  0  0  0  0  0  0  0  0
   62.8554   -2.2274  -14.9543 N   0  0  0  0  0  0  0  0  0  0  0  0
   63.8745   -1.6861  -14.0608 C   0  0  0  0  0  0  0  0  0  0  0  0
 31 32  1  0  0  0
 32 33  1  0  0  0
 32 30  1  0  0  0
 30 29  1  0  0  0
 29 28  1  0  0  0
 28 21  1  0  0  0
 21 22  2  0  0  0
 22 23  1  0  0  0
 23 24  1  0  0  0
 23 25  2  0  0  0
 25 26  1  0  0  0
 26 19  1  0  0  0
 19  1  1  0  0  0
  1  2  2  0  0  0
  2  3  1  0  0  0
  3  4  2  0  0  0
  4  5  1  0  0  0
  5  6  1  0  0  0
  6  7  2  0  0  0
  6  8  1  0  0  0
  8  9  1  0  0  0
  9 10  2  0  0  0
 10 11  1  0  0  0
 11 12  1  0  0  0
 11 13  2  0  0  0
 13 14  1  0  0  0
 14 15  2  0  0  0
 15 16  1  0  0  0
 16 17  2  0  0  0
 26 27  2  0  0  0
 27 21  1  0  0  0
 17  1  1  0  0  0
 16  4  1  0  0  0
 15  9  1  0  0  0
 19 20  1  0  0  0
  8 18  1  0  0  0
M  END
> <minimizedAffinity>
-7.44436

> <CNNscore>
0.3554920554

> <CNNaffinity>
6.8859724998

> <CNN_VS>
2.4479084015

> <CNNaffinity_variance>
0.0692056268

$$$$
[H]c1nc(N([H])c2c([H])c(Cl)c([H])c(C([H])([H])C([H])([H])C([H])([H])N(C([H])([H])[H])C([H])([H])[H])c2[H])nc2c1C([H])([H])C(=S)N([H])c1c([H])c(Cl)c([H])c([H])c1-2


 33 36  0  0  0  0  0  0  0  0999 V2000
   54.2446   -4.9918   -7.9237 C   0  0  0  0  0  0  0  0  0  0  0  0
   55.0442   -5.1905   -6.8916 N   0  0  0  0  0  0  0  0  0  0  0  0
   56.3732   -5.1822   -6.8720 C   0  0  0  0  0  0  0  0  0  0  0  0
   57.0033   -4.9310   -8.1020 C   0  0  0  0  0  0  0  0  0  0  0  0
   58.4647   -4.9301   -7.9967 C   0  0  0  0  0  0  0  0  0  0  0  0
   59.1879   -5.5992   -9.0908 C   0  0  0  0  0  0  0  0  0  0  0  0
   60.2646   -6.7773   -8.7199 S   0  0  0  0  0  0  0  0  0  0  0  0
   59.0344   -5.3018  -10.4975 N   0  0  0  0  0  0  0  0  0  0  0  0
   57.9287   -4.7048  -11.1558 C   0  0  0  0  0  0  0  0  0  0  0  0
   58.2000   -4.3908  -12.4628 C   0  0  0  0  0  0  0  0  0  0  0  0
   57.1987   -3.7939  -13.2324 C   0  0  0  0  0  0  0  0  0  0  0  0
   57.4521   -3.3594  -14.9030 Cl  0  0  0  0  0  0  0  0  0  0  0  0
   55.9730   -3.5398  -12.6567 C   0  0  0  0  0  0  0  0  0  0  0  0
   55.6940   -3.8576  -11.3287 C   0  0  0  0  0  0  0  0  0  0  0  0
   56.6978   -4.4443  -10.5942 C   0  0  0  0  0  0  0  0  0  0  0  0
   56.2314   -4.7155   -9.2186 C   0  0  0  0  0  0  0  0  0  0  0  0
   54.9037   -4.7490   -9.1108 N   0  0  0  0  0  0  0  0  0  0  0  0
   59.8436   -5.5622  -11.0932 H   0  0  0  0  0  0  0  0  0  0  0  0
   52.8555   -4.9923   -7.9831 N   0  0  0  0  0  0  0  0  0  0  0  0
   52.3924   -5.1045   -8.9486 H   0  0  0  0  0  0  0  0  0  0  0  0
   51.3742   -5.6379   -4.6542 C   0  0  0  0  0  0  0  0  0  0  0  0
   50.3962   -4.6786   -4.5912 C   0  0  0  0  0  0  0  0  0  0  0  0
   50.1888   -3.8091   -5.6210 C   0  0  0  0  0  0  0  0  0  0  0  0
   48.9490   -2.5716   -5.5744 Cl  0  0  0  0  0  0  0  0  0  0  0  0
   50.9958   -3.9165   -6.7440 C   0  0  0  0  0  0  0  0  0  0  0  0
   51.9897   -4.8502   -6.8707 C   0  0  0  0  0  0  0  0  0  0  0  0
   52.1518   -5.7162   -5.7747 C   0  0  0  0  0  0  0  0  0  0  0  0
   51.6252   -6.6002   -3.5475 C   0  0  0  0  0  0  0  0  0  0  0  0
   52.7638   -6.1339   -2.6634 C   0  0  0  0  0  0  0  0  0  0  0  0
   53.6996   -7.2870   -2.4183 C   0  0  0  0  0  0  0  0  0  0  0  0
   55.1161   -5.5738   -3.2826 C   0  0  0  0  0  0  0  0  0  0  0  0
   55.0029   -7.0010   -3.0326 N   0  0  0  0  0  0  0  0  0  0  0  0
   55.1124   -7.7587   -4.2751 C   0  0  0  0  0  0  0  0  0  0  0  0
 31 32  1  0  0  0
 32 33  1  0  0  0
 32 30  1  0  0  0
 30 29  1  0  0  0
 29 28  1  0  0  0
 28 21  1  0  0  0
 21 22  2  0  0  0
 22 23  1  0  0  0
 23 24  1  0  0  0
 23 25  2  0  0  0
 25 26  1  0  0  0
 26 19  1  0  0  0
 19  1  1  0  0  0
  1  2  2  0  0  0
  2  3  1  0  0  0
  3  4  2  0  0  0
  4  5  1  0  0  0
  5  6  1  0  0  0
  6  7  2  0  0  0
  6  8  1  0  0  0
  8  9  1  0  0  0
  9 10  2  0  0  0
 10 11  1  0  0  0
 11 12  1  0  0  0
 11 13  2  0  0  0
 13 14  1  0  0  0
 14 15  2  0  0  0
 15 16  1  0  0  0
 16 17  2  0  0  0
 26 27  2  0  0  0
 27 21  1  0  0  0
 17  1  1  0  0  0
 16  4  1  0  0  0
 15  9  1  0  0  0
 19 20  1  0  0  0
  8 18  1  0  0  0
M  END
> <minimizedAffinity>
-8.77564

> <CNNscore>
0.3389815390

> <CNNaffinity>
7.2691106796

> <CNN_VS>
2.4640944004

> <CNNaffinity_variance>
0.0452277623

$$$$
[H]c1nc(N([H])c2c([H])c(Cl)c([H])c(C([H])([H])C([H])([H])C([H])([H])N(C([H])([H])[H])C([H])([H])[H])c2[H])nc2c1C([H])([H])C(=S)N([H])c1c([H])c(Cl)c([H])c([H])c1-2


 33 36  0  0  0  0  0  0  0  0999 V2000
   52.7809   -5.5372   -6.6848 C   0  0  0  0  0  0  0  0  0  0  0  0
   52.8783   -5.2419   -7.9683 N   0  0  0  0  0  0  0  0  0  0  0  0
   52.0654   -4.4849   -8.6983 C   0  0  0  0  0  0  0  0  0  0  0  0
   50.9675   -3.9316   -8.0189 C   0  0  0  0  0  0  0  0  0  0  0  0
   50.1254   -3.1053   -8.8877 C   0  0  0  0  0  0  0  0  0  0  0  0
   48.6721   -3.2582   -8.7075 C   0  0  0  0  0  0  0  0  0  0  0  0
   47.7494   -3.6201  -10.0122 S   0  0  0  0  0  0  0  0  0  0  0  0
   47.9662   -3.1104   -7.4542 N   0  0  0  0  0  0  0  0  0  0  0  0
   48.4735   -3.2467   -6.1364 C   0  0  0  0  0  0  0  0  0  0  0  0
   47.5751   -2.8447   -5.1815 C   0  0  0  0  0  0  0  0  0  0  0  0
   47.9438   -2.9230   -3.8365 C   0  0  0  0  0  0  0  0  0  0  0  0
   46.8678   -2.4345   -2.5530 Cl  0  0  0  0  0  0  0  0  0  0  0  0
   49.1948   -3.4004   -3.5114 C   0  0  0  0  0  0  0  0  0  0  0  0
   50.1101   -3.8098   -4.4794 C   0  0  0  0  0  0  0  0  0  0  0  0
   49.7210   -3.7219   -5.7955 C   0  0  0  0  0  0  0  0  0  0  0  0
   50.8042   -4.1981   -6.6805 C   0  0  0  0  0  0  0  0  0  0  0  0
   51.6896   -4.9742   -6.0566 N   0  0  0  0  0  0  0  0  0  0  0  0
   46.9594   -2.8733   -7.5415 H   0  0  0  0  0  0  0  0  0  0  0  0
   53.6084   -6.3220   -5.8896 N   0  0  0  0  0  0  0  0  0  0  0  0
   54.6690   -6.2794   -6.0701 H   0  0  0  0  0  0  0  0  0  0  0  0
   53.6204   -8.1307   -2.6614 C   0  0  0  0  0  0  0  0  0  0  0  0
   52.4329   -8.8144   -2.7182 C   0  0  0  0  0  0  0  0  0  0  0  0
   51.6075   -8.7128   -3.7989 C   0  0  0  0  0  0  0  0  0  0  0  0
   50.0836   -9.5715   -3.9048 Cl  0  0  0  0  0  0  0  0  0  0  0  0
   51.9981   -7.8956   -4.8493 C   0  0  0  0  0  0  0  0  0  0  0  0
   53.1694   -7.1857   -4.8559 C   0  0  0  0  0  0  0  0  0  0  0  0
   53.9751   -7.3341   -3.7130 C   0  0  0  0  0  0  0  0  0  0  0  0
   54.5418   -8.2205   -1.4966 C   0  0  0  0  0  0  0  0  0  0  0  0
   55.9278   -7.7241   -1.8546 C   0  0  0  0  0  0  0  0  0  0  0  0
   55.8547   -6.9489   -3.1426 C   0  0  0  0  0  0  0  0  0  0  0  0
   58.1642   -7.5307   -3.0176 C   0  0  0  0  0  0  0  0  0  0  0  0
   57.2107   -6.5863   -3.5753 N   0  0  0  0  0  0  0  0  0  0  0  0
   57.4988   -5.2277   -3.1268 C   0  0  0  0  0  0  0  0  0  0  0  0
 31 32  1  0  0  0
 32 33  1  0  0  0
 32 30  1  0  0  0
 30 29  1  0  0  0
 29 28  1  0  0  0
 28 21  1  0  0  0
 21 22  2  0  0  0
 22 23  1  0  0  0
 23 24  1  0  0  0
 23 25  2  0  0  0
 25 26  1  0  0  0
 26 19  1  0  0  0
 19  1  1  0  0  0
  1  2  2  0  0  0
  2  3  1  0  0  0
  3  4  2  0  0  0
  4  5  1  0  0  0
  5  6  1  0  0  0
  6  7  2  0  0  0
  6  8  1  0  0  0
  8  9  1  0  0  0
  9 10  2  0  0  0
 10 11  1  0  0  0
 11 12  1  0  0  0
 11 13  2  0  0  0
 13 14  1  0  0  0
 14 15  2  0  0  0
 15 16  1  0  0  0
 16 17  2  0  0  0
 26 27  2  0  0  0
 27 21  1  0  0  0
 17  1  1  0  0  0
 16  4  1  0  0  0
 15  9  1  0  0  0
 19 20  1  0  0  0
  8 18  1  0  0  0
M  END
> <minimizedAffinity>
31.04118

> <CNNscore>
0.3115436733

> <CNNaffinity>
6.8232259750

> <CNN_VS>
2.1257328987

> <CNNaffinity_variance>
1.1290446520

$$$$
[H]c1nc(N([H])c2c([H])c(Cl)c([H])c(C([H])([H])C([H])([H])C([H])([H])N(C([H])([H])[H])C([H])([H])[H])c2[H])nc2c1C([H])([H])C(=S)N([H])c1c([H])c(Cl)c([H])c([H])c1-2


 33 36  0  0  0  0  0  0  0  0999 V2000
   55.8503   -4.4748   -9.6621 C   0  0  0  0  0  0  0  0  0  0  0  0
   54.7702   -3.8666  -10.1180 N   0  0  0  0  0  0  0  0  0  0  0  0
   53.6235   -3.6487   -9.4822 C   0  0  0  0  0  0  0  0  0  0  0  0
   53.5536   -4.1248   -8.1624 C   0  0  0  0  0  0  0  0  0  0  0  0
   52.2642   -3.8394   -7.5280 C   0  0  0  0  0  0  0  0  0  0  0  0
   51.6956   -4.9251   -6.7121 C   0  0  0  0  0  0  0  0  0  0  0  0
   50.1735   -5.4395   -7.0341 S   0  0  0  0  0  0  0  0  0  0  0  0
   52.3724   -5.5930   -5.6227 N   0  0  0  0  0  0  0  0  0  0  0  0
   53.7672   -5.7084   -5.3912 C   0  0  0  0  0  0  0  0  0  0  0  0
   54.0552   -6.2379   -4.1595 C   0  0  0  0  0  0  0  0  0  0  0  0
   55.3935   -6.4069   -3.7968 C   0  0  0  0  0  0  0  0  0  0  0  0
   55.8555   -7.0722   -2.2516 Cl  0  0  0  0  0  0  0  0  0  0  0  0
   56.3802   -6.0378   -4.6849 C   0  0  0  0  0  0  0  0  0  0  0  0
   56.0909   -5.4994   -5.9374 C   0  0  0  0  0  0  0  0  0  0  0  0
   54.7652   -5.3440   -6.2685 C   0  0  0  0  0  0  0  0  0  0  0  0
   54.6421   -4.7683   -7.6238 C   0  0  0  0  0  0  0  0  0  0  0  0
   55.7391   -4.9264   -8.3636 N   0  0  0  0  0  0  0  0  0  0  0  0
   51.7478   -6.0418   -4.9257 H   0  0  0  0  0  0  0  0  0  0  0  0
   57.0639   -4.7205  -10.2946 N   0  0  0  0  0  0  0  0  0  0  0  0
   57.8183   -5.2583   -9.7459 H   0  0  0  0  0  0  0  0  0  0  0  0
   59.1631   -3.7357  -13.1783 C   0  0  0  0  0  0  0  0  0  0  0  0
   58.2232   -3.5515  -14.1599 C   0  0  0  0  0  0  0  0  0  0  0  0
   56.8947   -3.7336  -13.9123 C   0  0  0  0  0  0  0  0  0  0  0  0
   55.6672   -3.5074  -15.1422 Cl  0  0  0  0  0  0  0  0  0  0  0  0
   56.5106   -4.1128  -12.6346 C   0  0  0  0  0  0  0  0  0  0  0  0
   57.3971   -4.3140  -11.6102 C   0  0  0  0  0  0  0  0  0  0  0  0
   58.7509   -4.1095  -11.9306 C   0  0  0  0  0  0  0  0  0  0  0  0
   60.6193   -3.5453  -13.4173 C   0  0  0  0  0  0  0  0  0  0  0  0
   60.8847   -3.0648  -14.8294 C   0  0  0  0  0  0  0  0  0  0  0  0
   61.7322   -4.0829  -15.5439 C   0  0  0  0  0  0  0  0  0  0  0  0
   61.8018   -5.5312  -17.4375 C   0  0  0  0  0  0  0  0  0  0  0  0
   60.9282   -4.7564  -16.5723 N   0  0  0  0  0  0  0  0  0  0  0  0
   60.2005   -3.7469  -17.3348 C   0  0  0  0  0  0  0  0  0  0  0  0
 31 32  1  0  0  0
 32 33  1  0  0  0
 32 30  1  0  0  0
 30 29  1  0  0  0
 29 28  1  0  0  0
 28 21  1  0  0  0
 21 22  2  0  0  0
 22 23  1  0  0  0
 23 24  1  0  0  0
 23 25  2  0  0  0
 25 26  1  0  0  0
 26 19  1  0  0  0
 19  1  1  0  0  0
  1  2  2  0  0  0
  2  3  1  0  0  0
  3  4  2  0  0  0
  4  5  1  0  0  0
  5  6  1  0  0  0
  6  7  2  0  0  0
  6  8  1  0  0  0
  8  9  1  0  0  0
  9 10  2  0  0  0
 10 11  1  0  0  0
 11 12  1  0  0  0
 11 13  2  0  0  0
 13 14  1  0  0  0
 14 15  2  0  0  0
 15 16  1  0  0  0
 16 17  2  0  0  0
 26 27  2  0  0  0
 27 21  1  0  0  0
 17  1  1  0  0  0
 16  4  1  0  0  0
 15  9  1  0  0  0
 19 20  1  0  0  0
  8 18  1  0  0  0
M  END
> <minimizedAffinity>
-7.99420

> <CNNscore>
0.3036099374

> <CNNaffinity>
6.9974374771

> <CNN_VS>
2.1244914532

> <CNNaffinity_variance>
0.0516640171

$$$$
[H]c1nc(N([H])c2c([H])c(Cl)c([H])c(C([H])([H])C([H])([H])C([H])([H])N(C([H])([H])[H])C([H])([H])[H])c2[H])nc2c1C([H])([H])C(=S)N([H])c1c([H])c(Cl)c([H])c([H])c1-2


 33 36  0  0  0  0  0  0  0  0999 V2000
   56.1755   -4.4136   -9.8863 C   0  0  0  0  0  0  0  0  0  0  0  0
   55.0900   -3.7562  -10.2517 N   0  0  0  0  0  0  0  0  0  0  0  0
   53.9499   -3.6217   -9.5819 C   0  0  0  0  0  0  0  0  0  0  0  0
   53.8946   -4.2582   -8.3308 C   0  0  0  0  0  0  0  0  0  0  0  0
   52.6117   -4.0570   -7.6524 C   0  0  0  0  0  0  0  0  0  0  0  0
   52.0531   -5.2370   -6.9718 C   0  0  0  0  0  0  0  0  0  0  0  0
   50.5283   -5.7111   -7.3392 S   0  0  0  0  0  0  0  0  0  0  0  0
   52.7422   -6.0333   -5.9810 N   0  0  0  0  0  0  0  0  0  0  0  0
   54.1396   -6.1732   -5.7802 C   0  0  0  0  0  0  0  0  0  0  0  0
   54.4412   -6.8509   -4.6269 C   0  0  0  0  0  0  0  0  0  0  0  0
   55.7835   -7.0604   -4.3019 C   0  0  0  0  0  0  0  0  0  0  0  0
   56.2628   -7.9112   -2.8562 Cl  0  0  0  0  0  0  0  0  0  0  0  0
   56.7603   -6.5814   -5.1476 C   0  0  0  0  0  0  0  0  0  0  0  0
   56.4571   -5.8923   -6.3204 C   0  0  0  0  0  0  0  0  0  0  0  0
   55.1277   -5.7002   -6.6158 C   0  0  0  0  0  0  0  0  0  0  0  0
   54.9895   -4.9610   -7.8877 C   0  0  0  0  0  0  0  0  0  0  0  0
   56.0787   -5.0233   -8.6528 N   0  0  0  0  0  0  0  0  0  0  0  0
   52.1256   -6.5668   -5.3386 H   0  0  0  0  0  0  0  0  0  0  0  0
   57.3826   -4.5759  -10.5570 N   0  0  0  0  0  0  0  0  0  0  0  0
   58.2042   -5.0145  -10.0168 H   0  0  0  0  0  0  0  0  0  0  0  0
   59.2839   -3.6708  -13.5998 C   0  0  0  0  0  0  0  0  0  0  0  0
   58.2802   -3.5087  -14.5201 C   0  0  0  0  0  0  0  0  0  0  0  0
   56.9711   -3.6805  -14.1791 C   0  0  0  0  0  0  0  0  0  0  0  0
   55.6638   -3.4818  -15.3289 Cl  0  0  0  0  0  0  0  0  0  0  0  0
   56.6735   -4.0261  -12.8691 C   0  0  0  0  0  0  0  0  0  0  0  0
   57.6269   -4.2039  -11.9020 C   0  0  0  0  0  0  0  0  0  0  0  0
   58.9563   -4.0117  -12.3180 C   0  0  0  0  0  0  0  0  0  0  0  0
   60.7209   -3.4910  -13.9411 C   0  0  0  0  0  0  0  0  0  0  0  0
   61.2426   -2.1622  -13.4336 C   0  0  0  0  0  0  0  0  0  0  0  0
   62.6777   -2.0031  -13.8584 C   0  0  0  0  0  0  0  0  0  0  0  0
   64.5092   -0.4778  -13.9427 C   0  0  0  0  0  0  0  0  0  0  0  0
   63.0783   -0.5968  -13.7185 N   0  0  0  0  0  0  0  0  0  0  0  0
   62.7199   -0.1378  -12.3803 C   0  0  0  0  0  0  0  0  0  0  0  0
 31 32  1  0  0  0
 32 33  1  0  0  0
 32 30  1  0  0  0
 30 29  1  0  0  0
 29 28  1  0  0  0
 28 21  1  0  0  0
 21 22  2  0  0  0
 22 23  1  0  0  0
 23 24  1  0  0  0
 23 25  2  0  0  0
 25 26  1  0  0  0
 26 19  1  0  0  0
 19  1  1  0  0  0
  1  2  2  0  0  0
  2  3  1  0  0  0
  3  4  2  0  0  0
  4  5  1  0  0  0
  5  6  1  0  0  0
  6  7  2  0  0  0
  6  8  1  0  0  0
  8  9  1  0  0  0
  9 10  2  0  0  0
 10 11  1  0  0  0
 11 12  1  0  0  0
 11 13  2  0  0  0
 13 14  1  0  0  0
 14 15  2  0  0  0
 15 16  1  0  0  0
 16 17  2  0  0  0
 26 27  2  0  0  0
 27 21  1  0  0  0
 17  1  1  0  0  0
 16  4  1  0  0  0
 15  9  1  0  0  0
 19 20  1  0  0  0
  8 18  1  0  0  0
M  END
> <minimizedAffinity>
-7.69357

> <CNNscore>
0.2929269969

> <CNNaffinity>
6.8237752914

> <CNN_VS>
1.9988679886

> <CNNaffinity_variance>
0.0598111227

$$$$
[H]c1nc(N([H])c2c([H])c(Cl)c([H])c(C([H])([H])C([H])([H])C([H])([H])N(C([H])([H])[H])C([H])([H])[H])c2[H])nc2c1C([H])([H])C(=S)N([H])c1c([H])c(Cl)c([H])c([H])c1-2


 33 36  0  0  0  0  0  0  0  0999 V2000
   55.9954   -6.1584   -5.3474 C   0  0  0  0  0  0  0  0  0  0  0  0
   54.6955   -6.0934   -5.1238 N   0  0  0  0  0  0  0  0  0  0  0  0
   53.7424   -5.6748   -5.9503 C   0  0  0  0  0  0  0  0  0  0  0  0
   54.1730   -5.2494   -7.2179 C   0  0  0  0  0  0  0  0  0  0  0  0
   53.0656   -4.8119   -8.0718 C   0  0  0  0  0  0  0  0  0  0  0  0
   53.3106   -3.5993   -8.8702 C   0  0  0  0  0  0  0  0  0  0  0  0
   52.2567   -2.3503   -8.7508 S   0  0  0  0  0  0  0  0  0  0  0  0
   54.4211   -3.4063   -9.7758 N   0  0  0  0  0  0  0  0  0  0  0  0
   55.6835   -4.0535   -9.7716 C   0  0  0  0  0  0  0  0  0  0  0  0
   56.4238   -3.7722  -10.8911 C   0  0  0  0  0  0  0  0  0  0  0  0
   57.6911   -4.3454  -11.0203 C   0  0  0  0  0  0  0  0  0  0  0  0
   58.7042   -4.0455  -12.4086 Cl  0  0  0  0  0  0  0  0  0  0  0  0
   58.1571   -5.1730  -10.0221 C   0  0  0  0  0  0  0  0  0  0  0  0
   57.4073   -5.4608   -8.8831 C   0  0  0  0  0  0  0  0  0  0  0  0
   56.1634   -4.8832   -8.7818 C   0  0  0  0  0  0  0  0  0  0  0  0
   55.5135   -5.2899   -7.5186 C   0  0  0  0  0  0  0  0  0  0  0  0
   56.3750   -5.7315   -6.6029 N   0  0  0  0  0  0  0  0  0  0  0  0
   54.2635   -2.7018  -10.5216 H   0  0  0  0  0  0  0  0  0  0  0  0
   57.0192   -6.5892   -4.5111 N   0  0  0  0  0  0  0  0  0  0  0  0
   58.0001   -6.7127   -4.9378 H   0  0  0  0  0  0  0  0  0  0  0  0
   55.9555   -6.2152   -0.9868 C   0  0  0  0  0  0  0  0  0  0  0  0
   56.4768   -7.3473   -0.4145 C   0  0  0  0  0  0  0  0  0  0  0  0
   57.1869   -8.2504   -1.1491 C   0  0  0  0  0  0  0  0  0  0  0  0
   57.8668   -9.7068   -0.4510 Cl  0  0  0  0  0  0  0  0  0  0  0  0
   57.3723   -7.9974   -2.5003 C   0  0  0  0  0  0  0  0  0  0  0  0
   56.8784   -6.8878   -3.1334 C   0  0  0  0  0  0  0  0  0  0  0  0
   56.1562   -5.9965   -2.3203 C   0  0  0  0  0  0  0  0  0  0  0  0
   55.1763   -5.2118   -0.2123 C   0  0  0  0  0  0  0  0  0  0  0  0
   53.7180   -5.6101   -0.1106 C   0  0  0  0  0  0  0  0  0  0  0  0
   52.9620   -5.0055   -1.2630 C   0  0  0  0  0  0  0  0  0  0  0  0
   51.0345   -5.5893   -2.5406 C   0  0  0  0  0  0  0  0  0  0  0  0
   52.3091   -6.0709   -2.0351 N   0  0  0  0  0  0  0  0  0  0  0  0
   52.1222   -7.2308   -1.1692 C   0  0  0  0  0  0  0  0  0  0  0  0
 31 32  1  0  0  0
 32 33  1  0  0  0
 32 30  1  0  0  0
 30 29  1  0  0  0
 29 28  1  0  0  0
 28 21  1  0  0  0
 21 22  2  0  0  0
 22 23  1  0  0  0
 23 24  1  0  0  0
 23 25  2  0  0  0
 25 26  1  0  0  0
 26 19  1  0  0  0
 19  1  1  0  0  0
  1  2  2  0  0  0
  2  3  1  0  0  0
  3  4  2  0  0  0
  4  5  1  0  0  0
  5  6  1  0  0  0
  6  7  2  0  0  0
  6  8  1  0  0  0
  8  9  1  0  0  0
  9 10  2  0  0  0
 10 11  1  0  0  0
 11 12  1  0  0  0
 11 13  2  0  0  0
 13 14  1  0  0  0
 14 15  2  0  0  0
 15 16  1  0  0  0
 16 17  2  0  0  0
 26 27  2  0  0  0
 27 21  1  0  0  0
 17  1  1  0  0  0
 16  4  1  0  0  0
 15  9  1  0  0  0
 19 20  1  0  0  0
  8 18  1  0  0  0
M  END
> <minimizedAffinity>
-8.68687

> <CNNscore>
0.2799818218

> <CNNaffinity>
7.1004791260

> <CNN_VS>
1.9880050421

> <CNNaffinity_variance>
0.0350955650

$$$$
[H]c1nc(N([H])c2c([H])c([H])c([H])c(C([H])([H])C([H])([H])C([H])([H])N(C([H])([H])[H])C([H])([H])[H])c2[H])nc2c1C([H])([H])C(=S)N([H])c1c([H])c(Cl)c([H])c([H])c1-2


 32 35  0  0  0  0  0  0  0  0999 V2000
   53.7613   -3.6092   -9.7357 C   0  0  0  0  0  0  0  0  0  0  0  0
   52.5572   -3.0645   -9.6003 N   0  0  0  0  0  0  0  0  0  0  0  0
   51.8028   -3.1821   -8.4967 C   0  0  0  0  0  0  0  0  0  0  0  0
   52.2469   -3.9037   -7.3905 C   0  0  0  0  0  0  0  0  0  0  0  0
   51.2243   -3.8580   -6.3474 C   0  0  0  0  0  0  0  0  0  0  0  0
   51.3055   -4.9066   -5.3380 C   0  0  0  0  0  0  0  0  0  0  0  0
   49.8709   -5.2536   -4.6216 S   0  0  0  0  0  0  0  0  0  0  0  0
   52.3690   -5.7152   -4.8214 N   0  0  0  0  0  0  0  0  0  0  0  0
   53.6837   -5.8064   -5.3378 C   0  0  0  0  0  0  0  0  0  0  0  0
   54.4855   -6.5478   -4.4832 C   0  0  0  0  0  0  0  0  0  0  0  0
   55.8106   -6.7596   -4.7998 C   0  0  0  0  0  0  0  0  0  0  0  0
   56.8623   -7.6969   -3.7393 Cl  0  0  0  0  0  0  0  0  0  0  0  0
   56.3166   -6.2255   -5.9694 C   0  0  0  0  0  0  0  0  0  0  0  0
   55.4887   -5.4802   -6.8174 C   0  0  0  0  0  0  0  0  0  0  0  0
   54.1616   -5.2671   -6.5021 C   0  0  0  0  0  0  0  0  0  0  0  0
   53.4810   -4.4646   -7.5234 C   0  0  0  0  0  0  0  0  0  0  0  0
   54.1943   -4.3193   -8.6427 N   0  0  0  0  0  0  0  0  0  0  0  0
   52.1625   -6.2966   -3.9831 H   0  0  0  0  0  0  0  0  0  0  0  0
   54.6094   -3.5254  -10.8704 N   0  0  0  0  0  0  0  0  0  0  0  0
   54.2076   -3.0893  -11.7739 H   0  0  0  0  0  0  0  0  0  0  0  0
   57.9632   -4.9665  -10.1122 C   0  0  0  0  0  0  0  0  0  0  0  0
   58.5439   -4.7974  -11.3234 C   0  0  0  0  0  0  0  0  0  0  0  0
   57.8802   -4.2244  -12.3727 C   0  0  0  0  0  0  0  0  0  0  0  0
   56.5960   -3.8122  -12.1897 C   0  0  0  0  0  0  0  0  0  0  0  0
   55.9469   -3.9599  -10.9655 C   0  0  0  0  0  0  0  0  0  0  0  0
   56.6464   -4.5394   -9.9398 C   0  0  0  0  0  0  0  0  0  0  0  0
   58.6427   -5.5842   -8.9393 C   0  0  0  0  0  0  0  0  0  0  0  0
   59.7066   -6.5641   -9.3834 C   0  0  0  0  0  0  0  0  0  0  0  0
   60.9772   -6.3092   -8.6349 C   0  0  0  0  0  0  0  0  0  0  0  0
   62.2088   -7.9670   -7.3967 C   0  0  0  0  0  0  0  0  0  0  0  0
   61.7846   -7.5064   -8.6877 N   0  0  0  0  0  0  0  0  0  0  0  0
   61.1561   -8.5435   -9.4717 C   0  0  0  0  0  0  0  0  0  0  0  0
 30 31  1  0  0  0
 31 32  1  0  0  0
 31 29  1  0  0  0
 29 28  1  0  0  0
 28 27  1  0  0  0
 27 21  1  0  0  0
 21 22  2  0  0  0
 22 23  1  0  0  0
 23 24  2  0  0  0
 24 25  1  0  0  0
 25 19  1  0  0  0
 19  1  1  0  0  0
  1  2  2  0  0  0
  2  3  1  0  0  0
  3  4  2  0  0  0
  4  5  1  0  0  0
  5  6  1  0  0  0
  6  7  2  0  0  0
  6  8  1  0  0  0
  8  9  1  0  0  0
  9 10  2  0  0  0
 10 11  1  0  0  0
 11 12  1  0  0  0
 11 13  2  0  0  0
 13 14  1  0  0  0
 14 15  2  0  0  0
 15 16  1  0  0  0
 16 17  2  0  0  0
 25 26  2  0  0  0
 26 21  1  0  0  0
 17  1  1  0  0  0
 16  4  1  0  0  0
 15  9  1  0  0  0
 19 20  1  0  0  0
  8 18  1  0  0  0
M  END
> <minimizedAffinity>
-9.10203

> <CNNscore>
0.8765774369

> <CNNaffinity>
7.7917337418

> <CNN_VS>
6.8300580978

> <CNNaffinity_variance>
0.0961648971

$$$$
[H]c1nc(N([H])c2c([H])c([H])c([H])c(C([H])([H])C([H])([H])C([H])([H])N(C([H])([H])[H])C([H])([H])[H])c2[H])nc2c1C([H])([H])C(=S)N([H])c1c([H])c(Cl)c([H])c([H])c1-2


 32 35  0  0  0  0  0  0  0  0999 V2000
   52.5407   -3.3667   -8.3702 C   0  0  0  0  0  0  0  0  0  0  0  0
   53.2081   -3.1427   -9.4969 N   0  0  0  0  0  0  0  0  0  0  0  0
   54.4198   -3.6543   -9.7631 C   0  0  0  0  0  0  0  0  0  0  0  0
   55.0744   -4.4769   -8.8484 C   0  0  0  0  0  0  0  0  0  0  0  0
   56.3636   -4.8811   -9.4055 C   0  0  0  0  0  0  0  0  0  0  0  0
   57.3532   -5.3389   -8.4380 C   0  0  0  0  0  0  0  0  0  0  0  0
   58.9058   -5.1455   -8.9315 S   0  0  0  0  0  0  0  0  0  0  0  0
   57.2773   -5.9285   -7.1348 N   0  0  0  0  0  0  0  0  0  0  0  0
   56.1145   -6.0647   -6.3394 C   0  0  0  0  0  0  0  0  0  0  0  0
   56.3857   -6.8362   -5.2195 C   0  0  0  0  0  0  0  0  0  0  0  0
   55.3847   -7.0934   -4.3069 C   0  0  0  0  0  0  0  0  0  0  0  0
   55.6900   -8.0696   -2.8705 Cl  0  0  0  0  0  0  0  0  0  0  0  0
   54.1234   -6.5743   -4.5276 C   0  0  0  0  0  0  0  0  0  0  0  0
   53.8722   -5.7980   -5.6653 C   0  0  0  0  0  0  0  0  0  0  0  0
   54.8732   -5.5394   -6.5801 C   0  0  0  0  0  0  0  0  0  0  0  0
   54.3950   -4.7102   -7.6910 C   0  0  0  0  0  0  0  0  0  0  0  0
   53.1902   -4.1779   -7.4722 N   0  0  0  0  0  0  0  0  0  0  0  0
   58.1609   -6.2954   -6.7248 H   0  0  0  0  0  0  0  0  0  0  0  0
   51.2614   -2.8591   -8.0249 N   0  0  0  0  0  0  0  0  0  0  0  0
   50.7828   -2.1768   -8.7129 H   0  0  0  0  0  0  0  0  0  0  0  0
   49.9852   -4.4246   -4.8912 C   0  0  0  0  0  0  0  0  0  0  0  0
   49.0197   -3.5264   -4.5849 C   0  0  0  0  0  0  0  0  0  0  0  0
   48.7691   -2.4347   -5.3693 C   0  0  0  0  0  0  0  0  0  0  0  0
   49.5156   -2.2489   -6.4921 C   0  0  0  0  0  0  0  0  0  0  0  0
   50.5224   -3.1400   -6.8580 C   0  0  0  0  0  0  0  0  0  0  0  0
   50.7424   -4.2207   -6.0450 C   0  0  0  0  0  0  0  0  0  0  0  0
   50.2967   -5.6282   -4.0705 C   0  0  0  0  0  0  0  0  0  0  0  0
   51.0215   -5.2445   -2.7990 C   0  0  0  0  0  0  0  0  0  0  0  0
   51.1287   -6.4332   -1.8962 C   0  0  0  0  0  0  0  0  0  0  0  0
   53.0725   -5.2015   -1.1869 C   0  0  0  0  0  0  0  0  0  0  0  0
   52.4771   -6.4926   -1.3802 N   0  0  0  0  0  0  0  0  0  0  0  0
   52.5666   -7.3300   -0.2072 C   0  0  0  0  0  0  0  0  0  0  0  0
 30 31  1  0  0  0
 31 32  1  0  0  0
 31 29  1  0  0  0
 29 28  1  0  0  0
 28 27  1  0  0  0
 27 21  1  0  0  0
 21 22  2  0  0  0
 22 23  1  0  0  0
 23 24  2  0  0  0
 24 25  1  0  0  0
 25 19  1  0  0  0
 19  1  1  0  0  0
  1  2  2  0  0  0
  2  3  1  0  0  0
  3  4  2  0  0  0
  4  5  1  0  0  0
  5  6  1  0  0  0
  6  7  2  0  0  0
  6  8  1  0  0  0
  8  9  1  0  0  0
  9 10  2  0  0  0
 10 11  1  0  0  0
 11 12  1  0  0  0
 11 13  2  0  0  0
 13 14  1  0  0  0
 14 15  2  0  0  0
 15 16  1  0  0  0
 16 17  2  0  0  0
 25 26  2  0  0  0
 26 21  1  0  0  0
 17  1  1  0  0  0
 16  4  1  0  0  0
 15  9  1  0  0  0
 19 20  1  0  0  0
  8 18  1  0  0  0
M  END
> <minimizedAffinity>
-10.35515

> <CNNscore>
0.8206933737

> <CNNaffinity>
7.9686851501

> <CNN_VS>
6.5398468971

> <CNNaffinity_variance>
0.1309224665

$$$$
[H]c1nc(N([H])c2c([H])c([H])c([H])c(C([H])([H])C([H])([H])C([H])([H])N(C([H])([H])[H])C([H])([H])[H])c2[H])nc2c1C([H])([H])C(=S)N([H])c1c([H])c(Cl)c([H])c([H])c1-2


 32 35  0  0  0  0  0  0  0  0999 V2000
   52.3713   -3.7936   -8.1264 C   0  0  0  0  0  0  0  0  0  0  0  0
   51.5117   -2.8073   -8.3568 N   0  0  0  0  0  0  0  0  0  0  0  0
   50.5337   -2.4538   -7.5086 C   0  0  0  0  0  0  0  0  0  0  0  0
   50.3521   -3.1178   -6.2970 C   0  0  0  0  0  0  0  0  0  0  0  0
   49.2223   -2.5201   -5.5885 C   0  0  0  0  0  0  0  0  0  0  0  0
   48.6098   -3.3533   -4.5610 C   0  0  0  0  0  0  0  0  0  0  0  0
   47.0348   -2.9995   -4.2682 S   0  0  0  0  0  0  0  0  0  0  0  0
   49.0775   -4.4269   -3.7361 N   0  0  0  0  0  0  0  0  0  0  0  0
   50.3160   -5.1017   -3.8555 C   0  0  0  0  0  0  0  0  0  0  0  0
   50.5004   -5.9613   -2.7832 C   0  0  0  0  0  0  0  0  0  0  0  0
   51.6491   -6.7199   -2.7039 C   0  0  0  0  0  0  0  0  0  0  0  0
   51.9203   -7.8245   -1.3565 Cl  0  0  0  0  0  0  0  0  0  0  0  0
   52.5995   -6.6078   -3.7005 C   0  0  0  0  0  0  0  0  0  0  0  0
   52.3923   -5.7333   -4.7740 C   0  0  0  0  0  0  0  0  0  0  0  0
   51.2428   -4.9730   -4.8551 C   0  0  0  0  0  0  0  0  0  0  0  0
   51.2306   -4.1303   -6.0551 C   0  0  0  0  0  0  0  0  0  0  0  0
   52.1880   -4.4448   -6.9311 N   0  0  0  0  0  0  0  0  0  0  0  0
   48.4501   -4.7487   -2.9706 H   0  0  0  0  0  0  0  0  0  0  0  0
   53.4247   -4.2190   -8.9767 N   0  0  0  0  0  0  0  0  0  0  0  0
   53.2166   -4.3187  -10.0324 H   0  0  0  0  0  0  0  0  0  0  0  0
   56.4135   -5.4271   -7.1038 C   0  0  0  0  0  0  0  0  0  0  0  0
   57.3651   -5.1553   -8.0276 C   0  0  0  0  0  0  0  0  0  0  0  0
   57.0637   -4.5865   -9.2341 C   0  0  0  0  0  0  0  0  0  0  0  0
   55.7655   -4.2857   -9.5111 C   0  0  0  0  0  0  0  0  0  0  0  0
   54.7437   -4.5422   -8.5991 C   0  0  0  0  0  0  0  0  0  0  0  0
   55.0873   -5.1134   -7.4020 C   0  0  0  0  0  0  0  0  0  0  0  0
   56.6901   -6.0450   -5.7768 C   0  0  0  0  0  0  0  0  0  0  0  0
   55.9619   -5.3087   -4.6738 C   0  0  0  0  0  0  0  0  0  0  0  0
   56.1895   -5.9986   -3.3654 C   0  0  0  0  0  0  0  0  0  0  0  0
   55.1942   -5.4876   -1.2331 C   0  0  0  0  0  0  0  0  0  0  0  0
   56.0297   -5.0292   -2.3059 N   0  0  0  0  0  0  0  0  0  0  0  0
   57.3011   -4.5222   -1.8458 C   0  0  0  0  0  0  0  0  0  0  0  0
 30 31  1  0  0  0
 31 32  1  0  0  0
 31 29  1  0  0  0
 29 28  1  0  0  0
 28 27  1  0  0  0
 27 21  1  0  0  0
 21 22  2  0  0  0
 22 23  1  0  0  0
 23 24  2  0  0  0
 24 25  1  0  0  0
 25 19  1  0  0  0
 19  1  1  0  0  0
  1  2  2  0  0  0
  2  3  1  0  0  0
  3  4  2  0  0  0
  4  5  1  0  0  0
  5  6  1  0  0  0
  6  7  2  0  0  0
  6  8  1  0  0  0
  8  9  1  0  0  0
  9 10  2  0  0  0
 10 11  1  0  0  0
 11 12  1  0  0  0
 11 13  2  0  0  0
 13 14  1  0  0  0
 14 15  2  0  0  0
 15 16  1  0  0  0
 16 17  2  0  0  0
 25 26  2  0  0  0
 26 21  1  0  0  0
 17  1  1  0  0  0
 16  4  1  0  0  0
 15  9  1  0  0  0
 19 20  1  0  0  0
  8 18  1  0  0  0
M  END
> <minimizedAffinity>
-9.40271

> <CNNscore>
0.7138510346

> <CNNaffinity>
8.0554466248

> <CNN_VS>
5.7503890991

> <CNNaffinity_variance>
0.1611499786

$$$$
[H]c1nc(N([H])c2c([H])c([H])c([H])c(C([H])([H])C([H])([H])C([H])([H])N(C([H])([H])[H])C([H])([H])[H])c2[H])nc2c1C([H])([H])C(=S)N([H])c1c([H])c(Cl)c([H])c([H])c1-2


 32 35  0  0  0  0  0  0  0  0999 V2000
   51.9048   -3.2466   -8.1396 C   0  0  0  0  0  0  0  0  0  0  0  0
   50.8861   -2.3938   -8.1527 N   0  0  0  0  0  0  0  0  0  0  0  0
   49.9732   -2.3038   -7.1733 C   0  0  0  0  0  0  0  0  0  0  0  0
   50.0370   -3.1226   -6.0475 C   0  0  0  0  0  0  0  0  0  0  0  0
   48.9220   -2.8020   -5.1588 C   0  0  0  0  0  0  0  0  0  0  0  0
   48.5666   -3.8357   -4.1945 C   0  0  0  0  0  0  0  0  0  0  0  0
   47.0020   -3.7793   -3.7042 S   0  0  0  0  0  0  0  0  0  0  0  0
   49.2836   -4.9058   -3.5679 N   0  0  0  0  0  0  0  0  0  0  0  0
   50.5863   -5.3515   -3.8962 C   0  0  0  0  0  0  0  0  0  0  0  0
   51.0223   -6.2864   -2.9696 C   0  0  0  0  0  0  0  0  0  0  0  0
   52.2728   -6.8515   -3.1041 C   0  0  0  0  0  0  0  0  0  0  0  0
   52.8632   -8.0438   -1.9468 Cl  0  0  0  0  0  0  0  0  0  0  0  0
   53.0716   -6.4728   -4.1660 C   0  0  0  0  0  0  0  0  0  0  0  0
   52.6107   -5.5270   -5.0897 C   0  0  0  0  0  0  0  0  0  0  0  0
   51.3590   -4.9601   -4.9566 C   0  0  0  0  0  0  0  0  0  0  0  0
   51.0794   -3.9992   -6.0284 C   0  0  0  0  0  0  0  0  0  0  0  0
   51.9631   -4.0512   -7.0281 N   0  0  0  0  0  0  0  0  0  0  0  0
   48.8060   -5.4110   -2.7932 H   0  0  0  0  0  0  0  0  0  0  0  0
   52.9022   -3.3946   -9.1380 N   0  0  0  0  0  0  0  0  0  0  0  0
   52.6297   -3.1878  -10.1631 H   0  0  0  0  0  0  0  0  0  0  0  0
   56.4503   -4.3896   -9.7045 C   0  0  0  0  0  0  0  0  0  0  0  0
   56.8370   -4.5344   -8.4151 C   0  0  0  0  0  0  0  0  0  0  0  0
   55.9779   -4.3250   -7.3721 C   0  0  0  0  0  0  0  0  0  0  0  0
   54.6949   -3.9598   -7.6425 C   0  0  0  0  0  0  0  0  0  0  0  0
   54.2402   -3.7959   -8.9495 C   0  0  0  0  0  0  0  0  0  0  0  0
   55.1323   -4.0146   -9.9661 C   0  0  0  0  0  0  0  0  0  0  0  0
   57.3467   -4.6059  -10.8744 C   0  0  0  0  0  0  0  0  0  0  0  0
   56.6436   -4.2564  -12.1678 C   0  0  0  0  0  0  0  0  0  0  0  0
   57.6383   -3.7587  -13.1690 C   0  0  0  0  0  0  0  0  0  0  0  0
   55.9830   -4.8969  -14.4968 C   0  0  0  0  0  0  0  0  0  0  0  0
   57.2806   -4.2850  -14.4663 N   0  0  0  0  0  0  0  0  0  0  0  0
   57.4603   -3.3049  -15.5114 C   0  0  0  0  0  0  0  0  0  0  0  0
 30 31  1  0  0  0
 31 32  1  0  0  0
 31 29  1  0  0  0
 29 28  1  0  0  0
 28 27  1  0  0  0
 27 21  1  0  0  0
 21 22  2  0  0  0
 22 23  1  0  0  0
 23 24  2  0  0  0
 24 25  1  0  0  0
 25 19  1  0  0  0
 19  1  1  0  0  0
  1  2  2  0  0  0
  2  3  1  0  0  0
  3  4  2  0  0  0
  4  5  1  0  0  0
  5  6  1  0  0  0
  6  7  2  0  0  0
  6  8  1  0  0  0
  8  9  1  0  0  0
  9 10  2  0  0  0
 10 11  1  0  0  0
 11 12  1  0  0  0
 11 13  2  0  0  0
 13 14  1  0  0  0
 14 15  2  0  0  0
 15 16  1  0  0  0
 16 17  2  0  0  0
 25 26  2  0  0  0
 26 21  1  0  0  0
 17  1  1  0  0  0
 16  4  1  0  0  0
 15  9  1  0  0  0
 19 20  1  0  0  0
  8 18  1  0  0  0
M  END
> <minimizedAffinity>
-9.87967

> <CNNscore>
0.7034935951

> <CNNaffinity>
7.8415551186

> <CNN_VS>
5.5164837837

> <CNNaffinity_variance>
0.0812676996

$$$$
[H]c1nc(N([H])c2c([H])c([H])c([H])c(C([H])([H])C([H])([H])C([H])([H])N(C([H])([H])[H])C([H])([H])[H])c2[H])nc2c1C([H])([H])C(=S)N([H])c1c([H])c(Cl)c([H])c([H])c1-2


 32 35  0  0  0  0  0  0  0  0999 V2000
   52.2928   -3.7668   -8.0357 C   0  0  0  0  0  0  0  0  0  0  0  0
   51.4110   -2.7991   -8.2616 N   0  0  0  0  0  0  0  0  0  0  0  0
   50.4290   -2.4680   -7.4090 C   0  0  0  0  0  0  0  0  0  0  0  0
   50.2667   -3.1372   -6.1975 C   0  0  0  0  0  0  0  0  0  0  0  0
   49.1270   -2.5650   -5.4837 C   0  0  0  0  0  0  0  0  0  0  0  0
   48.5370   -3.4125   -4.4549 C   0  0  0  0  0  0  0  0  0  0  0  0
   46.9559   -3.0934   -4.1554 S   0  0  0  0  0  0  0  0  0  0  0  0
   49.0313   -4.4765   -3.6331 N   0  0  0  0  0  0  0  0  0  0  0  0
   50.2837   -5.1240   -3.7583 C   0  0  0  0  0  0  0  0  0  0  0  0
   50.4911   -5.9807   -2.6878 C   0  0  0  0  0  0  0  0  0  0  0  0
   51.6563   -6.7141   -2.6140 C   0  0  0  0  0  0  0  0  0  0  0  0
   51.9570   -7.8141   -1.2690 Cl  0  0  0  0  0  0  0  0  0  0  0  0
   52.6001   -6.5802   -3.6142 C   0  0  0  0  0  0  0  0  0  0  0  0
   52.3695   -5.7093   -4.6858 C   0  0  0  0  0  0  0  0  0  0  0  0
   51.2035   -4.9741   -4.7615 C   0  0  0  0  0  0  0  0  0  0  0  0
   51.1680   -4.1305   -5.9604 C   0  0  0  0  0  0  0  0  0  0  0  0
   52.1285   -4.4231   -6.8405 N   0  0  0  0  0  0  0  0  0  0  0  0
   48.4141   -4.8128   -2.8655 H   0  0  0  0  0  0  0  0  0  0  0  0
   53.3518   -4.1682   -8.8907 N   0  0  0  0  0  0  0  0  0  0  0  0
   53.1506   -4.2385   -9.9502 H   0  0  0  0  0  0  0  0  0  0  0  0
   57.0071   -4.9008   -8.9363 C   0  0  0  0  0  0  0  0  0  0  0  0
   57.1943   -5.1214   -7.6137 C   0  0  0  0  0  0  0  0  0  0  0  0
   56.1682   -5.0453   -6.7130 C   0  0  0  0  0  0  0  0  0  0  0  0
   54.9213   -4.7383   -7.1641 C   0  0  0  0  0  0  0  0  0  0  0  0
   54.6685   -4.5015   -8.5138 C   0  0  0  0  0  0  0  0  0  0  0  0
   55.7236   -4.5868   -9.3837 C   0  0  0  0  0  0  0  0  0  0  0  0
   58.0905   -4.9716   -9.9562 C   0  0  0  0  0  0  0  0  0  0  0  0
   58.9559   -6.1943   -9.7436 C   0  0  0  0  0  0  0  0  0  0  0  0
   60.1924   -5.8174   -8.9896 C   0  0  0  0  0  0  0  0  0  0  0  0
   62.5215   -6.3941   -8.7858 C   0  0  0  0  0  0  0  0  0  0  0  0
   61.2912   -6.6099   -9.4921 N   0  0  0  0  0  0  0  0  0  0  0  0
   60.9430   -8.0077   -9.5928 C   0  0  0  0  0  0  0  0  0  0  0  0
 30 31  1  0  0  0
 31 32  1  0  0  0
 31 29  1  0  0  0
 29 28  1  0  0  0
 28 27  1  0  0  0
 27 21  1  0  0  0
 21 22  2  0  0  0
 22 23  1  0  0  0
 23 24  2  0  0  0
 24 25  1  0  0  0
 25 19  1  0  0  0
 19  1  1  0  0  0
  1  2  2  0  0  0
  2  3  1  0  0  0
  3  4  2  0  0  0
  4  5  1  0  0  0
  5  6  1  0  0  0
  6  7  2  0  0  0
  6  8  1  0  0  0
  8  9  1  0  0  0
  9 10  2  0  0  0
 10 11  1  0  0  0
 11 12  1  0  0  0
 11 13  2  0  0  0
 13 14  1  0  0  0
 14 15  2  0  0  0
 15 16  1  0  0  0
 16 17  2  0  0  0
 25 26  2  0  0  0
 26 21  1  0  0  0
 17  1  1  0  0  0
 16  4  1  0  0  0
 15  9  1  0  0  0
 19 20  1  0  0  0
  8 18  1  0  0  0
M  END
> <minimizedAffinity>
-9.26446

> <CNNscore>
0.6137722731

> <CNNaffinity>
7.6244368553

> <CNN_VS>
4.6796679497

> <CNNaffinity_variance>
0.2492796928

$$$$
[H]c1nc(N([H])c2c([H])c([H])c([H])c(C([H])([H])C([H])([H])C([H])([H])N(C([H])([H])[H])C([H])([H])[H])c2[H])nc2c1C([H])([H])C(=S)N([H])c1c([H])c(Cl)c([H])c([H])c1-2


 32 35  0  0  0  0  0  0  0  0999 V2000
   55.6427   -3.9061   -9.2280 C   0  0  0  0  0  0  0  0  0  0  0  0
   54.4701   -3.3269   -9.4613 N   0  0  0  0  0  0  0  0  0  0  0  0
   53.3929   -3.4749   -8.6747 C   0  0  0  0  0  0  0  0  0  0  0  0
   53.4368   -4.2684   -7.5301 C   0  0  0  0  0  0  0  0  0  0  0  0
   52.1290   -4.2408   -6.8783 C   0  0  0  0  0  0  0  0  0  0  0  0
   51.8566   -5.3427   -5.9637 C   0  0  0  0  0  0  0  0  0  0  0  0
   50.2608   -5.6754   -5.7787 S   0  0  0  0  0  0  0  0  0  0  0  0
   52.6777   -6.2142   -5.1777 N   0  0  0  0  0  0  0  0  0  0  0  0
   54.0874   -6.3250   -5.2399 C   0  0  0  0  0  0  0  0  0  0  0  0
   54.5514   -7.1378   -4.2167 C   0  0  0  0  0  0  0  0  0  0  0  0
   55.9033   -7.3797   -4.0944 C   0  0  0  0  0  0  0  0  0  0  0  0
   56.5323   -8.4076   -2.8072 Cl  0  0  0  0  0  0  0  0  0  0  0  0
   56.7744   -6.8038   -4.9993 C   0  0  0  0  0  0  0  0  0  0  0  0
   56.2836   -5.9864   -6.0245 C   0  0  0  0  0  0  0  0  0  0  0  0
   54.9304   -5.7431   -6.1485 C   0  0  0  0  0  0  0  0  0  0  0  0
   54.6367   -4.8650   -7.2856 C   0  0  0  0  0  0  0  0  0  0  0  0
   55.6806   -4.6870   -8.0988 N   0  0  0  0  0  0  0  0  0  0  0  0
   52.1975   -6.8307   -4.4901 H   0  0  0  0  0  0  0  0  0  0  0  0
   56.8179   -3.7934  -10.0153 N   0  0  0  0  0  0  0  0  0  0  0  0
   57.7518   -3.5955   -9.5087 H   0  0  0  0  0  0  0  0  0  0  0  0
   58.0828   -3.7959  -13.5224 C   0  0  0  0  0  0  0  0  0  0  0  0
   56.9594   -4.2145  -14.1513 C   0  0  0  0  0  0  0  0  0  0  0  0
   55.8056   -4.4881  -13.4702 C   0  0  0  0  0  0  0  0  0  0  0  0
   55.7901   -4.3334  -12.1181 C   0  0  0  0  0  0  0  0  0  0  0  0
   56.9157   -3.9053  -11.4170 C   0  0  0  0  0  0  0  0  0  0  0  0
   58.0518   -3.6423  -12.1362 C   0  0  0  0  0  0  0  0  0  0  0  0
   59.3628   -3.4852  -14.2182 C   0  0  0  0  0  0  0  0  0  0  0  0
   59.1220   -2.6175  -15.4341 C   0  0  0  0  0  0  0  0  0  0  0  0
   58.7966   -3.4765  -16.6155 C   0  0  0  0  0  0  0  0  0  0  0  0
   56.7878   -2.6484  -17.6535 C   0  0  0  0  0  0  0  0  0  0  0  0
   58.2226   -2.6385  -17.6432 N   0  0  0  0  0  0  0  0  0  0  0  0
   58.7715   -1.3031  -17.6156 C   0  0  0  0  0  0  0  0  0  0  0  0
 30 31  1  0  0  0
 31 32  1  0  0  0
 31 29  1  0  0  0
 29 28  1  0  0  0
 28 27  1  0  0  0
 27 21  1  0  0  0
 21 22  2  0  0  0
 22 23  1  0  0  0
 23 24  2  0  0  0
 24 25  1  0  0  0
 25 19  1  0  0  0
 19  1  1  0  0  0
  1  2  2  0  0  0
  2  3  1  0  0  0
  3  4  2  0  0  0
  4  5  1  0  0  0
  5  6  1  0  0  0
  6  7  2  0  0  0
  6  8  1  0  0  0
  8  9  1  0  0  0
  9 10  2  0  0  0
 10 11  1  0  0  0
 11 12  1  0  0  0
 11 13  2  0  0  0
 13 14  1  0  0  0
 14 15  2  0  0  0
 15 16  1  0  0  0
 16 17  2  0  0  0
 25 26  2  0  0  0
 26 21  1  0  0  0
 17  1  1  0  0  0
 16  4  1  0  0  0
 15  9  1  0  0  0
 19 20  1  0  0  0
  8 18  1  0  0  0
M  END
> <minimizedAffinity>
-6.98293

> <CNNscore>
0.5204267502

> <CNNaffinity>
7.0790190697

> <CNN_VS>
3.6841108799

> <CNNaffinity_variance>
0.1852172762

$$$$
[H]c1nc(N([H])c2c([H])c([H])c([H])c(C([H])([H])C([H])([H])C([H])([H])N(C([H])([H])[H])C([H])([H])[H])c2[H])nc2c1C([H])([H])C(=S)N([H])c1c([H])c(Cl)c([H])c([H])c1-2


 32 35  0  0  0  0  0  0  0  0999 V2000
   53.9995   -4.2598   -8.4168 C   0  0  0  0  0  0  0  0  0  0  0  0
   54.6595   -4.6173   -7.3206 N   0  0  0  0  0  0  0  0  0  0  0  0
   55.9775   -4.8681   -7.2893 C   0  0  0  0  0  0  0  0  0  0  0  0
   56.7605   -4.7668   -8.4375 C   0  0  0  0  0  0  0  0  0  0  0  0
   58.1449   -5.0940   -8.1029 C   0  0  0  0  0  0  0  0  0  0  0  0
   58.9892   -5.4863   -9.2246 C   0  0  0  0  0  0  0  0  0  0  0  0
   60.2475   -6.4518   -8.8051 S   0  0  0  0  0  0  0  0  0  0  0  0
   58.9700   -5.2163  -10.6312 N   0  0  0  0  0  0  0  0  0  0  0  0
   57.9316   -4.5787  -11.3514 C   0  0  0  0  0  0  0  0  0  0  0  0
   58.3322   -4.3328  -12.6560 C   0  0  0  0  0  0  0  0  0  0  0  0
   57.4658   -3.7152  -13.5330 C   0  0  0  0  0  0  0  0  0  0  0  0
   57.9378   -3.3854  -15.1997 Cl  0  0  0  0  0  0  0  0  0  0  0  0
   56.2079   -3.3514  -13.0919 C   0  0  0  0  0  0  0  0  0  0  0  0
   55.8248   -3.6096  -11.7704 C   0  0  0  0  0  0  0  0  0  0  0  0
   56.6908   -4.2278  -10.8908 C   0  0  0  0  0  0  0  0  0  0  0  0
   56.0892   -4.4007   -9.5648 C   0  0  0  0  0  0  0  0  0  0  0  0
   54.7757   -4.1615   -9.5456 N   0  0  0  0  0  0  0  0  0  0  0  0
   59.7982   -5.5157  -11.1860 H   0  0  0  0  0  0  0  0  0  0  0  0
   52.6120   -3.9811   -8.5206 N   0  0  0  0  0  0  0  0  0  0  0  0
   52.2038   -3.7921   -9.5032 H   0  0  0  0  0  0  0  0  0  0  0  0
   50.6570   -4.6819   -5.4243 C   0  0  0  0  0  0  0  0  0  0  0  0
   49.8237   -3.6153   -5.4553 C   0  0  0  0  0  0  0  0  0  0  0  0
   49.8755   -2.6829   -6.4542 C   0  0  0  0  0  0  0  0  0  0  0  0
   50.7946   -2.8353   -7.4464 C   0  0  0  0  0  0  0  0  0  0  0  0
   51.6778   -3.9129   -7.4673 C   0  0  0  0  0  0  0  0  0  0  0  0
   51.5940   -4.8246   -6.4480 C   0  0  0  0  0  0  0  0  0  0  0  0
   50.6405   -5.7238   -4.3598 C   0  0  0  0  0  0  0  0  0  0  0  0
   51.7591   -5.5007   -3.3657 C   0  0  0  0  0  0  0  0  0  0  0  0
   52.4068   -6.8067   -3.0275 C   0  0  0  0  0  0  0  0  0  0  0  0
   54.3868   -6.8194   -4.3979 C   0  0  0  0  0  0  0  0  0  0  0  0
   53.8401   -6.6322   -3.0845 N   0  0  0  0  0  0  0  0  0  0  0  0
   54.2538   -5.3879   -2.4797 C   0  0  0  0  0  0  0  0  0  0  0  0
 30 31  1  0  0  0
 31 32  1  0  0  0
 31 29  1  0  0  0
 29 28  1  0  0  0
 28 27  1  0  0  0
 27 21  1  0  0  0
 21 22  2  0  0  0
 22 23  1  0  0  0
 23 24  2  0  0  0
 24 25  1  0  0  0
 25 19  1  0  0  0
 19  1  1  0  0  0
  1  2  2  0  0  0
  2  3  1  0  0  0
  3  4  2  0  0  0
  4  5  1  0  0  0
  5  6  1  0  0  0
  6  7  2  0  0  0
  6  8  1  0  0  0
  8  9  1  0  0  0
  9 10  2  0  0  0
 10 11  1  0  0  0
 11 12  1  0  0  0
 11 13  2  0  0  0
 13 14  1  0  0  0
 14 15  2  0  0  0
 15 16  1  0  0  0
 16 17  2  0  0  0
 25 26  2  0  0  0
 26 21  1  0  0  0
 17  1  1  0  0  0
 16  4  1  0  0  0
 15  9  1  0  0  0
 19 20  1  0  0  0
  8 18  1  0  0  0
M  END
> <minimizedAffinity>
-9.50530

> <CNNscore>
0.5038638711

> <CNNaffinity>
7.2582712173

> <CNN_VS>
3.6571805477

> <CNNaffinity_variance>
0.0300670210

$$$$
[H]c1nc(N([H])c2c([H])c([H])c([H])c(C([H])([H])C([H])([H])C([H])([H])N(C([H])([H])[H])C([H])([H])[H])c2[H])nc2c1C([H])([H])C(=S)N([H])c1c([H])c(Cl)c([H])c([H])c1-2


 32 35  0  0  0  0  0  0  0  0999 V2000
   56.0375   -4.4256   -9.8750 C   0  0  0  0  0  0  0  0  0  0  0  0
   54.9972   -3.7108  -10.2894 N   0  0  0  0  0  0  0  0  0  0  0  0
   53.8736   -3.5417   -9.5753 C   0  0  0  0  0  0  0  0  0  0  0  0
   53.7218   -4.1219   -8.3175 C   0  0  0  0  0  0  0  0  0  0  0  0
   52.4087   -3.7677   -7.7826 C   0  0  0  0  0  0  0  0  0  0  0  0
   51.9032   -4.6351   -6.7258 C   0  0  0  0  0  0  0  0  0  0  0  0
   50.2666   -4.6641   -6.6140 S   0  0  0  0  0  0  0  0  0  0  0  0
   52.5196   -5.4807   -5.7476 N   0  0  0  0  0  0  0  0  0  0  0  0
   53.8894   -5.8306   -5.6813 C   0  0  0  0  0  0  0  0  0  0  0  0
   54.1533   -6.5196   -4.5071 C   0  0  0  0  0  0  0  0  0  0  0  0
   55.4344   -6.9555   -4.2426 C   0  0  0  0  0  0  0  0  0  0  0  0
   55.8100   -7.8349   -2.7611 Cl  0  0  0  0  0  0  0  0  0  0  0  0
   56.4360   -6.6955   -5.1582 C   0  0  0  0  0  0  0  0  0  0  0  0
   56.1467   -5.9982   -6.3371 C   0  0  0  0  0  0  0  0  0  0  0  0
   54.8647   -5.5610   -6.6038 C   0  0  0  0  0  0  0  0  0  0  0  0
   54.7853   -4.8562   -7.8872 C   0  0  0  0  0  0  0  0  0  0  0  0
   55.8828   -4.9953   -8.6349 N   0  0  0  0  0  0  0  0  0  0  0  0
   51.9058   -5.8819   -5.0088 H   0  0  0  0  0  0  0  0  0  0  0  0
   57.2514   -4.6453  -10.5763 N   0  0  0  0  0  0  0  0  0  0  0  0
   58.0484   -5.1637  -10.0625 H   0  0  0  0  0  0  0  0  0  0  0  0
   59.0349   -3.5449  -13.6598 C   0  0  0  0  0  0  0  0  0  0  0  0
   57.9902   -3.5505  -14.5209 C   0  0  0  0  0  0  0  0  0  0  0  0
   56.7267   -3.8942  -14.1266 C   0  0  0  0  0  0  0  0  0  0  0  0
   56.5169   -4.2405  -12.8272 C   0  0  0  0  0  0  0  0  0  0  0  0
   57.5534   -4.2525  -11.8959 C   0  0  0  0  0  0  0  0  0  0  0  0
   58.8044   -3.9024  -12.3312 C   0  0  0  0  0  0  0  0  0  0  0  0
   60.4280   -3.1787  -14.0396 C   0  0  0  0  0  0  0  0  0  0  0  0
   61.3934   -4.2926  -13.6980 C   0  0  0  0  0  0  0  0  0  0  0  0
   62.7718   -3.9282  -14.1525 C   0  0  0  0  0  0  0  0  0  0  0  0
   63.9114   -5.8921  -13.3505 C   0  0  0  0  0  0  0  0  0  0  0  0
   63.4745   -5.1437  -14.4942 N   0  0  0  0  0  0  0  0  0  0  0  0
   62.7311   -5.9469  -15.4362 C   0  0  0  0  0  0  0  0  0  0  0  0
 30 31  1  0  0  0
 31 32  1  0  0  0
 31 29  1  0  0  0
 29 28  1  0  0  0
 28 27  1  0  0  0
 27 21  1  0  0  0
 21 22  2  0  0  0
 22 23  1  0  0  0
 23 24  2  0  0  0
 24 25  1  0  0  0
 25 19  1  0  0  0
 19  1  1  0  0  0
  1  2  2  0  0  0
  2  3  1  0  0  0
  3  4  2  0  0  0
  4  5  1  0  0  0
  5  6  1  0  0  0
  6  7  2  0  0  0
  6  8  1  0  0  0
  8  9  1  0  0  0
  9 10  2  0  0  0
 10 11  1  0  0  0
 11 12  1  0  0  0
 11 13  2  0  0  0
 13 14  1  0  0  0
 14 15  2  0  0  0
 15 16  1  0  0  0
 16 17  2  0  0  0
 25 26  2  0  0  0
 26 21  1  0  0  0
 17  1  1  0  0  0
 16  4  1  0  0  0
 15  9  1  0  0  0
 19 20  1  0  0  0
  8 18  1  0  0  0
M  END
> <minimizedAffinity>
-7.80240

> <CNNscore>
0.4570769370

> <CNNaffinity>
6.9044899940

> <CNN_VS>
3.1558830738

> <CNNaffinity_variance>
0.0820928663

$$$$
[H]c1nc(N([H])c2c([H])c([H])c([H])c(C([H])([H])C([H])([H])C([H])([H])N(C([H])([H])[H])C([H])([H])[H])c2[H])nc2c1C([H])([H])C(=S)N([H])c1c([H])c(Cl)c([H])c([H])c1-2


 32 35  0  0  0  0  0  0  0  0999 V2000
   55.7037   -4.1187   -9.1498 C   0  0  0  0  0  0  0  0  0  0  0  0
   56.4874   -5.0874   -8.6891 N   0  0  0  0  0  0  0  0  0  0  0  0
   56.1562   -5.8976   -7.6718 C   0  0  0  0  0  0  0  0  0  0  0  0
   54.9339   -5.7709   -7.0148 C   0  0  0  0  0  0  0  0  0  0  0  0
   54.8505   -6.7795   -5.9605 C   0  0  0  0  0  0  0  0  0  0  0  0
   53.8855   -6.5078   -4.9024 C   0  0  0  0  0  0  0  0  0  0  0  0
   54.2494   -7.2204   -3.4702 S   0  0  0  0  0  0  0  0  0  0  0  0
   52.6730   -5.7487   -4.8275 N   0  0  0  0  0  0  0  0  0  0  0  0
   52.1698   -4.8674   -5.8141 C   0  0  0  0  0  0  0  0  0  0  0  0
   50.8930   -4.4453   -5.4756 C   0  0  0  0  0  0  0  0  0  0  0  0
   50.2167   -3.5769   -6.3060 C   0  0  0  0  0  0  0  0  0  0  0  0
   48.5920   -3.0172   -5.9104 Cl  0  0  0  0  0  0  0  0  0  0  0  0
   50.8282   -3.1418   -7.4661 C   0  0  0  0  0  0  0  0  0  0  0  0
   52.1180   -3.5809   -7.7879 C   0  0  0  0  0  0  0  0  0  0  0  0
   52.7967   -4.4504   -6.9578 C   0  0  0  0  0  0  0  0  0  0  0  0
   54.1259   -4.7791   -7.4827 C   0  0  0  0  0  0  0  0  0  0  0  0
   54.5003   -3.9980   -8.4988 N   0  0  0  0  0  0  0  0  0  0  0  0
   52.0994   -5.8496   -3.9649 H   0  0  0  0  0  0  0  0  0  0  0  0
   55.9905   -3.2287  -10.2171 N   0  0  0  0  0  0  0  0  0  0  0  0
   55.6733   -2.2001  -10.1202 H   0  0  0  0  0  0  0  0  0  0  0  0
   58.5998   -3.8699  -12.8017 C   0  0  0  0  0  0  0  0  0  0  0  0
   57.7934   -4.1980  -13.8384 C   0  0  0  0  0  0  0  0  0  0  0  0
   56.4310   -4.2099  -13.7224 C   0  0  0  0  0  0  0  0  0  0  0  0
   55.8719   -3.8808  -12.5259 C   0  0  0  0  0  0  0  0  0  0  0  0
   56.6514   -3.5342  -11.4240 C   0  0  0  0  0  0  0  0  0  0  0  0
   58.0124   -3.5351  -11.5814 C   0  0  0  0  0  0  0  0  0  0  0  0
   60.0873   -3.8419  -12.8771 C   0  0  0  0  0  0  0  0  0  0  0  0
   60.5537   -3.0929  -14.1063 C   0  0  0  0  0  0  0  0  0  0  0  0
   61.4744   -3.9570  -14.9095 C   0  0  0  0  0  0  0  0  0  0  0  0
   60.0106   -3.1967  -16.6638 C   0  0  0  0  0  0  0  0  0  0  0  0
   60.8299   -4.2642  -16.1658 N   0  0  0  0  0  0  0  0  0  0  0  0
   61.7710   -4.7503  -17.1472 C   0  0  0  0  0  0  0  0  0  0  0  0
 30 31  1  0  0  0
 31 32  1  0  0  0
 31 29  1  0  0  0
 29 28  1  0  0  0
 28 27  1  0  0  0
 27 21  1  0  0  0
 21 22  2  0  0  0
 22 23  1  0  0  0
 23 24  2  0  0  0
 24 25  1  0  0  0
 25 19  1  0  0  0
 19  1  1  0  0  0
  1  2  2  0  0  0
  2  3  1  0  0  0
  3  4  2  0  0  0
  4  5  1  0  0  0
  5  6  1  0  0  0
  6  7  2  0  0  0
  6  8  1  0  0  0
  8  9  1  0  0  0
  9 10  2  0  0  0
 10 11  1  0  0  0
 11 12  1  0  0  0
 11 13  2  0  0  0
 13 14  1  0  0  0
 14 15  2  0  0  0
 15 16  1  0  0  0
 16 17  2  0  0  0
 25 26  2  0  0  0
 26 21  1  0  0  0
 17  1  1  0  0  0
 16  4  1  0  0  0
 15  9  1  0  0  0
 19 20  1  0  0  0
  8 18  1  0  0  0
M  END
> <minimizedAffinity>
-7.67410

> <CNNscore>
0.3586534560

> <CNNaffinity>
6.8080949783

> <CNN_VS>
2.4417467117

> <CNNaffinity_variance>
0.1195933819

$$$$
[H]c1nc([H])c([H])c(-c2c([H])c([H])c3c(nc([H])n3-c3sc(C(=O)N([H])[H])c(O[C@@]([H])(c4c([H])c([H])c([H])c([H])c4C(F)(F)F)C([H])([H])[H])c3[H])c2[H])c1[H]


 38 42  0  0  0  0  0  0  0  0999 V2000
   57.1014   -4.6326  -11.1441 C   0  0  0  0  0  0  0  0  0  0  0  0
   55.8500   -4.1745  -10.9191 C   0  0  0  0  0  0  0  0  0  0  0  0
   55.3993   -4.1623   -9.6276 C   0  0  0  0  0  0  0  0  0  0  0  0
   56.7154   -4.7849   -8.7507 S   0  0  0  0  0  0  0  0  0  0  0  0
   57.8023   -5.0461  -10.0285 C   0  0  0  0  0  0  0  0  0  0  0  0
   54.0986   -3.7166   -9.1619 N   0  0  0  0  0  0  0  0  0  0  0  0
   53.3708   -2.8160   -9.8445 C   0  0  0  0  0  0  0  0  0  0  0  0
   52.2096   -2.5582   -9.2286 N   0  0  0  0  0  0  0  0  0  0  0  0
   52.2258   -3.3367   -8.1166 C   0  0  0  0  0  0  0  0  0  0  0  0
   51.3067   -3.4970   -7.1024 C   0  0  0  0  0  0  0  0  0  0  0  0
   51.5643   -4.3778   -6.0481 C   0  0  0  0  0  0  0  0  0  0  0  0
   52.7548   -5.0688   -6.0624 C   0  0  0  0  0  0  0  0  0  0  0  0
   53.7051   -4.9335   -7.0670 C   0  0  0  0  0  0  0  0  0  0  0  0
   53.4155   -4.0593   -8.0844 C   0  0  0  0  0  0  0  0  0  0  0  0
   50.5587   -4.5033   -5.0127 C   0  0  0  0  0  0  0  0  0  0  0  0
   50.7072   -5.3407   -3.9382 C   0  0  0  0  0  0  0  0  0  0  0  0
   49.7219   -5.4212   -2.9835 C   0  0  0  0  0  0  0  0  0  0  0  0
   48.6043   -4.6906   -3.0791 N   0  0  0  0  0  0  0  0  0  0  0  0
   48.4406   -3.8726   -4.1129 C   0  0  0  0  0  0  0  0  0  0  0  0
   49.4006   -3.7672   -5.0817 C   0  0  0  0  0  0  0  0  0  0  0  0
   59.1807   -5.5888   -9.9767 C   0  0  0  0  0  0  0  0  0  0  0  0
   59.5692   -6.2678   -8.7957 N   0  0  0  0  0  0  0  0  0  0  0  0
   59.9866   -5.4750  -10.9022 O   0  0  0  0  0  0  0  0  0  0  0  0
   58.8974   -6.8203   -8.2273 H   0  0  0  0  0  0  0  0  0  0  0  0
   60.5627   -6.2033   -8.4977 H   0  0  0  0  0  0  0  0  0  0  0  0
   57.7581   -4.7270  -12.4116 O   0  0  0  0  0  0  0  0  0  0  0  0
   56.3495   -5.4539  -14.2249 C   0  0  0  0  0  0  0  0  0  0  0  0
   57.1805   -4.2999  -13.6158 C   0  0  0  0  0  0  0  0  0  0  0  0
   58.0275   -3.6679  -14.6024 C   0  0  0  0  0  0  0  0  0  0  0  0
   59.4252   -3.5802  -14.3472 C   0  0  0  0  0  0  0  0  0  0  0  0
   60.3071   -3.0085  -15.2126 C   0  0  0  0  0  0  0  0  0  0  0  0
   59.8296   -2.4946  -16.3802 C   0  0  0  0  0  0  0  0  0  0  0  0
   58.4933   -2.5710  -16.6385 C   0  0  0  0  0  0  0  0  0  0  0  0
   57.5545   -3.1554  -15.7654 C   0  0  0  0  0  0  0  0  0  0  0  0
   56.1624   -3.1751  -16.1318 C   0  0  0  0  0  0  0  0  0  0  0  0
   55.7093   -4.2659  -16.8214 F   0  0  0  0  0  0  0  0  0  0  0  0
   55.9978   -2.1786  -17.1532 F   0  0  0  0  0  0  0  0  0  0  0  0
   55.2767   -2.6807  -15.1902 F   0  0  0  0  0  0  0  0  0  0  0  0
 27 28  1  0  0  0
 28 26  1  0  0  0
 26  1  1  0  0  0
  1  2  1  0  0  0
  2  3  2  0  0  0
  3  4  1  0  0  0
  4  5  1  0  0  0
  5 21  1  0  0  0
 21 22  1  0  0  0
 21 23  2  0  0  0
  3  6  1  0  0  0
  6  7  1  0  0  0
  7  8  2  0  0  0
  8  9  1  0  0  0
  9 10  2  0  0  0
 10 11  1  0  0  0
 11 12  2  0  0  0
 12 13  1  0  0  0
 13 14  2  0  0  0
 11 15  1  0  0  0
 15 16  2  0  0  0
 16 17  1  0  0  0
 17 18  2  0  0  0
 18 19  1  0  0  0
 19 20  2  0  0  0
 28 29  1  0  0  0
 29 30  2  0  0  0
 30 31  1  0  0  0
 31 32  2  0  0  0
 32 33  1  0  0  0
 33 34  2  0  0  0
 34 35  1  0  0  0
 35 36  1  0  0  0
 35 37  1  0  0  0
 35 38  1  0  0  0
  5  1  2  0  0  0
 14  6  1  0  0  0
 20 15  1  0  0  0
 34 29  1  0  0  0
 14  9  1  0  0  0
 22 24  1  0  0  0
 22 25  1  0  0  0
M  END
> <minimizedAffinity>
-9.40349

> <CNNscore>
0.7331262827

> <CNNaffinity>
7.5004281998

> <CNN_VS>
5.4987611771

> <CNNaffinity_variance>
0.1512246728

$$$$
[H]c1nc([H])c([H])c(-c2c([H])c([H])c3c(nc([H])n3-c3sc(C(=O)N([H])[H])c(O[C@@]([H])(c4c([H])c([H])c([H])c([H])c4C(F)(F)F)C([H])([H])[H])c3[H])c2[H])c1[H]


 38 42  0  0  0  0  0  0  0  0999 V2000
   51.9966   -5.4579   -4.2363 C   0  0  0  0  0  0  0  0  0  0  0  0
   52.6885   -5.1576   -5.3577 C   0  0  0  0  0  0  0  0  0  0  0  0
   52.0373   -4.4642   -6.3408 C   0  0  0  0  0  0  0  0  0  0  0  0
   50.4813   -4.2417   -5.6942 S   0  0  0  0  0  0  0  0  0  0  0  0
   50.6855   -5.0258   -4.2023 C   0  0  0  0  0  0  0  0  0  0  0  0
   52.5833   -4.0409   -7.6176 N   0  0  0  0  0  0  0  0  0  0  0  0
   51.8731   -3.2939   -8.4804 C   0  0  0  0  0  0  0  0  0  0  0  0
   52.5773   -3.0237   -9.5873 N   0  0  0  0  0  0  0  0  0  0  0  0
   53.7748   -3.6333   -9.3947 C   0  0  0  0  0  0  0  0  0  0  0  0
   54.8998   -3.7042  -10.1875 C   0  0  0  0  0  0  0  0  0  0  0  0
   56.0269   -4.4079   -9.7536 C   0  0  0  0  0  0  0  0  0  0  0  0
   55.9699   -5.0184   -8.5212 C   0  0  0  0  0  0  0  0  0  0  0  0
   54.8541   -4.9690   -7.6945 C   0  0  0  0  0  0  0  0  0  0  0  0
   53.7680   -4.2686   -8.1558 C   0  0  0  0  0  0  0  0  0  0  0  0
   57.1786   -4.4448  -10.6317 C   0  0  0  0  0  0  0  0  0  0  0  0
   58.3021   -5.1747  -10.3438 C   0  0  0  0  0  0  0  0  0  0  0  0
   59.3671   -5.1754  -11.2125 C   0  0  0  0  0  0  0  0  0  0  0  0
   59.3330   -4.4700  -12.3497 N   0  0  0  0  0  0  0  0  0  0  0  0
   58.2533   -3.7558  -12.6476 C   0  0  0  0  0  0  0  0  0  0  0  0
   57.1749   -3.7320  -11.8062 C   0  0  0  0  0  0  0  0  0  0  0  0
   49.7004   -5.2119   -3.1104 C   0  0  0  0  0  0  0  0  0  0  0  0
   50.0956   -6.0046   -2.0050 N   0  0  0  0  0  0  0  0  0  0  0  0
   48.5730   -4.7141   -3.1258 O   0  0  0  0  0  0  0  0  0  0  0  0
   51.0787   -6.0385   -1.6703 H   0  0  0  0  0  0  0  0  0  0  0  0
   49.3684   -6.5674   -1.5206 H   0  0  0  0  0  0  0  0  0  0  0  0
   52.4890   -6.1705   -3.0976 O   0  0  0  0  0  0  0  0  0  0  0  0
   53.5478   -8.2764   -2.6030 C   0  0  0  0  0  0  0  0  0  0  0  0
   53.7353   -6.8123   -3.0663 C   0  0  0  0  0  0  0  0  0  0  0  0
   54.8284   -6.1654   -2.3761 C   0  0  0  0  0  0  0  0  0  0  0  0
   54.6053   -5.6632   -1.0629 C   0  0  0  0  0  0  0  0  0  0  0  0
   55.5685   -5.0421   -0.3281 C   0  0  0  0  0  0  0  0  0  0  0  0
   56.8070   -4.8932   -0.8754 C   0  0  0  0  0  0  0  0  0  0  0  0
   57.0357   -5.3689   -2.1322 C   0  0  0  0  0  0  0  0  0  0  0  0
   56.0621   -6.0158   -2.9188 C   0  0  0  0  0  0  0  0  0  0  0  0
   56.4071   -6.4721   -4.2400 C   0  0  0  0  0  0  0  0  0  0  0  0
   56.0008   -7.7283   -4.5971 F   0  0  0  0  0  0  0  0  0  0  0  0
   57.8273   -6.6872   -4.2366 F   0  0  0  0  0  0  0  0  0  0  0  0
   56.3243   -5.5311   -5.2514 F   0  0  0  0  0  0  0  0  0  0  0  0
 27 28  1  0  0  0
 28 26  1  0  0  0
 26  1  1  0  0  0
  1  2  1  0  0  0
  2  3  2  0  0  0
  3  4  1  0  0  0
  4  5  1  0  0  0
  5 21  1  0  0  0
 21 22  1  0  0  0
 21 23  2  0  0  0
  3  6  1  0  0  0
  6  7  1  0  0  0
  7  8  2  0  0  0
  8  9  1  0  0  0
  9 10  2  0  0  0
 10 11  1  0  0  0
 11 12  2  0  0  0
 12 13  1  0  0  0
 13 14  2  0  0  0
 11 15  1  0  0  0
 15 16  2  0  0  0
 16 17  1  0  0  0
 17 18  2  0  0  0
 18 19  1  0  0  0
 19 20  2  0  0  0
 28 29  1  0  0  0
 29 30  2  0  0  0
 30 31  1  0  0  0
 31 32  2  0  0  0
 32 33  1  0  0  0
 33 34  2  0  0  0
 34 35  1  0  0  0
 35 36  1  0  0  0
 35 37  1  0  0  0
 35 38  1  0  0  0
  5  1  2  0  0  0
 14  6  1  0  0  0
 20 15  1  0  0  0
 34 29  1  0  0  0
 14  9  1  0  0  0
 22 24  1  0  0  0
 22 25  1  0  0  0
M  END
> <minimizedAffinity>
-9.37598

> <CNNscore>
0.7239796519

> <CNNaffinity>
7.9768562317

> <CNN_VS>
5.7750816345

> <CNNaffinity_variance>
0.1723755300

$$$$
[H]c1nc([H])c([H])c(-c2c([H])c([H])c3c(nc([H])n3-c3sc(C(=O)N([H])[H])c(O[C@@]([H])(c4c([H])c([H])c([H])c([H])c4C(F)(F)F)C([H])([H])[H])c3[H])c2[H])c1[H]


 38 42  0  0  0  0  0  0  0  0999 V2000
   57.2441   -4.8727  -10.6247 C   0  0  0  0  0  0  0  0  0  0  0  0
   56.0076   -4.3290  -10.5815 C   0  0  0  0  0  0  0  0  0  0  0  0
   55.4045   -4.2157   -9.3588 C   0  0  0  0  0  0  0  0  0  0  0  0
   56.5600   -4.8636   -8.2939 S   0  0  0  0  0  0  0  0  0  0  0  0
   57.7750   -5.2621   -9.4108 C   0  0  0  0  0  0  0  0  0  0  0  0
   54.0890   -3.6676   -9.0826 N   0  0  0  0  0  0  0  0  0  0  0  0
   53.5019   -2.7824   -9.9062 C   0  0  0  0  0  0  0  0  0  0  0  0
   52.2957   -2.4178   -9.4519 N   0  0  0  0  0  0  0  0  0  0  0  0
   52.1356   -3.1113   -8.2960 C   0  0  0  0  0  0  0  0  0  0  0  0
   51.0977   -3.1464   -7.3901 C   0  0  0  0  0  0  0  0  0  0  0  0
   51.1771   -3.9591   -6.2556 C   0  0  0  0  0  0  0  0  0  0  0  0
   52.3162   -4.7121   -6.0813 C   0  0  0  0  0  0  0  0  0  0  0  0
   53.3825   -4.7029   -6.9723 C   0  0  0  0  0  0  0  0  0  0  0  0
   53.2665   -3.8923   -8.0735 C   0  0  0  0  0  0  0  0  0  0  0  0
   50.0532   -3.9534   -5.3415 C   0  0  0  0  0  0  0  0  0  0  0  0
   49.9280   -4.8596   -4.3212 C   0  0  0  0  0  0  0  0  0  0  0  0
   48.8412   -4.8091   -3.4815 C   0  0  0  0  0  0  0  0  0  0  0  0
   47.8879   -3.8825   -3.6385 N   0  0  0  0  0  0  0  0  0  0  0  0
   47.9902   -2.9946   -4.6214 C   0  0  0  0  0  0  0  0  0  0  0  0
   49.0583   -3.0154   -5.4758 C   0  0  0  0  0  0  0  0  0  0  0  0
   59.0979   -5.8816   -9.1597 C   0  0  0  0  0  0  0  0  0  0  0  0
   59.4346   -7.0286   -9.9197 N   0  0  0  0  0  0  0  0  0  0  0  0
   59.9011   -5.4470   -8.3320 O   0  0  0  0  0  0  0  0  0  0  0  0
   59.1062   -7.1625  -10.8965 H   0  0  0  0  0  0  0  0  0  0  0  0
   60.0307   -7.7541   -9.4742 H   0  0  0  0  0  0  0  0  0  0  0  0
   58.0429   -5.0787  -11.7936 O   0  0  0  0  0  0  0  0  0  0  0  0
   58.5715   -2.7299  -11.7286 C   0  0  0  0  0  0  0  0  0  0  0  0
   58.5727   -4.0328  -12.5627 C   0  0  0  0  0  0  0  0  0  0  0  0
   58.0493   -3.8200  -13.8935 C   0  0  0  0  0  0  0  0  0  0  0  0
   56.6594   -4.0257  -14.1218 C   0  0  0  0  0  0  0  0  0  0  0  0
   56.0686   -3.8490  -15.3355 C   0  0  0  0  0  0  0  0  0  0  0  0
   56.8447   -3.4562  -16.3838 C   0  0  0  0  0  0  0  0  0  0  0  0
   58.1776   -3.2554  -16.1806 C   0  0  0  0  0  0  0  0  0  0  0  0
   58.8199   -3.4292  -14.9386 C   0  0  0  0  0  0  0  0  0  0  0  0
   60.2374   -3.1992  -14.8356 C   0  0  0  0  0  0  0  0  0  0  0  0
   60.6454   -2.0832  -14.1582 F   0  0  0  0  0  0  0  0  0  0  0  0
   60.6867   -2.8406  -16.1519 F   0  0  0  0  0  0  0  0  0  0  0  0
   61.0235   -4.3188  -14.6266 F   0  0  0  0  0  0  0  0  0  0  0  0
 27 28  1  0  0  0
 28 26  1  0  0  0
 26  1  1  0  0  0
  1  2  1  0  0  0
  2  3  2  0  0  0
  3  4  1  0  0  0
  4  5  1  0  0  0
  5 21  1  0  0  0
 21 22  1  0  0  0
 21 23  2  0  0  0
  3  6  1  0  0  0
  6  7  1  0  0  0
  7  8  2  0  0  0
  8  9  1  0  0  0
  9 10  2  0  0  0
 10 11  1  0  0  0
 11 12  2  0  0  0
 12 13  1  0  0  0
 13 14  2  0  0  0
 11 15  1  0  0  0
 15 16  2  0  0  0
 16 17  1  0  0  0
 17 18  2  0  0  0
 18 19  1  0  0  0
 19 20  2  0  0  0
 28 29  1  0  0  0
 29 30  2  0  0  0
 30 31  1  0  0  0
 31 32  2  0  0  0
 32 33  1  0  0  0
 33 34  2  0  0  0
 34 35  1  0  0  0
 35 36  1  0  0  0
 35 37  1  0  0  0
 35 38  1  0  0  0
  5  1  2  0  0  0
 14  6  1  0  0  0
 20 15  1  0  0  0
 34 29  1  0  0  0
 14  9  1  0  0  0
 22 24  1  0  0  0
 22 25  1  0  0  0
M  END
> <minimizedAffinity>
-8.70886

> <CNNscore>
0.6133399010

> <CNNaffinity>
7.3003034592

> <CNN_VS>
4.4775671959

> <CNNaffinity_variance>
0.2700763643

$$$$
[H]c1nc([H])c([H])c(-c2c([H])c([H])c3c(nc([H])n3-c3sc(C(=O)N([H])[H])c(O[C@@]([H])(c4c([H])c([H])c([H])c([H])c4C(F)(F)F)C([H])([H])[H])c3[H])c2[H])c1[H]


 38 42  0  0  0  0  0  0  0  0999 V2000
   52.7346   -4.0526   -7.4933 C   0  0  0  0  0  0  0  0  0  0  0  0
   53.8975   -4.4849   -8.0290 C   0  0  0  0  0  0  0  0  0  0  0  0
   54.3128   -3.9086   -9.1981 C   0  0  0  0  0  0  0  0  0  0  0  0
   53.0863   -2.7805   -9.5326 S   0  0  0  0  0  0  0  0  0  0  0  0
   52.0793   -3.0596   -8.1944 C   0  0  0  0  0  0  0  0  0  0  0  0
   55.5200   -4.2182   -9.9425 N   0  0  0  0  0  0  0  0  0  0  0  0
   55.6127   -4.0019  -11.2659 C   0  0  0  0  0  0  0  0  0  0  0  0
   56.8146   -4.3597  -11.7365 N   0  0  0  0  0  0  0  0  0  0  0  0
   57.4904   -4.8170  -10.6517 C   0  0  0  0  0  0  0  0  0  0  0  0
   58.7674   -5.3175  -10.5172 C   0  0  0  0  0  0  0  0  0  0  0  0
   59.2370   -5.7292   -9.2668 C   0  0  0  0  0  0  0  0  0  0  0  0
   58.3862   -5.6168   -8.1904 C   0  0  0  0  0  0  0  0  0  0  0  0
   57.0931   -5.1174   -8.2870 C   0  0  0  0  0  0  0  0  0  0  0  0
   56.6691   -4.7238   -9.5313 C   0  0  0  0  0  0  0  0  0  0  0  0
   60.5885   -6.2453   -9.1900 C   0  0  0  0  0  0  0  0  0  0  0  0
   61.1286   -6.7279   -8.0267 C   0  0  0  0  0  0  0  0  0  0  0  0
   62.4166   -7.2069   -8.0093 C   0  0  0  0  0  0  0  0  0  0  0  0
   63.1674   -7.2136   -9.1175 N   0  0  0  0  0  0  0  0  0  0  0  0
   62.6629   -6.7502  -10.2557 C   0  0  0  0  0  0  0  0  0  0  0  0
   61.3846   -6.2659  -10.3096 C   0  0  0  0  0  0  0  0  0  0  0  0
   50.7973   -2.4023   -7.8460 C   0  0  0  0  0  0  0  0  0  0  0  0
   49.6991   -3.2411   -7.5347 N   0  0  0  0  0  0  0  0  0  0  0  0
   50.6516   -1.1788   -7.8169 O   0  0  0  0  0  0  0  0  0  0  0  0
   49.8193   -4.1617   -7.0681 H   0  0  0  0  0  0  0  0  0  0  0  0
   48.7454   -2.9137   -7.7868 H   0  0  0  0  0  0  0  0  0  0  0  0
   52.1283   -4.5205   -6.2848 O   0  0  0  0  0  0  0  0  0  0  0  0
   50.8007   -6.5265   -6.4040 C   0  0  0  0  0  0  0  0  0  0  0  0
   52.1079   -5.8691   -5.9014 C   0  0  0  0  0  0  0  0  0  0  0  0
   52.3794   -6.1989   -4.5203 C   0  0  0  0  0  0  0  0  0  0  0  0
   51.2938   -6.2340   -3.6002 C   0  0  0  0  0  0  0  0  0  0  0  0
   51.4431   -6.5367   -2.2813 C   0  0  0  0  0  0  0  0  0  0  0  0
   52.6924   -6.8199   -1.8182 C   0  0  0  0  0  0  0  0  0  0  0  0
   53.7420   -6.7901   -2.6873 C   0  0  0  0  0  0  0  0  0  0  0  0
   53.6222   -6.4810   -4.0568 C   0  0  0  0  0  0  0  0  0  0  0  0
   54.7989   -6.4684   -4.8861 C   0  0  0  0  0  0  0  0  0  0  0  0
   54.8689   -7.3927   -5.8919 F   0  0  0  0  0  0  0  0  0  0  0  0
   55.8778   -6.9455   -4.0664 F   0  0  0  0  0  0  0  0  0  0  0  0
   55.3004   -5.2211   -5.2147 F   0  0  0  0  0  0  0  0  0  0  0  0
 27 28  1  0  0  0
 28 26  1  0  0  0
 26  1  1  0  0  0
  1  2  1  0  0  0
  2  3  2  0  0  0
  3  4  1  0  0  0
  4  5  1  0  0  0
  5 21  1  0  0  0
 21 22  1  0  0  0
 21 23  2  0  0  0
  3  6  1  0  0  0
  6  7  1  0  0  0
  7  8  2  0  0  0
  8  9  1  0  0  0
  9 10  2  0  0  0
 10 11  1  0  0  0
 11 12  2  0  0  0
 12 13  1  0  0  0
 13 14  2  0  0  0
 11 15  1  0  0  0
 15 16  2  0  0  0
 16 17  1  0  0  0
 17 18  2  0  0  0
 18 19  1  0  0  0
 19 20  2  0  0  0
 28 29  1  0  0  0
 29 30  2  0  0  0
 30 31  1  0  0  0
 31 32  2  0  0  0
 32 33  1  0  0  0
 33 34  2  0  0  0
 34 35  1  0  0  0
 35 36  1  0  0  0
 35 37  1  0  0  0
 35 38  1  0  0  0
  5  1  2  0  0  0
 14  6  1  0  0  0
 20 15  1  0  0  0
 34 29  1  0  0  0
 14  9  1  0  0  0
 22 24  1  0  0  0
 22 25  1  0  0  0
M  END
> <minimizedAffinity>
-9.22080

> <CNNscore>
0.5894529223

> <CNNaffinity>
7.7457695007

> <CNN_VS>
4.5657663345

> <CNNaffinity_variance>
0.2352223098

$$$$
[H]c1nc([H])c([H])c(-c2c([H])c([H])c3c(nc([H])n3-c3sc(C(=O)N([H])[H])c(O[C@@]([H])(c4c([H])c([H])c([H])c([H])c4C(F)(F)F)C([H])([H])[H])c3[H])c2[H])c1[H]


 38 42  0  0  0  0  0  0  0  0999 V2000
   52.7859   -4.0273   -7.4497 C   0  0  0  0  0  0  0  0  0  0  0  0
   53.9539   -4.4504   -7.9818 C   0  0  0  0  0  0  0  0  0  0  0  0
   54.3289   -3.9292   -9.1897 C   0  0  0  0  0  0  0  0  0  0  0  0
   53.0583   -2.8645   -9.5650 S   0  0  0  0  0  0  0  0  0  0  0  0
   52.0847   -3.0993   -8.1941 C   0  0  0  0  0  0  0  0  0  0  0  0
   55.5332   -4.2406   -9.9380 N   0  0  0  0  0  0  0  0  0  0  0  0
   55.6186   -4.0335  -11.2634 C   0  0  0  0  0  0  0  0  0  0  0  0
   56.8191   -4.3912  -11.7376 N   0  0  0  0  0  0  0  0  0  0  0  0
   57.5018   -4.8386  -10.6529 C   0  0  0  0  0  0  0  0  0  0  0  0
   58.7810   -5.3343  -10.5213 C   0  0  0  0  0  0  0  0  0  0  0  0
   59.2581   -5.7357   -9.2703 C   0  0  0  0  0  0  0  0  0  0  0  0
   58.4124   -5.6180   -8.1905 C   0  0  0  0  0  0  0  0  0  0  0  0
   57.1174   -5.1232   -8.2841 C   0  0  0  0  0  0  0  0  0  0  0  0
   56.6858   -4.7399   -9.5291 C   0  0  0  0  0  0  0  0  0  0  0  0
   60.6115   -6.2472   -9.1967 C   0  0  0  0  0  0  0  0  0  0  0  0
   61.1579   -6.7226   -8.0334 C   0  0  0  0  0  0  0  0  0  0  0  0
   62.4475   -7.1975   -8.0191 C   0  0  0  0  0  0  0  0  0  0  0  0
   63.1937   -7.2071   -9.1303 N   0  0  0  0  0  0  0  0  0  0  0  0
   62.6831   -6.7507  -10.2686 C   0  0  0  0  0  0  0  0  0  0  0  0
   61.4031   -6.2706  -10.3195 C   0  0  0  0  0  0  0  0  0  0  0  0
   50.7867   -2.4665   -7.8596 C   0  0  0  0  0  0  0  0  0  0  0  0
   49.6820   -3.3249   -7.6373 N   0  0  0  0  0  0  0  0  0  0  0  0
   50.6333   -1.2470   -7.7689 O   0  0  0  0  0  0  0  0  0  0  0  0
   49.7893   -4.2695   -7.2178 H   0  0  0  0  0  0  0  0  0  0  0  0
   48.7369   -2.9873   -7.9075 H   0  0  0  0  0  0  0  0  0  0  0  0
   52.2170   -4.4444   -6.2050 O   0  0  0  0  0  0  0  0  0  0  0  0
   51.2578   -6.6172   -6.6045 C   0  0  0  0  0  0  0  0  0  0  0  0
   52.2341   -5.7716   -5.7529 C   0  0  0  0  0  0  0  0  0  0  0  0
   52.0696   -6.0219   -4.3386 C   0  0  0  0  0  0  0  0  0  0  0  0
   53.0946   -6.7259   -3.6458 C   0  0  0  0  0  0  0  0  0  0  0  0
   53.0373   -7.0083   -2.3152 C   0  0  0  0  0  0  0  0  0  0  0  0
   51.9458   -6.5976   -1.6113 C   0  0  0  0  0  0  0  0  0  0  0  0
   50.9559   -5.9224   -2.2611 C   0  0  0  0  0  0  0  0  0  0  0  0
   50.9839   -5.6142   -3.6357 C   0  0  0  0  0  0  0  0  0  0  0  0
   49.8791   -4.9039   -4.2254 C   0  0  0  0  0  0  0  0  0  0  0  0
   50.0560   -3.5734   -4.4885 F   0  0  0  0  0  0  0  0  0  0  0  0
   48.8731   -4.8000   -3.2054 F   0  0  0  0  0  0  0  0  0  0  0  0
   49.1560   -5.5894   -5.1858 F   0  0  0  0  0  0  0  0  0  0  0  0
 27 28  1  0  0  0
 28 26  1  0  0  0
 26  1  1  0  0  0
  1  2  1  0  0  0
  2  3  2  0  0  0
  3  4  1  0  0  0
  4  5  1  0  0  0
  5 21  1  0  0  0
 21 22  1  0  0  0
 21 23  2  0  0  0
  3  6  1  0  0  0
  6  7  1  0  0  0
  7  8  2  0  0  0
  8  9  1  0  0  0
  9 10  2  0  0  0
 10 11  1  0  0  0
 11 12  2  0  0  0
 12 13  1  0  0  0
 13 14  2  0  0  0
 11 15  1  0  0  0
 15 16  2  0  0  0
 16 17  1  0  0  0
 17 18  2  0  0  0
 18 19  1  0  0  0
 19 20  2  0  0  0
 28 29  1  0  0  0
 29 30  2  0  0  0
 30 31  1  0  0  0
 31 32  2  0  0  0
 32 33  1  0  0  0
 33 34  2  0  0  0
 34 35  1  0  0  0
 35 36  1  0  0  0
 35 37  1  0  0  0
 35 38  1  0  0  0
  5  1  2  0  0  0
 14  6  1  0  0  0
 20 15  1  0  0  0
 34 29  1  0  0  0
 14  9  1  0  0  0
 22 24  1  0  0  0
 22 25  1  0  0  0
M  END
> <minimizedAffinity>
-9.52920

> <CNNscore>
0.5297366977

> <CNNaffinity>
7.5324745178

> <CNN_VS>
3.9902281761

> <CNNaffinity_variance>
0.1556328088

$$$$
[H]c1nc([H])c([H])c(-c2c([H])c([H])c3c(nc([H])n3-c3sc(C(=O)N([H])[H])c(O[C@@]([H])(c4c([H])c([H])c([H])c([H])c4C(F)(F)F)C([H])([H])[H])c3[H])c2[H])c1[H]


 38 42  0  0  0  0  0  0  0  0999 V2000
   54.8827   -5.4538   -5.7989 C   0  0  0  0  0  0  0  0  0  0  0  0
   55.4586   -5.2185   -6.9986 C   0  0  0  0  0  0  0  0  0  0  0  0
   56.7576   -5.6118   -7.1692 C   0  0  0  0  0  0  0  0  0  0  0  0
   57.1562   -6.2991   -5.6666 S   0  0  0  0  0  0  0  0  0  0  0  0
   55.6798   -6.0760   -4.8585 C   0  0  0  0  0  0  0  0  0  0  0  0
   57.5657   -5.4580   -8.3653 N   0  0  0  0  0  0  0  0  0  0  0  0
   58.8727   -5.7711   -8.3837 C   0  0  0  0  0  0  0  0  0  0  0  0
   59.4112   -5.5502   -9.5902 N   0  0  0  0  0  0  0  0  0  0  0  0
   58.3870   -5.0796  -10.3468 C   0  0  0  0  0  0  0  0  0  0  0  0
   58.3352   -4.6822  -11.6653 C   0  0  0  0  0  0  0  0  0  0  0  0
   57.1353   -4.2279  -12.2198 C   0  0  0  0  0  0  0  0  0  0  0  0
   56.0234   -4.1936  -11.4090 C   0  0  0  0  0  0  0  0  0  0  0  0
   56.0370   -4.5860  -10.0760 C   0  0  0  0  0  0  0  0  0  0  0  0
   57.2337   -5.0257   -9.5686 C   0  0  0  0  0  0  0  0  0  0  0  0
   57.1448   -3.8253  -13.6115 C   0  0  0  0  0  0  0  0  0  0  0  0
   56.0100   -3.7991  -14.3793 C   0  0  0  0  0  0  0  0  0  0  0  0
   56.0749   -3.4080  -15.6952 C   0  0  0  0  0  0  0  0  0  0  0  0
   57.2368   -3.0467  -16.2532 N   0  0  0  0  0  0  0  0  0  0  0  0
   58.3485   -3.0650  -15.5263 C   0  0  0  0  0  0  0  0  0  0  0  0
   58.3210   -3.4487  -14.2136 C   0  0  0  0  0  0  0  0  0  0  0  0
   55.3157   -6.4533   -3.4721 C   0  0  0  0  0  0  0  0  0  0  0  0
   54.1354   -7.2158   -3.2934 N   0  0  0  0  0  0  0  0  0  0  0  0
   55.9861   -6.1363   -2.4876 O   0  0  0  0  0  0  0  0  0  0  0  0
   53.8101   -7.9074   -3.9975 H   0  0  0  0  0  0  0  0  0  0  0  0
   53.5841   -7.0693   -2.4246 H   0  0  0  0  0  0  0  0  0  0  0  0
   53.5436   -5.1240   -5.4183 O   0  0  0  0  0  0  0  0  0  0  0  0
   52.8730   -6.1380   -7.4974 C   0  0  0  0  0  0  0  0  0  0  0  0
   52.4229   -5.3998   -6.2145 C   0  0  0  0  0  0  0  0  0  0  0  0
   51.5021   -4.3245   -6.5077 C   0  0  0  0  0  0  0  0  0  0  0  0
   50.3207   -4.2038   -5.7228 C   0  0  0  0  0  0  0  0  0  0  0  0
   49.3936   -3.2257   -5.9157 C   0  0  0  0  0  0  0  0  0  0  0  0
   49.6058   -2.3175   -6.9084 C   0  0  0  0  0  0  0  0  0  0  0  0
   50.7326   -2.4202   -7.6685 C   0  0  0  0  0  0  0  0  0  0  0  0
   51.7110   -3.4192   -7.4954 C   0  0  0  0  0  0  0  0  0  0  0  0
   52.8611   -3.4424   -8.3612 C   0  0  0  0  0  0  0  0  0  0  0  0
   54.0590   -3.0570   -7.8254 F   0  0  0  0  0  0  0  0  0  0  0  0
   52.6811   -2.3728   -9.3031 F   0  0  0  0  0  0  0  0  0  0  0  0
   52.9403   -4.5070   -9.2420 F   0  0  0  0  0  0  0  0  0  0  0  0
 27 28  1  0  0  0
 28 26  1  0  0  0
 26  1  1  0  0  0
  1  2  1  0  0  0
  2  3  2  0  0  0
  3  4  1  0  0  0
  4  5  1  0  0  0
  5 21  1  0  0  0
 21 22  1  0  0  0
 21 23  2  0  0  0
  3  6  1  0  0  0
  6  7  1  0  0  0
  7  8  2  0  0  0
  8  9  1  0  0  0
  9 10  2  0  0  0
 10 11  1  0  0  0
 11 12  2  0  0  0
 12 13  1  0  0  0
 13 14  2  0  0  0
 11 15  1  0  0  0
 15 16  2  0  0  0
 16 17  1  0  0  0
 17 18  2  0  0  0
 18 19  1  0  0  0
 19 20  2  0  0  0
 28 29  1  0  0  0
 29 30  2  0  0  0
 30 31  1  0  0  0
 31 32  2  0  0  0
 32 33  1  0  0  0
 33 34  2  0  0  0
 34 35  1  0  0  0
 35 36  1  0  0  0
 35 37  1  0  0  0
 35 38  1  0  0  0
  5  1  2  0  0  0
 14  6  1  0  0  0
 20 15  1  0  0  0
 34 29  1  0  0  0
 14  9  1  0  0  0
 22 24  1  0  0  0
 22 25  1  0  0  0
M  END
> <minimizedAffinity>
-10.45962

> <CNNscore>
0.3906655312

> <CNNaffinity>
7.4508476257

> <CNN_VS>
2.9107892513

> <CNNaffinity_variance>
0.3405953944

$$$$
[H]c1nc([H])c([H])c(-c2c([H])c([H])c3c(nc([H])n3-c3sc(C(=O)N([H])[H])c(O[C@@]([H])(c4c([H])c([H])c([H])c([H])c4C(F)(F)F)C([H])([H])[H])c3[H])c2[H])c1[H]


 38 42  0  0  0  0  0  0  0  0999 V2000
   52.7492   -4.1358   -7.4414 C   0  0  0  0  0  0  0  0  0  0  0  0
   53.9183   -4.5406   -7.9851 C   0  0  0  0  0  0  0  0  0  0  0  0
   54.3121   -3.9547   -9.1568 C   0  0  0  0  0  0  0  0  0  0  0  0
   53.0572   -2.8557   -9.4828 S   0  0  0  0  0  0  0  0  0  0  0  0
   52.0662   -3.1584   -8.1379 C   0  0  0  0  0  0  0  0  0  0  0  0
   55.5211   -4.2359   -9.9095 N   0  0  0  0  0  0  0  0  0  0  0  0
   55.6115   -3.9845  -11.2268 C   0  0  0  0  0  0  0  0  0  0  0  0
   56.8158   -4.3211  -11.7070 N   0  0  0  0  0  0  0  0  0  0  0  0
   57.4955   -4.8014  -10.6347 C   0  0  0  0  0  0  0  0  0  0  0  0
   58.7762   -5.2958  -10.5138 C   0  0  0  0  0  0  0  0  0  0  0  0
   59.2495   -5.7366   -9.2746 C   0  0  0  0  0  0  0  0  0  0  0  0
   58.3985   -5.6585   -8.1954 C   0  0  0  0  0  0  0  0  0  0  0  0
   57.1017   -5.1663   -8.2785 C   0  0  0  0  0  0  0  0  0  0  0  0
   56.6741   -4.7436   -9.5120 C   0  0  0  0  0  0  0  0  0  0  0  0
   60.6048   -6.2445   -9.2118 C   0  0  0  0  0  0  0  0  0  0  0  0
   61.1712   -6.6923   -8.0471 C   0  0  0  0  0  0  0  0  0  0  0  0
   62.4616   -7.1650   -8.0433 C   0  0  0  0  0  0  0  0  0  0  0  0
   63.1894   -7.1993   -9.1663 N   0  0  0  0  0  0  0  0  0  0  0  0
   62.6591   -6.7699  -10.3062 C   0  0  0  0  0  0  0  0  0  0  0  0
   61.3777   -6.2928  -10.3467 C   0  0  0  0  0  0  0  0  0  0  0  0
   50.7714   -2.5313   -7.7806 C   0  0  0  0  0  0  0  0  0  0  0  0
   49.6797   -3.3952   -7.5192 N   0  0  0  0  0  0  0  0  0  0  0  0
   50.6100   -1.3119   -7.7036 O   0  0  0  0  0  0  0  0  0  0  0  0
   49.8052   -4.3328   -7.0891 H   0  0  0  0  0  0  0  0  0  0  0  0
   48.7255   -3.0692   -7.7708 H   0  0  0  0  0  0  0  0  0  0  0  0
   52.1623   -4.6178   -6.2289 O   0  0  0  0  0  0  0  0  0  0  0  0
   50.8871   -6.5581   -5.5890 C   0  0  0  0  0  0  0  0  0  0  0  0
   52.2922   -5.9393   -5.7786 C   0  0  0  0  0  0  0  0  0  0  0  0
   53.1530   -6.2022   -4.6473 C   0  0  0  0  0  0  0  0  0  0  0  0
   54.4563   -6.7220   -4.8869 C   0  0  0  0  0  0  0  0  0  0  0  0
   55.3433   -6.9996   -3.8921 C   0  0  0  0  0  0  0  0  0  0  0  0
   54.9660   -6.7692   -2.6037 C   0  0  0  0  0  0  0  0  0  0  0  0
   53.7208   -6.2718   -2.3585 C   0  0  0  0  0  0  0  0  0  0  0  0
   52.7796   -5.9739   -3.3638 C   0  0  0  0  0  0  0  0  0  0  0  0
   51.4864   -5.4603   -2.9942 C   0  0  0  0  0  0  0  0  0  0  0  0
   50.9946   -4.4126   -3.7230 F   0  0  0  0  0  0  0  0  0  0  0  0
   51.6597   -4.7954   -1.7327 F   0  0  0  0  0  0  0  0  0  0  0  0
   50.5395   -6.3997   -2.6254 F   0  0  0  0  0  0  0  0  0  0  0  0
 27 28  1  0  0  0
 28 26  1  0  0  0
 26  1  1  0  0  0
  1  2  1  0  0  0
  2  3  2  0  0  0
  3  4  1  0  0  0
  4  5  1  0  0  0
  5 21  1  0  0  0
 21 22  1  0  0  0
 21 23  2  0  0  0
  3  6  1  0  0  0
  6  7  1  0  0  0
  7  8  2  0  0  0
  8  9  1  0  0  0
  9 10  2  0  0  0
 10 11  1  0  0  0
 11 12  2  0  0  0
 12 13  1  0  0  0
 13 14  2  0  0  0
 11 15  1  0  0  0
 15 16  2  0  0  0
 16 17  1  0  0  0
 17 18  2  0  0  0
 18 19  1  0  0  0
 19 20  2  0  0  0
 28 29  1  0  0  0
 29 30  2  0  0  0
 30 31  1  0  0  0
 31 32  2  0  0  0
 32 33  1  0  0  0
 33 34  2  0  0  0
 34 35  1  0  0  0
 35 36  1  0  0  0
 35 37  1  0  0  0
 35 38  1  0  0  0
  5  1  2  0  0  0
 14  6  1  0  0  0
 20 15  1  0  0  0
 34 29  1  0  0  0
 14  9  1  0  0  0
 22 24  1  0  0  0
 22 25  1  0  0  0
M  END
> <minimizedAffinity>
-8.98661

> <CNNscore>
0.3860760033

> <CNNaffinity>
7.4141592979

> <CNN_VS>
2.8624289036

> <CNNaffinity_variance>
0.1998485029

$$$$
[H]c1nc([H])c([H])c(-c2c([H])c([H])c3c(nc([H])n3-c3sc(C(=O)N([H])[H])c(O[C@@]([H])(c4c([H])c([H])c([H])c([H])c4C(F)(F)F)C([H])([H])[H])c3[H])c2[H])c1[H]


 38 42  0  0  0  0  0  0  0  0999 V2000
   54.1041   -5.7558   -4.5419 C   0  0  0  0  0  0  0  0  0  0  0  0
   53.8613   -5.1221   -5.7106 C   0  0  0  0  0  0  0  0  0  0  0  0
   54.7761   -5.2701   -6.7169 C   0  0  0  0  0  0  0  0  0  0  0  0
   55.9534   -6.2828   -6.0262 S   0  0  0  0  0  0  0  0  0  0  0  0
   55.2681   -6.4968   -4.4876 C   0  0  0  0  0  0  0  0  0  0  0  0
   54.7165   -4.6829   -8.0432 N   0  0  0  0  0  0  0  0  0  0  0  0
   53.6070   -4.0793   -8.5028 C   0  0  0  0  0  0  0  0  0  0  0  0
   53.7837   -3.6126   -9.7458 N   0  0  0  0  0  0  0  0  0  0  0  0
   55.0608   -3.9455  -10.0636 C   0  0  0  0  0  0  0  0  0  0  0  0
   55.8024   -3.7295  -11.2049 C   0  0  0  0  0  0  0  0  0  0  0  0
   57.1232   -4.1798  -11.2852 C   0  0  0  0  0  0  0  0  0  0  0  0
   57.6466   -4.8379  -10.1953 C   0  0  0  0  0  0  0  0  0  0  0  0
   56.9302   -5.0740   -9.0283 C   0  0  0  0  0  0  0  0  0  0  0  0
   55.6371   -4.6167   -8.9884 C   0  0  0  0  0  0  0  0  0  0  0  0
   57.8508   -3.9213  -12.5110 C   0  0  0  0  0  0  0  0  0  0  0  0
   57.2236   -3.7256  -13.7136 C   0  0  0  0  0  0  0  0  0  0  0  0
   57.9623   -3.4830  -14.8468 C   0  0  0  0  0  0  0  0  0  0  0  0
   59.2992   -3.4324  -14.8037 N   0  0  0  0  0  0  0  0  0  0  0  0
   59.9269   -3.6193  -13.6479 C   0  0  0  0  0  0  0  0  0  0  0  0
   59.2235   -3.8631  -12.5002 C   0  0  0  0  0  0  0  0  0  0  0  0
   55.7837   -7.2879   -3.3451 C   0  0  0  0  0  0  0  0  0  0  0  0
   55.0754   -8.4634   -2.9946 N   0  0  0  0  0  0  0  0  0  0  0  0
   56.7848   -6.9697   -2.7003 O   0  0  0  0  0  0  0  0  0  0  0  0
   54.5872   -9.0481   -3.7014 H   0  0  0  0  0  0  0  0  0  0  0  0
   55.0499   -8.7400   -1.9931 H   0  0  0  0  0  0  0  0  0  0  0  0
   53.2792   -5.7316   -3.3732 O   0  0  0  0  0  0  0  0  0  0  0  0
   51.6526   -7.3927   -2.7447 C   0  0  0  0  0  0  0  0  0  0  0  0
   51.9050   -6.0098   -3.3904 C   0  0  0  0  0  0  0  0  0  0  0  0
   51.1848   -5.8574   -4.6346 C   0  0  0  0  0  0  0  0  0  0  0  0
   51.5375   -6.6897   -5.7343 C   0  0  0  0  0  0  0  0  0  0  0  0
   50.9189   -6.6274   -6.9455 C   0  0  0  0  0  0  0  0  0  0  0  0
   49.9130   -5.7246   -7.1145 C   0  0  0  0  0  0  0  0  0  0  0  0
   49.5641   -4.9206   -6.0705 C   0  0  0  0  0  0  0  0  0  0  0  0
   50.1833   -4.9593   -4.8054 C   0  0  0  0  0  0  0  0  0  0  0  0
   49.7431   -4.0575   -3.7731 C   0  0  0  0  0  0  0  0  0  0  0  0
   50.5203   -3.9580   -2.6521 F   0  0  0  0  0  0  0  0  0  0  0  0
   48.5754   -4.6529   -3.1854 F   0  0  0  0  0  0  0  0  0  0  0  0
   49.1945   -2.8612   -4.2013 F   0  0  0  0  0  0  0  0  0  0  0  0
 27 28  1  0  0  0
 28 26  1  0  0  0
 26  1  1  0  0  0
  1  2  1  0  0  0
  2  3  2  0  0  0
  3  4  1  0  0  0
  4  5  1  0  0  0
  5 21  1  0  0  0
 21 22  1  0  0  0
 21 23  2  0  0  0
  3  6  1  0  0  0
  6  7  1  0  0  0
  7  8  2  0  0  0
  8  9  1  0  0  0
  9 10  2  0  0  0
 10 11  1  0  0  0
 11 12  2  0  0  0
 12 13  1  0  0  0
 13 14  2  0  0  0
 11 15  1  0  0  0
 15 16  2  0  0  0
 16 17  1  0  0  0
 17 18  2  0  0  0
 18 19  1  0  0  0
 19 20  2  0  0  0
 28 29  1  0  0  0
 29 30  2  0  0  0
 30 31  1  0  0  0
 31 32  2  0  0  0
 32 33  1  0  0  0
 33 34  2  0  0  0
 34 35  1  0  0  0
 35 36  1  0  0  0
 35 37  1  0  0  0
 35 38  1  0  0  0
  5  1  2  0  0  0
 14  6  1  0  0  0
 20 15  1  0  0  0
 34 29  1  0  0  0
 14  9  1  0  0  0
 22 24  1  0  0  0
 22 25  1  0  0  0
M  END
> <minimizedAffinity>
-9.84163

> <CNNscore>
0.3659222722

> <CNNaffinity>
7.4568495750

> <CNN_VS>
2.7286274433

> <CNNaffinity_variance>
0.2899960577

$$$$
[H]c1nc([H])c([H])c(-c2c([H])c([H])c3c(nc([H])n3-c3sc(C(=O)N([H])[H])c(O[C@@]([H])(c4c([H])c([H])c([H])c([H])c4C(F)(F)F)C([H])([H])[H])c3[H])c2[H])c1[H]


 38 42  0  0  0  0  0  0  0  0999 V2000
   53.4047   -4.5012   -7.4615 C   0  0  0  0  0  0  0  0  0  0  0  0
   54.5893   -4.8131   -8.0321 C   0  0  0  0  0  0  0  0  0  0  0  0
   54.8723   -4.2634   -9.2524 C   0  0  0  0  0  0  0  0  0  0  0  0
   53.4939   -3.3265   -9.5858 S   0  0  0  0  0  0  0  0  0  0  0  0
   52.5935   -3.6476   -8.1827 C   0  0  0  0  0  0  0  0  0  0  0  0
   56.0753   -4.4614  -10.0404 N   0  0  0  0  0  0  0  0  0  0  0  0
   56.1333   -4.1309  -11.3420 C   0  0  0  0  0  0  0  0  0  0  0  0
   57.3383   -4.4001  -11.8613 N   0  0  0  0  0  0  0  0  0  0  0  0
   58.0525   -4.9202  -10.8306 C   0  0  0  0  0  0  0  0  0  0  0  0
   59.3499   -5.3794  -10.7604 C   0  0  0  0  0  0  0  0  0  0  0  0
   59.8595   -5.8762   -9.5575 C   0  0  0  0  0  0  0  0  0  0  0  0
   59.0268   -5.8885   -8.4614 C   0  0  0  0  0  0  0  0  0  0  0  0
   57.7140   -5.4341   -8.4937 C   0  0  0  0  0  0  0  0  0  0  0  0
   57.2506   -4.9542   -9.6928 C   0  0  0  0  0  0  0  0  0  0  0  0
   61.2309   -6.3432   -9.5473 C   0  0  0  0  0  0  0  0  0  0  0  0
   61.7881   -7.0174  -10.6022 C   0  0  0  0  0  0  0  0  0  0  0  0
   63.0951   -7.4380  -10.5408 C   0  0  0  0  0  0  0  0  0  0  0  0
   63.8480   -7.2015   -9.4596 N   0  0  0  0  0  0  0  0  0  0  0  0
   63.3271   -6.5495   -8.4260 C   0  0  0  0  0  0  0  0  0  0  0  0
   62.0298   -6.1163   -8.4528 C   0  0  0  0  0  0  0  0  0  0  0  0
   51.2528   -3.1404   -7.8054 C   0  0  0  0  0  0  0  0  0  0  0  0
   51.0014   -1.7595   -7.9967 N   0  0  0  0  0  0  0  0  0  0  0  0
   50.3652   -3.8583   -7.3408 O   0  0  0  0  0  0  0  0  0  0  0  0
   51.4321   -1.2199   -8.7734 H   0  0  0  0  0  0  0  0  0  0  0  0
   50.3631   -1.2807   -7.3309 H   0  0  0  0  0  0  0  0  0  0  0  0
   52.9201   -4.9657   -6.1980 O   0  0  0  0  0  0  0  0  0  0  0  0
   54.1337   -7.0155   -5.8431 C   0  0  0  0  0  0  0  0  0  0  0  0
   53.7183   -5.6421   -5.2646 C   0  0  0  0  0  0  0  0  0  0  0  0
   53.2458   -5.7527   -3.9028 C   0  0  0  0  0  0  0  0  0  0  0  0
   51.8733   -6.0563   -3.6786 C   0  0  0  0  0  0  0  0  0  0  0  0
   51.3310   -6.1855   -2.4365 C   0  0  0  0  0  0  0  0  0  0  0  0
   52.1407   -6.0159   -1.3543 C   0  0  0  0  0  0  0  0  0  0  0  0
   53.4574   -5.7246   -1.5532 C   0  0  0  0  0  0  0  0  0  0  0  0
   54.0498   -5.5842   -2.8239 C   0  0  0  0  0  0  0  0  0  0  0  0
   55.4504   -5.2652   -2.9215 C   0  0  0  0  0  0  0  0  0  0  0  0
   56.3170   -6.3006   -3.1399 F   0  0  0  0  0  0  0  0  0  0  0  0
   55.8741   -4.8916   -1.6008 F   0  0  0  0  0  0  0  0  0  0  0  0
   55.7648   -4.0991   -3.5972 F   0  0  0  0  0  0  0  0  0  0  0  0
 27 28  1  0  0  0
 28 26  1  0  0  0
 26  1  1  0  0  0
  1  2  1  0  0  0
  2  3  2  0  0  0
  3  4  1  0  0  0
  4  5  1  0  0  0
  5 21  1  0  0  0
 21 22  1  0  0  0
 21 23  2  0  0  0
  3  6  1  0  0  0
  6  7  1  0  0  0
  7  8  2  0  0  0
  8  9  1  0  0  0
  9 10  2  0  0  0
 10 11  1  0  0  0
 11 12  2  0  0  0
 12 13  1  0  0  0
 13 14  2  0  0  0
 11 15  1  0  0  0
 15 16  2  0  0  0
 16 17  1  0  0  0
 17 18  2  0  0  0
 18 19  1  0  0  0
 19 20  2  0  0  0
 28 29  1  0  0  0
 29 30  2  0  0  0
 30 31  1  0  0  0
 31 32  2  0  0  0
 32 33  1  0  0  0
 33 34  2  0  0  0
 34 35  1  0  0  0
 35 36  1  0  0  0
 35 37  1  0  0  0
 35 38  1  0  0  0
  5  1  2  0  0  0
 14  6  1  0  0  0
 20 15  1  0  0  0
 34 29  1  0  0  0
 14  9  1  0  0  0
 22 24  1  0  0  0
 22 25  1  0  0  0
M  END
> <minimizedAffinity>
-9.12002

> <CNNscore>
0.3402627707

> <CNNaffinity>
7.2539262772

> <CNN_VS>
2.4682409763

> <CNNaffinity_variance>
0.2622822523

$$$$
[H]c1nc([H])c([H])c(-c2c([H])c([H])c3c(nc([H])n3-c3sc(C(=O)N([H])[H])c(O[C@@]([H])(c4c([H])c([H])c([H])c([H])c4Cl)C([H])([H])[H])c3[H])c2[H])c1[H]


 35 39  0  0  0  0  0  0  0  0999 V2000
   50.6047   -4.9324   -4.7781 C   0  0  0  0  0  0  0  0  0  0  0  0
   51.5598   -4.8404   -5.7974 C   0  0  0  0  0  0  0  0  0  0  0  0
   51.3647   -3.8618   -6.7070 C   0  0  0  0  0  0  0  0  0  0  0  0
   49.9596   -3.0972   -6.2097 S   0  0  0  0  0  0  0  0  0  0  0  0
   49.6039   -4.0796   -4.7820 C   0  0  0  0  0  0  0  0  0  0  0  0
   52.1768   -3.5802   -7.8727 N   0  0  0  0  0  0  0  0  0  0  0  0
   51.7712   -2.7706   -8.8987 C   0  0  0  0  0  0  0  0  0  0  0  0
   52.7661   -2.7036   -9.7910 N   0  0  0  0  0  0  0  0  0  0  0  0
   53.8020   -3.4572   -9.3543 C   0  0  0  0  0  0  0  0  0  0  0  0
   55.0463   -3.7477   -9.8507 C   0  0  0  0  0  0  0  0  0  0  0  0
   55.9430   -4.5733   -9.1855 C   0  0  0  0  0  0  0  0  0  0  0  0
   55.5005   -5.0832   -7.9974 C   0  0  0  0  0  0  0  0  0  0  0  0
   54.2715   -4.8340   -7.4448 C   0  0  0  0  0  0  0  0  0  0  0  0
   53.4027   -3.9927   -8.1545 C   0  0  0  0  0  0  0  0  0  0  0  0
   57.2478   -4.8541   -9.7388 C   0  0  0  0  0  0  0  0  0  0  0  0
   57.5524   -4.4240  -11.0170 C   0  0  0  0  0  0  0  0  0  0  0  0
   58.8240   -4.6971  -11.5533 C   0  0  0  0  0  0  0  0  0  0  0  0
   59.7325   -5.3715  -10.8255 N   0  0  0  0  0  0  0  0  0  0  0  0
   59.4598   -5.8014   -9.5782 C   0  0  0  0  0  0  0  0  0  0  0  0
   58.1917   -5.5359   -9.0328 C   0  0  0  0  0  0  0  0  0  0  0  0
   48.3343   -3.8591   -4.0485 C   0  0  0  0  0  0  0  0  0  0  0  0
   47.3722   -2.9010   -4.2778 N   0  0  0  0  0  0  0  0  0  0  0  0
   48.0906   -4.6571   -3.0492 O   0  0  0  0  0  0  0  0  0  0  0  0
   47.5805   -1.8717   -4.2824 H   0  0  0  0  0  0  0  0  0  0  0  0
   46.3838   -3.1818   -4.4513 H   0  0  0  0  0  0  0  0  0  0  0  0
   50.8696   -5.9642   -3.8589 O   0  0  0  0  0  0  0  0  0  0  0  0
   51.8646   -5.0161   -1.8983 C   0  0  0  0  0  0  0  0  0  0  0  0
   51.7020   -6.2256   -2.8834 C   0  0  0  0  0  0  0  0  0  0  0  0
   53.0317   -6.8589   -3.0661 C   0  0  0  0  0  0  0  0  0  0  0  0
   53.8193   -6.4872   -4.1786 C   0  0  0  0  0  0  0  0  0  0  0  0
   55.0770   -6.9245   -4.4058 C   0  0  0  0  0  0  0  0  0  0  0  0
   55.6597   -7.7909   -3.5151 C   0  0  0  0  0  0  0  0  0  0  0  0
   54.9442   -8.1890   -2.4154 C   0  0  0  0  0  0  0  0  0  0  0  0
   53.6421   -7.7187   -2.2067 C   0  0  0  0  0  0  0  0  0  0  0  0
   52.8024   -8.3293   -0.7991 Cl  0  0  0  0  0  0  0  0  0  0  0  0
 27 28  1  0  0  0
 28 26  1  0  0  0
 26  1  1  0  0  0
  1  2  1  0  0  0
  2  3  2  0  0  0
  3  4  1  0  0  0
  4  5  1  0  0  0
  5 21  1  0  0  0
 21 22  1  0  0  0
 21 23  2  0  0  0
  3  6  1  0  0  0
  6  7  1  0  0  0
  7  8  2  0  0  0
  8  9  1  0  0  0
  9 10  2  0  0  0
 10 11  1  0  0  0
 11 12  2  0  0  0
 12 13  1  0  0  0
 13 14  2  0  0  0
 11 15  1  0  0  0
 15 16  2  0  0  0
 16 17  1  0  0  0
 17 18  2  0  0  0
 18 19  1  0  0  0
 19 20  2  0  0  0
 28 29  1  0  0  0
 29 30  2  0  0  0
 30 31  1  0  0  0
 31 32  2  0  0  0
 32 33  1  0  0  0
 33 34  2  0  0  0
 34 35  1  0  0  0
  5  1  2  0  0  0
 14  6  1  0  0  0
 20 15  1  0  0  0
 34 29  1  0  0  0
 14  9  1  0  0  0
 22 24  1  0  0  0
 22 25  1  0  0  0
M  END
> <minimizedAffinity>
-10.12911

> <CNNscore>
0.8074727654

> <CNNaffinity>
8.0046701431

> <CNN_VS>
6.4635529518

> <CNNaffinity_variance>
0.0652519688

$$$$
[H]c1nc([H])c([H])c(-c2c([H])c([H])c3c(nc([H])n3-c3sc(C(=O)N([H])[H])c(O[C@@]([H])(c4c([H])c([H])c([H])c([H])c4Cl)C([H])([H])[H])c3[H])c2[H])c1[H]


 35 39  0  0  0  0  0  0  0  0999 V2000
   57.0735   -4.5517  -11.4035 C   0  0  0  0  0  0  0  0  0  0  0  0
   55.7826   -4.0998  -11.1054 C   0  0  0  0  0  0  0  0  0  0  0  0
   55.4304   -4.1272   -9.8022 C   0  0  0  0  0  0  0  0  0  0  0  0
   56.7789   -4.7312   -9.0130 S   0  0  0  0  0  0  0  0  0  0  0  0
   57.8335   -4.9662  -10.4139 C   0  0  0  0  0  0  0  0  0  0  0  0
   54.1498   -3.7552   -9.2370 N   0  0  0  0  0  0  0  0  0  0  0  0
   53.2794   -2.8898   -9.8418 C   0  0  0  0  0  0  0  0  0  0  0  0
   52.1899   -2.7927   -9.0712 N   0  0  0  0  0  0  0  0  0  0  0  0
   52.3479   -3.5807   -7.9823 C   0  0  0  0  0  0  0  0  0  0  0  0
   51.5721   -3.8624   -6.8878 C   0  0  0  0  0  0  0  0  0  0  0  0
   51.9808   -4.7316   -5.8850 C   0  0  0  0  0  0  0  0  0  0  0  0
   53.2160   -5.2893   -6.0595 C   0  0  0  0  0  0  0  0  0  0  0  0
   54.0414   -5.0516   -7.1272 C   0  0  0  0  0  0  0  0  0  0  0  0
   53.5824   -4.1674   -8.1142 C   0  0  0  0  0  0  0  0  0  0  0  0
   51.1337   -5.0067   -4.7472 C   0  0  0  0  0  0  0  0  0  0  0  0
   49.8897   -4.4090   -4.6642 C   0  0  0  0  0  0  0  0  0  0  0  0
   49.0659   -4.6793   -3.5564 C   0  0  0  0  0  0  0  0  0  0  0  0
   49.4888   -5.5123   -2.5883 N   0  0  0  0  0  0  0  0  0  0  0  0
   50.6965   -6.1065   -2.6460 C   0  0  0  0  0  0  0  0  0  0  0  0
   51.5291   -5.8422   -3.7474 C   0  0  0  0  0  0  0  0  0  0  0  0
   59.1468   -5.6294  -10.2292 C   0  0  0  0  0  0  0  0  0  0  0  0
   59.5286   -6.5035   -9.2360 N   0  0  0  0  0  0  0  0  0  0  0  0
   60.0710   -5.3489  -11.1021 O   0  0  0  0  0  0  0  0  0  0  0  0
   59.4732   -6.2670   -8.2144 H   0  0  0  0  0  0  0  0  0  0  0  0
   59.8986   -7.4463   -9.4815 H   0  0  0  0  0  0  0  0  0  0  0  0
   57.3820   -4.4891  -12.7748 O   0  0  0  0  0  0  0  0  0  0  0  0
   55.9550   -5.4713  -14.4276 C   0  0  0  0  0  0  0  0  0  0  0  0
   56.7800   -4.2419  -13.9104 C   0  0  0  0  0  0  0  0  0  0  0  0
   57.4290   -3.5931  -15.0768 C   0  0  0  0  0  0  0  0  0  0  0  0
   56.6476   -3.2934  -16.2151 C   0  0  0  0  0  0  0  0  0  0  0  0
   57.1000   -2.6274  -17.2998 C   0  0  0  0  0  0  0  0  0  0  0  0
   58.4035   -2.1992  -17.3314 C   0  0  0  0  0  0  0  0  0  0  0  0
   59.2120   -2.4613  -16.2557 C   0  0  0  0  0  0  0  0  0  0  0  0
   58.7146   -3.1539  -15.1453 C   0  0  0  0  0  0  0  0  0  0  0  0
   59.8450   -3.4781  -13.8505 Cl  0  0  0  0  0  0  0  0  0  0  0  0
 27 28  1  0  0  0
 28 26  1  0  0  0
 26  1  1  0  0  0
  1  2  1  0  0  0
  2  3  2  0  0  0
  3  4  1  0  0  0
  4  5  1  0  0  0
  5 21  1  0  0  0
 21 22  1  0  0  0
 21 23  2  0  0  0
  3  6  1  0  0  0
  6  7  1  0  0  0
  7  8  2  0  0  0
  8  9  1  0  0  0
  9 10  2  0  0  0
 10 11  1  0  0  0
 11 12  2  0  0  0
 12 13  1  0  0  0
 13 14  2  0  0  0
 11 15  1  0  0  0
 15 16  2  0  0  0
 16 17  1  0  0  0
 17 18  2  0  0  0
 18 19  1  0  0  0
 19 20  2  0  0  0
 28 29  1  0  0  0
 29 30  2  0  0  0
 30 31  1  0  0  0
 31 32  2  0  0  0
 32 33  1  0  0  0
 33 34  2  0  0  0
 34 35  1  0  0  0
  5  1  2  0  0  0
 14  6  1  0  0  0
 20 15  1  0  0  0
 34 29  1  0  0  0
 14  9  1  0  0  0
 22 24  1  0  0  0
 22 25  1  0  0  0
M  END
> <minimizedAffinity>
-9.88146

> <CNNscore>
0.7389366031

> <CNNaffinity>
7.3676366806

> <CNN_VS>
5.4442162514

> <CNNaffinity_variance>
0.1204260215

$$$$
[H]c1nc([H])c([H])c(-c2c([H])c([H])c3c(nc([H])n3-c3sc(C(=O)N([H])[H])c(O[C@@]([H])(c4c([H])c([H])c([H])c([H])c4Cl)C([H])([H])[H])c3[H])c2[H])c1[H]


 35 39  0  0  0  0  0  0  0  0999 V2000
   53.7027   -4.3565   -7.7160 C   0  0  0  0  0  0  0  0  0  0  0  0
   54.9046   -4.8033   -8.2778 C   0  0  0  0  0  0  0  0  0  0  0  0
   55.2721   -4.2167   -9.4370 C   0  0  0  0  0  0  0  0  0  0  0  0
   54.0552   -3.1101   -9.7546 S   0  0  0  0  0  0  0  0  0  0  0  0
   53.0293   -3.4199   -8.3470 C   0  0  0  0  0  0  0  0  0  0  0  0
   56.4403   -4.5221  -10.2369 N   0  0  0  0  0  0  0  0  0  0  0  0
   56.5069   -4.3137  -11.5877 C   0  0  0  0  0  0  0  0  0  0  0  0
   57.7275   -4.6726  -12.0021 N   0  0  0  0  0  0  0  0  0  0  0  0
   58.4438   -5.1083  -10.9396 C   0  0  0  0  0  0  0  0  0  0  0  0
   59.7188   -5.5860  -10.7798 C   0  0  0  0  0  0  0  0  0  0  0  0
   60.2221   -5.9762   -9.5459 C   0  0  0  0  0  0  0  0  0  0  0  0
   59.3574   -5.8551   -8.4947 C   0  0  0  0  0  0  0  0  0  0  0  0
   58.0729   -5.3862   -8.5843 C   0  0  0  0  0  0  0  0  0  0  0  0
   57.6120   -5.0034   -9.8521 C   0  0  0  0  0  0  0  0  0  0  0  0
   61.5730   -6.4721   -9.4159 C   0  0  0  0  0  0  0  0  0  0  0  0
   62.0753   -6.7586   -8.1600 C   0  0  0  0  0  0  0  0  0  0  0  0
   63.3903   -7.2427   -8.0358 C   0  0  0  0  0  0  0  0  0  0  0  0
   64.1490   -7.4236   -9.1319 N   0  0  0  0  0  0  0  0  0  0  0  0
   63.6828   -7.1515  -10.3662 C   0  0  0  0  0  0  0  0  0  0  0  0
   62.3708   -6.6653  -10.5023 C   0  0  0  0  0  0  0  0  0  0  0  0
   51.7133   -2.7442   -8.2466 C   0  0  0  0  0  0  0  0  0  0  0  0
   50.5156   -3.2693   -7.8155 N   0  0  0  0  0  0  0  0  0  0  0  0
   51.6656   -1.4989   -8.6232 O   0  0  0  0  0  0  0  0  0  0  0  0
   50.0767   -4.1205   -8.2464 H   0  0  0  0  0  0  0  0  0  0  0  0
   49.9972   -2.8181   -7.0322 H   0  0  0  0  0  0  0  0  0  0  0  0
   53.3812   -4.9991   -6.5064 O   0  0  0  0  0  0  0  0  0  0  0  0
   51.6261   -6.4809   -7.1824 C   0  0  0  0  0  0  0  0  0  0  0  0
   52.4901   -5.8379   -6.0423 C   0  0  0  0  0  0  0  0  0  0  0  0
   51.6020   -5.5593   -4.8863 C   0  0  0  0  0  0  0  0  0  0  0  0
   50.4124   -4.8272   -5.0985 C   0  0  0  0  0  0  0  0  0  0  0  0
   49.4828   -4.5862   -4.1485 C   0  0  0  0  0  0  0  0  0  0  0  0
   49.6762   -5.0706   -2.8792 C   0  0  0  0  0  0  0  0  0  0  0  0
   50.8131   -5.7885   -2.6114 C   0  0  0  0  0  0  0  0  0  0  0  0
   51.7590   -6.0222   -3.6168 C   0  0  0  0  0  0  0  0  0  0  0  0
   53.1956   -6.9061   -3.1541 Cl  0  0  0  0  0  0  0  0  0  0  0  0
 27 28  1  0  0  0
 28 26  1  0  0  0
 26  1  1  0  0  0
  1  2  1  0  0  0
  2  3  2  0  0  0
  3  4  1  0  0  0
  4  5  1  0  0  0
  5 21  1  0  0  0
 21 22  1  0  0  0
 21 23  2  0  0  0
  3  6  1  0  0  0
  6  7  1  0  0  0
  7  8  2  0  0  0
  8  9  1  0  0  0
  9 10  2  0  0  0
 10 11  1  0  0  0
 11 12  2  0  0  0
 12 13  1  0  0  0
 13 14  2  0  0  0
 11 15  1  0  0  0
 15 16  2  0  0  0
 16 17  1  0  0  0
 17 18  2  0  0  0
 18 19  1  0  0  0
 19 20  2  0  0  0
 28 29  1  0  0  0
 29 30  2  0  0  0
 30 31  1  0  0  0
 31 32  2  0  0  0
 32 33  1  0  0  0
 33 34  2  0  0  0
 34 35  1  0  0  0
  5  1  2  0  0  0
 14  6  1  0  0  0
 20 15  1  0  0  0
 34 29  1  0  0  0
 14  9  1  0  0  0
 22 24  1  0  0  0
 22 25  1  0  0  0
M  END
> <minimizedAffinity>
-9.07861

> <CNNscore>
0.7206727266

> <CNNaffinity>
7.4507856369

> <CNN_VS>
5.3695778847

> <CNNaffinity_variance>
0.1181147322

$$$$
[H]c1nc([H])c([H])c(-c2c([H])c([H])c3c(nc([H])n3-c3sc(C(=O)N([H])[H])c(O[C@@]([H])(c4c([H])c([H])c([H])c([H])c4Cl)C([H])([H])[H])c3[H])c2[H])c1[H]


 35 39  0  0  0  0  0  0  0  0999 V2000
   52.9587   -4.2318   -7.2498 C   0  0  0  0  0  0  0  0  0  0  0  0
   54.1665   -4.6121   -7.8467 C   0  0  0  0  0  0  0  0  0  0  0  0
   54.4335   -4.0606   -9.0498 C   0  0  0  0  0  0  0  0  0  0  0  0
   53.1183   -3.0711   -9.3619 S   0  0  0  0  0  0  0  0  0  0  0  0
   52.1844   -3.3855   -7.8926 C   0  0  0  0  0  0  0  0  0  0  0  0
   55.5858   -4.3154   -9.8895 N   0  0  0  0  0  0  0  0  0  0  0  0
   55.6227   -4.0333  -11.2280 C   0  0  0  0  0  0  0  0  0  0  0  0
   56.8358   -4.3623  -11.6869 N   0  0  0  0  0  0  0  0  0  0  0  0
   57.5765   -4.8511  -10.6651 C   0  0  0  0  0  0  0  0  0  0  0  0
   58.8567   -5.3297  -10.5583 C   0  0  0  0  0  0  0  0  0  0  0  0
   59.3879   -5.7837   -9.3584 C   0  0  0  0  0  0  0  0  0  0  0  0
   58.5452   -5.7249   -8.2843 C   0  0  0  0  0  0  0  0  0  0  0  0
   57.2570   -5.2591   -8.3212 C   0  0  0  0  0  0  0  0  0  0  0  0
   56.7675   -4.8103   -9.5562 C   0  0  0  0  0  0  0  0  0  0  0  0
   60.7434   -6.2783   -9.2841 C   0  0  0  0  0  0  0  0  0  0  0  0
   61.2316   -6.7486   -8.0790 C   0  0  0  0  0  0  0  0  0  0  0  0
   62.5511   -7.2311   -8.0092 C   0  0  0  0  0  0  0  0  0  0  0  0
   63.3280   -7.2328   -9.1075 N   0  0  0  0  0  0  0  0  0  0  0  0
   62.8758   -6.7796  -10.2928 C   0  0  0  0  0  0  0  0  0  0  0  0
   61.5594   -6.2932  -10.3741 C   0  0  0  0  0  0  0  0  0  0  0  0
   50.8239   -2.8106   -7.7618 C   0  0  0  0  0  0  0  0  0  0  0  0
   50.4399   -1.4933   -7.8775 N   0  0  0  0  0  0  0  0  0  0  0  0
   49.8612   -3.6437   -7.4897 O   0  0  0  0  0  0  0  0  0  0  0  0
   50.8511   -0.7247   -7.2918 H   0  0  0  0  0  0  0  0  0  0  0  0
   49.7060   -1.2198   -8.5649 H   0  0  0  0  0  0  0  0  0  0  0  0
   52.7442   -4.8328   -5.9959 O   0  0  0  0  0  0  0  0  0  0  0  0
   50.9371   -6.3964   -6.1459 C   0  0  0  0  0  0  0  0  0  0  0  0
   52.3028   -5.9640   -5.5076 C   0  0  0  0  0  0  0  0  0  0  0  0
   52.2645   -6.2917   -4.0605 C   0  0  0  0  0  0  0  0  0  0  0  0
   51.0783   -6.0436   -3.3343 C   0  0  0  0  0  0  0  0  0  0  0  0
   50.8901   -6.3784   -2.0392 C   0  0  0  0  0  0  0  0  0  0  0  0
   51.9004   -7.0028   -1.3517 C   0  0  0  0  0  0  0  0  0  0  0  0
   53.0770   -7.2697   -2.0030 C   0  0  0  0  0  0  0  0  0  0  0  0
   53.2427   -6.9106   -3.3460 C   0  0  0  0  0  0  0  0  0  0  0  0
   54.8003   -7.2526   -4.0644 Cl  0  0  0  0  0  0  0  0  0  0  0  0
 27 28  1  0  0  0
 28 26  1  0  0  0
 26  1  1  0  0  0
  1  2  1  0  0  0
  2  3  2  0  0  0
  3  4  1  0  0  0
  4  5  1  0  0  0
  5 21  1  0  0  0
 21 22  1  0  0  0
 21 23  2  0  0  0
  3  6  1  0  0  0
  6  7  1  0  0  0
  7  8  2  0  0  0
  8  9  1  0  0  0
  9 10  2  0  0  0
 10 11  1  0  0  0
 11 12  2  0  0  0
 12 13  1  0  0  0
 13 14  2  0  0  0
 11 15  1  0  0  0
 15 16  2  0  0  0
 16 17  1  0  0  0
 17 18  2  0  0  0
 18 19  1  0  0  0
 19 20  2  0  0  0
 28 29  1  0  0  0
 29 30  2  0  0  0
 30 31  1  0  0  0
 31 32  2  0  0  0
 32 33  1  0  0  0
 33 34  2  0  0  0
 34 35  1  0  0  0
  5  1  2  0  0  0
 14  6  1  0  0  0
 20 15  1  0  0  0
 34 29  1  0  0  0
 14  9  1  0  0  0
 22 24  1  0  0  0
 22 25  1  0  0  0
M  END
> <minimizedAffinity>
-9.25276

> <CNNscore>
0.7099492550

> <CNNaffinity>
7.6076712608

> <CNN_VS>
5.4010605812

> <CNNaffinity_variance>
0.0800170526

$$$$
[H]c1nc([H])c([H])c(-c2c([H])c([H])c3c(nc([H])n3-c3sc(C(=O)N([H])[H])c(O[C@@]([H])(c4c([H])c([H])c([H])c([H])c4Cl)C([H])([H])[H])c3[H])c2[H])c1[H]


 35 39  0  0  0  0  0  0  0  0999 V2000
   52.2182   -4.5754   -7.2803 C   0  0  0  0  0  0  0  0  0  0  0  0
   53.3776   -4.9682   -7.9593 C   0  0  0  0  0  0  0  0  0  0  0  0
   53.8821   -4.0755   -8.8377 C   0  0  0  0  0  0  0  0  0  0  0  0
   52.8435   -2.7641   -8.7506 S   0  0  0  0  0  0  0  0  0  0  0  0
   51.7112   -3.3914   -7.5445 C   0  0  0  0  0  0  0  0  0  0  0  0
   55.0399   -4.2498   -9.6903 N   0  0  0  0  0  0  0  0  0  0  0  0
   55.0665   -3.8930  -11.0111 C   0  0  0  0  0  0  0  0  0  0  0  0
   56.2879   -4.1606  -11.4875 N   0  0  0  0  0  0  0  0  0  0  0  0
   57.0442   -4.6836  -10.4944 C   0  0  0  0  0  0  0  0  0  0  0  0
   58.3378   -5.1299  -10.4143 C   0  0  0  0  0  0  0  0  0  0  0  0
   58.8839   -5.6340   -9.2414 C   0  0  0  0  0  0  0  0  0  0  0  0
   58.0417   -5.6594   -8.1656 C   0  0  0  0  0  0  0  0  0  0  0  0
   56.7404   -5.2299   -8.1767 C   0  0  0  0  0  0  0  0  0  0  0  0
   56.2361   -4.7278   -9.3850 C   0  0  0  0  0  0  0  0  0  0  0  0
   60.2534   -6.0923   -9.1946 C   0  0  0  0  0  0  0  0  0  0  0  0
   60.9940   -6.1452  -10.3609 C   0  0  0  0  0  0  0  0  0  0  0  0
   62.3276   -6.5903  -10.3130 C   0  0  0  0  0  0  0  0  0  0  0  0
   62.8736   -6.9607   -9.1406 N   0  0  0  0  0  0  0  0  0  0  0  0
   62.1728   -6.9186   -7.9908 C   0  0  0  0  0  0  0  0  0  0  0  0
   60.8385   -6.4774   -8.0270 C   0  0  0  0  0  0  0  0  0  0  0  0
   50.4943   -2.6099   -7.2175 C   0  0  0  0  0  0  0  0  0  0  0  0
   50.1706   -1.3308   -7.6117 N   0  0  0  0  0  0  0  0  0  0  0  0
   49.6169   -3.1889   -6.4496 O   0  0  0  0  0  0  0  0  0  0  0  0
   50.7870   -0.5017   -7.4238 H   0  0  0  0  0  0  0  0  0  0  0  0
   49.2768   -1.1481   -8.1154 H   0  0  0  0  0  0  0  0  0  0  0  0
   51.7490   -5.5441   -6.3742 O   0  0  0  0  0  0  0  0  0  0  0  0
   50.9175   -4.8693   -4.2326 C   0  0  0  0  0  0  0  0  0  0  0  0
   51.8222   -5.8158   -5.0960 C   0  0  0  0  0  0  0  0  0  0  0  0
   53.0913   -6.0441   -4.3612 C   0  0  0  0  0  0  0  0  0  0  0  0
   54.2744   -5.4331   -4.8333 C   0  0  0  0  0  0  0  0  0  0  0  0
   55.4690   -5.4922   -4.2054 C   0  0  0  0  0  0  0  0  0  0  0  0
   55.5760   -6.1860   -3.0262 C   0  0  0  0  0  0  0  0  0  0  0  0
   54.4615   -6.8017   -2.5177 C   0  0  0  0  0  0  0  0  0  0  0  0
   53.2367   -6.7228   -3.1913 C   0  0  0  0  0  0  0  0  0  0  0  0
   51.8920   -7.5863   -2.4804 Cl  0  0  0  0  0  0  0  0  0  0  0  0
 27 28  1  0  0  0
 28 26  1  0  0  0
 26  1  1  0  0  0
  1  2  1  0  0  0
  2  3  2  0  0  0
  3  4  1  0  0  0
  4  5  1  0  0  0
  5 21  1  0  0  0
 21 22  1  0  0  0
 21 23  2  0  0  0
  3  6  1  0  0  0
  6  7  1  0  0  0
  7  8  2  0  0  0
  8  9  1  0  0  0
  9 10  2  0  0  0
 10 11  1  0  0  0
 11 12  2  0  0  0
 12 13  1  0  0  0
 13 14  2  0  0  0
 11 15  1  0  0  0
 15 16  2  0  0  0
 16 17  1  0  0  0
 17 18  2  0  0  0
 18 19  1  0  0  0
 19 20  2  0  0  0
 28 29  1  0  0  0
 29 30  2  0  0  0
 30 31  1  0  0  0
 31 32  2  0  0  0
 32 33  1  0  0  0
 33 34  2  0  0  0
 34 35  1  0  0  0
  5  1  2  0  0  0
 14  6  1  0  0  0
 20 15  1  0  0  0
 34 29  1  0  0  0
 14  9  1  0  0  0
 22 24  1  0  0  0
 22 25  1  0  0  0
M  END
> <minimizedAffinity>
-8.90155

> <CNNscore>
0.6448320746

> <CNNaffinity>
7.7791290283

> <CNN_VS>
5.0162320137

> <CNNaffinity_variance>
0.2119176835

$$$$
[H]c1nc([H])c([H])c(-c2c([H])c([H])c3c(nc([H])n3-c3sc(C(=O)N([H])[H])c(O[C@@]([H])(c4c([H])c([H])c([H])c([H])c4Cl)C([H])([H])[H])c3[H])c2[H])c1[H]


 35 39  0  0  0  0  0  0  0  0999 V2000
   56.5953   -5.5109   -7.2218 C   0  0  0  0  0  0  0  0  0  0  0  0
   55.3264   -4.9739   -6.9743 C   0  0  0  0  0  0  0  0  0  0  0  0
   54.7289   -4.3581   -8.0168 C   0  0  0  0  0  0  0  0  0  0  0  0
   55.8254   -4.4991   -9.2754 S   0  0  0  0  0  0  0  0  0  0  0  0
   57.1059   -5.3759   -8.4259 C   0  0  0  0  0  0  0  0  0  0  0  0
   53.4438   -3.6901   -8.0151 N   0  0  0  0  0  0  0  0  0  0  0  0
   53.0460   -2.8143   -8.9883 C   0  0  0  0  0  0  0  0  0  0  0  0
   51.8046   -2.4083   -8.6973 N   0  0  0  0  0  0  0  0  0  0  0  0
   51.4007   -3.0087   -7.5536 C   0  0  0  0  0  0  0  0  0  0  0  0
   50.2515   -2.9649   -6.8075 C   0  0  0  0  0  0  0  0  0  0  0  0
   50.0888   -3.6998   -5.6407 C   0  0  0  0  0  0  0  0  0  0  0  0
   51.1567   -4.4724   -5.2803 C   0  0  0  0  0  0  0  0  0  0  0  0
   52.3323   -4.5623   -5.9786 C   0  0  0  0  0  0  0  0  0  0  0  0
   52.4469   -3.8019   -7.1512 C   0  0  0  0  0  0  0  0  0  0  0  0
   48.8610   -3.6304   -4.8822 C   0  0  0  0  0  0  0  0  0  0  0  0
   47.9779   -2.5911   -5.1096 C   0  0  0  0  0  0  0  0  0  0  0  0
   46.7824   -2.5261   -4.3711 C   0  0  0  0  0  0  0  0  0  0  0  0
   46.5048   -3.4688   -3.4524 N   0  0  0  0  0  0  0  0  0  0  0  0
   47.3489   -4.4909   -3.2121 C   0  0  0  0  0  0  0  0  0  0  0  0
   48.5476   -4.5649   -3.9427 C   0  0  0  0  0  0  0  0  0  0  0  0
   58.3928   -5.6288   -9.1176 C   0  0  0  0  0  0  0  0  0  0  0  0
   59.5857   -6.0488   -8.5728 N   0  0  0  0  0  0  0  0  0  0  0  0
   58.4170   -5.4186  -10.4021 O   0  0  0  0  0  0  0  0  0  0  0  0
   60.0720   -5.5346   -7.7970 H   0  0  0  0  0  0  0  0  0  0  0  0
   60.0518   -6.9089   -8.9319 H   0  0  0  0  0  0  0  0  0  0  0  0
   57.1590   -6.1462   -6.1001 O   0  0  0  0  0  0  0  0  0  0  0  0
   56.4640   -5.2006   -4.0131 C   0  0  0  0  0  0  0  0  0  0  0  0
   56.8257   -6.4605   -4.8741 C   0  0  0  0  0  0  0  0  0  0  0  0
   57.5835   -7.4070   -4.0182 C   0  0  0  0  0  0  0  0  0  0  0  0
   58.9812   -7.5174   -4.1918 C   0  0  0  0  0  0  0  0  0  0  0  0
   59.7906   -8.2741   -3.4192 C   0  0  0  0  0  0  0  0  0  0  0  0
   59.2506   -8.9991   -2.3866 C   0  0  0  0  0  0  0  0  0  0  0  0
   57.8986   -8.9333   -2.1686 C   0  0  0  0  0  0  0  0  0  0  0  0
   57.0850   -8.1399   -2.9863 C   0  0  0  0  0  0  0  0  0  0  0  0
   55.3686   -8.1682   -2.6512 Cl  0  0  0  0  0  0  0  0  0  0  0  0
 27 28  1  0  0  0
 28 26  1  0  0  0
 26  1  1  0  0  0
  1  2  1  0  0  0
  2  3  2  0  0  0
  3  4  1  0  0  0
  4  5  1  0  0  0
  5 21  1  0  0  0
 21 22  1  0  0  0
 21 23  2  0  0  0
  3  6  1  0  0  0
  6  7  1  0  0  0
  7  8  2  0  0  0
  8  9  1  0  0  0
  9 10  2  0  0  0
 10 11  1  0  0  0
 11 12  2  0  0  0
 12 13  1  0  0  0
 13 14  2  0  0  0
 11 15  1  0  0  0
 15 16  2  0  0  0
 16 17  1  0  0  0
 17 18  2  0  0  0
 18 19  1  0  0  0
 19 20  2  0  0  0
 28 29  1  0  0  0
 29 30  2  0  0  0
 30 31  1  0  0  0
 31 32  2  0  0  0
 32 33  1  0  0  0
 33 34  2  0  0  0
 34 35  1  0  0  0
  5  1  2  0  0  0
 14  6  1  0  0  0
 20 15  1  0  0  0
 34 29  1  0  0  0
 14  9  1  0  0  0
 22 24  1  0  0  0
 22 25  1  0  0  0
M  END
> <minimizedAffinity>
-7.85074

> <CNNscore>
0.6418496370

> <CNNaffinity>
7.4967851639

> <CNN_VS>
4.8118090630

> <CNNaffinity_variance>
0.1603205651

$$$$
[H]c1nc([H])c([H])c(-c2c([H])c([H])c3c(nc([H])n3-c3sc(C(=O)N([H])[H])c(O[C@@]([H])(c4c([H])c([H])c([H])c([H])c4Cl)C([H])([H])[H])c3[H])c2[H])c1[H]


 35 39  0  0  0  0  0  0  0  0999 V2000
   52.9221   -4.5847   -7.1757 C   0  0  0  0  0  0  0  0  0  0  0  0
   54.1321   -4.9110   -7.7996 C   0  0  0  0  0  0  0  0  0  0  0  0
   54.4292   -4.2163   -8.9185 C   0  0  0  0  0  0  0  0  0  0  0  0
   53.1384   -3.1676   -9.1196 S   0  0  0  0  0  0  0  0  0  0  0  0
   52.1747   -3.6473   -7.7157 C   0  0  0  0  0  0  0  0  0  0  0  0
   55.5900   -4.3860   -9.7679 N   0  0  0  0  0  0  0  0  0  0  0  0
   55.6221   -4.0195  -11.0860 C   0  0  0  0  0  0  0  0  0  0  0  0
   56.8449   -4.2854  -11.5597 N   0  0  0  0  0  0  0  0  0  0  0  0
   57.5966   -4.8168  -10.5676 C   0  0  0  0  0  0  0  0  0  0  0  0
   58.8894   -5.2655  -10.4859 C   0  0  0  0  0  0  0  0  0  0  0  0
   59.4303   -5.7790   -9.3147 C   0  0  0  0  0  0  0  0  0  0  0  0
   58.5839   -5.8111   -8.2423 C   0  0  0  0  0  0  0  0  0  0  0  0
   57.2833   -5.3796   -8.2551 C   0  0  0  0  0  0  0  0  0  0  0  0
   56.7843   -4.8680   -9.4616 C   0  0  0  0  0  0  0  0  0  0  0  0
   60.7989   -6.2397   -9.2661 C   0  0  0  0  0  0  0  0  0  0  0  0
   61.5513   -6.2624  -10.4258 C   0  0  0  0  0  0  0  0  0  0  0  0
   62.8841   -6.7099  -10.3761 C   0  0  0  0  0  0  0  0  0  0  0  0
   63.4178   -7.1116   -9.2084 N   0  0  0  0  0  0  0  0  0  0  0  0
   62.7054   -7.0993   -8.0651 C   0  0  0  0  0  0  0  0  0  0  0  0
   61.3719   -6.6560   -8.1032 C   0  0  0  0  0  0  0  0  0  0  0  0
   50.8235   -3.0654   -7.5311 C   0  0  0  0  0  0  0  0  0  0  0  0
   50.4415   -1.7464   -7.6342 N   0  0  0  0  0  0  0  0  0  0  0  0
   49.8686   -3.8931   -7.2184 O   0  0  0  0  0  0  0  0  0  0  0  0
   50.8798   -0.9787   -7.0674 H   0  0  0  0  0  0  0  0  0  0  0  0
   49.6817   -1.4708   -8.2920 H   0  0  0  0  0  0  0  0  0  0  0  0
   52.6758   -5.3362   -6.0120 O   0  0  0  0  0  0  0  0  0  0  0  0
   54.6471   -6.0402   -4.8496 C   0  0  0  0  0  0  0  0  0  0  0  0
   53.1786   -5.4908   -4.8136 C   0  0  0  0  0  0  0  0  0  0  0  0
   52.4661   -6.1409   -3.6856 C   0  0  0  0  0  0  0  0  0  0  0  0
   53.1204   -7.1619   -2.9608 C   0  0  0  0  0  0  0  0  0  0  0  0
   52.6142   -7.7661   -1.8638 C   0  0  0  0  0  0  0  0  0  0  0  0
   51.3815   -7.3868   -1.3948 C   0  0  0  0  0  0  0  0  0  0  0  0
   50.6968   -6.4007   -2.0570 C   0  0  0  0  0  0  0  0  0  0  0  0
   51.2474   -5.7927   -3.1916 C   0  0  0  0  0  0  0  0  0  0  0  0
   50.2677   -4.5821   -3.9879 Cl  0  0  0  0  0  0  0  0  0  0  0  0
 27 28  1  0  0  0
 28 26  1  0  0  0
 26  1  1  0  0  0
  1  2  1  0  0  0
  2  3  2  0  0  0
  3  4  1  0  0  0
  4  5  1  0  0  0
  5 21  1  0  0  0
 21 22  1  0  0  0
 21 23  2  0  0  0
  3  6  1  0  0  0
  6  7  1  0  0  0
  7  8  2  0  0  0
  8  9  1  0  0  0
  9 10  2  0  0  0
 10 11  1  0  0  0
 11 12  2  0  0  0
 12 13  1  0  0  0
 13 14  2  0  0  0
 11 15  1  0  0  0
 15 16  2  0  0  0
 16 17  1  0  0  0
 17 18  2  0  0  0
 18 19  1  0  0  0
 19 20  2  0  0  0
 28 29  1  0  0  0
 29 30  2  0  0  0
 30 31  1  0  0  0
 31 32  2  0  0  0
 32 33  1  0  0  0
 33 34  2  0  0  0
 34 35  1  0  0  0
  5  1  2  0  0  0
 14  6  1  0  0  0
 20 15  1  0  0  0
 34 29  1  0  0  0
 14  9  1  0  0  0
 22 24  1  0  0  0
 22 25  1  0  0  0
M  END
> <minimizedAffinity>
-9.29314

> <CNNscore>
0.6232954860

> <CNNaffinity>
7.6185188293

> <CNN_VS>
4.7485885620

> <CNNaffinity_variance>
0.1580606252

$$$$
[H]c1nc([H])c([H])c(-c2c([H])c([H])c3c(nc([H])n3-c3sc(C(=O)N([H])[H])c(O[C@@]([H])(c4c([H])c([H])c([H])c([H])c4Cl)C([H])([H])[H])c3[H])c2[H])c1[H]


 35 39  0  0  0  0  0  0  0  0999 V2000
   56.7553   -5.5879   -7.3560 C   0  0  0  0  0  0  0  0  0  0  0  0
   55.4831   -5.0583   -7.1096 C   0  0  0  0  0  0  0  0  0  0  0  0
   54.9066   -4.3969   -8.1358 C   0  0  0  0  0  0  0  0  0  0  0  0
   56.0263   -4.4872   -9.3785 S   0  0  0  0  0  0  0  0  0  0  0  0
   57.2887   -5.4032   -8.5435 C   0  0  0  0  0  0  0  0  0  0  0  0
   53.6231   -3.7259   -8.1296 N   0  0  0  0  0  0  0  0  0  0  0  0
   53.2215   -2.8537   -9.1046 C   0  0  0  0  0  0  0  0  0  0  0  0
   51.9829   -2.4434   -8.8082 N   0  0  0  0  0  0  0  0  0  0  0  0
   51.5844   -3.0374   -7.6592 C   0  0  0  0  0  0  0  0  0  0  0  0
   50.4398   -2.9872   -6.9065 C   0  0  0  0  0  0  0  0  0  0  0  0
   50.2824   -3.7162   -5.7351 C   0  0  0  0  0  0  0  0  0  0  0  0
   51.3507   -4.4895   -5.3774 C   0  0  0  0  0  0  0  0  0  0  0  0
   52.5218   -4.5856   -6.0823 C   0  0  0  0  0  0  0  0  0  0  0  0
   52.6312   -3.8311   -7.2593 C   0  0  0  0  0  0  0  0  0  0  0  0
   49.0593   -3.6402   -4.9696 C   0  0  0  0  0  0  0  0  0  0  0  0
   48.1832   -2.5931   -5.1882 C   0  0  0  0  0  0  0  0  0  0  0  0
   46.9922   -2.5218   -4.4428 C   0  0  0  0  0  0  0  0  0  0  0  0
   46.7123   -3.4659   -3.5263 N   0  0  0  0  0  0  0  0  0  0  0  0
   47.5497   -4.4954   -3.2946 C   0  0  0  0  0  0  0  0  0  0  0  0
   48.7438   -4.5759   -4.0321 C   0  0  0  0  0  0  0  0  0  0  0  0
   58.5879   -5.6301   -9.2211 C   0  0  0  0  0  0  0  0  0  0  0  0
   59.7822   -6.0294   -8.6639 N   0  0  0  0  0  0  0  0  0  0  0  0
   58.6227   -5.4158  -10.5047 O   0  0  0  0  0  0  0  0  0  0  0  0
   60.2500   -5.5085   -7.8812 H   0  0  0  0  0  0  0  0  0  0  0  0
   60.2682   -6.8796   -9.0200 H   0  0  0  0  0  0  0  0  0  0  0  0
   57.2965   -6.2721   -6.2521 O   0  0  0  0  0  0  0  0  0  0  0  0
   58.0734   -7.3938   -4.2845 C   0  0  0  0  0  0  0  0  0  0  0  0
   57.1708   -6.2971   -4.9496 C   0  0  0  0  0  0  0  0  0  0  0  0
   55.8707   -6.2679   -4.2344 C   0  0  0  0  0  0  0  0  0  0  0  0
   54.9986   -7.3728   -4.3555 C   0  0  0  0  0  0  0  0  0  0  0  0
   53.8322   -7.5036   -3.6868 C   0  0  0  0  0  0  0  0  0  0  0  0
   53.4366   -6.5130   -2.8233 C   0  0  0  0  0  0  0  0  0  0  0  0
   54.2412   -5.4144   -2.6640 C   0  0  0  0  0  0  0  0  0  0  0  0
   55.4448   -5.3070   -3.3709 C   0  0  0  0  0  0  0  0  0  0  0  0
   56.3691   -3.8415   -3.1306 Cl  0  0  0  0  0  0  0  0  0  0  0  0
 27 28  1  0  0  0
 28 26  1  0  0  0
 26  1  1  0  0  0
  1  2  1  0  0  0
  2  3  2  0  0  0
  3  4  1  0  0  0
  4  5  1  0  0  0
  5 21  1  0  0  0
 21 22  1  0  0  0
 21 23  2  0  0  0
  3  6  1  0  0  0
  6  7  1  0  0  0
  7  8  2  0  0  0
  8  9  1  0  0  0
  9 10  2  0  0  0
 10 11  1  0  0  0
 11 12  2  0  0  0
 12 13  1  0  0  0
 13 14  2  0  0  0
 11 15  1  0  0  0
 15 16  2  0  0  0
 16 17  1  0  0  0
 17 18  2  0  0  0
 18 19  1  0  0  0
 19 20  2  0  0  0
 28 29  1  0  0  0
 29 30  2  0  0  0
 30 31  1  0  0  0
 31 32  2  0  0  0
 32 33  1  0  0  0
 33 34  2  0  0  0
 34 35  1  0  0  0
  5  1  2  0  0  0
 14  6  1  0  0  0
 20 15  1  0  0  0
 34 29  1  0  0  0
 14  9  1  0  0  0
 22 24  1  0  0  0
 22 25  1  0  0  0
M  END
> <minimizedAffinity>
-8.23184

> <CNNscore>
0.5541206598

> <CNNaffinity>
7.6830711365

> <CNN_VS>
4.2573485374

> <CNNaffinity_variance>
0.2145623267

$$$$
[H]c1nc([H])c([H])c(-c2c([H])c([H])c3c(nc([H])n3-c3sc(C(=O)N([H])[H])c(O[C@@]([H])(c4c([H])c([H])c([H])c([H])c4Cl)C([H])([H])[H])c3[H])c2[H])c1[H]


 35 39  0  0  0  0  0  0  0  0999 V2000
   57.8672   -5.3767   -9.3119 C   0  0  0  0  0  0  0  0  0  0  0  0
   58.9765   -5.9632   -8.6912 C   0  0  0  0  0  0  0  0  0  0  0  0
   60.0956   -6.0562   -9.4408 C   0  0  0  0  0  0  0  0  0  0  0  0
   59.6740   -5.3808  -10.9147 S   0  0  0  0  0  0  0  0  0  0  0  0
   57.9907   -4.9710  -10.5565 C   0  0  0  0  0  0  0  0  0  0  0  0
   61.3575   -6.6523   -9.0535 N   0  0  0  0  0  0  0  0  0  0  0  0
   62.2594   -6.0413   -8.2253 C   0  0  0  0  0  0  0  0  0  0  0  0
   63.2927   -6.8738   -8.0527 N   0  0  0  0  0  0  0  0  0  0  0  0
   63.0683   -8.0076   -8.7569 C   0  0  0  0  0  0  0  0  0  0  0  0
   63.7709   -9.1699   -8.9429 C   0  0  0  0  0  0  0  0  0  0  0  0
   63.3032  -10.2075   -9.7385 C   0  0  0  0  0  0  0  0  0  0  0  0
   62.0905   -9.9921  -10.3304 C   0  0  0  0  0  0  0  0  0  0  0  0
   61.3374   -8.8563  -10.1873 C   0  0  0  0  0  0  0  0  0  0  0  0
   61.8524   -7.8381   -9.3722 C   0  0  0  0  0  0  0  0  0  0  0  0
   64.0708  -11.4198   -9.9081 C   0  0  0  0  0  0  0  0  0  0  0  0
   64.5174  -11.7722  -11.1683 C   0  0  0  0  0  0  0  0  0  0  0  0
   65.2659  -12.9521  -11.3311 C   0  0  0  0  0  0  0  0  0  0  0  0
   65.5422  -13.7281  -10.2675 N   0  0  0  0  0  0  0  0  0  0  0  0
   65.1181  -13.4067   -9.0298 C   0  0  0  0  0  0  0  0  0  0  0  0
   64.3676  -12.2308   -8.8555 C   0  0  0  0  0  0  0  0  0  0  0  0
   57.1265   -4.4447  -11.6403 C   0  0  0  0  0  0  0  0  0  0  0  0
   56.0655   -3.5729  -11.5379 N   0  0  0  0  0  0  0  0  0  0  0  0
   57.3831   -4.8614  -12.8466 O   0  0  0  0  0  0  0  0  0  0  0  0
   55.2326   -3.7560  -10.9250 H   0  0  0  0  0  0  0  0  0  0  0  0
   56.0602   -2.6871  -12.0868 H   0  0  0  0  0  0  0  0  0  0  0  0
   56.7377   -5.3008   -8.4763 O   0  0  0  0  0  0  0  0  0  0  0  0
   56.4673   -3.5623   -6.8523 C   0  0  0  0  0  0  0  0  0  0  0  0
   55.8898   -4.4023   -8.0441 C   0  0  0  0  0  0  0  0  0  0  0  0
   54.4551   -4.6686   -7.7736 C   0  0  0  0  0  0  0  0  0  0  0  0
   54.0961   -5.8514   -7.0894 C   0  0  0  0  0  0  0  0  0  0  0  0
   52.8382   -6.1627   -6.7080 C   0  0  0  0  0  0  0  0  0  0  0  0
   51.8147   -5.2929   -6.9895 C   0  0  0  0  0  0  0  0  0  0  0  0
   52.1008   -4.1276   -7.6529 C   0  0  0  0  0  0  0  0  0  0  0  0
   53.4147   -3.8323   -8.0356 C   0  0  0  0  0  0  0  0  0  0  0  0
   53.6595   -2.3435   -8.9204 Cl  0  0  0  0  0  0  0  0  0  0  0  0
 27 28  1  0  0  0
 28 26  1  0  0  0
 26  1  1  0  0  0
  1  2  1  0  0  0
  2  3  2  0  0  0
  3  4  1  0  0  0
  4  5  1  0  0  0
  5 21  1  0  0  0
 21 22  1  0  0  0
 21 23  2  0  0  0
  3  6  1  0  0  0
  6  7  1  0  0  0
  7  8  2  0  0  0
  8  9  1  0  0  0
  9 10  2  0  0  0
 10 11  1  0  0  0
 11 12  2  0  0  0
 12 13  1  0  0  0
 13 14  2  0  0  0
 11 15  1  0  0  0
 15 16  2  0  0  0
 16 17  1  0  0  0
 17 18  2  0  0  0
 18 19  1  0  0  0
 19 20  2  0  0  0
 28 29  1  0  0  0
 29 30  2  0  0  0
 30 31  1  0  0  0
 31 32  2  0  0  0
 32 33  1  0  0  0
 33 34  2  0  0  0
 34 35  1  0  0  0
  5  1  2  0  0  0
 14  6  1  0  0  0
 20 15  1  0  0  0
 34 29  1  0  0  0
 14  9  1  0  0  0
 22 24  1  0  0  0
 22 25  1  0  0  0
M  END
> <minimizedAffinity>
-6.74740

> <CNNscore>
0.4235453010

> <CNNaffinity>
6.1226453781

> <CNN_VS>
2.5932176113

> <CNNaffinity_variance>
0.2194440663

$$$$
[H]c1nn(C([H])([H])[H])c([H])c1-c1c([H])c([H])c2c(nc([H])n2-c2sc(C(=O)N([H])[H])c(O[C@@]([H])(c3c([H])c([H])c([H])c([H])c3Cl)C([H])([H])[H])c2[H])c1[H]


 35 39  0  0  0  0  0  0  0  0999 V2000
   50.7973   -4.5674   -4.8208 C   0  0  0  0  0  0  0  0  0  0  0  0
   51.7575   -4.5617   -5.7558 C   0  0  0  0  0  0  0  0  0  0  0  0
   51.5730   -3.8048   -6.8642 C   0  0  0  0  0  0  0  0  0  0  0  0
   50.0409   -3.1012   -6.5835 S   0  0  0  0  0  0  0  0  0  0  0  0
   49.6880   -3.7942   -5.0658 C   0  0  0  0  0  0  0  0  0  0  0  0
   52.4374   -3.6217   -8.0056 N   0  0  0  0  0  0  0  0  0  0  0  0
   52.0738   -2.9315   -9.1016 C   0  0  0  0  0  0  0  0  0  0  0  0
   53.0716   -2.9237  -10.0019 N   0  0  0  0  0  0  0  0  0  0  0  0
   54.0990   -3.6256   -9.4702 C   0  0  0  0  0  0  0  0  0  0  0  0
   55.3486   -3.9269   -9.9588 C   0  0  0  0  0  0  0  0  0  0  0  0
   56.2129   -4.6766   -9.1845 C   0  0  0  0  0  0  0  0  0  0  0  0
   55.8086   -5.1043   -7.9476 C   0  0  0  0  0  0  0  0  0  0  0  0
   54.5335   -4.7900   -7.4631 C   0  0  0  0  0  0  0  0  0  0  0  0
   53.6717   -4.0523   -8.2149 C   0  0  0  0  0  0  0  0  0  0  0  0
   57.5425   -4.9975   -9.7074 C   0  0  0  0  0  0  0  0  0  0  0  0
   58.0457   -4.7425  -10.9593 C   0  0  0  0  0  0  0  0  0  0  0  0
   59.3044   -5.2135  -10.9802 N   0  0  0  0  0  0  0  0  0  0  0  0
   59.6131   -5.7467   -9.8131 N   0  0  0  0  0  0  0  0  0  0  0  0
   60.8619   -6.3621   -9.4119 C   0  0  0  0  0  0  0  0  0  0  0  0
   58.5440   -5.6276   -9.0073 C   0  0  0  0  0  0  0  0  0  0  0  0
   48.4891   -3.5876   -4.2624 C   0  0  0  0  0  0  0  0  0  0  0  0
   48.0336   -4.5429   -3.3248 N   0  0  0  0  0  0  0  0  0  0  0  0
   47.8403   -2.5311   -4.4057 O   0  0  0  0  0  0  0  0  0  0  0  0
   47.0836   -4.9698   -3.3572 H   0  0  0  0  0  0  0  0  0  0  0  0
   48.6791   -4.8340   -2.5653 H   0  0  0  0  0  0  0  0  0  0  0  0
   50.8356   -5.3032   -3.6063 O   0  0  0  0  0  0  0  0  0  0  0  0
   50.8390   -7.3680   -2.4833 C   0  0  0  0  0  0  0  0  0  0  0  0
   51.6377   -6.4174   -3.3842 C   0  0  0  0  0  0  0  0  0  0  0  0
   52.8908   -6.0192   -2.7400 C   0  0  0  0  0  0  0  0  0  0  0  0
   52.9403   -5.3885   -1.5041 C   0  0  0  0  0  0  0  0  0  0  0  0
   54.1004   -5.0050   -0.8857 C   0  0  0  0  0  0  0  0  0  0  0  0
   55.3025   -5.2458   -1.5021 C   0  0  0  0  0  0  0  0  0  0  0  0
   55.2864   -5.8701   -2.7292 C   0  0  0  0  0  0  0  0  0  0  0  0
   54.0934   -6.2578   -3.3517 C   0  0  0  0  0  0  0  0  0  0  0  0
   54.2610   -7.0356   -4.8959 Cl  0  0  0  0  0  0  0  0  0  0  0  0
 27 28  1  0  0  0
 28 26  1  0  0  0
 26  1  1  0  0  0
  1  2  1  0  0  0
  2  3  2  0  0  0
  3  4  1  0  0  0
  4  5  1  0  0  0
  5 21  1  0  0  0
 21 22  1  0  0  0
 21 23  2  0  0  0
  3  6  1  0  0  0
  6  7  1  0  0  0
  7  8  2  0  0  0
  8  9  1  0  0  0
  9 10  2  0  0  0
 10 11  1  0  0  0
 11 12  2  0  0  0
 12 13  1  0  0  0
 13 14  2  0  0  0
 11 15  1  0  0  0
 15 16  1  0  0  0
 16 17  2  0  0  0
 17 18  1  0  0  0
 18 19  1  0  0  0
 18 20  1  0  0  0
 28 29  1  0  0  0
 29 30  2  0  0  0
 30 31  1  0  0  0
 31 32  2  0  0  0
 32 33  1  0  0  0
 33 34  2  0  0  0
 34 35  1  0  0  0
  5  1  2  0  0  0
 14  6  1  0  0  0
 20 15  2  0  0  0
 34 29  1  0  0  0
 14  9  1  0  0  0
 22 24  1  0  0  0
 22 25  1  0  0  0
M  END
> <minimizedAffinity>
-9.74520

> <CNNscore>
0.6595780849

> <CNNaffinity>
7.9421982765

> <CNN_VS>
5.2385001183

> <CNNaffinity_variance>
0.1679745018

$$$$
[H]c1nn(C([H])([H])[H])c([H])c1-c1c([H])c([H])c2c(nc([H])n2-c2sc(C(=O)N([H])[H])c(O[C@@]([H])(c3c([H])c([H])c([H])c([H])c3Cl)C([H])([H])[H])c2[H])c1[H]


 35 39  0  0  0  0  0  0  0  0999 V2000
   56.6988   -5.4597   -7.2459 C   0  0  0  0  0  0  0  0  0  0  0  0
   55.4718   -4.9998   -6.9646 C   0  0  0  0  0  0  0  0  0  0  0  0
   54.7786   -4.3720   -7.9448 C   0  0  0  0  0  0  0  0  0  0  0  0
   55.8630   -4.4323   -9.2645 S   0  0  0  0  0  0  0  0  0  0  0  0
   57.1607   -5.2542   -8.5237 C   0  0  0  0  0  0  0  0  0  0  0  0
   53.4572   -3.7921   -7.9084 N   0  0  0  0  0  0  0  0  0  0  0  0
   52.9927   -2.9579   -8.8561 C   0  0  0  0  0  0  0  0  0  0  0  0
   51.7377   -2.5738   -8.5668 N   0  0  0  0  0  0  0  0  0  0  0  0
   51.3898   -3.1762   -7.4061 C   0  0  0  0  0  0  0  0  0  0  0  0
   50.2318   -3.1321   -6.6659 C   0  0  0  0  0  0  0  0  0  0  0  0
   50.1509   -3.8625   -5.4960 C   0  0  0  0  0  0  0  0  0  0  0  0
   51.2240   -4.6147   -5.0973 C   0  0  0  0  0  0  0  0  0  0  0  0
   52.3965   -4.6499   -5.8610 C   0  0  0  0  0  0  0  0  0  0  0  0
   52.4903   -3.9357   -7.0155 C   0  0  0  0  0  0  0  0  0  0  0  0
   48.9173   -3.8129   -4.7086 C   0  0  0  0  0  0  0  0  0  0  0  0
   48.4123   -4.7690   -3.8622 C   0  0  0  0  0  0  0  0  0  0  0  0
   47.2632   -4.2835   -3.3620 N   0  0  0  0  0  0  0  0  0  0  0  0
   47.0243   -3.0803   -3.8485 N   0  0  0  0  0  0  0  0  0  0  0  0
   45.9012   -2.2083   -3.5699 C   0  0  0  0  0  0  0  0  0  0  0  0
   48.0292   -2.7636   -4.6830 C   0  0  0  0  0  0  0  0  0  0  0  0
   58.4305   -5.6256   -9.1362 C   0  0  0  0  0  0  0  0  0  0  0  0
   59.5503   -6.0259   -8.3713 N   0  0  0  0  0  0  0  0  0  0  0  0
   58.5351   -5.5897  -10.3794 O   0  0  0  0  0  0  0  0  0  0  0  0
   60.4753   -5.5484   -8.4164 H   0  0  0  0  0  0  0  0  0  0  0  0
   59.4451   -6.8372   -7.7318 H   0  0  0  0  0  0  0  0  0  0  0  0
   57.5524   -6.1376   -6.3350 O   0  0  0  0  0  0  0  0  0  0  0  0
   55.6421   -7.3117   -5.6301 C   0  0  0  0  0  0  0  0  0  0  0  0
   57.1135   -6.9957   -5.3325 C   0  0  0  0  0  0  0  0  0  0  0  0
   57.2544   -6.3579   -4.0221 C   0  0  0  0  0  0  0  0  0  0  0  0
   56.3652   -5.4050   -3.5436 C   0  0  0  0  0  0  0  0  0  0  0  0
   56.4804   -4.7940   -2.3235 C   0  0  0  0  0  0  0  0  0  0  0  0
   57.5291   -5.1240   -1.5024 C   0  0  0  0  0  0  0  0  0  0  0  0
   58.4282   -6.0664   -1.9488 C   0  0  0  0  0  0  0  0  0  0  0  0
   58.2999   -6.6845   -3.1989 C   0  0  0  0  0  0  0  0  0  0  0  0
   59.5234   -7.8513   -3.5977 Cl  0  0  0  0  0  0  0  0  0  0  0  0
 27 28  1  0  0  0
 28 26  1  0  0  0
 26  1  1  0  0  0
  1  2  1  0  0  0
  2  3  2  0  0  0
  3  4  1  0  0  0
  4  5  1  0  0  0
  5 21  1  0  0  0
 21 22  1  0  0  0
 21 23  2  0  0  0
  3  6  1  0  0  0
  6  7  1  0  0  0
  7  8  2  0  0  0
  8  9  1  0  0  0
  9 10  2  0  0  0
 10 11  1  0  0  0
 11 12  2  0  0  0
 12 13  1  0  0  0
 13 14  2  0  0  0
 11 15  1  0  0  0
 15 16  1  0  0  0
 16 17  2  0  0  0
 17 18  1  0  0  0
 18 19  1  0  0  0
 18 20  1  0  0  0
 28 29  1  0  0  0
 29 30  2  0  0  0
 30 31  1  0  0  0
 31 32  2  0  0  0
 32 33  1  0  0  0
 33 34  2  0  0  0
 34 35  1  0  0  0
  5  1  2  0  0  0
 14  6  1  0  0  0
 20 15  2  0  0  0
 34 29  1  0  0  0
 14  9  1  0  0  0
 22 24  1  0  0  0
 22 25  1  0  0  0
M  END
> <minimizedAffinity>
-5.60210

> <CNNscore>
0.6103653908

> <CNNaffinity>
7.6200914383

> <CNN_VS>
4.6510400772

> <CNNaffinity_variance>
0.2505425215

$$$$
[H]c1nn(C([H])([H])[H])c([H])c1-c1c([H])c([H])c2c(nc([H])n2-c2sc(C(=O)N([H])[H])c(O[C@@]([H])(c3c([H])c([H])c([H])c([H])c3Cl)C([H])([H])[H])c2[H])c1[H]


 35 39  0  0  0  0  0  0  0  0999 V2000
   54.3513   -4.1008   -7.7251 C   0  0  0  0  0  0  0  0  0  0  0  0
   55.5168   -4.5359   -8.2237 C   0  0  0  0  0  0  0  0  0  0  0  0
   55.8193   -4.2364   -9.5098 C   0  0  0  0  0  0  0  0  0  0  0  0
   54.4546   -3.3393  -10.0139 S   0  0  0  0  0  0  0  0  0  0  0  0
   53.5464   -3.3762   -8.5709 C   0  0  0  0  0  0  0  0  0  0  0  0
   56.9914   -4.5764  -10.2808 N   0  0  0  0  0  0  0  0  0  0  0  0
   57.0771   -4.3921  -11.6106 C   0  0  0  0  0  0  0  0  0  0  0  0
   58.2767   -4.7958  -12.0624 N   0  0  0  0  0  0  0  0  0  0  0  0
   58.9763   -5.2496  -10.9967 C   0  0  0  0  0  0  0  0  0  0  0  0
   60.2440   -5.7719  -10.8920 C   0  0  0  0  0  0  0  0  0  0  0  0
   60.7124   -6.1623   -9.6523 C   0  0  0  0  0  0  0  0  0  0  0  0
   59.9061   -6.0216   -8.5540 C   0  0  0  0  0  0  0  0  0  0  0  0
   58.6177   -5.4882   -8.6757 C   0  0  0  0  0  0  0  0  0  0  0  0
   58.1432   -5.0994   -9.8904 C   0  0  0  0  0  0  0  0  0  0  0  0
   62.0621   -6.7197   -9.5433 C   0  0  0  0  0  0  0  0  0  0  0  0
   62.9543   -6.9848  -10.5529 C   0  0  0  0  0  0  0  0  0  0  0  0
   64.0608   -7.4861   -9.9778 N   0  0  0  0  0  0  0  0  0  0  0  0
   63.9083   -7.5480   -8.6684 N   0  0  0  0  0  0  0  0  0  0  0  0
   64.8539   -8.0213   -7.6780 C   0  0  0  0  0  0  0  0  0  0  0  0
   62.6834   -7.0812   -8.3713 C   0  0  0  0  0  0  0  0  0  0  0  0
   52.2398   -2.7725   -8.3389 C   0  0  0  0  0  0  0  0  0  0  0  0
   51.2315   -3.4184   -7.5870 N   0  0  0  0  0  0  0  0  0  0  0  0
   52.0006   -1.6460   -8.8200 O   0  0  0  0  0  0  0  0  0  0  0  0
   50.2829   -3.6295   -7.9629 H   0  0  0  0  0  0  0  0  0  0  0  0
   51.4477   -3.6967   -6.6102 H   0  0  0  0  0  0  0  0  0  0  0  0
   53.8863   -4.3274   -6.4021 O   0  0  0  0  0  0  0  0  0  0  0  0
   54.8203   -6.4781   -6.2385 C   0  0  0  0  0  0  0  0  0  0  0  0
   53.6340   -5.5825   -5.8590 C   0  0  0  0  0  0  0  0  0  0  0  0
   52.3821   -6.1229   -6.3923 C   0  0  0  0  0  0  0  0  0  0  0  0
   52.3040   -6.8031   -7.6001 C   0  0  0  0  0  0  0  0  0  0  0  0
   51.1437   -7.3132   -8.1184 C   0  0  0  0  0  0  0  0  0  0  0  0
   49.9709   -7.1573   -7.4233 C   0  0  0  0  0  0  0  0  0  0  0  0
   50.0157   -6.4870   -6.2215 C   0  0  0  0  0  0  0  0  0  0  0  0
   51.2087   -5.9697   -5.7015 C   0  0  0  0  0  0  0  0  0  0  0  0
   51.0802   -5.1561   -4.1721 Cl  0  0  0  0  0  0  0  0  0  0  0  0
 27 28  1  0  0  0
 28 26  1  0  0  0
 26  1  1  0  0  0
  1  2  1  0  0  0
  2  3  2  0  0  0
  3  4  1  0  0  0
  4  5  1  0  0  0
  5 21  1  0  0  0
 21 22  1  0  0  0
 21 23  2  0  0  0
  3  6  1  0  0  0
  6  7  1  0  0  0
  7  8  2  0  0  0
  8  9  1  0  0  0
  9 10  2  0  0  0
 10 11  1  0  0  0
 11 12  2  0  0  0
 12 13  1  0  0  0
 13 14  2  0  0  0
 11 15  1  0  0  0
 15 16  1  0  0  0
 16 17  2  0  0  0
 17 18  1  0  0  0
 18 19  1  0  0  0
 18 20  1  0  0  0
 28 29  1  0  0  0
 29 30  2  0  0  0
 30 31  1  0  0  0
 31 32  2  0  0  0
 32 33  1  0  0  0
 33 34  2  0  0  0
 34 35  1  0  0  0
  5  1  2  0  0  0
 14  6  1  0  0  0
 20 15  2  0  0  0
 34 29  1  0  0  0
 14  9  1  0  0  0
 22 24  1  0  0  0
 22 25  1  0  0  0
M  END
> <minimizedAffinity>
-6.82171

> <CNNscore>
0.5829758644

> <CNNaffinity>
7.2712173462

> <CNN_VS>
4.2389440536

> <CNNaffinity_variance>
0.2851529717

$$$$
[H]c1nn(C([H])([H])[H])c([H])c1-c1c([H])c([H])c2c(nc([H])n2-c2sc(C(=O)N([H])[H])c(O[C@@]([H])(c3c([H])c([H])c([H])c([H])c3Cl)C([H])([H])[H])c2[H])c1[H]


 35 39  0  0  0  0  0  0  0  0999 V2000
   56.2249   -5.6173   -7.1331 C   0  0  0  0  0  0  0  0  0  0  0  0
   54.9867   -5.1354   -6.9579 C   0  0  0  0  0  0  0  0  0  0  0  0
   54.4796   -4.3043   -7.9000 C   0  0  0  0  0  0  0  0  0  0  0  0
   55.7547   -4.2046   -9.0336 S   0  0  0  0  0  0  0  0  0  0  0  0
   56.8890   -5.2237   -8.2699 C   0  0  0  0  0  0  0  0  0  0  0  0
   53.1910   -3.6560   -7.9552 N   0  0  0  0  0  0  0  0  0  0  0  0
   52.8163   -2.8469   -8.9625 C   0  0  0  0  0  0  0  0  0  0  0  0
   51.5717   -2.3848   -8.7530 N   0  0  0  0  0  0  0  0  0  0  0  0
   51.1388   -2.9103   -7.5836 C   0  0  0  0  0  0  0  0  0  0  0  0
   49.9519   -2.7701   -6.9035 C   0  0  0  0  0  0  0  0  0  0  0  0
   49.7779   -3.4366   -5.7059 C   0  0  0  0  0  0  0  0  0  0  0  0
   50.7894   -4.2224   -5.2206 C   0  0  0  0  0  0  0  0  0  0  0  0
   51.9924   -4.3558   -5.9239 C   0  0  0  0  0  0  0  0  0  0  0  0
   52.1776   -3.7052   -7.1047 C   0  0  0  0  0  0  0  0  0  0  0  0
   48.5137   -3.2847   -4.9826 C   0  0  0  0  0  0  0  0  0  0  0  0
   47.6673   -2.2035   -4.9721 C   0  0  0  0  0  0  0  0  0  0  0  0
   46.6355   -2.5202   -4.1711 N   0  0  0  0  0  0  0  0  0  0  0  0
   46.7915   -3.7362   -3.6827 N   0  0  0  0  0  0  0  0  0  0  0  0
   45.9144   -4.4601   -2.7851 C   0  0  0  0  0  0  0  0  0  0  0  0
   47.9429   -4.2327   -4.1668 C   0  0  0  0  0  0  0  0  0  0  0  0
   58.2247   -5.5641   -8.7448 C   0  0  0  0  0  0  0  0  0  0  0  0
   58.5103   -5.7705  -10.1141 N   0  0  0  0  0  0  0  0  0  0  0  0
   59.1502   -5.6779   -7.9152 O   0  0  0  0  0  0  0  0  0  0  0  0
   58.9200   -6.6529  -10.4873 H   0  0  0  0  0  0  0  0  0  0  0  0
   58.3008   -5.0034  -10.7819 H   0  0  0  0  0  0  0  0  0  0  0  0
   56.8995   -6.4961   -6.2438 O   0  0  0  0  0  0  0  0  0  0  0  0
   58.0430   -7.3358   -4.3699 C   0  0  0  0  0  0  0  0  0  0  0  0
   57.0840   -6.2557   -4.8865 C   0  0  0  0  0  0  0  0  0  0  0  0
   55.8018   -6.3177   -4.1822 C   0  0  0  0  0  0  0  0  0  0  0  0
   54.9000   -7.3614   -4.3405 C   0  0  0  0  0  0  0  0  0  0  0  0
   53.6950   -7.4372   -3.6945 C   0  0  0  0  0  0  0  0  0  0  0  0
   53.3298   -6.4342   -2.8322 C   0  0  0  0  0  0  0  0  0  0  0  0
   54.2033   -5.3849   -2.6538 C   0  0  0  0  0  0  0  0  0  0  0  0
   55.4333   -5.3185   -3.3201 C   0  0  0  0  0  0  0  0  0  0  0  0
   56.4100   -3.9245   -2.9733 Cl  0  0  0  0  0  0  0  0  0  0  0  0
 27 28  1  0  0  0
 28 26  1  0  0  0
 26  1  1  0  0  0
  1  2  1  0  0  0
  2  3  2  0  0  0
  3  4  1  0  0  0
  4  5  1  0  0  0
  5 21  1  0  0  0
 21 22  1  0  0  0
 21 23  2  0  0  0
  3  6  1  0  0  0
  6  7  1  0  0  0
  7  8  2  0  0  0
  8  9  1  0  0  0
  9 10  2  0  0  0
 10 11  1  0  0  0
 11 12  2  0  0  0
 12 13  1  0  0  0
 13 14  2  0  0  0
 11 15  1  0  0  0
 15 16  1  0  0  0
 16 17  2  0  0  0
 17 18  1  0  0  0
 18 19  1  0  0  0
 18 20  1  0  0  0
 28 29  1  0  0  0
 29 30  2  0  0  0
 30 31  1  0  0  0
 31 32  2  0  0  0
 32 33  1  0  0  0
 33 34  2  0  0  0
 34 35  1  0  0  0
  5  1  2  0  0  0
 14  6  1  0  0  0
 20 15  2  0  0  0
 34 29  1  0  0  0
 14  9  1  0  0  0
 22 24  1  0  0  0
 22 25  1  0  0  0
M  END
> <minimizedAffinity>
-6.63842

> <CNNscore>
0.5747953653

> <CNNaffinity>
7.6893563271

> <CNN_VS>
4.4198064804

> <CNNaffinity_variance>
0.2024261951

$$$$
[H]c1nn(C([H])([H])[H])c([H])c1-c1c([H])c([H])c2c(nc([H])n2-c2sc(C(=O)N([H])[H])c(O[C@@]([H])(c3c([H])c([H])c([H])c([H])c3Cl)C([H])([H])[H])c2[H])c1[H]


 35 39  0  0  0  0  0  0  0  0999 V2000
   52.7292   -4.0995   -7.4105 C   0  0  0  0  0  0  0  0  0  0  0  0
   53.8876   -4.5205   -7.9368 C   0  0  0  0  0  0  0  0  0  0  0  0
   54.2974   -3.9786   -9.1089 C   0  0  0  0  0  0  0  0  0  0  0  0
   53.0437   -2.8734   -9.4664 S   0  0  0  0  0  0  0  0  0  0  0  0
   52.0415   -3.1388   -8.1123 C   0  0  0  0  0  0  0  0  0  0  0  0
   55.4880   -4.2488   -9.8791 N   0  0  0  0  0  0  0  0  0  0  0  0
   55.5811   -4.0087  -11.1995 C   0  0  0  0  0  0  0  0  0  0  0  0
   56.7980   -4.3545  -11.6531 N   0  0  0  0  0  0  0  0  0  0  0  0
   57.5013   -4.8275  -10.5983 C   0  0  0  0  0  0  0  0  0  0  0  0
   58.7845   -5.3119  -10.4998 C   0  0  0  0  0  0  0  0  0  0  0  0
   59.2529   -5.7362   -9.2713 C   0  0  0  0  0  0  0  0  0  0  0  0
   58.4312   -5.6660   -8.1776 C   0  0  0  0  0  0  0  0  0  0  0  0
   57.1271   -5.1706   -8.2929 C   0  0  0  0  0  0  0  0  0  0  0  0
   56.6525   -4.7492   -9.4966 C   0  0  0  0  0  0  0  0  0  0  0  0
   60.6192   -6.2530   -9.1690 C   0  0  0  0  0  0  0  0  0  0  0  0
   61.2517   -6.7652   -8.0631 C   0  0  0  0  0  0  0  0  0  0  0  0
   62.4919   -7.1138   -8.4461 N   0  0  0  0  0  0  0  0  0  0  0  0
   62.6673   -6.8480   -9.7268 N   0  0  0  0  0  0  0  0  0  0  0  0
   63.8502   -7.0692  -10.5336 C   0  0  0  0  0  0  0  0  0  0  0  0
   61.5273   -6.3156  -10.1994 C   0  0  0  0  0  0  0  0  0  0  0  0
   50.7736   -2.4834   -7.8150 C   0  0  0  0  0  0  0  0  0  0  0  0
   49.6024   -3.2103   -7.5002 N   0  0  0  0  0  0  0  0  0  0  0  0
   50.7177   -1.2368   -7.8387 O   0  0  0  0  0  0  0  0  0  0  0  0
   48.7131   -3.1240   -8.0362 H   0  0  0  0  0  0  0  0  0  0  0  0
   49.6304   -3.8637   -6.6936 H   0  0  0  0  0  0  0  0  0  0  0  0
   52.1610   -4.5637   -6.1941 O   0  0  0  0  0  0  0  0  0  0  0  0
   50.8220   -6.4919   -6.3122 C   0  0  0  0  0  0  0  0  0  0  0  0
   52.1363   -5.8950   -5.7928 C   0  0  0  0  0  0  0  0  0  0  0  0
   52.2084   -5.9855   -4.3331 C   0  0  0  0  0  0  0  0  0  0  0  0
   51.0894   -6.1508   -3.5280 C   0  0  0  0  0  0  0  0  0  0  0  0
   51.1341   -6.2343   -2.1619 C   0  0  0  0  0  0  0  0  0  0  0  0
   52.3455   -6.1525   -1.5224 C   0  0  0  0  0  0  0  0  0  0  0  0
   53.4741   -5.9885   -2.2938 C   0  0  0  0  0  0  0  0  0  0  0  0
   53.4158   -5.9044   -3.6904 C   0  0  0  0  0  0  0  0  0  0  0  0
   54.9377   -5.7009   -4.5028 Cl  0  0  0  0  0  0  0  0  0  0  0  0
 27 28  1  0  0  0
 28 26  1  0  0  0
 26  1  1  0  0  0
  1  2  1  0  0  0
  2  3  2  0  0  0
  3  4  1  0  0  0
  4  5  1  0  0  0
  5 21  1  0  0  0
 21 22  1  0  0  0
 21 23  2  0  0  0
  3  6  1  0  0  0
  6  7  1  0  0  0
  7  8  2  0  0  0
  8  9  1  0  0  0
  9 10  2  0  0  0
 10 11  1  0  0  0
 11 12  2  0  0  0
 12 13  1  0  0  0
 13 14  2  0  0  0
 11 15  1  0  0  0
 15 16  1  0  0  0
 16 17  2  0  0  0
 17 18  1  0  0  0
 18 19  1  0  0  0
 18 20  1  0  0  0
 28 29  1  0  0  0
 29 30  2  0  0  0
 30 31  1  0  0  0
 31 32  2  0  0  0
 32 33  1  0  0  0
 33 34  2  0  0  0
 34 35  1  0  0  0
  5  1  2  0  0  0
 14  6  1  0  0  0
 20 15  2  0  0  0
 34 29  1  0  0  0
 14  9  1  0  0  0
 22 24  1  0  0  0
 22 25  1  0  0  0
M  END
> <minimizedAffinity>
-9.16895

> <CNNscore>
0.5190740824

> <CNNaffinity>
7.4345521927

> <CNN_VS>
3.8590834141

> <CNNaffinity_variance>
0.2420893461

$$$$
[H]c1nn(C([H])([H])[H])c([H])c1-c1c([H])c([H])c2c(nc([H])n2-c2sc(C(=O)N([H])[H])c(O[C@@]([H])(c3c([H])c([H])c([H])c([H])c3Cl)C([H])([H])[H])c2[H])c1[H]


 35 39  0  0  0  0  0  0  0  0999 V2000
   52.8928   -4.2947   -7.2097 C   0  0  0  0  0  0  0  0  0  0  0  0
   54.1162   -4.7639   -7.4913 C   0  0  0  0  0  0  0  0  0  0  0  0
   54.7744   -4.2483   -8.5574 C   0  0  0  0  0  0  0  0  0  0  0  0
   53.6621   -3.0999   -9.1615 S   0  0  0  0  0  0  0  0  0  0  0  0
   52.3983   -3.3151   -8.0369 C   0  0  0  0  0  0  0  0  0  0  0  0
   56.0842   -4.5702   -9.0716 N   0  0  0  0  0  0  0  0  0  0  0  0
   56.9899   -5.2878   -8.3826 C   0  0  0  0  0  0  0  0  0  0  0  0
   58.1162   -5.4331   -9.1013 N   0  0  0  0  0  0  0  0  0  0  0  0
   57.9277   -4.7934  -10.2787 C   0  0  0  0  0  0  0  0  0  0  0  0
   58.7479   -4.6296  -11.3703 C   0  0  0  0  0  0  0  0  0  0  0  0
   58.2871   -3.9144  -12.4589 C   0  0  0  0  0  0  0  0  0  0  0  0
   57.0247   -3.3836  -12.4292 C   0  0  0  0  0  0  0  0  0  0  0  0
   56.2010   -3.5584  -11.3110 C   0  0  0  0  0  0  0  0  0  0  0  0
   56.6416   -4.2605  -10.2318 C   0  0  0  0  0  0  0  0  0  0  0  0
   59.1627   -3.7400  -13.6196 C   0  0  0  0  0  0  0  0  0  0  0  0
   58.8051   -3.4955  -14.9226 C   0  0  0  0  0  0  0  0  0  0  0  0
   59.9429   -3.4087  -15.6326 N   0  0  0  0  0  0  0  0  0  0  0  0
   60.9879   -3.5850  -14.8461 N   0  0  0  0  0  0  0  0  0  0  0  0
   62.3916   -3.5680  -15.2045 C   0  0  0  0  0  0  0  0  0  0  0  0
   60.5364   -3.7917  -13.5971 C   0  0  0  0  0  0  0  0  0  0  0  0
   51.1229   -2.6097   -8.0020 C   0  0  0  0  0  0  0  0  0  0  0  0
   49.9091   -3.2580   -7.6769 N   0  0  0  0  0  0  0  0  0  0  0  0
   51.0992   -1.3906   -8.2683 O   0  0  0  0  0  0  0  0  0  0  0  0
   49.0803   -3.2725   -8.3082 H   0  0  0  0  0  0  0  0  0  0  0  0
   49.8405   -3.7446   -6.7622 H   0  0  0  0  0  0  0  0  0  0  0  0
   52.0738   -4.7262   -6.1323 O   0  0  0  0  0  0  0  0  0  0  0  0
   50.5339   -6.4935   -6.3054 C   0  0  0  0  0  0  0  0  0  0  0  0
   51.8979   -6.0540   -5.7581 C   0  0  0  0  0  0  0  0  0  0  0  0
   51.9387   -6.1789   -4.2997 C   0  0  0  0  0  0  0  0  0  0  0  0
   50.8415   -5.9281   -3.4868 C   0  0  0  0  0  0  0  0  0  0  0  0
   50.8589   -6.0356   -2.1218 C   0  0  0  0  0  0  0  0  0  0  0  0
   52.0182   -6.4122   -1.4915 C   0  0  0  0  0  0  0  0  0  0  0  0
   53.1241   -6.6681   -2.2708 C   0  0  0  0  0  0  0  0  0  0  0  0
   53.0940   -6.5548   -3.6663 C   0  0  0  0  0  0  0  0  0  0  0  0
   54.5798   -6.9186   -4.4895 Cl  0  0  0  0  0  0  0  0  0  0  0  0
 27 28  1  0  0  0
 28 26  1  0  0  0
 26  1  1  0  0  0
  1  2  1  0  0  0
  2  3  2  0  0  0
  3  4  1  0  0  0
  4  5  1  0  0  0
  5 21  1  0  0  0
 21 22  1  0  0  0
 21 23  2  0  0  0
  3  6  1  0  0  0
  6  7  1  0  0  0
  7  8  2  0  0  0
  8  9  1  0  0  0
  9 10  2  0  0  0
 10 11  1  0  0  0
 11 12  2  0  0  0
 12 13  1  0  0  0
 13 14  2  0  0  0
 11 15  1  0  0  0
 15 16  1  0  0  0
 16 17  2  0  0  0
 17 18  1  0  0  0
 18 19  1  0  0  0
 18 20  1  0  0  0
 28 29  1  0  0  0
 29 30  2  0  0  0
 30 31  1  0  0  0
 31 32  2  0  0  0
 32 33  1  0  0  0
 33 34  2  0  0  0
 34 35  1  0  0  0
  5  1  2  0  0  0
 14  6  1  0  0  0
 20 15  2  0  0  0
 34 29  1  0  0  0
 14  9  1  0  0  0
 22 24  1  0  0  0
 22 25  1  0  0  0
M  END
> <minimizedAffinity>
-8.50191

> <CNNscore>
0.4719153643

> <CNNaffinity>
7.2050600052

> <CNN_VS>
3.4001784325

> <CNNaffinity_variance>
0.0891713947

$$$$
[H]c1nn(C([H])([H])[H])c([H])c1-c1c([H])c([H])c2c(nc([H])n2-c2sc(C(=O)N([H])[H])c(O[C@@]([H])(c3c([H])c([H])c([H])c([H])c3Cl)C([H])([H])[H])c2[H])c1[H]


 35 39  0  0  0  0  0  0  0  0999 V2000
   53.6329   -6.1523   -4.0308 C   0  0  0  0  0  0  0  0  0  0  0  0
   53.9583   -5.7469   -5.2661 C   0  0  0  0  0  0  0  0  0  0  0  0
   53.0130   -5.1225   -6.0092 C   0  0  0  0  0  0  0  0  0  0  0  0
   51.6638   -5.1091   -4.9601 S   0  0  0  0  0  0  0  0  0  0  0  0
   52.3489   -5.8982   -3.6124 C   0  0  0  0  0  0  0  0  0  0  0  0
   53.1000   -4.5926   -7.3491 N   0  0  0  0  0  0  0  0  0  0  0  0
   52.0658   -4.0041   -7.9768 C   0  0  0  0  0  0  0  0  0  0  0  0
   52.4304   -3.6076   -9.2082 N   0  0  0  0  0  0  0  0  0  0  0  0
   53.7290   -3.9503   -9.3733 C   0  0  0  0  0  0  0  0  0  0  0  0
   54.5899   -3.7828  -10.4325 C   0  0  0  0  0  0  0  0  0  0  0  0
   55.8893   -4.2395  -10.3243 C   0  0  0  0  0  0  0  0  0  0  0  0
   56.2935   -4.8490   -9.1661 C   0  0  0  0  0  0  0  0  0  0  0  0
   55.4061   -5.0127   -8.0961 C   0  0  0  0  0  0  0  0  0  0  0  0
   54.1234   -4.5678   -8.1886 C   0  0  0  0  0  0  0  0  0  0  0  0
   56.8039   -4.0613  -11.4539 C   0  0  0  0  0  0  0  0  0  0  0  0
   56.4917   -3.7894  -12.7631 C   0  0  0  0  0  0  0  0  0  0  0  0
   57.6528   -3.7109  -13.4357 N   0  0  0  0  0  0  0  0  0  0  0  0
   58.6693   -3.9183  -12.6199 N   0  0  0  0  0  0  0  0  0  0  0  0
   60.0837   -3.9199  -12.9339 C   0  0  0  0  0  0  0  0  0  0  0  0
   58.1751   -4.1374  -11.3894 C   0  0  0  0  0  0  0  0  0  0  0  0
   51.6933   -6.2066   -2.3472 C   0  0  0  0  0  0  0  0  0  0  0  0
   52.3209   -5.9918   -1.0986 N   0  0  0  0  0  0  0  0  0  0  0  0
   50.5374   -6.6769   -2.3645 O   0  0  0  0  0  0  0  0  0  0  0  0
   52.4701   -6.7457   -0.3950 H   0  0  0  0  0  0  0  0  0  0  0  0
   52.6502   -5.0335   -0.8714 H   0  0  0  0  0  0  0  0  0  0  0  0
   54.5036   -6.8180   -3.1272 O   0  0  0  0  0  0  0  0  0  0  0  0
   55.8315   -4.8797   -3.1929 C   0  0  0  0  0  0  0  0  0  0  0  0
   55.5848   -6.2201   -2.4888 C   0  0  0  0  0  0  0  0  0  0  0  0
   56.7658   -7.0810   -2.5791 C   0  0  0  0  0  0  0  0  0  0  0  0
   57.6729   -7.0152   -3.6281 C   0  0  0  0  0  0  0  0  0  0  0  0
   58.7811   -7.8127   -3.7337 C   0  0  0  0  0  0  0  0  0  0  0  0
   59.0358   -8.7429   -2.7576 C   0  0  0  0  0  0  0  0  0  0  0  0
   58.1542   -8.8322   -1.7037 C   0  0  0  0  0  0  0  0  0  0  0  0
   57.0241   -8.0110   -1.6066 C   0  0  0  0  0  0  0  0  0  0  0  0
   56.0236   -8.2589   -0.2084 Cl  0  0  0  0  0  0  0  0  0  0  0  0
 27 28  1  0  0  0
 28 26  1  0  0  0
 26  1  1  0  0  0
  1  2  1  0  0  0
  2  3  2  0  0  0
  3  4  1  0  0  0
  4  5  1  0  0  0
  5 21  1  0  0  0
 21 22  1  0  0  0
 21 23  2  0  0  0
  3  6  1  0  0  0
  6  7  1  0  0  0
  7  8  2  0  0  0
  8  9  1  0  0  0
  9 10  2  0  0  0
 10 11  1  0  0  0
 11 12  2  0  0  0
 12 13  1  0  0  0
 13 14  2  0  0  0
 11 15  1  0  0  0
 15 16  1  0  0  0
 16 17  2  0  0  0
 17 18  1  0  0  0
 18 19  1  0  0  0
 18 20  1  0  0  0
 28 29  1  0  0  0
 29 30  2  0  0  0
 30 31  1  0  0  0
 31 32  2  0  0  0
 32 33  1  0  0  0
 33 34  2  0  0  0
 34 35  1  0  0  0
  5  1  2  0  0  0
 14  6  1  0  0  0
 20 15  2  0  0  0
 34 29  1  0  0  0
 14  9  1  0  0  0
 22 24  1  0  0  0
 22 25  1  0  0  0
M  END
> <minimizedAffinity>
-8.18289

> <CNNscore>
0.3473520577

> <CNNaffinity>
7.1657676697

> <CNN_VS>
2.4890441895

> <CNNaffinity_variance>
0.2178149670

$$$$
[H]c1nn(C([H])([H])[H])c([H])c1-c1c([H])c([H])c2c(nc([H])n2-c2sc(C(=O)N([H])[H])c(O[C@@]([H])(c3c([H])c([H])c([H])c([H])c3Cl)C([H])([H])[H])c2[H])c1[H]


 35 39  0  0  0  0  0  0  0  0999 V2000
   54.4191   -4.8925   -6.5315 C   0  0  0  0  0  0  0  0  0  0  0  0
   55.1276   -4.7588   -7.6613 C   0  0  0  0  0  0  0  0  0  0  0  0
   56.4156   -5.1786   -7.6675 C   0  0  0  0  0  0  0  0  0  0  0  0
   56.6244   -5.7625   -6.0749 S   0  0  0  0  0  0  0  0  0  0  0  0
   55.0658   -5.4525   -5.4561 C   0  0  0  0  0  0  0  0  0  0  0  0
   57.3853   -5.1514   -8.7365 N   0  0  0  0  0  0  0  0  0  0  0  0
   58.6471   -5.5970   -8.5977 C   0  0  0  0  0  0  0  0  0  0  0  0
   59.3242   -5.4503   -9.7493 N   0  0  0  0  0  0  0  0  0  0  0  0
   58.4762   -4.8976  -10.6473 C   0  0  0  0  0  0  0  0  0  0  0  0
   58.6474   -4.5379  -11.9635 C   0  0  0  0  0  0  0  0  0  0  0  0
   57.5876   -3.9829  -12.6544 C   0  0  0  0  0  0  0  0  0  0  0  0
   56.3894   -3.8021  -12.0158 C   0  0  0  0  0  0  0  0  0  0  0  0
   56.2297   -4.1731  -10.6755 C   0  0  0  0  0  0  0  0  0  0  0  0
   57.2648   -4.7209   -9.9826 C   0  0  0  0  0  0  0  0  0  0  0  0
   57.7727   -3.5992  -14.0554 C   0  0  0  0  0  0  0  0  0  0  0  0
   58.9397   -3.2609  -14.6951 C   0  0  0  0  0  0  0  0  0  0  0  0
   58.6224   -2.9864  -15.9720 N   0  0  0  0  0  0  0  0  0  0  0  0
   57.3251   -3.1346  -16.1634 N   0  0  0  0  0  0  0  0  0  0  0  0
   56.5725   -2.9419  -17.3864 C   0  0  0  0  0  0  0  0  0  0  0  0
   56.7746   -3.5127  -14.9970 C   0  0  0  0  0  0  0  0  0  0  0  0
   54.5836   -5.7303   -4.1085 C   0  0  0  0  0  0  0  0  0  0  0  0
   53.9278   -6.9374   -3.7742 N   0  0  0  0  0  0  0  0  0  0  0  0
   54.7546   -4.8737   -3.2171 O   0  0  0  0  0  0  0  0  0  0  0  0
   52.9707   -6.9750   -3.3640 H   0  0  0  0  0  0  0  0  0  0  0  0
   54.4256   -7.8323   -3.9467 H   0  0  0  0  0  0  0  0  0  0  0  0
   53.0634   -4.5048   -6.3595 O   0  0  0  0  0  0  0  0  0  0  0  0
   51.5418   -2.9398   -7.2314 C   0  0  0  0  0  0  0  0  0  0  0  0
   52.1534   -4.3368   -7.3977 C   0  0  0  0  0  0  0  0  0  0  0  0
   51.1174   -5.3696   -7.3353 C   0  0  0  0  0  0  0  0  0  0  0  0
   49.8152   -5.1130   -6.9279 C   0  0  0  0  0  0  0  0  0  0  0  0
   48.8326   -6.0642   -6.8591 C   0  0  0  0  0  0  0  0  0  0  0  0
   49.1241   -7.3589   -7.2081 C   0  0  0  0  0  0  0  0  0  0  0  0
   50.4074   -7.6451   -7.6168 C   0  0  0  0  0  0  0  0  0  0  0  0
   51.4041   -6.6636   -7.6831 C   0  0  0  0  0  0  0  0  0  0  0  0
   52.9649   -7.2021   -8.2229 Cl  0  0  0  0  0  0  0  0  0  0  0  0
 27 28  1  0  0  0
 28 26  1  0  0  0
 26  1  1  0  0  0
  1  2  1  0  0  0
  2  3  2  0  0  0
  3  4  1  0  0  0
  4  5  1  0  0  0
  5 21  1  0  0  0
 21 22  1  0  0  0
 21 23  2  0  0  0
  3  6  1  0  0  0
  6  7  1  0  0  0
  7  8  2  0  0  0
  8  9  1  0  0  0
  9 10  2  0  0  0
 10 11  1  0  0  0
 11 12  2  0  0  0
 12 13  1  0  0  0
 13 14  2  0  0  0
 11 15  1  0  0  0
 15 16  1  0  0  0
 16 17  2  0  0  0
 17 18  1  0  0  0
 18 19  1  0  0  0
 18 20  1  0  0  0
 28 29  1  0  0  0
 29 30  2  0  0  0
 30 31  1  0  0  0
 31 32  2  0  0  0
 32 33  1  0  0  0
 33 34  2  0  0  0
 34 35  1  0  0  0
  5  1  2  0  0  0
 14  6  1  0  0  0
 20 15  2  0  0  0
 34 29  1  0  0  0
 14  9  1  0  0  0
 22 24  1  0  0  0
 22 25  1  0  0  0
M  END
> <minimizedAffinity>
-4.35373

> <CNNscore>
0.3413852751

> <CNNaffinity>
6.9577722549

> <CNN_VS>
2.3752810955

> <CNNaffinity_variance>
0.2299064696

$$$$
[H]c1nn(C([H])([H])[H])c([H])c1-c1c([H])c([H])c2c(nc([H])n2-c2sc(C(=O)N([H])[H])c(O[C@@]([H])(c3c([H])c([H])c([H])c([H])c3Cl)C([H])([H])[H])c2[H])c1[H]


 35 39  0  0  0  0  0  0  0  0999 V2000
   62.2039   -7.1116  -10.0828 C   0  0  0  0  0  0  0  0  0  0  0  0
   61.2569   -7.0086   -9.1400 C   0  0  0  0  0  0  0  0  0  0  0  0
   60.1746   -6.2350   -9.3959 C   0  0  0  0  0  0  0  0  0  0  0  0
   60.4968   -5.6532  -10.9703 S   0  0  0  0  0  0  0  0  0  0  0  0
   61.9973   -6.4143  -11.2487 C   0  0  0  0  0  0  0  0  0  0  0  0
   59.0267   -5.9580   -8.5656 N   0  0  0  0  0  0  0  0  0  0  0  0
   58.9595   -6.2963   -7.2652 C   0  0  0  0  0  0  0  0  0  0  0  0
   57.7799   -5.9181   -6.7439 N   0  0  0  0  0  0  0  0  0  0  0  0
   57.0745   -5.3233   -7.7337 C   0  0  0  0  0  0  0  0  0  0  0  0
   55.8202   -4.7599   -7.7495 C   0  0  0  0  0  0  0  0  0  0  0  0
   55.3409   -4.2136   -8.9244 C   0  0  0  0  0  0  0  0  0  0  0  0
   56.1232   -4.2441  -10.0484 C   0  0  0  0  0  0  0  0  0  0  0  0
   57.3982   -4.8211  -10.0175 C   0  0  0  0  0  0  0  0  0  0  0  0
   57.8832   -5.3629   -8.8673 C   0  0  0  0  0  0  0  0  0  0  0  0
   54.0044   -3.6155   -8.9393 C   0  0  0  0  0  0  0  0  0  0  0  0
   53.3976   -2.9201   -9.9561 C   0  0  0  0  0  0  0  0  0  0  0  0
   52.1777   -2.5664   -9.5167 N   0  0  0  0  0  0  0  0  0  0  0  0
   51.9906   -3.0018   -8.2850 N   0  0  0  0  0  0  0  0  0  0  0  0
   50.8205   -2.8405   -7.4461 C   0  0  0  0  0  0  0  0  0  0  0  0
   53.1022   -3.6533   -7.9025 C   0  0  0  0  0  0  0  0  0  0  0  0
   62.8228   -6.3184  -12.4466 C   0  0  0  0  0  0  0  0  0  0  0  0
   64.2238   -6.1373  -12.3866 N   0  0  0  0  0  0  0  0  0  0  0  0
   62.2757   -6.3987  -13.5654 O   0  0  0  0  0  0  0  0  0  0  0  0
   64.7182   -5.3386  -12.8375 H   0  0  0  0  0  0  0  0  0  0  0  0
   64.7887   -6.8362  -11.8662 H   0  0  0  0  0  0  0  0  0  0  0  0
   63.3944   -7.8788   -9.9730 O   0  0  0  0  0  0  0  0  0  0  0  0
   64.9838   -9.0638   -8.7104 C   0  0  0  0  0  0  0  0  0  0  0  0
   63.5274   -9.0206   -9.1904 C   0  0  0  0  0  0  0  0  0  0  0  0
   63.2022  -10.2132   -9.9751 C   0  0  0  0  0  0  0  0  0  0  0  0
   63.7375  -10.4629  -11.2315 C   0  0  0  0  0  0  0  0  0  0  0  0
   63.4444  -11.5693  -11.9831 C   0  0  0  0  0  0  0  0  0  0  0  0
   62.5709  -12.5056  -11.4895 C   0  0  0  0  0  0  0  0  0  0  0  0
   62.0231  -12.2864  -10.2455 C   0  0  0  0  0  0  0  0  0  0  0  0
   62.3307  -11.1507   -9.4861 C   0  0  0  0  0  0  0  0  0  0  0  0
   61.5502  -11.0385   -7.9383 Cl  0  0  0  0  0  0  0  0  0  0  0  0
 27 28  1  0  0  0
 28 26  1  0  0  0
 26  1  1  0  0  0
  1  2  1  0  0  0
  2  3  2  0  0  0
  3  4  1  0  0  0
  4  5  1  0  0  0
  5 21  1  0  0  0
 21 22  1  0  0  0
 21 23  2  0  0  0
  3  6  1  0  0  0
  6  7  1  0  0  0
  7  8  2  0  0  0
  8  9  1  0  0  0
  9 10  2  0  0  0
 10 11  1  0  0  0
 11 12  2  0  0  0
 12 13  1  0  0  0
 13 14  2  0  0  0
 11 15  1  0  0  0
 15 16  1  0  0  0
 16 17  2  0  0  0
 17 18  1  0  0  0
 18 19  1  0  0  0
 18 20  1  0  0  0
 28 29  1  0  0  0
 29 30  2  0  0  0
 30 31  1  0  0  0
 31 32  2  0  0  0
 32 33  1  0  0  0
 33 34  2  0  0  0
 34 35  1  0  0  0
  5  1  2  0  0  0
 14  6  1  0  0  0
 20 15  2  0  0  0
 34 29  1  0  0  0
 14  9  1  0  0  0
 22 24  1  0  0  0
 22 25  1  0  0  0
M  END
> <minimizedAffinity>
-3.97215

> <CNNscore>
0.3336925507

> <CNNaffinity>
6.2152752876

> <CNN_VS>
2.0739910603

> <CNNaffinity_variance>
0.3067662716

$$$$
[H]c1nc(N([H])c2c([H])c([H])c([H])c([H])c2Oc2c([H])c([H])c([H])c([H])c2[H])nc2c1C([H])([H])C([H])([H])c1c(C(=O)N([H])[H])nn(C([H])([H])[H])c1-2


 34 38  0  0  0  0  0  0  0  0999 V2000
   54.0665   -6.2149   -5.8400 C   0  0  0  0  0  0  0  0  0  0  0  0
   52.8102   -5.6221   -5.5027 N   0  0  0  0  0  0  0  0  0  0  0  0
   52.1081   -5.9932   -4.4233 N   0  0  0  0  0  0  0  0  0  0  0  0
   50.9797   -5.3185   -4.3137 C   0  0  0  0  0  0  0  0  0  0  0  0
   50.9524   -4.4350   -5.4185 C   0  0  0  0  0  0  0  0  0  0  0  0
   49.9576   -3.4261   -5.8015 C   0  0  0  0  0  0  0  0  0  0  0  0
   50.1415   -2.7931   -7.1026 C   0  0  0  0  0  0  0  0  0  0  0  0
   51.4077   -2.9939   -7.8022 C   0  0  0  0  0  0  0  0  0  0  0  0
   51.6675   -2.2603   -8.9701 C   0  0  0  0  0  0  0  0  0  0  0  0
   52.8210   -2.5017   -9.5868 N   0  0  0  0  0  0  0  0  0  0  0  0
   53.7489   -3.4220   -9.1343 C   0  0  0  0  0  0  0  0  0  0  0  0
   53.4788   -4.1118   -8.0141 N   0  0  0  0  0  0  0  0  0  0  0  0
   52.3450   -3.9104   -7.3610 C   0  0  0  0  0  0  0  0  0  0  0  0
   52.1042   -4.6645   -6.1191 C   0  0  0  0  0  0  0  0  0  0  0  0
   49.9196   -5.3887   -3.3114 C   0  0  0  0  0  0  0  0  0  0  0  0
   48.6984   -4.6856   -3.4509 N   0  0  0  0  0  0  0  0  0  0  0  0
   50.0560   -6.0855   -2.2749 O   0  0  0  0  0  0  0  0  0  0  0  0
   47.8487   -5.1911   -3.7537 H   0  0  0  0  0  0  0  0  0  0  0  0
   48.5996   -3.6544   -3.2610 H   0  0  0  0  0  0  0  0  0  0  0  0
   54.8803   -3.5527   -9.9534 N   0  0  0  0  0  0  0  0  0  0  0  0
   54.8779   -2.9819  -10.8590 H   0  0  0  0  0  0  0  0  0  0  0  0
   56.0573   -4.2805   -9.7335 C   0  0  0  0  0  0  0  0  0  0  0  0
   56.5238   -4.4956   -8.4302 C   0  0  0  0  0  0  0  0  0  0  0  0
   57.7473   -5.0896   -8.1962 C   0  0  0  0  0  0  0  0  0  0  0  0
   58.5355   -5.4822   -9.2348 C   0  0  0  0  0  0  0  0  0  0  0  0
   58.1022   -5.2840  -10.5183 C   0  0  0  0  0  0  0  0  0  0  0  0
   56.8436   -4.6756  -10.7756 C   0  0  0  0  0  0  0  0  0  0  0  0
   56.5307   -4.5435  -12.0841 O   0  0  0  0  0  0  0  0  0  0  0  0
   57.2576   -4.0595  -13.1400 C   0  0  0  0  0  0  0  0  0  0  0  0
   56.5515   -3.8595  -14.3578 C   0  0  0  0  0  0  0  0  0  0  0  0
   57.2012   -3.3827  -15.4667 C   0  0  0  0  0  0  0  0  0  0  0  0
   58.5546   -3.0844  -15.4317 C   0  0  0  0  0  0  0  0  0  0  0  0
   59.2513   -3.2777  -14.2444 C   0  0  0  0  0  0  0  0  0  0  0  0
   58.5891   -3.7582  -13.1333 C   0  0  0  0  0  0  0  0  0  0  0  0
  1  2  1  0  0  0
  2  3  1  0  0  0
  3  4  2  0  0  0
  4 15  1  0  0  0
 15 16  1  0  0  0
 15 17  2  0  0  0
  4  5  1  0  0  0
  5  6  1  0  0  0
  6  7  1  0  0  0
  7  8  1  0  0  0
  8  9  2  0  0  0
  9 10  1  0  0  0
 10 11  2  0  0  0
 11 20  1  0  0  0
 20 22  1  0  0  0
 22 23  2  0  0  0
 23 24  1  0  0  0
 24 25  2  0  0  0
 25 26  1  0  0  0
 26 27  2  0  0  0
 27 28  1  0  0  0
 28 29  1  0  0  0
 29 30  2  0  0  0
 30 31  1  0  0  0
 31 32  2  0  0  0
 32 33  1  0  0  0
 33 34  2  0  0  0
 11 12  1  0  0  0
 12 13  2  0  0  0
 13 14  1  0  0  0
 14  2  1  0  0  0
 14  5  2  0  0  0
 13  8  1  0  0  0
 27 22  1  0  0  0
 34 29  1  0  0  0
 16 18  1  0  0  0
 16 19  1  0  0  0
 20 21  1  0  0  0
M  END
> <minimizedAffinity>
-11.06892

> <CNNscore>
0.8488696814

> <CNNaffinity>
7.5705323219

> <CNN_VS>
6.4263954163

> <CNNaffinity_variance>
0.0580748208

$$$$
[H]c1nc(N([H])c2c([H])c([H])c([H])c([H])c2Oc2c([H])c([H])c([H])c([H])c2[H])nc2c1C([H])([H])C([H])([H])c1c(C(=O)N([H])[H])nn(C([H])([H])[H])c1-2


 34 38  0  0  0  0  0  0  0  0999 V2000
   50.5709   -1.4920   -7.6256 C   0  0  0  0  0  0  0  0  0  0  0  0
   50.0985   -2.4382   -6.6639 N   0  0  0  0  0  0  0  0  0  0  0  0
   48.9996   -2.2251   -5.9272 N   0  0  0  0  0  0  0  0  0  0  0  0
   48.7571   -3.2265   -5.1031 C   0  0  0  0  0  0  0  0  0  0  0  0
   49.7894   -4.1673   -5.3289 C   0  0  0  0  0  0  0  0  0  0  0  0
   50.0225   -5.4832   -4.7220 C   0  0  0  0  0  0  0  0  0  0  0  0
   51.2841   -6.1368   -5.0516 C   0  0  0  0  0  0  0  0  0  0  0  0
   52.0891   -5.5887   -6.1401 C   0  0  0  0  0  0  0  0  0  0  0  0
   53.2165   -6.2985   -6.5814 C   0  0  0  0  0  0  0  0  0  0  0  0
   53.9335   -5.7423   -7.5538 N   0  0  0  0  0  0  0  0  0  0  0  0
   53.6199   -4.5254   -8.1313 C   0  0  0  0  0  0  0  0  0  0  0  0
   52.5360   -3.8646   -7.6931 N   0  0  0  0  0  0  0  0  0  0  0  0
   51.7871   -4.3732   -6.7271 C   0  0  0  0  0  0  0  0  0  0  0  0
   50.5889   -3.6308   -6.3000 C   0  0  0  0  0  0  0  0  0  0  0  0
   47.6863   -3.4230   -4.1294 C   0  0  0  0  0  0  0  0  0  0  0  0
   46.5253   -2.6126   -4.1074 N   0  0  0  0  0  0  0  0  0  0  0  0
   47.7587   -4.3314   -3.2645 O   0  0  0  0  0  0  0  0  0  0  0  0
   45.6411   -2.9745   -4.5029 H   0  0  0  0  0  0  0  0  0  0  0  0
   46.5062   -1.6402   -3.7033 H   0  0  0  0  0  0  0  0  0  0  0  0
   54.5285   -4.0995   -9.1116 N   0  0  0  0  0  0  0  0  0  0  0  0
   54.1504   -3.4147   -9.8424 H   0  0  0  0  0  0  0  0  0  0  0  0
   55.8925   -4.3910   -9.2456 C   0  0  0  0  0  0  0  0  0  0  0  0
   56.4282   -4.7116  -10.4998 C   0  0  0  0  0  0  0  0  0  0  0  0
   57.7354   -5.1336  -10.6337 C   0  0  0  0  0  0  0  0  0  0  0  0
   58.5401   -5.2497   -9.5415 C   0  0  0  0  0  0  0  0  0  0  0  0
   58.0408   -4.9416   -8.3044 C   0  0  0  0  0  0  0  0  0  0  0  0
   56.6974   -4.5036   -8.1503 C   0  0  0  0  0  0  0  0  0  0  0  0
   56.3303   -4.2254   -6.8794 O   0  0  0  0  0  0  0  0  0  0  0  0
   56.3308   -5.0024   -5.7507 C   0  0  0  0  0  0  0  0  0  0  0  0
   55.9020   -4.3757   -4.5487 C   0  0  0  0  0  0  0  0  0  0  0  0
   55.8753   -5.0771   -3.3713 C   0  0  0  0  0  0  0  0  0  0  0  0
   56.2628   -6.4072   -3.3203 C   0  0  0  0  0  0  0  0  0  0  0  0
   56.6835   -7.0263   -4.4917 C   0  0  0  0  0  0  0  0  0  0  0  0
   56.7071   -6.3123   -5.6722 C   0  0  0  0  0  0  0  0  0  0  0  0
  1  2  1  0  0  0
  2  3  1  0  0  0
  3  4  2  0  0  0
  4 15  1  0  0  0
 15 16  1  0  0  0
 15 17  2  0  0  0
  4  5  1  0  0  0
  5  6  1  0  0  0
  6  7  1  0  0  0
  7  8  1  0  0  0
  8  9  2  0  0  0
  9 10  1  0  0  0
 10 11  2  0  0  0
 11 20  1  0  0  0
 20 22  1  0  0  0
 22 23  2  0  0  0
 23 24  1  0  0  0
 24 25  2  0  0  0
 25 26  1  0  0  0
 26 27  2  0  0  0
 27 28  1  0  0  0
 28 29  1  0  0  0
 29 30  2  0  0  0
 30 31  1  0  0  0
 31 32  2  0  0  0
 32 33  1  0  0  0
 33 34  2  0  0  0
 11 12  1  0  0  0
 12 13  2  0  0  0
 13 14  1  0  0  0
 14  2  1  0  0  0
 14  5  2  0  0  0
 13  8  1  0  0  0
 27 22  1  0  0  0
 34 29  1  0  0  0
 16 18  1  0  0  0
 16 19  1  0  0  0
 20 21  1  0  0  0
M  END
> <minimizedAffinity>
-9.06566

> <CNNscore>
0.6817821264

> <CNNaffinity>
7.7057633400

> <CNN_VS>
5.2536516190

> <CNNaffinity_variance>
0.1471347511

$$$$
[H]c1nc(N([H])c2c([H])c([H])c([H])c([H])c2Oc2c([H])c([H])c([H])c([H])c2[H])nc2c1C([H])([H])C([H])([H])c1c(C(=O)N([H])[H])nn(C([H])([H])[H])c1-2


 34 38  0  0  0  0  0  0  0  0999 V2000
   50.9533   -1.8575   -7.9875 C   0  0  0  0  0  0  0  0  0  0  0  0
   50.5540   -2.7140   -6.9150 N   0  0  0  0  0  0  0  0  0  0  0  0
   49.4301   -2.5104   -6.2141 N   0  0  0  0  0  0  0  0  0  0  0  0
   49.2667   -3.4179   -5.2705 C   0  0  0  0  0  0  0  0  0  0  0  0
   50.3822   -4.2822   -5.3726 C   0  0  0  0  0  0  0  0  0  0  0  0
   50.7237   -5.4847   -4.6034 C   0  0  0  0  0  0  0  0  0  0  0  0
   52.0433   -6.0575   -4.8442 C   0  0  0  0  0  0  0  0  0  0  0  0
   52.8112   -5.5799   -5.9911 C   0  0  0  0  0  0  0  0  0  0  0  0
   54.0038   -6.2345   -6.3359 C   0  0  0  0  0  0  0  0  0  0  0  0
   54.6818   -5.7424   -7.3690 N   0  0  0  0  0  0  0  0  0  0  0  0
   54.2686   -4.6414   -8.0968 C   0  0  0  0  0  0  0  0  0  0  0  0
   53.1238   -4.0317   -7.7487 N   0  0  0  0  0  0  0  0  0  0  0  0
   52.4099   -4.4804   -6.7282 C   0  0  0  0  0  0  0  0  0  0  0  0
   51.1441   -3.8019   -6.4017 C   0  0  0  0  0  0  0  0  0  0  0  0
   48.2041   -3.5867   -4.2827 C   0  0  0  0  0  0  0  0  0  0  0  0
   47.0268   -2.8000   -4.2958 N   0  0  0  0  0  0  0  0  0  0  0  0
   48.2988   -4.4484   -3.3733 O   0  0  0  0  0  0  0  0  0  0  0  0
   46.1487   -3.1993   -4.6680 H   0  0  0  0  0  0  0  0  0  0  0  0
   46.9893   -1.8089   -3.9413 H   0  0  0  0  0  0  0  0  0  0  0  0
   55.1492   -4.2616   -9.1207 N   0  0  0  0  0  0  0  0  0  0  0  0
   54.8243   -3.4605   -9.7520 H   0  0  0  0  0  0  0  0  0  0  0  0
   56.4352   -4.7377   -9.4088 C   0  0  0  0  0  0  0  0  0  0  0  0
   57.3205   -5.0581   -8.3715 C   0  0  0  0  0  0  0  0  0  0  0  0
   58.6331   -5.3977   -8.6293 C   0  0  0  0  0  0  0  0  0  0  0  0
   59.1014   -5.4283   -9.9074 C   0  0  0  0  0  0  0  0  0  0  0  0
   58.2561   -5.1200  -10.9394 C   0  0  0  0  0  0  0  0  0  0  0  0
   56.9010   -4.7705  -10.6903 C   0  0  0  0  0  0  0  0  0  0  0  0
   56.1708   -4.4951  -11.7941 O   0  0  0  0  0  0  0  0  0  0  0  0
   56.5482   -4.2796  -13.0936 C   0  0  0  0  0  0  0  0  0  0  0  0
   55.7954   -4.9546  -14.0932 C   0  0  0  0  0  0  0  0  0  0  0  0
   56.1067   -4.8003  -15.4192 C   0  0  0  0  0  0  0  0  0  0  0  0
   57.1563   -3.9878  -15.8194 C   0  0  0  0  0  0  0  0  0  0  0  0
   57.8967   -3.3249  -14.8474 C   0  0  0  0  0  0  0  0  0  0  0  0
   57.5762   -3.4864  -13.5151 C   0  0  0  0  0  0  0  0  0  0  0  0
  1  2  1  0  0  0
  2  3  1  0  0  0
  3  4  2  0  0  0
  4 15  1  0  0  0
 15 16  1  0  0  0
 15 17  2  0  0  0
  4  5  1  0  0  0
  5  6  1  0  0  0
  6  7  1  0  0  0
  7  8  1  0  0  0
  8  9  2  0  0  0
  9 10  1  0  0  0
 10 11  2  0  0  0
 11 20  1  0  0  0
 20 22  1  0  0  0
 22 23  2  0  0  0
 23 24  1  0  0  0
 24 25  2  0  0  0
 25 26  1  0  0  0
 26 27  2  0  0  0
 27 28  1  0  0  0
 28 29  1  0  0  0
 29 30  2  0  0  0
 30 31  1  0  0  0
 31 32  2  0  0  0
 32 33  1  0  0  0
 33 34  2  0  0  0
 11 12  1  0  0  0
 12 13  2  0  0  0
 13 14  1  0  0  0
 14  2  1  0  0  0
 14  5  2  0  0  0
 13  8  1  0  0  0
 27 22  1  0  0  0
 34 29  1  0  0  0
 16 18  1  0  0  0
 16 19  1  0  0  0
 20 21  1  0  0  0
M  END
> <minimizedAffinity>
-9.87839

> <CNNscore>
0.6539196372

> <CNNaffinity>
7.4872488976

> <CNN_VS>
4.8960590363

> <CNNaffinity_variance>
0.0744997710

$$$$
[H]c1nc(N([H])c2c([H])c([H])c([H])c([H])c2Oc2c([H])c([H])c([H])c([H])c2[H])nc2c1C([H])([H])C([H])([H])c1c(C(=O)N([H])[H])nn(C([H])([H])[H])c1-2


 34 38  0  0  0  0  0  0  0  0999 V2000
   56.7648   -5.8659   -6.1661 C   0  0  0  0  0  0  0  0  0  0  0  0
   56.1145   -5.1291   -7.2043 N   0  0  0  0  0  0  0  0  0  0  0  0
   54.8947   -4.5962   -7.0504 N   0  0  0  0  0  0  0  0  0  0  0  0
   54.4907   -3.9679   -8.1379 C   0  0  0  0  0  0  0  0  0  0  0  0
   55.5423   -4.1074   -9.0741 C   0  0  0  0  0  0  0  0  0  0  0  0
   55.6676   -3.5931  -10.4431 C   0  0  0  0  0  0  0  0  0  0  0  0
   56.8158   -4.0615  -11.2110 C   0  0  0  0  0  0  0  0  0  0  0  0
   57.8807   -4.7724  -10.5082 C   0  0  0  0  0  0  0  0  0  0  0  0
   59.0655   -5.0808  -11.1943 C   0  0  0  0  0  0  0  0  0  0  0  0
   59.9919   -5.7557  -10.5194 N   0  0  0  0  0  0  0  0  0  0  0  0
   59.8375   -6.1542   -9.2041 C   0  0  0  0  0  0  0  0  0  0  0  0
   58.6954   -5.8472   -8.5678 N   0  0  0  0  0  0  0  0  0  0  0  0
   57.7402   -5.1767   -9.1928 C   0  0  0  0  0  0  0  0  0  0  0  0
   56.5178   -4.8323   -8.4471 C   0  0  0  0  0  0  0  0  0  0  0  0
   53.2495   -3.2518   -8.4207 C   0  0  0  0  0  0  0  0  0  0  0  0
   51.9864   -3.7298   -7.9953 N   0  0  0  0  0  0  0  0  0  0  0  0
   53.2592   -2.1708   -9.0609 O   0  0  0  0  0  0  0  0  0  0  0  0
   51.5316   -3.3076   -7.1682 H   0  0  0  0  0  0  0  0  0  0  0  0
   51.4687   -4.5078   -8.4809 H   0  0  0  0  0  0  0  0  0  0  0  0
   60.9167   -6.8901   -8.6925 N   0  0  0  0  0  0  0  0  0  0  0  0
   60.6880   -7.8644   -8.3128 H   0  0  0  0  0  0  0  0  0  0  0  0
   62.2788   -6.5630   -8.6586 C   0  0  0  0  0  0  0  0  0  0  0  0
   62.7940   -5.7834   -7.6149 C   0  0  0  0  0  0  0  0  0  0  0  0
   64.0995   -5.3360   -7.6321 C   0  0  0  0  0  0  0  0  0  0  0  0
   64.9225   -5.6438   -8.6722 C   0  0  0  0  0  0  0  0  0  0  0  0
   64.4434   -6.4052   -9.7044 C   0  0  0  0  0  0  0  0  0  0  0  0
   63.1020   -6.8752   -9.7003 C   0  0  0  0  0  0  0  0  0  0  0  0
   62.7557   -7.6212  -10.7731 O   0  0  0  0  0  0  0  0  0  0  0  0
   63.0828   -7.5004  -12.0982 C   0  0  0  0  0  0  0  0  0  0  0  0
   62.7096   -6.2856  -12.7357 C   0  0  0  0  0  0  0  0  0  0  0  0
   62.9932   -6.0815  -14.0612 C   0  0  0  0  0  0  0  0  0  0  0  0
   63.6471   -7.0468  -14.8113 C   0  0  0  0  0  0  0  0  0  0  0  0
   64.0148   -8.2371  -14.1945 C   0  0  0  0  0  0  0  0  0  0  0  0
   63.7250   -8.4338  -12.8599 C   0  0  0  0  0  0  0  0  0  0  0  0
  1  2  1  0  0  0
  2  3  1  0  0  0
  3  4  2  0  0  0
  4 15  1  0  0  0
 15 16  1  0  0  0
 15 17  2  0  0  0
  4  5  1  0  0  0
  5  6  1  0  0  0
  6  7  1  0  0  0
  7  8  1  0  0  0
  8  9  2  0  0  0
  9 10  1  0  0  0
 10 11  2  0  0  0
 11 20  1  0  0  0
 20 22  1  0  0  0
 22 23  2  0  0  0
 23 24  1  0  0  0
 24 25  2  0  0  0
 25 26  1  0  0  0
 26 27  2  0  0  0
 27 28  1  0  0  0
 28 29  1  0  0  0
 29 30  2  0  0  0
 30 31  1  0  0  0
 31 32  2  0  0  0
 32 33  1  0  0  0
 33 34  2  0  0  0
 11 12  1  0  0  0
 12 13  2  0  0  0
 13 14  1  0  0  0
 14  2  1  0  0  0
 14  5  2  0  0  0
 13  8  1  0  0  0
 27 22  1  0  0  0
 34 29  1  0  0  0
 16 18  1  0  0  0
 16 19  1  0  0  0
 20 21  1  0  0  0
M  END
> <minimizedAffinity>
-6.58768

> <CNNscore>
0.4625848830

> <CNNaffinity>
6.3198785782

> <CNN_VS>
2.9234802723

> <CNNaffinity_variance>
0.2678498924

$$$$
[H]c1nc(N([H])c2c([H])c([H])c([H])c([H])c2Oc2c([H])c([H])c([H])c([H])c2[H])nc2c1C([H])([H])C([H])([H])c1c(C(=O)N([H])[H])nn(C([H])([H])[H])c1-2


 34 38  0  0  0  0  0  0  0  0999 V2000
   55.7415   -6.5192   -4.7659 C   0  0  0  0  0  0  0  0  0  0  0  0
   54.3958   -6.4768   -4.2854 N   0  0  0  0  0  0  0  0  0  0  0  0
   54.0200   -7.0799   -3.1493 N   0  0  0  0  0  0  0  0  0  0  0  0
   52.7338   -6.9149   -2.9062 C   0  0  0  0  0  0  0  0  0  0  0  0
   52.2375   -6.1372   -3.9788 C   0  0  0  0  0  0  0  0  0  0  0  0
   50.8867   -5.6213   -4.2306 C   0  0  0  0  0  0  0  0  0  0  0  0
   50.6626   -4.9912   -5.5269 C   0  0  0  0  0  0  0  0  0  0  0  0
   51.8215   -4.6774   -6.3585 C   0  0  0  0  0  0  0  0  0  0  0  0
   51.6400   -3.9223   -7.5274 C   0  0  0  0  0  0  0  0  0  0  0  0
   52.7214   -3.6897   -8.2660 N   0  0  0  0  0  0  0  0  0  0  0  0
   53.9831   -4.1500   -7.9359 C   0  0  0  0  0  0  0  0  0  0  0  0
   54.1326   -4.8701   -6.8122 N   0  0  0  0  0  0  0  0  0  0  0  0
   53.0891   -5.1308   -6.0404 C   0  0  0  0  0  0  0  0  0  0  0  0
   53.3038   -5.8958   -4.8004 C   0  0  0  0  0  0  0  0  0  0  0  0
   51.9031   -7.3882   -1.8019 C   0  0  0  0  0  0  0  0  0  0  0  0
   51.9521   -6.8032   -0.5134 N   0  0  0  0  0  0  0  0  0  0  0  0
   51.1043   -8.3452   -1.9589 O   0  0  0  0  0  0  0  0  0  0  0  0
   51.2073   -6.1487   -0.2200 H   0  0  0  0  0  0  0  0  0  0  0  0
   52.7189   -6.9981    0.1817 H   0  0  0  0  0  0  0  0  0  0  0  0
   54.9786   -3.8286   -8.8706 N   0  0  0  0  0  0  0  0  0  0  0  0
   54.8296   -2.9286   -9.4307 H   0  0  0  0  0  0  0  0  0  0  0  0
   56.1866   -4.4842   -9.1432 C   0  0  0  0  0  0  0  0  0  0  0  0
   57.0129   -4.9108   -8.0955 C   0  0  0  0  0  0  0  0  0  0  0  0
   58.2663   -5.4345   -8.3394 C   0  0  0  0  0  0  0  0  0  0  0  0
   58.7322   -5.5486   -9.6137 C   0  0  0  0  0  0  0  0  0  0  0  0
   57.9437   -5.1397  -10.6556 C   0  0  0  0  0  0  0  0  0  0  0  0
   56.6498   -4.6002  -10.4209 C   0  0  0  0  0  0  0  0  0  0  0  0
   55.9711   -4.2409  -11.5334 O   0  0  0  0  0  0  0  0  0  0  0  0
   56.3531   -4.2017  -12.8487 C   0  0  0  0  0  0  0  0  0  0  0  0
   55.6576   -5.0663  -13.7376 C   0  0  0  0  0  0  0  0  0  0  0  0
   55.9777   -5.0956  -15.0701 C   0  0  0  0  0  0  0  0  0  0  0  0
   56.9812   -4.2888  -15.5842 C   0  0  0  0  0  0  0  0  0  0  0  0
   57.6655   -3.4411  -14.7209 C   0  0  0  0  0  0  0  0  0  0  0  0
   57.3365   -3.4185  -13.3810 C   0  0  0  0  0  0  0  0  0  0  0  0
  1  2  1  0  0  0
  2  3  1  0  0  0
  3  4  2  0  0  0
  4 15  1  0  0  0
 15 16  1  0  0  0
 15 17  2  0  0  0
  4  5  1  0  0  0
  5  6  1  0  0  0
  6  7  1  0  0  0
  7  8  1  0  0  0
  8  9  2  0  0  0
  9 10  1  0  0  0
 10 11  2  0  0  0
 11 20  1  0  0  0
 20 22  1  0  0  0
 22 23  2  0  0  0
 23 24  1  0  0  0
 24 25  2  0  0  0
 25 26  1  0  0  0
 26 27  2  0  0  0
 27 28  1  0  0  0
 28 29  1  0  0  0
 29 30  2  0  0  0
 30 31  1  0  0  0
 31 32  2  0  0  0
 32 33  1  0  0  0
 33 34  2  0  0  0
 11 12  1  0  0  0
 12 13  2  0  0  0
 13 14  1  0  0  0
 14  2  1  0  0  0
 14  5  2  0  0  0
 13  8  1  0  0  0
 27 22  1  0  0  0
 34 29  1  0  0  0
 16 18  1  0  0  0
 16 19  1  0  0  0
 20 21  1  0  0  0
M  END
> <minimizedAffinity>
-9.71292

> <CNNscore>
0.4465830922

> <CNNaffinity>
7.0772476196

> <CNN_VS>
3.1605792046

> <CNNaffinity_variance>
0.2534200549

$$$$
[H]c1nc(N([H])c2c([H])c([H])c([H])c([H])c2Oc2c([H])c([H])c([H])c([H])c2[H])nc2c1C([H])([H])C([H])([H])c1c(C(=O)N([H])[H])nn(C([H])([H])[H])c1-2


 34 38  0  0  0  0  0  0  0  0999 V2000
   53.6702   -2.5969   -9.0009 C   0  0  0  0  0  0  0  0  0  0  0  0
   52.6949   -3.0874   -8.0781 N   0  0  0  0  0  0  0  0  0  0  0  0
   51.4590   -2.5753   -8.0002 N   0  0  0  0  0  0  0  0  0  0  0  0
   50.7339   -3.1764   -7.0763 C   0  0  0  0  0  0  0  0  0  0  0  0
   51.5758   -4.1624   -6.5098 C   0  0  0  0  0  0  0  0  0  0  0  0
   51.3045   -5.1514   -5.4597 C   0  0  0  0  0  0  0  0  0  0  0  0
   52.4478   -5.9188   -4.9786 C   0  0  0  0  0  0  0  0  0  0  0  0
   53.6971   -5.8543   -5.7324 C   0  0  0  0  0  0  0  0  0  0  0  0
   54.7513   -6.7124   -5.3835 C   0  0  0  0  0  0  0  0  0  0  0  0
   55.8781   -6.5934   -6.0801 N   0  0  0  0  0  0  0  0  0  0  0  0
   56.0466   -5.6822   -7.1068 C   0  0  0  0  0  0  0  0  0  0  0  0
   55.0236   -4.8717   -7.4232 N   0  0  0  0  0  0  0  0  0  0  0  0
   53.8795   -4.9483   -6.7616 C   0  0  0  0  0  0  0  0  0  0  0  0
   52.7729   -4.0635   -7.1635 C   0  0  0  0  0  0  0  0  0  0  0  0
   49.3549   -2.9525   -6.6503 C   0  0  0  0  0  0  0  0  0  0  0  0
   48.9990   -2.7988   -5.2885 N   0  0  0  0  0  0  0  0  0  0  0  0
   48.4223   -2.8874   -7.4897 O   0  0  0  0  0  0  0  0  0  0  0  0
   48.8096   -1.8544   -4.9125 H   0  0  0  0  0  0  0  0  0  0  0  0
   48.9133   -3.6067   -4.6182 H   0  0  0  0  0  0  0  0  0  0  0  0
   57.3249   -5.6920   -7.6845 N   0  0  0  0  0  0  0  0  0  0  0  0
   58.1052   -6.1350   -7.1006 H   0  0  0  0  0  0  0  0  0  0  0  0
   57.7298   -5.2588   -8.9541 C   0  0  0  0  0  0  0  0  0  0  0  0
   56.8290   -4.5933   -9.7957 C   0  0  0  0  0  0  0  0  0  0  0  0
   57.1632   -4.2794  -11.0974 C   0  0  0  0  0  0  0  0  0  0  0  0
   58.3849   -4.6127  -11.5975 C   0  0  0  0  0  0  0  0  0  0  0  0
   59.2838   -5.2629  -10.7950 C   0  0  0  0  0  0  0  0  0  0  0  0
   58.9554   -5.5912   -9.4516 C   0  0  0  0  0  0  0  0  0  0  0  0
   59.9314   -6.2257   -8.7646 O   0  0  0  0  0  0  0  0  0  0  0  0
   60.9820   -6.9940   -9.1934 C   0  0  0  0  0  0  0  0  0  0  0  0
   62.2730   -6.4036   -9.1158 C   0  0  0  0  0  0  0  0  0  0  0  0
   63.3802   -7.0989   -9.5278 C   0  0  0  0  0  0  0  0  0  0  0  0
   63.2725   -8.3874  -10.0278 C   0  0  0  0  0  0  0  0  0  0  0  0
   62.0133   -8.9708  -10.1067 C   0  0  0  0  0  0  0  0  0  0  0  0
   60.9044   -8.2633   -9.6898 C   0  0  0  0  0  0  0  0  0  0  0  0
  1  2  1  0  0  0
  2  3  1  0  0  0
  3  4  2  0  0  0
  4 15  1  0  0  0
 15 16  1  0  0  0
 15 17  2  0  0  0
  4  5  1  0  0  0
  5  6  1  0  0  0
  6  7  1  0  0  0
  7  8  1  0  0  0
  8  9  2  0  0  0
  9 10  1  0  0  0
 10 11  2  0  0  0
 11 20  1  0  0  0
 20 22  1  0  0  0
 22 23  2  0  0  0
 23 24  1  0  0  0
 24 25  2  0  0  0
 25 26  1  0  0  0
 26 27  2  0  0  0
 27 28  1  0  0  0
 28 29  1  0  0  0
 29 30  2  0  0  0
 30 31  1  0  0  0
 31 32  2  0  0  0
 32 33  1  0  0  0
 33 34  2  0  0  0
 11 12  1  0  0  0
 12 13  2  0  0  0
 13 14  1  0  0  0
 14  2  1  0  0  0
 14  5  2  0  0  0
 13  8  1  0  0  0
 27 22  1  0  0  0
 34 29  1  0  0  0
 16 18  1  0  0  0
 16 19  1  0  0  0
 20 21  1  0  0  0
M  END
> <minimizedAffinity>
-8.77632

> <CNNscore>
0.3954616189

> <CNNaffinity>
7.1024045944

> <CNN_VS>
2.8087284565

> <CNNaffinity_variance>
0.1940827817

$$$$
[H]c1nc(N([H])c2c([H])c([H])c([H])c([H])c2Oc2c([H])c([H])c([H])c([H])c2[H])nc2c1C([H])([H])C([H])([H])c1c(C(=O)N([H])[H])nn(C([H])([H])[H])c1-2


 34 38  0  0  0  0  0  0  0  0999 V2000
   53.9879   -6.3786   -5.3996 C   0  0  0  0  0  0  0  0  0  0  0  0
   53.3747   -5.4563   -6.3034 N   0  0  0  0  0  0  0  0  0  0  0  0
   53.9398   -5.1092   -7.4679 N   0  0  0  0  0  0  0  0  0  0  0  0
   53.2018   -4.2423   -8.1346 C   0  0  0  0  0  0  0  0  0  0  0  0
   52.0613   -4.0111   -7.3299 C   0  0  0  0  0  0  0  0  0  0  0  0
   50.8874   -3.1633   -7.5700 C   0  0  0  0  0  0  0  0  0  0  0  0
   49.9578   -3.0096   -6.4566 C   0  0  0  0  0  0  0  0  0  0  0  0
   50.1009   -3.8934   -5.3026 C   0  0  0  0  0  0  0  0  0  0  0  0
   49.1179   -3.8749   -4.3011 C   0  0  0  0  0  0  0  0  0  0  0  0
   49.3098   -4.6756   -3.2566 N   0  0  0  0  0  0  0  0  0  0  0  0
   50.4098   -5.5031   -3.1227 C   0  0  0  0  0  0  0  0  0  0  0  0
   51.3371   -5.5043   -4.0941 N   0  0  0  0  0  0  0  0  0  0  0  0
   51.1954   -4.7264   -5.1558 C   0  0  0  0  0  0  0  0  0  0  0  0
   52.2194   -4.7837   -6.2127 C   0  0  0  0  0  0  0  0  0  0  0  0
   53.4201   -3.5987   -9.4274 C   0  0  0  0  0  0  0  0  0  0  0  0
   54.6253   -3.7513  -10.1549 N   0  0  0  0  0  0  0  0  0  0  0  0
   52.5330   -2.8764   -9.9471 O   0  0  0  0  0  0  0  0  0  0  0  0
   54.6581   -4.3982  -10.9609 H   0  0  0  0  0  0  0  0  0  0  0  0
   55.5122   -3.2341   -9.9201 H   0  0  0  0  0  0  0  0  0  0  0  0
   50.4399   -6.2357   -1.9267 N   0  0  0  0  0  0  0  0  0  0  0  0
   49.6751   -6.0088   -1.2129 H   0  0  0  0  0  0  0  0  0  0  0  0
   51.2951   -7.2777   -1.5441 C   0  0  0  0  0  0  0  0  0  0  0  0
   50.8345   -8.6005   -1.5239 C   0  0  0  0  0  0  0  0  0  0  0  0
   51.6141   -9.6229   -1.0222 C   0  0  0  0  0  0  0  0  0  0  0  0
   52.8579   -9.3670   -0.5309 C   0  0  0  0  0  0  0  0  0  0  0  0
   53.3319   -8.0825   -0.5400 C   0  0  0  0  0  0  0  0  0  0  0  0
   52.5419   -7.0191   -1.0552 C   0  0  0  0  0  0  0  0  0  0  0  0
   53.1272   -5.8014   -1.0129 O   0  0  0  0  0  0  0  0  0  0  0  0
   54.4448   -5.4318   -1.0851 C   0  0  0  0  0  0  0  0  0  0  0  0
   54.9774   -5.2324   -2.3882 C   0  0  0  0  0  0  0  0  0  0  0  0
   56.2879   -4.8660   -2.5540 C   0  0  0  0  0  0  0  0  0  0  0  0
   57.1239   -4.6811   -1.4637 C   0  0  0  0  0  0  0  0  0  0  0  0
   56.6100   -4.8745   -0.1867 C   0  0  0  0  0  0  0  0  0  0  0  0
   55.2896   -5.2434   -0.0295 C   0  0  0  0  0  0  0  0  0  0  0  0
  1  2  1  0  0  0
  2  3  1  0  0  0
  3  4  2  0  0  0
  4 15  1  0  0  0
 15 16  1  0  0  0
 15 17  2  0  0  0
  4  5  1  0  0  0
  5  6  1  0  0  0
  6  7  1  0  0  0
  7  8  1  0  0  0
  8  9  2  0  0  0
  9 10  1  0  0  0
 10 11  2  0  0  0
 11 20  1  0  0  0
 20 22  1  0  0  0
 22 23  2  0  0  0
 23 24  1  0  0  0
 24 25  2  0  0  0
 25 26  1  0  0  0
 26 27  2  0  0  0
 27 28  1  0  0  0
 28 29  1  0  0  0
 29 30  2  0  0  0
 30 31  1  0  0  0
 31 32  2  0  0  0
 32 33  1  0  0  0
 33 34  2  0  0  0
 11 12  1  0  0  0
 12 13  2  0  0  0
 13 14  1  0  0  0
 14  2  1  0  0  0
 14  5  2  0  0  0
 13  8  1  0  0  0
 27 22  1  0  0  0
 34 29  1  0  0  0
 16 18  1  0  0  0
 16 19  1  0  0  0
 20 21  1  0  0  0
M  END
> <minimizedAffinity>
-10.22944

> <CNNscore>
0.3379395902

> <CNNaffinity>
7.0300078392

> <CNN_VS>
2.3757178783

> <CNNaffinity_variance>
0.2266864032

$$$$
[H]c1nc(N([H])c2c([H])c([H])c([H])c([H])c2Oc2c([H])c([H])c([H])c([H])c2[H])nc2c1C([H])([H])C([H])([H])c1c(C(=O)N([H])[H])nn(C([H])([H])[H])c1-2


 34 38  0  0  0  0  0  0  0  0999 V2000
   57.0407   -5.5670   -6.1595 C   0  0  0  0  0  0  0  0  0  0  0  0
   56.4910   -5.0155   -7.3583 N   0  0  0  0  0  0  0  0  0  0  0  0
   55.2565   -4.4968   -7.4095 N   0  0  0  0  0  0  0  0  0  0  0  0
   54.9579   -4.0537   -8.6158 C   0  0  0  0  0  0  0  0  0  0  0  0
   56.0999   -4.3084   -9.4113 C   0  0  0  0  0  0  0  0  0  0  0  0
   56.3574   -4.0075  -10.8245 C   0  0  0  0  0  0  0  0  0  0  0  0
   57.5820   -4.5587  -11.3939 C   0  0  0  0  0  0  0  0  0  0  0  0
   58.5777   -5.1255  -10.4881 C   0  0  0  0  0  0  0  0  0  0  0  0
   59.8288   -5.5052  -10.9984 C   0  0  0  0  0  0  0  0  0  0  0  0
   60.6891   -6.0443  -10.1393 N   0  0  0  0  0  0  0  0  0  0  0  0
   60.4069   -6.2397   -8.7995 C   0  0  0  0  0  0  0  0  0  0  0  0
   59.2034   -5.8681   -8.3338 N   0  0  0  0  0  0  0  0  0  0  0  0
   58.3094   -5.3263   -9.1461 C   0  0  0  0  0  0  0  0  0  0  0  0
   57.0145   -4.9030   -8.5865 C   0  0  0  0  0  0  0  0  0  0  0  0
   53.7444   -3.4218   -9.1268 C   0  0  0  0  0  0  0  0  0  0  0  0
   53.4647   -2.0481   -8.9270 N   0  0  0  0  0  0  0  0  0  0  0  0
   52.8934   -4.0846   -9.7711 O   0  0  0  0  0  0  0  0  0  0  0  0
   53.6176   -1.3773   -9.6988 H   0  0  0  0  0  0  0  0  0  0  0  0
   53.1018   -1.6578   -8.0186 H   0  0  0  0  0  0  0  0  0  0  0  0
   61.4365   -6.8603   -8.0764 N   0  0  0  0  0  0  0  0  0  0  0  0
   62.2604   -6.2372   -7.7959 H   0  0  0  0  0  0  0  0  0  0  0  0
   61.5229   -8.1772   -7.6056 C   0  0  0  0  0  0  0  0  0  0  0  0
   61.4340   -9.2549   -8.4962 C   0  0  0  0  0  0  0  0  0  0  0  0
   61.3798  -10.5570   -8.0420 C   0  0  0  0  0  0  0  0  0  0  0  0
   61.4108  -10.8259   -6.7076 C   0  0  0  0  0  0  0  0  0  0  0  0
   61.4984   -9.7903   -5.8162 C   0  0  0  0  0  0  0  0  0  0  0  0
   61.5572   -8.4440   -6.2684 C   0  0  0  0  0  0  0  0  0  0  0  0
   61.6485   -7.5167   -5.2891 O   0  0  0  0  0  0  0  0  0  0  0  0
   61.9928   -7.6325   -3.9678 C   0  0  0  0  0  0  0  0  0  0  0  0
   63.3769   -7.5256   -3.6610 C   0  0  0  0  0  0  0  0  0  0  0  0
   63.8112   -7.6339   -2.3653 C   0  0  0  0  0  0  0  0  0  0  0  0
   62.9193   -7.8491   -1.3259 C   0  0  0  0  0  0  0  0  0  0  0  0
   61.5645   -7.9547   -1.6186 C   0  0  0  0  0  0  0  0  0  0  0  0
   61.1366   -7.8445   -2.9258 C   0  0  0  0  0  0  0  0  0  0  0  0
  1  2  1  0  0  0
  2  3  1  0  0  0
  3  4  2  0  0  0
  4 15  1  0  0  0
 15 16  1  0  0  0
 15 17  2  0  0  0
  4  5  1  0  0  0
  5  6  1  0  0  0
  6  7  1  0  0  0
  7  8  1  0  0  0
  8  9  2  0  0  0
  9 10  1  0  0  0
 10 11  2  0  0  0
 11 20  1  0  0  0
 20 22  1  0  0  0
 22 23  2  0  0  0
 23 24  1  0  0  0
 24 25  2  0  0  0
 25 26  1  0  0  0
 26 27  2  0  0  0
 27 28  1  0  0  0
 28 29  1  0  0  0
 29 30  2  0  0  0
 30 31  1  0  0  0
 31 32  2  0  0  0
 32 33  1  0  0  0
 33 34  2  0  0  0
 11 12  1  0  0  0
 12 13  2  0  0  0
 13 14  1  0  0  0
 14  2  1  0  0  0
 14  5  2  0  0  0
 13  8  1  0  0  0
 27 22  1  0  0  0
 34 29  1  0  0  0
 16 18  1  0  0  0
 16 19  1  0  0  0
 20 21  1  0  0  0
M  END
> <minimizedAffinity>
-6.49072

> <CNNscore>
0.3085365891

> <CNNaffinity>
5.8621835709

> <CNN_VS>
1.8086981773

> <CNNaffinity_variance>
0.1969927549

$$$$
[H]c1nc(N([H])c2c([H])c([H])c([H])c([H])c2Oc2c([H])c([H])c([H])c([H])c2[H])nc2c1C([H])([H])C([H])([H])c1c(C(=O)N([H])[H])nn(C([H])([H])[H])c1-2


 34 38  0  0  0  0  0  0  0  0999 V2000
   56.4894   -5.7077   -5.8454 C   0  0  0  0  0  0  0  0  0  0  0  0
   55.8994   -5.0654   -6.9780 N   0  0  0  0  0  0  0  0  0  0  0  0
   54.6672   -4.5398   -6.9440 N   0  0  0  0  0  0  0  0  0  0  0  0
   54.3272   -4.0059   -8.1016 C   0  0  0  0  0  0  0  0  0  0  0  0
   55.4375   -4.2040   -8.9559 C   0  0  0  0  0  0  0  0  0  0  0  0
   55.6446   -3.7982  -10.3512 C   0  0  0  0  0  0  0  0  0  0  0  0
   56.8438   -4.3094  -11.0056 C   0  0  0  0  0  0  0  0  0  0  0  0
   57.8686   -4.9465  -10.1827 C   0  0  0  0  0  0  0  0  0  0  0  0
   59.0975   -5.2911  -10.7663 C   0  0  0  0  0  0  0  0  0  0  0  0
   59.9855   -5.8966   -9.9828 N   0  0  0  0  0  0  0  0  0  0  0  0
   59.7516   -6.1915   -8.6520 C   0  0  0  0  0  0  0  0  0  0  0  0
   58.5685   -5.8517   -8.1152 N   0  0  0  0  0  0  0  0  0  0  0  0
   57.6486   -5.2470   -8.8506 C   0  0  0  0  0  0  0  0  0  0  0  0
   56.3780   -4.8624   -8.2129 C   0  0  0  0  0  0  0  0  0  0  0  0
   53.0997   -3.3328   -8.5181 C   0  0  0  0  0  0  0  0  0  0  0  0
   51.8337   -3.6651   -7.9778 N   0  0  0  0  0  0  0  0  0  0  0  0
   53.1243   -2.4220   -9.3832 O   0  0  0  0  0  0  0  0  0  0  0  0
   51.4083   -3.0558   -7.2588 H   0  0  0  0  0  0  0  0  0  0  0  0
   51.2851   -4.5154   -8.2700 H   0  0  0  0  0  0  0  0  0  0  0  0
   60.8031   -6.8685   -8.0165 N   0  0  0  0  0  0  0  0  0  0  0  0
   60.5747   -7.3188   -7.0726 H   0  0  0  0  0  0  0  0  0  0  0  0
   62.1102   -7.1006   -8.4649 C   0  0  0  0  0  0  0  0  0  0  0  0
   63.0115   -6.0368   -8.6012 C   0  0  0  0  0  0  0  0  0  0  0  0
   64.2562   -6.2207   -9.1681 C   0  0  0  0  0  0  0  0  0  0  0  0
   64.6394   -7.4495   -9.6121 C   0  0  0  0  0  0  0  0  0  0  0  0
   63.7772   -8.5061   -9.4897 C   0  0  0  0  0  0  0  0  0  0  0  0
   62.4928   -8.3333   -8.9061 C   0  0  0  0  0  0  0  0  0  0  0  0
   61.7415   -9.4550   -8.8381 O   0  0  0  0  0  0  0  0  0  0  0  0
   61.9627  -10.7183   -9.3205 C   0  0  0  0  0  0  0  0  0  0  0  0
   62.1846  -10.8333  -10.7201 C   0  0  0  0  0  0  0  0  0  0  0  0
   62.4096  -12.0601  -11.2889 C   0  0  0  0  0  0  0  0  0  0  0  0
   62.4267  -13.2141  -10.5208 C   0  0  0  0  0  0  0  0  0  0  0  0
   62.2103  -13.1092   -9.1517 C   0  0  0  0  0  0  0  0  0  0  0  0
   61.9845  -11.8701   -8.5879 C   0  0  0  0  0  0  0  0  0  0  0  0
  1  2  1  0  0  0
  2  3  1  0  0  0
  3  4  2  0  0  0
  4 15  1  0  0  0
 15 16  1  0  0  0
 15 17  2  0  0  0
  4  5  1  0  0  0
  5  6  1  0  0  0
  6  7  1  0  0  0
  7  8  1  0  0  0
  8  9  2  0  0  0
  9 10  1  0  0  0
 10 11  2  0  0  0
 11 20  1  0  0  0
 20 22  1  0  0  0
 22 23  2  0  0  0
 23 24  1  0  0  0
 24 25  2  0  0  0
 25 26  1  0  0  0
 26 27  2  0  0  0
 27 28  1  0  0  0
 28 29  1  0  0  0
 29 30  2  0  0  0
 30 31  1  0  0  0
 31 32  2  0  0  0
 32 33  1  0  0  0
 33 34  2  0  0  0
 11 12  1  0  0  0
 12 13  2  0  0  0
 13 14  1  0  0  0
 14  2  1  0  0  0
 14  5  2  0  0  0
 13  8  1  0  0  0
 27 22  1  0  0  0
 34 29  1  0  0  0
 16 18  1  0  0  0
 16 19  1  0  0  0
 20 21  1  0  0  0
M  END
> <minimizedAffinity>
-7.24330

> <CNNscore>
0.2951585650

> <CNNaffinity>
6.0525393486

> <CNN_VS>
1.7864588499

> <CNNaffinity_variance>
0.2408152819

$$$$
[H]c1nn(C([H])([H])[H])c([H])c1-c1c([H])c([H])c2c(nc([H])n2-c2sc(C(=O)N([H])[H])c(O[C@@]([H])(c3c([H])c([H])c([H])c([H])c3C(F)(F)F)C([H])([H])[H])c2[H])c1[H]


 38 42  0  0  0  0  0  0  0  0999 V2000
   51.8812   -5.1408   -4.2800 C   0  0  0  0  0  0  0  0  0  0  0  0
   52.5688   -4.8290   -5.3913 C   0  0  0  0  0  0  0  0  0  0  0  0
   51.8590   -4.2701   -6.4332 C   0  0  0  0  0  0  0  0  0  0  0  0
   50.2714   -4.2071   -5.8122 S   0  0  0  0  0  0  0  0  0  0  0  0
   50.5407   -4.8784   -4.2757 C   0  0  0  0  0  0  0  0  0  0  0  0
   52.3753   -3.8658   -7.7076 N   0  0  0  0  0  0  0  0  0  0  0  0
   51.7296   -3.1468   -8.6375 C   0  0  0  0  0  0  0  0  0  0  0  0
   52.5342   -2.9582   -9.7020 N   0  0  0  0  0  0  0  0  0  0  0  0
   53.7121   -3.5634   -9.4534 C   0  0  0  0  0  0  0  0  0  0  0  0
   54.8821   -3.6923  -10.1703 C   0  0  0  0  0  0  0  0  0  0  0  0
   55.9795   -4.3673   -9.7069 C   0  0  0  0  0  0  0  0  0  0  0  0
   55.8777   -4.9356   -8.4576 C   0  0  0  0  0  0  0  0  0  0  0  0
   54.7037   -4.8171   -7.7164 C   0  0  0  0  0  0  0  0  0  0  0  0
   53.5914   -4.1359   -8.1787 C   0  0  0  0  0  0  0  0  0  0  0  0
   57.1994   -4.4763  -10.4986 C   0  0  0  0  0  0  0  0  0  0  0  0
   58.2935   -5.3000  -10.2617 C   0  0  0  0  0  0  0  0  0  0  0  0
   59.1763   -5.0641  -11.2434 N   0  0  0  0  0  0  0  0  0  0  0  0
   58.7239   -4.1558  -12.0810 N   0  0  0  0  0  0  0  0  0  0  0  0
   59.4713   -3.6984  -13.2478 C   0  0  0  0  0  0  0  0  0  0  0  0
   57.5279   -3.7856  -11.6494 C   0  0  0  0  0  0  0  0  0  0  0  0
   49.5686   -5.1265   -3.1866 C   0  0  0  0  0  0  0  0  0  0  0  0
   49.9988   -5.9536   -2.1262 N   0  0  0  0  0  0  0  0  0  0  0  0
   48.4195   -4.6420   -3.1806 O   0  0  0  0  0  0  0  0  0  0  0  0
   50.0388   -5.6032   -1.1528 H   0  0  0  0  0  0  0  0  0  0  0  0
   50.2817   -6.9310   -2.3160 H   0  0  0  0  0  0  0  0  0  0  0  0
   52.4828   -5.7212   -3.1329 O   0  0  0  0  0  0  0  0  0  0  0  0
   52.8970   -8.0153   -2.6144 C   0  0  0  0  0  0  0  0  0  0  0  0
   53.5108   -6.6968   -3.2171 C   0  0  0  0  0  0  0  0  0  0  0  0
   54.6464   -6.2900   -2.3906 C   0  0  0  0  0  0  0  0  0  0  0  0
   54.4214   -6.1299   -1.0226 C   0  0  0  0  0  0  0  0  0  0  0  0
   55.4382   -5.7512   -0.1738 C   0  0  0  0  0  0  0  0  0  0  0  0
   56.7154   -5.5150   -0.6350 C   0  0  0  0  0  0  0  0  0  0  0  0
   56.9228   -5.6760   -1.9832 C   0  0  0  0  0  0  0  0  0  0  0  0
   55.9005   -6.0626   -2.8748 C   0  0  0  0  0  0  0  0  0  0  0  0
   56.1925   -6.2036   -4.3080 C   0  0  0  0  0  0  0  0  0  0  0  0
   55.4612   -7.3364   -4.7521 F   0  0  0  0  0  0  0  0  0  0  0  0
   55.7609   -5.1612   -5.0908 F   0  0  0  0  0  0  0  0  0  0  0  0
   57.5026   -6.5868   -4.5737 F   0  0  0  0  0  0  0  0  0  0  0  0
 27 28  1  0  0  0
 28 26  1  0  0  0
 26  1  1  0  0  0
  1  2  1  0  0  0
  2  3  2  0  0  0
  3  4  1  0  0  0
  4  5  1  0  0  0
  5 21  1  0  0  0
 21 22  1  0  0  0
 21 23  2  0  0  0
  3  6  1  0  0  0
  6  7  1  0  0  0
  7  8  2  0  0  0
  8  9  1  0  0  0
  9 10  2  0  0  0
 10 11  1  0  0  0
 11 12  2  0  0  0
 12 13  1  0  0  0
 13 14  2  0  0  0
 11 15  1  0  0  0
 15 16  1  0  0  0
 16 17  2  0  0  0
 17 18  1  0  0  0
 18 19  1  0  0  0
 18 20  1  0  0  0
 28 29  1  0  0  0
 29 30  2  0  0  0
 30 31  1  0  0  0
 31 32  2  0  0  0
 32 33  1  0  0  0
 33 34  2  0  0  0
 34 35  1  0  0  0
 35 36  1  0  0  0
 35 37  1  0  0  0
 35 38  1  0  0  0
  5  1  2  0  0  0
 14  6  1  0  0  0
 20 15  2  0  0  0
 34 29  1  0  0  0
 14  9  1  0  0  0
 22 24  1  0  0  0
 22 25  1  0  0  0
M  END
> <minimizedAffinity>
-8.71164

> <CNNscore>
0.6391278505

> <CNNaffinity>
7.9178171158

> <CNN_VS>
5.0604972839

> <CNNaffinity_variance>
0.2353963554

$$$$
[H]c1nn(C([H])([H])[H])c([H])c1-c1c([H])c([H])c2c(nc([H])n2-c2sc(C(=O)N([H])[H])c(O[C@@]([H])(c3c([H])c([H])c([H])c([H])c3C(F)(F)F)C([H])([H])[H])c2[H])c1[H]


 38 42  0  0  0  0  0  0  0  0999 V2000
   52.8028   -4.0459   -7.5216 C   0  0  0  0  0  0  0  0  0  0  0  0
   53.9587   -4.4445   -8.0784 C   0  0  0  0  0  0  0  0  0  0  0  0
   54.2908   -3.8947   -9.2986 C   0  0  0  0  0  0  0  0  0  0  0  0
   52.9773   -2.8511   -9.6079 S   0  0  0  0  0  0  0  0  0  0  0  0
   52.0561   -3.1318   -8.2092 C   0  0  0  0  0  0  0  0  0  0  0  0
   55.4612   -4.1717  -10.0780 N   0  0  0  0  0  0  0  0  0  0  0  0
   55.6121   -3.9581  -11.3933 C   0  0  0  0  0  0  0  0  0  0  0  0
   56.8483   -4.3363  -11.7737 N   0  0  0  0  0  0  0  0  0  0  0  0
   57.5007   -4.7989  -10.6893 C   0  0  0  0  0  0  0  0  0  0  0  0
   58.7667   -5.3050  -10.4884 C   0  0  0  0  0  0  0  0  0  0  0  0
   59.2266   -5.7227   -9.2683 C   0  0  0  0  0  0  0  0  0  0  0  0
   58.3560   -5.6193   -8.2074 C   0  0  0  0  0  0  0  0  0  0  0  0
   57.0715   -5.1104   -8.3892 C   0  0  0  0  0  0  0  0  0  0  0  0
   56.6009   -4.6862   -9.6193 C   0  0  0  0  0  0  0  0  0  0  0  0
   60.5762   -6.2494   -9.1004 C   0  0  0  0  0  0  0  0  0  0  0  0
   61.1578   -6.7363   -7.9358 C   0  0  0  0  0  0  0  0  0  0  0  0
   62.4062   -7.1100   -8.2528 N   0  0  0  0  0  0  0  0  0  0  0  0
   62.6570   -6.8967   -9.5267 N   0  0  0  0  0  0  0  0  0  0  0  0
   63.9370   -7.2077  -10.1547 C   0  0  0  0  0  0  0  0  0  0  0  0
   61.5625   -6.3757  -10.0599 C   0  0  0  0  0  0  0  0  0  0  0  0
   50.7571   -2.5389   -7.8174 C   0  0  0  0  0  0  0  0  0  0  0  0
   49.6520   -3.4153   -7.7504 N   0  0  0  0  0  0  0  0  0  0  0  0
   50.6168   -1.3280   -7.5543 O   0  0  0  0  0  0  0  0  0  0  0  0
   49.1333   -3.5603   -6.8662 H   0  0  0  0  0  0  0  0  0  0  0  0
   49.3472   -3.9272   -8.5967 H   0  0  0  0  0  0  0  0  0  0  0  0
   52.3371   -4.5290   -6.2709 O   0  0  0  0  0  0  0  0  0  0  0  0
   51.1947   -6.6000   -6.6013 C   0  0  0  0  0  0  0  0  0  0  0  0
   52.4163   -5.8972   -5.8998 C   0  0  0  0  0  0  0  0  0  0  0  0
   52.2606   -6.0257   -4.4516 C   0  0  0  0  0  0  0  0  0  0  0  0
   53.3004   -6.6309   -3.7443 C   0  0  0  0  0  0  0  0  0  0  0  0
   53.2339   -6.7885   -2.3773 C   0  0  0  0  0  0  0  0  0  0  0  0
   52.1441   -6.3579   -1.6517 C   0  0  0  0  0  0  0  0  0  0  0  0
   51.1281   -5.7643   -2.3602 C   0  0  0  0  0  0  0  0  0  0  0  0
   51.1697   -5.5904   -3.7594 C   0  0  0  0  0  0  0  0  0  0  0  0
   50.0397   -4.9572   -4.4531 C   0  0  0  0  0  0  0  0  0  0  0  0
   48.9899   -4.8681   -3.5016 F   0  0  0  0  0  0  0  0  0  0  0  0
   50.2658   -3.6679   -4.8684 F   0  0  0  0  0  0  0  0  0  0  0  0
   49.4688   -5.7602   -5.4345 F   0  0  0  0  0  0  0  0  0  0  0  0
 27 28  1  0  0  0
 28 26  1  0  0  0
 26  1  1  0  0  0
  1  2  1  0  0  0
  2  3  2  0  0  0
  3  4  1  0  0  0
  4  5  1  0  0  0
  5 21  1  0  0  0
 21 22  1  0  0  0
 21 23  2  0  0  0
  3  6  1  0  0  0
  6  7  1  0  0  0
  7  8  2  0  0  0
  8  9  1  0  0  0
  9 10  2  0  0  0
 10 11  1  0  0  0
 11 12  2  0  0  0
 12 13  1  0  0  0
 13 14  2  0  0  0
 11 15  1  0  0  0
 15 16  1  0  0  0
 16 17  2  0  0  0
 17 18  1  0  0  0
 18 19  1  0  0  0
 18 20  1  0  0  0
 28 29  1  0  0  0
 29 30  2  0  0  0
 30 31  1  0  0  0
 31 32  2  0  0  0
 32 33  1  0  0  0
 33 34  2  0  0  0
 34 35  1  0  0  0
 35 36  1  0  0  0
 35 37  1  0  0  0
 35 38  1  0  0  0
  5  1  2  0  0  0
 14  6  1  0  0  0
 20 15  2  0  0  0
 34 29  1  0  0  0
 14  9  1  0  0  0
 22 24  1  0  0  0
 22 25  1  0  0  0
M  END
> <minimizedAffinity>
-9.60519

> <CNNscore>
0.5645954609

> <CNNaffinity>
7.5634374619

> <CNN_VS>
4.2702822685

> <CNNaffinity_variance>
0.2142730057

$$$$
[H]c1nn(C([H])([H])[H])c([H])c1-c1c([H])c([H])c2c(nc([H])n2-c2sc(C(=O)N([H])[H])c(O[C@@]([H])(c3c([H])c([H])c([H])c([H])c3C(F)(F)F)C([H])([H])[H])c2[H])c1[H]


 38 42  0  0  0  0  0  0  0  0999 V2000
   52.7457   -4.0608   -7.5415 C   0  0  0  0  0  0  0  0  0  0  0  0
   53.8932   -4.4760   -8.1035 C   0  0  0  0  0  0  0  0  0  0  0  0
   54.2543   -3.8921   -9.2995 C   0  0  0  0  0  0  0  0  0  0  0  0
   52.9782   -2.7953   -9.5799 S   0  0  0  0  0  0  0  0  0  0  0  0
   52.0354   -3.0978   -8.2003 C   0  0  0  0  0  0  0  0  0  0  0  0
   55.4224   -4.1781  -10.0792 N   0  0  0  0  0  0  0  0  0  0  0  0
   55.5707   -3.9755  -11.3966 C   0  0  0  0  0  0  0  0  0  0  0  0
   56.8053   -4.3594  -11.7767 N   0  0  0  0  0  0  0  0  0  0  0  0
   57.4591   -4.8145  -10.6900 C   0  0  0  0  0  0  0  0  0  0  0  0
   58.7245   -5.3218  -10.4878 C   0  0  0  0  0  0  0  0  0  0  0  0
   59.1863   -5.7305   -9.2654 C   0  0  0  0  0  0  0  0  0  0  0  0
   58.3183   -5.6166   -8.2034 C   0  0  0  0  0  0  0  0  0  0  0  0
   57.0345   -5.1064   -8.3864 C   0  0  0  0  0  0  0  0  0  0  0  0
   56.5620   -4.6913   -9.6189 C   0  0  0  0  0  0  0  0  0  0  0  0
   60.5351   -6.2586   -9.0962 C   0  0  0  0  0  0  0  0  0  0  0  0
   61.5296   -6.3697  -10.0607 C   0  0  0  0  0  0  0  0  0  0  0  0
   62.5979   -6.9095   -9.4558 N   0  0  0  0  0  0  0  0  0  0  0  0
   62.3545   -7.1474   -8.1848 N   0  0  0  0  0  0  0  0  0  0  0  0
   63.3351   -7.7333   -7.2768 C   0  0  0  0  0  0  0  0  0  0  0  0
   61.1108   -6.7610   -7.9449 C   0  0  0  0  0  0  0  0  0  0  0  0
   50.7527   -2.4777   -7.7970 C   0  0  0  0  0  0  0  0  0  0  0  0
   49.6872   -3.3555   -7.5004 N   0  0  0  0  0  0  0  0  0  0  0  0
   50.5928   -1.2437   -7.7152 O   0  0  0  0  0  0  0  0  0  0  0  0
   49.2466   -3.3695   -6.5636 H   0  0  0  0  0  0  0  0  0  0  0  0
   49.3329   -4.0013   -8.2275 H   0  0  0  0  0  0  0  0  0  0  0  0
   52.2530   -4.5748   -6.3137 O   0  0  0  0  0  0  0  0  0  0  0  0
   50.8957   -6.5341   -6.4635 C   0  0  0  0  0  0  0  0  0  0  0  0
   52.2835   -5.9578   -5.9941 C   0  0  0  0  0  0  0  0  0  0  0  0
   52.3941   -6.1276   -4.5460 C   0  0  0  0  0  0  0  0  0  0  0  0
   51.2156   -6.0734   -3.8003 C   0  0  0  0  0  0  0  0  0  0  0  0
   51.2321   -6.2264   -2.4313 C   0  0  0  0  0  0  0  0  0  0  0  0
   52.4061   -6.4386   -1.7412 C   0  0  0  0  0  0  0  0  0  0  0  0
   53.5584   -6.4895   -2.4872 C   0  0  0  0  0  0  0  0  0  0  0  0
   53.5706   -6.3360   -3.8893 C   0  0  0  0  0  0  0  0  0  0  0  0
   54.8436   -6.3899   -4.6213 C   0  0  0  0  0  0  0  0  0  0  0  0
   55.8474   -6.6517   -3.6523 F   0  0  0  0  0  0  0  0  0  0  0  0
   54.9425   -7.4112   -5.5339 F   0  0  0  0  0  0  0  0  0  0  0  0
   55.2475   -5.1587   -5.1261 F   0  0  0  0  0  0  0  0  0  0  0  0
 27 28  1  0  0  0
 28 26  1  0  0  0
 26  1  1  0  0  0
  1  2  1  0  0  0
  2  3  2  0  0  0
  3  4  1  0  0  0
  4  5  1  0  0  0
  5 21  1  0  0  0
 21 22  1  0  0  0
 21 23  2  0  0  0
  3  6  1  0  0  0
  6  7  1  0  0  0
  7  8  2  0  0  0
  8  9  1  0  0  0
  9 10  2  0  0  0
 10 11  1  0  0  0
 11 12  2  0  0  0
 12 13  1  0  0  0
 13 14  2  0  0  0
 11 15  1  0  0  0
 15 16  1  0  0  0
 16 17  2  0  0  0
 17 18  1  0  0  0
 18 19  1  0  0  0
 18 20  1  0  0  0
 28 29  1  0  0  0
 29 30  2  0  0  0
 30 31  1  0  0  0
 31 32  2  0  0  0
 32 33  1  0  0  0
 33 34  2  0  0  0
 34 35  1  0  0  0
 35 36  1  0  0  0
 35 37  1  0  0  0
 35 38  1  0  0  0
  5  1  2  0  0  0
 14  6  1  0  0  0
 20 15  2  0  0  0
 34 29  1  0  0  0
 14  9  1  0  0  0
 22 24  1  0  0  0
 22 25  1  0  0  0
M  END
> <minimizedAffinity>
-9.27720

> <CNNscore>
0.5473362803

> <CNNaffinity>
7.6281270981

> <CNN_VS>
4.1751508713

> <CNNaffinity_variance>
0.3165662289

$$$$
[H]c1nn(C([H])([H])[H])c([H])c1-c1c([H])c([H])c2c(nc([H])n2-c2sc(C(=O)N([H])[H])c(O[C@@]([H])(c3c([H])c([H])c([H])c([H])c3C(F)(F)F)C([H])([H])[H])c2[H])c1[H]


 38 42  0  0  0  0  0  0  0  0999 V2000
   51.0686   -4.8685   -5.0098 C   0  0  0  0  0  0  0  0  0  0  0  0
   51.9783   -4.8155   -5.9971 C   0  0  0  0  0  0  0  0  0  0  0  0
   51.7278   -3.9440   -7.0361 C   0  0  0  0  0  0  0  0  0  0  0  0
   50.2392   -3.2434   -6.5851 S   0  0  0  0  0  0  0  0  0  0  0  0
   49.9753   -4.0569   -5.1180 C   0  0  0  0  0  0  0  0  0  0  0  0
   52.5463   -3.7242   -8.1918 N   0  0  0  0  0  0  0  0  0  0  0  0
   52.2031   -3.0404   -9.2933 C   0  0  0  0  0  0  0  0  0  0  0  0
   53.2309   -3.0421  -10.1648 N   0  0  0  0  0  0  0  0  0  0  0  0
   54.2478   -3.7358   -9.6169 C   0  0  0  0  0  0  0  0  0  0  0  0
   55.5184   -4.0540  -10.0457 C   0  0  0  0  0  0  0  0  0  0  0  0
   56.4035   -4.7870   -9.3014 C   0  0  0  0  0  0  0  0  0  0  0  0
   55.9725   -5.2138   -8.0660 C   0  0  0  0  0  0  0  0  0  0  0  0
   54.6916   -4.9030   -7.6137 C   0  0  0  0  0  0  0  0  0  0  0  0
   53.7926   -4.1623   -8.3607 C   0  0  0  0  0  0  0  0  0  0  0  0
   57.7407   -5.0982   -9.7934 C   0  0  0  0  0  0  0  0  0  0  0  0
   58.2770   -4.7977  -11.0398 C   0  0  0  0  0  0  0  0  0  0  0  0
   59.5305   -5.2744  -11.0478 N   0  0  0  0  0  0  0  0  0  0  0  0
   59.8264   -5.8520   -9.9032 N   0  0  0  0  0  0  0  0  0  0  0  0
   61.1227   -6.4613   -9.6243 C   0  0  0  0  0  0  0  0  0  0  0  0
   58.7569   -5.7571   -9.1282 C   0  0  0  0  0  0  0  0  0  0  0  0
   48.8404   -3.9291   -4.1756 C   0  0  0  0  0  0  0  0  0  0  0  0
   48.7299   -4.9191   -3.1749 N   0  0  0  0  0  0  0  0  0  0  0  0
   48.0075   -3.0032   -4.2395 O   0  0  0  0  0  0  0  0  0  0  0  0
   48.7690   -4.6745   -2.1696 H   0  0  0  0  0  0  0  0  0  0  0  0
   48.6072   -5.9116   -3.4419 H   0  0  0  0  0  0  0  0  0  0  0  0
   51.1978   -5.7193   -3.8810 O   0  0  0  0  0  0  0  0  0  0  0  0
   53.3239   -6.7745   -4.1451 C   0  0  0  0  0  0  0  0  0  0  0  0
   52.4267   -5.8988   -3.1930 C   0  0  0  0  0  0  0  0  0  0  0  0
   52.1954   -6.6421   -1.9551 C   0  0  0  0  0  0  0  0  0  0  0  0
   51.0663   -7.4604   -1.8979 C   0  0  0  0  0  0  0  0  0  0  0  0
   50.7772   -8.1961   -0.7696 C   0  0  0  0  0  0  0  0  0  0  0  0
   51.5853   -8.1571    0.3462 C   0  0  0  0  0  0  0  0  0  0  0  0
   52.6929   -7.3476    0.2764 C   0  0  0  0  0  0  0  0  0  0  0  0
   53.0127   -6.5837   -0.8654 C   0  0  0  0  0  0  0  0  0  0  0  0
   54.2084   -5.7297   -0.8645 C   0  0  0  0  0  0  0  0  0  0  0  0
   53.7414   -4.3936   -0.9748 F   0  0  0  0  0  0  0  0  0  0  0  0
   54.9426   -5.7647    0.2954 F   0  0  0  0  0  0  0  0  0  0  0  0
   54.9840   -5.8572   -2.0117 F   0  0  0  0  0  0  0  0  0  0  0  0
 27 28  1  0  0  0
 28 26  1  0  0  0
 26  1  1  0  0  0
  1  2  1  0  0  0
  2  3  2  0  0  0
  3  4  1  0  0  0
  4  5  1  0  0  0
  5 21  1  0  0  0
 21 22  1  0  0  0
 21 23  2  0  0  0
  3  6  1  0  0  0
  6  7  1  0  0  0
  7  8  2  0  0  0
  8  9  1  0  0  0
  9 10  2  0  0  0
 10 11  1  0  0  0
 11 12  2  0  0  0
 12 13  1  0  0  0
 13 14  2  0  0  0
 11 15  1  0  0  0
 15 16  1  0  0  0
 16 17  2  0  0  0
 17 18  1  0  0  0
 18 19  1  0  0  0
 18 20  1  0  0  0
 28 29  1  0  0  0
 29 30  2  0  0  0
 30 31  1  0  0  0
 31 32  2  0  0  0
 32 33  1  0  0  0
 33 34  2  0  0  0
 34 35  1  0  0  0
 35 36  1  0  0  0
 35 37  1  0  0  0
 35 38  1  0  0  0
  5  1  2  0  0  0
 14  6  1  0  0  0
 20 15  2  0  0  0
 34 29  1  0  0  0
 14  9  1  0  0  0
 22 24  1  0  0  0
 22 25  1  0  0  0
M  END
> <minimizedAffinity>
-9.83250

> <CNNscore>
0.5147011876

> <CNNaffinity>
7.6552743912

> <CNN_VS>
3.9401788712

> <CNNaffinity_variance>
0.1992889792

$$$$
[H]c1nn(C([H])([H])[H])c([H])c1-c1c([H])c([H])c2c(nc([H])n2-c2sc(C(=O)N([H])[H])c(O[C@@]([H])(c3c([H])c([H])c([H])c([H])c3C(F)(F)F)C([H])([H])[H])c2[H])c1[H]


 38 42  0  0  0  0  0  0  0  0999 V2000
   53.6328   -4.4119   -7.0860 C   0  0  0  0  0  0  0  0  0  0  0  0
   54.7970   -4.6430   -7.7155 C   0  0  0  0  0  0  0  0  0  0  0  0
   54.8619   -4.3209   -9.0547 C   0  0  0  0  0  0  0  0  0  0  0  0
   53.2992   -3.7130   -9.3688 S   0  0  0  0  0  0  0  0  0  0  0  0
   52.6142   -3.8787   -7.8237 C   0  0  0  0  0  0  0  0  0  0  0  0
   55.9882   -4.4839   -9.9259 N   0  0  0  0  0  0  0  0  0  0  0  0
   56.0372   -4.1790  -11.2310 C   0  0  0  0  0  0  0  0  0  0  0  0
   57.2616   -4.4646  -11.7161 N   0  0  0  0  0  0  0  0  0  0  0  0
   58.0093   -4.9594  -10.7103 C   0  0  0  0  0  0  0  0  0  0  0  0
   59.3098   -5.4080  -10.6272 C   0  0  0  0  0  0  0  0  0  0  0  0
   59.8729   -5.8770   -9.4707 C   0  0  0  0  0  0  0  0  0  0  0  0
   59.0734   -5.8888   -8.3506 C   0  0  0  0  0  0  0  0  0  0  0  0
   57.7557   -5.4397   -8.4131 C   0  0  0  0  0  0  0  0  0  0  0  0
   57.1809   -4.9641   -9.5785 C   0  0  0  0  0  0  0  0  0  0  0  0
   61.2554   -6.3394   -9.4274 C   0  0  0  0  0  0  0  0  0  0  0  0
   62.1063   -6.5708  -10.5016 C   0  0  0  0  0  0  0  0  0  0  0  0
   63.2742   -6.9855   -9.9888 N   0  0  0  0  0  0  0  0  0  0  0  0
   63.2257   -7.0336   -8.6748 N   0  0  0  0  0  0  0  0  0  0  0  0
   64.3522   -7.4499   -7.8459 C   0  0  0  0  0  0  0  0  0  0  0  0
   62.0122   -6.6464   -8.3128 C   0  0  0  0  0  0  0  0  0  0  0  0
   51.2468   -3.5349   -7.3716 C   0  0  0  0  0  0  0  0  0  0  0  0
   50.7978   -2.2240   -7.6429 N   0  0  0  0  0  0  0  0  0  0  0  0
   50.5061   -4.3434   -6.7776 O   0  0  0  0  0  0  0  0  0  0  0  0
   49.9633   -2.0522   -8.2312 H   0  0  0  0  0  0  0  0  0  0  0  0
   51.3066   -1.4125   -7.2505 H   0  0  0  0  0  0  0  0  0  0  0  0
   53.4249   -4.6954   -5.7109 O   0  0  0  0  0  0  0  0  0  0  0  0
   52.5005   -6.4017   -4.3190 C   0  0  0  0  0  0  0  0  0  0  0  0
   53.7725   -5.9404   -5.1236 C   0  0  0  0  0  0  0  0  0  0  0  0
   54.8767   -5.7518   -4.1838 C   0  0  0  0  0  0  0  0  0  0  0  0
   55.3273   -4.4476   -3.9745 C   0  0  0  0  0  0  0  0  0  0  0  0
   56.3613   -4.1832   -3.1034 C   0  0  0  0  0  0  0  0  0  0  0  0
   56.9930   -5.1888   -2.4039 C   0  0  0  0  0  0  0  0  0  0  0  0
   56.5397   -6.4674   -2.6194 C   0  0  0  0  0  0  0  0  0  0  0  0
   55.4836   -6.7667   -3.5052 C   0  0  0  0  0  0  0  0  0  0  0  0
   55.0593   -8.1606   -3.6954 C   0  0  0  0  0  0  0  0  0  0  0  0
   56.1031   -8.9677   -3.1715 F   0  0  0  0  0  0  0  0  0  0  0  0
   53.9334   -8.5222   -2.9973 F   0  0  0  0  0  0  0  0  0  0  0  0
   55.0326   -8.5570   -5.0280 F   0  0  0  0  0  0  0  0  0  0  0  0
 27 28  1  0  0  0
 28 26  1  0  0  0
 26  1  1  0  0  0
  1  2  1  0  0  0
  2  3  2  0  0  0
  3  4  1  0  0  0
  4  5  1  0  0  0
  5 21  1  0  0  0
 21 22  1  0  0  0
 21 23  2  0  0  0
  3  6  1  0  0  0
  6  7  1  0  0  0
  7  8  2  0  0  0
  8  9  1  0  0  0
  9 10  2  0  0  0
 10 11  1  0  0  0
 11 12  2  0  0  0
 12 13  1  0  0  0
 13 14  2  0  0  0
 11 15  1  0  0  0
 15 16  1  0  0  0
 16 17  2  0  0  0
 17 18  1  0  0  0
 18 19  1  0  0  0
 18 20  1  0  0  0
 28 29  1  0  0  0
 29 30  2  0  0  0
 30 31  1  0  0  0
 31 32  2  0  0  0
 32 33  1  0  0  0
 33 34  2  0  0  0
 34 35  1  0  0  0
 35 36  1  0  0  0
 35 37  1  0  0  0
 35 38  1  0  0  0
  5  1  2  0  0  0
 14  6  1  0  0  0
 20 15  2  0  0  0
 34 29  1  0  0  0
 14  9  1  0  0  0
 22 24  1  0  0  0
 22 25  1  0  0  0
M  END
> <minimizedAffinity>
-7.83114

> <CNNscore>
0.4208677113

> <CNNaffinity>
7.5147428513

> <CNN_VS>
3.1627125740

> <CNNaffinity_variance>
0.2768201828

$$$$
[H]c1nn(C([H])([H])[H])c([H])c1-c1c([H])c([H])c2c(nc([H])n2-c2sc(C(=O)N([H])[H])c(O[C@@]([H])(c3c([H])c([H])c([H])c([H])c3C(F)(F)F)C([H])([H])[H])c2[H])c1[H]


 38 42  0  0  0  0  0  0  0  0999 V2000
   52.7757   -4.2057   -7.2428 C   0  0  0  0  0  0  0  0  0  0  0  0
   54.0055   -4.6833   -7.4972 C   0  0  0  0  0  0  0  0  0  0  0  0
   54.6841   -4.1346   -8.5649 C   0  0  0  0  0  0  0  0  0  0  0  0
   53.5757   -2.9823   -9.1596 S   0  0  0  0  0  0  0  0  0  0  0  0
   52.3026   -3.2195   -8.0610 C   0  0  0  0  0  0  0  0  0  0  0  0
   55.9949   -4.4872   -9.0249 N   0  0  0  0  0  0  0  0  0  0  0  0
   56.9176   -5.1838   -8.3453 C   0  0  0  0  0  0  0  0  0  0  0  0
   58.0249   -5.3237   -9.1004 N   0  0  0  0  0  0  0  0  0  0  0  0
   57.8116   -4.7093  -10.2805 C   0  0  0  0  0  0  0  0  0  0  0  0
   58.5783   -4.5380  -11.4129 C   0  0  0  0  0  0  0  0  0  0  0  0
   58.1443   -3.8624  -12.5219 C   0  0  0  0  0  0  0  0  0  0  0  0
   56.8726   -3.3387  -12.4723 C   0  0  0  0  0  0  0  0  0  0  0  0
   56.0810   -3.5005  -11.3369 C   0  0  0  0  0  0  0  0  0  0  0  0
   56.5134   -4.1825  -10.2132 C   0  0  0  0  0  0  0  0  0  0  0  0
   58.9888   -3.7078  -13.7008 C   0  0  0  0  0  0  0  0  0  0  0  0
   58.5829   -3.4909  -15.0122 C   0  0  0  0  0  0  0  0  0  0  0  0
   59.6967   -3.4138  -15.7552 N   0  0  0  0  0  0  0  0  0  0  0  0
   60.7735   -3.5651  -15.0142 N   0  0  0  0  0  0  0  0  0  0  0  0
   62.1291   -3.5279  -15.5530 C   0  0  0  0  0  0  0  0  0  0  0  0
   60.3685   -3.7446  -13.7662 C   0  0  0  0  0  0  0  0  0  0  0  0
   50.9922   -2.5331   -7.9947 C   0  0  0  0  0  0  0  0  0  0  0  0
   49.8496   -3.3538   -7.8739 N   0  0  0  0  0  0  0  0  0  0  0  0
   50.8740   -1.2926   -8.0415 O   0  0  0  0  0  0  0  0  0  0  0  0
   49.2173   -3.2787   -7.0576 H   0  0  0  0  0  0  0  0  0  0  0  0
   49.6317   -4.0471   -8.6110 H   0  0  0  0  0  0  0  0  0  0  0  0
   51.9653   -4.6778   -6.1775 O   0  0  0  0  0  0  0  0  0  0  0  0
   50.5381   -6.5879   -6.3118 C   0  0  0  0  0  0  0  0  0  0  0  0
   51.9220   -6.0443   -5.7945 C   0  0  0  0  0  0  0  0  0  0  0  0
   51.9496   -6.1495   -4.3364 C   0  0  0  0  0  0  0  0  0  0  0  0
   50.7566   -5.9127   -3.6519 C   0  0  0  0  0  0  0  0  0  0  0  0
   50.6964   -5.9939   -2.2780 C   0  0  0  0  0  0  0  0  0  0  0  0
   51.8048   -6.3109   -1.5227 C   0  0  0  0  0  0  0  0  0  0  0  0
   52.9722   -6.5413   -2.2090 C   0  0  0  0  0  0  0  0  0  0  0  0
   53.0624   -6.4648   -3.6145 C   0  0  0  0  0  0  0  0  0  0  0  0
   54.3485   -6.7121   -4.2809 C   0  0  0  0  0  0  0  0  0  0  0  0
   54.8842   -5.4355   -4.5951 F   0  0  0  0  0  0  0  0  0  0  0  0
   55.2970   -7.3228   -3.4978 F   0  0  0  0  0  0  0  0  0  0  0  0
   54.2208   -7.2867   -5.5408 F   0  0  0  0  0  0  0  0  0  0  0  0
 27 28  1  0  0  0
 28 26  1  0  0  0
 26  1  1  0  0  0
  1  2  1  0  0  0
  2  3  2  0  0  0
  3  4  1  0  0  0
  4  5  1  0  0  0
  5 21  1  0  0  0
 21 22  1  0  0  0
 21 23  2  0  0  0
  3  6  1  0  0  0
  6  7  1  0  0  0
  7  8  2  0  0  0
  8  9  1  0  0  0
  9 10  2  0  0  0
 10 11  1  0  0  0
 11 12  2  0  0  0
 12 13  1  0  0  0
 13 14  2  0  0  0
 11 15  1  0  0  0
 15 16  1  0  0  0
 16 17  2  0  0  0
 17 18  1  0  0  0
 18 19  1  0  0  0
 18 20  1  0  0  0
 28 29  1  0  0  0
 29 30  2  0  0  0
 30 31  1  0  0  0
 31 32  2  0  0  0
 32 33  1  0  0  0
 33 34  2  0  0  0
 34 35  1  0  0  0
 35 36  1  0  0  0
 35 37  1  0  0  0
 35 38  1  0  0  0
  5  1  2  0  0  0
 14  6  1  0  0  0
 20 15  2  0  0  0
 34 29  1  0  0  0
 14  9  1  0  0  0
 22 24  1  0  0  0
 22 25  1  0  0  0
M  END
> <minimizedAffinity>
-8.66515

> <CNNscore>
0.3920970261

> <CNNaffinity>
7.3365416527

> <CNN_VS>
2.8766362667

> <CNNaffinity_variance>
0.1047188044

$$$$
[H]c1nn(C([H])([H])[H])c([H])c1-c1c([H])c([H])c2c(nc([H])n2-c2sc(C(=O)N([H])[H])c(O[C@@]([H])(c3c([H])c([H])c([H])c([H])c3C(F)(F)F)C([H])([H])[H])c2[H])c1[H]


 38 42  0  0  0  0  0  0  0  0999 V2000
   53.0063   -4.4025   -7.1307 C   0  0  0  0  0  0  0  0  0  0  0  0
   54.2583   -4.8033   -7.4080 C   0  0  0  0  0  0  0  0  0  0  0  0
   54.8310   -4.3196   -8.5655 C   0  0  0  0  0  0  0  0  0  0  0  0
   53.5975   -3.3318   -9.2080 S   0  0  0  0  0  0  0  0  0  0  0  0
   52.4079   -3.5518   -8.0162 C   0  0  0  0  0  0  0  0  0  0  0  0
   56.1421   -4.6123   -9.0648 N   0  0  0  0  0  0  0  0  0  0  0  0
   57.1110   -5.2777   -8.4189 C   0  0  0  0  0  0  0  0  0  0  0  0
   58.2021   -5.3628   -9.2050 N   0  0  0  0  0  0  0  0  0  0  0  0
   57.9316   -4.7445  -10.3712 C   0  0  0  0  0  0  0  0  0  0  0  0
   58.6594   -4.5288  -11.5215 C   0  0  0  0  0  0  0  0  0  0  0  0
   58.1679   -3.8593  -12.6100 C   0  0  0  0  0  0  0  0  0  0  0  0
   56.8775   -3.3894  -12.5199 C   0  0  0  0  0  0  0  0  0  0  0  0
   56.1245   -3.5967  -11.3658 C   0  0  0  0  0  0  0  0  0  0  0  0
   56.6151   -4.2729  -10.2627 C   0  0  0  0  0  0  0  0  0  0  0  0
   58.9728   -3.6563  -13.8091 C   0  0  0  0  0  0  0  0  0  0  0  0
   58.5265   -3.5361  -15.1198 C   0  0  0  0  0  0  0  0  0  0  0  0
   59.6140   -3.3636  -15.8855 N   0  0  0  0  0  0  0  0  0  0  0  0
   60.7114   -3.3655  -15.1594 N   0  0  0  0  0  0  0  0  0  0  0  0
   62.0464   -3.1978  -15.7241 C   0  0  0  0  0  0  0  0  0  0  0  0
   60.3469   -3.5414  -13.8985 C   0  0  0  0  0  0  0  0  0  0  0  0
   51.0479   -2.9708   -7.9422 C   0  0  0  0  0  0  0  0  0  0  0  0
   50.9399   -1.5769   -8.1403 N   0  0  0  0  0  0  0  0  0  0  0  0
   50.0300   -3.6551   -7.7170 O   0  0  0  0  0  0  0  0  0  0  0  0
   50.3778   -1.1859   -8.9168 H   0  0  0  0  0  0  0  0  0  0  0  0
   51.4289   -0.9254   -7.5017 H   0  0  0  0  0  0  0  0  0  0  0  0
   52.2957   -4.8212   -5.9756 O   0  0  0  0  0  0  0  0  0  0  0  0
   50.8696   -6.7020   -6.3389 C   0  0  0  0  0  0  0  0  0  0  0  0
   52.1655   -6.1866   -5.6086 C   0  0  0  0  0  0  0  0  0  0  0  0
   51.9612   -6.2923   -4.1646 C   0  0  0  0  0  0  0  0  0  0  0  0
   52.9282   -6.9768   -3.4269 C   0  0  0  0  0  0  0  0  0  0  0  0
   52.8125   -7.1195   -2.0615 C   0  0  0  0  0  0  0  0  0  0  0  0
   51.7433   -6.5955   -1.3675 C   0  0  0  0  0  0  0  0  0  0  0  0
   50.7991   -5.9245   -2.1057 C   0  0  0  0  0  0  0  0  0  0  0  0
   50.8921   -5.7637   -3.5040 C   0  0  0  0  0  0  0  0  0  0  0  0
   49.8373   -5.0438   -4.2307 C   0  0  0  0  0  0  0  0  0  0  0  0
   50.4219   -3.8300   -4.6784 F   0  0  0  0  0  0  0  0  0  0  0  0
   49.3860   -5.6715   -5.3656 F   0  0  0  0  0  0  0  0  0  0  0  0
   48.8127   -4.5826   -3.4114 F   0  0  0  0  0  0  0  0  0  0  0  0
 27 28  1  0  0  0
 28 26  1  0  0  0
 26  1  1  0  0  0
  1  2  1  0  0  0
  2  3  2  0  0  0
  3  4  1  0  0  0
  4  5  1  0  0  0
  5 21  1  0  0  0
 21 22  1  0  0  0
 21 23  2  0  0  0
  3  6  1  0  0  0
  6  7  1  0  0  0
  7  8  2  0  0  0
  8  9  1  0  0  0
  9 10  2  0  0  0
 10 11  1  0  0  0
 11 12  2  0  0  0
 12 13  1  0  0  0
 13 14  2  0  0  0
 11 15  1  0  0  0
 15 16  1  0  0  0
 16 17  2  0  0  0
 17 18  1  0  0  0
 18 19  1  0  0  0
 18 20  1  0  0  0
 28 29  1  0  0  0
 29 30  2  0  0  0
 30 31  1  0  0  0
 31 32  2  0  0  0
 32 33  1  0  0  0
 33 34  2  0  0  0
 34 35  1  0  0  0
 35 36  1  0  0  0
 35 37  1  0  0  0
 35 38  1  0  0  0
  5  1  2  0  0  0
 14  6  1  0  0  0
 20 15  2  0  0  0
 34 29  1  0  0  0
 14  9  1  0  0  0
 22 24  1  0  0  0
 22 25  1  0  0  0
M  END
> <minimizedAffinity>
-9.13438

> <CNNscore>
0.3764856160

> <CNNaffinity>
7.2110252380

> <CNN_VS>
2.7148473263

> <CNNaffinity_variance>
0.2133263648

$$$$
[H]c1nn(C([H])([H])[H])c([H])c1-c1c([H])c([H])c2c(nc([H])n2-c2sc(C(=O)N([H])[H])c(O[C@@]([H])(c3c([H])c([H])c([H])c([H])c3C(F)(F)F)C([H])([H])[H])c2[H])c1[H]


 38 42  0  0  0  0  0  0  0  0999 V2000
   54.6139   -4.9517   -6.3506 C   0  0  0  0  0  0  0  0  0  0  0  0
   55.2733   -4.8045   -7.5119 C   0  0  0  0  0  0  0  0  0  0  0  0
   56.5470   -5.3283   -7.5820 C   0  0  0  0  0  0  0  0  0  0  0  0
   56.7611   -5.9989   -6.0281 S   0  0  0  0  0  0  0  0  0  0  0  0
   55.2590   -5.6063   -5.3400 C   0  0  0  0  0  0  0  0  0  0  0  0
   57.4347   -5.2860   -8.7064 N   0  0  0  0  0  0  0  0  0  0  0  0
   58.7165   -5.6800   -8.7253 C   0  0  0  0  0  0  0  0  0  0  0  0
   59.2279   -5.4951   -9.9583 N   0  0  0  0  0  0  0  0  0  0  0  0
   58.2628   -4.9757  -10.7422 C   0  0  0  0  0  0  0  0  0  0  0  0
   58.2189   -4.5945  -12.0659 C   0  0  0  0  0  0  0  0  0  0  0  0
   57.1005   -4.0805  -12.6655 C   0  0  0  0  0  0  0  0  0  0  0  0
   55.9784   -3.9498  -11.8794 C   0  0  0  0  0  0  0  0  0  0  0  0
   56.0017   -4.3292  -10.5387 C   0  0  0  0  0  0  0  0  0  0  0  0
   57.1284   -4.8497   -9.9269 C   0  0  0  0  0  0  0  0  0  0  0  0
   57.0976   -3.6927  -14.0714 C   0  0  0  0  0  0  0  0  0  0  0  0
   58.1912   -3.3582  -14.8610 C   0  0  0  0  0  0  0  0  0  0  0  0
   57.7150   -3.0709  -16.0814 N   0  0  0  0  0  0  0  0  0  0  0  0
   56.4060   -3.1984  -16.1227 N   0  0  0  0  0  0  0  0  0  0  0  0
   55.6139   -2.9503  -17.3228 C   0  0  0  0  0  0  0  0  0  0  0  0
   56.0105   -3.5742  -14.9161 C   0  0  0  0  0  0  0  0  0  0  0  0
   54.7571   -5.8952   -3.9772 C   0  0  0  0  0  0  0  0  0  0  0  0
   54.9501   -4.8922   -3.0023 N   0  0  0  0  0  0  0  0  0  0  0  0
   54.1884   -6.9636   -3.6768 O   0  0  0  0  0  0  0  0  0  0  0  0
   54.1483   -4.4508   -2.5185 H   0  0  0  0  0  0  0  0  0  0  0  0
   55.9086   -4.5856   -2.7599 H   0  0  0  0  0  0  0  0  0  0  0  0
   53.2986   -4.4626   -6.1380 O   0  0  0  0  0  0  0  0  0  0  0  0
   51.9403   -6.0076   -7.3510 C   0  0  0  0  0  0  0  0  0  0  0  0
   52.1819   -5.3201   -5.9555 C   0  0  0  0  0  0  0  0  0  0  0  0
   51.0013   -4.5275   -5.6146 C   0  0  0  0  0  0  0  0  0  0  0  0
   50.5310   -3.6292   -6.5736 C   0  0  0  0  0  0  0  0  0  0  0  0
   49.4230   -2.8468   -6.3328 C   0  0  0  0  0  0  0  0  0  0  0  0
   48.7336   -2.9160   -5.1414 C   0  0  0  0  0  0  0  0  0  0  0  0
   49.2073   -3.8039   -4.2065 C   0  0  0  0  0  0  0  0  0  0  0  0
   50.3389   -4.6167   -4.4263 C   0  0  0  0  0  0  0  0  0  0  0  0
   50.7962   -5.5359   -3.3751 C   0  0  0  0  0  0  0  0  0  0  0  0
   49.7281   -5.6382   -2.4456 F   0  0  0  0  0  0  0  0  0  0  0  0
   51.0377   -6.8206   -3.7959 F   0  0  0  0  0  0  0  0  0  0  0  0
   51.8145   -5.0144   -2.5845 F   0  0  0  0  0  0  0  0  0  0  0  0
 27 28  1  0  0  0
 28 26  1  0  0  0
 26  1  1  0  0  0
  1  2  1  0  0  0
  2  3  2  0  0  0
  3  4  1  0  0  0
  4  5  1  0  0  0
  5 21  1  0  0  0
 21 22  1  0  0  0
 21 23  2  0  0  0
  3  6  1  0  0  0
  6  7  1  0  0  0
  7  8  2  0  0  0
  8  9  1  0  0  0
  9 10  2  0  0  0
 10 11  1  0  0  0
 11 12  2  0  0  0
 12 13  1  0  0  0
 13 14  2  0  0  0
 11 15  1  0  0  0
 15 16  1  0  0  0
 16 17  2  0  0  0
 17 18  1  0  0  0
 18 19  1  0  0  0
 18 20  1  0  0  0
 28 29  1  0  0  0
 29 30  2  0  0  0
 30 31  1  0  0  0
 31 32  2  0  0  0
 32 33  1  0  0  0
 33 34  2  0  0  0
 34 35  1  0  0  0
 35 36  1  0  0  0
 35 37  1  0  0  0
 35 38  1  0  0  0
  5  1  2  0  0  0
 14  6  1  0  0  0
 20 15  2  0  0  0
 34 29  1  0  0  0
 14  9  1  0  0  0
 22 24  1  0  0  0
 22 25  1  0  0  0
M  END
> <minimizedAffinity>
-10.67881

> <CNNscore>
0.3464428186

> <CNNaffinity>
7.1113319397

> <CNN_VS>
2.4636697769

> <CNNaffinity_variance>
0.3301455379

$$$$
[H]c1nn(C([H])([H])[H])c([H])c1-c1c([H])c([H])c2c(nc([H])n2-c2sc(C(=O)N([H])[H])c(O[C@@]([H])(c3c([H])c([H])c([H])c([H])c3C(F)(F)F)C([H])([H])[H])c2[H])c1[H]


 38 42  0  0  0  0  0  0  0  0999 V2000
   57.7349   -5.3584   -9.8470 C   0  0  0  0  0  0  0  0  0  0  0  0
   58.7175   -5.9134   -9.1179 C   0  0  0  0  0  0  0  0  0  0  0  0
   59.9696   -5.9728   -9.6928 C   0  0  0  0  0  0  0  0  0  0  0  0
   59.7147   -5.2529  -11.2182 S   0  0  0  0  0  0  0  0  0  0  0  0
   58.0581   -4.9007  -11.0928 C   0  0  0  0  0  0  0  0  0  0  0  0
   61.1588   -6.5220   -9.1113 N   0  0  0  0  0  0  0  0  0  0  0  0
   61.9606   -5.9216   -8.2195 C   0  0  0  0  0  0  0  0  0  0  0  0
   62.9771   -6.7462   -7.8987 N   0  0  0  0  0  0  0  0  0  0  0  0
   62.8270   -7.8912   -8.5929 C   0  0  0  0  0  0  0  0  0  0  0  0
   63.5513   -9.0618   -8.6595 C   0  0  0  0  0  0  0  0  0  0  0  0
   63.2011  -10.1207   -9.4537 C   0  0  0  0  0  0  0  0  0  0  0  0
   62.0621   -9.9780  -10.2129 C   0  0  0  0  0  0  0  0  0  0  0  0
   61.3154   -8.8026  -10.1602 C   0  0  0  0  0  0  0  0  0  0  0  0
   61.6637   -7.7291   -9.3595 C   0  0  0  0  0  0  0  0  0  0  0  0
   63.9958  -11.3429   -9.4910 C   0  0  0  0  0  0  0  0  0  0  0  0
   65.3324  -11.4964   -9.1423 C   0  0  0  0  0  0  0  0  0  0  0  0
   65.6377  -12.7880   -9.3355 N   0  0  0  0  0  0  0  0  0  0  0  0
   64.5975  -13.4609   -9.7788 N   0  0  0  0  0  0  0  0  0  0  0  0
   64.6347  -14.8886  -10.0781 C   0  0  0  0  0  0  0  0  0  0  0  0
   63.5917  -12.6056   -9.8806 C   0  0  0  0  0  0  0  0  0  0  0  0
   57.1673   -4.2563  -12.0846 C   0  0  0  0  0  0  0  0  0  0  0  0
   56.1527   -3.4158  -11.5770 N   0  0  0  0  0  0  0  0  0  0  0  0
   57.2842   -4.4299  -13.3140 O   0  0  0  0  0  0  0  0  0  0  0  0
   56.1096   -2.4124  -11.8283 H   0  0  0  0  0  0  0  0  0  0  0  0
   55.4334   -3.8015  -10.9404 H   0  0  0  0  0  0  0  0  0  0  0  0
   56.4001   -5.2321   -9.3813 O   0  0  0  0  0  0  0  0  0  0  0  0
   57.1170   -4.1727   -7.3645 C   0  0  0  0  0  0  0  0  0  0  0  0
   55.9983   -4.2192   -8.4712 C   0  0  0  0  0  0  0  0  0  0  0  0
   54.7334   -4.5950   -7.8412 C   0  0  0  0  0  0  0  0  0  0  0  0
   54.7418   -5.7032   -6.9928 C   0  0  0  0  0  0  0  0  0  0  0  0
   53.5932   -6.1220   -6.3579 C   0  0  0  0  0  0  0  0  0  0  0  0
   52.3918   -5.4692   -6.5311 C   0  0  0  0  0  0  0  0  0  0  0  0
   52.3976   -4.3806   -7.3687 C   0  0  0  0  0  0  0  0  0  0  0  0
   53.5584   -3.9301   -8.0314 C   0  0  0  0  0  0  0  0  0  0  0  0
   53.4874   -2.7644   -8.9232 C   0  0  0  0  0  0  0  0  0  0  0  0
   52.2514   -2.1250   -8.6422 F   0  0  0  0  0  0  0  0  0  0  0  0
   54.4499   -1.8098   -8.7040 F   0  0  0  0  0  0  0  0  0  0  0  0
   53.3381   -3.0986  -10.2648 F   0  0  0  0  0  0  0  0  0  0  0  0
 27 28  1  0  0  0
 28 26  1  0  0  0
 26  1  1  0  0  0
  1  2  1  0  0  0
  2  3  2  0  0  0
  3  4  1  0  0  0
  4  5  1  0  0  0
  5 21  1  0  0  0
 21 22  1  0  0  0
 21 23  2  0  0  0
  3  6  1  0  0  0
  6  7  1  0  0  0
  7  8  2  0  0  0
  8  9  1  0  0  0
  9 10  2  0  0  0
 10 11  1  0  0  0
 11 12  2  0  0  0
 12 13  1  0  0  0
 13 14  2  0  0  0
 11 15  1  0  0  0
 15 16  1  0  0  0
 16 17  2  0  0  0
 17 18  1  0  0  0
 18 19  1  0  0  0
 18 20  1  0  0  0
 28 29  1  0  0  0
 29 30  2  0  0  0
 30 31  1  0  0  0
 31 32  2  0  0  0
 32 33  1  0  0  0
 33 34  2  0  0  0
 34 35  1  0  0  0
 35 36  1  0  0  0
 35 37  1  0  0  0
 35 38  1  0  0  0
  5  1  2  0  0  0
 14  6  1  0  0  0
 20 15  2  0  0  0
 34 29  1  0  0  0
 14  9  1  0  0  0
 22 24  1  0  0  0
 22 25  1  0  0  0
M  END
> <minimizedAffinity>
-7.21696

> <CNNscore>
0.3368789554

> <CNNaffinity>
6.2287373543

> <CNN_VS>
2.0983304977

> <CNNaffinity_variance>
0.3101497889

$$$$
[H]OC([H])([H])[C@]([H])(O[H])C([H])([H])Oc1c([H])c([H])c2nc([H])n(-c3sc(C(=O)N([H])[H])c(O[C@@]([H])(c4c([H])c([H])c([H])c([H])c4Cl)C([H])([H])[H])c3[H])c2c1[H]


 37 40  0  0  0  0  0  0  0  0999 V2000
   52.3966   -5.5921   -4.3428 C   0  0  0  0  0  0  0  0  0  0  0  0
   52.9858   -5.2179   -5.5010 C   0  0  0  0  0  0  0  0  0  0  0  0
   52.2307   -4.5337   -6.4252 C   0  0  0  0  0  0  0  0  0  0  0  0
   50.7255   -4.4207   -5.6806 S   0  0  0  0  0  0  0  0  0  0  0  0
   51.0558   -5.2298   -4.2193 C   0  0  0  0  0  0  0  0  0  0  0  0
   52.6848   -4.0541   -7.7176 N   0  0  0  0  0  0  0  0  0  0  0  0
   51.9646   -3.3205   -8.5745 C   0  0  0  0  0  0  0  0  0  0  0  0
   52.6933   -3.0450   -9.6703 N   0  0  0  0  0  0  0  0  0  0  0  0
   53.9038   -3.6062   -9.5258 C   0  0  0  0  0  0  0  0  0  0  0  0
   55.0264   -3.6430  -10.3213 C   0  0  0  0  0  0  0  0  0  0  0  0
   56.1334   -4.3209   -9.8688 C   0  0  0  0  0  0  0  0  0  0  0  0
   56.1359   -4.9594   -8.6388 C   0  0  0  0  0  0  0  0  0  0  0  0
   55.0061   -4.9097   -7.8620 C   0  0  0  0  0  0  0  0  0  0  0  0
   53.8819   -4.2413   -8.2840 C   0  0  0  0  0  0  0  0  0  0  0  0
   57.2560   -5.6417   -8.1880 O   0  0  0  0  0  0  0  0  0  0  0  0
   58.5373   -5.1008   -8.5010 C   0  0  0  0  0  0  0  0  0  0  0  0
   59.3440   -6.0437   -9.3580 C   0  0  0  0  0  0  0  0  0  0  0  0
   59.3776   -5.5763  -10.6531 O   0  0  0  0  0  0  0  0  0  0  0  0
   59.9029   -4.7540  -10.7868 H   0  0  0  0  0  0  0  0  0  0  0  0
   60.7199   -6.2151   -8.8008 C   0  0  0  0  0  0  0  0  0  0  0  0
   60.6876   -6.9198   -7.6128 O   0  0  0  0  0  0  0  0  0  0  0  0
   61.6094   -7.3037   -7.4738 H   0  0  0  0  0  0  0  0  0  0  0  0
   50.1146   -5.4510   -3.1071 C   0  0  0  0  0  0  0  0  0  0  0  0
   50.4231   -6.1511   -1.9631 N   0  0  0  0  0  0  0  0  0  0  0  0
   48.9563   -4.9574   -3.2287 O   0  0  0  0  0  0  0  0  0  0  0  0
   50.8127   -5.6657   -1.1251 H   0  0  0  0  0  0  0  0  0  0  0  0
   50.2858   -7.1847   -1.8756 H   0  0  0  0  0  0  0  0  0  0  0  0
   52.9732   -6.2802   -3.2833 O   0  0  0  0  0  0  0  0  0  0  0  0
   53.2469   -8.3119   -1.9882 C   0  0  0  0  0  0  0  0  0  0  0  0
   53.7193   -7.4128   -3.1318 C   0  0  0  0  0  0  0  0  0  0  0  0
   55.1880   -7.2699   -3.1302 C   0  0  0  0  0  0  0  0  0  0  0  0
   55.8761   -7.0291   -1.9459 C   0  0  0  0  0  0  0  0  0  0  0  0
   57.2573   -6.8165   -1.9041 C   0  0  0  0  0  0  0  0  0  0  0  0
   57.9926   -6.8384   -3.0513 C   0  0  0  0  0  0  0  0  0  0  0  0
   57.3445   -7.0724   -4.2240 C   0  0  0  0  0  0  0  0  0  0  0  0
   55.9838   -7.2828   -4.2607 C   0  0  0  0  0  0  0  0  0  0  0  0
   55.2237   -7.6541   -5.8012 Cl  0  0  0  0  0  0  0  0  0  0  0  0
 29 30  1  0  0  0
 30 28  1  0  0  0
 28  1  1  0  0  0
  1  2  1  0  0  0
  2  3  2  0  0  0
  3  4  1  0  0  0
  4  5  1  0  0  0
  5 23  1  0  0  0
 23 24  1  0  0  0
 23 25  2  0  0  0
  3  6  1  0  0  0
  6  7  1  0  0  0
  7  8  2  0  0  0
  8  9  1  0  0  0
  9 10  2  0  0  0
 10 11  1  0  0  0
 11 12  2  0  0  0
 12 15  1  0  0  0
 15 16  1  0  0  0
 16 17  1  0  0  0
 17 18  1  0  0  0
 17 20  1  0  0  0
 20 21  1  0  0  0
 12 13  1  0  0  0
 13 14  2  0  0  0
 30 31  1  0  0  0
 31 32  2  0  0  0
 32 33  1  0  0  0
 33 34  2  0  0  0
 34 35  1  0  0  0
 35 36  2  0  0  0
 36 37  1  0  0  0
  5  1  2  0  0  0
 14  6  1  0  0  0
 36 31  1  0  0  0
 14  9  1  0  0  0
 24 26  1  0  0  0
 24 27  1  0  0  0
 18 19  1  0  0  0
 21 22  1  0  0  0
M  END
> <minimizedAffinity>
-8.18538

> <CNNscore>
0.8730600476

> <CNNaffinity>
7.5549178123

> <CNN_VS>
6.5958967209

> <CNNaffinity_variance>
0.0191482045

$$$$
[H]OC([H])([H])[C@]([H])(O[H])C([H])([H])Oc1c([H])c([H])c2nc([H])n(-c3sc(C(=O)N([H])[H])c(O[C@@]([H])(c4c([H])c([H])c([H])c([H])c4Cl)C([H])([H])[H])c3[H])c2c1[H]


 37 40  0  0  0  0  0  0  0  0999 V2000
   56.1676   -5.4051   -6.9029 C   0  0  0  0  0  0  0  0  0  0  0  0
   54.9496   -4.8189   -6.8684 C   0  0  0  0  0  0  0  0  0  0  0  0
   54.5409   -4.0994   -7.9676 C   0  0  0  0  0  0  0  0  0  0  0  0
   55.8425   -4.2446   -9.0247 S   0  0  0  0  0  0  0  0  0  0  0  0
   56.8852   -5.2052   -8.0816 C   0  0  0  0  0  0  0  0  0  0  0  0
   53.2764   -3.4026   -8.1147 N   0  0  0  0  0  0  0  0  0  0  0  0
   53.0364   -2.3913   -8.9578 C   0  0  0  0  0  0  0  0  0  0  0  0
   51.7598   -1.9865   -8.8397 N   0  0  0  0  0  0  0  0  0  0  0  0
   51.1600   -2.7434   -7.9079 C   0  0  0  0  0  0  0  0  0  0  0  0
   49.8837   -2.7694   -7.3933 C   0  0  0  0  0  0  0  0  0  0  0  0
   49.5827   -3.6949   -6.4225 C   0  0  0  0  0  0  0  0  0  0  0  0
   50.5334   -4.5913   -5.9603 C   0  0  0  0  0  0  0  0  0  0  0  0
   51.7993   -4.5478   -6.4874 C   0  0  0  0  0  0  0  0  0  0  0  0
   52.1342   -3.6351   -7.4587 C   0  0  0  0  0  0  0  0  0  0  0  0
   50.2234   -5.5226   -4.9806 O   0  0  0  0  0  0  0  0  0  0  0  0
   51.2373   -5.8613   -4.0376 C   0  0  0  0  0  0  0  0  0  0  0  0
   50.7626   -5.6703   -2.6189 C   0  0  0  0  0  0  0  0  0  0  0  0
   49.4240   -5.3463   -2.6196 O   0  0  0  0  0  0  0  0  0  0  0  0
   48.8184   -6.0740   -2.8914 H   0  0  0  0  0  0  0  0  0  0  0  0
   51.0303   -6.8945   -1.8048 C   0  0  0  0  0  0  0  0  0  0  0  0
   50.0098   -7.1194   -0.9008 O   0  0  0  0  0  0  0  0  0  0  0  0
   50.0523   -8.0940   -0.6463 H   0  0  0  0  0  0  0  0  0  0  0  0
   58.2166   -5.7000   -8.4742 C   0  0  0  0  0  0  0  0  0  0  0  0
   58.5400   -6.1197   -9.7444 N   0  0  0  0  0  0  0  0  0  0  0  0
   59.1053   -5.7319   -7.5746 O   0  0  0  0  0  0  0  0  0  0  0  0
   58.9243   -5.4523  -10.4489 H   0  0  0  0  0  0  0  0  0  0  0  0
   58.4201   -7.1091  -10.0631 H   0  0  0  0  0  0  0  0  0  0  0  0
   56.7660   -6.1728   -5.9124 O   0  0  0  0  0  0  0  0  0  0  0  0
   56.2618   -5.1543   -3.7704 C   0  0  0  0  0  0  0  0  0  0  0  0
   56.5506   -6.4151   -4.5868 C   0  0  0  0  0  0  0  0  0  0  0  0
   57.5036   -7.2995   -3.8888 C   0  0  0  0  0  0  0  0  0  0  0  0
   58.8226   -7.4006   -4.3178 C   0  0  0  0  0  0  0  0  0  0  0  0
   59.7421   -8.2767   -3.7336 C   0  0  0  0  0  0  0  0  0  0  0  0
   59.3665   -9.0805   -2.6992 C   0  0  0  0  0  0  0  0  0  0  0  0
   58.0819   -9.0014   -2.2593 C   0  0  0  0  0  0  0  0  0  0  0  0
   57.1793   -8.1359   -2.8368 C   0  0  0  0  0  0  0  0  0  0  0  0
   55.5571   -8.0314   -2.1688 Cl  0  0  0  0  0  0  0  0  0  0  0  0
 29 30  1  0  0  0
 30 28  1  0  0  0
 28  1  1  0  0  0
  1  2  1  0  0  0
  2  3  2  0  0  0
  3  4  1  0  0  0
  4  5  1  0  0  0
  5 23  1  0  0  0
 23 24  1  0  0  0
 23 25  2  0  0  0
  3  6  1  0  0  0
  6  7  1  0  0  0
  7  8  2  0  0  0
  8  9  1  0  0  0
  9 10  2  0  0  0
 10 11  1  0  0  0
 11 12  2  0  0  0
 12 15  1  0  0  0
 15 16  1  0  0  0
 16 17  1  0  0  0
 17 18  1  0  0  0
 17 20  1  0  0  0
 20 21  1  0  0  0
 12 13  1  0  0  0
 13 14  2  0  0  0
 30 31  1  0  0  0
 31 32  2  0  0  0
 32 33  1  0  0  0
 33 34  2  0  0  0
 34 35  1  0  0  0
 35 36  2  0  0  0
 36 37  1  0  0  0
  5  1  2  0  0  0
 14  6  1  0  0  0
 36 31  1  0  0  0
 14  9  1  0  0  0
 24 26  1  0  0  0
 24 27  1  0  0  0
 18 19  1  0  0  0
 21 22  1  0  0  0
M  END
> <minimizedAffinity>
-8.24607

> <CNNscore>
0.8716668487

> <CNNaffinity>
7.4602241516

> <CNN_VS>
6.5028300285

> <CNNaffinity_variance>
0.0468895659

$$$$
[H]OC([H])([H])[C@]([H])(O[H])C([H])([H])Oc1c([H])c([H])c2nc([H])n(-c3sc(C(=O)N([H])[H])c(O[C@@]([H])(c4c([H])c([H])c([H])c([H])c4Cl)C([H])([H])[H])c3[H])c2c1[H]


 37 40  0  0  0  0  0  0  0  0999 V2000
   56.2083   -5.2999   -7.3201 C   0  0  0  0  0  0  0  0  0  0  0  0
   54.9920   -4.7335   -7.1521 C   0  0  0  0  0  0  0  0  0  0  0  0
   54.4635   -4.0036   -8.1916 C   0  0  0  0  0  0  0  0  0  0  0  0
   55.6526   -4.1118   -9.3778 S   0  0  0  0  0  0  0  0  0  0  0  0
   56.7993   -5.0705   -8.5621 C   0  0  0  0  0  0  0  0  0  0  0  0
   53.1809   -3.3245   -8.1975 N   0  0  0  0  0  0  0  0  0  0  0  0
   52.8407   -2.3067   -8.9973 C   0  0  0  0  0  0  0  0  0  0  0  0
   51.5777   -1.9230   -8.7423 N   0  0  0  0  0  0  0  0  0  0  0  0
   51.0883   -2.7004   -7.7640 C   0  0  0  0  0  0  0  0  0  0  0  0
   49.8726   -2.7523   -7.1207 C   0  0  0  0  0  0  0  0  0  0  0  0
   49.6868   -3.6942   -6.1368 C   0  0  0  0  0  0  0  0  0  0  0  0
   50.6927   -4.5814   -5.7878 C   0  0  0  0  0  0  0  0  0  0  0  0
   51.8965   -4.5121   -6.4422 C   0  0  0  0  0  0  0  0  0  0  0  0
   52.1161   -3.5825   -7.4303 C   0  0  0  0  0  0  0  0  0  0  0  0
   50.4988   -5.5294   -4.7942 O   0  0  0  0  0  0  0  0  0  0  0  0
   51.5935   -5.8228   -3.9296 C   0  0  0  0  0  0  0  0  0  0  0  0
   51.2975   -5.4270   -2.5047 C   0  0  0  0  0  0  0  0  0  0  0  0
   50.3209   -6.2507   -1.9902 O   0  0  0  0  0  0  0  0  0  0  0  0
   50.5981   -7.1837   -1.8399 H   0  0  0  0  0  0  0  0  0  0  0  0
   52.5413   -5.4680   -1.6776 C   0  0  0  0  0  0  0  0  0  0  0  0
   52.8393   -4.2174   -1.1713 O   0  0  0  0  0  0  0  0  0  0  0  0
   53.4387   -4.3588   -0.3732 H   0  0  0  0  0  0  0  0  0  0  0  0
   58.0906   -5.5382   -9.0962 C   0  0  0  0  0  0  0  0  0  0  0  0
   59.1624   -5.9033   -8.3138 N   0  0  0  0  0  0  0  0  0  0  0  0
   58.2015   -5.6033  -10.3546 O   0  0  0  0  0  0  0  0  0  0  0  0
   59.2879   -6.8916   -8.0024 H   0  0  0  0  0  0  0  0  0  0  0  0
   59.8920   -5.2233   -7.9973 H   0  0  0  0  0  0  0  0  0  0  0  0
   56.9151   -6.0735   -6.4088 O   0  0  0  0  0  0  0  0  0  0  0  0
   55.2737   -7.5600   -5.4209 C   0  0  0  0  0  0  0  0  0  0  0  0
   56.6136   -6.8302   -5.3139 C   0  0  0  0  0  0  0  0  0  0  0  0
   56.7819   -6.2099   -3.9856 C   0  0  0  0  0  0  0  0  0  0  0  0
   55.9874   -5.1363   -3.5981 C   0  0  0  0  0  0  0  0  0  0  0  0
   56.1571   -4.4715   -2.3800 C   0  0  0  0  0  0  0  0  0  0  0  0
   57.1313   -4.8633   -1.5112 C   0  0  0  0  0  0  0  0  0  0  0  0
   57.9226   -5.9113   -1.8652 C   0  0  0  0  0  0  0  0  0  0  0  0
   57.7512   -6.5646   -3.0657 C   0  0  0  0  0  0  0  0  0  0  0  0
   58.7599   -7.9582   -3.4250 Cl  0  0  0  0  0  0  0  0  0  0  0  0
 29 30  1  0  0  0
 30 28  1  0  0  0
 28  1  1  0  0  0
  1  2  1  0  0  0
  2  3  2  0  0  0
  3  4  1  0  0  0
  4  5  1  0  0  0
  5 23  1  0  0  0
 23 24  1  0  0  0
 23 25  2  0  0  0
  3  6  1  0  0  0
  6  7  1  0  0  0
  7  8  2  0  0  0
  8  9  1  0  0  0
  9 10  2  0  0  0
 10 11  1  0  0  0
 11 12  2  0  0  0
 12 15  1  0  0  0
 15 16  1  0  0  0
 16 17  1  0  0  0
 17 18  1  0  0  0
 17 20  1  0  0  0
 20 21  1  0  0  0
 12 13  1  0  0  0
 13 14  2  0  0  0
 30 31  1  0  0  0
 31 32  2  0  0  0
 32 33  1  0  0  0
 33 34  2  0  0  0
 34 35  1  0  0  0
 35 36  2  0  0  0
 36 37  1  0  0  0
  5  1  2  0  0  0
 14  6  1  0  0  0
 36 31  1  0  0  0
 14  9  1  0  0  0
 24 26  1  0  0  0
 24 27  1  0  0  0
 18 19  1  0  0  0
 21 22  1  0  0  0
M  END
> <minimizedAffinity>
-9.12853

> <CNNscore>
0.8189540505

> <CNNaffinity>
7.3937110901

> <CNN_VS>
6.0551095009

> <CNNaffinity_variance>
0.2338652164

$$$$
[H]OC([H])([H])[C@]([H])(O[H])C([H])([H])Oc1c([H])c([H])c2nc([H])n(-c3sc(C(=O)N([H])[H])c(O[C@@]([H])(c4c([H])c([H])c([H])c([H])c4Cl)C([H])([H])[H])c3[H])c2c1[H]


 37 40  0  0  0  0  0  0  0  0999 V2000
   56.3244   -4.0712  -10.2708 C   0  0  0  0  0  0  0  0  0  0  0  0
   55.0739   -3.6039  -10.0559 C   0  0  0  0  0  0  0  0  0  0  0  0
   54.5080   -3.8011   -8.8175 C   0  0  0  0  0  0  0  0  0  0  0  0
   55.7093   -4.6262   -7.9755 S   0  0  0  0  0  0  0  0  0  0  0  0
   56.9086   -4.7156   -9.1809 C   0  0  0  0  0  0  0  0  0  0  0  0
   53.1841   -3.3757   -8.4021 N   0  0  0  0  0  0  0  0  0  0  0  0
   52.4780   -2.3783   -8.9481 C   0  0  0  0  0  0  0  0  0  0  0  0
   51.2921   -2.2595   -8.3261 N   0  0  0  0  0  0  0  0  0  0  0  0
   51.2242   -3.1911   -7.3625 C   0  0  0  0  0  0  0  0  0  0  0  0
   50.2602   -3.5212   -6.4371 C   0  0  0  0  0  0  0  0  0  0  0  0
   50.5074   -4.5575   -5.5683 C   0  0  0  0  0  0  0  0  0  0  0  0
   51.6977   -5.2661   -5.6102 C   0  0  0  0  0  0  0  0  0  0  0  0
   52.6445   -4.9203   -6.5408 C   0  0  0  0  0  0  0  0  0  0  0  0
   52.4302   -3.8894   -7.4240 C   0  0  0  0  0  0  0  0  0  0  0  0
   51.9409   -6.3106   -4.7308 O   0  0  0  0  0  0  0  0  0  0  0  0
   52.7901   -6.0582   -3.6140 C   0  0  0  0  0  0  0  0  0  0  0  0
   51.9971   -5.8635   -2.3461 C   0  0  0  0  0  0  0  0  0  0  0  0
   51.1762   -6.9507   -2.1434 O   0  0  0  0  0  0  0  0  0  0  0  0
   51.6410   -7.7874   -1.9111 H   0  0  0  0  0  0  0  0  0  0  0  0
   52.9091   -5.6405   -1.1836 C   0  0  0  0  0  0  0  0  0  0  0  0
   53.2707   -4.3104   -1.0873 O   0  0  0  0  0  0  0  0  0  0  0  0
   53.5690   -4.1551   -0.1370 H   0  0  0  0  0  0  0  0  0  0  0  0
   58.2437   -5.3248   -9.0462 C   0  0  0  0  0  0  0  0  0  0  0  0
   59.0154   -5.7347  -10.1095 N   0  0  0  0  0  0  0  0  0  0  0  0
   58.6925   -5.4702   -7.8725 O   0  0  0  0  0  0  0  0  0  0  0  0
   59.6995   -5.0864  -10.5580 H   0  0  0  0  0  0  0  0  0  0  0  0
   58.9578   -6.6976  -10.5149 H   0  0  0  0  0  0  0  0  0  0  0  0
   57.0755   -3.9759  -11.4350 O   0  0  0  0  0  0  0  0  0  0  0  0
   56.0340   -5.2131  -13.2418 C   0  0  0  0  0  0  0  0  0  0  0  0
   56.8225   -3.9881  -12.7759 C   0  0  0  0  0  0  0  0  0  0  0  0
   57.9456   -3.6948  -13.6871 C   0  0  0  0  0  0  0  0  0  0  0  0
   59.2556   -3.6911  -13.2204 C   0  0  0  0  0  0  0  0  0  0  0  0
   60.3447   -3.3503  -14.0280 C   0  0  0  0  0  0  0  0  0  0  0  0
   60.1532   -3.0016  -15.3315 C   0  0  0  0  0  0  0  0  0  0  0  0
   58.8816   -2.9974  -15.8140 C   0  0  0  0  0  0  0  0  0  0  0  0
   57.8114   -3.3351  -15.0153 C   0  0  0  0  0  0  0  0  0  0  0  0
   56.2042   -3.3815  -15.7249 Cl  0  0  0  0  0  0  0  0  0  0  0  0
 29 30  1  0  0  0
 30 28  1  0  0  0
 28  1  1  0  0  0
  1  2  1  0  0  0
  2  3  2  0  0  0
  3  4  1  0  0  0
  4  5  1  0  0  0
  5 23  1  0  0  0
 23 24  1  0  0  0
 23 25  2  0  0  0
  3  6  1  0  0  0
  6  7  1  0  0  0
  7  8  2  0  0  0
  8  9  1  0  0  0
  9 10  2  0  0  0
 10 11  1  0  0  0
 11 12  2  0  0  0
 12 15  1  0  0  0
 15 16  1  0  0  0
 16 17  1  0  0  0
 17 18  1  0  0  0
 17 20  1  0  0  0
 20 21  1  0  0  0
 12 13  1  0  0  0
 13 14  2  0  0  0
 30 31  1  0  0  0
 31 32  2  0  0  0
 32 33  1  0  0  0
 33 34  2  0  0  0
 34 35  1  0  0  0
 35 36  2  0  0  0
 36 37  1  0  0  0
  5  1  2  0  0  0
 14  6  1  0  0  0
 36 31  1  0  0  0
 14  9  1  0  0  0
 24 26  1  0  0  0
 24 27  1  0  0  0
 18 19  1  0  0  0
 21 22  1  0  0  0
M  END
> <minimizedAffinity>
-8.70995

> <CNNscore>
0.7974528074

> <CNNaffinity>
7.2453393936

> <CNN_VS>
5.7778162956

> <CNNaffinity_variance>
0.0380430371

$$$$
[H]OC([H])([H])[C@]([H])(O[H])C([H])([H])Oc1c([H])c([H])c2nc([H])n(-c3sc(C(=O)N([H])[H])c(O[C@@]([H])(c4c([H])c([H])c([H])c([H])c4Cl)C([H])([H])[H])c3[H])c2c1[H]


 37 40  0  0  0  0  0  0  0  0999 V2000
   52.7012   -4.4825   -7.8595 C   0  0  0  0  0  0  0  0  0  0  0  0
   53.9273   -5.0174   -8.0575 C   0  0  0  0  0  0  0  0  0  0  0  0
   54.9055   -4.2203   -8.6057 C   0  0  0  0  0  0  0  0  0  0  0  0
   54.1164   -2.7518   -8.8376 S   0  0  0  0  0  0  0  0  0  0  0  0
   52.5702   -3.1489   -8.2453 C   0  0  0  0  0  0  0  0  0  0  0  0
   56.2723   -4.6151   -8.8926 N   0  0  0  0  0  0  0  0  0  0  0  0
   57.1160   -5.1908   -8.0277 C   0  0  0  0  0  0  0  0  0  0  0  0
   58.2967   -5.4285   -8.6251 N   0  0  0  0  0  0  0  0  0  0  0  0
   58.2219   -5.0022   -9.8954 C   0  0  0  0  0  0  0  0  0  0  0  0
   59.1159   -4.9970  -10.9419 C   0  0  0  0  0  0  0  0  0  0  0  0
   58.7155   -4.4747  -12.1489 C   0  0  0  0  0  0  0  0  0  0  0  0
   57.4408   -3.9602  -12.3254 C   0  0  0  0  0  0  0  0  0  0  0  0
   56.5657   -3.9758  -11.2688 C   0  0  0  0  0  0  0  0  0  0  0  0
   56.9334   -4.4899  -10.0485 C   0  0  0  0  0  0  0  0  0  0  0  0
   57.0430   -3.4347  -13.5456 O   0  0  0  0  0  0  0  0  0  0  0  0
   56.2765   -4.2673  -14.4124 C   0  0  0  0  0  0  0  0  0  0  0  0
   56.6970   -4.1069  -15.8518 C   0  0  0  0  0  0  0  0  0  0  0  0
   55.6037   -3.7662  -16.6169 O   0  0  0  0  0  0  0  0  0  0  0  0
   55.2466   -2.8625  -16.4559 H   0  0  0  0  0  0  0  0  0  0  0  0
   57.7881   -3.0929  -15.9718 C   0  0  0  0  0  0  0  0  0  0  0  0
   59.0063   -3.6324  -15.6059 O   0  0  0  0  0  0  0  0  0  0  0  0
   59.7202   -3.0582  -16.0267 H   0  0  0  0  0  0  0  0  0  0  0  0
   51.4053   -2.2502   -8.1626 C   0  0  0  0  0  0  0  0  0  0  0  0
   50.2560   -2.5394   -7.4627 N   0  0  0  0  0  0  0  0  0  0  0  0
   51.4858   -1.1481   -8.7782 O   0  0  0  0  0  0  0  0  0  0  0  0
   50.1509   -2.2579   -6.4631 H   0  0  0  0  0  0  0  0  0  0  0  0
   49.4447   -3.0455   -7.8876 H   0  0  0  0  0  0  0  0  0  0  0  0
   51.5831   -5.1048   -7.3199 O   0  0  0  0  0  0  0  0  0  0  0  0
   50.1294   -7.0037   -6.9185 C   0  0  0  0  0  0  0  0  0  0  0  0
   51.3458   -6.1736   -6.5052 C   0  0  0  0  0  0  0  0  0  0  0  0
   51.3668   -5.9416   -5.0481 C   0  0  0  0  0  0  0  0  0  0  0  0
   50.2381   -5.4666   -4.3889 C   0  0  0  0  0  0  0  0  0  0  0  0
   50.2311   -5.1649   -3.0239 C   0  0  0  0  0  0  0  0  0  0  0  0
   51.3585   -5.3299   -2.2761 C   0  0  0  0  0  0  0  0  0  0  0  0
   52.4769   -5.7937   -2.8958 C   0  0  0  0  0  0  0  0  0  0  0  0
   52.4792   -6.0912   -4.2407 C   0  0  0  0  0  0  0  0  0  0  0  0
   53.9376   -6.7578   -4.9599 Cl  0  0  0  0  0  0  0  0  0  0  0  0
 29 30  1  0  0  0
 30 28  1  0  0  0
 28  1  1  0  0  0
  1  2  1  0  0  0
  2  3  2  0  0  0
  3  4  1  0  0  0
  4  5  1  0  0  0
  5 23  1  0  0  0
 23 24  1  0  0  0
 23 25  2  0  0  0
  3  6  1  0  0  0
  6  7  1  0  0  0
  7  8  2  0  0  0
  8  9  1  0  0  0
  9 10  2  0  0  0
 10 11  1  0  0  0
 11 12  2  0  0  0
 12 15  1  0  0  0
 15 16  1  0  0  0
 16 17  1  0  0  0
 17 18  1  0  0  0
 17 20  1  0  0  0
 20 21  1  0  0  0
 12 13  1  0  0  0
 13 14  2  0  0  0
 30 31  1  0  0  0
 31 32  2  0  0  0
 32 33  1  0  0  0
 33 34  2  0  0  0
 34 35  1  0  0  0
 35 36  2  0  0  0
 36 37  1  0  0  0
  5  1  2  0  0  0
 14  6  1  0  0  0
 36 31  1  0  0  0
 14  9  1  0  0  0
 24 26  1  0  0  0
 24 27  1  0  0  0
 18 19  1  0  0  0
 21 22  1  0  0  0
M  END
> <minimizedAffinity>
-8.42244

> <CNNscore>
0.7834285498

> <CNNaffinity>
7.3039960861

> <CNN_VS>
5.7221589088

> <CNNaffinity_variance>
0.0535492487

$$$$
[H]OC([H])([H])[C@]([H])(O[H])C([H])([H])Oc1c([H])c([H])c2nc([H])n(-c3sc(C(=O)N([H])[H])c(O[C@@]([H])(c4c([H])c([H])c([H])c([H])c4Cl)C([H])([H])[H])c3[H])c2c1[H]


 37 40  0  0  0  0  0  0  0  0999 V2000
   57.3709   -5.1123   -9.4969 C   0  0  0  0  0  0  0  0  0  0  0  0
   58.4120   -5.7136   -8.8782 C   0  0  0  0  0  0  0  0  0  0  0  0
   59.5973   -5.8351   -9.5659 C   0  0  0  0  0  0  0  0  0  0  0  0
   59.2530   -5.1197  -11.0500 S   0  0  0  0  0  0  0  0  0  0  0  0
   57.6294   -4.6743  -10.7953 C   0  0  0  0  0  0  0  0  0  0  0  0
   60.8165   -6.4481   -9.0718 N   0  0  0  0  0  0  0  0  0  0  0  0
   61.0055   -6.9219   -7.8345 C   0  0  0  0  0  0  0  0  0  0  0  0
   62.2461   -7.4272   -7.7194 N   0  0  0  0  0  0  0  0  0  0  0  0
   62.8737   -7.2808   -8.8964 C   0  0  0  0  0  0  0  0  0  0  0  0
   64.1335   -7.6130   -9.3404 C   0  0  0  0  0  0  0  0  0  0  0  0
   64.4735   -7.3199  -10.6397 C   0  0  0  0  0  0  0  0  0  0  0  0
   63.5777   -6.7028  -11.4985 C   0  0  0  0  0  0  0  0  0  0  0  0
   62.3272   -6.3808  -11.0351 C   0  0  0  0  0  0  0  0  0  0  0  0
   61.9546   -6.6592   -9.7419 C   0  0  0  0  0  0  0  0  0  0  0  0
   63.9270   -6.4097  -12.8083 O   0  0  0  0  0  0  0  0  0  0  0  0
   62.9168   -6.5183  -13.8082 C   0  0  0  0  0  0  0  0  0  0  0  0
   62.9818   -5.3753  -14.7899 C   0  0  0  0  0  0  0  0  0  0  0  0
   62.0276   -5.5514  -15.7674 O   0  0  0  0  0  0  0  0  0  0  0  0
   61.0961   -5.4464  -15.4653 H   0  0  0  0  0  0  0  0  0  0  0  0
   62.8123   -4.0674  -14.0872 C   0  0  0  0  0  0  0  0  0  0  0  0
   63.9971   -3.6639  -13.5019 O   0  0  0  0  0  0  0  0  0  0  0  0
   63.9319   -2.6674  -13.3635 H   0  0  0  0  0  0  0  0  0  0  0  0
   56.7523   -3.9730  -11.7494 C   0  0  0  0  0  0  0  0  0  0  0  0
   55.4403   -3.6450  -11.4937 N   0  0  0  0  0  0  0  0  0  0  0  0
   57.2547   -3.6593  -12.8671 O   0  0  0  0  0  0  0  0  0  0  0  0
   55.1898   -2.7257  -11.0678 H   0  0  0  0  0  0  0  0  0  0  0  0
   54.6424   -4.2868  -11.7090 H   0  0  0  0  0  0  0  0  0  0  0  0
   56.0995   -4.8848   -8.9866 O   0  0  0  0  0  0  0  0  0  0  0  0
   56.5184   -3.7146   -6.9045 C   0  0  0  0  0  0  0  0  0  0  0  0
   55.5496   -4.0822   -8.0296 C   0  0  0  0  0  0  0  0  0  0  0  0
   54.2268   -4.4606   -7.4962 C   0  0  0  0  0  0  0  0  0  0  0  0
   54.0969   -5.5246   -6.6102 C   0  0  0  0  0  0  0  0  0  0  0  0
   52.8584   -5.9644   -6.1338 C   0  0  0  0  0  0  0  0  0  0  0  0
   51.7092   -5.3498   -6.5324 C   0  0  0  0  0  0  0  0  0  0  0  0
   51.8076   -4.3057   -7.3985 C   0  0  0  0  0  0  0  0  0  0  0  0
   53.0299   -3.8745   -7.8645 C   0  0  0  0  0  0  0  0  0  0  0  0
   53.0884   -2.4721   -8.9220 Cl  0  0  0  0  0  0  0  0  0  0  0  0
 29 30  1  0  0  0
 30 28  1  0  0  0
 28  1  1  0  0  0
  1  2  1  0  0  0
  2  3  2  0  0  0
  3  4  1  0  0  0
  4  5  1  0  0  0
  5 23  1  0  0  0
 23 24  1  0  0  0
 23 25  2  0  0  0
  3  6  1  0  0  0
  6  7  1  0  0  0
  7  8  2  0  0  0
  8  9  1  0  0  0
  9 10  2  0  0  0
 10 11  1  0  0  0
 11 12  2  0  0  0
 12 15  1  0  0  0
 15 16  1  0  0  0
 16 17  1  0  0  0
 17 18  1  0  0  0
 17 20  1  0  0  0
 20 21  1  0  0  0
 12 13  1  0  0  0
 13 14  2  0  0  0
 30 31  1  0  0  0
 31 32  2  0  0  0
 32 33  1  0  0  0
 33 34  2  0  0  0
 34 35  1  0  0  0
 35 36  2  0  0  0
 36 37  1  0  0  0
  5  1  2  0  0  0
 14  6  1  0  0  0
 36 31  1  0  0  0
 14  9  1  0  0  0
 24 26  1  0  0  0
 24 27  1  0  0  0
 18 19  1  0  0  0
 21 22  1  0  0  0
M  END
> <minimizedAffinity>
-6.39805

> <CNNscore>
0.4060695469

> <CNNaffinity>
6.1462860107

> <CNN_VS>
2.4958195686

> <CNNaffinity_variance>
0.2691829801

$$$$
[H]OC([H])([H])[C@]([H])(O[H])C([H])([H])Oc1c([H])c([H])c2nc([H])n(-c3sc(C(=O)N([H])[H])c(O[C@@]([H])(c4c([H])c([H])c([H])c([H])c4Cl)C([H])([H])[H])c3[H])c2c1[H]


 37 40  0  0  0  0  0  0  0  0999 V2000
   57.8844   -5.2580   -9.3958 C   0  0  0  0  0  0  0  0  0  0  0  0
   58.9332   -5.7788   -8.7195 C   0  0  0  0  0  0  0  0  0  0  0  0
   60.0974   -6.0242   -9.4102 C   0  0  0  0  0  0  0  0  0  0  0  0
   59.7232   -5.5335  -10.9762 S   0  0  0  0  0  0  0  0  0  0  0  0
   58.1138   -5.0249  -10.7513 C   0  0  0  0  0  0  0  0  0  0  0  0
   61.3205   -6.5784   -8.8597 N   0  0  0  0  0  0  0  0  0  0  0  0
   62.1109   -5.9824   -7.9591 C   0  0  0  0  0  0  0  0  0  0  0  0
   63.1540   -6.7776   -7.6640 N   0  0  0  0  0  0  0  0  0  0  0  0
   63.0422   -7.9063   -8.3813 C   0  0  0  0  0  0  0  0  0  0  0  0
   63.8109   -9.0443   -8.4736 C   0  0  0  0  0  0  0  0  0  0  0  0
   63.4076  -10.0453   -9.3251 C   0  0  0  0  0  0  0  0  0  0  0  0
   62.2528   -9.9273  -10.0822 C   0  0  0  0  0  0  0  0  0  0  0  0
   61.5015   -8.7844   -9.9743 C   0  0  0  0  0  0  0  0  0  0  0  0
   61.8758   -7.7641   -9.1332 C   0  0  0  0  0  0  0  0  0  0  0  0
   61.8514  -10.9408  -10.9394 O   0  0  0  0  0  0  0  0  0  0  0  0
   62.8643  -11.7075  -11.5862 C   0  0  0  0  0  0  0  0  0  0  0  0
   62.6757  -13.1856  -11.3537 C   0  0  0  0  0  0  0  0  0  0  0  0
   63.4989  -13.6007  -10.3304 O   0  0  0  0  0  0  0  0  0  0  0  0
   63.2536  -13.2684   -9.4363 H   0  0  0  0  0  0  0  0  0  0  0  0
   61.2426  -13.4945  -11.0645 C   0  0  0  0  0  0  0  0  0  0  0  0
   60.9495  -13.2771   -9.7318 O   0  0  0  0  0  0  0  0  0  0  0  0
   59.9511  -13.1536   -9.6669 H   0  0  0  0  0  0  0  0  0  0  0  0
   57.2214   -4.4587  -11.7783 C   0  0  0  0  0  0  0  0  0  0  0  0
   56.2106   -3.5631  -11.5130 N   0  0  0  0  0  0  0  0  0  0  0  0
   57.4128   -4.8292  -12.9725 O   0  0  0  0  0  0  0  0  0  0  0  0
   56.3835   -2.5341  -11.5420 H   0  0  0  0  0  0  0  0  0  0  0  0
   55.2365   -3.8609  -11.2739 H   0  0  0  0  0  0  0  0  0  0  0  0
   56.6309   -4.9329   -8.8943 O   0  0  0  0  0  0  0  0  0  0  0  0
   56.6521   -3.8164   -6.7418 C   0  0  0  0  0  0  0  0  0  0  0  0
   56.0951   -3.9128   -8.1631 C   0  0  0  0  0  0  0  0  0  0  0  0
   54.6275   -3.7589   -8.1756 C   0  0  0  0  0  0  0  0  0  0  0  0
   54.0358   -2.6458   -8.7630 C   0  0  0  0  0  0  0  0  0  0  0  0
   52.6562   -2.4215   -8.7374 C   0  0  0  0  0  0  0  0  0  0  0  0
   51.8255   -3.3081   -8.1200 C   0  0  0  0  0  0  0  0  0  0  0  0
   52.3780   -4.4060   -7.5376 C   0  0  0  0  0  0  0  0  0  0  0  0
   53.7377   -4.6241   -7.5663 C   0  0  0  0  0  0  0  0  0  0  0  0
   54.3754   -6.1014   -6.8595 Cl  0  0  0  0  0  0  0  0  0  0  0  0
 29 30  1  0  0  0
 30 28  1  0  0  0
 28  1  1  0  0  0
  1  2  1  0  0  0
  2  3  2  0  0  0
  3  4  1  0  0  0
  4  5  1  0  0  0
  5 23  1  0  0  0
 23 24  1  0  0  0
 23 25  2  0  0  0
  3  6  1  0  0  0
  6  7  1  0  0  0
  7  8  2  0  0  0
  8  9  1  0  0  0
  9 10  2  0  0  0
 10 11  1  0  0  0
 11 12  2  0  0  0
 12 15  1  0  0  0
 15 16  1  0  0  0
 16 17  1  0  0  0
 17 18  1  0  0  0
 17 20  1  0  0  0
 20 21  1  0  0  0
 12 13  1  0  0  0
 13 14  2  0  0  0
 30 31  1  0  0  0
 31 32  2  0  0  0
 32 33  1  0  0  0
 33 34  2  0  0  0
 34 35  1  0  0  0
 35 36  2  0  0  0
 36 37  1  0  0  0
  5  1  2  0  0  0
 14  6  1  0  0  0
 36 31  1  0  0  0
 14  9  1  0  0  0
 24 26  1  0  0  0
 24 27  1  0  0  0
 18 19  1  0  0  0
 21 22  1  0  0  0
M  END
> <minimizedAffinity>
-6.40901

> <CNNscore>
0.3918681443

> <CNNaffinity>
5.8866109848

> <CNN_VS>
2.3067753315

> <CNNaffinity_variance>
0.2412852943

$$$$
[H]OC([H])([H])[C@]([H])(O[H])C([H])([H])Oc1c([H])c([H])c2nc([H])n(-c3sc(C(=O)N([H])[H])c(O[C@@]([H])(c4c([H])c([H])c([H])c([H])c4Cl)C([H])([H])[H])c3[H])c2c1[H]


 37 40  0  0  0  0  0  0  0  0999 V2000
   53.0605   -4.7405   -6.5668 C   0  0  0  0  0  0  0  0  0  0  0  0
   54.3337   -5.0650   -6.8862 C   0  0  0  0  0  0  0  0  0  0  0  0
   54.8650   -4.5536   -8.0477 C   0  0  0  0  0  0  0  0  0  0  0  0
   53.6001   -3.6378   -8.6756 S   0  0  0  0  0  0  0  0  0  0  0  0
   52.4189   -3.9025   -7.4781 C   0  0  0  0  0  0  0  0  0  0  0  0
   56.2042   -4.7895   -8.5547 N   0  0  0  0  0  0  0  0  0  0  0  0
   57.2408   -5.2421   -7.8392 C   0  0  0  0  0  0  0  0  0  0  0  0
   58.3283   -5.3509   -8.6222 N   0  0  0  0  0  0  0  0  0  0  0  0
   57.9965   -4.9643   -9.8637 C   0  0  0  0  0  0  0  0  0  0  0  0
   58.7006   -4.8759  -11.0431 C   0  0  0  0  0  0  0  0  0  0  0  0
   58.0488   -4.4312  -12.1687 C   0  0  0  0  0  0  0  0  0  0  0  0
   56.7097   -4.0756  -12.1342 C   0  0  0  0  0  0  0  0  0  0  0  0
   56.0270   -4.1718  -10.9481 C   0  0  0  0  0  0  0  0  0  0  0  0
   56.6480   -4.6120   -9.8039 C   0  0  0  0  0  0  0  0  0  0  0  0
   56.0579   -3.6277  -13.2734 O   0  0  0  0  0  0  0  0  0  0  0  0
   56.3028   -4.3174  -14.4967 C   0  0  0  0  0  0  0  0  0  0  0  0
   56.7618   -3.3768  -15.5825 C   0  0  0  0  0  0  0  0  0  0  0  0
   57.9960   -2.8606  -15.2548 O   0  0  0  0  0  0  0  0  0  0  0  0
   58.7391   -3.5063  -15.2818 H   0  0  0  0  0  0  0  0  0  0  0  0
   56.7917   -4.0729  -16.9043 C   0  0  0  0  0  0  0  0  0  0  0  0
   57.3213   -5.3432  -16.7818 O   0  0  0  0  0  0  0  0  0  0  0  0
   57.0019   -5.8727  -17.5780 H   0  0  0  0  0  0  0  0  0  0  0  0
   51.0581   -3.3379   -7.4485 C   0  0  0  0  0  0  0  0  0  0  0  0
   49.9302   -4.0595   -7.1300 N   0  0  0  0  0  0  0  0  0  0  0  0
   50.9393   -2.1114   -7.7345 O   0  0  0  0  0  0  0  0  0  0  0  0
   49.5907   -4.1183   -6.1448 H   0  0  0  0  0  0  0  0  0  0  0  0
   49.3661   -4.5756   -7.8443 H   0  0  0  0  0  0  0  0  0  0  0  0
   52.3399   -5.1405   -5.4490 O   0  0  0  0  0  0  0  0  0  0  0  0
   51.0488   -6.5237   -3.9325 C   0  0  0  0  0  0  0  0  0  0  0  0
   52.4013   -6.1659   -4.5506 C   0  0  0  0  0  0  0  0  0  0  0  0
   53.4627   -6.1162   -3.5266 C   0  0  0  0  0  0  0  0  0  0  0  0
   53.3136   -5.3322   -2.3877 C   0  0  0  0  0  0  0  0  0  0  0  0
   54.3191   -5.1979   -1.4257 C   0  0  0  0  0  0  0  0  0  0  0  0
   55.5080   -5.8467   -1.5767 C   0  0  0  0  0  0  0  0  0  0  0  0
   55.6803   -6.6208   -2.6817 C   0  0  0  0  0  0  0  0  0  0  0  0
   54.6865   -6.7516   -3.6265 C   0  0  0  0  0  0  0  0  0  0  0  0
   54.9491   -7.8277   -4.9909 Cl  0  0  0  0  0  0  0  0  0  0  0  0
 29 30  1  0  0  0
 30 28  1  0  0  0
 28  1  1  0  0  0
  1  2  1  0  0  0
  2  3  2  0  0  0
  3  4  1  0  0  0
  4  5  1  0  0  0
  5 23  1  0  0  0
 23 24  1  0  0  0
 23 25  2  0  0  0
  3  6  1  0  0  0
  6  7  1  0  0  0
  7  8  2  0  0  0
  8  9  1  0  0  0
  9 10  2  0  0  0
 10 11  1  0  0  0
 11 12  2  0  0  0
 12 15  1  0  0  0
 15 16  1  0  0  0
 16 17  1  0  0  0
 17 18  1  0  0  0
 17 20  1  0  0  0
 20 21  1  0  0  0
 12 13  1  0  0  0
 13 14  2  0  0  0
 30 31  1  0  0  0
 31 32  2  0  0  0
 32 33  1  0  0  0
 33 34  2  0  0  0
 34 35  1  0  0  0
 35 36  2  0  0  0
 36 37  1  0  0  0
  5  1  2  0  0  0
 14  6  1  0  0  0
 36 31  1  0  0  0
 14  9  1  0  0  0
 24 26  1  0  0  0
 24 27  1  0  0  0
 18 19  1  0  0  0
 21 22  1  0  0  0
M  END
> <minimizedAffinity>
-8.63251

> <CNNscore>
0.3779280484

> <CNNaffinity>
7.0073461533

> <CNN_VS>
2.6482727528

> <CNNaffinity_variance>
0.1206841841

$$$$
[H]OC([H])([H])[C@]([H])(O[H])C([H])([H])Oc1c([H])c([H])c2nc([H])n(-c3sc(C(=O)N([H])[H])c(O[C@@]([H])(c4c([H])c([H])c([H])c([H])c4Cl)C([H])([H])[H])c3[H])c2c1[H]


 37 40  0  0  0  0  0  0  0  0999 V2000
   55.2095   -5.5518   -6.7190 C   0  0  0  0  0  0  0  0  0  0  0  0
   53.9682   -5.2714   -6.2618 C   0  0  0  0  0  0  0  0  0  0  0  0
   53.1511   -4.4811   -7.0367 C   0  0  0  0  0  0  0  0  0  0  0  0
   54.1094   -4.1403   -8.3778 S   0  0  0  0  0  0  0  0  0  0  0  0
   55.5230   -4.9910   -7.9565 C   0  0  0  0  0  0  0  0  0  0  0  0
   51.7961   -4.0733   -6.7145 N   0  0  0  0  0  0  0  0  0  0  0  0
   51.0052   -3.3164   -7.4845 C   0  0  0  0  0  0  0  0  0  0  0  0
   49.8146   -3.1377   -6.8862 N   0  0  0  0  0  0  0  0  0  0  0  0
   49.8295   -3.7861   -5.7114 C   0  0  0  0  0  0  0  0  0  0  0  0
   48.8995   -3.9410   -4.7085 C   0  0  0  0  0  0  0  0  0  0  0  0
   49.2372   -4.6888   -3.6056 C   0  0  0  0  0  0  0  0  0  0  0  0
   50.4844   -5.2820   -3.4901 C   0  0  0  0  0  0  0  0  0  0  0  0
   51.3960   -5.1149   -4.5017 C   0  0  0  0  0  0  0  0  0  0  0  0
   51.0914   -4.3733   -5.6179 C   0  0  0  0  0  0  0  0  0  0  0  0
   50.8190   -6.0352   -2.3747 O   0  0  0  0  0  0  0  0  0  0  0  0
   51.8814   -6.9772   -2.5002 C   0  0  0  0  0  0  0  0  0  0  0  0
   51.5742   -8.2614   -1.7715 C   0  0  0  0  0  0  0  0  0  0  0  0
   52.6862   -9.0741   -1.7793 O   0  0  0  0  0  0  0  0  0  0  0  0
   53.4388   -8.7572   -1.2288 H   0  0  0  0  0  0  0  0  0  0  0  0
   51.1110   -7.9789   -0.3792 C   0  0  0  0  0  0  0  0  0  0  0  0
   49.7854   -7.5893   -0.3691 O   0  0  0  0  0  0  0  0  0  0  0  0
   49.4376   -7.7548    0.5626 H   0  0  0  0  0  0  0  0  0  0  0  0
   56.7554   -5.0952   -8.7576 C   0  0  0  0  0  0  0  0  0  0  0  0
   57.9613   -5.5380   -8.2638 N   0  0  0  0  0  0  0  0  0  0  0  0
   56.6803   -4.7539   -9.9733 O   0  0  0  0  0  0  0  0  0  0  0  0
   58.2204   -6.5482   -8.3055 H   0  0  0  0  0  0  0  0  0  0  0  0
   58.6666   -4.8980   -7.8302 H   0  0  0  0  0  0  0  0  0  0  0  0
   56.1837   -6.3264   -6.1029 O   0  0  0  0  0  0  0  0  0  0  0  0
   55.0545   -7.8416   -4.5832 C   0  0  0  0  0  0  0  0  0  0  0  0
   56.2976   -7.0227   -4.9348 C   0  0  0  0  0  0  0  0  0  0  0  0
   56.8162   -6.3022   -3.7561 C   0  0  0  0  0  0  0  0  0  0  0  0
   56.2048   -5.1344   -3.3127 C   0  0  0  0  0  0  0  0  0  0  0  0
   56.7011   -4.3797   -2.2456 C   0  0  0  0  0  0  0  0  0  0  0  0
   57.8286   -4.7733   -1.5891 C   0  0  0  0  0  0  0  0  0  0  0  0
   58.4465   -5.9125   -2.0021 C   0  0  0  0  0  0  0  0  0  0  0  0
   57.9535   -6.6539   -3.0530 C   0  0  0  0  0  0  0  0  0  0  0  0
   58.7596   -8.1549   -3.4843 Cl  0  0  0  0  0  0  0  0  0  0  0  0
 29 30  1  0  0  0
 30 28  1  0  0  0
 28  1  1  0  0  0
  1  2  1  0  0  0
  2  3  2  0  0  0
  3  4  1  0  0  0
  4  5  1  0  0  0
  5 23  1  0  0  0
 23 24  1  0  0  0
 23 25  2  0  0  0
  3  6  1  0  0  0
  6  7  1  0  0  0
  7  8  2  0  0  0
  8  9  1  0  0  0
  9 10  2  0  0  0
 10 11  1  0  0  0
 11 12  2  0  0  0
 12 15  1  0  0  0
 15 16  1  0  0  0
 16 17  1  0  0  0
 17 18  1  0  0  0
 17 20  1  0  0  0
 20 21  1  0  0  0
 12 13  1  0  0  0
 13 14  2  0  0  0
 30 31  1  0  0  0
 31 32  2  0  0  0
 32 33  1  0  0  0
 33 34  2  0  0  0
 34 35  1  0  0  0
 35 36  2  0  0  0
 36 37  1  0  0  0
  5  1  2  0  0  0
 14  6  1  0  0  0
 36 31  1  0  0  0
 14  9  1  0  0  0
 24 26  1  0  0  0
 24 27  1  0  0  0
 18 19  1  0  0  0
 21 22  1  0  0  0
M  END
> <minimizedAffinity>
-8.53122

> <CNNscore>
0.3584026992

> <CNNaffinity>
6.8547797203

> <CNN_VS>
2.4567716122

> <CNNaffinity_variance>
0.2633213997

$$$$
[H]c1nc([H])c([H])c(-c2c([H])c([H])c3nc([H])n(-c4sc(C(=O)N([H])[H])c(O[C@@]([H])(c5c([H])c([H])c([H])c([H])c5C(F)(F)F)C([H])([H])[H])c4[H])c3c2[H])c1[H]


 38 42  0  0  0  0  0  0  0  0999 V2000
   56.2332   -5.3148   -7.3548 C   0  0  0  0  0  0  0  0  0  0  0  0
   55.0125   -4.7565   -7.2451 C   0  0  0  0  0  0  0  0  0  0  0  0
   54.5270   -4.0773   -8.3373 C   0  0  0  0  0  0  0  0  0  0  0  0
   55.7811   -4.2384   -9.4746 S   0  0  0  0  0  0  0  0  0  0  0  0
   56.8789   -5.1487   -8.5596 C   0  0  0  0  0  0  0  0  0  0  0  0
   53.2502   -3.4043   -8.4450 N   0  0  0  0  0  0  0  0  0  0  0  0
   52.8260   -2.5367   -9.3752 C   0  0  0  0  0  0  0  0  0  0  0  0
   51.5704   -2.1388   -9.1142 N   0  0  0  0  0  0  0  0  0  0  0  0
   51.1559   -2.7490   -7.9980 C   0  0  0  0  0  0  0  0  0  0  0  0
   49.9972   -2.7491   -7.2463 C   0  0  0  0  0  0  0  0  0  0  0  0
   49.9323   -3.5373   -6.1091 C   0  0  0  0  0  0  0  0  0  0  0  0
   50.9826   -4.3313   -5.6870 C   0  0  0  0  0  0  0  0  0  0  0  0
   52.1317   -4.3216   -6.4459 C   0  0  0  0  0  0  0  0  0  0  0  0
   52.2179   -3.5451   -7.5807 C   0  0  0  0  0  0  0  0  0  0  0  0
   50.9129   -5.1562   -4.4937 C   0  0  0  0  0  0  0  0  0  0  0  0
   51.6879   -6.2778   -4.3142 C   0  0  0  0  0  0  0  0  0  0  0  0
   51.5947   -7.0478   -3.1525 C   0  0  0  0  0  0  0  0  0  0  0  0
   50.7245   -6.6793   -2.1889 N   0  0  0  0  0  0  0  0  0  0  0  0
   49.9470   -5.5904   -2.3214 C   0  0  0  0  0  0  0  0  0  0  0  0
   50.0382   -4.8161   -3.4853 C   0  0  0  0  0  0  0  0  0  0  0  0
   58.2129   -5.6495   -8.9650 C   0  0  0  0  0  0  0  0  0  0  0  0
   59.1746   -5.9273   -7.9983 N   0  0  0  0  0  0  0  0  0  0  0  0
   58.4100   -5.8016  -10.1982 O   0  0  0  0  0  0  0  0  0  0  0  0
   59.9442   -5.2598   -7.8140 H   0  0  0  0  0  0  0  0  0  0  0  0
   59.1360   -6.8041   -7.4487 H   0  0  0  0  0  0  0  0  0  0  0  0
   56.8897   -6.0507   -6.3327 O   0  0  0  0  0  0  0  0  0  0  0  0
   56.2757   -4.8174   -4.4656 C   0  0  0  0  0  0  0  0  0  0  0  0
   56.2517   -6.2568   -5.0919 C   0  0  0  0  0  0  0  0  0  0  0  0
   57.0344   -7.0814   -4.1440 C   0  0  0  0  0  0  0  0  0  0  0  0
   58.4143   -7.2248   -4.2962 C   0  0  0  0  0  0  0  0  0  0  0  0
   59.1914   -7.9808   -3.4484 C   0  0  0  0  0  0  0  0  0  0  0  0
   58.6231   -8.6444   -2.3863 C   0  0  0  0  0  0  0  0  0  0  0  0
   57.2851   -8.5213   -2.2168 C   0  0  0  0  0  0  0  0  0  0  0  0
   56.4758   -7.7561   -3.0692 C   0  0  0  0  0  0  0  0  0  0  0  0
   55.0384   -7.6901   -2.8030 C   0  0  0  0  0  0  0  0  0  0  0  0
   54.2382   -8.3000   -3.7401 F   0  0  0  0  0  0  0  0  0  0  0  0
   54.6126   -6.3858   -2.5537 F   0  0  0  0  0  0  0  0  0  0  0  0
   54.7757   -8.3647   -1.6113 F   0  0  0  0  0  0  0  0  0  0  0  0
 27 28  1  0  0  0
 28 26  1  0  0  0
 26  1  1  0  0  0
  1  2  1  0  0  0
  2  3  2  0  0  0
  3  4  1  0  0  0
  4  5  1  0  0  0
  5 21  1  0  0  0
 21 22  1  0  0  0
 21 23  2  0  0  0
  3  6  1  0  0  0
  6  7  1  0  0  0
  7  8  2  0  0  0
  8  9  1  0  0  0
  9 10  2  0  0  0
 10 11  1  0  0  0
 11 12  2  0  0  0
 12 13  1  0  0  0
 13 14  2  0  0  0
 12 15  1  0  0  0
 15 16  2  0  0  0
 16 17  1  0  0  0
 17 18  2  0  0  0
 18 19  1  0  0  0
 19 20  2  0  0  0
 28 29  1  0  0  0
 29 30  2  0  0  0
 30 31  1  0  0  0
 31 32  2  0  0  0
 32 33  1  0  0  0
 33 34  2  0  0  0
 34 35  1  0  0  0
 35 36  1  0  0  0
 35 37  1  0  0  0
 35 38  1  0  0  0
  5  1  2  0  0  0
 14  6  1  0  0  0
 20 15  1  0  0  0
 34 29  1  0  0  0
 14  9  1  0  0  0
 22 24  1  0  0  0
 22 25  1  0  0  0
M  END
> <minimizedAffinity>
-8.94845

> <CNNscore>
0.7310535908

> <CNNaffinity>
7.8789606094

> <CNN_VS>
5.7599425316

> <CNNaffinity_variance>
0.0975068435

$$$$
[H]c1nc([H])c([H])c(-c2c([H])c([H])c3nc([H])n(-c4sc(C(=O)N([H])[H])c(O[C@@]([H])(c5c([H])c([H])c([H])c([H])c5C(F)(F)F)C([H])([H])[H])c4[H])c3c2[H])c1[H]


 38 42  0  0  0  0  0  0  0  0999 V2000
   56.4668   -5.0763   -7.4282 C   0  0  0  0  0  0  0  0  0  0  0  0
   55.2386   -4.5474   -7.2678 C   0  0  0  0  0  0  0  0  0  0  0  0
   54.6164   -4.0427   -8.3850 C   0  0  0  0  0  0  0  0  0  0  0  0
   55.7574   -4.3205   -9.6150 S   0  0  0  0  0  0  0  0  0  0  0  0
   56.9814   -5.0590   -8.7053 C   0  0  0  0  0  0  0  0  0  0  0  0
   53.3055   -3.4324   -8.4484 N   0  0  0  0  0  0  0  0  0  0  0  0
   52.8096   -2.5841   -9.3607 C   0  0  0  0  0  0  0  0  0  0  0  0
   51.5454   -2.2484   -9.0575 N   0  0  0  0  0  0  0  0  0  0  0  0
   51.1975   -2.8810   -7.9311 C   0  0  0  0  0  0  0  0  0  0  0  0
   50.0653   -2.9395   -7.1423 C   0  0  0  0  0  0  0  0  0  0  0  0
   50.0758   -3.7329   -6.0068 C   0  0  0  0  0  0  0  0  0  0  0  0
   51.1766   -4.4759   -5.6223 C   0  0  0  0  0  0  0  0  0  0  0  0
   52.2986   -4.4083   -6.4180 C   0  0  0  0  0  0  0  0  0  0  0  0
   52.3099   -3.6255   -7.5517 C   0  0  0  0  0  0  0  0  0  0  0  0
   51.1860   -5.3064   -4.4308 C   0  0  0  0  0  0  0  0  0  0  0  0
   52.1021   -6.3114   -4.2275 C   0  0  0  0  0  0  0  0  0  0  0  0
   52.0816   -7.0905   -3.0684 C   0  0  0  0  0  0  0  0  0  0  0  0
   51.1411   -6.8482   -2.1313 N   0  0  0  0  0  0  0  0  0  0  0  0
   50.2255   -5.8761   -2.2877 C   0  0  0  0  0  0  0  0  0  0  0  0
   50.2435   -5.0930   -3.4491 C   0  0  0  0  0  0  0  0  0  0  0  0
   58.2901   -5.5685   -9.1766 C   0  0  0  0  0  0  0  0  0  0  0  0
   59.2541   -5.9664   -8.2552 N   0  0  0  0  0  0  0  0  0  0  0  0
   58.4645   -5.6158  -10.4217 O   0  0  0  0  0  0  0  0  0  0  0  0
   60.0504   -5.3461   -8.0251 H   0  0  0  0  0  0  0  0  0  0  0  0
   59.1907   -6.8872   -7.7858 H   0  0  0  0  0  0  0  0  0  0  0  0
   57.2547   -5.6413   -6.3903 O   0  0  0  0  0  0  0  0  0  0  0  0
   55.2800   -6.8401   -6.1722 C   0  0  0  0  0  0  0  0  0  0  0  0
   56.7129   -6.6452   -5.5610 C   0  0  0  0  0  0  0  0  0  0  0  0
   56.4608   -6.2041   -4.1707 C   0  0  0  0  0  0  0  0  0  0  0  0
   55.4058   -5.3384   -3.8786 C   0  0  0  0  0  0  0  0  0  0  0  0
   55.1265   -4.8929   -2.6066 C   0  0  0  0  0  0  0  0  0  0  0  0
   55.8981   -5.2947   -1.5414 C   0  0  0  0  0  0  0  0  0  0  0  0
   56.9286   -6.1351   -1.7986 C   0  0  0  0  0  0  0  0  0  0  0  0
   57.2296   -6.6003   -3.0870 C   0  0  0  0  0  0  0  0  0  0  0  0
   58.3680   -7.5033   -3.2610 C   0  0  0  0  0  0  0  0  0  0  0  0
   59.0343   -7.3856   -4.4580 F   0  0  0  0  0  0  0  0  0  0  0  0
   58.0253   -8.8309   -3.0070 F   0  0  0  0  0  0  0  0  0  0  0  0
   59.3218   -7.2085   -2.2875 F   0  0  0  0  0  0  0  0  0  0  0  0
 27 28  1  0  0  0
 28 26  1  0  0  0
 26  1  1  0  0  0
  1  2  1  0  0  0
  2  3  2  0  0  0
  3  4  1  0  0  0
  4  5  1  0  0  0
  5 21  1  0  0  0
 21 22  1  0  0  0
 21 23  2  0  0  0
  3  6  1  0  0  0
  6  7  1  0  0  0
  7  8  2  0  0  0
  8  9  1  0  0  0
  9 10  2  0  0  0
 10 11  1  0  0  0
 11 12  2  0  0  0
 12 13  1  0  0  0
 13 14  2  0  0  0
 12 15  1  0  0  0
 15 16  2  0  0  0
 16 17  1  0  0  0
 17 18  2  0  0  0
 18 19  1  0  0  0
 19 20  2  0  0  0
 28 29  1  0  0  0
 29 30  2  0  0  0
 30 31  1  0  0  0
 31 32  2  0  0  0
 32 33  1  0  0  0
 33 34  2  0  0  0
 34 35  1  0  0  0
 35 36  1  0  0  0
 35 37  1  0  0  0
 35 38  1  0  0  0
  5  1  2  0  0  0
 14  6  1  0  0  0
 20 15  1  0  0  0
 34 29  1  0  0  0
 14  9  1  0  0  0
 22 24  1  0  0  0
 22 25  1  0  0  0
M  END
> <minimizedAffinity>
-9.77833

> <CNNscore>
0.7224802375

> <CNNaffinity>
7.9098901749

> <CNN_VS>
5.7147393227

> <CNNaffinity_variance>
0.1242394894

$$$$
[H]c1nc([H])c([H])c(-c2c([H])c([H])c3nc([H])n(-c4sc(C(=O)N([H])[H])c(O[C@@]([H])(c5c([H])c([H])c([H])c([H])c5C(F)(F)F)C([H])([H])[H])c4[H])c3c2[H])c1[H]


 38 42  0  0  0  0  0  0  0  0999 V2000
   57.1451   -4.9001  -10.5767 C   0  0  0  0  0  0  0  0  0  0  0  0
   55.8960   -4.3981  -10.5370 C   0  0  0  0  0  0  0  0  0  0  0  0
   55.3009   -4.2790   -9.3034 C   0  0  0  0  0  0  0  0  0  0  0  0
   56.4955   -4.8674   -8.2457 S   0  0  0  0  0  0  0  0  0  0  0  0
   57.7067   -5.2468   -9.3682 C   0  0  0  0  0  0  0  0  0  0  0  0
   53.9755   -3.7694   -9.0236 N   0  0  0  0  0  0  0  0  0  0  0  0
   53.2307   -2.9110   -9.7352 C   0  0  0  0  0  0  0  0  0  0  0  0
   52.0522   -2.6921   -9.1300 N   0  0  0  0  0  0  0  0  0  0  0  0
   52.0137   -3.4134   -8.0038 C   0  0  0  0  0  0  0  0  0  0  0  0
   51.1000   -3.6047   -6.9860 C   0  0  0  0  0  0  0  0  0  0  0  0
   51.4215   -4.4588   -5.9439 C   0  0  0  0  0  0  0  0  0  0  0  0
   52.6254   -5.1352   -5.8741 C   0  0  0  0  0  0  0  0  0  0  0  0
   53.5270   -4.9353   -6.8957 C   0  0  0  0  0  0  0  0  0  0  0  0
   53.2277   -4.0902   -7.9418 C   0  0  0  0  0  0  0  0  0  0  0  0
   52.9611   -6.0297   -4.7801 C   0  0  0  0  0  0  0  0  0  0  0  0
   54.1525   -6.7127   -4.7120 C   0  0  0  0  0  0  0  0  0  0  0  0
   54.4421   -7.5648   -3.6439 C   0  0  0  0  0  0  0  0  0  0  0  0
   53.5304   -7.7178   -2.6605 N   0  0  0  0  0  0  0  0  0  0  0  0
   52.3525   -7.0700   -2.6856 C   0  0  0  0  0  0  0  0  0  0  0  0
   52.0592   -6.2147   -3.7555 C   0  0  0  0  0  0  0  0  0  0  0  0
   59.0510   -5.8119   -9.1071 C   0  0  0  0  0  0  0  0  0  0  0  0
   59.4939   -6.9155   -9.8300 N   0  0  0  0  0  0  0  0  0  0  0  0
   59.7405   -5.2464   -8.2195 O   0  0  0  0  0  0  0  0  0  0  0  0
   59.4741   -7.8620   -9.4110 H   0  0  0  0  0  0  0  0  0  0  0  0
   59.8495   -6.8081  -10.7965 H   0  0  0  0  0  0  0  0  0  0  0  0
   57.9108   -5.0930  -11.7573 O   0  0  0  0  0  0  0  0  0  0  0  0
   57.9561   -2.7802  -11.5753 C   0  0  0  0  0  0  0  0  0  0  0  0
   58.5564   -3.9966  -12.3657 C   0  0  0  0  0  0  0  0  0  0  0  0
   58.1456   -3.7604  -13.7680 C   0  0  0  0  0  0  0  0  0  0  0  0
   56.8090   -3.8870  -14.1493 C   0  0  0  0  0  0  0  0  0  0  0  0
   56.3704   -3.6831  -15.4378 C   0  0  0  0  0  0  0  0  0  0  0  0
   57.2571   -3.3363  -16.4302 C   0  0  0  0  0  0  0  0  0  0  0  0
   58.5606   -3.2072  -16.0857 C   0  0  0  0  0  0  0  0  0  0  0  0
   59.0275   -3.4106  -14.7790 C   0  0  0  0  0  0  0  0  0  0  0  0
   60.4570   -3.2506  -14.5097 C   0  0  0  0  0  0  0  0  0  0  0  0
   61.1007   -4.3795  -14.0604 F   0  0  0  0  0  0  0  0  0  0  0  0
   60.7130   -2.1628  -13.6756 F   0  0  0  0  0  0  0  0  0  0  0  0
   61.0996   -2.9203  -15.7023 F   0  0  0  0  0  0  0  0  0  0  0  0
 27 28  1  0  0  0
 28 26  1  0  0  0
 26  1  1  0  0  0
  1  2  1  0  0  0
  2  3  2  0  0  0
  3  4  1  0  0  0
  4  5  1  0  0  0
  5 21  1  0  0  0
 21 22  1  0  0  0
 21 23  2  0  0  0
  3  6  1  0  0  0
  6  7  1  0  0  0
  7  8  2  0  0  0
  8  9  1  0  0  0
  9 10  2  0  0  0
 10 11  1  0  0  0
 11 12  2  0  0  0
 12 13  1  0  0  0
 13 14  2  0  0  0
 12 15  1  0  0  0
 15 16  2  0  0  0
 16 17  1  0  0  0
 17 18  2  0  0  0
 18 19  1  0  0  0
 19 20  2  0  0  0
 28 29  1  0  0  0
 29 30  2  0  0  0
 30 31  1  0  0  0
 31 32  2  0  0  0
 32 33  1  0  0  0
 33 34  2  0  0  0
 34 35  1  0  0  0
 35 36  1  0  0  0
 35 37  1  0  0  0
 35 38  1  0  0  0
  5  1  2  0  0  0
 14  6  1  0  0  0
 20 15  1  0  0  0
 34 29  1  0  0  0
 14  9  1  0  0  0
 22 24  1  0  0  0
 22 25  1  0  0  0
M  END
> <minimizedAffinity>
-8.58902

> <CNNscore>
0.5207793713

> <CNNaffinity>
7.3119773865

> <CNN_VS>
3.8079268932

> <CNNaffinity_variance>
0.2144733369

$$$$
[H]c1nc([H])c([H])c(-c2c([H])c([H])c3nc([H])n(-c4sc(C(=O)N([H])[H])c(O[C@@]([H])(c5c([H])c([H])c([H])c([H])c5C(F)(F)F)C([H])([H])[H])c4[H])c3c2[H])c1[H]


 38 42  0  0  0  0  0  0  0  0999 V2000
   56.4550   -3.9476  -10.0108 C   0  0  0  0  0  0  0  0  0  0  0  0
   55.1879   -3.5142   -9.8678 C   0  0  0  0  0  0  0  0  0  0  0  0
   54.5120   -3.8985   -8.7341 C   0  0  0  0  0  0  0  0  0  0  0  0
   55.6585   -4.8460   -7.9095 S   0  0  0  0  0  0  0  0  0  0  0  0
   56.9517   -4.7388   -8.9991 C   0  0  0  0  0  0  0  0  0  0  0  0
   53.1533   -3.5538   -8.3736 N   0  0  0  0  0  0  0  0  0  0  0  0
   52.2948   -2.7324   -8.9951 C   0  0  0  0  0  0  0  0  0  0  0  0
   51.1257   -2.6830   -8.3366 N   0  0  0  0  0  0  0  0  0  0  0  0
   51.2084   -3.4807   -7.2657 C   0  0  0  0  0  0  0  0  0  0  0  0
   50.3619   -3.8384   -6.2347 C   0  0  0  0  0  0  0  0  0  0  0  0
   50.8128   -4.7236   -5.2694 C   0  0  0  0  0  0  0  0  0  0  0  0
   52.0823   -5.2710   -5.2895 C   0  0  0  0  0  0  0  0  0  0  0  0
   52.9158   -4.9057   -6.3231 C   0  0  0  0  0  0  0  0  0  0  0  0
   52.4877   -4.0268   -7.2939 C   0  0  0  0  0  0  0  0  0  0  0  0
   52.5536   -6.1983   -4.2759 C   0  0  0  0  0  0  0  0  0  0  0  0
   53.8346   -6.6976   -4.2574 C   0  0  0  0  0  0  0  0  0  0  0  0
   54.2539   -7.5879   -3.2661 C   0  0  0  0  0  0  0  0  0  0  0  0
   53.3799   -7.9630   -2.3086 N   0  0  0  0  0  0  0  0  0  0  0  0
   52.1177   -7.5003   -2.2872 C   0  0  0  0  0  0  0  0  0  0  0  0
   51.6943   -6.6072   -3.2800 C   0  0  0  0  0  0  0  0  0  0  0  0
   58.2971   -5.3483   -8.8843 C   0  0  0  0  0  0  0  0  0  0  0  0
   59.0248   -5.6481  -10.0319 N   0  0  0  0  0  0  0  0  0  0  0  0
   58.7219   -5.5681   -7.7207 O   0  0  0  0  0  0  0  0  0  0  0  0
   59.0739   -6.6199  -10.3855 H   0  0  0  0  0  0  0  0  0  0  0  0
   59.5279   -4.9058  -10.5497 H   0  0  0  0  0  0  0  0  0  0  0  0
   57.3005   -3.6505  -11.1126 O   0  0  0  0  0  0  0  0  0  0  0  0
   56.5229   -5.3413  -12.4986 C   0  0  0  0  0  0  0  0  0  0  0  0
   56.8205   -3.8013  -12.4302 C   0  0  0  0  0  0  0  0  0  0  0  0
   57.8480   -3.5804  -13.4725 C   0  0  0  0  0  0  0  0  0  0  0  0
   59.2005   -3.5103  -13.1355 C   0  0  0  0  0  0  0  0  0  0  0  0
   60.1980   -3.3036  -14.0610 C   0  0  0  0  0  0  0  0  0  0  0  0
   59.8934   -3.1535  -15.3936 C   0  0  0  0  0  0  0  0  0  0  0  0
   58.5874   -3.2174  -15.7466 C   0  0  0  0  0  0  0  0  0  0  0  0
   57.5564   -3.4273  -14.8193 C   0  0  0  0  0  0  0  0  0  0  0  0
   56.1755   -3.4761  -15.3014 C   0  0  0  0  0  0  0  0  0  0  0  0
   55.2764   -2.7192  -14.5878 F   0  0  0  0  0  0  0  0  0  0  0  0
   55.7203   -4.7857  -15.4506 F   0  0  0  0  0  0  0  0  0  0  0  0
   56.1377   -2.9560  -16.5945 F   0  0  0  0  0  0  0  0  0  0  0  0
 27 28  1  0  0  0
 28 26  1  0  0  0
 26  1  1  0  0  0
  1  2  1  0  0  0
  2  3  2  0  0  0
  3  4  1  0  0  0
  4  5  1  0  0  0
  5 21  1  0  0  0
 21 22  1  0  0  0
 21 23  2  0  0  0
  3  6  1  0  0  0
  6  7  1  0  0  0
  7  8  2  0  0  0
  8  9  1  0  0  0
  9 10  2  0  0  0
 10 11  1  0  0  0
 11 12  2  0  0  0
 12 13  1  0  0  0
 13 14  2  0  0  0
 12 15  1  0  0  0
 15 16  2  0  0  0
 16 17  1  0  0  0
 17 18  2  0  0  0
 18 19  1  0  0  0
 19 20  2  0  0  0
 28 29  1  0  0  0
 29 30  2  0  0  0
 30 31  1  0  0  0
 31 32  2  0  0  0
 32 33  1  0  0  0
 33 34  2  0  0  0
 34 35  1  0  0  0
 35 36  1  0  0  0
 35 37  1  0  0  0
 35 38  1  0  0  0
  5  1  2  0  0  0
 14  6  1  0  0  0
 20 15  1  0  0  0
 34 29  1  0  0  0
 14  9  1  0  0  0
 22 24  1  0  0  0
 22 25  1  0  0  0
M  END
> <minimizedAffinity>
-9.17253

> <CNNscore>
0.5139721632

> <CNNaffinity>
7.3620214462

> <CNN_VS>
3.7838740349

> <CNNaffinity_variance>
0.1196223944

$$$$
[H]c1nc([H])c([H])c(-c2c([H])c([H])c3nc([H])n(-c4sc(C(=O)N([H])[H])c(O[C@@]([H])(c5c([H])c([H])c([H])c([H])c5C(F)(F)F)C([H])([H])[H])c4[H])c3c2[H])c1[H]


 38 42  0  0  0  0  0  0  0  0999 V2000
   57.5985   -5.1701  -10.0849 C   0  0  0  0  0  0  0  0  0  0  0  0
   58.5443   -5.7579   -9.3276 C   0  0  0  0  0  0  0  0  0  0  0  0
   59.8107   -5.8489   -9.8548 C   0  0  0  0  0  0  0  0  0  0  0  0
   59.6420   -5.1162  -11.3802 S   0  0  0  0  0  0  0  0  0  0  0  0
   57.9969   -4.7148  -11.3219 C   0  0  0  0  0  0  0  0  0  0  0  0
   60.9742   -6.4354   -9.2246 N   0  0  0  0  0  0  0  0  0  0  0  0
   61.1417   -6.8265   -7.9530 C   0  0  0  0  0  0  0  0  0  0  0  0
   62.3758   -7.3225   -7.7688 N   0  0  0  0  0  0  0  0  0  0  0  0
   63.0354   -7.2603   -8.9311 C   0  0  0  0  0  0  0  0  0  0  0  0
   64.2994   -7.6059   -9.3673 C   0  0  0  0  0  0  0  0  0  0  0  0
   64.6386   -7.3848  -10.6921 C   0  0  0  0  0  0  0  0  0  0  0  0
   63.7630   -6.8294  -11.6068 C   0  0  0  0  0  0  0  0  0  0  0  0
   62.5061   -6.4897  -11.1582 C   0  0  0  0  0  0  0  0  0  0  0  0
   62.1478   -6.7008   -9.8447 C   0  0  0  0  0  0  0  0  0  0  0  0
   64.1208   -6.5975  -12.9952 C   0  0  0  0  0  0  0  0  0  0  0  0
   65.3918   -6.2544  -13.3921 C   0  0  0  0  0  0  0  0  0  0  0  0
   65.7003   -6.0393  -14.7373 C   0  0  0  0  0  0  0  0  0  0  0  0
   64.7273   -6.1722  -15.6632 N   0  0  0  0  0  0  0  0  0  0  0  0
   63.4707   -6.5062  -15.3209 C   0  0  0  0  0  0  0  0  0  0  0  0
   63.1582   -6.7225  -13.9726 C   0  0  0  0  0  0  0  0  0  0  0  0
   57.1852   -4.0315  -12.3558 C   0  0  0  0  0  0  0  0  0  0  0  0
   55.9813   -3.4266  -12.0073 N   0  0  0  0  0  0  0  0  0  0  0  0
   57.6418   -4.0348  -13.5281 O   0  0  0  0  0  0  0  0  0  0  0  0
   55.0797   -3.8948  -12.2062 H   0  0  0  0  0  0  0  0  0  0  0  0
   55.9679   -2.5005  -11.5442 H   0  0  0  0  0  0  0  0  0  0  0  0
   56.2423   -4.9894   -9.7035 O   0  0  0  0  0  0  0  0  0  0  0  0
   57.0751   -4.4720   -7.6004 C   0  0  0  0  0  0  0  0  0  0  0  0
   55.9217   -4.1507   -8.6160 C   0  0  0  0  0  0  0  0  0  0  0  0
   54.6856   -4.5405   -7.9011 C   0  0  0  0  0  0  0  0  0  0  0  0
   54.6910   -5.6043   -6.9976 C   0  0  0  0  0  0  0  0  0  0  0  0
   53.5722   -6.0128   -6.3079 C   0  0  0  0  0  0  0  0  0  0  0  0
   52.3692   -5.3707   -6.4862 C   0  0  0  0  0  0  0  0  0  0  0  0
   52.3376   -4.3347   -7.3580 C   0  0  0  0  0  0  0  0  0  0  0  0
   53.4660   -3.9031   -8.0704 C   0  0  0  0  0  0  0  0  0  0  0  0
   53.3269   -2.7757   -8.9930 C   0  0  0  0  0  0  0  0  0  0  0  0
   53.3524   -3.1021  -10.3284 F   0  0  0  0  0  0  0  0  0  0  0  0
   54.2329   -1.7541   -8.7099 F   0  0  0  0  0  0  0  0  0  0  0  0
   52.0795   -2.1867   -8.7900 F   0  0  0  0  0  0  0  0  0  0  0  0
 27 28  1  0  0  0
 28 26  1  0  0  0
 26  1  1  0  0  0
  1  2  1  0  0  0
  2  3  2  0  0  0
  3  4  1  0  0  0
  4  5  1  0  0  0
  5 21  1  0  0  0
 21 22  1  0  0  0
 21 23  2  0  0  0
  3  6  1  0  0  0
  6  7  1  0  0  0
  7  8  2  0  0  0
  8  9  1  0  0  0
  9 10  2  0  0  0
 10 11  1  0  0  0
 11 12  2  0  0  0
 12 13  1  0  0  0
 13 14  2  0  0  0
 12 15  1  0  0  0
 15 16  2  0  0  0
 16 17  1  0  0  0
 17 18  2  0  0  0
 18 19  1  0  0  0
 19 20  2  0  0  0
 28 29  1  0  0  0
 29 30  2  0  0  0
 30 31  1  0  0  0
 31 32  2  0  0  0
 32 33  1  0  0  0
 33 34  2  0  0  0
 34 35  1  0  0  0
 35 36  1  0  0  0
 35 37  1  0  0  0
 35 38  1  0  0  0
  5  1  2  0  0  0
 14  6  1  0  0  0
 20 15  1  0  0  0
 34 29  1  0  0  0
 14  9  1  0  0  0
 22 24  1  0  0  0
 22 25  1  0  0  0
M  END
> <minimizedAffinity>
-7.72772

> <CNNscore>
0.3281112015

> <CNNaffinity>
6.2505302429

> <CNN_VS>
2.0508689880

> <CNNaffinity_variance>
0.4494026601

$$$$
[H]c1nc([H])c([H])c(-c2c([H])c([H])c3nc([H])n(-c4sc(C(=O)N([H])[H])c(O[C@@]([H])(c5c([H])c([H])c([H])c([H])c5C(F)(F)F)C([H])([H])[H])c4[H])c3c2[H])c1[H]


 38 42  0  0  0  0  0  0  0  0999 V2000
   54.2685   -5.4839   -5.7096 C   0  0  0  0  0  0  0  0  0  0  0  0
   54.3990   -4.9860   -6.9541 C   0  0  0  0  0  0  0  0  0  0  0  0
   55.6294   -5.1021   -7.5562 C   0  0  0  0  0  0  0  0  0  0  0  0
   56.5585   -5.8971   -6.3743 S   0  0  0  0  0  0  0  0  0  0  0  0
   55.3893   -6.0647   -5.1594 C   0  0  0  0  0  0  0  0  0  0  0  0
   55.9963   -4.6432   -8.8789 N   0  0  0  0  0  0  0  0  0  0  0  0
   55.2982   -3.8841   -9.7358 C   0  0  0  0  0  0  0  0  0  0  0  0
   55.9951   -3.6817  -10.8654 N   0  0  0  0  0  0  0  0  0  0  0  0
   57.1695   -4.3135  -10.7578 C   0  0  0  0  0  0  0  0  0  0  0  0
   58.2808   -4.4733  -11.5622 C   0  0  0  0  0  0  0  0  0  0  0  0
   59.3469   -5.2251  -11.0965 C   0  0  0  0  0  0  0  0  0  0  0  0
   59.3510   -5.8288   -9.8526 C   0  0  0  0  0  0  0  0  0  0  0  0
   58.2367   -5.6612   -9.0609 C   0  0  0  0  0  0  0  0  0  0  0  0
   57.1651   -4.9174   -9.5044 C   0  0  0  0  0  0  0  0  0  0  0  0
   60.4695   -6.6175   -9.3664 C   0  0  0  0  0  0  0  0  0  0  0  0
   61.4674   -6.0933   -8.5790 C   0  0  0  0  0  0  0  0  0  0  0  0
   62.5285   -6.8821   -8.1287 C   0  0  0  0  0  0  0  0  0  0  0  0
   62.5710   -8.1856   -8.4764 N   0  0  0  0  0  0  0  0  0  0  0  0
   61.6173   -8.7407   -9.2445 C   0  0  0  0  0  0  0  0  0  0  0  0
   60.5518   -7.9521   -9.6976 C   0  0  0  0  0  0  0  0  0  0  0  0
   55.5396   -6.6924   -3.8260 C   0  0  0  0  0  0  0  0  0  0  0  0
   54.4926   -7.4310   -3.2831 N   0  0  0  0  0  0  0  0  0  0  0  0
   56.6388   -6.5189   -3.2390 O   0  0  0  0  0  0  0  0  0  0  0  0
   53.8791   -7.0201   -2.5574 H   0  0  0  0  0  0  0  0  0  0  0  0
   54.3104   -8.4013   -3.5956 H   0  0  0  0  0  0  0  0  0  0  0  0
   53.0764   -5.4531   -4.9382 O   0  0  0  0  0  0  0  0  0  0  0  0
   52.2905   -6.3499   -6.9288 C   0  0  0  0  0  0  0  0  0  0  0  0
   51.8419   -5.7831   -5.5352 C   0  0  0  0  0  0  0  0  0  0  0  0
   51.0040   -4.6096   -5.8699 C   0  0  0  0  0  0  0  0  0  0  0  0
   51.2111   -3.9017   -7.0547 C   0  0  0  0  0  0  0  0  0  0  0  0
   50.4659   -2.8023   -7.4158 C   0  0  0  0  0  0  0  0  0  0  0  0
   49.4580   -2.3439   -6.6001 C   0  0  0  0  0  0  0  0  0  0  0  0
   49.2370   -3.0139   -5.4440 C   0  0  0  0  0  0  0  0  0  0  0  0
   49.9849   -4.1358   -5.0580 C   0  0  0  0  0  0  0  0  0  0  0  0
   49.6704   -4.7876   -3.7861 C   0  0  0  0  0  0  0  0  0  0  0  0
   49.9083   -6.1412   -3.7444 F   0  0  0  0  0  0  0  0  0  0  0  0
   48.3779   -4.4928   -3.3535 F   0  0  0  0  0  0  0  0  0  0  0  0
   50.4896   -4.2473   -2.7955 F   0  0  0  0  0  0  0  0  0  0  0  0
 27 28  1  0  0  0
 28 26  1  0  0  0
 26  1  1  0  0  0
  1  2  1  0  0  0
  2  3  2  0  0  0
  3  4  1  0  0  0
  4  5  1  0  0  0
  5 21  1  0  0  0
 21 22  1  0  0  0
 21 23  2  0  0  0
  3  6  1  0  0  0
  6  7  1  0  0  0
  7  8  2  0  0  0
  8  9  1  0  0  0
  9 10  2  0  0  0
 10 11  1  0  0  0
 11 12  2  0  0  0
 12 13  1  0  0  0
 13 14  2  0  0  0
 12 15  1  0  0  0
 15 16  2  0  0  0
 16 17  1  0  0  0
 17 18  2  0  0  0
 18 19  1  0  0  0
 19 20  2  0  0  0
 28 29  1  0  0  0
 29 30  2  0  0  0
 30 31  1  0  0  0
 31 32  2  0  0  0
 32 33  1  0  0  0
 33 34  2  0  0  0
 34 35  1  0  0  0
 35 36  1  0  0  0
 35 37  1  0  0  0
 35 38  1  0  0  0
  5  1  2  0  0  0
 14  6  1  0  0  0
 20 15  1  0  0  0
 34 29  1  0  0  0
 14  9  1  0  0  0
 22 24  1  0  0  0
 22 25  1  0  0  0
M  END
> <minimizedAffinity>
-10.43029

> <CNNscore>
0.3210053146

> <CNNaffinity>
7.0841956139

> <CNN_VS>
2.2740645409

> <CNNaffinity_variance>
0.3603849113

$$$$
[H]c1nc([H])c([H])c(-c2c([H])c([H])c3nc([H])n(-c4sc(C(=O)N([H])[H])c(O[C@@]([H])(c5c([H])c([H])c([H])c([H])c5C(F)(F)F)C([H])([H])[H])c4[H])c3c2[H])c1[H]


 38 42  0  0  0  0  0  0  0  0999 V2000
   51.1438   -4.6612   -5.2151 C   0  0  0  0  0  0  0  0  0  0  0  0
   51.6689   -5.6188   -4.4271 C   0  0  0  0  0  0  0  0  0  0  0  0
   50.9669   -5.9631   -3.2964 C   0  0  0  0  0  0  0  0  0  0  0  0
   49.6057   -4.9462   -3.3686 S   0  0  0  0  0  0  0  0  0  0  0  0
   49.9462   -4.1177   -4.8068 C   0  0  0  0  0  0  0  0  0  0  0  0
   51.3377   -6.9579   -2.3126 N   0  0  0  0  0  0  0  0  0  0  0  0
   50.6126   -7.9720   -1.8190 C   0  0  0  0  0  0  0  0  0  0  0  0
   51.3249   -8.6697   -0.9198 N   0  0  0  0  0  0  0  0  0  0  0  0
   52.5369   -8.1129   -0.8149 C   0  0  0  0  0  0  0  0  0  0  0  0
   53.6785   -8.3664   -0.0801 C   0  0  0  0  0  0  0  0  0  0  0  0
   54.7809   -7.5436   -0.2429 C   0  0  0  0  0  0  0  0  0  0  0  0
   54.7923   -6.4703   -1.1145 C   0  0  0  0  0  0  0  0  0  0  0  0
   53.6475   -6.2292   -1.8410 C   0  0  0  0  0  0  0  0  0  0  0  0
   52.5395   -7.0350   -1.6946 C   0  0  0  0  0  0  0  0  0  0  0  0
   55.9489   -5.6081   -1.2831 C   0  0  0  0  0  0  0  0  0  0  0  0
   56.8534   -5.3658   -0.2763 C   0  0  0  0  0  0  0  0  0  0  0  0
   57.9555   -4.5307   -0.4744 C   0  0  0  0  0  0  0  0  0  0  0  0
   58.1319   -3.9519   -1.6808 N   0  0  0  0  0  0  0  0  0  0  0  0
   57.2731   -4.1603   -2.6940 C   0  0  0  0  0  0  0  0  0  0  0  0
   56.1669   -4.9974   -2.4984 C   0  0  0  0  0  0  0  0  0  0  0  0
   49.1416   -3.0638   -5.4675 C   0  0  0  0  0  0  0  0  0  0  0  0
   49.2084   -2.9007   -6.8479 N   0  0  0  0  0  0  0  0  0  0  0  0
   48.4195   -2.3520   -4.7227 O   0  0  0  0  0  0  0  0  0  0  0  0
   49.7764   -2.1403   -7.2615 H   0  0  0  0  0  0  0  0  0  0  0  0
   48.6924   -3.5359   -7.4824 H   0  0  0  0  0  0  0  0  0  0  0  0
   51.7282   -4.1811   -6.4173 O   0  0  0  0  0  0  0  0  0  0  0  0
   51.6141   -6.4438   -6.9188 C   0  0  0  0  0  0  0  0  0  0  0  0
   52.2851   -5.0890   -7.3418 C   0  0  0  0  0  0  0  0  0  0  0  0
   53.7344   -5.3241   -7.1538 C   0  0  0  0  0  0  0  0  0  0  0  0
   54.1887   -6.2736   -6.2372 C   0  0  0  0  0  0  0  0  0  0  0  0
   55.5227   -6.5318   -6.0184 C   0  0  0  0  0  0  0  0  0  0  0  0
   56.4898   -5.8449   -6.7142 C   0  0  0  0  0  0  0  0  0  0  0  0
   56.0747   -4.9177   -7.6099 C   0  0  0  0  0  0  0  0  0  0  0  0
   54.7207   -4.6398   -7.8475 C   0  0  0  0  0  0  0  0  0  0  0  0
   54.3751   -3.6154   -8.8338 C   0  0  0  0  0  0  0  0  0  0  0  0
   53.6537   -2.5506   -8.3476 F   0  0  0  0  0  0  0  0  0  0  0  0
   53.7635   -4.1614   -9.9618 F   0  0  0  0  0  0  0  0  0  0  0  0
   55.5541   -3.0568   -9.3260 F   0  0  0  0  0  0  0  0  0  0  0  0
 27 28  1  0  0  0
 28 26  1  0  0  0
 26  1  1  0  0  0
  1  2  1  0  0  0
  2  3  2  0  0  0
  3  4  1  0  0  0
  4  5  1  0  0  0
  5 21  1  0  0  0
 21 22  1  0  0  0
 21 23  2  0  0  0
  3  6  1  0  0  0
  6  7  1  0  0  0
  7  8  2  0  0  0
  8  9  1  0  0  0
  9 10  2  0  0  0
 10 11  1  0  0  0
 11 12  2  0  0  0
 12 13  1  0  0  0
 13 14  2  0  0  0
 12 15  1  0  0  0
 15 16  2  0  0  0
 16 17  1  0  0  0
 17 18  2  0  0  0
 18 19  1  0  0  0
 19 20  2  0  0  0
 28 29  1  0  0  0
 29 30  2  0  0  0
 30 31  1  0  0  0
 31 32  2  0  0  0
 32 33  1  0  0  0
 33 34  2  0  0  0
 34 35  1  0  0  0
 35 36  1  0  0  0
 35 37  1  0  0  0
 35 38  1  0  0  0
  5  1  2  0  0  0
 14  6  1  0  0  0
 20 15  1  0  0  0
 34 29  1  0  0  0
 14  9  1  0  0  0
 22 24  1  0  0  0
 22 25  1  0  0  0
M  END
> <minimizedAffinity>
-9.62082

> <CNNscore>
0.3147740960

> <CNNaffinity>
7.3819146156

> <CNN_VS>
2.3236355782

> <CNNaffinity_variance>
0.5849541426

$$$$
[H]c1nc([H])c([H])c(-c2c([H])c([H])c3nc([H])n(-c4sc(C(=O)N([H])[H])c(O[C@@]([H])(c5c([H])c([H])c([H])c([H])c5C(F)(F)F)C([H])([H])[H])c4[H])c3c2[H])c1[H]


 38 42  0  0  0  0  0  0  0  0999 V2000
   55.3465   -4.6132   -7.3125 C   0  0  0  0  0  0  0  0  0  0  0  0
   55.4979   -5.2142   -6.1168 C   0  0  0  0  0  0  0  0  0  0  0  0
   56.6514   -5.9335   -5.9118 C   0  0  0  0  0  0  0  0  0  0  0  0
   57.4820   -5.7494   -7.3843 S   0  0  0  0  0  0  0  0  0  0  0  0
   56.3702   -4.7801   -8.2182 C   0  0  0  0  0  0  0  0  0  0  0  0
   57.0238   -6.6557   -4.7141 N   0  0  0  0  0  0  0  0  0  0  0  0
   58.2131   -7.1719   -4.3719 C   0  0  0  0  0  0  0  0  0  0  0  0
   58.1424   -7.7690   -3.1713 N   0  0  0  0  0  0  0  0  0  0  0  0
   56.8921   -7.6479   -2.7107 C   0  0  0  0  0  0  0  0  0  0  0  0
   56.2186   -8.0414   -1.5710 C   0  0  0  0  0  0  0  0  0  0  0  0
   54.8764   -7.7254   -1.4389 C   0  0  0  0  0  0  0  0  0  0  0  0
   54.1726   -7.0281   -2.4034 C   0  0  0  0  0  0  0  0  0  0  0  0
   54.8565   -6.6418   -3.5345 C   0  0  0  0  0  0  0  0  0  0  0  0
   56.1918   -6.9456   -3.6865 C   0  0  0  0  0  0  0  0  0  0  0  0
   52.7650   -6.6985   -2.2635 C   0  0  0  0  0  0  0  0  0  0  0  0
   52.2118   -5.5495   -2.7776 C   0  0  0  0  0  0  0  0  0  0  0  0
   50.8529   -5.2650   -2.6244 C   0  0  0  0  0  0  0  0  0  0  0  0
   50.0705   -6.1391   -1.9570 N   0  0  0  0  0  0  0  0  0  0  0  0
   50.5683   -7.2749   -1.4375 C   0  0  0  0  0  0  0  0  0  0  0  0
   51.9308   -7.5631   -1.5896 C   0  0  0  0  0  0  0  0  0  0  0  0
   56.4797   -4.2383   -9.5926 C   0  0  0  0  0  0  0  0  0  0  0  0
   55.8731   -3.0276   -9.9133 N   0  0  0  0  0  0  0  0  0  0  0  0
   57.1351   -4.9225  -10.4205 O   0  0  0  0  0  0  0  0  0  0  0  0
   54.9744   -3.0086  -10.4268 H   0  0  0  0  0  0  0  0  0  0  0  0
   56.3099   -2.1282   -9.6440 H   0  0  0  0  0  0  0  0  0  0  0  0
   54.2245   -3.8324   -7.6980 O   0  0  0  0  0  0  0  0  0  0  0  0
   52.9476   -3.9721   -9.6304 C   0  0  0  0  0  0  0  0  0  0  0  0
   53.0450   -4.4648   -8.1430 C   0  0  0  0  0  0  0  0  0  0  0  0
   51.8114   -3.9514   -7.5060 C   0  0  0  0  0  0  0  0  0  0  0  0
   51.3817   -2.6438   -7.7375 C   0  0  0  0  0  0  0  0  0  0  0  0
   50.2459   -2.1123   -7.1702 C   0  0  0  0  0  0  0  0  0  0  0  0
   49.4662   -2.8701   -6.3282 C   0  0  0  0  0  0  0  0  0  0  0  0
   49.8619   -4.1427   -6.0872 C   0  0  0  0  0  0  0  0  0  0  0  0
   51.0154   -4.7029   -6.6552 C   0  0  0  0  0  0  0  0  0  0  0  0
   51.3597   -6.0872   -6.3283 C   0  0  0  0  0  0  0  0  0  0  0  0
   50.5501   -6.6897   -5.3944 F   0  0  0  0  0  0  0  0  0  0  0  0
   52.7050   -6.2245   -5.9879 F   0  0  0  0  0  0  0  0  0  0  0  0
   51.2215   -6.8629   -7.4787 F   0  0  0  0  0  0  0  0  0  0  0  0
 27 28  1  0  0  0
 28 26  1  0  0  0
 26  1  1  0  0  0
  1  2  1  0  0  0
  2  3  2  0  0  0
  3  4  1  0  0  0
  4  5  1  0  0  0
  5 21  1  0  0  0
 21 22  1  0  0  0
 21 23  2  0  0  0
  3  6  1  0  0  0
  6  7  1  0  0  0
  7  8  2  0  0  0
  8  9  1  0  0  0
  9 10  2  0  0  0
 10 11  1  0  0  0
 11 12  2  0  0  0
 12 13  1  0  0  0
 13 14  2  0  0  0
 12 15  1  0  0  0
 15 16  2  0  0  0
 16 17  1  0  0  0
 17 18  2  0  0  0
 18 19  1  0  0  0
 19 20  2  0  0  0
 28 29  1  0  0  0
 29 30  2  0  0  0
 30 31  1  0  0  0
 31 32  2  0  0  0
 32 33  1  0  0  0
 33 34  2  0  0  0
 34 35  1  0  0  0
 35 36  1  0  0  0
 35 37  1  0  0  0
 35 38  1  0  0  0
  5  1  2  0  0  0
 14  6  1  0  0  0
 20 15  1  0  0  0
 34 29  1  0  0  0
 14  9  1  0  0  0
 22 24  1  0  0  0
 22 25  1  0  0  0
M  END
> <minimizedAffinity>
-9.59817

> <CNNscore>
0.3118982911

> <CNNaffinity>
7.6388025284

> <CNN_VS>
2.3825294971

> <CNNaffinity_variance>
0.4060206413

$$$$
[H]c1nc([H])c([H])c(-c2c([H])c([H])c3nc([H])n(-c4sc(C(=O)N([H])[H])c(O[C@@]([H])(c5c([H])c([H])c([H])c([H])c5C(F)(F)F)C([H])([H])[H])c4[H])c3c2[H])c1[H]


 38 42  0  0  0  0  0  0  0  0999 V2000
   55.9949   -6.7627   -4.8205 C   0  0  0  0  0  0  0  0  0  0  0  0
   54.6934   -6.7005   -4.4800 C   0  0  0  0  0  0  0  0  0  0  0  0
   54.3788   -6.8602   -3.1513 C   0  0  0  0  0  0  0  0  0  0  0  0
   55.8990   -7.0906   -2.4247 S   0  0  0  0  0  0  0  0  0  0  0  0
   56.8884   -6.9818   -3.7959 C   0  0  0  0  0  0  0  0  0  0  0  0
   53.0573   -6.8308   -2.5616 N   0  0  0  0  0  0  0  0  0  0  0  0
   52.6136   -7.4307   -1.4475 C   0  0  0  0  0  0  0  0  0  0  0  0
   51.3160   -7.1520   -1.2442 N   0  0  0  0  0  0  0  0  0  0  0  0
   50.8929   -6.3579   -2.2344 C   0  0  0  0  0  0  0  0  0  0  0  0
   49.6979   -5.7529   -2.5711 C   0  0  0  0  0  0  0  0  0  0  0  0
   49.6365   -4.9728   -3.7142 C   0  0  0  0  0  0  0  0  0  0  0  0
   50.7253   -4.7694   -4.5416 C   0  0  0  0  0  0  0  0  0  0  0  0
   51.9105   -5.3785   -4.1939 C   0  0  0  0  0  0  0  0  0  0  0  0
   51.9939   -6.1587   -3.0614 C   0  0  0  0  0  0  0  0  0  0  0  0
   50.6587   -3.9519   -5.7402 C   0  0  0  0  0  0  0  0  0  0  0  0
   51.5925   -4.0241   -6.7470 C   0  0  0  0  0  0  0  0  0  0  0  0
   51.4964   -3.2225   -7.8867 C   0  0  0  0  0  0  0  0  0  0  0  0
   50.4638   -2.3605   -7.9978 N   0  0  0  0  0  0  0  0  0  0  0  0
   49.5276   -2.2562   -7.0384 C   0  0  0  0  0  0  0  0  0  0  0  0
   49.6212   -3.0589   -5.8941 C   0  0  0  0  0  0  0  0  0  0  0  0
   58.3639   -7.0912   -3.8699 C   0  0  0  0  0  0  0  0  0  0  0  0
   58.9531   -7.9155   -4.8238 N   0  0  0  0  0  0  0  0  0  0  0  0
   59.0244   -6.4124   -3.0418 O   0  0  0  0  0  0  0  0  0  0  0  0
   59.3156   -8.8491   -4.5615 H   0  0  0  0  0  0  0  0  0  0  0  0
   59.0382   -7.6092   -5.8093 H   0  0  0  0  0  0  0  0  0  0  0  0
   56.5018   -6.6202   -6.1396 O   0  0  0  0  0  0  0  0  0  0  0  0
   56.2976   -4.3860   -5.5469 C   0  0  0  0  0  0  0  0  0  0  0  0
   56.9498   -5.3611   -6.5903 C   0  0  0  0  0  0  0  0  0  0  0  0
   56.3717   -4.9475   -7.8887 C   0  0  0  0  0  0  0  0  0  0  0  0
   55.0451   -4.5225   -7.9743 C   0  0  0  0  0  0  0  0  0  0  0  0
   54.4541   -4.1302   -9.1537 C   0  0  0  0  0  0  0  0  0  0  0  0
   55.1676   -4.1415  -10.3294 C   0  0  0  0  0  0  0  0  0  0  0  0
   56.4576   -4.5501  -10.2729 C   0  0  0  0  0  0  0  0  0  0  0  0
   57.0781   -4.9536   -9.0817 C   0  0  0  0  0  0  0  0  0  0  0  0
   58.4766   -5.3822   -9.1268 C   0  0  0  0  0  0  0  0  0  0  0  0
   58.6735   -6.7420   -9.1789 F   0  0  0  0  0  0  0  0  0  0  0  0
   59.2330   -4.8054   -8.1072 F   0  0  0  0  0  0  0  0  0  0  0  0
   59.0548   -4.8897  -10.2962 F   0  0  0  0  0  0  0  0  0  0  0  0
 27 28  1  0  0  0
 28 26  1  0  0  0
 26  1  1  0  0  0
  1  2  1  0  0  0
  2  3  2  0  0  0
  3  4  1  0  0  0
  4  5  1  0  0  0
  5 21  1  0  0  0
 21 22  1  0  0  0
 21 23  2  0  0  0
  3  6  1  0  0  0
  6  7  1  0  0  0
  7  8  2  0  0  0
  8  9  1  0  0  0
  9 10  2  0  0  0
 10 11  1  0  0  0
 11 12  2  0  0  0
 12 13  1  0  0  0
 13 14  2  0  0  0
 12 15  1  0  0  0
 15 16  2  0  0  0
 16 17  1  0  0  0
 17 18  2  0  0  0
 18 19  1  0  0  0
 19 20  2  0  0  0
 28 29  1  0  0  0
 29 30  2  0  0  0
 30 31  1  0  0  0
 31 32  2  0  0  0
 32 33  1  0  0  0
 33 34  2  0  0  0
 34 35  1  0  0  0
 35 36  1  0  0  0
 35 37  1  0  0  0
 35 38  1  0  0  0
  5  1  2  0  0  0
 14  6  1  0  0  0
 20 15  1  0  0  0
 34 29  1  0  0  0
 14  9  1  0  0  0
 22 24  1  0  0  0
 22 25  1  0  0  0
M  END
> <minimizedAffinity>
-8.70454

> <CNNscore>
0.2806461155

> <CNNaffinity>
7.3912215233

> <CNN_VS>
2.0743176937

> <CNNaffinity_variance>
0.3821260333

$$$$
[H]c1nc(N([H])c2c([H])c([H])c(OC([H])([H])[H])c(C([H])([H])C([H])([H])C([H])([H])N(C([H])([H])[H])C([H])([H])[H])c2[H])nc2c1C([H])([H])C(=S)N([H])c1c([H])c(Cl)c([H])c([H])c1-2


 34 37  0  0  0  0  0  0  0  0999 V2000
   52.1708   -2.9249   -8.4798 C   0  0  0  0  0  0  0  0  0  0  0  0
   52.3926   -2.8081   -9.7855 N   0  0  0  0  0  0  0  0  0  0  0  0
   53.4417   -3.3186  -10.4522 C   0  0  0  0  0  0  0  0  0  0  0  0
   54.4047   -4.0396   -9.7560 C   0  0  0  0  0  0  0  0  0  0  0  0
   55.4788   -4.5202  -10.6615 C   0  0  0  0  0  0  0  0  0  0  0  0
   56.8140   -4.5248  -10.0638 C   0  0  0  0  0  0  0  0  0  0  0  0
   58.0191   -4.0026  -11.0282 S   0  0  0  0  0  0  0  0  0  0  0  0
   57.1967   -4.9239   -8.7592 N   0  0  0  0  0  0  0  0  0  0  0  0
   56.3975   -5.2237   -7.6236 C   0  0  0  0  0  0  0  0  0  0  0  0
   57.0582   -5.9070   -6.6251 C   0  0  0  0  0  0  0  0  0  0  0  0
   56.4028   -6.2552   -5.4831 C   0  0  0  0  0  0  0  0  0  0  0  0
   57.2623   -7.1209   -4.2324 Cl  0  0  0  0  0  0  0  0  0  0  0  0
   55.0620   -5.9127   -5.3389 C   0  0  0  0  0  0  0  0  0  0  0  0
   54.3978   -5.2325   -6.3288 C   0  0  0  0  0  0  0  0  0  0  0  0
   55.0721   -4.8863   -7.4790 C   0  0  0  0  0  0  0  0  0  0  0  0
   54.1903   -4.1698   -8.4051 C   0  0  0  0  0  0  0  0  0  0  0  0
   53.1211   -3.6359   -7.7966 N   0  0  0  0  0  0  0  0  0  0  0  0
   58.2203   -5.0119   -8.6067 H   0  0  0  0  0  0  0  0  0  0  0  0
   51.0664   -2.3866   -7.7821 N   0  0  0  0  0  0  0  0  0  0  0  0
   50.6951   -1.4319   -8.1415 H   0  0  0  0  0  0  0  0  0  0  0  0
   48.9718   -3.9132   -4.4204 C   0  0  0  0  0  0  0  0  0  0  0  0
   48.6075   -2.7355   -5.0369 C   0  0  0  0  0  0  0  0  0  0  0  0
   49.2852   -2.2548   -6.1252 C   0  0  0  0  0  0  0  0  0  0  0  0
   50.3895   -2.9326   -6.6761 C   0  0  0  0  0  0  0  0  0  0  0  0
   50.7315   -4.0966   -6.0490 C   0  0  0  0  0  0  0  0  0  0  0  0
   50.0410   -4.6036   -4.9278 C   0  0  0  0  0  0  0  0  0  0  0  0
   46.9012   -4.2647   -3.1432 C   0  0  0  0  0  0  0  0  0  0  0  0
   48.2776   -4.3874   -3.3086 O   0  0  0  0  0  0  0  0  0  0  0  0
   50.5168   -5.9006   -4.4215 C   0  0  0  0  0  0  0  0  0  0  0  0
   51.7610   -5.7791   -3.6113 C   0  0  0  0  0  0  0  0  0  0  0  0
   51.5218   -5.4976   -2.1793 C   0  0  0  0  0  0  0  0  0  0  0  0
   52.0497   -6.6203   -1.3511 N   0  0  0  0  0  0  0  0  0  0  0  0
   53.0796   -7.2768   -2.1217 C   0  0  0  0  0  0  0  0  0  0  0  0
   50.9528   -7.5411   -1.0550 C   0  0  0  0  0  0  0  0  0  0  0  0
 27 28  1  0  0  0
 28 21  1  0  0  0
 21 22  2  0  0  0
 22 23  1  0  0  0
 23 24  2  0  0  0
 24 19  1  0  0  0
 19  1  1  0  0  0
  1  2  2  0  0  0
  2  3  1  0  0  0
  3  4  2  0  0  0
  4  5  1  0  0  0
  5  6  1  0  0  0
  6  7  2  0  0  0
  6  8  1  0  0  0
  8  9  1  0  0  0
  9 10  2  0  0  0
 10 11  1  0  0  0
 11 12  1  0  0  0
 11 13  2  0  0  0
 13 14  1  0  0  0
 14 15  2  0  0  0
 15 16  1  0  0  0
 16 17  2  0  0  0
 24 25  1  0  0  0
 25 26  2  0  0  0
 26 29  1  0  0  0
 29 30  1  0  0  0
 30 31  1  0  0  0
 31 32  1  0  0  0
 32 33  1  0  0  0
 32 34  1  0  0  0
 26 21  1  0  0  0
 17  1  1  0  0  0
 16  4  1  0  0  0
 15  9  1  0  0  0
 19 20  1  0  0  0
  8 18  1  0  0  0
M  END
> <minimizedAffinity>
-9.08695

> <CNNscore>
0.7634237409

> <CNNaffinity>
8.0769710541

> <CNN_VS>
6.1661515236

> <CNNaffinity_variance>
0.1376300752

$$$$
[H]c1nc(N([H])c2c([H])c([H])c(OC([H])([H])[H])c(C([H])([H])C([H])([H])C([H])([H])N(C([H])([H])[H])C([H])([H])[H])c2[H])nc2c1C([H])([H])C(=S)N([H])c1c([H])c(Cl)c([H])c([H])c1-2


 34 37  0  0  0  0  0  0  0  0999 V2000
   53.6372   -3.6485   -9.8160 C   0  0  0  0  0  0  0  0  0  0  0  0
   52.4627   -3.0582   -9.6166 N   0  0  0  0  0  0  0  0  0  0  0  0
   51.7469   -3.0984   -8.4802 C   0  0  0  0  0  0  0  0  0  0  0  0
   52.2391   -3.8080   -7.3909 C   0  0  0  0  0  0  0  0  0  0  0  0
   51.3108   -3.7342   -6.2345 C   0  0  0  0  0  0  0  0  0  0  0  0
   51.2439   -4.9581   -5.4360 C   0  0  0  0  0  0  0  0  0  0  0  0
   49.7536   -5.3993   -4.9467 S   0  0  0  0  0  0  0  0  0  0  0  0
   52.3029   -5.8084   -5.0320 N   0  0  0  0  0  0  0  0  0  0  0  0
   53.6614   -5.8369   -5.4465 C   0  0  0  0  0  0  0  0  0  0  0  0
   54.4971   -6.5507   -4.6144 C   0  0  0  0  0  0  0  0  0  0  0  0
   55.8248   -6.6538   -4.9004 C   0  0  0  0  0  0  0  0  0  0  0  0
   56.8632   -7.5639   -3.8300 Cl  0  0  0  0  0  0  0  0  0  0  0  0
   56.3237   -6.0310   -6.0401 C   0  0  0  0  0  0  0  0  0  0  0  0
   55.4976   -5.3188   -6.8731 C   0  0  0  0  0  0  0  0  0  0  0  0
   54.1567   -5.2221   -6.5726 C   0  0  0  0  0  0  0  0  0  0  0  0
   53.4524   -4.4242   -7.5805 C   0  0  0  0  0  0  0  0  0  0  0  0
   54.1196   -4.3466   -8.7412 N   0  0  0  0  0  0  0  0  0  0  0  0
   52.0492   -6.5229   -4.3220 H   0  0  0  0  0  0  0  0  0  0  0  0
   54.3871   -3.6040  -11.0127 N   0  0  0  0  0  0  0  0  0  0  0  0
   53.8460   -3.2987  -11.9030 H   0  0  0  0  0  0  0  0  0  0  0  0
   58.4739   -4.5262  -11.6954 C   0  0  0  0  0  0  0  0  0  0  0  0
   57.6732   -3.9800  -12.6753 C   0  0  0  0  0  0  0  0  0  0  0  0
   56.3577   -3.6796  -12.4433 C   0  0  0  0  0  0  0  0  0  0  0  0
   55.7482   -3.9098  -11.1951 C   0  0  0  0  0  0  0  0  0  0  0  0
   56.5610   -4.4509  -10.2402 C   0  0  0  0  0  0  0  0  0  0  0  0
   57.9182   -4.7640  -10.4658 C   0  0  0  0  0  0  0  0  0  0  0  0
   60.5951   -4.1709  -12.8856 C   0  0  0  0  0  0  0  0  0  0  0  0
   59.8098   -4.8341  -11.9473 O   0  0  0  0  0  0  0  0  0  0  0  0
   58.6518   -5.2864   -9.3022 C   0  0  0  0  0  0  0  0  0  0  0  0
   59.5702   -6.4043   -9.6571 C   0  0  0  0  0  0  0  0  0  0  0  0
   60.7905   -6.4684   -8.8241 C   0  0  0  0  0  0  0  0  0  0  0  0
   61.4123   -7.8188   -8.9464 N   0  0  0  0  0  0  0  0  0  0  0  0
   62.6029   -7.8204   -8.1291 C   0  0  0  0  0  0  0  0  0  0  0  0
   61.7435   -8.0574  -10.3509 C   0  0  0  0  0  0  0  0  0  0  0  0
 27 28  1  0  0  0
 28 21  1  0  0  0
 21 22  2  0  0  0
 22 23  1  0  0  0
 23 24  2  0  0  0
 24 19  1  0  0  0
 19  1  1  0  0  0
  1  2  2  0  0  0
  2  3  1  0  0  0
  3  4  2  0  0  0
  4  5  1  0  0  0
  5  6  1  0  0  0
  6  7  2  0  0  0
  6  8  1  0  0  0
  8  9  1  0  0  0
  9 10  2  0  0  0
 10 11  1  0  0  0
 11 12  1  0  0  0
 11 13  2  0  0  0
 13 14  1  0  0  0
 14 15  2  0  0  0
 15 16  1  0  0  0
 16 17  2  0  0  0
 24 25  1  0  0  0
 25 26  2  0  0  0
 26 29  1  0  0  0
 29 30  1  0  0  0
 30 31  1  0  0  0
 31 32  1  0  0  0
 32 33  1  0  0  0
 32 34  1  0  0  0
 26 21  1  0  0  0
 17  1  1  0  0  0
 16  4  1  0  0  0
 15  9  1  0  0  0
 19 20  1  0  0  0
  8 18  1  0  0  0
M  END
> <minimizedAffinity>
-7.80628

> <CNNscore>
0.7389200330

> <CNNaffinity>
7.6935682297

> <CNN_VS>
5.6849317551

> <CNNaffinity_variance>
0.1882203817

$$$$
[H]c1nc(N([H])c2c([H])c([H])c(OC([H])([H])[H])c(C([H])([H])C([H])([H])C([H])([H])N(C([H])([H])[H])C([H])([H])[H])c2[H])nc2c1C([H])([H])C(=S)N([H])c1c([H])c(Cl)c([H])c([H])c1-2


 34 37  0  0  0  0  0  0  0  0999 V2000
   53.1737   -3.5112   -9.4220 C   0  0  0  0  0  0  0  0  0  0  0  0
   52.0244   -2.9211   -9.1081 N   0  0  0  0  0  0  0  0  0  0  0  0
   51.3836   -3.0265   -7.9318 C   0  0  0  0  0  0  0  0  0  0  0  0
   51.9340   -3.8112   -6.9251 C   0  0  0  0  0  0  0  0  0  0  0  0
   51.0843   -3.8016   -5.7076 C   0  0  0  0  0  0  0  0  0  0  0  0
   51.0497   -5.0740   -4.9865 C   0  0  0  0  0  0  0  0  0  0  0  0
   49.5875   -5.5281   -4.4291 S   0  0  0  0  0  0  0  0  0  0  0  0
   52.1188   -5.9613   -4.7085 N   0  0  0  0  0  0  0  0  0  0  0  0
   53.4468   -5.9791   -5.2128 C   0  0  0  0  0  0  0  0  0  0  0  0
   54.3233   -6.7554   -4.4851 C   0  0  0  0  0  0  0  0  0  0  0  0
   55.6276   -6.8556   -4.8641 C   0  0  0  0  0  0  0  0  0  0  0  0
   56.7186   -7.8457   -3.9251 Cl  0  0  0  0  0  0  0  0  0  0  0  0
   56.0613   -6.1660   -5.9921 C   0  0  0  0  0  0  0  0  0  0  0  0
   55.1944   -5.3914   -6.7214 C   0  0  0  0  0  0  0  0  0  0  0  0
   53.8777   -5.2983   -6.3274 C   0  0  0  0  0  0  0  0  0  0  0  0
   53.1223   -4.4283   -7.2334 C   0  0  0  0  0  0  0  0  0  0  0  0
   53.7137   -4.2834   -8.4283 N   0  0  0  0  0  0  0  0  0  0  0  0
   51.9003   -6.7174   -4.0306 H   0  0  0  0  0  0  0  0  0  0  0  0
   53.8448   -3.3980  -10.6602 N   0  0  0  0  0  0  0  0  0  0  0  0
   53.2746   -2.9583  -11.4727 H   0  0  0  0  0  0  0  0  0  0  0  0
   57.8528   -4.5271  -11.4845 C   0  0  0  0  0  0  0  0  0  0  0  0
   57.4093   -4.2857  -10.2020 C   0  0  0  0  0  0  0  0  0  0  0  0
   56.1126   -3.9287   -9.9456 C   0  0  0  0  0  0  0  0  0  0  0  0
   55.1600   -3.7879  -10.9728 C   0  0  0  0  0  0  0  0  0  0  0  0
   55.6222   -4.0323  -12.2344 C   0  0  0  0  0  0  0  0  0  0  0  0
   56.9553   -4.4021  -12.5122 C   0  0  0  0  0  0  0  0  0  0  0  0
   60.0378   -4.1516  -12.5462 C   0  0  0  0  0  0  0  0  0  0  0  0
   59.1776   -4.8827  -11.7321 O   0  0  0  0  0  0  0  0  0  0  0  0
   57.2561   -4.6810  -13.9252 C   0  0  0  0  0  0  0  0  0  0  0  0
   57.1048   -3.4793  -14.7925 C   0  0  0  0  0  0  0  0  0  0  0  0
   58.0138   -3.4603  -15.9588 C   0  0  0  0  0  0  0  0  0  0  0  0
   57.2422   -3.1315  -17.1923 N   0  0  0  0  0  0  0  0  0  0  0  0
   57.6965   -1.8407  -17.6535 C   0  0  0  0  0  0  0  0  0  0  0  0
   55.8185   -3.0951  -16.8595 C   0  0  0  0  0  0  0  0  0  0  0  0
 27 28  1  0  0  0
 28 21  1  0  0  0
 21 22  2  0  0  0
 22 23  1  0  0  0
 23 24  2  0  0  0
 24 19  1  0  0  0
 19  1  1  0  0  0
  1  2  2  0  0  0
  2  3  1  0  0  0
  3  4  2  0  0  0
  4  5  1  0  0  0
  5  6  1  0  0  0
  6  7  2  0  0  0
  6  8  1  0  0  0
  8  9  1  0  0  0
  9 10  2  0  0  0
 10 11  1  0  0  0
 11 12  1  0  0  0
 11 13  2  0  0  0
 13 14  1  0  0  0
 14 15  2  0  0  0
 15 16  1  0  0  0
 16 17  2  0  0  0
 24 25  1  0  0  0
 25 26  2  0  0  0
 26 29  1  0  0  0
 29 30  1  0  0  0
 30 31  1  0  0  0
 31 32  1  0  0  0
 32 33  1  0  0  0
 32 34  1  0  0  0
 26 21  1  0  0  0
 17  1  1  0  0  0
 16  4  1  0  0  0
 15  9  1  0  0  0
 19 20  1  0  0  0
  8 18  1  0  0  0
M  END
> <minimizedAffinity>
-6.26283

> <CNNscore>
0.6920553446

> <CNNaffinity>
7.4806990623

> <CNN_VS>
5.1770577431

> <CNNaffinity_variance>
0.2242276669

$$$$
[H]c1nc(N([H])c2c([H])c([H])c(OC([H])([H])[H])c(C([H])([H])C([H])([H])C([H])([H])N(C([H])([H])[H])C([H])([H])[H])c2[H])nc2c1C([H])([H])C(=S)N([H])c1c([H])c(Cl)c([H])c([H])c1-2


 34 37  0  0  0  0  0  0  0  0999 V2000
   52.0474   -3.8450   -7.9378 C   0  0  0  0  0  0  0  0  0  0  0  0
   51.1205   -2.8938   -8.0002 N   0  0  0  0  0  0  0  0  0  0  0  0
   50.2342   -2.5970   -7.0348 C   0  0  0  0  0  0  0  0  0  0  0  0
   50.2511   -3.3226   -5.8493 C   0  0  0  0  0  0  0  0  0  0  0  0
   49.2025   -2.8483   -4.9112 C   0  0  0  0  0  0  0  0  0  0  0  0
   48.5855   -3.9067   -4.1117 C   0  0  0  0  0  0  0  0  0  0  0  0
   46.9700   -3.7999   -3.9283 S   0  0  0  0  0  0  0  0  0  0  0  0
   49.2070   -5.0100   -3.4759 N   0  0  0  0  0  0  0  0  0  0  0  0
   50.5307   -5.5104   -3.6009 C   0  0  0  0  0  0  0  0  0  0  0  0
   50.9116   -6.3738   -2.5960 C   0  0  0  0  0  0  0  0  0  0  0  0
   52.1581   -6.9228   -2.5996 C   0  0  0  0  0  0  0  0  0  0  0  0
   52.6169   -8.0141   -1.3148 Cl  0  0  0  0  0  0  0  0  0  0  0  0
   53.0382   -6.6012   -3.6282 C   0  0  0  0  0  0  0  0  0  0  0  0
   52.6658   -5.7425   -4.6319 C   0  0  0  0  0  0  0  0  0  0  0  0
   51.4022   -5.1939   -4.6166 C   0  0  0  0  0  0  0  0  0  0  0  0
   51.2034   -4.3097   -5.7686 C   0  0  0  0  0  0  0  0  0  0  0  0
   52.0617   -4.5579   -6.7687 N   0  0  0  0  0  0  0  0  0  0  0  0
   48.6031   -5.5365   -2.8149 H   0  0  0  0  0  0  0  0  0  0  0  0
   52.9778   -4.1543   -8.9551 N   0  0  0  0  0  0  0  0  0  0  0  0
   52.5718   -4.2585   -9.9565 H   0  0  0  0  0  0  0  0  0  0  0  0
   57.1546   -4.7180   -8.4495 C   0  0  0  0  0  0  0  0  0  0  0  0
   56.2680   -4.8345   -7.4006 C   0  0  0  0  0  0  0  0  0  0  0  0
   54.9215   -4.6576   -7.5752 C   0  0  0  0  0  0  0  0  0  0  0  0
   54.3659   -4.3477   -8.8312 C   0  0  0  0  0  0  0  0  0  0  0  0
   55.2633   -4.2378   -9.8548 C   0  0  0  0  0  0  0  0  0  0  0  0
   56.6528   -4.4188   -9.6888 C   0  0  0  0  0  0  0  0  0  0  0  0
   59.2645   -5.9177   -8.8386 C   0  0  0  0  0  0  0  0  0  0  0  0
   58.5238   -4.8933   -8.2564 O   0  0  0  0  0  0  0  0  0  0  0  0
   57.4579   -4.3183  -10.9163 C   0  0  0  0  0  0  0  0  0  0  0  0
   56.6688   -3.8309  -12.0821 C   0  0  0  0  0  0  0  0  0  0  0  0
   57.4405   -3.7533  -13.3412 C   0  0  0  0  0  0  0  0  0  0  0  0
   56.5057   -3.7351  -14.5035 N   0  0  0  0  0  0  0  0  0  0  0  0
   55.9671   -5.0675  -14.6441 C   0  0  0  0  0  0  0  0  0  0  0  0
   57.2516   -3.3451  -15.6996 C   0  0  0  0  0  0  0  0  0  0  0  0
 27 28  1  0  0  0
 28 21  1  0  0  0
 21 22  2  0  0  0
 22 23  1  0  0  0
 23 24  2  0  0  0
 24 19  1  0  0  0
 19  1  1  0  0  0
  1  2  2  0  0  0
  2  3  1  0  0  0
  3  4  2  0  0  0
  4  5  1  0  0  0
  5  6  1  0  0  0
  6  7  2  0  0  0
  6  8  1  0  0  0
  8  9  1  0  0  0
  9 10  2  0  0  0
 10 11  1  0  0  0
 11 12  1  0  0  0
 11 13  2  0  0  0
 13 14  1  0  0  0
 14 15  2  0  0  0
 15 16  1  0  0  0
 16 17  2  0  0  0
 24 25  1  0  0  0
 25 26  2  0  0  0
 26 29  1  0  0  0
 29 30  1  0  0  0
 30 31  1  0  0  0
 31 32  1  0  0  0
 32 33  1  0  0  0
 32 34  1  0  0  0
 26 21  1  0  0  0
 17  1  1  0  0  0
 16  4  1  0  0  0
 15  9  1  0  0  0
 19 20  1  0  0  0
  8 18  1  0  0  0
M  END
> <minimizedAffinity>
-9.46113

> <CNNscore>
0.5850434303

> <CNNaffinity>
7.7244620323

> <CNN_VS>
4.5191459656

> <CNNaffinity_variance>
0.0651267990

$$$$
[H]c1nc(N([H])c2c([H])c([H])c(OC([H])([H])[H])c(C([H])([H])C([H])([H])C([H])([H])N(C([H])([H])[H])C([H])([H])[H])c2[H])nc2c1C([H])([H])C(=S)N([H])c1c([H])c(Cl)c([H])c([H])c1-2


 34 37  0  0  0  0  0  0  0  0999 V2000
   51.9094   -3.9214   -7.6470 C   0  0  0  0  0  0  0  0  0  0  0  0
   50.9725   -2.9881   -7.7848 N   0  0  0  0  0  0  0  0  0  0  0  0
   50.0469   -2.6636   -6.8663 C   0  0  0  0  0  0  0  0  0  0  0  0
   50.0297   -3.3368   -5.6504 C   0  0  0  0  0  0  0  0  0  0  0  0
   48.9406   -2.8387   -4.7728 C   0  0  0  0  0  0  0  0  0  0  0  0
   48.3089   -3.8709   -3.9509 C   0  0  0  0  0  0  0  0  0  0  0  0
   46.6864   -3.7811   -3.8315 S   0  0  0  0  0  0  0  0  0  0  0  0
   48.9215   -4.9360   -3.2452 N   0  0  0  0  0  0  0  0  0  0  0  0
   50.2556   -5.4210   -3.2998 C   0  0  0  0  0  0  0  0  0  0  0  0
   50.6109   -6.2342   -2.2448 C   0  0  0  0  0  0  0  0  0  0  0  0
   51.8640   -6.7636   -2.1789 C   0  0  0  0  0  0  0  0  0  0  0  0
   52.2898   -7.7911   -0.8316 Cl  0  0  0  0  0  0  0  0  0  0  0  0
   52.7772   -6.4732   -3.1877 C   0  0  0  0  0  0  0  0  0  0  0  0
   52.4306   -5.6645   -4.2409 C   0  0  0  0  0  0  0  0  0  0  0  0
   51.1599   -5.1353   -4.2958 C   0  0  0  0  0  0  0  0  0  0  0  0
   50.9919   -4.3048   -5.4918 C   0  0  0  0  0  0  0  0  0  0  0  0
   51.8901   -4.5828   -6.4481 N   0  0  0  0  0  0  0  0  0  0  0  0
   48.3007   -5.4427   -2.5843 H   0  0  0  0  0  0  0  0  0  0  0  0
   52.8812   -4.2600   -8.6152 N   0  0  0  0  0  0  0  0  0  0  0  0
   52.5258   -4.3456   -9.6374 H   0  0  0  0  0  0  0  0  0  0  0  0
   57.0392   -4.9788   -8.1538 C   0  0  0  0  0  0  0  0  0  0  0  0
   56.5259   -4.3345   -9.2589 C   0  0  0  0  0  0  0  0  0  0  0  0
   55.1837   -4.1011   -9.3953 C   0  0  0  0  0  0  0  0  0  0  0  0
   54.2529   -4.5038   -8.4187 C   0  0  0  0  0  0  0  0  0  0  0  0
   54.7846   -5.1396   -7.3333 C   0  0  0  0  0  0  0  0  0  0  0  0
   56.1656   -5.3852   -7.1798 C   0  0  0  0  0  0  0  0  0  0  0  0
   59.2025   -5.7181   -9.0572 C   0  0  0  0  0  0  0  0  0  0  0  0
   58.4072   -5.2166   -8.0311 O   0  0  0  0  0  0  0  0  0  0  0  0
   56.5597   -6.0310   -5.9178 C   0  0  0  0  0  0  0  0  0  0  0  0
   56.0226   -5.3264   -4.7202 C   0  0  0  0  0  0  0  0  0  0  0  0
   56.4941   -5.8819   -3.4332 C   0  0  0  0  0  0  0  0  0  0  0  0
   56.2327   -4.9038   -2.3376 N   0  0  0  0  0  0  0  0  0  0  0  0
   57.5082   -4.3646   -1.9282 C   0  0  0  0  0  0  0  0  0  0  0  0
   55.5821   -5.6029   -1.2299 C   0  0  0  0  0  0  0  0  0  0  0  0
 27 28  1  0  0  0
 28 21  1  0  0  0
 21 22  2  0  0  0
 22 23  1  0  0  0
 23 24  2  0  0  0
 24 19  1  0  0  0
 19  1  1  0  0  0
  1  2  2  0  0  0
  2  3  1  0  0  0
  3  4  2  0  0  0
  4  5  1  0  0  0
  5  6  1  0  0  0
  6  7  2  0  0  0
  6  8  1  0  0  0
  8  9  1  0  0  0
  9 10  2  0  0  0
 10 11  1  0  0  0
 11 12  1  0  0  0
 11 13  2  0  0  0
 13 14  1  0  0  0
 14 15  2  0  0  0
 15 16  1  0  0  0
 16 17  2  0  0  0
 24 25  1  0  0  0
 25 26  2  0  0  0
 26 29  1  0  0  0
 29 30  1  0  0  0
 30 31  1  0  0  0
 31 32  1  0  0  0
 32 33  1  0  0  0
 32 34  1  0  0  0
 26 21  1  0  0  0
 17  1  1  0  0  0
 16  4  1  0  0  0
 15  9  1  0  0  0
 19 20  1  0  0  0
  8 18  1  0  0  0
M  END
> <minimizedAffinity>
-9.06322

> <CNNscore>
0.5614334941

> <CNNaffinity>
8.0269451141

> <CNN_VS>
4.5065956116

> <CNNaffinity_variance>
0.2385649234

$$$$
[H]c1nc(N([H])c2c([H])c([H])c(OC([H])([H])[H])c(C([H])([H])C([H])([H])C([H])([H])N(C([H])([H])[H])C([H])([H])[H])c2[H])nc2c1C([H])([H])C(=S)N([H])c1c([H])c(Cl)c([H])c([H])c1-2


 34 37  0  0  0  0  0  0  0  0999 V2000
   54.9389   -4.3400   -8.9333 C   0  0  0  0  0  0  0  0  0  0  0  0
   54.3307   -3.2913   -9.4791 N   0  0  0  0  0  0  0  0  0  0  0  0
   53.2007   -2.7184   -9.0312 C   0  0  0  0  0  0  0  0  0  0  0  0
   52.5783   -3.2345   -7.9006 C   0  0  0  0  0  0  0  0  0  0  0  0
   51.3508   -2.4701   -7.5637 C   0  0  0  0  0  0  0  0  0  0  0  0
   50.2608   -3.2854   -7.0277 C   0  0  0  0  0  0  0  0  0  0  0  0
   48.7722   -2.9240   -7.5828 S   0  0  0  0  0  0  0  0  0  0  0  0
   50.3292   -4.3456   -6.0902 N   0  0  0  0  0  0  0  0  0  0  0  0
   51.4567   -5.0408   -5.5769 C   0  0  0  0  0  0  0  0  0  0  0  0
   51.2053   -5.7723   -4.4357 C   0  0  0  0  0  0  0  0  0  0  0  0
   52.2042   -6.4841   -3.8436 C   0  0  0  0  0  0  0  0  0  0  0  0
   51.8601   -7.4031   -2.3981 Cl  0  0  0  0  0  0  0  0  0  0  0  0
   53.4772   -6.4626   -4.4047 C   0  0  0  0  0  0  0  0  0  0  0  0
   53.7349   -5.7367   -5.5405 C   0  0  0  0  0  0  0  0  0  0  0  0
   52.7159   -5.0210   -6.1297 C   0  0  0  0  0  0  0  0  0  0  0  0
   53.1943   -4.3189   -7.3241 C   0  0  0  0  0  0  0  0  0  0  0  0
   54.3235   -4.8462   -7.8196 N   0  0  0  0  0  0  0  0  0  0  0  0
   49.4138   -4.6662   -5.7186 H   0  0  0  0  0  0  0  0  0  0  0  0
   56.1272   -4.9398   -9.4072 N   0  0  0  0  0  0  0  0  0  0  0  0
   56.5640   -5.7014   -8.7687 H   0  0  0  0  0  0  0  0  0  0  0  0
   58.3144   -4.0833  -12.9429 C   0  0  0  0  0  0  0  0  0  0  0  0
   58.9317   -4.2429  -11.7210 C   0  0  0  0  0  0  0  0  0  0  0  0
   58.2181   -4.5260  -10.5872 C   0  0  0  0  0  0  0  0  0  0  0  0
   56.8176   -4.6701  -10.6031 C   0  0  0  0  0  0  0  0  0  0  0  0
   56.2284   -4.5079  -11.8244 C   0  0  0  0  0  0  0  0  0  0  0  0
   56.9520   -4.2173  -13.0005 C   0  0  0  0  0  0  0  0  0  0  0  0
   60.3642   -3.3241  -14.0673 C   0  0  0  0  0  0  0  0  0  0  0  0
   59.0522   -3.7880  -14.0881 O   0  0  0  0  0  0  0  0  0  0  0  0
   56.1538   -4.1348  -14.2337 C   0  0  0  0  0  0  0  0  0  0  0  0
   56.7962   -3.2883  -15.2778 C   0  0  0  0  0  0  0  0  0  0  0  0
   56.3521   -3.5911  -16.6555 C   0  0  0  0  0  0  0  0  0  0  0  0
   57.4834   -3.3837  -17.6054 N   0  0  0  0  0  0  0  0  0  0  0  0
   58.2412   -4.6122  -17.6478 C   0  0  0  0  0  0  0  0  0  0  0  0
   58.3083   -2.2785  -17.1185 C   0  0  0  0  0  0  0  0  0  0  0  0
 27 28  1  0  0  0
 28 21  1  0  0  0
 21 22  2  0  0  0
 22 23  1  0  0  0
 23 24  2  0  0  0
 24 19  1  0  0  0
 19  1  1  0  0  0
  1  2  2  0  0  0
  2  3  1  0  0  0
  3  4  2  0  0  0
  4  5  1  0  0  0
  5  6  1  0  0  0
  6  7  2  0  0  0
  6  8  1  0  0  0
  8  9  1  0  0  0
  9 10  2  0  0  0
 10 11  1  0  0  0
 11 12  1  0  0  0
 11 13  2  0  0  0
 13 14  1  0  0  0
 14 15  2  0  0  0
 15 16  1  0  0  0
 16 17  2  0  0  0
 24 25  1  0  0  0
 25 26  2  0  0  0
 26 29  1  0  0  0
 29 30  1  0  0  0
 30 31  1  0  0  0
 31 32  1  0  0  0
 32 33  1  0  0  0
 32 34  1  0  0  0
 26 21  1  0  0  0
 17  1  1  0  0  0
 16  4  1  0  0  0
 15  9  1  0  0  0
 19 20  1  0  0  0
  8 18  1  0  0  0
M  END
> <minimizedAffinity>
-7.57706

> <CNNscore>
0.3560996950

> <CNNaffinity>
6.9956579208

> <CNN_VS>
2.4911515713

> <CNNaffinity_variance>
0.0506399870

$$$$
[H]c1nc(N([H])c2c([H])c([H])c(OC([H])([H])[H])c(C([H])([H])C([H])([H])C([H])([H])N(C([H])([H])[H])C([H])([H])[H])c2[H])nc2c1C([H])([H])C(=S)N([H])c1c([H])c(Cl)c([H])c([H])c1-2


 34 37  0  0  0  0  0  0  0  0999 V2000
   53.9378   -4.7089   -8.2566 C   0  0  0  0  0  0  0  0  0  0  0  0
   54.6516   -4.9254   -7.1560 N   0  0  0  0  0  0  0  0  0  0  0  0
   55.9927   -4.9740   -7.0872 C   0  0  0  0  0  0  0  0  0  0  0  0
   56.7405   -4.7869   -8.2439 C   0  0  0  0  0  0  0  0  0  0  0  0
   58.1963   -4.8753   -7.9658 C   0  0  0  0  0  0  0  0  0  0  0  0
   58.9778   -5.4963   -9.0353 C   0  0  0  0  0  0  0  0  0  0  0  0
   60.1387   -6.5313   -8.5495 S   0  0  0  0  0  0  0  0  0  0  0  0
   58.8589   -5.3155  -10.4356 N   0  0  0  0  0  0  0  0  0  0  0  0
   57.8455   -4.6667  -11.1909 C   0  0  0  0  0  0  0  0  0  0  0  0
   58.2035   -4.3685  -12.4883 C   0  0  0  0  0  0  0  0  0  0  0  0
   57.3206   -3.7448  -13.3170 C   0  0  0  0  0  0  0  0  0  0  0  0
   57.7982   -3.3776  -14.9569 Cl  0  0  0  0  0  0  0  0  0  0  0  0
   56.0572   -3.4141  -12.8373 C   0  0  0  0  0  0  0  0  0  0  0  0
   55.6939   -3.7079  -11.5468 C   0  0  0  0  0  0  0  0  0  0  0  0
   56.5961   -4.3389  -10.7188 C   0  0  0  0  0  0  0  0  0  0  0  0
   56.0177   -4.5618   -9.3906 C   0  0  0  0  0  0  0  0  0  0  0  0
   54.6772   -4.5248   -9.3944 N   0  0  0  0  0  0  0  0  0  0  0  0
   59.6317   -5.7192  -11.0002 H   0  0  0  0  0  0  0  0  0  0  0  0
   52.5274   -4.6585   -8.3251 N   0  0  0  0  0  0  0  0  0  0  0  0
   52.0865   -4.9352   -9.2777 H   0  0  0  0  0  0  0  0  0  0  0  0
   49.7945   -3.4242   -5.3208 C   0  0  0  0  0  0  0  0  0  0  0  0
   49.9550   -2.7236   -6.4968 C   0  0  0  0  0  0  0  0  0  0  0  0
   50.8343   -3.1336   -7.4630 C   0  0  0  0  0  0  0  0  0  0  0  0
   51.6226   -4.2905   -7.3125 C   0  0  0  0  0  0  0  0  0  0  0  0
   51.4461   -4.9681   -6.1400 C   0  0  0  0  0  0  0  0  0  0  0  0
   50.5428   -4.5571   -5.1369 C   0  0  0  0  0  0  0  0  0  0  0  0
   47.5648   -2.6916   -4.5899 C   0  0  0  0  0  0  0  0  0  0  0  0
   48.9011   -2.9915   -4.3422 O   0  0  0  0  0  0  0  0  0  0  0  0
   50.4456   -5.4442   -3.9671 C   0  0  0  0  0  0  0  0  0  0  0  0
   51.6697   -6.2700   -3.7695 C   0  0  0  0  0  0  0  0  0  0  0  0
   52.6482   -5.6807   -2.8301 C   0  0  0  0  0  0  0  0  0  0  0  0
   53.9862   -5.5980   -3.4842 N   0  0  0  0  0  0  0  0  0  0  0  0
   54.2231   -6.8616   -4.1420 C   0  0  0  0  0  0  0  0  0  0  0  0
   54.9962   -5.3475   -2.4565 C   0  0  0  0  0  0  0  0  0  0  0  0
 27 28  1  0  0  0
 28 21  1  0  0  0
 21 22  2  0  0  0
 22 23  1  0  0  0
 23 24  2  0  0  0
 24 19  1  0  0  0
 19  1  1  0  0  0
  1  2  2  0  0  0
  2  3  1  0  0  0
  3  4  2  0  0  0
  4  5  1  0  0  0
  5  6  1  0  0  0
  6  7  2  0  0  0
  6  8  1  0  0  0
  8  9  1  0  0  0
  9 10  2  0  0  0
 10 11  1  0  0  0
 11 12  1  0  0  0
 11 13  2  0  0  0
 13 14  1  0  0  0
 14 15  2  0  0  0
 15 16  1  0  0  0
 16 17  2  0  0  0
 24 25  1  0  0  0
 25 26  2  0  0  0
 26 29  1  0  0  0
 29 30  1  0  0  0
 30 31  1  0  0  0
 31 32  1  0  0  0
 32 33  1  0  0  0
 32 34  1  0  0  0
 26 21  1  0  0  0
 17  1  1  0  0  0
 16  4  1  0  0  0
 15  9  1  0  0  0
 19 20  1  0  0  0
  8 18  1  0  0  0
M  END
> <minimizedAffinity>
-8.86687

> <CNNscore>
0.3487058580

> <CNNaffinity>
7.3833847046

> <CNN_VS>
2.5746295452

> <CNNaffinity_variance>
0.1019767970

$$$$
[H]c1nc(N([H])c2c([H])c([H])c(OC([H])([H])[H])c(C([H])([H])C([H])([H])C([H])([H])N(C([H])([H])[H])C([H])([H])[H])c2[H])nc2c1C([H])([H])C(=S)N([H])c1c([H])c(Cl)c([H])c([H])c1-2


 34 37  0  0  0  0  0  0  0  0999 V2000
   54.8656   -4.5105   -8.5443 C   0  0  0  0  0  0  0  0  0  0  0  0
   54.3180   -3.4858   -9.1907 N   0  0  0  0  0  0  0  0  0  0  0  0
   53.1658   -2.8768   -8.8636 C   0  0  0  0  0  0  0  0  0  0  0  0
   52.4494   -3.3240   -7.7596 C   0  0  0  0  0  0  0  0  0  0  0  0
   51.2116   -2.5285   -7.5609 C   0  0  0  0  0  0  0  0  0  0  0  0
   50.0707   -3.3013   -7.0696 C   0  0  0  0  0  0  0  0  0  0  0  0
   48.6355   -2.9532   -7.7580 S   0  0  0  0  0  0  0  0  0  0  0  0
   50.0495   -4.3101   -6.0749 N   0  0  0  0  0  0  0  0  0  0  0  0
   51.1228   -4.9894   -5.4388 C   0  0  0  0  0  0  0  0  0  0  0  0
   50.7721   -5.6554   -4.2838 C   0  0  0  0  0  0  0  0  0  0  0  0
   51.7107   -6.3457   -3.5784 C   0  0  0  0  0  0  0  0  0  0  0  0
   51.2411   -7.1814   -2.1179 Cl  0  0  0  0  0  0  0  0  0  0  0  0
   53.0236   -6.3691   -4.0383 C   0  0  0  0  0  0  0  0  0  0  0  0
   53.3800   -5.7084   -5.1872 C   0  0  0  0  0  0  0  0  0  0  0  0
   52.4212   -5.0139   -5.8915 C   0  0  0  0  0  0  0  0  0  0  0  0
   53.0019   -4.3827   -7.0801 C   0  0  0  0  0  0  0  0  0  0  0  0
   54.1577   -4.9488   -7.4570 N   0  0  0  0  0  0  0  0  0  0  0  0
   49.1031   -4.5997   -5.7598 H   0  0  0  0  0  0  0  0  0  0  0  0
   56.0776   -5.1485   -8.8912 N   0  0  0  0  0  0  0  0  0  0  0  0
   56.3747   -5.9816   -8.2618 H   0  0  0  0  0  0  0  0  0  0  0  0
   58.6043   -4.1709  -12.1590 C   0  0  0  0  0  0  0  0  0  0  0  0
   57.3142   -3.6952  -12.0634 C   0  0  0  0  0  0  0  0  0  0  0  0
   56.5092   -4.0106  -11.0017 C   0  0  0  0  0  0  0  0  0  0  0  0
   56.9501   -4.8359   -9.9497 C   0  0  0  0  0  0  0  0  0  0  0  0
   58.2311   -5.2948  -10.0662 C   0  0  0  0  0  0  0  0  0  0  0  0
   59.0715   -4.9765  -11.1541 C   0  0  0  0  0  0  0  0  0  0  0  0
   58.9184   -3.4184  -14.4780 C   0  0  0  0  0  0  0  0  0  0  0  0
   59.4107   -3.8480  -13.2492 O   0  0  0  0  0  0  0  0  0  0  0  0
   60.4388   -5.5150  -11.0797 C   0  0  0  0  0  0  0  0  0  0  0  0
   60.6818   -6.2944   -9.8336 C   0  0  0  0  0  0  0  0  0  0  0  0
   61.9541   -7.0483   -9.8337 C   0  0  0  0  0  0  0  0  0  0  0  0
   61.8388   -8.2291  -10.7379 N   0  0  0  0  0  0  0  0  0  0  0  0
   61.7881   -9.4070   -9.9040 C   0  0  0  0  0  0  0  0  0  0  0  0
   63.0069   -8.2625  -11.6173 C   0  0  0  0  0  0  0  0  0  0  0  0
 27 28  1  0  0  0
 28 21  1  0  0  0
 21 22  2  0  0  0
 22 23  1  0  0  0
 23 24  2  0  0  0
 24 19  1  0  0  0
 19  1  1  0  0  0
  1  2  2  0  0  0
  2  3  1  0  0  0
  3  4  2  0  0  0
  4  5  1  0  0  0
  5  6  1  0  0  0
  6  7  2  0  0  0
  6  8  1  0  0  0
  8  9  1  0  0  0
  9 10  2  0  0  0
 10 11  1  0  0  0
 11 12  1  0  0  0
 11 13  2  0  0  0
 13 14  1  0  0  0
 14 15  2  0  0  0
 15 16  1  0  0  0
 16 17  2  0  0  0
 24 25  1  0  0  0
 25 26  2  0  0  0
 26 29  1  0  0  0
 29 30  1  0  0  0
 30 31  1  0  0  0
 31 32  1  0  0  0
 32 33  1  0  0  0
 32 34  1  0  0  0
 26 21  1  0  0  0
 17  1  1  0  0  0
 16  4  1  0  0  0
 15  9  1  0  0  0
 19 20  1  0  0  0
  8 18  1  0  0  0
M  END
> <minimizedAffinity>
-6.73940

> <CNNscore>
0.3265130222

> <CNNaffinity>
6.9368200302

> <CNN_VS>
2.2649619579

> <CNNaffinity_variance>
0.1607040167

$$$$
[H]c1nc(N([H])c2c([H])c([H])c(OC([H])([H])[H])c(C([H])([H])C([H])([H])C([H])([H])N(C([H])([H])[H])C([H])([H])[H])c2[H])nc2c1C([H])([H])C(=S)N([H])c1c([H])c(Cl)c([H])c([H])c1-2


 34 37  0  0  0  0  0  0  0  0999 V2000
   56.0760   -4.4364   -9.7024 C   0  0  0  0  0  0  0  0  0  0  0  0
   54.9876   -3.7598  -10.0564 N   0  0  0  0  0  0  0  0  0  0  0  0
   53.8589   -3.6555   -9.3348 C   0  0  0  0  0  0  0  0  0  0  0  0
   53.7772   -4.2950   -8.1034 C   0  0  0  0  0  0  0  0  0  0  0  0
   52.4591   -4.0625   -7.4607 C   0  0  0  0  0  0  0  0  0  0  0  0
   51.9480   -5.2048   -6.7030 C   0  0  0  0  0  0  0  0  0  0  0  0
   50.3564   -5.5087   -6.8750 S   0  0  0  0  0  0  0  0  0  0  0  0
   52.6534   -6.0794   -5.8399 N   0  0  0  0  0  0  0  0  0  0  0  0
   54.0508   -6.2278   -5.6316 C   0  0  0  0  0  0  0  0  0  0  0  0
   54.3871   -6.9152   -4.4849 C   0  0  0  0  0  0  0  0  0  0  0  0
   55.6955   -7.1245   -4.1698 C   0  0  0  0  0  0  0  0  0  0  0  0
   56.0957   -7.9985   -2.7109 Cl  0  0  0  0  0  0  0  0  0  0  0  0
   56.6842   -6.6365   -5.0183 C   0  0  0  0  0  0  0  0  0  0  0  0
   56.3569   -5.9513   -6.1615 C   0  0  0  0  0  0  0  0  0  0  0  0
   55.0298   -5.7463   -6.4689 C   0  0  0  0  0  0  0  0  0  0  0  0
   54.8941   -4.9989   -7.7224 C   0  0  0  0  0  0  0  0  0  0  0  0
   55.9927   -5.0652   -8.4887 N   0  0  0  0  0  0  0  0  0  0  0  0
   52.0586   -6.7116   -5.2693 H   0  0  0  0  0  0  0  0  0  0  0  0
   57.2613   -4.5438  -10.4640 N   0  0  0  0  0  0  0  0  0  0  0  0
   58.1279   -4.9394   -9.9434 H   0  0  0  0  0  0  0  0  0  0  0  0
   57.7429   -3.5604  -14.5651 C   0  0  0  0  0  0  0  0  0  0  0  0
   56.5154   -3.8867  -14.0299 C   0  0  0  0  0  0  0  0  0  0  0  0
   56.3690   -4.1957  -12.7040 C   0  0  0  0  0  0  0  0  0  0  0  0
   57.4594   -4.1982  -11.8133 C   0  0  0  0  0  0  0  0  0  0  0  0
   58.6648   -3.8717  -12.3661 C   0  0  0  0  0  0  0  0  0  0  0  0
   58.8291   -3.5501  -13.7301 C   0  0  0  0  0  0  0  0  0  0  0  0
   57.3303   -4.0182  -16.9447 C   0  0  0  0  0  0  0  0  0  0  0  0
   57.8790   -3.2551  -15.9183 O   0  0  0  0  0  0  0  0  0  0  0  0
   60.1916   -3.1678  -14.1332 C   0  0  0  0  0  0  0  0  0  0  0  0
   61.2147   -4.1687  -13.7198 C   0  0  0  0  0  0  0  0  0  0  0  0
   62.5738   -3.8860  -14.2298 C   0  0  0  0  0  0  0  0  0  0  0  0
   62.6247   -2.5027  -14.7854 N   0  0  0  0  0  0  0  0  0  0  0  0
   63.1788   -2.5930  -16.1160 C   0  0  0  0  0  0  0  0  0  0  0  0
   63.4724   -1.6811  -13.9221 C   0  0  0  0  0  0  0  0  0  0  0  0
 27 28  1  0  0  0
 28 21  1  0  0  0
 21 22  2  0  0  0
 22 23  1  0  0  0
 23 24  2  0  0  0
 24 19  1  0  0  0
 19  1  1  0  0  0
  1  2  2  0  0  0
  2  3  1  0  0  0
  3  4  2  0  0  0
  4  5  1  0  0  0
  5  6  1  0  0  0
  6  7  2  0  0  0
  6  8  1  0  0  0
  8  9  1  0  0  0
  9 10  2  0  0  0
 10 11  1  0  0  0
 11 12  1  0  0  0
 11 13  2  0  0  0
 13 14  1  0  0  0
 14 15  2  0  0  0
 15 16  1  0  0  0
 16 17  2  0  0  0
 24 25  1  0  0  0
 25 26  2  0  0  0
 26 29  1  0  0  0
 29 30  1  0  0  0
 30 31  1  0  0  0
 31 32  1  0  0  0
 32 33  1  0  0  0
 32 34  1  0  0  0
 26 21  1  0  0  0
 17  1  1  0  0  0
 16  4  1  0  0  0
 15  9  1  0  0  0
 19 20  1  0  0  0
  8 18  1  0  0  0
M  END
> <minimizedAffinity>
-7.97304

> <CNNscore>
0.3263475299

> <CNNaffinity>
6.8402204514

> <CNN_VS>
2.2322890759

> <CNNaffinity_variance>
0.0745477304

$$$$
[H]c1nc(N([H])c2c([H])c([H])c(C(F)(F)F)c(C([H])([H])C([H])([H])C([H])([H])N(C([H])([H])[H])C([H])([H])[H])c2[H])nc2c1C([H])([H])C(=S)N([H])c1c([H])c(Cl)c([H])c([H])c1-2


 36 39  0  0  0  0  0  0  0  0999 V2000
   54.7619   -3.1047   -8.9807 N   0  0  0  0  0  0  0  0  0  0  0  0
   54.8006   -2.1117   -9.4388 H   0  0  0  0  0  0  0  0  0  0  0  0
   53.5885   -3.4182   -8.3409 C   0  0  0  0  0  0  0  0  0  0  0  0
   52.4252   -2.9199   -8.8400 N   0  0  0  0  0  0  0  0  0  0  0  0
   51.2245   -3.1320   -8.3311 C   0  0  0  0  0  0  0  0  0  0  0  0
   51.1069   -3.9220   -7.1982 C   0  0  0  0  0  0  0  0  0  0  0  0
   49.6700   -4.0414   -6.7659 C   0  0  0  0  0  0  0  0  0  0  0  0
   49.5763   -3.8557   -5.3025 C   0  0  0  0  0  0  0  0  0  0  0  0
   48.6452   -2.6664   -4.6946 S   0  0  0  0  0  0  0  0  0  0  0  0
   50.2550   -4.6559   -4.3252 N   0  0  0  0  0  0  0  0  0  0  0  0
   51.4816   -5.3621   -4.4492 C   0  0  0  0  0  0  0  0  0  0  0  0
   51.7774   -6.2127   -3.4133 C   0  0  0  0  0  0  0  0  0  0  0  0
   52.9412   -6.9715   -3.4020 C   0  0  0  0  0  0  0  0  0  0  0  0
   53.3135   -8.0531   -2.0737 Cl  0  0  0  0  0  0  0  0  0  0  0  0
   53.8524   -6.8884   -4.4560 C   0  0  0  0  0  0  0  0  0  0  0  0
   53.5540   -6.0376   -5.4908 C   0  0  0  0  0  0  0  0  0  0  0  0
   52.3972   -5.2854   -5.4963 C   0  0  0  0  0  0  0  0  0  0  0  0
   52.2715   -4.4385   -6.6759 C   0  0  0  0  0  0  0  0  0  0  0  0
   53.4743   -4.1743   -7.2581 N   0  0  0  0  0  0  0  0  0  0  0  0
   49.8096   -4.7497   -3.3919 H   0  0  0  0  0  0  0  0  0  0  0  0
   57.7240   -4.6898  -10.6548 C   0  0  0  0  0  0  0  0  0  0  0  0
   56.5217   -3.9839  -10.3991 C   0  0  0  0  0  0  0  0  0  0  0  0
   55.9559   -3.8617   -9.1506 C   0  0  0  0  0  0  0  0  0  0  0  0
   56.6380   -4.4792   -8.1391 C   0  0  0  0  0  0  0  0  0  0  0  0
   57.8085   -5.1721   -8.3712 C   0  0  0  0  0  0  0  0  0  0  0  0
   58.3824   -5.2922   -9.6530 C   0  0  0  0  0  0  0  0  0  0  0  0
   59.6540   -6.0677   -9.7575 C   0  0  0  0  0  0  0  0  0  0  0  0
   60.3986   -5.7941   -8.5614 F   0  0  0  0  0  0  0  0  0  0  0  0
   59.5366   -7.4027   -9.8207 F   0  0  0  0  0  0  0  0  0  0  0  0
   60.5454   -5.4928  -10.6823 F   0  0  0  0  0  0  0  0  0  0  0  0
   58.1385   -4.5921  -12.0804 C   0  0  0  0  0  0  0  0  0  0  0  0
   57.0161   -4.5482  -13.0608 C   0  0  0  0  0  0  0  0  0  0  0  0
   56.9336   -3.6309  -14.1669 C   0  0  0  0  0  0  0  0  0  0  0  0
   58.5666   -3.1113  -15.7850 C   0  0  0  0  0  0  0  0  0  0  0  0
   57.4098   -4.0318  -15.4725 N   0  0  0  0  0  0  0  0  0  0  0  0
   56.4919   -3.8339  -16.5766 C   0  0  0  0  0  0  0  0  0  0  0  0
 34 35  1  0  0  0
 35 36  1  0  0  0
 35 33  1  0  0  0
 33 32  1  0  0  0
 32 31  1  0  0  0
 31 21  1  0  0  0
 21 22  2  0  0  0
 22 23  1  0  0  0
 23  1  1  0  0  0
  1  3  1  0  0  0
  3  4  2  0  0  0
  4  5  1  0  0  0
  5  6  2  0  0  0
  6  7  1  0  0  0
  7  8  1  0  0  0
  8  9  2  0  0  0
  8 10  1  0  0  0
 10 11  1  0  0  0
 11 12  2  0  0  0
 12 13  1  0  0  0
 13 14  1  0  0  0
 13 15  2  0  0  0
 15 16  1  0  0  0
 16 17  2  0  0  0
 17 18  1  0  0  0
 18 19  2  0  0  0
 23 24  2  0  0  0
 24 25  1  0  0  0
 25 26  2  0  0  0
 26 27  1  0  0  0
 27 28  1  0  0  0
 27 29  1  0  0  0
 27 30  1  0  0  0
 26 21  1  0  0  0
 19  3  1  0  0  0
 18  6  1  0  0  0
 17 11  1  0  0  0
  1  2  1  0  0  0
 10 20  1  0  0  0
M  END
> <minimizedAffinity>
-9.77086

> <CNNscore>
0.7729243040

> <CNNaffinity>
7.9465575218

> <CNN_VS>
6.1420874596

> <CNNaffinity_variance>
0.0745470524

$$$$
[H]c1nc(N([H])c2c([H])c([H])c(C(F)(F)F)c(C([H])([H])C([H])([H])C([H])([H])N(C([H])([H])[H])C([H])([H])[H])c2[H])nc2c1C([H])([H])C(=S)N([H])c1c([H])c(Cl)c([H])c([H])c1-2


 36 39  0  0  0  0  0  0  0  0999 V2000
   54.5701   -2.8258   -9.1919 N   0  0  0  0  0  0  0  0  0  0  0  0
   54.6229   -1.8290   -9.6404 H   0  0  0  0  0  0  0  0  0  0  0  0
   53.3907   -3.1302   -8.5585 C   0  0  0  0  0  0  0  0  0  0  0  0
   52.2414   -2.5722   -9.0259 N   0  0  0  0  0  0  0  0  0  0  0  0
   51.0374   -2.7686   -8.5185 C   0  0  0  0  0  0  0  0  0  0  0  0
   50.9007   -3.6056   -7.4221 C   0  0  0  0  0  0  0  0  0  0  0  0
   49.4632   -3.6982   -6.9853 C   0  0  0  0  0  0  0  0  0  0  0  0
   49.3840   -3.5770   -5.5143 C   0  0  0  0  0  0  0  0  0  0  0  0
   48.4958   -2.3874   -4.8459 S   0  0  0  0  0  0  0  0  0  0  0  0
   50.0420   -4.4428   -4.5796 N   0  0  0  0  0  0  0  0  0  0  0  0
   51.2441   -5.1818   -4.7446 C   0  0  0  0  0  0  0  0  0  0  0  0
   51.5180   -6.0882   -3.7508 C   0  0  0  0  0  0  0  0  0  0  0  0
   52.6565   -6.8840   -3.7828 C   0  0  0  0  0  0  0  0  0  0  0  0
   53.0010   -8.0369   -2.5080 Cl  0  0  0  0  0  0  0  0  0  0  0  0
   53.5638   -6.7820   -4.8385 C   0  0  0  0  0  0  0  0  0  0  0  0
   53.2873   -5.8753   -5.8311 C   0  0  0  0  0  0  0  0  0  0  0  0
   52.1556   -5.0867   -5.7938 C   0  0  0  0  0  0  0  0  0  0  0  0
   52.0508   -4.1829   -6.9325 C   0  0  0  0  0  0  0  0  0  0  0  0
   53.2583   -3.9313   -7.5106 N   0  0  0  0  0  0  0  0  0  0  0  0
   49.5992   -4.5650   -3.6483 H   0  0  0  0  0  0  0  0  0  0  0  0
   57.4847   -5.0446   -8.3730 C   0  0  0  0  0  0  0  0  0  0  0  0
   56.3262   -4.2324   -8.2870 C   0  0  0  0  0  0  0  0  0  0  0  0
   55.7548   -3.5964   -9.3654 C   0  0  0  0  0  0  0  0  0  0  0  0
   56.3866   -3.7965  -10.5614 C   0  0  0  0  0  0  0  0  0  0  0  0
   57.5162   -4.5825  -10.6622 C   0  0  0  0  0  0  0  0  0  0  0  0
   58.0953   -5.2314   -9.5529 C   0  0  0  0  0  0  0  0  0  0  0  0
   59.3149   -6.0540   -9.8083 C   0  0  0  0  0  0  0  0  0  0  0  0
   60.2175   -5.7941   -8.7232 F   0  0  0  0  0  0  0  0  0  0  0  0
   59.1440   -7.3845   -9.8343 F   0  0  0  0  0  0  0  0  0  0  0  0
   60.0982   -5.5227  -10.8498 F   0  0  0  0  0  0  0  0  0  0  0  0
   57.8324   -5.6645   -7.0660 C   0  0  0  0  0  0  0  0  0  0  0  0
   56.7041   -5.7645   -6.0966 C   0  0  0  0  0  0  0  0  0  0  0  0
   56.7438   -6.5210   -4.8727 C   0  0  0  0  0  0  0  0  0  0  0  0
   56.4364   -6.8220   -2.5554 C   0  0  0  0  0  0  0  0  0  0  0  0
   56.8910   -5.8367   -3.6070 N   0  0  0  0  0  0  0  0  0  0  0  0
   56.0397   -4.6818   -3.4014 C   0  0  0  0  0  0  0  0  0  0  0  0
 34 35  1  0  0  0
 35 36  1  0  0  0
 35 33  1  0  0  0
 33 32  1  0  0  0
 32 31  1  0  0  0
 31 21  1  0  0  0
 21 22  2  0  0  0
 22 23  1  0  0  0
 23  1  1  0  0  0
  1  3  1  0  0  0
  3  4  2  0  0  0
  4  5  1  0  0  0
  5  6  2  0  0  0
  6  7  1  0  0  0
  7  8  1  0  0  0
  8  9  2  0  0  0
  8 10  1  0  0  0
 10 11  1  0  0  0
 11 12  2  0  0  0
 12 13  1  0  0  0
 13 14  1  0  0  0
 13 15  2  0  0  0
 15 16  1  0  0  0
 16 17  2  0  0  0
 17 18  1  0  0  0
 18 19  2  0  0  0
 23 24  2  0  0  0
 24 25  1  0  0  0
 25 26  2  0  0  0
 26 27  1  0  0  0
 27 28  1  0  0  0
 27 29  1  0  0  0
 27 30  1  0  0  0
 26 21  1  0  0  0
 19  3  1  0  0  0
 18  6  1  0  0  0
 17 11  1  0  0  0
  1  2  1  0  0  0
 10 20  1  0  0  0
M  END
> <minimizedAffinity>
-8.36902

> <CNNscore>
0.7139399648

> <CNNaffinity>
8.0702161789

> <CNN_VS>
5.7616500854

> <CNNaffinity_variance>
0.2437579334

$$$$
[H]c1nc(N([H])c2c([H])c([H])c(C(F)(F)F)c(C([H])([H])C([H])([H])C([H])([H])N(C([H])([H])[H])C([H])([H])[H])c2[H])nc2c1C([H])([H])C(=S)N([H])c1c([H])c(Cl)c([H])c([H])c1-2


 36 39  0  0  0  0  0  0  0  0999 V2000
   52.9563   -2.9564   -8.8877 N   0  0  0  0  0  0  0  0  0  0  0  0
   52.7623   -2.1382   -9.5879 H   0  0  0  0  0  0  0  0  0  0  0  0
   54.1103   -3.6663   -9.1090 C   0  0  0  0  0  0  0  0  0  0  0  0
   54.5490   -4.5095   -8.1357 N   0  0  0  0  0  0  0  0  0  0  0  0
   55.6400   -5.2517   -8.2049 C   0  0  0  0  0  0  0  0  0  0  0  0
   56.4215   -5.1891   -9.3479 C   0  0  0  0  0  0  0  0  0  0  0  0
   57.6188   -6.0949   -9.2376 C   0  0  0  0  0  0  0  0  0  0  0  0
   58.8250   -5.3801   -9.7054 C   0  0  0  0  0  0  0  0  0  0  0  0
   60.0943   -5.1907   -8.7034 S   0  0  0  0  0  0  0  0  0  0  0  0
   58.9922   -4.8133  -11.0119 N   0  0  0  0  0  0  0  0  0  0  0  0
   58.0005   -4.3205  -11.9020 C   0  0  0  0  0  0  0  0  0  0  0  0
   58.4402   -4.0309  -13.1697 C   0  0  0  0  0  0  0  0  0  0  0  0
   57.5802   -3.5459  -14.1472 C   0  0  0  0  0  0  0  0  0  0  0  0
   58.1501   -3.1754  -15.7630 Cl  0  0  0  0  0  0  0  0  0  0  0  0
   56.2296   -3.3368  -13.8633 C   0  0  0  0  0  0  0  0  0  0  0  0
   55.7925   -3.6276  -12.5952 C   0  0  0  0  0  0  0  0  0  0  0  0
   56.6513   -4.1081  -11.6280 C   0  0  0  0  0  0  0  0  0  0  0  0
   55.9962   -4.3429  -10.3473 C   0  0  0  0  0  0  0  0  0  0  0  0
   54.8582   -3.6083  -10.2019 N   0  0  0  0  0  0  0  0  0  0  0  0
   59.9599   -4.7437  -11.3821 H   0  0  0  0  0  0  0  0  0  0  0  0
   51.0696   -4.3779   -5.9707 C   0  0  0  0  0  0  0  0  0  0  0  0
   52.0060   -4.1678   -7.0140 C   0  0  0  0  0  0  0  0  0  0  0  0
   51.9526   -3.1070   -7.8890 C   0  0  0  0  0  0  0  0  0  0  0  0
   50.9134   -2.2405   -7.6911 C   0  0  0  0  0  0  0  0  0  0  0  0
   49.9923   -2.4315   -6.6817 C   0  0  0  0  0  0  0  0  0  0  0  0
   50.0540   -3.5204   -5.7888 C   0  0  0  0  0  0  0  0  0  0  0  0
   48.9928   -3.6004   -4.7415 C   0  0  0  0  0  0  0  0  0  0  0  0
   49.6342   -3.3222   -3.4881 F   0  0  0  0  0  0  0  0  0  0  0  0
   47.9853   -2.7203   -4.8428 F   0  0  0  0  0  0  0  0  0  0  0  0
   48.6128   -4.9299   -4.4793 F   0  0  0  0  0  0  0  0  0  0  0  0
   51.4169   -5.5596   -5.1361 C   0  0  0  0  0  0  0  0  0  0  0  0
   52.8592   -5.9367   -5.1478 C   0  0  0  0  0  0  0  0  0  0  0  0
   53.6318   -6.2462   -3.9735 C   0  0  0  0  0  0  0  0  0  0  0  0
   54.9640   -7.3813   -5.5520 C   0  0  0  0  0  0  0  0  0  0  0  0
   54.8771   -6.9709   -4.1004 N   0  0  0  0  0  0  0  0  0  0  0  0
   54.9664   -8.2214   -3.3731 C   0  0  0  0  0  0  0  0  0  0  0  0
 34 35  1  0  0  0
 35 36  1  0  0  0
 35 33  1  0  0  0
 33 32  1  0  0  0
 32 31  1  0  0  0
 31 21  1  0  0  0
 21 22  2  0  0  0
 22 23  1  0  0  0
 23  1  1  0  0  0
  1  3  1  0  0  0
  3  4  2  0  0  0
  4  5  1  0  0  0
  5  6  2  0  0  0
  6  7  1  0  0  0
  7  8  1  0  0  0
  8  9  2  0  0  0
  8 10  1  0  0  0
 10 11  1  0  0  0
 11 12  2  0  0  0
 12 13  1  0  0  0
 13 14  1  0  0  0
 13 15  2  0  0  0
 15 16  1  0  0  0
 16 17  2  0  0  0
 17 18  1  0  0  0
 18 19  2  0  0  0
 23 24  2  0  0  0
 24 25  1  0  0  0
 25 26  2  0  0  0
 26 27  1  0  0  0
 27 28  1  0  0  0
 27 29  1  0  0  0
 27 30  1  0  0  0
 26 21  1  0  0  0
 19  3  1  0  0  0
 18  6  1  0  0  0
 17 11  1  0  0  0
  1  2  1  0  0  0
 10 20  1  0  0  0
M  END
> <minimizedAffinity>
-7.59972

> <CNNscore>
0.5036204457

> <CNNaffinity>
7.5103583336

> <CNN_VS>
3.7823700905

> <CNNaffinity_variance>
0.1351918131

$$$$
[H]c1nc(N([H])c2c([H])c([H])c(C(F)(F)F)c(C([H])([H])C([H])([H])C([H])([H])N(C([H])([H])[H])C([H])([H])[H])c2[H])nc2c1C([H])([H])C(=S)N([H])c1c([H])c(Cl)c([H])c([H])c1-2


 36 39  0  0  0  0  0  0  0  0999 V2000
   54.9638   -2.9248   -9.3464 N   0  0  0  0  0  0  0  0  0  0  0  0
   55.0709   -1.9082   -9.7370 H   0  0  0  0  0  0  0  0  0  0  0  0
   56.0359   -3.7567   -9.5539 C   0  0  0  0  0  0  0  0  0  0  0  0
   56.2831   -4.7350   -8.6415 N   0  0  0  0  0  0  0  0  0  0  0  0
   57.2760   -5.6043   -8.7059 C   0  0  0  0  0  0  0  0  0  0  0  0
   58.1534   -5.5411   -9.7771 C   0  0  0  0  0  0  0  0  0  0  0  0
   59.2159   -6.6023   -9.6722 C   0  0  0  0  0  0  0  0  0  0  0  0
   60.5365   -6.0122   -9.9769 C   0  0  0  0  0  0  0  0  0  0  0  0
   61.7299   -6.0825   -8.8715 S   0  0  0  0  0  0  0  0  0  0  0  0
   60.8825   -5.3559  -11.2039 N   0  0  0  0  0  0  0  0  0  0  0  0
   60.0383   -4.6587  -12.1093 C   0  0  0  0  0  0  0  0  0  0  0  0
   60.6163   -4.3153  -13.3061 C   0  0  0  0  0  0  0  0  0  0  0  0
   59.9087   -3.6350  -14.2894 C   0  0  0  0  0  0  0  0  0  0  0  0
   60.6549   -3.1972  -15.8140 Cl  0  0  0  0  0  0  0  0  0  0  0  0
   58.5751   -3.2775  -14.0846 C   0  0  0  0  0  0  0  0  0  0  0  0
   57.9995   -3.6224  -12.8873 C   0  0  0  0  0  0  0  0  0  0  0  0
   58.7073   -4.2971  -11.9138 C   0  0  0  0  0  0  0  0  0  0  0  0
   57.9220   -4.5593  -10.7142 C   0  0  0  0  0  0  0  0  0  0  0  0
   56.8752   -3.6983  -10.5784 N   0  0  0  0  0  0  0  0  0  0  0  0
   61.8793   -5.3804  -11.4941 H   0  0  0  0  0  0  0  0  0  0  0  0
   52.3349   -4.6163   -7.2688 C   0  0  0  0  0  0  0  0  0  0  0  0
   53.5296   -4.3126   -7.9684 C   0  0  0  0  0  0  0  0  0  0  0  0
   53.7166   -3.1633   -8.7021 C   0  0  0  0  0  0  0  0  0  0  0  0
   52.6527   -2.3046   -8.7205 C   0  0  0  0  0  0  0  0  0  0  0  0
   51.4820   -2.5860   -8.0467 C   0  0  0  0  0  0  0  0  0  0  0  0
   51.2982   -3.7652   -7.2965 C   0  0  0  0  0  0  0  0  0  0  0  0
   49.9810   -3.9378   -6.6150 C   0  0  0  0  0  0  0  0  0  0  0  0
   49.0882   -2.9802   -7.2032 F   0  0  0  0  0  0  0  0  0  0  0  0
   49.3860   -5.1318   -6.7575 F   0  0  0  0  0  0  0  0  0  0  0  0
   49.9945   -3.4192   -5.3067 F   0  0  0  0  0  0  0  0  0  0  0  0
   52.4426   -5.8866   -6.5017 C   0  0  0  0  0  0  0  0  0  0  0  0
   52.6725   -5.7205   -5.0380 C   0  0  0  0  0  0  0  0  0  0  0  0
   53.8892   -6.0776   -4.3570 C   0  0  0  0  0  0  0  0  0  0  0  0
   55.9579   -6.6232   -5.3458 C   0  0  0  0  0  0  0  0  0  0  0  0
   55.1446   -5.4884   -4.7677 N   0  0  0  0  0  0  0  0  0  0  0  0
   55.9795   -4.9585   -3.7081 C   0  0  0  0  0  0  0  0  0  0  0  0
 34 35  1  0  0  0
 35 36  1  0  0  0
 35 33  1  0  0  0
 33 32  1  0  0  0
 32 31  1  0  0  0
 31 21  1  0  0  0
 21 22  2  0  0  0
 22 23  1  0  0  0
 23  1  1  0  0  0
  1  3  1  0  0  0
  3  4  2  0  0  0
  4  5  1  0  0  0
  5  6  2  0  0  0
  6  7  1  0  0  0
  7  8  1  0  0  0
  8  9  2  0  0  0
  8 10  1  0  0  0
 10 11  1  0  0  0
 11 12  2  0  0  0
 12 13  1  0  0  0
 13 14  1  0  0  0
 13 15  2  0  0  0
 15 16  1  0  0  0
 16 17  2  0  0  0
 17 18  1  0  0  0
 18 19  2  0  0  0
 23 24  2  0  0  0
 24 25  1  0  0  0
 25 26  2  0  0  0
 26 27  1  0  0  0
 27 28  1  0  0  0
 27 29  1  0  0  0
 27 30  1  0  0  0
 26 21  1  0  0  0
 19  3  1  0  0  0
 18  6  1  0  0  0
 17 11  1  0  0  0
  1  2  1  0  0  0
 10 20  1  0  0  0
M  END
> <minimizedAffinity>
-7.17150

> <CNNscore>
0.5013276339

> <CNNaffinity>
7.1857795715

> <CNN_VS>
3.6024298668

> <CNNaffinity_variance>
0.1348607242

$$$$
[H]c1nc(N([H])c2c([H])c([H])c(C(F)(F)F)c(C([H])([H])C([H])([H])C([H])([H])N(C([H])([H])[H])C([H])([H])[H])c2[H])nc2c1C([H])([H])C(=S)N([H])c1c([H])c(Cl)c([H])c([H])c1-2


 36 39  0  0  0  0  0  0  0  0999 V2000
   52.1394   -3.4337   -8.5745 N   0  0  0  0  0  0  0  0  0  0  0  0
   51.7920   -3.3370   -9.6077 H   0  0  0  0  0  0  0  0  0  0  0  0
   53.4833   -3.6676   -8.4193 C   0  0  0  0  0  0  0  0  0  0  0  0
   54.3427   -3.1378   -9.3311 N   0  0  0  0  0  0  0  0  0  0  0  0
   55.6561   -3.2806   -9.3136 C   0  0  0  0  0  0  0  0  0  0  0  0
   56.2357   -4.0237   -8.2972 C   0  0  0  0  0  0  0  0  0  0  0  0
   57.7322   -4.0787   -8.4501 C   0  0  0  0  0  0  0  0  0  0  0  0
   58.2014   -5.4634   -8.2324 C   0  0  0  0  0  0  0  0  0  0  0  0
   59.0280   -6.2327   -9.4054 S   0  0  0  0  0  0  0  0  0  0  0  0
   57.9898   -6.2268   -7.0372 N   0  0  0  0  0  0  0  0  0  0  0  0
   56.9327   -6.1279   -6.0931 C   0  0  0  0  0  0  0  0  0  0  0  0
   57.1073   -6.8479   -4.9376 C   0  0  0  0  0  0  0  0  0  0  0  0
   56.1575   -6.8417   -3.9236 C   0  0  0  0  0  0  0  0  0  0  0  0
   56.3863   -7.7665   -2.4521 Cl  0  0  0  0  0  0  0  0  0  0  0  0
   54.9855   -6.0949   -4.0541 C   0  0  0  0  0  0  0  0  0  0  0  0
   54.8137   -5.3755   -5.2102 C   0  0  0  0  0  0  0  0  0  0  0  0
   55.7599   -5.3861   -6.2145 C   0  0  0  0  0  0  0  0  0  0  0  0
   55.3851   -4.5688   -7.3618 C   0  0  0  0  0  0  0  0  0  0  0  0
   54.0392   -4.3771   -7.4473 N   0  0  0  0  0  0  0  0  0  0  0  0
   58.6914   -6.9568   -6.8062 H   0  0  0  0  0  0  0  0  0  0  0  0
   49.9488   -4.1924   -5.6225 C   0  0  0  0  0  0  0  0  0  0  0  0
   50.9301   -4.2632   -6.6429 C   0  0  0  0  0  0  0  0  0  0  0  0
   51.1047   -3.2958   -7.6060 C   0  0  0  0  0  0  0  0  0  0  0  0
   50.2521   -2.2301   -7.5225 C   0  0  0  0  0  0  0  0  0  0  0  0
   49.2901   -2.1467   -6.5368 C   0  0  0  0  0  0  0  0  0  0  0  0
   49.1177   -3.1415   -5.5531 C   0  0  0  0  0  0  0  0  0  0  0  0
   48.0395   -2.9191   -4.5445 C   0  0  0  0  0  0  0  0  0  0  0  0
   46.7963   -2.9571   -5.2606 F   0  0  0  0  0  0  0  0  0  0  0  0
   47.9322   -3.8369   -3.5718 F   0  0  0  0  0  0  0  0  0  0  0  0
   47.9843   -1.5779   -4.1217 F   0  0  0  0  0  0  0  0  0  0  0  0
   50.0393   -5.3384   -4.6780 C   0  0  0  0  0  0  0  0  0  0  0  0
   51.1972   -5.2913   -3.7401 C   0  0  0  0  0  0  0  0  0  0  0  0
   51.1425   -5.6798   -2.3553 C   0  0  0  0  0  0  0  0  0  0  0  0
   50.6845   -7.6231   -1.1029 C   0  0  0  0  0  0  0  0  0  0  0  0
   51.7386   -6.9281   -1.9329 N   0  0  0  0  0  0  0  0  0  0  0  0
   52.8780   -6.8241   -1.0431 C   0  0  0  0  0  0  0  0  0  0  0  0
 34 35  1  0  0  0
 35 36  1  0  0  0
 35 33  1  0  0  0
 33 32  1  0  0  0
 32 31  1  0  0  0
 31 21  1  0  0  0
 21 22  2  0  0  0
 22 23  1  0  0  0
 23  1  1  0  0  0
  1  3  1  0  0  0
  3  4  2  0  0  0
  4  5  1  0  0  0
  5  6  2  0  0  0
  6  7  1  0  0  0
  7  8  1  0  0  0
  8  9  2  0  0  0
  8 10  1  0  0  0
 10 11  1  0  0  0
 11 12  2  0  0  0
 12 13  1  0  0  0
 13 14  1  0  0  0
 13 15  2  0  0  0
 15 16  1  0  0  0
 16 17  2  0  0  0
 17 18  1  0  0  0
 18 19  2  0  0  0
 23 24  2  0  0  0
 24 25  1  0  0  0
 25 26  2  0  0  0
 26 27  1  0  0  0
 27 28  1  0  0  0
 27 29  1  0  0  0
 27 30  1  0  0  0
 26 21  1  0  0  0
 19  3  1  0  0  0
 18  6  1  0  0  0
 17 11  1  0  0  0
  1  2  1  0  0  0
 10 20  1  0  0  0
M  END
> <minimizedAffinity>
-7.06813

> <CNNscore>
0.4100866318

> <CNNaffinity>
7.7997941971

> <CNN_VS>
3.1985912323

> <CNNaffinity_variance>
0.3929708898

$$$$
[H]c1nc(N([H])c2c([H])c([H])c(C(F)(F)F)c(C([H])([H])C([H])([H])C([H])([H])N(C([H])([H])[H])C([H])([H])[H])c2[H])nc2c1C([H])([H])C(=S)N([H])c1c([H])c(Cl)c([H])c([H])c1-2


 36 39  0  0  0  0  0  0  0  0999 V2000
   59.6500   -5.6533  -10.3399 N   0  0  0  0  0  0  0  0  0  0  0  0
   58.7372   -5.4179   -9.7843 H   0  0  0  0  0  0  0  0  0  0  0  0
   60.4941   -6.5551   -9.7406 C   0  0  0  0  0  0  0  0  0  0  0  0
   60.4256   -7.8591  -10.1219 N   0  0  0  0  0  0  0  0  0  0  0  0
   61.1687   -8.8363   -9.6334 C   0  0  0  0  0  0  0  0  0  0  0  0
   62.1029   -8.5415   -8.6528 C   0  0  0  0  0  0  0  0  0  0  0  0
   62.8435   -9.7782   -8.2189 C   0  0  0  0  0  0  0  0  0  0  0  0
   62.9343   -9.8087   -6.7438 C   0  0  0  0  0  0  0  0  0  0  0  0
   62.3159  -11.0695   -5.9199 S   0  0  0  0  0  0  0  0  0  0  0  0
   63.5401   -8.7919   -5.9344 N   0  0  0  0  0  0  0  0  0  0  0  0
   63.6776   -7.4038   -6.2039 C   0  0  0  0  0  0  0  0  0  0  0  0
   64.4890   -6.7143   -5.3376 C   0  0  0  0  0  0  0  0  0  0  0  0
   64.7194   -5.3518   -5.4819 C   0  0  0  0  0  0  0  0  0  0  0  0
   65.7545   -4.4778   -4.3694 Cl  0  0  0  0  0  0  0  0  0  0  0  0
   64.1247   -4.6382   -6.5237 C   0  0  0  0  0  0  0  0  0  0  0  0
   63.3143   -5.3301   -7.3887 C   0  0  0  0  0  0  0  0  0  0  0  0
   63.0880   -6.6831   -7.2401 C   0  0  0  0  0  0  0  0  0  0  0  0
   62.1910   -7.2273   -8.2519 C   0  0  0  0  0  0  0  0  0  0  0  0
   61.3888   -6.2745   -8.8035 N   0  0  0  0  0  0  0  0  0  0  0  0
   63.9425   -9.0839   -5.0227 H   0  0  0  0  0  0  0  0  0  0  0  0
   61.0819   -4.4729  -13.6026 C   0  0  0  0  0  0  0  0  0  0  0  0
   60.8978   -5.0987  -12.3442 C   0  0  0  0  0  0  0  0  0  0  0  0
   59.7626   -4.9601  -11.5785 C   0  0  0  0  0  0  0  0  0  0  0  0
   58.7926   -4.1594  -12.1149 C   0  0  0  0  0  0  0  0  0  0  0  0
   58.9567   -3.5414  -13.3376 C   0  0  0  0  0  0  0  0  0  0  0  0
   60.1222   -3.6888  -14.1164 C   0  0  0  0  0  0  0  0  0  0  0  0
   60.1623   -2.9652  -15.4219 C   0  0  0  0  0  0  0  0  0  0  0  0
   60.2513   -1.5668  -15.1111 F   0  0  0  0  0  0  0  0  0  0  0  0
   61.2061   -3.2318  -16.2214 F   0  0  0  0  0  0  0  0  0  0  0  0
   58.9041   -2.9489  -16.0522 F   0  0  0  0  0  0  0  0  0  0  0  0
   62.3702   -4.8609  -14.2378 C   0  0  0  0  0  0  0  0  0  0  0  0
   63.5595   -4.7936  -13.3414 C   0  0  0  0  0  0  0  0  0  0  0  0
   64.8897   -5.1940  -13.7183 C   0  0  0  0  0  0  0  0  0  0  0  0
   65.7507   -4.1286  -15.6362 C   0  0  0  0  0  0  0  0  0  0  0  0
   65.2029   -5.4347  -15.1097 N   0  0  0  0  0  0  0  0  0  0  0  0
   64.0785   -5.7225  -15.9779 C   0  0  0  0  0  0  0  0  0  0  0  0
 34 35  1  0  0  0
 35 36  1  0  0  0
 35 33  1  0  0  0
 33 32  1  0  0  0
 32 31  1  0  0  0
 31 21  1  0  0  0
 21 22  2  0  0  0
 22 23  1  0  0  0
 23  1  1  0  0  0
  1  3  1  0  0  0
  3  4  2  0  0  0
  4  5  1  0  0  0
  5  6  2  0  0  0
  6  7  1  0  0  0
  7  8  1  0  0  0
  8  9  2  0  0  0
  8 10  1  0  0  0
 10 11  1  0  0  0
 11 12  2  0  0  0
 12 13  1  0  0  0
 13 14  1  0  0  0
 13 15  2  0  0  0
 15 16  1  0  0  0
 16 17  2  0  0  0
 17 18  1  0  0  0
 18 19  2  0  0  0
 23 24  2  0  0  0
 24 25  1  0  0  0
 25 26  2  0  0  0
 26 27  1  0  0  0
 27 28  1  0  0  0
 27 29  1  0  0  0
 27 30  1  0  0  0
 26 21  1  0  0  0
 19  3  1  0  0  0
 18  6  1  0  0  0
 17 11  1  0  0  0
  1  2  1  0  0  0
 10 20  1  0  0  0
M  END
> <minimizedAffinity>
-0.57902

> <CNNscore>
0.3849745989

> <CNNaffinity>
5.6908125877

> <CNN_VS>
2.1908183098

> <CNNaffinity_variance>
0.4598880410

$$$$
[H]c1nc(N([H])c2c([H])c([H])c(C(F)(F)F)c(C([H])([H])C([H])([H])C([H])([H])N(C([H])([H])[H])C([H])([H])[H])c2[H])nc2c1C([H])([H])C(=S)N([H])c1c([H])c(Cl)c([H])c([H])c1-2


 36 39  0  0  0  0  0  0  0  0999 V2000
   55.0346   -3.3381   -8.6378 N   0  0  0  0  0  0  0  0  0  0  0  0
   55.5400   -2.4557   -8.2336 H   0  0  0  0  0  0  0  0  0  0  0  0
   54.1624   -3.9662   -7.7837 C   0  0  0  0  0  0  0  0  0  0  0  0
   52.8272   -3.8288   -8.0047 N   0  0  0  0  0  0  0  0  0  0  0  0
   51.8729   -4.3693   -7.2680 C   0  0  0  0  0  0  0  0  0  0  0  0
   52.2281   -5.1448   -6.1753 C   0  0  0  0  0  0  0  0  0  0  0  0
   51.0103   -5.6652   -5.4597 C   0  0  0  0  0  0  0  0  0  0  0  0
   51.1825   -5.4948   -4.0016 C   0  0  0  0  0  0  0  0  0  0  0  0
   50.1054   -4.6142   -3.1559 S   0  0  0  0  0  0  0  0  0  0  0  0
   52.2521   -6.0539   -3.2273 N   0  0  0  0  0  0  0  0  0  0  0  0
   53.5723   -6.3807   -3.6382 C   0  0  0  0  0  0  0  0  0  0  0  0
   54.3104   -7.0970   -2.7293 C   0  0  0  0  0  0  0  0  0  0  0  0
   55.6157   -7.4903   -2.9976 C   0  0  0  0  0  0  0  0  0  0  0  0
   56.5531   -8.4022   -1.8303 Cl  0  0  0  0  0  0  0  0  0  0  0  0
   56.2193   -7.1635   -4.2129 C   0  0  0  0  0  0  0  0  0  0  0  0
   55.4789   -6.4477   -5.1201 C   0  0  0  0  0  0  0  0  0  0  0  0
   54.1833   -6.0587   -4.8480 C   0  0  0  0  0  0  0  0  0  0  0  0
   53.5746   -5.2990   -5.9328 C   0  0  0  0  0  0  0  0  0  0  0  0
   54.5006   -4.7090   -6.7390 N   0  0  0  0  0  0  0  0  0  0  0  0
   52.0613   -6.2591   -2.2273 H   0  0  0  0  0  0  0  0  0  0  0  0
   57.1838   -3.9637  -11.6509 C   0  0  0  0  0  0  0  0  0  0  0  0
   56.7266   -3.6399  -10.3488 C   0  0  0  0  0  0  0  0  0  0  0  0
   55.4010   -3.6450   -9.9791 C   0  0  0  0  0  0  0  0  0  0  0  0
   54.5219   -3.9892  -10.9682 C   0  0  0  0  0  0  0  0  0  0  0  0
   54.9501   -4.3052  -12.2412 C   0  0  0  0  0  0  0  0  0  0  0  0
   56.3099   -4.2984  -12.6122 C   0  0  0  0  0  0  0  0  0  0  0  0
   56.6303   -4.6654  -14.0236 C   0  0  0  0  0  0  0  0  0  0  0  0
   57.9945   -5.1111  -14.0301 F   0  0  0  0  0  0  0  0  0  0  0  0
   55.9138   -5.6655  -14.5587 F   0  0  0  0  0  0  0  0  0  0  0  0
   56.7886   -3.5291  -14.8387 F   0  0  0  0  0  0  0  0  0  0  0  0
   58.6687   -3.9488  -11.7429 C   0  0  0  0  0  0  0  0  0  0  0  0
   59.2369   -2.8496  -12.5746 C   0  0  0  0  0  0  0  0  0  0  0  0
   60.4242   -2.9654  -13.3800 C   0  0  0  0  0  0  0  0  0  0  0  0
   61.6840   -4.2420  -14.9090 C   0  0  0  0  0  0  0  0  0  0  0  0
   60.3488   -3.5686  -14.6924 N   0  0  0  0  0  0  0  0  0  0  0  0
   60.2278   -2.6545  -15.8106 C   0  0  0  0  0  0  0  0  0  0  0  0
 34 35  1  0  0  0
 35 36  1  0  0  0
 35 33  1  0  0  0
 33 32  1  0  0  0
 32 31  1  0  0  0
 31 21  1  0  0  0
 21 22  2  0  0  0
 22 23  1  0  0  0
 23  1  1  0  0  0
  1  3  1  0  0  0
  3  4  2  0  0  0
  4  5  1  0  0  0
  5  6  2  0  0  0
  6  7  1  0  0  0
  7  8  1  0  0  0
  8  9  2  0  0  0
  8 10  1  0  0  0
 10 11  1  0  0  0
 11 12  2  0  0  0
 12 13  1  0  0  0
 13 14  1  0  0  0
 13 15  2  0  0  0
 15 16  1  0  0  0
 16 17  2  0  0  0
 17 18  1  0  0  0
 18 19  2  0  0  0
 23 24  2  0  0  0
 24 25  1  0  0  0
 25 26  2  0  0  0
 26 27  1  0  0  0
 27 28  1  0  0  0
 27 29  1  0  0  0
 27 30  1  0  0  0
 26 21  1  0  0  0
 19  3  1  0  0  0
 18  6  1  0  0  0
 17 11  1  0  0  0
  1  2  1  0  0  0
 10 20  1  0  0  0
M  END
> <minimizedAffinity>
-4.45148

> <CNNscore>
0.3822674453

> <CNNaffinity>
7.2093343735

> <CNN_VS>
2.7558939457

> <CNNaffinity_variance>
0.5843102932

$$$$
[H]c1nc(N([H])c2c([H])c([H])c(C(F)(F)F)c(C([H])([H])C([H])([H])C([H])([H])N(C([H])([H])[H])C([H])([H])[H])c2[H])nc2c1C([H])([H])C(=S)N([H])c1c([H])c(Cl)c([H])c([H])c1-2


 36 39  0  0  0  0  0  0  0  0999 V2000
   58.0958   -9.4873   -1.5746 N   0  0  0  0  0  0  0  0  0  0  0  0
   57.3895   -9.8559   -0.8245 H   0  0  0  0  0  0  0  0  0  0  0  0
   59.3769   -9.9698   -1.4717 C   0  0  0  0  0  0  0  0  0  0  0  0
   60.0237   -9.8422   -0.2818 N   0  0  0  0  0  0  0  0  0  0  0  0
   61.2548  -10.2537   -0.0353 C   0  0  0  0  0  0  0  0  0  0  0  0
   61.9713  -10.8692   -1.0498 C   0  0  0  0  0  0  0  0  0  0  0  0
   63.3482  -11.2592   -0.5829 C   0  0  0  0  0  0  0  0  0  0  0  0
   64.3436  -10.8829   -1.6088 C   0  0  0  0  0  0  0  0  0  0  0  0
   65.5596   -9.8704   -1.2251 S   0  0  0  0  0  0  0  0  0  0  0  0
   64.3416  -11.3431   -2.9669 N   0  0  0  0  0  0  0  0  0  0  0  0
   63.2404  -11.7491   -3.7676 C   0  0  0  0  0  0  0  0  0  0  0  0
   63.5685  -12.3395   -4.9625 C   0  0  0  0  0  0  0  0  0  0  0  0
   62.5949  -12.7905   -5.8451 C   0  0  0  0  0  0  0  0  0  0  0  0
   63.0220  -13.5406   -7.3708 Cl  0  0  0  0  0  0  0  0  0  0  0  0
   61.2403  -12.6535   -5.5374 C   0  0  0  0  0  0  0  0  0  0  0  0
   60.9150  -12.0633   -4.3418 C   0  0  0  0  0  0  0  0  0  0  0  0
   61.8861  -11.6162   -3.4694 C   0  0  0  0  0  0  0  0  0  0  0  0
   61.3360  -11.0106   -2.2631 C   0  0  0  0  0  0  0  0  0  0  0  0
   60.0629  -10.5597   -2.4406 N   0  0  0  0  0  0  0  0  0  0  0  0
   65.2570  -11.3982   -3.4539 H   0  0  0  0  0  0  0  0  0  0  0  0
   57.7663   -7.2271   -4.5531 C   0  0  0  0  0  0  0  0  0  0  0  0
   58.2660   -8.1113   -3.5644 C   0  0  0  0  0  0  0  0  0  0  0  0
   57.5213   -8.5736   -2.5034 C   0  0  0  0  0  0  0  0  0  0  0  0
   56.2332   -8.1176   -2.4534 C   0  0  0  0  0  0  0  0  0  0  0  0
   55.7318   -7.2551   -3.4066 C   0  0  0  0  0  0  0  0  0  0  0  0
   56.5006   -6.7865   -4.4911 C   0  0  0  0  0  0  0  0  0  0  0  0
   55.8282   -5.8600   -5.4496 C   0  0  0  0  0  0  0  0  0  0  0  0
   55.3012   -4.7769   -4.6693 F   0  0  0  0  0  0  0  0  0  0  0  0
   56.6093   -5.2953   -6.3829 F   0  0  0  0  0  0  0  0  0  0  0  0
   54.6071   -6.3818   -5.9155 F   0  0  0  0  0  0  0  0  0  0  0  0
   58.7674   -6.9567   -5.6201 C   0  0  0  0  0  0  0  0  0  0  0  0
   60.1892   -7.1383   -5.2100 C   0  0  0  0  0  0  0  0  0  0  0  0
   60.8896   -8.3956   -5.2271 C   0  0  0  0  0  0  0  0  0  0  0  0
   62.7843   -7.0060   -5.4125 C   0  0  0  0  0  0  0  0  0  0  0  0
   62.3321   -8.4185   -5.1231 N   0  0  0  0  0  0  0  0  0  0  0  0
   63.0315   -9.2223   -6.1056 C   0  0  0  0  0  0  0  0  0  0  0  0
 34 35  1  0  0  0
 35 36  1  0  0  0
 35 33  1  0  0  0
 33 32  1  0  0  0
 32 31  1  0  0  0
 31 21  1  0  0  0
 21 22  2  0  0  0
 22 23  1  0  0  0
 23  1  1  0  0  0
  1  3  1  0  0  0
  3  4  2  0  0  0
  4  5  1  0  0  0
  5  6  2  0  0  0
  6  7  1  0  0  0
  7  8  1  0  0  0
  8  9  2  0  0  0
  8 10  1  0  0  0
 10 11  1  0  0  0
 11 12  2  0  0  0
 12 13  1  0  0  0
 13 14  1  0  0  0
 13 15  2  0  0  0
 15 16  1  0  0  0
 16 17  2  0  0  0
 17 18  1  0  0  0
 18 19  2  0  0  0
 23 24  2  0  0  0
 24 25  1  0  0  0
 25 26  2  0  0  0
 26 27  1  0  0  0
 27 28  1  0  0  0
 27 29  1  0  0  0
 27 30  1  0  0  0
 26 21  1  0  0  0
 19  3  1  0  0  0
 18  6  1  0  0  0
 17 11  1  0  0  0
  1  2  1  0  0  0
 10 20  1  0  0  0
M  END
> <minimizedAffinity>
-0.53295

> <CNNscore>
0.3718456328

> <CNNaffinity>
6.1684026718

> <CNN_VS>
2.2936935425

> <CNNaffinity_variance>
1.4224922657

$$$$
[H]c1nc(N([H])c2c([H])c([H])c(C(F)(F)F)c(C([H])([H])C([H])([H])C([H])([H])N(C([H])([H])[H])C([H])([H])[H])c2[H])nc2c1C([H])([H])C(=S)N([H])c1c([H])c(Cl)c([H])c([H])c1-2


 36 39  0  0  0  0  0  0  0  0999 V2000
   53.8946   -3.6809   -8.6621 N   0  0  0  0  0  0  0  0  0  0  0  0
   53.4022   -2.7632   -8.9978 H   0  0  0  0  0  0  0  0  0  0  0  0
   53.2475   -4.3727   -7.6683 C   0  0  0  0  0  0  0  0  0  0  0  0
   51.8878   -4.3427   -7.6377 N   0  0  0  0  0  0  0  0  0  0  0  0
   51.1317   -4.9542   -6.7433 C   0  0  0  0  0  0  0  0  0  0  0  0
   51.7427   -5.6943   -5.7432 C   0  0  0  0  0  0  0  0  0  0  0  0
   50.7230   -6.3068   -4.8206 C   0  0  0  0  0  0  0  0  0  0  0  0
   51.1477   -6.1170   -3.4176 C   0  0  0  0  0  0  0  0  0  0  0  0
   50.1794   -5.3211   -2.3784 S   0  0  0  0  0  0  0  0  0  0  0  0
   52.3826   -6.5861   -2.8599 N   0  0  0  0  0  0  0  0  0  0  0  0
   53.6257   -6.8087   -3.5108 C   0  0  0  0  0  0  0  0  0  0  0  0
   54.5733   -7.4602   -2.7613 C   0  0  0  0  0  0  0  0  0  0  0  0
   55.8333   -7.7498   -3.2700 C   0  0  0  0  0  0  0  0  0  0  0  0
   57.0392   -8.5794   -2.3053 Cl  0  0  0  0  0  0  0  0  0  0  0  0
   56.1744   -7.3813   -4.5723 C   0  0  0  0  0  0  0  0  0  0  0  0
   55.2250   -6.7304   -5.3197 C   0  0  0  0  0  0  0  0  0  0  0  0
   53.9754   -6.4444   -4.8091 C   0  0  0  0  0  0  0  0  0  0  0  0
   53.1187   -5.7400   -5.7549 C   0  0  0  0  0  0  0  0  0  0  0  0
   53.8303   -5.0818   -6.7119 N   0  0  0  0  0  0  0  0  0  0  0  0
   52.3966   -6.8015   -1.8441 H   0  0  0  0  0  0  0  0  0  0  0  0
   56.4188   -3.9065  -11.4308 C   0  0  0  0  0  0  0  0  0  0  0  0
   55.2326   -3.6936  -10.6847 C   0  0  0  0  0  0  0  0  0  0  0  0
   55.1166   -3.9569   -9.3389 C   0  0  0  0  0  0  0  0  0  0  0  0
   56.2434   -4.4518   -8.7430 C   0  0  0  0  0  0  0  0  0  0  0  0
   57.4055   -4.6667   -9.4551 C   0  0  0  0  0  0  0  0  0  0  0  0
   57.5169   -4.3938  -10.8336 C   0  0  0  0  0  0  0  0  0  0  0  0
   58.8360   -4.6706  -11.4759 C   0  0  0  0  0  0  0  0  0  0  0  0
   58.6481   -5.8184  -12.3168 F   0  0  0  0  0  0  0  0  0  0  0  0
   59.3275   -3.7082  -12.2710 F   0  0  0  0  0  0  0  0  0  0  0  0
   59.7529   -5.2359  -10.5702 F   0  0  0  0  0  0  0  0  0  0  0  0
   56.2786   -3.4634  -12.8442 C   0  0  0  0  0  0  0  0  0  0  0  0
   56.3451   -4.5563  -13.8561 C   0  0  0  0  0  0  0  0  0  0  0  0
   56.0691   -4.3882  -15.2587 C   0  0  0  0  0  0  0  0  0  0  0  0
   56.2352   -3.4645  -17.4207 C   0  0  0  0  0  0  0  0  0  0  0  0
   56.6559   -3.2810  -15.9810 N   0  0  0  0  0  0  0  0  0  0  0  0
   58.1039   -3.2492  -16.0368 C   0  0  0  0  0  0  0  0  0  0  0  0
 34 35  1  0  0  0
 35 36  1  0  0  0
 35 33  1  0  0  0
 33 32  1  0  0  0
 32 31  1  0  0  0
 31 21  1  0  0  0
 21 22  2  0  0  0
 22 23  1  0  0  0
 23  1  1  0  0  0
  1  3  1  0  0  0
  3  4  2  0  0  0
  4  5  1  0  0  0
  5  6  2  0  0  0
  6  7  1  0  0  0
  7  8  1  0  0  0
  8  9  2  0  0  0
  8 10  1  0  0  0
 10 11  1  0  0  0
 11 12  2  0  0  0
 12 13  1  0  0  0
 13 14  1  0  0  0
 13 15  2  0  0  0
 15 16  1  0  0  0
 16 17  2  0  0  0
 17 18  1  0  0  0
 18 19  2  0  0  0
 23 24  2  0  0  0
 24 25  1  0  0  0
 25 26  2  0  0  0
 26 27  1  0  0  0
 27 28  1  0  0  0
 27 29  1  0  0  0
 27 30  1  0  0  0
 26 21  1  0  0  0
 19  3  1  0  0  0
 18  6  1  0  0  0
 17 11  1  0  0  0
  1  2  1  0  0  0
 10 20  1  0  0  0
M  END
> <minimizedAffinity>
-6.82738

> <CNNscore>
0.3039045334

> <CNNaffinity>
7.2752037048

> <CNN_VS>
2.2109673023

> <CNNaffinity_variance>
0.1909698993

$$$$
[H]c1nc(N([H])c2c([H])c([H])c([H])c([H])c2N([H])C(=O)C([H])([H])[H])nc2c1C([H])([H])C([H])([H])c1c(C(=O)N([H])[H])nn(C([H])([H])[H])c1-2


 32 35  0  0  0  0  0  0  0  0999 V2000
   53.4302   -3.3006   -9.2159 C   0  0  0  0  0  0  0  0  0  0  0  0
   52.4342   -2.4464   -9.4237 N   0  0  0  0  0  0  0  0  0  0  0  0
   51.3571   -2.2763   -8.6431 C   0  0  0  0  0  0  0  0  0  0  0  0
   51.2340   -3.0469   -7.5002 C   0  0  0  0  0  0  0  0  0  0  0  0
   50.0577   -2.8491   -6.6639 C   0  0  0  0  0  0  0  0  0  0  0  0
   49.9478   -3.6800   -5.4527 C   0  0  0  0  0  0  0  0  0  0  0  0
   51.0659   -4.6194   -5.2459 C   0  0  0  0  0  0  0  0  0  0  0  0
   51.2320   -5.5172   -4.2040 C   0  0  0  0  0  0  0  0  0  0  0  0
   52.4067   -6.1539   -4.4535 N   0  0  0  0  0  0  0  0  0  0  0  0
   52.9541   -5.7035   -5.5660 N   0  0  0  0  0  0  0  0  0  0  0  0
   54.2057   -6.1136   -6.1898 C   0  0  0  0  0  0  0  0  0  0  0  0
   52.1372   -4.7684   -6.0491 C   0  0  0  0  0  0  0  0  0  0  0  0
   52.2520   -3.9372   -7.2649 C   0  0  0  0  0  0  0  0  0  0  0  0
   53.2974   -4.0622   -8.0758 N   0  0  0  0  0  0  0  0  0  0  0  0
   50.3396   -5.7371   -3.0759 C   0  0  0  0  0  0  0  0  0  0  0  0
   50.6924   -6.5747   -1.9950 N   0  0  0  0  0  0  0  0  0  0  0  0
   49.2271   -5.1635   -3.0699 O   0  0  0  0  0  0  0  0  0  0  0  0
   50.7191   -7.6172   -2.0970 H   0  0  0  0  0  0  0  0  0  0  0  0
   50.9292   -6.1173   -1.0785 H   0  0  0  0  0  0  0  0  0  0  0  0
   54.5776   -3.5030  -10.0168 N   0  0  0  0  0  0  0  0  0  0  0  0
   54.5342   -3.1069  -11.0194 H   0  0  0  0  0  0  0  0  0  0  0  0
   56.6505   -4.5823  -10.6361 C   0  0  0  0  0  0  0  0  0  0  0  0
   57.8557   -5.1187  -10.2894 C   0  0  0  0  0  0  0  0  0  0  0  0
   58.2267   -5.2157   -8.9686 C   0  0  0  0  0  0  0  0  0  0  0  0
   57.3998   -4.7789   -7.9742 C   0  0  0  0  0  0  0  0  0  0  0  0
   56.1681   -4.2311   -8.3545 C   0  0  0  0  0  0  0  0  0  0  0  0
   55.7567   -4.1132   -9.6506 C   0  0  0  0  0  0  0  0  0  0  0  0
   56.3024   -4.3198  -14.4768 C   0  0  0  0  0  0  0  0  0  0  0  0
   57.0009   -4.2886  -13.1312 C   0  0  0  0  0  0  0  0  0  0  0  0
   58.2140   -4.0379  -13.0864 O   0  0  0  0  0  0  0  0  0  0  0  0
   56.2288   -4.5488  -11.9832 N   0  0  0  0  0  0  0  0  0  0  0  0
   55.1921   -4.7740  -12.2167 H   0  0  0  0  0  0  0  0  0  0  0  0
 28 29  1  0  0  0
 29 30  2  0  0  0
 29 31  1  0  0  0
 31 22  1  0  0  0
 22 23  2  0  0  0
 23 24  1  0  0  0
 24 25  2  0  0  0
 25 26  1  0  0  0
 26 27  2  0  0  0
 27 20  1  0  0  0
 20  1  1  0  0  0
  1  2  2  0  0  0
  2  3  1  0  0  0
  3  4  2  0  0  0
  4  5  1  0  0  0
  5  6  1  0  0  0
  6  7  1  0  0  0
  7  8  1  0  0  0
  8  9  2  0  0  0
  9 10  1  0  0  0
 10 11  1  0  0  0
 10 12  1  0  0  0
 12 13  1  0  0  0
 13 14  2  0  0  0
  8 15  1  0  0  0
 15 16  1  0  0  0
 15 17  2  0  0  0
 27 22  1  0  0  0
 14  1  1  0  0  0
 13  4  1  0  0  0
 12  7  2  0  0  0
 31 32  1  0  0  0
 20 21  1  0  0  0
 16 18  1  0  0  0
 16 19  1  0  0  0
M  END
> <minimizedAffinity>
-11.58443

> <CNNscore>
0.9778124690

> <CNNaffinity>
7.7443566322

> <CNN_VS>
7.5725283623

> <CNNaffinity_variance>
0.0580345616

$$$$
[H]c1nc(N([H])c2c([H])c([H])c([H])c([H])c2N([H])C(=O)C([H])([H])[H])nc2c1C([H])([H])C([H])([H])c1c(C(=O)N([H])[H])nn(C([H])([H])[H])c1-2


 32 35  0  0  0  0  0  0  0  0999 V2000
   53.2098   -4.5473   -7.2629 C   0  0  0  0  0  0  0  0  0  0  0  0
   52.9100   -3.6181   -8.1638 N   0  0  0  0  0  0  0  0  0  0  0  0
   51.7966   -2.8713   -8.1951 C   0  0  0  0  0  0  0  0  0  0  0  0
   50.8421   -3.0566   -7.2102 C   0  0  0  0  0  0  0  0  0  0  0  0
   49.6387   -2.2370   -7.2596 C   0  0  0  0  0  0  0  0  0  0  0  0
   48.6368   -2.4512   -6.2014 C   0  0  0  0  0  0  0  0  0  0  0  0
   48.9941   -3.4878   -5.2149 C   0  0  0  0  0  0  0  0  0  0  0  0
   48.2532   -3.9016   -4.1197 C   0  0  0  0  0  0  0  0  0  0  0  0
   48.9951   -4.8705   -3.5212 N   0  0  0  0  0  0  0  0  0  0  0  0
   50.1230   -5.0661   -4.1768 N   0  0  0  0  0  0  0  0  0  0  0  0
   51.1944   -6.0067   -3.8747 C   0  0  0  0  0  0  0  0  0  0  0  0
   50.1225   -4.2236   -5.2089 C   0  0  0  0  0  0  0  0  0  0  0  0
   51.1305   -4.0122   -6.2681 C   0  0  0  0  0  0  0  0  0  0  0  0
   52.2530   -4.7233   -6.2877 N   0  0  0  0  0  0  0  0  0  0  0  0
   46.9528   -3.4064   -3.6942 C   0  0  0  0  0  0  0  0  0  0  0  0
   45.9978   -4.2451   -3.0786 N   0  0  0  0  0  0  0  0  0  0  0  0
   46.6789   -2.1997   -3.8827 O   0  0  0  0  0  0  0  0  0  0  0  0
   45.4737   -4.9699   -3.6244 H   0  0  0  0  0  0  0  0  0  0  0  0
   45.8274   -4.1193   -2.0488 H   0  0  0  0  0  0  0  0  0  0  0  0
   54.3726   -5.3492   -7.2012 N   0  0  0  0  0  0  0  0  0  0  0  0
   54.3202   -6.2153   -6.5600 H   0  0  0  0  0  0  0  0  0  0  0  0
   56.7803   -5.5391   -7.3126 C   0  0  0  0  0  0  0  0  0  0  0  0
   57.9443   -5.4412   -8.0168 C   0  0  0  0  0  0  0  0  0  0  0  0
   57.9439   -4.9804   -9.3126 C   0  0  0  0  0  0  0  0  0  0  0  0
   56.7812   -4.6102   -9.9247 C   0  0  0  0  0  0  0  0  0  0  0  0
   55.5987   -4.7204   -9.1822 C   0  0  0  0  0  0  0  0  0  0  0  0
   55.5489   -5.1722   -7.8952 C   0  0  0  0  0  0  0  0  0  0  0  0
   56.2542   -7.2257   -3.8746 C   0  0  0  0  0  0  0  0  0  0  0  0
   56.0748   -7.0013   -5.3636 C   0  0  0  0  0  0  0  0  0  0  0  0
   55.3224   -7.7524   -6.0009 O   0  0  0  0  0  0  0  0  0  0  0  0
   56.7799   -5.9377   -5.9581 N   0  0  0  0  0  0  0  0  0  0  0  0
   57.4100   -5.4049   -5.2516 H   0  0  0  0  0  0  0  0  0  0  0  0
 28 29  1  0  0  0
 29 30  2  0  0  0
 29 31  1  0  0  0
 31 22  1  0  0  0
 22 23  2  0  0  0
 23 24  1  0  0  0
 24 25  2  0  0  0
 25 26  1  0  0  0
 26 27  2  0  0  0
 27 20  1  0  0  0
 20  1  1  0  0  0
  1  2  2  0  0  0
  2  3  1  0  0  0
  3  4  2  0  0  0
  4  5  1  0  0  0
  5  6  1  0  0  0
  6  7  1  0  0  0
  7  8  1  0  0  0
  8  9  2  0  0  0
  9 10  1  0  0  0
 10 11  1  0  0  0
 10 12  1  0  0  0
 12 13  1  0  0  0
 13 14  2  0  0  0
  8 15  1  0  0  0
 15 16  1  0  0  0
 15 17  2  0  0  0
 27 22  1  0  0  0
 14  1  1  0  0  0
 13  4  1  0  0  0
 12  7  2  0  0  0
 31 32  1  0  0  0
 20 21  1  0  0  0
 16 18  1  0  0  0
 16 19  1  0  0  0
M  END
> <minimizedAffinity>
-9.80088

> <CNNscore>
0.7166432142

> <CNNaffinity>
7.3911161423

> <CNN_VS>
5.2967934608

> <CNNaffinity_variance>
0.1654687822

$$$$
[H]c1nc(N([H])c2c([H])c([H])c([H])c([H])c2N([H])C(=O)C([H])([H])[H])nc2c1C([H])([H])C([H])([H])c1c(C(=O)N([H])[H])nn(C([H])([H])[H])c1-2


 32 35  0  0  0  0  0  0  0  0999 V2000
   53.5857   -4.5327   -8.3678 C   0  0  0  0  0  0  0  0  0  0  0  0
   53.7798   -5.7117   -7.7870 N   0  0  0  0  0  0  0  0  0  0  0  0
   53.0352   -6.2484   -6.8094 C   0  0  0  0  0  0  0  0  0  0  0  0
   51.9494   -5.5357   -6.3312 C   0  0  0  0  0  0  0  0  0  0  0  0
   51.1515   -6.1336   -5.2691 C   0  0  0  0  0  0  0  0  0  0  0  0
   50.0010   -5.3575   -4.7758 C   0  0  0  0  0  0  0  0  0  0  0  0
   49.8083   -4.0531   -5.4369 C   0  0  0  0  0  0  0  0  0  0  0  0
   48.8193   -3.1165   -5.1834 C   0  0  0  0  0  0  0  0  0  0  0  0
   49.0601   -2.0893   -6.0403 N   0  0  0  0  0  0  0  0  0  0  0  0
   50.1183   -2.3424   -6.7861 N   0  0  0  0  0  0  0  0  0  0  0  0
   50.7147   -1.5107   -7.8237 C   0  0  0  0  0  0  0  0  0  0  0  0
   50.5744   -3.5391   -6.4186 C   0  0  0  0  0  0  0  0  0  0  0  0
   51.7293   -4.3139   -6.9168 C   0  0  0  0  0  0  0  0  0  0  0  0
   52.5027   -3.8323   -7.8842 N   0  0  0  0  0  0  0  0  0  0  0  0
   47.7453   -3.2077   -4.2059 C   0  0  0  0  0  0  0  0  0  0  0  0
   47.5592   -4.3551   -3.4039 N   0  0  0  0  0  0  0  0  0  0  0  0
   46.9665   -2.2363   -4.0774 O   0  0  0  0  0  0  0  0  0  0  0  0
   47.1858   -5.2482   -3.8050 H   0  0  0  0  0  0  0  0  0  0  0  0
   47.8084   -4.2856   -2.3848 H   0  0  0  0  0  0  0  0  0  0  0  0
   54.3498   -3.9401   -9.3992 N   0  0  0  0  0  0  0  0  0  0  0  0
   53.8718   -3.1439   -9.9485 H   0  0  0  0  0  0  0  0  0  0  0  0
   56.6259   -4.4512   -8.7637 C   0  0  0  0  0  0  0  0  0  0  0  0
   57.8947   -4.8212   -9.1010 C   0  0  0  0  0  0  0  0  0  0  0  0
   58.2486   -4.9925  -10.4189 C   0  0  0  0  0  0  0  0  0  0  0  0
   57.3412   -4.7969  -11.4197 C   0  0  0  0  0  0  0  0  0  0  0  0
   56.0447   -4.4184  -11.0490 C   0  0  0  0  0  0  0  0  0  0  0  0
   55.6464   -4.2369   -9.7562 C   0  0  0  0  0  0  0  0  0  0  0  0
   55.9589   -4.5330   -4.9572 C   0  0  0  0  0  0  0  0  0  0  0  0
   56.4108   -5.0517   -6.3085 C   0  0  0  0  0  0  0  0  0  0  0  0
   56.8801   -6.1961   -6.3897 O   0  0  0  0  0  0  0  0  0  0  0  0
   56.2739   -4.1984   -7.4199 N   0  0  0  0  0  0  0  0  0  0  0  0
   55.8689   -3.2259   -7.1550 H   0  0  0  0  0  0  0  0  0  0  0  0
 28 29  1  0  0  0
 29 30  2  0  0  0
 29 31  1  0  0  0
 31 22  1  0  0  0
 22 23  2  0  0  0
 23 24  1  0  0  0
 24 25  2  0  0  0
 25 26  1  0  0  0
 26 27  2  0  0  0
 27 20  1  0  0  0
 20  1  1  0  0  0
  1  2  2  0  0  0
  2  3  1  0  0  0
  3  4  2  0  0  0
  4  5  1  0  0  0
  5  6  1  0  0  0
  6  7  1  0  0  0
  7  8  1  0  0  0
  8  9  2  0  0  0
  9 10  1  0  0  0
 10 11  1  0  0  0
 10 12  1  0  0  0
 12 13  1  0  0  0
 13 14  2  0  0  0
  8 15  1  0  0  0
 15 16  1  0  0  0
 15 17  2  0  0  0
 27 22  1  0  0  0
 14  1  1  0  0  0
 13  4  1  0  0  0
 12  7  2  0  0  0
 31 32  1  0  0  0
 20 21  1  0  0  0
 16 18  1  0  0  0
 16 19  1  0  0  0
M  END
> <minimizedAffinity>
-8.70104

> <CNNscore>
0.6934453249

> <CNNaffinity>
7.3817825317

> <CNN_VS>
5.1188626289

> <CNNaffinity_variance>
0.1516277939

$$$$
[H]c1nc(N([H])c2c([H])c([H])c([H])c([H])c2N([H])C(=O)C([H])([H])[H])nc2c1C([H])([H])C([H])([H])c1c(C(=O)N([H])[H])nn(C([H])([H])[H])c1-2


 32 35  0  0  0  0  0  0  0  0999 V2000
   53.6831   -4.1808   -9.0731 C   0  0  0  0  0  0  0  0  0  0  0  0
   53.3074   -3.0173   -9.5927 N   0  0  0  0  0  0  0  0  0  0  0  0
   52.2948   -2.2473   -9.1686 C   0  0  0  0  0  0  0  0  0  0  0  0
   51.5434   -2.6712   -8.0864 C   0  0  0  0  0  0  0  0  0  0  0  0
   50.4471   -1.8224   -7.6390 C   0  0  0  0  0  0  0  0  0  0  0  0
   49.6612   -2.2933   -6.4858 C   0  0  0  0  0  0  0  0  0  0  0  0
   50.0988   -3.5869   -5.9284 C   0  0  0  0  0  0  0  0  0  0  0  0
   49.5537   -4.2703   -4.8535 C   0  0  0  0  0  0  0  0  0  0  0  0
   50.2951   -5.4023   -4.7259 N   0  0  0  0  0  0  0  0  0  0  0  0
   51.2416   -5.4458   -5.6437 N   0  0  0  0  0  0  0  0  0  0  0  0
   52.2475   -6.4783   -5.8587 C   0  0  0  0  0  0  0  0  0  0  0  0
   51.1222   -4.3396   -6.3766 C   0  0  0  0  0  0  0  0  0  0  0  0
   51.9135   -3.8714   -7.5329 C   0  0  0  0  0  0  0  0  0  0  0  0
   52.9285   -4.5928   -7.9969 N   0  0  0  0  0  0  0  0  0  0  0  0
   48.4242   -3.8661   -4.0300 C   0  0  0  0  0  0  0  0  0  0  0  0
   47.6232   -2.7493   -4.3550 N   0  0  0  0  0  0  0  0  0  0  0  0
   48.1604   -4.5326   -3.0039 O   0  0  0  0  0  0  0  0  0  0  0  0
   47.9776   -1.7700   -4.2400 H   0  0  0  0  0  0  0  0  0  0  0  0
   46.6536   -2.9317   -4.7184 H   0  0  0  0  0  0  0  0  0  0  0  0
   54.7442   -5.0144   -9.4950 N   0  0  0  0  0  0  0  0  0  0  0  0
   54.6055   -6.0740   -9.3457 H   0  0  0  0  0  0  0  0  0  0  0  0
   57.1611   -5.0007   -9.5581 C   0  0  0  0  0  0  0  0  0  0  0  0
   58.3271   -4.6945  -10.1963 C   0  0  0  0  0  0  0  0  0  0  0  0
   58.3150   -4.0162  -11.3925 C   0  0  0  0  0  0  0  0  0  0  0  0
   57.1387   -3.6333  -11.9696 C   0  0  0  0  0  0  0  0  0  0  0  0
   55.9545   -3.9597  -11.2965 C   0  0  0  0  0  0  0  0  0  0  0  0
   55.9159   -4.6314  -10.1090 C   0  0  0  0  0  0  0  0  0  0  0  0
   56.8496   -5.9915   -5.8349 C   0  0  0  0  0  0  0  0  0  0  0  0
   56.7474   -5.1002   -7.0574 C   0  0  0  0  0  0  0  0  0  0  0  0
   56.3040   -3.9496   -6.9303 O   0  0  0  0  0  0  0  0  0  0  0  0
   57.1662   -5.6283   -8.2933 N   0  0  0  0  0  0  0  0  0  0  0  0
   57.4998   -6.6594   -8.2178 H   0  0  0  0  0  0  0  0  0  0  0  0
 28 29  1  0  0  0
 29 30  2  0  0  0
 29 31  1  0  0  0
 31 22  1  0  0  0
 22 23  2  0  0  0
 23 24  1  0  0  0
 24 25  2  0  0  0
 25 26  1  0  0  0
 26 27  2  0  0  0
 27 20  1  0  0  0
 20  1  1  0  0  0
  1  2  2  0  0  0
  2  3  1  0  0  0
  3  4  2  0  0  0
  4  5  1  0  0  0
  5  6  1  0  0  0
  6  7  1  0  0  0
  7  8  1  0  0  0
  8  9  2  0  0  0
  9 10  1  0  0  0
 10 11  1  0  0  0
 10 12  1  0  0  0
 12 13  1  0  0  0
 13 14  2  0  0  0
  8 15  1  0  0  0
 15 16  1  0  0  0
 15 17  2  0  0  0
 27 22  1  0  0  0
 14  1  1  0  0  0
 13  4  1  0  0  0
 12  7  2  0  0  0
 31 32  1  0  0  0
 20 21  1  0  0  0
 16 18  1  0  0  0
 16 19  1  0  0  0
M  END
> <minimizedAffinity>
-8.78727

> <CNNscore>
0.6933783293

> <CNNaffinity>
7.3061318398

> <CNN_VS>
5.0659136772

> <CNNaffinity_variance>
0.1927457154

$$$$
[H]c1nc(N([H])c2c([H])c([H])c([H])c([H])c2N([H])C(=O)C([H])([H])[H])nc2c1C([H])([H])C([H])([H])c1c(C(=O)N([H])[H])nn(C([H])([H])[H])c1-2


 32 35  0  0  0  0  0  0  0  0999 V2000
   56.1560   -5.7974   -6.9684 C   0  0  0  0  0  0  0  0  0  0  0  0
   55.8624   -6.6604   -6.0019 N   0  0  0  0  0  0  0  0  0  0  0  0
   54.6827   -6.7815   -5.3760 C   0  0  0  0  0  0  0  0  0  0  0  0
   53.6441   -5.9440   -5.7438 C   0  0  0  0  0  0  0  0  0  0  0  0
   52.3694   -6.0892   -5.0534 C   0  0  0  0  0  0  0  0  0  0  0  0
   51.2786   -5.1876   -5.4613 C   0  0  0  0  0  0  0  0  0  0  0  0
   51.6310   -4.2399   -6.5352 C   0  0  0  0  0  0  0  0  0  0  0  0
   50.8161   -3.2820   -7.1164 C   0  0  0  0  0  0  0  0  0  0  0  0
   51.5866   -2.6639   -8.0499 N   0  0  0  0  0  0  0  0  0  0  0  0
   52.8001   -3.1807   -8.0696 N   0  0  0  0  0  0  0  0  0  0  0  0
   53.9282   -2.8111   -8.9151 C   0  0  0  0  0  0  0  0  0  0  0  0
   52.8274   -4.1412   -7.1466 C   0  0  0  0  0  0  0  0  0  0  0  0
   53.9246   -5.0435   -6.7410 C   0  0  0  0  0  0  0  0  0  0  0  0
   55.1154   -4.9691   -7.3263 N   0  0  0  0  0  0  0  0  0  0  0  0
   49.4257   -2.9936   -6.7984 C   0  0  0  0  0  0  0  0  0  0  0  0
   48.9965   -2.7471   -5.4758 N   0  0  0  0  0  0  0  0  0  0  0  0
   48.5903   -2.9648   -7.7300 O   0  0  0  0  0  0  0  0  0  0  0  0
   48.9333   -3.5177   -4.7686 H   0  0  0  0  0  0  0  0  0  0  0  0
   48.7403   -1.7599   -5.2203 H   0  0  0  0  0  0  0  0  0  0  0  0
   57.3865   -5.6454   -7.6479 N   0  0  0  0  0  0  0  0  0  0  0  0
   58.2724   -5.9165   -7.0950 H   0  0  0  0  0  0  0  0  0  0  0  0
   58.8142   -5.4549   -9.5898 C   0  0  0  0  0  0  0  0  0  0  0  0
   58.9934   -5.1164  -10.8989 C   0  0  0  0  0  0  0  0  0  0  0  0
   57.9730   -4.5440  -11.6217 C   0  0  0  0  0  0  0  0  0  0  0  0
   56.7583   -4.3008  -11.0483 C   0  0  0  0  0  0  0  0  0  0  0  0
   56.5976   -4.6577   -9.7034 C   0  0  0  0  0  0  0  0  0  0  0  0
   57.5794   -5.2281   -8.9461 C   0  0  0  0  0  0  0  0  0  0  0  0
   61.7381   -7.4707   -8.0638 C   0  0  0  0  0  0  0  0  0  0  0  0
   60.6331   -7.1378   -9.0475 C   0  0  0  0  0  0  0  0  0  0  0  0
   60.4328   -7.8940  -10.0090 O   0  0  0  0  0  0  0  0  0  0  0  0
   59.8783   -5.9716   -8.8189 N   0  0  0  0  0  0  0  0  0  0  0  0
   60.2125   -5.4199   -7.9449 H   0  0  0  0  0  0  0  0  0  0  0  0
 28 29  1  0  0  0
 29 30  2  0  0  0
 29 31  1  0  0  0
 31 22  1  0  0  0
 22 23  2  0  0  0
 23 24  1  0  0  0
 24 25  2  0  0  0
 25 26  1  0  0  0
 26 27  2  0  0  0
 27 20  1  0  0  0
 20  1  1  0  0  0
  1  2  2  0  0  0
  2  3  1  0  0  0
  3  4  2  0  0  0
  4  5  1  0  0  0
  5  6  1  0  0  0
  6  7  1  0  0  0
  7  8  1  0  0  0
  8  9  2  0  0  0
  9 10  1  0  0  0
 10 11  1  0  0  0
 10 12  1  0  0  0
 12 13  1  0  0  0
 13 14  2  0  0  0
  8 15  1  0  0  0
 15 16  1  0  0  0
 15 17  2  0  0  0
 27 22  1  0  0  0
 14  1  1  0  0  0
 13  4  1  0  0  0
 12  7  2  0  0  0
 31 32  1  0  0  0
 20 21  1  0  0  0
 16 18  1  0  0  0
 16 19  1  0  0  0
M  END
> <minimizedAffinity>
-9.33272

> <CNNscore>
0.5693631172

> <CNNaffinity>
6.9589819908

> <CNN_VS>
3.9621877670

> <CNNaffinity_variance>
0.1308004111

$$$$
[H]c1nc(N([H])c2c([H])c([H])c([H])c([H])c2N([H])C(=O)C([H])([H])[H])nc2c1C([H])([H])C([H])([H])c1c(C(=O)N([H])[H])nn(C([H])([H])[H])c1-2


 32 35  0  0  0  0  0  0  0  0999 V2000
   53.3699   -5.6539   -6.6689 C   0  0  0  0  0  0  0  0  0  0  0  0
   53.2738   -4.8006   -7.6826 N   0  0  0  0  0  0  0  0  0  0  0  0
   52.2891   -3.9128   -7.8836 C   0  0  0  0  0  0  0  0  0  0  0  0
   51.2530   -3.8483   -6.9683 C   0  0  0  0  0  0  0  0  0  0  0  0
   50.1916   -2.8782   -7.2023 C   0  0  0  0  0  0  0  0  0  0  0  0
   49.0995   -2.8270   -6.2153 C   0  0  0  0  0  0  0  0  0  0  0  0
   49.2304   -3.7843   -5.1009 C   0  0  0  0  0  0  0  0  0  0  0  0
   48.3635   -3.9620   -4.0348 C   0  0  0  0  0  0  0  0  0  0  0  0
   48.9102   -4.9512   -3.2798 N   0  0  0  0  0  0  0  0  0  0  0  0
   50.0380   -5.3772   -3.8150 N   0  0  0  0  0  0  0  0  0  0  0  0
   50.9342   -6.4188   -3.3292 C   0  0  0  0  0  0  0  0  0  0  0  0
   50.2333   -4.6663   -4.9248 C   0  0  0  0  0  0  0  0  0  0  0  0
   51.3310   -4.7212   -5.9120 C   0  0  0  0  0  0  0  0  0  0  0  0
   52.3336   -5.5810   -5.7643 N   0  0  0  0  0  0  0  0  0  0  0  0
   47.1257   -3.2432   -3.7729 C   0  0  0  0  0  0  0  0  0  0  0  0
   46.0328   -3.8502   -3.1161 N   0  0  0  0  0  0  0  0  0  0  0  0
   47.0337   -2.0513   -4.1437 O   0  0  0  0  0  0  0  0  0  0  0  0
   45.4403   -4.5713   -3.5924 H   0  0  0  0  0  0  0  0  0  0  0  0
   45.8302   -3.5546   -2.1277 H   0  0  0  0  0  0  0  0  0  0  0  0
   54.3931   -6.5994   -6.4279 N   0  0  0  0  0  0  0  0  0  0  0  0
   54.6336   -7.2597   -7.2466 H   0  0  0  0  0  0  0  0  0  0  0  0
   56.5239   -6.4599   -5.2941 C   0  0  0  0  0  0  0  0  0  0  0  0
   57.2627   -6.5278   -4.1495 C   0  0  0  0  0  0  0  0  0  0  0  0
   56.6770   -6.8802   -2.9562 C   0  0  0  0  0  0  0  0  0  0  0  0
   55.3448   -7.1702   -2.8877 C   0  0  0  0  0  0  0  0  0  0  0  0
   54.6066   -7.0927   -4.0755 C   0  0  0  0  0  0  0  0  0  0  0  0
   55.1428   -6.7473   -5.2822 C   0  0  0  0  0  0  0  0  0  0  0  0
   57.8087   -4.9340   -8.6050 C   0  0  0  0  0  0  0  0  0  0  0  0
   57.0491   -4.9901   -7.2938 C   0  0  0  0  0  0  0  0  0  0  0  0
   56.3893   -4.0038   -6.9357 O   0  0  0  0  0  0  0  0  0  0  0  0
   57.1306   -6.1742   -6.5367 N   0  0  0  0  0  0  0  0  0  0  0  0
   57.7746   -6.9207   -6.9928 H   0  0  0  0  0  0  0  0  0  0  0  0
 28 29  1  0  0  0
 29 30  2  0  0  0
 29 31  1  0  0  0
 31 22  1  0  0  0
 22 23  2  0  0  0
 23 24  1  0  0  0
 24 25  2  0  0  0
 25 26  1  0  0  0
 26 27  2  0  0  0
 27 20  1  0  0  0
 20  1  1  0  0  0
  1  2  2  0  0  0
  2  3  1  0  0  0
  3  4  2  0  0  0
  4  5  1  0  0  0
  5  6  1  0  0  0
  6  7  1  0  0  0
  7  8  1  0  0  0
  8  9  2  0  0  0
  9 10  1  0  0  0
 10 11  1  0  0  0
 10 12  1  0  0  0
 12 13  1  0  0  0
 13 14  2  0  0  0
  8 15  1  0  0  0
 15 16  1  0  0  0
 15 17  2  0  0  0
 27 22  1  0  0  0
 14  1  1  0  0  0
 13  4  1  0  0  0
 12  7  2  0  0  0
 31 32  1  0  0  0
 20 21  1  0  0  0
 16 18  1  0  0  0
 16 19  1  0  0  0
M  END
> <minimizedAffinity>
-9.38102

> <CNNscore>
0.5306851864

> <CNNaffinity>
7.0593810081

> <CNN_VS>
3.7463090420

> <CNNaffinity_variance>
0.1022811532

$$$$
[H]c1nc(N([H])c2c([H])c([H])c([H])c([H])c2N([H])C(=O)C([H])([H])[H])nc2c1C([H])([H])C([H])([H])c1c(C(=O)N([H])[H])nn(C([H])([H])[H])c1-2


 32 35  0  0  0  0  0  0  0  0999 V2000
   54.8238   -5.0177   -7.9998 C   0  0  0  0  0  0  0  0  0  0  0  0
   55.0583   -5.9998   -7.1363 N   0  0  0  0  0  0  0  0  0  0  0  0
   54.2729   -6.3613   -6.1113 C   0  0  0  0  0  0  0  0  0  0  0  0
   53.0940   -5.6682   -5.8985 C   0  0  0  0  0  0  0  0  0  0  0  0
   52.2529   -6.0742   -4.7804 C   0  0  0  0  0  0  0  0  0  0  0  0
   51.0032   -5.3228   -4.5731 C   0  0  0  0  0  0  0  0  0  0  0  0
   50.7673   -4.2386   -5.5448 C   0  0  0  0  0  0  0  0  0  0  0  0
   49.6870   -3.3727   -5.5973 C   0  0  0  0  0  0  0  0  0  0  0  0
   49.9217   -2.5592   -6.6606 N   0  0  0  0  0  0  0  0  0  0  0  0
   51.0608   -2.8744   -7.2465 N   0  0  0  0  0  0  0  0  0  0  0  0
   51.6808   -2.2568   -8.4119 C   0  0  0  0  0  0  0  0  0  0  0  0
   51.5763   -3.8977   -6.5667 C   0  0  0  0  0  0  0  0  0  0  0  0
   52.8307   -4.6486   -6.7788 C   0  0  0  0  0  0  0  0  0  0  0  0
   53.6481   -4.3349   -7.7786 N   0  0  0  0  0  0  0  0  0  0  0  0
   48.5388   -3.3369   -4.7043 C   0  0  0  0  0  0  0  0  0  0  0  0
   48.2925   -4.3587   -3.7610 N   0  0  0  0  0  0  0  0  0  0  0  0
   47.7495   -2.3684   -4.7797 O   0  0  0  0  0  0  0  0  0  0  0  0
   47.9548   -5.3057   -4.0562 H   0  0  0  0  0  0  0  0  0  0  0  0
   48.4595   -4.1390   -2.7466 H   0  0  0  0  0  0  0  0  0  0  0  0
   55.6290   -4.6130   -9.0892 N   0  0  0  0  0  0  0  0  0  0  0  0
   55.1765   -3.9242   -9.7856 H   0  0  0  0  0  0  0  0  0  0  0  0
   57.4884   -4.7805  -10.6254 C   0  0  0  0  0  0  0  0  0  0  0  0
   58.8023   -5.0545  -10.8685 C   0  0  0  0  0  0  0  0  0  0  0  0
   59.6191   -5.5210   -9.8652 C   0  0  0  0  0  0  0  0  0  0  0  0
   59.1364   -5.7210   -8.6041 C   0  0  0  0  0  0  0  0  0  0  0  0
   57.7847   -5.4318   -8.3782 C   0  0  0  0  0  0  0  0  0  0  0  0
   56.9359   -4.9669   -9.3407 C   0  0  0  0  0  0  0  0  0  0  0  0
   55.8333   -3.6049  -13.9147 C   0  0  0  0  0  0  0  0  0  0  0  0
   56.9611   -3.9937  -12.9785 C   0  0  0  0  0  0  0  0  0  0  0  0
   58.1284   -3.9634  -13.3944 O   0  0  0  0  0  0  0  0  0  0  0  0
   56.6245   -4.3749  -11.6658 N   0  0  0  0  0  0  0  0  0  0  0  0
   55.5528   -4.3672  -11.4883 H   0  0  0  0  0  0  0  0  0  0  0  0
 28 29  1  0  0  0
 29 30  2  0  0  0
 29 31  1  0  0  0
 31 22  1  0  0  0
 22 23  2  0  0  0
 23 24  1  0  0  0
 24 25  2  0  0  0
 25 26  1  0  0  0
 26 27  2  0  0  0
 27 20  1  0  0  0
 20  1  1  0  0  0
  1  2  2  0  0  0
  2  3  1  0  0  0
  3  4  2  0  0  0
  4  5  1  0  0  0
  5  6  1  0  0  0
  6  7  1  0  0  0
  7  8  1  0  0  0
  8  9  2  0  0  0
  9 10  1  0  0  0
 10 11  1  0  0  0
 10 12  1  0  0  0
 12 13  1  0  0  0
 13 14  2  0  0  0
  8 15  1  0  0  0
 15 16  1  0  0  0
 15 17  2  0  0  0
 27 22  1  0  0  0
 14  1  1  0  0  0
 13  4  1  0  0  0
 12  7  2  0  0  0
 31 32  1  0  0  0
 20 21  1  0  0  0
 16 18  1  0  0  0
 16 19  1  0  0  0
M  END
> <minimizedAffinity>
-9.29779

> <CNNscore>
0.5284545422

> <CNNaffinity>
7.1493363380

> <CNN_VS>
3.7780992985

> <CNNaffinity_variance>
0.1257104278

$$$$
[H]c1nc(N([H])c2c([H])c([H])c([H])c([H])c2N([H])C(=O)C([H])([H])[H])nc2c1C([H])([H])C([H])([H])c1c(C(=O)N([H])[H])nn(C([H])([H])[H])c1-2


 32 35  0  0  0  0  0  0  0  0999 V2000
   53.5255   -3.0674   -8.8249 C   0  0  0  0  0  0  0  0  0  0  0  0
   53.2879   -3.1043  -10.1315 N   0  0  0  0  0  0  0  0  0  0  0  0
   54.1061   -3.5934  -11.0746 C   0  0  0  0  0  0  0  0  0  0  0  0
   55.3268   -4.1201  -10.6899 C   0  0  0  0  0  0  0  0  0  0  0  0
   56.2032   -4.6470  -11.7275 C   0  0  0  0  0  0  0  0  0  0  0  0
   57.4969   -5.2025  -11.2951 C   0  0  0  0  0  0  0  0  0  0  0  0
   57.7356   -5.1491   -9.8406 C   0  0  0  0  0  0  0  0  0  0  0  0
   58.8528   -5.5929   -9.1518 C   0  0  0  0  0  0  0  0  0  0  0  0
   58.6040   -5.3283   -7.8420 N   0  0  0  0  0  0  0  0  0  0  0  0
   57.4224   -4.7600   -7.6973 N   0  0  0  0  0  0  0  0  0  0  0  0
   56.7746   -4.3182   -6.4689 C   0  0  0  0  0  0  0  0  0  0  0  0
   56.8930   -4.6507   -8.9150 C   0  0  0  0  0  0  0  0  0  0  0  0
   55.5942   -4.0926   -9.3439 C   0  0  0  0  0  0  0  0  0  0  0  0
   54.7429   -3.5940   -8.4534 N   0  0  0  0  0  0  0  0  0  0  0  0
   60.0456   -6.2132   -9.7085 C   0  0  0  0  0  0  0  0  0  0  0  0
   60.6387   -7.3532   -9.1227 N   0  0  0  0  0  0  0  0  0  0  0  0
   60.5561   -5.7162  -10.7375 O   0  0  0  0  0  0  0  0  0  0  0  0
   61.1675   -7.2918   -8.2202 H   0  0  0  0  0  0  0  0  0  0  0  0
   60.5328   -8.2717   -9.6231 H   0  0  0  0  0  0  0  0  0  0  0  0
   52.6854   -2.5609   -7.8067 N   0  0  0  0  0  0  0  0  0  0  0  0
   52.9813   -1.6198   -7.3697 H   0  0  0  0  0  0  0  0  0  0  0  0
   51.4974   -4.4333   -6.8432 C   0  0  0  0  0  0  0  0  0  0  0  0
   50.3626   -4.9648   -6.3046 C   0  0  0  0  0  0  0  0  0  0  0  0
   49.2063   -4.2238   -6.2326 C   0  0  0  0  0  0  0  0  0  0  0  0
   49.1656   -2.9409   -6.6972 C   0  0  0  0  0  0  0  0  0  0  0  0
   50.3432   -2.4163   -7.2449 C   0  0  0  0  0  0  0  0  0  0  0  0
   51.5138   -3.1119   -7.3374 C   0  0  0  0  0  0  0  0  0  0  0  0
   54.5751   -6.7365   -6.4384 C   0  0  0  0  0  0  0  0  0  0  0  0
   53.3301   -5.9803   -6.0170 C   0  0  0  0  0  0  0  0  0  0  0  0
   52.9418   -6.0633   -4.8428 O   0  0  0  0  0  0  0  0  0  0  0  0
   52.6666   -5.2108   -6.9915 N   0  0  0  0  0  0  0  0  0  0  0  0
   53.1342   -5.2783   -7.9696 H   0  0  0  0  0  0  0  0  0  0  0  0
 28 29  1  0  0  0
 29 30  2  0  0  0
 29 31  1  0  0  0
 31 22  1  0  0  0
 22 23  2  0  0  0
 23 24  1  0  0  0
 24 25  2  0  0  0
 25 26  1  0  0  0
 26 27  2  0  0  0
 27 20  1  0  0  0
 20  1  1  0  0  0
  1  2  2  0  0  0
  2  3  1  0  0  0
  3  4  2  0  0  0
  4  5  1  0  0  0
  5  6  1  0  0  0
  6  7  1  0  0  0
  7  8  1  0  0  0
  8  9  2  0  0  0
  9 10  1  0  0  0
 10 11  1  0  0  0
 10 12  1  0  0  0
 12 13  1  0  0  0
 13 14  2  0  0  0
  8 15  1  0  0  0
 15 16  1  0  0  0
 15 17  2  0  0  0
 27 22  1  0  0  0
 14  1  1  0  0  0
 13  4  1  0  0  0
 12  7  2  0  0  0
 31 32  1  0  0  0
 20 21  1  0  0  0
 16 18  1  0  0  0
 16 19  1  0  0  0
M  END
> <minimizedAffinity>
-7.43062

> <CNNscore>
0.5126806498

> <CNNaffinity>
6.6019272804

> <CNN_VS>
3.3846802711

> <CNNaffinity_variance>
0.2518309951

$$$$
[H]c1nc(N([H])c2c([H])c([H])c([H])c([H])c2N([H])C(=O)C([H])([H])[H])nc2c1C([H])([H])C([H])([H])c1c(C(=O)N([H])[H])nn(C([H])([H])[H])c1-2


 32 35  0  0  0  0  0  0  0  0999 V2000
   54.9279   -4.8086   -8.1853 C   0  0  0  0  0  0  0  0  0  0  0  0
   53.9291   -4.1544   -8.7678 N   0  0  0  0  0  0  0  0  0  0  0  0
   52.7007   -3.9668   -8.2636 C   0  0  0  0  0  0  0  0  0  0  0  0
   52.4050   -4.4904   -7.0171 C   0  0  0  0  0  0  0  0  0  0  0  0
   51.0658   -4.2773   -6.4847 C   0  0  0  0  0  0  0  0  0  0  0  0
   50.7735   -4.8432   -5.1567 C   0  0  0  0  0  0  0  0  0  0  0  0
   51.8987   -5.5642   -4.5326 C   0  0  0  0  0  0  0  0  0  0  0  0
   51.9167   -6.1944   -3.2989 C   0  0  0  0  0  0  0  0  0  0  0  0
   53.1676   -6.7102   -3.1699 N   0  0  0  0  0  0  0  0  0  0  0  0
   53.8975   -6.4352   -4.2338 N   0  0  0  0  0  0  0  0  0  0  0  0
   55.2832   -6.7997   -4.5001 C   0  0  0  0  0  0  0  0  0  0  0  0
   53.1244   -5.7369   -5.0643 C   0  0  0  0  0  0  0  0  0  0  0  0
   53.4223   -5.1709   -6.3960 C   0  0  0  0  0  0  0  0  0  0  0  0
   54.6224   -5.3253   -6.9455 N   0  0  0  0  0  0  0  0  0  0  0  0
   50.8279   -6.2879   -2.3381 C   0  0  0  0  0  0  0  0  0  0  0  0
   50.9139   -7.1012   -1.1868 N   0  0  0  0  0  0  0  0  0  0  0  0
   49.7866   -5.6249   -2.5446 O   0  0  0  0  0  0  0  0  0  0  0  0
   50.8646   -8.1459   -1.2503 H   0  0  0  0  0  0  0  0  0  0  0  0
   51.0297   -6.6233   -0.2575 H   0  0  0  0  0  0  0  0  0  0  0  0
   56.2318   -5.0226   -8.6883 N   0  0  0  0  0  0  0  0  0  0  0  0
   56.9193   -5.5290   -8.0287 H   0  0  0  0  0  0  0  0  0  0  0  0
   58.0265   -5.0446  -10.3081 C   0  0  0  0  0  0  0  0  0  0  0  0
   58.4886   -4.7934  -11.5666 C   0  0  0  0  0  0  0  0  0  0  0  0
   57.6822   -4.1896  -12.5027 C   0  0  0  0  0  0  0  0  0  0  0  0
   56.4022   -3.8274  -12.1964 C   0  0  0  0  0  0  0  0  0  0  0  0
   55.9495   -4.0963  -10.8985 C   0  0  0  0  0  0  0  0  0  0  0  0
   56.7116   -4.6934   -9.9365 C   0  0  0  0  0  0  0  0  0  0  0  0
   60.8565   -6.6788   -8.2437 C   0  0  0  0  0  0  0  0  0  0  0  0
   60.1479   -6.1628   -9.4811 C   0  0  0  0  0  0  0  0  0  0  0  0
   60.7093   -6.2581  -10.5821 O   0  0  0  0  0  0  0  0  0  0  0  0
   58.8707   -5.5935   -9.3183 N   0  0  0  0  0  0  0  0  0  0  0  0
   58.5504   -5.5708   -8.2806 H   0  0  0  0  0  0  0  0  0  0  0  0
 28 29  1  0  0  0
 29 30  2  0  0  0
 29 31  1  0  0  0
 31 22  1  0  0  0
 22 23  2  0  0  0
 23 24  1  0  0  0
 24 25  2  0  0  0
 25 26  1  0  0  0
 26 27  2  0  0  0
 27 20  1  0  0  0
 20  1  1  0  0  0
  1  2  2  0  0  0
  2  3  1  0  0  0
  3  4  2  0  0  0
  4  5  1  0  0  0
  5  6  1  0  0  0
  6  7  1  0  0  0
  7  8  1  0  0  0
  8  9  2  0  0  0
  9 10  1  0  0  0
 10 11  1  0  0  0
 10 12  1  0  0  0
 12 13  1  0  0  0
 13 14  2  0  0  0
  8 15  1  0  0  0
 15 16  1  0  0  0
 15 17  2  0  0  0
 27 22  1  0  0  0
 14  1  1  0  0  0
 13  4  1  0  0  0
 12  7  2  0  0  0
 31 32  1  0  0  0
 20 21  1  0  0  0
 16 18  1  0  0  0
 16 19  1  0  0  0
M  END
> <minimizedAffinity>
-9.85379

> <CNNscore>
0.5051489472

> <CNNaffinity>
6.8934373856

> <CNN_VS>
3.4822125435

> <CNNaffinity_variance>
0.2097719163

$$$$
[H]c1c([H])c([H])c(-c2nc(C([H])([H])[H])c3c([H])nc(N([H])c4c([H])c(OC([H])([H])[H])c(OC([H])([H])[H])c(OC([H])([H])[H])c4[H])nn23)c([H])c1[H]


 30 33  0  0  0  0  0  0  0  0999 V2000
   53.4293   -3.2618   -9.2313 C   0  0  0  0  0  0  0  0  0  0  0  0
   52.3664   -2.4692   -9.3825 N   0  0  0  0  0  0  0  0  0  0  0  0
   51.3770   -2.5114   -8.4888 C   0  0  0  0  0  0  0  0  0  0  0  0
   51.4409   -3.3629   -7.4137 C   0  0  0  0  0  0  0  0  0  0  0  0
   50.5879   -3.5949   -6.3841 C   0  0  0  0  0  0  0  0  0  0  0  0
   49.2833   -2.9026   -6.1975 C   0  0  0  0  0  0  0  0  0  0  0  0
   51.1626   -4.5352   -5.6239 N   0  0  0  0  0  0  0  0  0  0  0  0
   52.3617   -4.9152   -6.1353 C   0  0  0  0  0  0  0  0  0  0  0  0
   52.5199   -4.1779   -7.2468 N   0  0  0  0  0  0  0  0  0  0  0  0
   53.4467   -4.0835   -8.1565 N   0  0  0  0  0  0  0  0  0  0  0  0
   53.2431   -5.9132   -5.5581 C   0  0  0  0  0  0  0  0  0  0  0  0
   54.0580   -6.7158   -6.2993 C   0  0  0  0  0  0  0  0  0  0  0  0
   54.9028   -7.6752   -5.7171 C   0  0  0  0  0  0  0  0  0  0  0  0
   54.9070   -7.8086   -4.3490 C   0  0  0  0  0  0  0  0  0  0  0  0
   54.0994   -7.0169   -3.5744 C   0  0  0  0  0  0  0  0  0  0  0  0
   53.2952   -6.0996   -4.1716 C   0  0  0  0  0  0  0  0  0  0  0  0
   54.4800   -3.2512  -10.1355 N   0  0  0  0  0  0  0  0  0  0  0  0
   54.3326   -2.6517  -11.0181 H   0  0  0  0  0  0  0  0  0  0  0  0
   57.4492   -5.1239   -8.9322 C   0  0  0  0  0  0  0  0  0  0  0  0
   56.2279   -4.4576   -8.9212 C   0  0  0  0  0  0  0  0  0  0  0  0
   55.7091   -3.9078  -10.0608 C   0  0  0  0  0  0  0  0  0  0  0  0
   56.4629   -4.0420  -11.2485 C   0  0  0  0  0  0  0  0  0  0  0  0
   57.6644   -4.6893  -11.2917 C   0  0  0  0  0  0  0  0  0  0  0  0
   58.1366   -5.2233  -10.1154 C   0  0  0  0  0  0  0  0  0  0  0  0
   57.2099   -5.4547   -6.5607 C   0  0  0  0  0  0  0  0  0  0  0  0
   57.9208   -5.6572   -7.7575 O   0  0  0  0  0  0  0  0  0  0  0  0
   58.4094   -4.8246  -12.4548 O   0  0  0  0  0  0  0  0  0  0  0  0
   59.2124   -3.7252  -12.8430 C   0  0  0  0  0  0  0  0  0  0  0  0
   59.3400   -5.8819  -10.1177 O   0  0  0  0  0  0  0  0  0  0  0  0
   60.2410   -5.9108   -9.0457 C   0  0  0  0  0  0  0  0  0  0  0  0
 25 26  1  0  0  0
 26 19  1  0  0  0
 19 20  2  0  0  0
 20 21  1  0  0  0
 21 17  1  0  0  0
 17  1  1  0  0  0
  1  2  1  0  0  0
  2  3  2  0  0  0
  3  4  1  0  0  0
  4  5  2  0  0  0
  5  6  1  0  0  0
  5  7  1  0  0  0
  7  8  2  0  0  0
  8 11  1  0  0  0
 11 12  2  0  0  0
 12 13  1  0  0  0
 13 14  2  0  0  0
 14 15  1  0  0  0
 15 16  2  0  0  0
  8  9  1  0  0  0
  9 10  1  0  0  0
 21 22  2  0  0  0
 22 23  1  0  0  0
 23 27  1  0  0  0
 27 28  1  0  0  0
 23 24  2  0  0  0
 24 29  1  0  0  0
 29 30  1  0  0  0
 24 19  1  0  0  0
 10  1  2  0  0  0
  9  4  1  0  0  0
 16 11  1  0  0  0
 17 18  1  0  0  0
M  END
> <minimizedAffinity>
-9.73237

> <CNNscore>
0.9849454761

> <CNNaffinity>
7.4378328323

> <CNN_VS>
7.3258600235

> <CNNaffinity_variance>
0.0578380004

$$$$
[H]c1c([H])c([H])c(-c2nc(C([H])([H])[H])c3c([H])nc(N([H])c4c([H])c(OC([H])([H])[H])c(OC([H])([H])[H])c(OC([H])([H])[H])c4[H])nn23)c([H])c1[H]


 30 33  0  0  0  0  0  0  0  0999 V2000
   53.5276   -3.3856   -9.4174 C   0  0  0  0  0  0  0  0  0  0  0  0
   52.4856   -2.5690   -9.5850 N   0  0  0  0  0  0  0  0  0  0  0  0
   51.5062   -2.5516   -8.6795 C   0  0  0  0  0  0  0  0  0  0  0  0
   51.5592   -3.3662   -7.5756 C   0  0  0  0  0  0  0  0  0  0  0  0
   50.7126   -3.5374   -6.5290 C   0  0  0  0  0  0  0  0  0  0  0  0
   49.4302   -2.8022   -6.3527 C   0  0  0  0  0  0  0  0  0  0  0  0
   51.2699   -4.4662   -5.7421 N   0  0  0  0  0  0  0  0  0  0  0  0
   52.4517   -4.8978   -6.2529 C   0  0  0  0  0  0  0  0  0  0  0  0
   52.6170   -4.2050   -7.3917 N   0  0  0  0  0  0  0  0  0  0  0  0
   53.5350   -4.1691   -8.3144 N   0  0  0  0  0  0  0  0  0  0  0  0
   53.3117   -5.8994   -5.6503 C   0  0  0  0  0  0  0  0  0  0  0  0
   54.0599   -6.7809   -6.3721 C   0  0  0  0  0  0  0  0  0  0  0  0
   54.8853   -7.7420   -5.7654 C   0  0  0  0  0  0  0  0  0  0  0  0
   54.9397   -7.7945   -4.3929 C   0  0  0  0  0  0  0  0  0  0  0  0
   54.1998   -6.9223   -3.6375 C   0  0  0  0  0  0  0  0  0  0  0  0
   53.4125   -6.0059   -4.2581 C   0  0  0  0  0  0  0  0  0  0  0  0
   54.5673   -3.4367  -10.3329 N   0  0  0  0  0  0  0  0  0  0  0  0
   54.3766   -2.9705  -11.2850 H   0  0  0  0  0  0  0  0  0  0  0  0
   57.9936   -4.7043  -10.9844 C   0  0  0  0  0  0  0  0  0  0  0  0
   56.7364   -4.1524  -11.2091 C   0  0  0  0  0  0  0  0  0  0  0  0
   55.8335   -4.0063  -10.1925 C   0  0  0  0  0  0  0  0  0  0  0  0
   56.2274   -4.4392   -8.9063 C   0  0  0  0  0  0  0  0  0  0  0  0
   57.4533   -4.9850   -8.6539 C   0  0  0  0  0  0  0  0  0  0  0  0
   58.3208   -5.1065   -9.7143 C   0  0  0  0  0  0  0  0  0  0  0  0
   59.1228   -3.7143  -12.8648 C   0  0  0  0  0  0  0  0  0  0  0  0
   58.8601   -4.8256  -12.0434 O   0  0  0  0  0  0  0  0  0  0  0  0
   57.8461   -5.4120   -7.3932 O   0  0  0  0  0  0  0  0  0  0  0  0
   56.9376   -5.2092   -6.3267 C   0  0  0  0  0  0  0  0  0  0  0  0
   59.5624   -5.6497   -9.5011 O   0  0  0  0  0  0  0  0  0  0  0  0
   59.8948   -6.9954   -9.7021 C   0  0  0  0  0  0  0  0  0  0  0  0
 25 26  1  0  0  0
 26 19  1  0  0  0
 19 20  2  0  0  0
 20 21  1  0  0  0
 21 17  1  0  0  0
 17  1  1  0  0  0
  1  2  1  0  0  0
  2  3  2  0  0  0
  3  4  1  0  0  0
  4  5  2  0  0  0
  5  6  1  0  0  0
  5  7  1  0  0  0
  7  8  2  0  0  0
  8 11  1  0  0  0
 11 12  2  0  0  0
 12 13  1  0  0  0
 13 14  2  0  0  0
 14 15  1  0  0  0
 15 16  2  0  0  0
  8  9  1  0  0  0
  9 10  1  0  0  0
 21 22  2  0  0  0
 22 23  1  0  0  0
 23 27  1  0  0  0
 27 28  1  0  0  0
 23 24  2  0  0  0
 24 29  1  0  0  0
 29 30  1  0  0  0
 24 19  1  0  0  0
 10  1  2  0  0  0
  9  4  1  0  0  0
 16 11  1  0  0  0
 17 18  1  0  0  0
M  END
> <minimizedAffinity>
-9.16922

> <CNNscore>
0.9815328121

> <CNNaffinity>
7.4042634964

> <CNN_VS>
7.2675275803

> <CNNaffinity_variance>
0.0646473020

$$$$
[H]c1c([H])c([H])c(-c2nc(C([H])([H])[H])c3c([H])nc(N([H])c4c([H])c(OC([H])([H])[H])c(OC([H])([H])[H])c(OC([H])([H])[H])c4[H])nn23)c([H])c1[H]


 30 33  0  0  0  0  0  0  0  0999 V2000
   52.6858   -3.2945   -8.6072 C   0  0  0  0  0  0  0  0  0  0  0  0
   53.0314   -3.0291   -9.8686 N   0  0  0  0  0  0  0  0  0  0  0  0
   54.2501   -3.3538  -10.3031 C   0  0  0  0  0  0  0  0  0  0  0  0
   55.1537   -3.9588   -9.4649 C   0  0  0  0  0  0  0  0  0  0  0  0
   56.4291   -4.3820   -9.6541 C   0  0  0  0  0  0  0  0  0  0  0  0
   57.1760   -4.2620  -10.9362 C   0  0  0  0  0  0  0  0  0  0  0  0
   56.8307   -4.9003   -8.4868 N   0  0  0  0  0  0  0  0  0  0  0  0
   55.8494   -4.8227   -7.5514 C   0  0  0  0  0  0  0  0  0  0  0  0
   54.8146   -4.2356   -8.1747 N   0  0  0  0  0  0  0  0  0  0  0  0
   53.6101   -3.8913   -7.8197 N   0  0  0  0  0  0  0  0  0  0  0  0
   55.9547   -5.2924   -6.1824 C   0  0  0  0  0  0  0  0  0  0  0  0
   55.9229   -4.4658   -5.0992 C   0  0  0  0  0  0  0  0  0  0  0  0
   56.0268   -4.9446   -3.7827 C   0  0  0  0  0  0  0  0  0  0  0  0
   56.1655   -6.2972   -3.5807 C   0  0  0  0  0  0  0  0  0  0  0  0
   56.2011   -7.1560   -4.6485 C   0  0  0  0  0  0  0  0  0  0  0  0
   56.0978   -6.6576   -5.9077 C   0  0  0  0  0  0  0  0  0  0  0  0
   51.4307   -2.9744   -8.1134 N   0  0  0  0  0  0  0  0  0  0  0  0
   50.8317   -2.3322   -8.7370 H   0  0  0  0  0  0  0  0  0  0  0  0
   49.2713   -3.1533   -5.1007 C   0  0  0  0  0  0  0  0  0  0  0  0
   49.8432   -2.6764   -6.2760 C   0  0  0  0  0  0  0  0  0  0  0  0
   50.8299   -3.3721   -6.9183 C   0  0  0  0  0  0  0  0  0  0  0  0
   51.2461   -4.5927   -6.3405 C   0  0  0  0  0  0  0  0  0  0  0  0
   50.7051   -5.0869   -5.1883 C   0  0  0  0  0  0  0  0  0  0  0  0
   49.7156   -4.3451   -4.5864 C   0  0  0  0  0  0  0  0  0  0  0  0
   46.9675   -2.9081   -4.4500 C   0  0  0  0  0  0  0  0  0  0  0  0
   48.2831   -2.4125   -4.4996 O   0  0  0  0  0  0  0  0  0  0  0  0
   51.1093   -6.2849   -4.6159 O   0  0  0  0  0  0  0  0  0  0  0  0
   52.4983   -6.4740   -4.4185 C   0  0  0  0  0  0  0  0  0  0  0  0
   49.1465   -4.8083   -3.4273 O   0  0  0  0  0  0  0  0  0  0  0  0
   49.8525   -5.3662   -2.3539 C   0  0  0  0  0  0  0  0  0  0  0  0
 25 26  1  0  0  0
 26 19  1  0  0  0
 19 20  2  0  0  0
 20 21  1  0  0  0
 21 17  1  0  0  0
 17  1  1  0  0  0
  1  2  1  0  0  0
  2  3  2  0  0  0
  3  4  1  0  0  0
  4  5  2  0  0  0
  5  6  1  0  0  0
  5  7  1  0  0  0
  7  8  2  0  0  0
  8 11  1  0  0  0
 11 12  2  0  0  0
 12 13  1  0  0  0
 13 14  2  0  0  0
 14 15  1  0  0  0
 15 16  2  0  0  0
  8  9  1  0  0  0
  9 10  1  0  0  0
 21 22  2  0  0  0
 22 23  1  0  0  0
 23 27  1  0  0  0
 27 28  1  0  0  0
 23 24  2  0  0  0
 24 29  1  0  0  0
 29 30  1  0  0  0
 24 19  1  0  0  0
 10  1  2  0  0  0
  9  4  1  0  0  0
 16 11  1  0  0  0
 17 18  1  0  0  0
M  END
> <minimizedAffinity>
-8.57281

> <CNNscore>
0.9403140545

> <CNNaffinity>
7.6626443863

> <CNN_VS>
7.2052922249

> <CNNaffinity_variance>
0.1028507724

$$$$
[H]c1c([H])c([H])c(-c2nc(C([H])([H])[H])c3c([H])nc(N([H])c4c([H])c(OC([H])([H])[H])c(OC([H])([H])[H])c(OC([H])([H])[H])c4[H])nn23)c([H])c1[H]


 30 33  0  0  0  0  0  0  0  0999 V2000
   52.8294   -3.4625   -8.5287 C   0  0  0  0  0  0  0  0  0  0  0  0
   53.1416   -3.2153   -9.8024 N   0  0  0  0  0  0  0  0  0  0  0  0
   54.3667   -3.4954  -10.2498 C   0  0  0  0  0  0  0  0  0  0  0  0
   55.3109   -4.0361   -9.4124 C   0  0  0  0  0  0  0  0  0  0  0  0
   56.6011   -4.4054   -9.6130 C   0  0  0  0  0  0  0  0  0  0  0  0
   57.3206   -4.2856  -10.9108 C   0  0  0  0  0  0  0  0  0  0  0  0
   57.0453   -4.8738   -8.4401 N   0  0  0  0  0  0  0  0  0  0  0  0
   56.0769   -4.8163   -7.4898 C   0  0  0  0  0  0  0  0  0  0  0  0
   55.0061   -4.2937   -8.1097 N   0  0  0  0  0  0  0  0  0  0  0  0
   53.7930   -3.9955   -7.7425 N   0  0  0  0  0  0  0  0  0  0  0  0
   56.2262   -5.2442   -6.1112 C   0  0  0  0  0  0  0  0  0  0  0  0
   55.8932   -4.4670   -5.0423 C   0  0  0  0  0  0  0  0  0  0  0  0
   56.0470   -4.9037   -3.7161 C   0  0  0  0  0  0  0  0  0  0  0  0
   56.5521   -6.1619   -3.4893 C   0  0  0  0  0  0  0  0  0  0  0  0
   56.8969   -6.9690   -4.5422 C   0  0  0  0  0  0  0  0  0  0  0  0
   56.7346   -6.5136   -5.8115 C   0  0  0  0  0  0  0  0  0  0  0  0
   51.5691   -3.1871   -8.0213 N   0  0  0  0  0  0  0  0  0  0  0  0
   50.9576   -2.5303   -8.6169 H   0  0  0  0  0  0  0  0  0  0  0  0
   50.7074   -5.1782   -5.0107 C   0  0  0  0  0  0  0  0  0  0  0  0
   51.3246   -4.8011   -6.1992 C   0  0  0  0  0  0  0  0  0  0  0  0
   50.9772   -3.6463   -6.8440 C   0  0  0  0  0  0  0  0  0  0  0  0
   49.9662   -2.8528   -6.2564 C   0  0  0  0  0  0  0  0  0  0  0  0
   49.3414   -3.1958   -5.0917 C   0  0  0  0  0  0  0  0  0  0  0  0
   49.7324   -4.3676   -4.4868 C   0  0  0  0  0  0  0  0  0  0  0  0
   52.4434   -6.5332   -4.0406 C   0  0  0  0  0  0  0  0  0  0  0  0
   51.0978   -6.3484   -4.4065 O   0  0  0  0  0  0  0  0  0  0  0  0
   48.3481   -2.4209   -4.5095 O   0  0  0  0  0  0  0  0  0  0  0  0
   47.0339   -2.9472   -4.5039 C   0  0  0  0  0  0  0  0  0  0  0  0
   49.1287   -4.7466   -3.3146 O   0  0  0  0  0  0  0  0  0  0  0  0
   49.7668   -5.4184   -2.2642 C   0  0  0  0  0  0  0  0  0  0  0  0
 25 26  1  0  0  0
 26 19  1  0  0  0
 19 20  2  0  0  0
 20 21  1  0  0  0
 21 17  1  0  0  0
 17  1  1  0  0  0
  1  2  1  0  0  0
  2  3  2  0  0  0
  3  4  1  0  0  0
  4  5  2  0  0  0
  5  6  1  0  0  0
  5  7  1  0  0  0
  7  8  2  0  0  0
  8 11  1  0  0  0
 11 12  2  0  0  0
 12 13  1  0  0  0
 13 14  2  0  0  0
 14 15  1  0  0  0
 15 16  2  0  0  0
  8  9  1  0  0  0
  9 10  1  0  0  0
 21 22  2  0  0  0
 22 23  1  0  0  0
 23 27  1  0  0  0
 27 28  1  0  0  0
 23 24  2  0  0  0
 24 29  1  0  0  0
 29 30  1  0  0  0
 24 19  1  0  0  0
 10  1  2  0  0  0
  9  4  1  0  0  0
 16 11  1  0  0  0
 17 18  1  0  0  0
M  END
> <minimizedAffinity>
-8.17421

> <CNNscore>
0.8849216700

> <CNNaffinity>
7.5839300156

> <CNN_VS>
6.7111840248

> <CNNaffinity_variance>
0.1163606271

$$$$
[H]c1c([H])c([H])c(-c2nc(C([H])([H])[H])c3c([H])nc(N([H])c4c([H])c(OC([H])([H])[H])c(OC([H])([H])[H])c(OC([H])([H])[H])c4[H])nn23)c([H])c1[H]


 30 33  0  0  0  0  0  0  0  0999 V2000
   51.5491   -3.9339   -7.5158 C   0  0  0  0  0  0  0  0  0  0  0  0
   50.5836   -3.0537   -7.7877 N   0  0  0  0  0  0  0  0  0  0  0  0
   49.6572   -2.7824   -6.8670 C   0  0  0  0  0  0  0  0  0  0  0  0
   49.6867   -3.4001   -5.6412 C   0  0  0  0  0  0  0  0  0  0  0  0
   48.8812   -3.3036   -4.5535 C   0  0  0  0  0  0  0  0  0  0  0  0
   47.6861   -2.4203   -4.4649 C   0  0  0  0  0  0  0  0  0  0  0  0
   49.3850   -4.1390   -3.6367 N   0  0  0  0  0  0  0  0  0  0  0  0
   50.4926   -4.7708   -4.1038 C   0  0  0  0  0  0  0  0  0  0  0  0
   50.6665   -4.3009   -5.3500 N   0  0  0  0  0  0  0  0  0  0  0  0
   51.5363   -4.5165   -6.2948 N   0  0  0  0  0  0  0  0  0  0  0  0
   51.2811   -5.7401   -3.3658 C   0  0  0  0  0  0  0  0  0  0  0  0
   52.5408   -6.1155   -3.7260 C   0  0  0  0  0  0  0  0  0  0  0  0
   53.2846   -7.0564   -2.9949 C   0  0  0  0  0  0  0  0  0  0  0  0
   52.7200   -7.6188   -1.8748 C   0  0  0  0  0  0  0  0  0  0  0  0
   51.4549   -7.2631   -1.4852 C   0  0  0  0  0  0  0  0  0  0  0  0
   50.7648   -6.3498   -2.2163 C   0  0  0  0  0  0  0  0  0  0  0  0
   52.5317   -4.2462   -8.4425 N   0  0  0  0  0  0  0  0  0  0  0  0
   52.1899   -4.4100   -9.4506 H   0  0  0  0  0  0  0  0  0  0  0  0
   55.8746   -5.0048   -7.0209 C   0  0  0  0  0  0  0  0  0  0  0  0
   54.4927   -4.8800   -7.1243 C   0  0  0  0  0  0  0  0  0  0  0  0
   53.9082   -4.3749   -8.2527 C   0  0  0  0  0  0  0  0  0  0  0  0
   54.7629   -3.9837   -9.3079 C   0  0  0  0  0  0  0  0  0  0  0  0
   56.1222   -4.0931   -9.2367 C   0  0  0  0  0  0  0  0  0  0  0  0
   56.6543   -4.6088   -8.0780 C   0  0  0  0  0  0  0  0  0  0  0  0
   56.0508   -6.8149   -5.4451 C   0  0  0  0  0  0  0  0  0  0  0  0
   56.4061   -5.5198   -5.8638 O   0  0  0  0  0  0  0  0  0  0  0  0
   56.9669   -3.7108  -10.2694 O   0  0  0  0  0  0  0  0  0  0  0  0
   56.6292   -4.1377  -11.5762 C   0  0  0  0  0  0  0  0  0  0  0  0
   58.0159   -4.7351   -7.9680 O   0  0  0  0  0  0  0  0  0  0  0  0
   58.7980   -5.6466   -8.6887 C   0  0  0  0  0  0  0  0  0  0  0  0
 25 26  1  0  0  0
 26 19  1  0  0  0
 19 20  2  0  0  0
 20 21  1  0  0  0
 21 17  1  0  0  0
 17  1  1  0  0  0
  1  2  1  0  0  0
  2  3  2  0  0  0
  3  4  1  0  0  0
  4  5  2  0  0  0
  5  6  1  0  0  0
  5  7  1  0  0  0
  7  8  2  0  0  0
  8 11  1  0  0  0
 11 12  2  0  0  0
 12 13  1  0  0  0
 13 14  2  0  0  0
 14 15  1  0  0  0
 15 16  2  0  0  0
  8  9  1  0  0  0
  9 10  1  0  0  0
 21 22  2  0  0  0
 22 23  1  0  0  0
 23 27  1  0  0  0
 27 28  1  0  0  0
 23 24  2  0  0  0
 24 29  1  0  0  0
 29 30  1  0  0  0
 24 19  1  0  0  0
 10  1  2  0  0  0
  9  4  1  0  0  0
 16 11  1  0  0  0
 17 18  1  0  0  0
M  END
> <minimizedAffinity>
-9.06660

> <CNNscore>
0.7143077254

> <CNNaffinity>
7.2225198746

> <CNN_VS>
5.1591019630

> <CNNaffinity_variance>
0.2594352365

$$$$
[H]c1c([H])c([H])c(-c2nc(C([H])([H])[H])c3c([H])nc(N([H])c4c([H])c(OC([H])([H])[H])c(OC([H])([H])[H])c(OC([H])([H])[H])c4[H])nn23)c([H])c1[H]


 30 33  0  0  0  0  0  0  0  0999 V2000
   55.3361   -4.1986   -8.7597 C   0  0  0  0  0  0  0  0  0  0  0  0
   56.0689   -4.6423   -7.7365 N   0  0  0  0  0  0  0  0  0  0  0  0
   57.3079   -5.0865   -7.9534 C   0  0  0  0  0  0  0  0  0  0  0  0
   57.8376   -5.0920   -9.2201 C   0  0  0  0  0  0  0  0  0  0  0  0
   59.0451   -5.4828   -9.7002 C   0  0  0  0  0  0  0  0  0  0  0  0
   60.1450   -6.0386   -8.8650 C   0  0  0  0  0  0  0  0  0  0  0  0
   59.0141   -5.2635  -11.0205 N   0  0  0  0  0  0  0  0  0  0  0  0
   57.8202   -4.7423  -11.4039 C   0  0  0  0  0  0  0  0  0  0  0  0
   57.1008   -4.6421  -10.2741 N   0  0  0  0  0  0  0  0  0  0  0  0
   55.9012   -4.2238   -9.9888 N   0  0  0  0  0  0  0  0  0  0  0  0
   57.4557   -4.3881  -12.7632 C   0  0  0  0  0  0  0  0  0  0  0  0
   56.2920   -4.7783  -13.3558 C   0  0  0  0  0  0  0  0  0  0  0  0
   55.9614   -4.4225  -14.6738 C   0  0  0  0  0  0  0  0  0  0  0  0
   56.8451   -3.6521  -15.3916 C   0  0  0  0  0  0  0  0  0  0  0  0
   58.0243   -3.2428  -14.8251 C   0  0  0  0  0  0  0  0  0  0  0  0
   58.3111   -3.6057  -13.5481 C   0  0  0  0  0  0  0  0  0  0  0  0
   54.0444   -3.7284   -8.5803 N   0  0  0  0  0  0  0  0  0  0  0  0
   53.7333   -2.9458   -9.2518 H   0  0  0  0  0  0  0  0  0  0  0  0
   50.8763   -4.1803   -6.7016 C   0  0  0  0  0  0  0  0  0  0  0  0
   51.7836   -3.7104   -7.6459 C   0  0  0  0  0  0  0  0  0  0  0  0
   53.0849   -4.1308   -7.6505 C   0  0  0  0  0  0  0  0  0  0  0  0
   53.4712   -5.0595   -6.6579 C   0  0  0  0  0  0  0  0  0  0  0  0
   52.6049   -5.5389   -5.7176 C   0  0  0  0  0  0  0  0  0  0  0  0
   51.3085   -5.0816   -5.7620 C   0  0  0  0  0  0  0  0  0  0  0  0
   49.2297   -2.5467   -6.0605 C   0  0  0  0  0  0  0  0  0  0  0  0
   49.5816   -3.7237   -6.7459 O   0  0  0  0  0  0  0  0  0  0  0  0
   52.9781   -6.4510   -4.7404 O   0  0  0  0  0  0  0  0  0  0  0  0
   54.0535   -6.0910   -3.8930 C   0  0  0  0  0  0  0  0  0  0  0  0
   50.4076   -5.5401   -4.8344 O   0  0  0  0  0  0  0  0  0  0  0  0
   50.2457   -5.0158   -3.5457 C   0  0  0  0  0  0  0  0  0  0  0  0
 25 26  1  0  0  0
 26 19  1  0  0  0
 19 20  2  0  0  0
 20 21  1  0  0  0
 21 17  1  0  0  0
 17  1  1  0  0  0
  1  2  1  0  0  0
  2  3  2  0  0  0
  3  4  1  0  0  0
  4  5  2  0  0  0
  5  6  1  0  0  0
  5  7  1  0  0  0
  7  8  2  0  0  0
  8 11  1  0  0  0
 11 12  2  0  0  0
 12 13  1  0  0  0
 13 14  2  0  0  0
 14 15  1  0  0  0
 15 16  2  0  0  0
  8  9  1  0  0  0
  9 10  1  0  0  0
 21 22  2  0  0  0
 22 23  1  0  0  0
 23 27  1  0  0  0
 27 28  1  0  0  0
 23 24  2  0  0  0
 24 29  1  0  0  0
 29 30  1  0  0  0
 24 19  1  0  0  0
 10  1  2  0  0  0
  9  4  1  0  0  0
 16 11  1  0  0  0
 17 18  1  0  0  0
M  END
> <minimizedAffinity>
-8.87926

> <CNNscore>
0.5823584795

> <CNNaffinity>
6.7608313560

> <CNN_VS>
3.9372274876

> <CNNaffinity_variance>
0.0882668495

$$$$
[H]c1c([H])c([H])c(-c2nc(C([H])([H])[H])c3c([H])nc(N([H])c4c([H])c(OC([H])([H])[H])c(OC([H])([H])[H])c(OC([H])([H])[H])c4[H])nn23)c([H])c1[H]


 30 33  0  0  0  0  0  0  0  0999 V2000
   55.4743   -4.3591   -8.6222 C   0  0  0  0  0  0  0  0  0  0  0  0
   56.2308   -4.8124   -7.6207 N   0  0  0  0  0  0  0  0  0  0  0  0
   57.4747   -5.2271   -7.8664 C   0  0  0  0  0  0  0  0  0  0  0  0
   57.9851   -5.1924   -9.1405 C   0  0  0  0  0  0  0  0  0  0  0  0
   59.1925   -5.5482   -9.6474 C   0  0  0  0  0  0  0  0  0  0  0  0
   60.3154   -6.1019   -8.8420 C   0  0  0  0  0  0  0  0  0  0  0  0
   59.1373   -5.2984  -10.9616 N   0  0  0  0  0  0  0  0  0  0  0  0
   57.9280   -4.7918  -11.3149 C   0  0  0  0  0  0  0  0  0  0  0  0
   57.2240   -4.7322  -10.1726 N   0  0  0  0  0  0  0  0  0  0  0  0
   56.0211   -4.3442   -9.8597 N   0  0  0  0  0  0  0  0  0  0  0  0
   57.5362   -4.4127  -12.6598 C   0  0  0  0  0  0  0  0  0  0  0  0
   56.3496   -4.7709  -13.2266 C   0  0  0  0  0  0  0  0  0  0  0  0
   55.9928   -4.3916  -14.5312 C   0  0  0  0  0  0  0  0  0  0  0  0
   56.8739   -3.6308  -15.2623 C   0  0  0  0  0  0  0  0  0  0  0  0
   58.0758   -3.2536  -14.7218 C   0  0  0  0  0  0  0  0  0  0  0  0
   58.3876   -3.6387  -13.4572 C   0  0  0  0  0  0  0  0  0  0  0  0
   54.1767   -3.9185   -8.4127 N   0  0  0  0  0  0  0  0  0  0  0  0
   53.8459   -3.1158   -9.0502 H   0  0  0  0  0  0  0  0  0  0  0  0
   52.5129   -5.6243   -5.5679 C   0  0  0  0  0  0  0  0  0  0  0  0
   53.5024   -5.2391   -6.4669 C   0  0  0  0  0  0  0  0  0  0  0  0
   53.2332   -4.3733   -7.4906 C   0  0  0  0  0  0  0  0  0  0  0  0
   51.9108   -3.8871   -7.5997 C   0  0  0  0  0  0  0  0  0  0  0  0
   50.9179   -4.2465   -6.7340 C   0  0  0  0  0  0  0  0  0  0  0  0
   51.2468   -5.1194   -5.7233 C   0  0  0  0  0  0  0  0  0  0  0  0
   53.7679   -6.1100   -3.5729 C   0  0  0  0  0  0  0  0  0  0  0  0
   52.8413   -6.4960   -4.5585 O   0  0  0  0  0  0  0  0  0  0  0  0
   49.6175   -3.7726   -6.8357 O   0  0  0  0  0  0  0  0  0  0  0  0
   49.3627   -2.4667   -6.3520 C   0  0  0  0  0  0  0  0  0  0  0  0
   50.2769   -5.5042   -4.8326 O   0  0  0  0  0  0  0  0  0  0  0  0
   50.0323   -4.8901   -3.5977 C   0  0  0  0  0  0  0  0  0  0  0  0
 25 26  1  0  0  0
 26 19  1  0  0  0
 19 20  2  0  0  0
 20 21  1  0  0  0
 21 17  1  0  0  0
 17  1  1  0  0  0
  1  2  1  0  0  0
  2  3  2  0  0  0
  3  4  1  0  0  0
  4  5  2  0  0  0
  5  6  1  0  0  0
  5  7  1  0  0  0
  7  8  2  0  0  0
  8 11  1  0  0  0
 11 12  2  0  0  0
 12 13  1  0  0  0
 13 14  2  0  0  0
 14 15  1  0  0  0
 15 16  2  0  0  0
  8  9  1  0  0  0
  9 10  1  0  0  0
 21 22  2  0  0  0
 22 23  1  0  0  0
 23 27  1  0  0  0
 27 28  1  0  0  0
 23 24  2  0  0  0
 24 29  1  0  0  0
 29 30  1  0  0  0
 24 19  1  0  0  0
 10  1  2  0  0  0
  9  4  1  0  0  0
 16 11  1  0  0  0
 17 18  1  0  0  0
M  END
> <minimizedAffinity>
-8.74482

> <CNNscore>
0.4982707798

> <CNNaffinity>
6.6815743446

> <CNN_VS>
3.3292331696

> <CNNaffinity_variance>
0.0958286971

$$$$
[H]c1c([H])c([H])c(-c2nc(C([H])([H])[H])c3c([H])nc(N([H])c4c([H])c(OC([H])([H])[H])c(OC([H])([H])[H])c(OC([H])([H])[H])c4[H])nn23)c([H])c1[H]


 30 33  0  0  0  0  0  0  0  0999 V2000
   55.8138   -4.1018  -10.2327 C   0  0  0  0  0  0  0  0  0  0  0  0
   56.9441   -4.6847   -9.8283 N   0  0  0  0  0  0  0  0  0  0  0  0
   57.0111   -5.2244   -8.6102 C   0  0  0  0  0  0  0  0  0  0  0  0
   55.9281   -5.1861   -7.7672 C   0  0  0  0  0  0  0  0  0  0  0  0
   55.7391   -5.6505   -6.5063 C   0  0  0  0  0  0  0  0  0  0  0  0
   56.7720   -6.3650   -5.7071 C   0  0  0  0  0  0  0  0  0  0  0  0
   54.4819   -5.3332   -6.1728 N   0  0  0  0  0  0  0  0  0  0  0  0
   53.8562   -4.6775   -7.1840 C   0  0  0  0  0  0  0  0  0  0  0  0
   54.7679   -4.5941   -8.1668 N   0  0  0  0  0  0  0  0  0  0  0  0
   54.7742   -4.0889   -9.3669 N   0  0  0  0  0  0  0  0  0  0  0  0
   52.4888   -4.1927   -7.1517 C   0  0  0  0  0  0  0  0  0  0  0  0
   51.4971   -4.7867   -6.4297 C   0  0  0  0  0  0  0  0  0  0  0  0
   50.1801   -4.2984   -6.4145 C   0  0  0  0  0  0  0  0  0  0  0  0
   49.8817   -3.1798   -7.1557 C   0  0  0  0  0  0  0  0  0  0  0  0
   50.8559   -2.5584   -7.8929 C   0  0  0  0  0  0  0  0  0  0  0  0
   52.1187   -3.0584   -7.8840 C   0  0  0  0  0  0  0  0  0  0  0  0
   55.6996   -3.5283  -11.4896 N   0  0  0  0  0  0  0  0  0  0  0  0
   54.8202   -2.9283  -11.6526 H   0  0  0  0  0  0  0  0  0  0  0  0
   58.7350   -3.7701  -13.6107 C   0  0  0  0  0  0  0  0  0  0  0  0
   57.9332   -3.6513  -12.4799 C   0  0  0  0  0  0  0  0  0  0  0  0
   56.5697   -3.6164  -12.5771 C   0  0  0  0  0  0  0  0  0  0  0  0
   56.0080   -3.7042  -13.8708 C   0  0  0  0  0  0  0  0  0  0  0  0
   56.7675   -3.8209  -14.9995 C   0  0  0  0  0  0  0  0  0  0  0  0
   58.1334   -3.8519  -14.8410 C   0  0  0  0  0  0  0  0  0  0  0  0
   60.8600   -2.6447  -13.7031 C   0  0  0  0  0  0  0  0  0  0  0  0
   60.0991   -3.8010  -13.4525 O   0  0  0  0  0  0  0  0  0  0  0  0
   56.2220   -3.9077  -16.2727 O   0  0  0  0  0  0  0  0  0  0  0  0
   55.6363   -2.7359  -16.8093 C   0  0  0  0  0  0  0  0  0  0  0  0
   58.9310   -3.9689  -15.9511 O   0  0  0  0  0  0  0  0  0  0  0  0
   59.3038   -2.9084  -16.7867 C   0  0  0  0  0  0  0  0  0  0  0  0
 25 26  1  0  0  0
 26 19  1  0  0  0
 19 20  2  0  0  0
 20 21  1  0  0  0
 21 17  1  0  0  0
 17  1  1  0  0  0
  1  2  1  0  0  0
  2  3  2  0  0  0
  3  4  1  0  0  0
  4  5  2  0  0  0
  5  6  1  0  0  0
  5  7  1  0  0  0
  7  8  2  0  0  0
  8 11  1  0  0  0
 11 12  2  0  0  0
 12 13  1  0  0  0
 13 14  2  0  0  0
 14 15  1  0  0  0
 15 16  2  0  0  0
  8  9  1  0  0  0
  9 10  1  0  0  0
 21 22  2  0  0  0
 22 23  1  0  0  0
 23 27  1  0  0  0
 27 28  1  0  0  0
 23 24  2  0  0  0
 24 29  1  0  0  0
 29 30  1  0  0  0
 24 19  1  0  0  0
 10  1  2  0  0  0
  9  4  1  0  0  0
 16 11  1  0  0  0
 17 18  1  0  0  0
M  END
> <minimizedAffinity>
-8.06583

> <CNNscore>
0.4924562573

> <CNNaffinity>
6.5855255127

> <CNN_VS>
3.2430832386

> <CNNaffinity_variance>
0.1587947160

$$$$
[H]c1c([H])c([H])c(-c2nc(C([H])([H])[H])c3c([H])nc(N([H])c4c([H])c(OC([H])([H])[H])c(OC([H])([H])[H])c(OC([H])([H])[H])c4[H])nn23)c([H])c1[H]


 30 33  0  0  0  0  0  0  0  0999 V2000
   55.8568   -4.0271  -10.4409 C   0  0  0  0  0  0  0  0  0  0  0  0
   56.9932   -4.6153  -10.0622 N   0  0  0  0  0  0  0  0  0  0  0  0
   57.0859   -5.1539   -8.8453 C   0  0  0  0  0  0  0  0  0  0  0  0
   56.0229   -5.1093   -7.9775 C   0  0  0  0  0  0  0  0  0  0  0  0
   55.8609   -5.5714   -6.7119 C   0  0  0  0  0  0  0  0  0  0  0  0
   56.9086   -6.2902   -5.9360 C   0  0  0  0  0  0  0  0  0  0  0  0
   54.6134   -5.2474   -6.3498 N   0  0  0  0  0  0  0  0  0  0  0  0
   53.9677   -4.5897   -7.3469 C   0  0  0  0  0  0  0  0  0  0  0  0
   54.8567   -4.5120   -8.3507 N   0  0  0  0  0  0  0  0  0  0  0  0
   54.8376   -4.0081   -9.5512 N   0  0  0  0  0  0  0  0  0  0  0  0
   52.6038   -4.0980   -7.2835 C   0  0  0  0  0  0  0  0  0  0  0  0
   52.1652   -3.0060   -7.9711 C   0  0  0  0  0  0  0  0  0  0  0  0
   50.8392   -2.5492   -7.8934 C   0  0  0  0  0  0  0  0  0  0  0  0
   49.9519   -3.2295   -7.0938 C   0  0  0  0  0  0  0  0  0  0  0  0
   50.3606   -4.3318   -6.3889 C   0  0  0  0  0  0  0  0  0  0  0  0
   51.6506   -4.7451   -6.4881 C   0  0  0  0  0  0  0  0  0  0  0  0
   55.7163   -3.4544  -11.6955 N   0  0  0  0  0  0  0  0  0  0  0  0
   54.8790   -2.7876  -11.8151 H   0  0  0  0  0  0  0  0  0  0  0  0
   56.8931   -3.8845  -15.1886 C   0  0  0  0  0  0  0  0  0  0  0  0
   56.0330   -3.7548  -14.1027 C   0  0  0  0  0  0  0  0  0  0  0  0
   56.5129   -3.6182  -12.8295 C   0  0  0  0  0  0  0  0  0  0  0  0
   57.9160   -3.6155  -12.6608 C   0  0  0  0  0  0  0  0  0  0  0  0
   58.7859   -3.7413  -13.7057 C   0  0  0  0  0  0  0  0  0  0  0  0
   58.2464   -3.8746  -14.9638 C   0  0  0  0  0  0  0  0  0  0  0  0
   55.7460   -2.9125  -17.0675 C   0  0  0  0  0  0  0  0  0  0  0  0
   56.3544   -4.0176  -16.4451 O   0  0  0  0  0  0  0  0  0  0  0  0
   60.1646   -3.7393  -13.5466 O   0  0  0  0  0  0  0  0  0  0  0  0
   60.8181   -2.4837  -13.5626 C   0  0  0  0  0  0  0  0  0  0  0  0
   59.0877   -4.0030  -16.0399 O   0  0  0  0  0  0  0  0  0  0  0  0
   59.5070   -2.9484  -16.8609 C   0  0  0  0  0  0  0  0  0  0  0  0
 25 26  1  0  0  0
 26 19  1  0  0  0
 19 20  2  0  0  0
 20 21  1  0  0  0
 21 17  1  0  0  0
 17  1  1  0  0  0
  1  2  1  0  0  0
  2  3  2  0  0  0
  3  4  1  0  0  0
  4  5  2  0  0  0
  5  6  1  0  0  0
  5  7  1  0  0  0
  7  8  2  0  0  0
  8 11  1  0  0  0
 11 12  2  0  0  0
 12 13  1  0  0  0
 13 14  2  0  0  0
 14 15  1  0  0  0
 15 16  2  0  0  0
  8  9  1  0  0  0
  9 10  1  0  0  0
 21 22  2  0  0  0
 22 23  1  0  0  0
 23 27  1  0  0  0
 27 28  1  0  0  0
 23 24  2  0  0  0
 24 29  1  0  0  0
 29 30  1  0  0  0
 24 19  1  0  0  0
 10  1  2  0  0  0
  9  4  1  0  0  0
 16 11  1  0  0  0
 17 18  1  0  0  0
M  END
> <minimizedAffinity>
-7.73611

> <CNNscore>
0.4761560559

> <CNNaffinity>
6.5742325783

> <CNN_VS>
3.1303606033

> <CNNaffinity_variance>
0.1599908471

$$$$
[H]c1nc(N([H])c2c([H])c([H])c(C(=O)N([H])C3([H])C([H])([H])C([H])([H])N(C([H])([H])[H])C([H])([H])C3([H])[H])c([H])c2OC([H])([H])[H])nc2c1N(C([H])([H])[H])C(=O)[C@@]([H])(C([H])([H])C([H])([H])[H])N2C1([H])C([H])([H])C([H])([H])C([H])([H])C1([H])[H]


 40 44  0  0  0  0  0  0  0  0999 V2000
   55.0362   -3.3121  -10.0662 N   0  0  0  0  0  0  0  0  0  0  0  0
   55.0228   -2.7203  -10.9717 H   0  0  0  0  0  0  0  0  0  0  0  0
   51.6123   -5.5497   -5.6993 C   0  0  0  0  0  0  0  0  0  0  0  0
   52.8994   -5.1746   -6.1901 N   0  0  0  0  0  0  0  0  0  0  0  0
   52.8643   -4.2394   -7.2730 C   0  0  0  0  0  0  0  0  0  0  0  0
   53.8276   -4.0957   -8.1617 N   0  0  0  0  0  0  0  0  0  0  0  0
   53.8726   -3.2494   -9.2359 C   0  0  0  0  0  0  0  0  0  0  0  0
   52.8175   -2.4841   -9.3950 N   0  0  0  0  0  0  0  0  0  0  0  0
   51.7713   -2.5264   -8.5699 C   0  0  0  0  0  0  0  0  0  0  0  0
   51.7628   -3.3931   -7.4979 C   0  0  0  0  0  0  0  0  0  0  0  0
   50.6357   -3.4392   -6.6524 N   0  0  0  0  0  0  0  0  0  0  0  0
   49.4601   -2.5829   -6.8273 C   0  0  0  0  0  0  0  0  0  0  0  0
   50.7146   -4.3837   -5.6001 C   0  0  0  0  0  0  0  0  0  0  0  0
   49.9615   -4.1292   -4.5960 O   0  0  0  0  0  0  0  0  0  0  0  0
   54.1833   -5.6103   -5.8111 C   0  0  0  0  0  0  0  0  0  0  0  0
   54.6038   -5.6395   -4.4151 C   0  0  0  0  0  0  0  0  0  0  0  0
   54.5372   -7.1295   -3.9730 C   0  0  0  0  0  0  0  0  0  0  0  0
   55.2603   -7.7019   -5.1722 C   0  0  0  0  0  0  0  0  0  0  0  0
   54.5267   -6.9862   -6.3325 C   0  0  0  0  0  0  0  0  0  0  0  0
   51.0383   -6.9540   -7.7287 C   0  0  0  0  0  0  0  0  0  0  0  0
   50.8435   -6.6438   -6.2546 C   0  0  0  0  0  0  0  0  0  0  0  0
   56.1962   -4.0581   -9.8477 C   0  0  0  0  0  0  0  0  0  0  0  0
   56.6282   -4.4655   -8.6032 C   0  0  0  0  0  0  0  0  0  0  0  0
   57.8230   -5.1735   -8.4943 C   0  0  0  0  0  0  0  0  0  0  0  0
   58.6072   -5.4933   -9.5760 C   0  0  0  0  0  0  0  0  0  0  0  0
   58.1437   -5.0746  -10.7962 C   0  0  0  0  0  0  0  0  0  0  0  0
   56.9874   -4.3801  -10.9746 C   0  0  0  0  0  0  0  0  0  0  0  0
   59.8508   -6.1807   -9.3993 C   0  0  0  0  0  0  0  0  0  0  0  0
   60.5294   -6.5076  -10.4039 O   0  0  0  0  0  0  0  0  0  0  0  0
   60.3395   -6.5085   -8.1224 N   0  0  0  0  0  0  0  0  0  0  0  0
   59.8070   -6.2405   -7.2697 H   0  0  0  0  0  0  0  0  0  0  0  0
   61.5854   -7.2216   -7.8996 C   0  0  0  0  0  0  0  0  0  0  0  0
   62.8042   -6.3743   -8.0464 C   0  0  0  0  0  0  0  0  0  0  0  0
   64.0043   -7.2910   -7.9451 C   0  0  0  0  0  0  0  0  0  0  0  0
   63.8110   -8.3524   -7.0167 N   0  0  0  0  0  0  0  0  0  0  0  0
   63.4951   -9.6299   -7.6096 C   0  0  0  0  0  0  0  0  0  0  0  0
   62.8868   -8.0771   -5.9526 C   0  0  0  0  0  0  0  0  0  0  0  0
   61.5144   -7.7685   -6.4928 C   0  0  0  0  0  0  0  0  0  0  0  0
   56.5473   -3.9710  -12.2235 O   0  0  0  0  0  0  0  0  0  0  0  0
   57.3924   -3.8112  -13.3233 C   0  0  0  0  0  0  0  0  0  0  0  0
 20 21  1  0  0  0
 21  3  1  0  0  0
  3  4  1  0  0  0
  4 15  1  0  0  0
 15 16  1  0  0  0
 16 17  1  0  0  0
 17 18  1  0  0  0
 18 19  1  0  0  0
  4  5  1  0  0  0
  5  6  2  0  0  0
  6  7  1  0  0  0
  7  1  1  0  0  0
  1 22  1  0  0  0
 22 23  2  0  0  0
 23 24  1  0  0  0
 24 25  2  0  0  0
 25 26  1  0  0  0
 26 27  2  0  0  0
 27 39  1  0  0  0
 39 40  1  0  0  0
 25 28  1  0  0  0
 28 29  2  0  0  0
 28 30  1  0  0  0
 30 32  1  0  0  0
 32 33  1  0  0  0
 33 34  1  0  0  0
 34 35  1  0  0  0
 35 36  1  0  0  0
 35 37  1  0  0  0
 37 38  1  0  0  0
  7  8  2  0  0  0
  8  9  1  0  0  0
  9 10  2  0  0  0
 10 11  1  0  0  0
 11 12  1  0  0  0
 11 13  1  0  0  0
 13 14  2  0  0  0
 13  3  1  0  0  0
 19 15  1  0  0  0
 10  5  1  0  0  0
 27 22  1  0  0  0
 38 32  1  0  0  0
  1  2  1  0  0  0
 30 31  1  0  0  0
M  END
> <minimizedAffinity>
-10.84795

> <CNNscore>
0.9820373654

> <CNNaffinity>
8.3111276627

> <CNN_VS>
8.1618375778

> <CNNaffinity_variance>
0.0258199014

$$$$
[H]c1nc(N([H])c2c([H])c([H])c(C(=O)N([H])C3([H])C([H])([H])C([H])([H])N(C([H])([H])[H])C([H])([H])C3([H])[H])c([H])c2OC([H])([H])[H])nc2c1N(C([H])([H])[H])C(=O)[C@@]([H])(C([H])([H])C([H])([H])[H])N2C1([H])C([H])([H])C([H])([H])C([H])([H])C1([H])[H]


 40 44  0  0  0  0  0  0  0  0999 V2000
   54.6076   -2.8951   -9.7401 N   0  0  0  0  0  0  0  0  0  0  0  0
   54.5962   -2.1124  -10.4868 H   0  0  0  0  0  0  0  0  0  0  0  0
   51.4404   -5.7710   -5.5571 C   0  0  0  0  0  0  0  0  0  0  0  0
   52.6890   -5.2674   -6.0321 N   0  0  0  0  0  0  0  0  0  0  0  0
   52.5689   -4.2331   -7.0140 C   0  0  0  0  0  0  0  0  0  0  0  0
   53.4985   -3.9402   -7.9018 N   0  0  0  0  0  0  0  0  0  0  0  0
   53.4639   -2.9900   -8.8856 C   0  0  0  0  0  0  0  0  0  0  0  0
   52.3599   -2.2815   -8.9464 N   0  0  0  0  0  0  0  0  0  0  0  0
   51.3397   -2.4726   -8.1099 C   0  0  0  0  0  0  0  0  0  0  0  0
   51.4118   -3.4407   -7.1311 C   0  0  0  0  0  0  0  0  0  0  0  0
   50.3116   -3.6428   -6.2732 N   0  0  0  0  0  0  0  0  0  0  0  0
   49.0814   -2.8501   -6.3381 C   0  0  0  0  0  0  0  0  0  0  0  0
   50.4753   -4.6805   -5.3234 C   0  0  0  0  0  0  0  0  0  0  0  0
   49.7338   -4.5759   -4.2845 O   0  0  0  0  0  0  0  0  0  0  0  0
   54.0065   -5.6558   -5.7237 C   0  0  0  0  0  0  0  0  0  0  0  0
   54.4660   -5.7887   -4.3460 C   0  0  0  0  0  0  0  0  0  0  0  0
   54.5007   -7.3146   -4.0455 C   0  0  0  0  0  0  0  0  0  0  0  0
   55.2239   -7.7267   -5.3088 C   0  0  0  0  0  0  0  0  0  0  0  0
   54.4175   -6.9531   -6.3802 C   0  0  0  0  0  0  0  0  0  0  0  0
   50.8964   -6.9950   -7.7080 C   0  0  0  0  0  0  0  0  0  0  0  0
   50.7266   -6.8512   -6.2055 C   0  0  0  0  0  0  0  0  0  0  0  0
   55.7457   -3.7041   -9.7286 C   0  0  0  0  0  0  0  0  0  0  0  0
   56.2394   -4.3567  -10.8385 C   0  0  0  0  0  0  0  0  0  0  0  0
   57.3612   -5.1721  -10.7072 C   0  0  0  0  0  0  0  0  0  0  0  0
   58.0134   -5.3648   -9.5135 C   0  0  0  0  0  0  0  0  0  0  0  0
   57.4959   -4.6973   -8.4339 C   0  0  0  0  0  0  0  0  0  0  0  0
   56.4046   -3.8866   -8.4909 C   0  0  0  0  0  0  0  0  0  0  0  0
   59.1331   -6.2532   -9.4278 C   0  0  0  0  0  0  0  0  0  0  0  0
   59.1709   -7.2783  -10.1519 O   0  0  0  0  0  0  0  0  0  0  0  0
   60.2014   -6.0134   -8.5458 N   0  0  0  0  0  0  0  0  0  0  0  0
   60.2059   -5.1664   -7.9416 H   0  0  0  0  0  0  0  0  0  0  0  0
   61.3460   -6.8984   -8.4136 C   0  0  0  0  0  0  0  0  0  0  0  0
   62.6580   -6.2354   -8.6663 C   0  0  0  0  0  0  0  0  0  0  0  0
   63.7184   -7.3152   -8.6492 C   0  0  0  0  0  0  0  0  0  0  0  0
   63.4496   -8.3373   -7.6959 N   0  0  0  0  0  0  0  0  0  0  0  0
   62.9074   -9.5564   -8.2468 C   0  0  0  0  0  0  0  0  0  0  0  0
   62.6624   -7.9315   -6.5655 C   0  0  0  0  0  0  0  0  0  0  0  0
   61.3098   -7.4288   -6.9992 C   0  0  0  0  0  0  0  0  0  0  0  0
   55.9065   -3.2261   -7.3790 O   0  0  0  0  0  0  0  0  0  0  0  0
   56.4752   -3.3221   -6.1075 C   0  0  0  0  0  0  0  0  0  0  0  0
 20 21  1  0  0  0
 21  3  1  0  0  0
  3  4  1  0  0  0
  4 15  1  0  0  0
 15 16  1  0  0  0
 16 17  1  0  0  0
 17 18  1  0  0  0
 18 19  1  0  0  0
  4  5  1  0  0  0
  5  6  2  0  0  0
  6  7  1  0  0  0
  7  1  1  0  0  0
  1 22  1  0  0  0
 22 23  2  0  0  0
 23 24  1  0  0  0
 24 25  2  0  0  0
 25 26  1  0  0  0
 26 27  2  0  0  0
 27 39  1  0  0  0
 39 40  1  0  0  0
 25 28  1  0  0  0
 28 29  2  0  0  0
 28 30  1  0  0  0
 30 32  1  0  0  0
 32 33  1  0  0  0
 33 34  1  0  0  0
 34 35  1  0  0  0
 35 36  1  0  0  0
 35 37  1  0  0  0
 37 38  1  0  0  0
  7  8  2  0  0  0
  8  9  1  0  0  0
  9 10  2  0  0  0
 10 11  1  0  0  0
 11 12  1  0  0  0
 11 13  1  0  0  0
 13 14  2  0  0  0
 13  3  1  0  0  0
 19 15  1  0  0  0
 10  5  1  0  0  0
 27 22  1  0  0  0
 38 32  1  0  0  0
  1  2  1  0  0  0
 30 31  1  0  0  0
M  END
> <minimizedAffinity>
-9.36374

> <CNNscore>
0.8710751534

> <CNNaffinity>
8.1366300583

> <CNN_VS>
7.0876164436

> <CNNaffinity_variance>
0.0747319385

$$$$
[H]c1nc(N([H])c2c([H])c([H])c(C(=O)N([H])C3([H])C([H])([H])C([H])([H])N(C([H])([H])[H])C([H])([H])C3([H])[H])c([H])c2OC([H])([H])[H])nc2c1N(C([H])([H])[H])C(=O)[C@@]([H])(C([H])([H])C([H])([H])[H])N2C1([H])C([H])([H])C([H])([H])C([H])([H])C1([H])[H]


 40 44  0  0  0  0  0  0  0  0999 V2000
   55.3881   -3.5534  -10.2243 N   0  0  0  0  0  0  0  0  0  0  0  0
   55.3546   -3.0771  -11.1950 H   0  0  0  0  0  0  0  0  0  0  0  0
   51.8613   -5.6681   -5.8781 C   0  0  0  0  0  0  0  0  0  0  0  0
   53.1606   -5.3127   -6.3511 N   0  0  0  0  0  0  0  0  0  0  0  0
   53.1539   -4.4024   -7.4555 C   0  0  0  0  0  0  0  0  0  0  0  0
   54.1359   -4.2852   -8.3274 N   0  0  0  0  0  0  0  0  0  0  0  0
   54.2085   -3.4641   -9.4195 C   0  0  0  0  0  0  0  0  0  0  0  0
   53.1621   -2.6958   -9.6174 N   0  0  0  0  0  0  0  0  0  0  0  0
   52.0992   -2.7124   -8.8131 C   0  0  0  0  0  0  0  0  0  0  0  0
   52.0630   -3.5543   -7.7220 C   0  0  0  0  0  0  0  0  0  0  0  0
   50.9187   -3.5738   -6.8988 N   0  0  0  0  0  0  0  0  0  0  0  0
   49.7529   -2.7141   -7.1170 C   0  0  0  0  0  0  0  0  0  0  0  0
   50.9699   -4.4944   -5.8238 C   0  0  0  0  0  0  0  0  0  0  0  0
   50.1984   -4.2120   -4.8413 O   0  0  0  0  0  0  0  0  0  0  0  0
   54.4335   -5.7478   -5.9362 C   0  0  0  0  0  0  0  0  0  0  0  0
   54.8330   -5.7282   -4.5339 C   0  0  0  0  0  0  0  0  0  0  0  0
   54.7422   -7.1992   -4.0361 C   0  0  0  0  0  0  0  0  0  0  0  0
   55.4762   -7.8253   -5.2015 C   0  0  0  0  0  0  0  0  0  0  0  0
   54.7684   -7.1466   -6.3994 C   0  0  0  0  0  0  0  0  0  0  0  0
   51.2080   -7.0225   -7.9175 C   0  0  0  0  0  0  0  0  0  0  0  0
   51.0963   -6.7696   -6.4240 C   0  0  0  0  0  0  0  0  0  0  0  0
   56.5875   -4.1933   -9.9052 C   0  0  0  0  0  0  0  0  0  0  0  0
   57.3815   -4.8463  -10.8240 C   0  0  0  0  0  0  0  0  0  0  0  0
   58.5405   -5.4865  -10.3909 C   0  0  0  0  0  0  0  0  0  0  0  0
   58.9423   -5.5032   -9.0772 C   0  0  0  0  0  0  0  0  0  0  0  0
   58.1297   -4.8410   -8.1940 C   0  0  0  0  0  0  0  0  0  0  0  0
   56.9852   -4.1960   -8.5482 C   0  0  0  0  0  0  0  0  0  0  0  0
   60.1177   -6.2190   -8.6818 C   0  0  0  0  0  0  0  0  0  0  0  0
   61.1531   -5.5857   -8.3599 O   0  0  0  0  0  0  0  0  0  0  0  0
   60.1508   -7.6241   -8.6460 N   0  0  0  0  0  0  0  0  0  0  0  0
   59.3058   -8.1775   -8.8948 H   0  0  0  0  0  0  0  0  0  0  0  0
   61.3274   -8.3889   -8.2699 C   0  0  0  0  0  0  0  0  0  0  0  0
   61.2859   -8.9201   -6.8768 C   0  0  0  0  0  0  0  0  0  0  0  0
   62.6354   -9.5440   -6.5928 C   0  0  0  0  0  0  0  0  0  0  0  0
   63.1980  -10.1843   -7.7327 N   0  0  0  0  0  0  0  0  0  0  0  0
   64.2297   -9.4324   -8.4061 C   0  0  0  0  0  0  0  0  0  0  0  0
   62.2495  -10.6655   -8.6976 C   0  0  0  0  0  0  0  0  0  0  0  0
   61.4162   -9.5372   -9.2481 C   0  0  0  0  0  0  0  0  0  0  0  0
   56.1854   -3.5356   -7.6290 O   0  0  0  0  0  0  0  0  0  0  0  0
   56.6068   -3.2038   -6.3399 C   0  0  0  0  0  0  0  0  0  0  0  0
 20 21  1  0  0  0
 21  3  1  0  0  0
  3  4  1  0  0  0
  4 15  1  0  0  0
 15 16  1  0  0  0
 16 17  1  0  0  0
 17 18  1  0  0  0
 18 19  1  0  0  0
  4  5  1  0  0  0
  5  6  2  0  0  0
  6  7  1  0  0  0
  7  1  1  0  0  0
  1 22  1  0  0  0
 22 23  2  0  0  0
 23 24  1  0  0  0
 24 25  2  0  0  0
 25 26  1  0  0  0
 26 27  2  0  0  0
 27 39  1  0  0  0
 39 40  1  0  0  0
 25 28  1  0  0  0
 28 29  2  0  0  0
 28 30  1  0  0  0
 30 32  1  0  0  0
 32 33  1  0  0  0
 33 34  1  0  0  0
 34 35  1  0  0  0
 35 36  1  0  0  0
 35 37  1  0  0  0
 37 38  1  0  0  0
  7  8  2  0  0  0
  8  9  1  0  0  0
  9 10  2  0  0  0
 10 11  1  0  0  0
 11 12  1  0  0  0
 11 13  1  0  0  0
 13 14  2  0  0  0
 13  3  1  0  0  0
 19 15  1  0  0  0
 10  5  1  0  0  0
 27 22  1  0  0  0
 38 32  1  0  0  0
  1  2  1  0  0  0
 30 31  1  0  0  0
M  END
> <minimizedAffinity>
-7.92711

> <CNNscore>
0.8131710887

> <CNNaffinity>
7.9528455734

> <CNN_VS>
6.4670243263

> <CNNaffinity_variance>
0.1256693453

$$$$
[H]c1nc(N([H])c2c([H])c([H])c(C(=O)N([H])C3([H])C([H])([H])C([H])([H])N(C([H])([H])[H])C([H])([H])C3([H])[H])c([H])c2OC([H])([H])[H])nc2c1N(C([H])([H])[H])C(=O)[C@@]([H])(C([H])([H])C([H])([H])[H])N2C1([H])C([H])([H])C([H])([H])C([H])([H])C1([H])[H]


 40 44  0  0  0  0  0  0  0  0999 V2000
   55.7801   -4.7687   -8.8665 N   0  0  0  0  0  0  0  0  0  0  0  0
   56.3328   -5.4129   -8.1959 H   0  0  0  0  0  0  0  0  0  0  0  0
   50.8498   -5.3974   -5.5353 C   0  0  0  0  0  0  0  0  0  0  0  0
   52.2707   -5.4562   -5.6619 N   0  0  0  0  0  0  0  0  0  0  0  0
   52.7940   -4.6956   -6.7556 C   0  0  0  0  0  0  0  0  0  0  0  0
   53.9492   -4.9377   -7.3431 N   0  0  0  0  0  0  0  0  0  0  0  0
   54.5173   -4.2827   -8.4015 C   0  0  0  0  0  0  0  0  0  0  0  0
   53.8164   -3.2848   -8.8888 N   0  0  0  0  0  0  0  0  0  0  0  0
   52.6314   -2.9316   -8.3906 C   0  0  0  0  0  0  0  0  0  0  0  0
   52.0913   -3.6164   -7.3229 C   0  0  0  0  0  0  0  0  0  0  0  0
   50.8256   -3.2421   -6.8278 N   0  0  0  0  0  0  0  0  0  0  0  0
   50.0451   -2.1266   -7.3685 C   0  0  0  0  0  0  0  0  0  0  0  0
   50.3477   -4.0275   -5.7505 C   0  0  0  0  0  0  0  0  0  0  0  0
   49.4754   -3.4485   -5.0128 O   0  0  0  0  0  0  0  0  0  0  0  0
   53.2245   -6.1740   -4.9158 C   0  0  0  0  0  0  0  0  0  0  0  0
   54.4857   -5.5720   -4.4990 C   0  0  0  0  0  0  0  0  0  0  0  0
   54.3265   -5.2327   -2.9892 C   0  0  0  0  0  0  0  0  0  0  0  0
   53.7513   -6.5670   -2.5682 C   0  0  0  0  0  0  0  0  0  0  0  0
   52.6633   -6.7774   -3.6493 C   0  0  0  0  0  0  0  0  0  0  0  0
   50.5027   -7.0134   -7.4558 C   0  0  0  0  0  0  0  0  0  0  0  0
   49.9572   -6.3014   -6.2300 C   0  0  0  0  0  0  0  0  0  0  0  0
   56.3929   -4.5034  -10.0929 C   0  0  0  0  0  0  0  0  0  0  0  0
   55.7388   -3.9671  -11.1819 C   0  0  0  0  0  0  0  0  0  0  0  0
   56.4374   -3.7791  -12.3723 C   0  0  0  0  0  0  0  0  0  0  0  0
   57.7638   -4.1038  -12.5234 C   0  0  0  0  0  0  0  0  0  0  0  0
   58.3808   -4.6310  -11.4187 C   0  0  0  0  0  0  0  0  0  0  0  0
   57.7594   -4.8414  -10.2268 C   0  0  0  0  0  0  0  0  0  0  0  0
   58.4184   -3.9339  -13.7856 C   0  0  0  0  0  0  0  0  0  0  0  0
   57.7665   -4.0781  -14.8490 O   0  0  0  0  0  0  0  0  0  0  0  0
   59.7841   -3.6113  -13.8727 N   0  0  0  0  0  0  0  0  0  0  0  0
   60.3488   -3.4729  -13.0100 H   0  0  0  0  0  0  0  0  0  0  0  0
   60.4907   -3.4494  -15.1317 C   0  0  0  0  0  0  0  0  0  0  0  0
   59.9040   -2.4113  -16.0277 C   0  0  0  0  0  0  0  0  0  0  0  0
   60.6476   -2.4808  -17.3442 C   0  0  0  0  0  0  0  0  0  0  0  0
   62.0285   -2.7851  -17.1824 N   0  0  0  0  0  0  0  0  0  0  0  0
   62.3872   -4.1547  -17.4634 C   0  0  0  0  0  0  0  0  0  0  0  0
   62.6020   -2.3882  -15.9271 C   0  0  0  0  0  0  0  0  0  0  0  0
   61.9089   -3.0686  -14.7751 C   0  0  0  0  0  0  0  0  0  0  0  0
   58.4131   -5.3772   -9.1284 O   0  0  0  0  0  0  0  0  0  0  0  0
   59.6978   -5.9209   -9.1868 C   0  0  0  0  0  0  0  0  0  0  0  0
 20 21  1  0  0  0
 21  3  1  0  0  0
  3  4  1  0  0  0
  4 15  1  0  0  0
 15 16  1  0  0  0
 16 17  1  0  0  0
 17 18  1  0  0  0
 18 19  1  0  0  0
  4  5  1  0  0  0
  5  6  2  0  0  0
  6  7  1  0  0  0
  7  1  1  0  0  0
  1 22  1  0  0  0
 22 23  2  0  0  0
 23 24  1  0  0  0
 24 25  2  0  0  0
 25 26  1  0  0  0
 26 27  2  0  0  0
 27 39  1  0  0  0
 39 40  1  0  0  0
 25 28  1  0  0  0
 28 29  2  0  0  0
 28 30  1  0  0  0
 30 32  1  0  0  0
 32 33  1  0  0  0
 33 34  1  0  0  0
 34 35  1  0  0  0
 35 36  1  0  0  0
 35 37  1  0  0  0
 37 38  1  0  0  0
  7  8  2  0  0  0
  8  9  1  0  0  0
  9 10  2  0  0  0
 10 11  1  0  0  0
 11 12  1  0  0  0
 11 13  1  0  0  0
 13 14  2  0  0  0
 13  3  1  0  0  0
 19 15  1  0  0  0
 10  5  1  0  0  0
 27 22  1  0  0  0
 38 32  1  0  0  0
  1  2  1  0  0  0
 30 31  1  0  0  0
M  END
> <minimizedAffinity>
-8.78846

> <CNNscore>
0.6744189858

> <CNNaffinity>
7.6139106750

> <CNN_VS>
5.1349658966

> <CNNaffinity_variance>
0.2139286697

$$$$
[H]c1nc(N([H])c2c([H])c([H])c(C(=O)N([H])C3([H])C([H])([H])C([H])([H])N(C([H])([H])[H])C([H])([H])C3([H])[H])c([H])c2OC([H])([H])[H])nc2c1N(C([H])([H])[H])C(=O)[C@@]([H])(C([H])([H])C([H])([H])[H])N2C1([H])C([H])([H])C([H])([H])C([H])([H])C1([H])[H]


 40 44  0  0  0  0  0  0  0  0999 V2000
   54.8503   -4.1205   -8.8289 N   0  0  0  0  0  0  0  0  0  0  0  0
   54.5477   -3.4144   -9.5905 H   0  0  0  0  0  0  0  0  0  0  0  0
   53.4775   -6.4129   -3.4753 C   0  0  0  0  0  0  0  0  0  0  0  0
   54.3228   -5.6023   -4.2919 N   0  0  0  0  0  0  0  0  0  0  0  0
   53.7160   -5.1662   -5.5125 C   0  0  0  0  0  0  0  0  0  0  0  0
   54.3870   -4.8206   -6.5935 N   0  0  0  0  0  0  0  0  0  0  0  0
   53.8959   -4.4145   -7.8042 C   0  0  0  0  0  0  0  0  0  0  0  0
   52.5867   -4.3636   -7.8930 N   0  0  0  0  0  0  0  0  0  0  0  0
   51.7870   -4.6860   -6.8763 C   0  0  0  0  0  0  0  0  0  0  0  0
   52.3197   -5.0912   -5.6711 C   0  0  0  0  0  0  0  0  0  0  0  0
   51.4555   -5.4515   -4.6171 N   0  0  0  0  0  0  0  0  0  0  0  0
   49.9951   -5.3911   -4.7144 C   0  0  0  0  0  0  0  0  0  0  0  0
   52.1022   -5.8820   -3.4329 C   0  0  0  0  0  0  0  0  0  0  0  0
   51.4009   -5.7638   -2.3679 O   0  0  0  0  0  0  0  0  0  0  0  0
   55.6613   -5.2064   -4.1090 C   0  0  0  0  0  0  0  0  0  0  0  0
   56.0965   -4.4990   -2.9103 C   0  0  0  0  0  0  0  0  0  0  0  0
   56.8330   -5.5491   -2.0301 C   0  0  0  0  0  0  0  0  0  0  0  0
   57.6950   -6.1280   -3.1303 C   0  0  0  0  0  0  0  0  0  0  0  0
   56.6464   -6.3436   -4.2487 C   0  0  0  0  0  0  0  0  0  0  0  0
   54.4559   -8.6892   -2.9447 C   0  0  0  0  0  0  0  0  0  0  0  0
   53.3839   -7.8507   -3.6191 C   0  0  0  0  0  0  0  0  0  0  0  0
   56.1365   -4.6461   -8.9675 C   0  0  0  0  0  0  0  0  0  0  0  0
   56.9175   -5.0627   -7.9102 C   0  0  0  0  0  0  0  0  0  0  0  0
   58.2043   -5.5356   -8.1578 C   0  0  0  0  0  0  0  0  0  0  0  0
   58.7466   -5.6111   -9.4178 C   0  0  0  0  0  0  0  0  0  0  0  0
   57.9395   -5.1914  -10.4432 C   0  0  0  0  0  0  0  0  0  0  0  0
   56.6750   -4.7187  -10.2729 C   0  0  0  0  0  0  0  0  0  0  0  0
   60.0929   -6.0600   -9.6081 C   0  0  0  0  0  0  0  0  0  0  0  0
   60.6486   -5.9054  -10.7234 O   0  0  0  0  0  0  0  0  0  0  0  0
   60.8189   -6.6790   -8.5754 N   0  0  0  0  0  0  0  0  0  0  0  0
   60.3911   -6.8104   -7.6362 H   0  0  0  0  0  0  0  0  0  0  0  0
   62.1786   -7.1662   -8.7319 C   0  0  0  0  0  0  0  0  0  0  0  0
   63.2217   -6.2253   -8.2304 C   0  0  0  0  0  0  0  0  0  0  0  0
   64.5683   -6.8024   -8.6105 C   0  0  0  0  0  0  0  0  0  0  0  0
   64.5986   -8.2237   -8.5418 N   0  0  0  0  0  0  0  0  0  0  0  0
   64.4944   -8.8972   -9.8143 C   0  0  0  0  0  0  0  0  0  0  0  0
   63.6775   -8.8136   -7.6114 C   0  0  0  0  0  0  0  0  0  0  0  0
   62.2543   -8.4643   -7.9623 C   0  0  0  0  0  0  0  0  0  0  0  0
   55.8849   -4.3017  -11.3325 O   0  0  0  0  0  0  0  0  0  0  0  0
   56.3968   -3.9510  -12.5833 C   0  0  0  0  0  0  0  0  0  0  0  0
 20 21  1  0  0  0
 21  3  1  0  0  0
  3  4  1  0  0  0
  4 15  1  0  0  0
 15 16  1  0  0  0
 16 17  1  0  0  0
 17 18  1  0  0  0
 18 19  1  0  0  0
  4  5  1  0  0  0
  5  6  2  0  0  0
  6  7  1  0  0  0
  7  1  1  0  0  0
  1 22  1  0  0  0
 22 23  2  0  0  0
 23 24  1  0  0  0
 24 25  2  0  0  0
 25 26  1  0  0  0
 26 27  2  0  0  0
 27 39  1  0  0  0
 39 40  1  0  0  0
 25 28  1  0  0  0
 28 29  2  0  0  0
 28 30  1  0  0  0
 30 32  1  0  0  0
 32 33  1  0  0  0
 33 34  1  0  0  0
 34 35  1  0  0  0
 35 36  1  0  0  0
 35 37  1  0  0  0
 37 38  1  0  0  0
  7  8  2  0  0  0
  8  9  1  0  0  0
  9 10  2  0  0  0
 10 11  1  0  0  0
 11 12  1  0  0  0
 11 13  1  0  0  0
 13 14  2  0  0  0
 13  3  1  0  0  0
 19 15  1  0  0  0
 10  5  1  0  0  0
 27 22  1  0  0  0
 38 32  1  0  0  0
  1  2  1  0  0  0
 30 31  1  0  0  0
M  END
> <minimizedAffinity>
-7.97674

> <CNNscore>
0.3930553198

> <CNNaffinity>
7.3619155884

> <CNN_VS>
2.8936400414

> <CNNaffinity_variance>
0.1573012173

$$$$
[H]c1nc(N([H])c2c([H])c([H])c(C(=O)N([H])C3([H])C([H])([H])C([H])([H])N(C([H])([H])[H])C([H])([H])C3([H])[H])c([H])c2OC([H])([H])[H])nc2c1N(C([H])([H])[H])C(=O)[C@@]([H])(C([H])([H])C([H])([H])[H])N2C1([H])C([H])([H])C([H])([H])C([H])([H])C1([H])[H]


 40 44  0  0  0  0  0  0  0  0999 V2000
   56.1972   -5.1834  -11.5483 N   0  0  0  0  0  0  0  0  0  0  0  0
   56.0672   -6.2304  -11.7871 H   0  0  0  0  0  0  0  0  0  0  0  0
   52.4823   -5.1430   -6.8582 C   0  0  0  0  0  0  0  0  0  0  0  0
   53.7930   -5.3251   -7.3940 N   0  0  0  0  0  0  0  0  0  0  0  0
   53.9988   -4.7004   -8.6652 C   0  0  0  0  0  0  0  0  0  0  0  0
   54.9077   -5.0809   -9.5412 N   0  0  0  0  0  0  0  0  0  0  0  0
   55.1614   -4.5618  -10.7815 C   0  0  0  0  0  0  0  0  0  0  0  0
   54.3983   -3.5543  -11.1377 N   0  0  0  0  0  0  0  0  0  0  0  0
   53.4398   -3.0683  -10.3489 C   0  0  0  0  0  0  0  0  0  0  0  0
   53.2139   -3.6184   -9.1052 C   0  0  0  0  0  0  0  0  0  0  0  0
   52.1788   -3.1052   -8.2975 N   0  0  0  0  0  0  0  0  0  0  0  0
   51.3297   -1.9788   -8.6929 C   0  0  0  0  0  0  0  0  0  0  0  0
   52.0098   -3.7595   -7.0529 C   0  0  0  0  0  0  0  0  0  0  0  0
   51.4331   -3.0546   -6.1525 O   0  0  0  0  0  0  0  0  0  0  0  0
   54.8897   -6.0535   -6.8956 C   0  0  0  0  0  0  0  0  0  0  0  0
   56.0524   -5.3912   -6.3157 C   0  0  0  0  0  0  0  0  0  0  0  0
   55.9156   -5.5457   -4.7738 C   0  0  0  0  0  0  0  0  0  0  0  0
   55.5929   -7.0237   -4.7726 C   0  0  0  0  0  0  0  0  0  0  0  0
   54.5018   -7.0919   -5.8688 C   0  0  0  0  0  0  0  0  0  0  0  0
   51.6312   -7.1475   -8.1535 C   0  0  0  0  0  0  0  0  0  0  0  0
   51.3758   -6.0265   -7.1609 C   0  0  0  0  0  0  0  0  0  0  0  0
   57.3704   -4.5950  -12.0251 C   0  0  0  0  0  0  0  0  0  0  0  0
   58.5321   -4.4855  -11.2904 C   0  0  0  0  0  0  0  0  0  0  0  0
   59.6348   -3.8438  -11.8497 C   0  0  0  0  0  0  0  0  0  0  0  0
   59.6283   -3.3053  -13.1136 C   0  0  0  0  0  0  0  0  0  0  0  0
   58.4576   -3.4365  -13.8144 C   0  0  0  0  0  0  0  0  0  0  0  0
   57.3441   -4.0501  -13.3296 C   0  0  0  0  0  0  0  0  0  0  0  0
   60.7757   -2.6136  -13.6190 C   0  0  0  0  0  0  0  0  0  0  0  0
   60.8674   -1.3700  -13.4719 O   0  0  0  0  0  0  0  0  0  0  0  0
   61.8124   -3.2899  -14.2859 N   0  0  0  0  0  0  0  0  0  0  0  0
   61.7722   -4.3217  -14.4128 H   0  0  0  0  0  0  0  0  0  0  0  0
   62.9834   -2.6244  -14.8305 C   0  0  0  0  0  0  0  0  0  0  0  0
   64.2730   -3.0849  -14.2393 C   0  0  0  0  0  0  0  0  0  0  0  0
   65.3643   -2.1916  -14.7888 C   0  0  0  0  0  0  0  0  0  0  0  0
   65.1351   -1.8081  -16.1401 N   0  0  0  0  0  0  0  0  0  0  0  0
   64.6226   -0.4701  -16.3148 C   0  0  0  0  0  0  0  0  0  0  0  0
   64.3484   -2.7267  -16.9144 C   0  0  0  0  0  0  0  0  0  0  0  0
   62.9773   -2.9050  -16.3153 C   0  0  0  0  0  0  0  0  0  0  0  0
   56.1752   -4.1654  -14.0652 O   0  0  0  0  0  0  0  0  0  0  0  0
   55.9877   -3.5655  -15.3119 C   0  0  0  0  0  0  0  0  0  0  0  0
 20 21  1  0  0  0
 21  3  1  0  0  0
  3  4  1  0  0  0
  4 15  1  0  0  0
 15 16  1  0  0  0
 16 17  1  0  0  0
 17 18  1  0  0  0
 18 19  1  0  0  0
  4  5  1  0  0  0
  5  6  2  0  0  0
  6  7  1  0  0  0
  7  1  1  0  0  0
  1 22  1  0  0  0
 22 23  2  0  0  0
 23 24  1  0  0  0
 24 25  2  0  0  0
 25 26  1  0  0  0
 26 27  2  0  0  0
 27 39  1  0  0  0
 39 40  1  0  0  0
 25 28  1  0  0  0
 28 29  2  0  0  0
 28 30  1  0  0  0
 30 32  1  0  0  0
 32 33  1  0  0  0
 33 34  1  0  0  0
 34 35  1  0  0  0
 35 36  1  0  0  0
 35 37  1  0  0  0
 37 38  1  0  0  0
  7  8  2  0  0  0
  8  9  1  0  0  0
  9 10  2  0  0  0
 10 11  1  0  0  0
 11 12  1  0  0  0
 11 13  1  0  0  0
 13 14  2  0  0  0
 13  3  1  0  0  0
 19 15  1  0  0  0
 10  5  1  0  0  0
 27 22  1  0  0  0
 38 32  1  0  0  0
  1  2  1  0  0  0
 30 31  1  0  0  0
M  END
> <minimizedAffinity>
-1.27650

> <CNNscore>
0.3915135264

> <CNNaffinity>
6.6853132248

> <CNN_VS>
2.6173906326

> <CNNaffinity_variance>
0.3583059907

$$$$
[H]c1nc(N([H])c2c([H])c([H])c(C(=O)N([H])C3([H])C([H])([H])C([H])([H])N(C([H])([H])[H])C([H])([H])C3([H])[H])c([H])c2OC([H])([H])[H])nc2c1N(C([H])([H])[H])C(=O)[C@@]([H])(C([H])([H])C([H])([H])[H])N2C1([H])C([H])([H])C([H])([H])C([H])([H])C1([H])[H]


 40 44  0  0  0  0  0  0  0  0999 V2000
   60.0608   -7.8981   -5.0544 N   0  0  0  0  0  0  0  0  0  0  0  0
   60.6136   -8.4811   -4.3300 H   0  0  0  0  0  0  0  0  0  0  0  0
   55.7582   -7.2057   -0.9546 C   0  0  0  0  0  0  0  0  0  0  0  0
   57.1420   -7.3267   -1.2844 N   0  0  0  0  0  0  0  0  0  0  0  0
   57.4484   -7.0220   -2.6489 C   0  0  0  0  0  0  0  0  0  0  0  0
   58.5055   -7.4770   -3.2921 N   0  0  0  0  0  0  0  0  0  0  0  0
   58.8666   -7.2586   -4.5937 C   0  0  0  0  0  0  0  0  0  0  0  0
   58.0512   -6.4955   -5.2844 N   0  0  0  0  0  0  0  0  0  0  0  0
   56.9454   -5.9689   -4.7582 C   0  0  0  0  0  0  0  0  0  0  0  0
   56.6147   -6.2121   -3.4421 C   0  0  0  0  0  0  0  0  0  0  0  0
   55.4277   -5.6657   -2.9130 N   0  0  0  0  0  0  0  0  0  0  0  0
   54.5197   -4.8112   -3.6820 C   0  0  0  0  0  0  0  0  0  0  0  0
   55.1646   -6.0001   -1.5622 C   0  0  0  0  0  0  0  0  0  0  0  0
   54.3947   -5.1807   -0.9490 O   0  0  0  0  0  0  0  0  0  0  0  0
   58.2350   -7.7386   -0.4986 C   0  0  0  0  0  0  0  0  0  0  0  0
   59.2215   -8.6916   -0.9936 C   0  0  0  0  0  0  0  0  0  0  0  0
   60.4782   -7.8573   -1.3738 C   0  0  0  0  0  0  0  0  0  0  0  0
   60.5361   -7.0369   -0.1040 C   0  0  0  0  0  0  0  0  0  0  0  0
   59.0604   -6.5881    0.0288 C   0  0  0  0  0  0  0  0  0  0  0  0
   54.2581   -8.9284    0.1420 C   0  0  0  0  0  0  0  0  0  0  0  0
   54.8098   -8.2873   -1.1197 C   0  0  0  0  0  0  0  0  0  0  0  0
   60.6061   -7.8544   -6.3391 C   0  0  0  0  0  0  0  0  0  0  0  0
   60.2138   -6.9610   -7.3135 C   0  0  0  0  0  0  0  0  0  0  0  0
   60.7971   -7.0301   -8.5767 C   0  0  0  0  0  0  0  0  0  0  0  0
   61.7573   -7.9542   -8.9103 C   0  0  0  0  0  0  0  0  0  0  0  0
   62.1238   -8.8229   -7.9153 C   0  0  0  0  0  0  0  0  0  0  0  0
   61.5956   -8.8117   -6.6615 C   0  0  0  0  0  0  0  0  0  0  0  0
   62.2870   -8.0102  -10.2395 C   0  0  0  0  0  0  0  0  0  0  0  0
   61.8424   -8.8587  -11.0513 O   0  0  0  0  0  0  0  0  0  0  0  0
   63.3032   -7.1381  -10.6678 N   0  0  0  0  0  0  0  0  0  0  0  0
   63.6839   -6.4157  -10.0231 H   0  0  0  0  0  0  0  0  0  0  0  0
   63.8816   -7.1739  -12.0001 C   0  0  0  0  0  0  0  0  0  0  0  0
   63.0558   -6.4925  -13.0386 C   0  0  0  0  0  0  0  0  0  0  0  0
   63.7088   -6.7578  -14.3780 C   0  0  0  0  0  0  0  0  0  0  0  0
   65.1298   -6.7868  -14.3030 N   0  0  0  0  0  0  0  0  0  0  0  0
   65.7127   -8.1073  -14.3037 C   0  0  0  0  0  0  0  0  0  0  0  0
   65.7048   -6.0105  -13.2404 C   0  0  0  0  0  0  0  0  0  0  0  0
   65.2272   -6.4944  -11.8957 C   0  0  0  0  0  0  0  0  0  0  0  0
   61.9887   -9.7053   -5.6778 O   0  0  0  0  0  0  0  0  0  0  0  0
   63.1141   -9.5183   -4.8728 C   0  0  0  0  0  0  0  0  0  0  0  0
 20 21  1  0  0  0
 21  3  1  0  0  0
  3  4  1  0  0  0
  4 15  1  0  0  0
 15 16  1  0  0  0
 16 17  1  0  0  0
 17 18  1  0  0  0
 18 19  1  0  0  0
  4  5  1  0  0  0
  5  6  2  0  0  0
  6  7  1  0  0  0
  7  1  1  0  0  0
  1 22  1  0  0  0
 22 23  2  0  0  0
 23 24  1  0  0  0
 24 25  2  0  0  0
 25 26  1  0  0  0
 26 27  2  0  0  0
 27 39  1  0  0  0
 39 40  1  0  0  0
 25 28  1  0  0  0
 28 29  2  0  0  0
 28 30  1  0  0  0
 30 32  1  0  0  0
 32 33  1  0  0  0
 33 34  1  0  0  0
 34 35  1  0  0  0
 35 36  1  0  0  0
 35 37  1  0  0  0
 37 38  1  0  0  0
  7  8  2  0  0  0
  8  9  1  0  0  0
  9 10  2  0  0  0
 10 11  1  0  0  0
 11 12  1  0  0  0
 11 13  1  0  0  0
 13 14  2  0  0  0
 13  3  1  0  0  0
 19 15  1  0  0  0
 10  5  1  0  0  0
 27 22  1  0  0  0
 38 32  1  0  0  0
  1  2  1  0  0  0
 30 31  1  0  0  0
M  END
> <minimizedAffinity>
-0.62640

> <CNNscore>
0.3855249286

> <CNNaffinity>
6.0878582001

> <CNN_VS>
2.3470211029

> <CNNaffinity_variance>
1.6465753317

$$$$
[H]c1nc(N([H])c2c([H])c([H])c(C(=O)N([H])C3([H])C([H])([H])C([H])([H])N(C([H])([H])[H])C([H])([H])C3([H])[H])c([H])c2OC([H])([H])[H])nc2c1N(C([H])([H])[H])C(=O)[C@@]([H])(C([H])([H])C([H])([H])[H])N2C1([H])C([H])([H])C([H])([H])C([H])([H])C1([H])[H]


 40 44  0  0  0  0  0  0  0  0999 V2000
   57.9698   -5.9038   -4.5108 N   0  0  0  0  0  0  0  0  0  0  0  0
   58.1327   -4.8442   -4.6557 H   0  0  0  0  0  0  0  0  0  0  0  0
   62.1491  -10.1569   -4.0167 C   0  0  0  0  0  0  0  0  0  0  0  0
   60.8581   -9.6489   -3.6798 N   0  0  0  0  0  0  0  0  0  0  0  0
   60.3507   -8.6790   -4.6019 C   0  0  0  0  0  0  0  0  0  0  0  0
   59.4490   -7.7662   -4.2984 N   0  0  0  0  0  0  0  0  0  0  0  0
   58.9239   -6.7912   -5.1019 C   0  0  0  0  0  0  0  0  0  0  0  0
   59.3807   -6.7687   -6.3329 N   0  0  0  0  0  0  0  0  0  0  0  0
   60.2944   -7.6337   -6.7734 C   0  0  0  0  0  0  0  0  0  0  0  0
   60.8003   -8.6025   -5.9332 C   0  0  0  0  0  0  0  0  0  0  0  0
   61.7842   -9.4911   -6.4125 N   0  0  0  0  0  0  0  0  0  0  0  0
   62.2912   -9.4689   -7.7866 C   0  0  0  0  0  0  0  0  0  0  0  0
   62.2594  -10.4276   -5.4622 C   0  0  0  0  0  0  0  0  0  0  0  0
   62.7689  -11.4889   -5.9665 O   0  0  0  0  0  0  0  0  0  0  0  0
   60.0335   -9.9150   -2.5703 C   0  0  0  0  0  0  0  0  0  0  0  0
   60.5492   -9.8916   -1.2064 C   0  0  0  0  0  0  0  0  0  0  0  0
   60.0678   -8.5499   -0.5835 C   0  0  0  0  0  0  0  0  0  0  0  0
   58.6258   -8.6561   -1.0287 C   0  0  0  0  0  0  0  0  0  0  0  0
   58.8009   -9.0427   -2.5175 C   0  0  0  0  0  0  0  0  0  0  0  0
   63.5950   -8.0761   -4.0123 C   0  0  0  0  0  0  0  0  0  0  0  0
   63.3813   -9.5218   -3.5983 C   0  0  0  0  0  0  0  0  0  0  0  0
   56.8454   -6.2458   -3.7567 C   0  0  0  0  0  0  0  0  0  0  0  0
   56.7429   -6.0555   -2.3949 C   0  0  0  0  0  0  0  0  0  0  0  0
   55.5890   -6.4697   -1.7334 C   0  0  0  0  0  0  0  0  0  0  0  0
   54.5303   -7.0670   -2.3737 C   0  0  0  0  0  0  0  0  0  0  0  0
   54.6673   -7.2362   -3.7271 C   0  0  0  0  0  0  0  0  0  0  0  0
   55.7651   -6.8560   -4.4352 C   0  0  0  0  0  0  0  0  0  0  0  0
   53.3892   -7.5169   -1.6350 C   0  0  0  0  0  0  0  0  0  0  0  0
   53.1440   -7.0230   -0.5069 O   0  0  0  0  0  0  0  0  0  0  0  0
   52.5274   -8.5080   -2.1366 N   0  0  0  0  0  0  0  0  0  0  0  0
   52.6961   -8.9280   -3.0733 H   0  0  0  0  0  0  0  0  0  0  0  0
   51.3710   -9.0064   -1.4120 C   0  0  0  0  0  0  0  0  0  0  0  0
   50.4843   -7.9347   -0.8735 C   0  0  0  0  0  0  0  0  0  0  0  0
   49.4317   -8.6085   -0.0197 C   0  0  0  0  0  0  0  0  0  0  0  0
   49.0256   -9.8703   -0.5381 N   0  0  0  0  0  0  0  0  0  0  0  0
   49.6016  -11.0153    0.1258 C   0  0  0  0  0  0  0  0  0  0  0  0
   49.1612  -10.0229   -1.9595 C   0  0  0  0  0  0  0  0  0  0  0  0
   50.5971   -9.8625   -2.3873 C   0  0  0  0  0  0  0  0  0  0  0  0
   55.8717   -7.0422   -5.8044 O   0  0  0  0  0  0  0  0  0  0  0  0
   54.7713   -7.2204   -6.6451 C   0  0  0  0  0  0  0  0  0  0  0  0
 20 21  1  0  0  0
 21  3  1  0  0  0
  3  4  1  0  0  0
  4 15  1  0  0  0
 15 16  1  0  0  0
 16 17  1  0  0  0
 17 18  1  0  0  0
 18 19  1  0  0  0
  4  5  1  0  0  0
  5  6  2  0  0  0
  6  7  1  0  0  0
  7  1  1  0  0  0
  1 22  1  0  0  0
 22 23  2  0  0  0
 23 24  1  0  0  0
 24 25  2  0  0  0
 25 26  1  0  0  0
 26 27  2  0  0  0
 27 39  1  0  0  0
 39 40  1  0  0  0
 25 28  1  0  0  0
 28 29  2  0  0  0
 28 30  1  0  0  0
 30 32  1  0  0  0
 32 33  1  0  0  0
 33 34  1  0  0  0
 34 35  1  0  0  0
 35 36  1  0  0  0
 35 37  1  0  0  0
 37 38  1  0  0  0
  7  8  2  0  0  0
  8  9  1  0  0  0
  9 10  2  0  0  0
 10 11  1  0  0  0
 11 12  1  0  0  0
 11 13  1  0  0  0
 13 14  2  0  0  0
 13  3  1  0  0  0
 19 15  1  0  0  0
 10  5  1  0  0  0
 27 22  1  0  0  0
 38 32  1  0  0  0
  1  2  1  0  0  0
 30 31  1  0  0  0
M  END
> <minimizedAffinity>
3.26744

> <CNNscore>
0.3399033844

> <CNNaffinity>
6.1793799400

> <CNN_VS>
2.1003921032

> <CNNaffinity_variance>
1.3045041561

$$$$
[H]c1nc(N([H])c2c([H])c([H])c(C(=O)N([H])C3([H])C([H])([H])C([H])([H])N(C([H])([H])[H])C([H])([H])C3([H])[H])c([H])c2OC([H])([H])[H])nc2c1N(C([H])([H])[H])C(=O)[C@@]([H])(C([H])([H])C([H])([H])[H])N2C1([H])C([H])([H])C([H])([H])C([H])([H])C1([H])[H]


 40 44  0  0  0  0  0  0  0  0999 V2000
   54.5747   -4.0619  -10.9929 N   0  0  0  0  0  0  0  0  0  0  0  0
   53.7092   -3.8090  -11.5906 H   0  0  0  0  0  0  0  0  0  0  0  0
   57.9870   -3.7771  -15.8994 C   0  0  0  0  0  0  0  0  0  0  0  0
   56.8236   -3.3704  -15.1789 N   0  0  0  0  0  0  0  0  0  0  0  0
   56.9104   -3.5698  -13.7642 C   0  0  0  0  0  0  0  0  0  0  0  0
   55.8684   -3.7072  -12.9682 N   0  0  0  0  0  0  0  0  0  0  0  0
   55.8545   -3.9217  -11.6170 C   0  0  0  0  0  0  0  0  0  0  0  0
   57.0347   -3.9980  -11.0462 N   0  0  0  0  0  0  0  0  0  0  0  0
   58.1711   -3.8770  -11.7326 C   0  0  0  0  0  0  0  0  0  0  0  0
   58.1444   -3.6616  -13.0940 C   0  0  0  0  0  0  0  0  0  0  0  0
   59.3580   -3.5615  -13.8041 N   0  0  0  0  0  0  0  0  0  0  0  0
   60.6748   -3.6428  -13.1673 C   0  0  0  0  0  0  0  0  0  0  0  0
   59.2208   -3.3711  -15.2008 C   0  0  0  0  0  0  0  0  0  0  0  0
   60.2332   -2.8298  -15.7683 O   0  0  0  0  0  0  0  0  0  0  0  0
   55.5989   -2.8518  -15.6406 C   0  0  0  0  0  0  0  0  0  0  0  0
   55.5152   -1.5584  -16.3089 C   0  0  0  0  0  0  0  0  0  0  0  0
   55.3613   -1.8634  -17.8266 C   0  0  0  0  0  0  0  0  0  0  0  0
   54.2759   -2.9080  -17.6873 C   0  0  0  0  0  0  0  0  0  0  0  0
   54.8581   -3.7948  -16.5598 C   0  0  0  0  0  0  0  0  0  0  0  0
   58.6122   -5.2956  -17.8291 C   0  0  0  0  0  0  0  0  0  0  0  0
   58.1852   -5.1282  -16.3811 C   0  0  0  0  0  0  0  0  0  0  0  0
   54.3073   -4.4851   -9.6893 C   0  0  0  0  0  0  0  0  0  0  0  0
   53.8237   -5.7359   -9.3684 C   0  0  0  0  0  0  0  0  0  0  0  0
   53.5539   -6.0415   -8.0363 C   0  0  0  0  0  0  0  0  0  0  0  0
   53.7464   -5.1508   -7.0082 C   0  0  0  0  0  0  0  0  0  0  0  0
   54.2312   -3.9195   -7.3655 C   0  0  0  0  0  0  0  0  0  0  0  0
   54.5155   -3.5547   -8.6451 C   0  0  0  0  0  0  0  0  0  0  0  0
   53.4056   -5.5032   -5.6628 C   0  0  0  0  0  0  0  0  0  0  0  0
   52.2002   -5.6546   -5.3455 O   0  0  0  0  0  0  0  0  0  0  0  0
   54.3887   -5.6830   -4.6739 N   0  0  0  0  0  0  0  0  0  0  0  0
   55.3969   -5.5771   -4.9078 H   0  0  0  0  0  0  0  0  0  0  0  0
   54.0853   -6.0214   -3.2940 C   0  0  0  0  0  0  0  0  0  0  0  0
   54.1590   -4.8645   -2.3553 C   0  0  0  0  0  0  0  0  0  0  0  0
   53.9788   -5.4094   -0.9548 C   0  0  0  0  0  0  0  0  0  0  0  0
   53.0598   -6.4948   -0.8991 N   0  0  0  0  0  0  0  0  0  0  0  0
   53.6658   -7.8016   -0.8069 C   0  0  0  0  0  0  0  0  0  0  0  0
   52.0569   -6.5040   -1.9269 C   0  0  0  0  0  0  0  0  0  0  0  0
   52.6833   -6.5851   -3.2949 C   0  0  0  0  0  0  0  0  0  0  0  0
   55.0047   -2.3000   -8.9725 O   0  0  0  0  0  0  0  0  0  0  0  0
   54.3338   -1.1113   -8.6785 C   0  0  0  0  0  0  0  0  0  0  0  0
 20 21  1  0  0  0
 21  3  1  0  0  0
  3  4  1  0  0  0
  4 15  1  0  0  0
 15 16  1  0  0  0
 16 17  1  0  0  0
 17 18  1  0  0  0
 18 19  1  0  0  0
  4  5  1  0  0  0
  5  6  2  0  0  0
  6  7  1  0  0  0
  7  1  1  0  0  0
  1 22  1  0  0  0
 22 23  2  0  0  0
 23 24  1  0  0  0
 24 25  2  0  0  0
 25 26  1  0  0  0
 26 27  2  0  0  0
 27 39  1  0  0  0
 39 40  1  0  0  0
 25 28  1  0  0  0
 28 29  2  0  0  0
 28 30  1  0  0  0
 30 32  1  0  0  0
 32 33  1  0  0  0
 33 34  1  0  0  0
 34 35  1  0  0  0
 35 36  1  0  0  0
 35 37  1  0  0  0
 37 38  1  0  0  0
  7  8  2  0  0  0
  8  9  1  0  0  0
  9 10  2  0  0  0
 10 11  1  0  0  0
 11 12  1  0  0  0
 11 13  1  0  0  0
 13 14  2  0  0  0
 13  3  1  0  0  0
 19 15  1  0  0  0
 10  5  1  0  0  0
 27 22  1  0  0  0
 38 32  1  0  0  0
  1  2  1  0  0  0
 30 31  1  0  0  0
M  END
> <minimizedAffinity>
3.31217

> <CNNscore>
0.3126228154

> <CNNaffinity>
6.4201555252

> <CNN_VS>
2.0070869923

> <CNNaffinity_variance>
0.3257919550

$$$$
