[H]OC([H])([H])[C@@]1(O[H])C([H])([H])[C@@]2([H])O[C@]1(C([H])([H])[H])n1c3c([H])c([H])c([H])c([H])c3c3c4c(c5c6c([H])c([H])c([H])c([H])c6n2c5c31)C(=O)N([H])C4([H])[H]


 36 43  0  0  0  0  0  0  0  0999 V2000
   54.1690   -8.0435   -3.0283 C   0  0  0  0  0  0  0  0  0  0  0  0
   54.5461   -6.8315   -3.8091 C   0  0  0  0  0  0  0  0  0  0  0  0
   55.2457   -7.4340   -4.8911 O   0  0  0  0  0  0  0  0  0  0  0  0
   56.1976   -6.5889   -5.3491 C   0  0  0  0  0  0  0  0  0  0  0  0
   56.6865   -5.8108   -4.2032 C   0  0  0  0  0  0  0  0  0  0  0  0
   55.6035   -5.9867   -3.1620 C   0  0  0  0  0  0  0  0  0  0  0  0
   55.1590   -4.7150   -2.8329 O   0  0  0  0  0  0  0  0  0  0  0  0
   55.6802   -5.7759   -6.4575 N   0  0  0  0  0  0  0  0  0  0  0  0
   56.2889   -5.3882   -7.5650 C   0  0  0  0  0  0  0  0  0  0  0  0
   57.5738   -5.6432   -7.9689 C   0  0  0  0  0  0  0  0  0  0  0  0
   57.9976   -5.1255   -9.1867 C   0  0  0  0  0  0  0  0  0  0  0  0
   57.1506   -4.3783   -9.9644 C   0  0  0  0  0  0  0  0  0  0  0  0
   55.8377   -4.1163   -9.5545 C   0  0  0  0  0  0  0  0  0  0  0  0
   55.4321   -4.6296   -8.3568 C   0  0  0  0  0  0  0  0  0  0  0  0
   54.2436   -4.5697   -7.6651 C   0  0  0  0  0  0  0  0  0  0  0  0
   53.0245   -3.9636   -7.9080 C   0  0  0  0  0  0  0  0  0  0  0  0
   52.4791   -3.1611   -8.9880 C   0  0  0  0  0  0  0  0  0  0  0  0
   52.9886   -2.7784  -10.0425 O   0  0  0  0  0  0  0  0  0  0  0  0
   51.1304   -2.8337   -8.6393 N   0  0  0  0  0  0  0  0  0  0  0  0
   50.7852   -3.3958   -7.3562 C   0  0  0  0  0  0  0  0  0  0  0  0
   52.0284   -4.1011   -6.9592 C   0  0  0  0  0  0  0  0  0  0  0  0
   52.2165   -4.8222   -5.7853 C   0  0  0  0  0  0  0  0  0  0  0  0
   51.4548   -5.1056   -4.6957 C   0  0  0  0  0  0  0  0  0  0  0  0
   50.1625   -4.7413   -4.3954 C   0  0  0  0  0  0  0  0  0  0  0  0
   49.6071   -5.1520   -3.1800 C   0  0  0  0  0  0  0  0  0  0  0  0
   50.3795   -5.9119   -2.3200 C   0  0  0  0  0  0  0  0  0  0  0  0
   51.6775   -6.2655   -2.6450 C   0  0  0  0  0  0  0  0  0  0  0  0
   52.2428   -5.8738   -3.8347 C   0  0  0  0  0  0  0  0  0  0  0  0
   53.4730   -6.0692   -4.3806 N   0  0  0  0  0  0  0  0  0  0  0  0
   53.4231   -5.4030   -5.5832 C   0  0  0  0  0  0  0  0  0  0  0  0
   54.4403   -5.2873   -6.5050 C   0  0  0  0  0  0  0  0  0  0  0  0
   55.7018   -4.3842   -2.0772 H   0  0  0  0  0  0  0  0  0  0  0  0
   50.4500   -2.2639   -9.2114 H   0  0  0  0  0  0  0  0  0  0  0  0
   56.2168   -6.6055   -1.9519 C   0  0  0  0  0  0  0  0  0  0  0  0
   57.6026   -6.4723   -2.0450 O   0  0  0  0  0  0  0  0  0  0  0  0
   58.0589   -7.3363   -2.2099 H   0  0  0  0  0  0  0  0  0  0  0  0
  2  1  1  0  0  0
  2  3  1  0  0  0
  3  4  1  0  0  0
  4  5  1  0  0  0
  5  6  1  0  0  0
  6  7  1  0  0  0
  6 34  1  0  0  0
 34 35  1  0  0  0
  4  8  1  0  0  0
  8  9  1  0  0  0
  9 10  2  0  0  0
 10 11  1  0  0  0
 11 12  2  0  0  0
 12 13  1  0  0  0
 13 14  2  0  0  0
 14 15  1  0  0  0
 15 16  2  0  0  0
 16 17  1  0  0  0
 17 18  2  0  0  0
 17 19  1  0  0  0
 19 20  1  0  0  0
 20 21  1  0  0  0
 21 22  2  0  0  0
 22 23  1  0  0  0
 23 24  2  0  0  0
 24 25  1  0  0  0
 25 26  2  0  0  0
 26 27  1  0  0  0
 27 28  2  0  0  0
 28 29  1  0  0  0
 29 30  1  0  0  0
 30 31  2  0  0  0
  6  2  1  0  0  0
 31  8  1  0  0  0
 29  2  1  0  0  0
 14  9  1  0  0  0
 31 15  1  0  0  0
 21 16  1  0  0  0
 30 22  1  0  0  0
 28 23  1  0  0  0
  7 32  1  0  0  0
 35 36  1  0  0  0
 19 33  1  0  0  0
M  END
> <minimizedAffinity>
-13.13890

> <CNNscore>
0.8797060847

> <CNNaffinity>
7.0308732986

> <CNN_VS>
6.1851019859

> <CNNaffinity_variance>
0.0563527942

$$$$
[H]OC([H])([H])[C@@]1(O[H])C([H])([H])[C@@]2([H])O[C@]1(C([H])([H])[H])n1c3c([H])c([H])c([H])c([H])c3c3c4c(c5c6c([H])c([H])c([H])c([H])c6n2c5c31)C(=O)N([H])C4([H])[H]


 36 43  0  0  0  0  0  0  0  0999 V2000
   61.6191   -6.0613   -9.7276 C   0  0  0  0  0  0  0  0  0  0  0  0
   62.8250   -6.9368   -9.7487 C   0  0  0  0  0  0  0  0  0  0  0  0
   62.3770   -8.0060   -8.9245 O   0  0  0  0  0  0  0  0  0  0  0  0
   63.4293   -8.5605   -8.2802 C   0  0  0  0  0  0  0  0  0  0  0  0
   64.4030   -7.4914   -8.0222 C   0  0  0  0  0  0  0  0  0  0  0  0
   63.9931   -6.3943   -8.9794 C   0  0  0  0  0  0  0  0  0  0  0  0
   65.0962   -6.1312   -9.7776 O   0  0  0  0  0  0  0  0  0  0  0  0
   63.9642   -9.6967   -9.0418 N   0  0  0  0  0  0  0  0  0  0  0  0
   64.4295  -10.8531   -8.6020 C   0  0  0  0  0  0  0  0  0  0  0  0
   64.5383  -11.2951   -7.3089 C   0  0  0  0  0  0  0  0  0  0  0  0
   65.0638  -12.5621   -7.0868 C   0  0  0  0  0  0  0  0  0  0  0  0
   65.4633  -13.3498   -8.1358 C   0  0  0  0  0  0  0  0  0  0  0  0
   65.3534  -12.9011   -9.4574 C   0  0  0  0  0  0  0  0  0  0  0  0
   64.8359  -11.6553   -9.6640 C   0  0  0  0  0  0  0  0  0  0  0  0
   64.5922  -10.9176  -10.8003 C   0  0  0  0  0  0  0  0  0  0  0  0
   64.7877  -11.1466  -12.1501 C   0  0  0  0  0  0  0  0  0  0  0  0
   65.3065  -12.2526  -12.9346 C   0  0  0  0  0  0  0  0  0  0  0  0
   65.7416  -13.3515  -12.5867 O   0  0  0  0  0  0  0  0  0  0  0  0
   65.2434  -11.8676  -14.3115 N   0  0  0  0  0  0  0  0  0  0  0  0
   64.7040  -10.5360  -14.4439 C   0  0  0  0  0  0  0  0  0  0  0  0
   64.4331  -10.1480  -13.0380 C   0  0  0  0  0  0  0  0  0  0  0  0
   63.8927   -8.9381  -12.6165 C   0  0  0  0  0  0  0  0  0  0  0  0
   63.4797   -7.7997  -13.2340 C   0  0  0  0  0  0  0  0  0  0  0  0
   63.4649   -7.4679  -14.5691 C   0  0  0  0  0  0  0  0  0  0  0  0
   63.0019   -6.2047  -14.9489 C   0  0  0  0  0  0  0  0  0  0  0  0
   62.5743   -5.3308  -13.9655 C   0  0  0  0  0  0  0  0  0  0  0  0
   62.5992   -5.6882  -12.6286 C   0  0  0  0  0  0  0  0  0  0  0  0
   63.0491   -6.9250  -12.2332 C   0  0  0  0  0  0  0  0  0  0  0  0
   63.1873   -7.5100  -11.0133 N   0  0  0  0  0  0  0  0  0  0  0  0
   63.7144   -8.7509  -11.2871 C   0  0  0  0  0  0  0  0  0  0  0  0
   64.0567   -9.7221  -10.3720 C   0  0  0  0  0  0  0  0  0  0  0  0
   65.6303   -5.4238   -9.3425 H   0  0  0  0  0  0  0  0  0  0  0  0
   65.5394  -12.4458  -15.1438 H   0  0  0  0  0  0  0  0  0  0  0  0
   63.6793   -5.1738   -8.1823 C   0  0  0  0  0  0  0  0  0  0  0  0
   64.8814   -4.5945   -7.7746 O   0  0  0  0  0  0  0  0  0  0  0  0
   65.0383   -4.6863   -6.8006 H   0  0  0  0  0  0  0  0  0  0  0  0
  2  1  1  0  0  0
  2  3  1  0  0  0
  3  4  1  0  0  0
  4  5  1  0  0  0
  5  6  1  0  0  0
  6  7  1  0  0  0
  6 34  1  0  0  0
 34 35  1  0  0  0
  4  8  1  0  0  0
  8  9  1  0  0  0
  9 10  2  0  0  0
 10 11  1  0  0  0
 11 12  2  0  0  0
 12 13  1  0  0  0
 13 14  2  0  0  0
 14 15  1  0  0  0
 15 16  2  0  0  0
 16 17  1  0  0  0
 17 18  2  0  0  0
 17 19  1  0  0  0
 19 20  1  0  0  0
 20 21  1  0  0  0
 21 22  2  0  0  0
 22 23  1  0  0  0
 23 24  2  0  0  0
 24 25  1  0  0  0
 25 26  2  0  0  0
 26 27  1  0  0  0
 27 28  2  0  0  0
 28 29  1  0  0  0
 29 30  1  0  0  0
 30 31  2  0  0  0
  6  2  1  0  0  0
 31  8  1  0  0  0
 29  2  1  0  0  0
 14  9  1  0  0  0
 31 15  1  0  0  0
 21 16  1  0  0  0
 30 22  1  0  0  0
 28 23  1  0  0  0
  7 32  1  0  0  0
 35 36  1  0  0  0
 19 33  1  0  0  0
M  END
> <minimizedAffinity>
-2.71208

> <CNNscore>
0.6320461631

> <CNNaffinity>
4.8087005615

> <CNN_VS>
3.0393207073

> <CNNaffinity_variance>
0.5043185353

$$$$
[H]OC([H])([H])[C@@]1(O[H])C([H])([H])[C@@]2([H])O[C@]1(C([H])([H])[H])n1c3c([H])c([H])c([H])c([H])c3c3c4c(c5c6c([H])c([H])c([H])c([H])c6n2c5c31)C(=O)N([H])C4([H])[H]


 36 43  0  0  0  0  0  0  0  0999 V2000
   57.2081   -5.9139   -4.1576 C   0  0  0  0  0  0  0  0  0  0  0  0
   55.8147   -6.1850   -4.6117 C   0  0  0  0  0  0  0  0  0  0  0  0
   55.0808   -5.5556   -3.5684 O   0  0  0  0  0  0  0  0  0  0  0  0
   53.8976   -6.1878   -3.3942 C   0  0  0  0  0  0  0  0  0  0  0  0
   54.1065   -7.6093   -3.6996 C   0  0  0  0  0  0  0  0  0  0  0  0
   55.3960   -7.6204   -4.4902 C   0  0  0  0  0  0  0  0  0  0  0  0
   55.1073   -8.2089   -5.7123 O   0  0  0  0  0  0  0  0  0  0  0  0
   52.8436   -5.5453   -4.1903 N   0  0  0  0  0  0  0  0  0  0  0  0
   51.5774   -5.3270   -3.8800 C   0  0  0  0  0  0  0  0  0  0  0  0
   50.9117   -5.6496   -2.7259 C   0  0  0  0  0  0  0  0  0  0  0  0
   49.5665   -5.3165   -2.6250 C   0  0  0  0  0  0  0  0  0  0  0  0
   48.9219   -4.6807   -3.6550 C   0  0  0  0  0  0  0  0  0  0  0  0
   49.5992   -4.3500   -4.8349 C   0  0  0  0  0  0  0  0  0  0  0  0
   50.9200   -4.6818   -4.9232 C   0  0  0  0  0  0  0  0  0  0  0  0
   51.8656   -4.5126   -5.9090 C   0  0  0  0  0  0  0  0  0  0  0  0
   51.8380   -3.9609   -7.1769 C   0  0  0  0  0  0  0  0  0  0  0  0
   50.8218   -3.3169   -7.9895 C   0  0  0  0  0  0  0  0  0  0  0  0
   49.6365   -3.0765   -7.7542 O   0  0  0  0  0  0  0  0  0  0  0  0
   51.4324   -2.9565   -9.2325 N   0  0  0  0  0  0  0  0  0  0  0  0
   52.8186   -3.3561   -9.2538 C   0  0  0  0  0  0  0  0  0  0  0  0
   53.0041   -3.9770   -7.9195 C   0  0  0  0  0  0  0  0  0  0  0  0
   54.1861   -4.5240   -7.4326 C   0  0  0  0  0  0  0  0  0  0  0  0
   55.4424   -4.6953   -7.9226 C   0  0  0  0  0  0  0  0  0  0  0  0
   55.9747   -4.3516   -9.1439 C   0  0  0  0  0  0  0  0  0  0  0  0
   57.3112   -4.6613   -9.4126 C   0  0  0  0  0  0  0  0  0  0  0  0
   58.0528   -5.3046   -8.4380 C   0  0  0  0  0  0  0  0  0  0  0  0
   57.4941   -5.6400   -7.2168 C   0  0  0  0  0  0  0  0  0  0  0  0
   56.1830   -5.3439   -6.9312 C   0  0  0  0  0  0  0  0  0  0  0  0
   55.4025   -5.5691   -5.8405 N   0  0  0  0  0  0  0  0  0  0  0  0
   54.1749   -5.0534   -6.1862 C   0  0  0  0  0  0  0  0  0  0  0  0
   53.0322   -5.0569   -5.4167 C   0  0  0  0  0  0  0  0  0  0  0  0
   55.2585   -9.1812   -5.6301 H   0  0  0  0  0  0  0  0  0  0  0  0
   50.9700   -2.4667  -10.0455 H   0  0  0  0  0  0  0  0  0  0  0  0
   56.3781   -8.4789   -3.7677 C   0  0  0  0  0  0  0  0  0  0  0  0
   55.7998   -8.8929   -2.5673 O   0  0  0  0  0  0  0  0  0  0  0  0
   56.2165   -8.4665   -1.7758 H   0  0  0  0  0  0  0  0  0  0  0  0
  2  1  1  0  0  0
  2  3  1  0  0  0
  3  4  1  0  0  0
  4  5  1  0  0  0
  5  6  1  0  0  0
  6  7  1  0  0  0
  6 34  1  0  0  0
 34 35  1  0  0  0
  4  8  1  0  0  0
  8  9  1  0  0  0
  9 10  2  0  0  0
 10 11  1  0  0  0
 11 12  2  0  0  0
 12 13  1  0  0  0
 13 14  2  0  0  0
 14 15  1  0  0  0
 15 16  2  0  0  0
 16 17  1  0  0  0
 17 18  2  0  0  0
 17 19  1  0  0  0
 19 20  1  0  0  0
 20 21  1  0  0  0
 21 22  2  0  0  0
 22 23  1  0  0  0
 23 24  2  0  0  0
 24 25  1  0  0  0
 25 26  2  0  0  0
 26 27  1  0  0  0
 27 28  2  0  0  0
 28 29  1  0  0  0
 29 30  1  0  0  0
 30 31  2  0  0  0
  6  2  1  0  0  0
 31  8  1  0  0  0
 29  2  1  0  0  0
 14  9  1  0  0  0
 31 15  1  0  0  0
 21 16  1  0  0  0
 30 22  1  0  0  0
 28 23  1  0  0  0
  7 32  1  0  0  0
 35 36  1  0  0  0
 19 33  1  0  0  0
M  END
> <minimizedAffinity>
-9.91533

> <CNNscore>
0.4059527218

> <CNNaffinity>
6.4354257584

> <CNN_VS>
2.6124784946

> <CNNaffinity_variance>
0.0992594436

$$$$
[H]OC([H])([H])[C@@]1(O[H])C([H])([H])[C@@]2([H])O[C@]1(C([H])([H])[H])n1c3c([H])c([H])c([H])c([H])c3c3c4c(c5c6c([H])c([H])c([H])c([H])c6n2c5c31)C(=O)N([H])C4([H])[H]


 36 43  0  0  0  0  0  0  0  0999 V2000
   52.9566   -4.2282  -10.7033 C   0  0  0  0  0  0  0  0  0  0  0  0
   53.9481   -4.0587   -9.6036 C   0  0  0  0  0  0  0  0  0  0  0  0
   53.5178   -5.0814   -8.7138 O   0  0  0  0  0  0  0  0  0  0  0  0
   53.7989   -4.7281   -7.4386 C   0  0  0  0  0  0  0  0  0  0  0  0
   53.6849   -3.2664   -7.3494 C   0  0  0  0  0  0  0  0  0  0  0  0
   53.7585   -2.8124   -8.7904 C   0  0  0  0  0  0  0  0  0  0  0  0
   54.8307   -1.9372   -8.8767 O   0  0  0  0  0  0  0  0  0  0  0  0
   55.1049   -5.2604   -7.0284 N   0  0  0  0  0  0  0  0  0  0  0  0
   55.4747   -5.7609   -5.8621 C   0  0  0  0  0  0  0  0  0  0  0  0
   54.7301   -5.9111   -4.7211 C   0  0  0  0  0  0  0  0  0  0  0  0
   55.3398   -6.4690   -3.6041 C   0  0  0  0  0  0  0  0  0  0  0  0
   56.6538   -6.8593   -3.6434 C   0  0  0  0  0  0  0  0  0  0  0  0
   57.4168   -6.7072   -4.8074 C   0  0  0  0  0  0  0  0  0  0  0  0
   56.8080   -6.1581   -5.8984 C   0  0  0  0  0  0  0  0  0  0  0  0
   57.2463   -5.8697   -7.1709 C   0  0  0  0  0  0  0  0  0  0  0  0
   58.4591   -6.0111   -7.8203 C   0  0  0  0  0  0  0  0  0  0  0  0
   59.7620   -6.5339   -7.4501 C   0  0  0  0  0  0  0  0  0  0  0  0
   60.1627   -7.0197   -6.3911 O   0  0  0  0  0  0  0  0  0  0  0  0
   60.6164   -6.4012   -8.5903 N   0  0  0  0  0  0  0  0  0  0  0  0
   59.9060   -5.7982   -9.6918 C   0  0  0  0  0  0  0  0  0  0  0  0
   58.5482   -5.5867   -9.1330 C   0  0  0  0  0  0  0  0  0  0  0  0
   57.4670   -5.0305   -9.8079 C   0  0  0  0  0  0  0  0  0  0  0  0
   57.2659   -4.5218  -11.0523 C   0  0  0  0  0  0  0  0  0  0  0  0
   58.1351   -4.3924  -12.1109 C   0  0  0  0  0  0  0  0  0  0  0  0
   57.6785   -3.8073  -13.2956 C   0  0  0  0  0  0  0  0  0  0  0  0
   56.3652   -3.3778  -13.3611 C   0  0  0  0  0  0  0  0  0  0  0  0
   55.5101   -3.5192  -12.2819 C   0  0  0  0  0  0  0  0  0  0  0  0
   55.9375   -4.0924  -11.1084 C   0  0  0  0  0  0  0  0  0  0  0  0
   55.3204   -4.3335   -9.9208 N   0  0  0  0  0  0  0  0  0  0  0  0
   56.2953   -4.9098   -9.1398 C   0  0  0  0  0  0  0  0  0  0  0  0
   56.1682   -5.3203   -7.8309 C   0  0  0  0  0  0  0  0  0  0  0  0
   54.4982   -1.0237   -8.7036 H   0  0  0  0  0  0  0  0  0  0  0  0
   61.6295   -6.6907   -8.6583 H   0  0  0  0  0  0  0  0  0  0  0  0
   52.5071   -2.0663   -9.1082 C   0  0  0  0  0  0  0  0  0  0  0  0
   51.5158   -2.4699   -8.2131 O   0  0  0  0  0  0  0  0  0  0  0  0
   50.8097   -3.0141   -8.6456 H   0  0  0  0  0  0  0  0  0  0  0  0
  2  1  1  0  0  0
  2  3  1  0  0  0
  3  4  1  0  0  0
  4  5  1  0  0  0
  5  6  1  0  0  0
  6  7  1  0  0  0
  6 34  1  0  0  0
 34 35  1  0  0  0
  4  8  1  0  0  0
  8  9  1  0  0  0
  9 10  2  0  0  0
 10 11  1  0  0  0
 11 12  2  0  0  0
 12 13  1  0  0  0
 13 14  2  0  0  0
 14 15  1  0  0  0
 15 16  2  0  0  0
 16 17  1  0  0  0
 17 18  2  0  0  0
 17 19  1  0  0  0
 19 20  1  0  0  0
 20 21  1  0  0  0
 21 22  2  0  0  0
 22 23  1  0  0  0
 23 24  2  0  0  0
 24 25  1  0  0  0
 25 26  2  0  0  0
 26 27  1  0  0  0
 27 28  2  0  0  0
 28 29  1  0  0  0
 29 30  1  0  0  0
 30 31  2  0  0  0
  6  2  1  0  0  0
 31  8  1  0  0  0
 29  2  1  0  0  0
 14  9  1  0  0  0
 31 15  1  0  0  0
 21 16  1  0  0  0
 30 22  1  0  0  0
 28 23  1  0  0  0
  7 32  1  0  0  0
 35 36  1  0  0  0
 19 33  1  0  0  0
M  END
> <minimizedAffinity>
-3.13274

> <CNNscore>
0.4058468938

> <CNNaffinity>
6.0742416382

> <CNN_VS>
2.4652121067

> <CNNaffinity_variance>
0.1501375139

$$$$
[H]OC([H])([H])[C@@]1(O[H])C([H])([H])[C@@]2([H])O[C@]1(C([H])([H])[H])n1c3c([H])c([H])c([H])c([H])c3c3c4c(c5c6c([H])c([H])c([H])c([H])c6n2c5c31)C(=O)N([H])C4([H])[H]


 36 43  0  0  0  0  0  0  0  0999 V2000
   55.9637   -2.3120  -11.8150 C   0  0  0  0  0  0  0  0  0  0  0  0
   56.3970   -3.6216  -11.2508 C   0  0  0  0  0  0  0  0  0  0  0  0
   57.7817   -3.3659  -11.0501 O   0  0  0  0  0  0  0  0  0  0  0  0
   58.4830   -4.5162  -11.1729 C   0  0  0  0  0  0  0  0  0  0  0  0
   57.7941   -5.3500  -12.1668 C   0  0  0  0  0  0  0  0  0  0  0  0
   56.4096   -4.7459  -12.2440 C   0  0  0  0  0  0  0  0  0  0  0  0
   55.5162   -5.7593  -11.9310 O   0  0  0  0  0  0  0  0  0  0  0  0
   58.6624   -5.1571   -9.8637 N   0  0  0  0  0  0  0  0  0  0  0  0
   59.7149   -5.7963   -9.3830 C   0  0  0  0  0  0  0  0  0  0  0  0
   60.9220   -6.0326   -9.9882 C   0  0  0  0  0  0  0  0  0  0  0  0
   61.8892   -6.7345   -9.2794 C   0  0  0  0  0  0  0  0  0  0  0  0
   61.6414   -7.1793   -8.0061 C   0  0  0  0  0  0  0  0  0  0  0  0
   60.4095   -6.9395   -7.3854 C   0  0  0  0  0  0  0  0  0  0  0  0
   59.4669   -6.2492   -8.0907 C   0  0  0  0  0  0  0  0  0  0  0  0
   58.1833   -5.8481   -7.7972 C   0  0  0  0  0  0  0  0  0  0  0  0
   57.3617   -5.9999   -6.6951 C   0  0  0  0  0  0  0  0  0  0  0  0
   57.5061   -6.6196   -5.3902 C   0  0  0  0  0  0  0  0  0  0  0  0
   58.4576   -7.2162   -4.8836 O   0  0  0  0  0  0  0  0  0  0  0  0
   56.2733   -6.4317   -4.6882 N   0  0  0  0  0  0  0  0  0  0  0  0
   55.3265   -5.7122   -5.5051 C   0  0  0  0  0  0  0  0  0  0  0  0
   56.0873   -5.4674   -6.7548 C   0  0  0  0  0  0  0  0  0  0  0  0
   55.6168   -4.7929   -7.8761 C   0  0  0  0  0  0  0  0  0  0  0  0
   54.4443   -4.1984   -8.2218 C   0  0  0  0  0  0  0  0  0  0  0  0
   53.2715   -4.0677   -7.5144 C   0  0  0  0  0  0  0  0  0  0  0  0
   52.1871   -3.4196   -8.1130 C   0  0  0  0  0  0  0  0  0  0  0  0
   52.3324   -2.9320   -9.3994 C   0  0  0  0  0  0  0  0  0  0  0  0
   53.5229   -3.0762  -10.0905 C   0  0  0  0  0  0  0  0  0  0  0  0
   54.6018   -3.7086   -9.5208 C   0  0  0  0  0  0  0  0  0  0  0  0
   55.8526   -3.9893   -9.9751 N   0  0  0  0  0  0  0  0  0  0  0  0
   56.4507   -4.6627   -8.9352 C   0  0  0  0  0  0  0  0  0  0  0  0
   57.7270   -5.1807   -8.9135 C   0  0  0  0  0  0  0  0  0  0  0  0
   55.2619   -6.2162  -12.7686 H   0  0  0  0  0  0  0  0  0  0  0  0
   56.0468   -6.7576   -3.7098 H   0  0  0  0  0  0  0  0  0  0  0  0
   56.1674   -4.3143  -13.6507 C   0  0  0  0  0  0  0  0  0  0  0  0
   56.3498   -5.4170  -14.4859 O   0  0  0  0  0  0  0  0  0  0  0  0
   57.1671   -5.3440  -15.0414 H   0  0  0  0  0  0  0  0  0  0  0  0
  2  1  1  0  0  0
  2  3  1  0  0  0
  3  4  1  0  0  0
  4  5  1  0  0  0
  5  6  1  0  0  0
  6  7  1  0  0  0
  6 34  1  0  0  0
 34 35  1  0  0  0
  4  8  1  0  0  0
  8  9  1  0  0  0
  9 10  2  0  0  0
 10 11  1  0  0  0
 11 12  2  0  0  0
 12 13  1  0  0  0
 13 14  2  0  0  0
 14 15  1  0  0  0
 15 16  2  0  0  0
 16 17  1  0  0  0
 17 18  2  0  0  0
 17 19  1  0  0  0
 19 20  1  0  0  0
 20 21  1  0  0  0
 21 22  2  0  0  0
 22 23  1  0  0  0
 23 24  2  0  0  0
 24 25  1  0  0  0
 25 26  2  0  0  0
 26 27  1  0  0  0
 27 28  2  0  0  0
 28 29  1  0  0  0
 29 30  1  0  0  0
 30 31  2  0  0  0
  6  2  1  0  0  0
 31  8  1  0  0  0
 29  2  1  0  0  0
 14  9  1  0  0  0
 31 15  1  0  0  0
 21 16  1  0  0  0
 30 22  1  0  0  0
 28 23  1  0  0  0
  7 32  1  0  0  0
 35 36  1  0  0  0
 19 33  1  0  0  0
M  END
> <minimizedAffinity>
2.74209

> <CNNscore>
0.3512608707

> <CNNaffinity>
5.9160537720

> <CNN_VS>
2.0780782700

> <CNNaffinity_variance>
0.3250520229

$$$$
[H]OC([H])([H])[C@@]1(O[H])C([H])([H])[C@@]2([H])O[C@]1(C([H])([H])[H])n1c3c([H])c([H])c([H])c([H])c3c3c4c(c5c6c([H])c([H])c([H])c([H])c6n2c5c31)C(=O)N([H])C4([H])[H]


 36 43  0  0  0  0  0  0  0  0999 V2000
   61.2432   -4.5307  -16.2301 C   0  0  0  0  0  0  0  0  0  0  0  0
   61.1313   -4.2188  -14.7771 C   0  0  0  0  0  0  0  0  0  0  0  0
   59.7807   -4.5965  -14.5396 O   0  0  0  0  0  0  0  0  0  0  0  0
   59.2621   -3.8427  -13.5432 C   0  0  0  0  0  0  0  0  0  0  0  0
   59.8899   -2.5168  -13.6192 C   0  0  0  0  0  0  0  0  0  0  0  0
   61.1243   -2.7524  -14.4610 C   0  0  0  0  0  0  0  0  0  0  0  0
   62.2094   -2.3552  -13.6942 O   0  0  0  0  0  0  0  0  0  0  0  0
   59.4208   -4.5151  -12.2471 N   0  0  0  0  0  0  0  0  0  0  0  0
   58.5855   -4.5660  -11.2239 C   0  0  0  0  0  0  0  0  0  0  0  0
   57.3444   -3.9964  -11.1039 C   0  0  0  0  0  0  0  0  0  0  0  0
   56.6421   -4.1884   -9.9204 C   0  0  0  0  0  0  0  0  0  0  0  0
   57.1780   -4.9296   -8.8987 C   0  0  0  0  0  0  0  0  0  0  0  0
   58.4453   -5.5126   -9.0185 C   0  0  0  0  0  0  0  0  0  0  0  0
   59.1262   -5.3176  -10.1850 C   0  0  0  0  0  0  0  0  0  0  0  0
   60.3604   -5.7328  -10.6311 C   0  0  0  0  0  0  0  0  0  0  0  0
   61.3766   -6.4857  -10.0715 C   0  0  0  0  0  0  0  0  0  0  0  0
   61.5652   -7.1657   -8.8027 C   0  0  0  0  0  0  0  0  0  0  0  0
   60.8257   -7.2582   -7.8217 O   0  0  0  0  0  0  0  0  0  0  0  0
   62.8561   -7.7827   -8.8353 N   0  0  0  0  0  0  0  0  0  0  0  0
   63.5168   -7.5156  -10.0898 C   0  0  0  0  0  0  0  0  0  0  0  0
   62.5187   -6.6974  -10.8213 C   0  0  0  0  0  0  0  0  0  0  0  0
   62.6703   -6.1820  -12.1038 C   0  0  0  0  0  0  0  0  0  0  0  0
   63.6532   -6.2067  -13.0425 C   0  0  0  0  0  0  0  0  0  0  0  0
   64.8958   -6.7966  -13.0131 C   0  0  0  0  0  0  0  0  0  0  0  0
   65.7400   -6.6551  -14.1184 C   0  0  0  0  0  0  0  0  0  0  0  0
   65.2945   -5.9243  -15.2052 C   0  0  0  0  0  0  0  0  0  0  0  0
   64.0397   -5.3403  -15.2104 C   0  0  0  0  0  0  0  0  0  0  0  0
   63.1932   -5.4678  -14.1355 C   0  0  0  0  0  0  0  0  0  0  0  0
   61.9434   -4.9944  -13.8837 N   0  0  0  0  0  0  0  0  0  0  0  0
   61.6532   -5.4512  -12.6189 C   0  0  0  0  0  0  0  0  0  0  0  0
   60.5003   -5.2178  -11.9018 C   0  0  0  0  0  0  0  0  0  0  0  0
   62.3822   -1.4000  -13.8752 H   0  0  0  0  0  0  0  0  0  0  0  0
   63.3003   -8.3600   -8.0711 H   0  0  0  0  0  0  0  0  0  0  0  0
   61.0429   -1.8739  -15.6632 C   0  0  0  0  0  0  0  0  0  0  0  0
   59.7028   -1.7616  -16.0351 O   0  0  0  0  0  0  0  0  0  0  0  0
   59.5002   -2.2372  -16.8805 H   0  0  0  0  0  0  0  0  0  0  0  0
  2  1  1  0  0  0
  2  3  1  0  0  0
  3  4  1  0  0  0
  4  5  1  0  0  0
  5  6  1  0  0  0
  6  7  1  0  0  0
  6 34  1  0  0  0
 34 35  1  0  0  0
  4  8  1  0  0  0
  8  9  1  0  0  0
  9 10  2  0  0  0
 10 11  1  0  0  0
 11 12  2  0  0  0
 12 13  1  0  0  0
 13 14  2  0  0  0
 14 15  1  0  0  0
 15 16  2  0  0  0
 16 17  1  0  0  0
 17 18  2  0  0  0
 17 19  1  0  0  0
 19 20  1  0  0  0
 20 21  1  0  0  0
 21 22  2  0  0  0
 22 23  1  0  0  0
 23 24  2  0  0  0
 24 25  1  0  0  0
 25 26  2  0  0  0
 26 27  1  0  0  0
 27 28  2  0  0  0
 28 29  1  0  0  0
 29 30  1  0  0  0
 30 31  2  0  0  0
  6  2  1  0  0  0
 31  8  1  0  0  0
 29  2  1  0  0  0
 14  9  1  0  0  0
 31 15  1  0  0  0
 21 16  1  0  0  0
 30 22  1  0  0  0
 28 23  1  0  0  0
  7 32  1  0  0  0
 35 36  1  0  0  0
 19 33  1  0  0  0
M  END
> <minimizedAffinity>
0.70452

> <CNNscore>
0.3013141751

> <CNNaffinity>
4.6180534363

> <CNN_VS>
1.3914849758

> <CNNaffinity_variance>
0.5053692460

$$$$
[H]OC([H])([H])[C@@]1(O[H])C([H])([H])[C@@]2([H])O[C@]1(C([H])([H])[H])n1c3c([H])c([H])c([H])c([H])c3c3c4c(c5c6c([H])c([H])c([H])c([H])c6n2c5c31)C(=O)N([H])C4([H])[H]


 36 43  0  0  0  0  0  0  0  0999 V2000
   59.0731   -4.2782  -17.3362 C   0  0  0  0  0  0  0  0  0  0  0  0
   59.3245   -3.8761  -15.9233 C   0  0  0  0  0  0  0  0  0  0  0  0
   58.2502   -4.5450  -15.2741 O   0  0  0  0  0  0  0  0  0  0  0  0
   57.8782   -3.8536  -14.1725 C   0  0  0  0  0  0  0  0  0  0  0  0
   58.0936   -2.4277  -14.4518 C   0  0  0  0  0  0  0  0  0  0  0  0
   59.0374   -2.4324  -15.6338 C   0  0  0  0  0  0  0  0  0  0  0  0
   60.1626   -1.7204  -15.2462 O   0  0  0  0  0  0  0  0  0  0  0  0
   58.5832   -4.3518  -12.9842 N   0  0  0  0  0  0  0  0  0  0  0  0
   58.1337   -4.5121  -11.7515 C   0  0  0  0  0  0  0  0  0  0  0  0
   56.8828   -4.2493  -11.2563 C   0  0  0  0  0  0  0  0  0  0  0  0
   56.6396   -4.4999   -9.9114 C   0  0  0  0  0  0  0  0  0  0  0  0
   57.6270   -4.9980   -9.1006 C   0  0  0  0  0  0  0  0  0  0  0  0
   58.9056   -5.2674   -9.6036 C   0  0  0  0  0  0  0  0  0  0  0  0
   59.1334   -5.0175  -10.9258 C   0  0  0  0  0  0  0  0  0  0  0  0
   60.2411   -5.1614  -11.7301 C   0  0  0  0  0  0  0  0  0  0  0  0
   61.5352   -5.5959  -11.5079 C   0  0  0  0  0  0  0  0  0  0  0  0
   62.2614   -6.0966  -10.3548 C   0  0  0  0  0  0  0  0  0  0  0  0
   61.8981   -6.2777   -9.1915 O   0  0  0  0  0  0  0  0  0  0  0  0
   63.5963   -6.3856  -10.7819 N   0  0  0  0  0  0  0  0  0  0  0  0
   63.7608   -6.0786  -12.1820 C   0  0  0  0  0  0  0  0  0  0  0  0
   62.4155   -5.5917  -12.5738 C   0  0  0  0  0  0  0  0  0  0  0  0
   62.0400   -5.1695  -13.8444 C   0  0  0  0  0  0  0  0  0  0  0  0
   62.6697   -5.0394  -15.0420 C   0  0  0  0  0  0  0  0  0  0  0  0
   63.9719   -5.3084  -15.3955 C   0  0  0  0  0  0  0  0  0  0  0  0
   64.3818   -5.0656  -16.7098 C   0  0  0  0  0  0  0  0  0  0  0  0
   63.4607   -4.5616  -17.6104 C   0  0  0  0  0  0  0  0  0  0  0  0
   62.1560   -4.2991  -17.2302 C   0  0  0  0  0  0  0  0  0  0  0  0
   61.7313   -4.5315  -15.9441 C   0  0  0  0  0  0  0  0  0  0  0  0
   60.5364   -4.3523  -15.3202 N   0  0  0  0  0  0  0  0  0  0  0  0
   60.7641   -4.7527  -14.0239 C   0  0  0  0  0  0  0  0  0  0  0  0
   59.8586   -4.7414  -12.9858 C   0  0  0  0  0  0  0  0  0  0  0  0
   60.0231   -0.7713  -15.4804 H   0  0  0  0  0  0  0  0  0  0  0  0
   64.3807   -6.7699  -10.1887 H   0  0  0  0  0  0  0  0  0  0  0  0
   58.3789   -1.7082  -16.7587 C   0  0  0  0  0  0  0  0  0  0  0  0
   59.3301   -0.8925  -17.3724 O   0  0  0  0  0  0  0  0  0  0  0  0
   59.1711    0.0712  -17.2057 H   0  0  0  0  0  0  0  0  0  0  0  0
  2  1  1  0  0  0
  2  3  1  0  0  0
  3  4  1  0  0  0
  4  5  1  0  0  0
  5  6  1  0  0  0
  6  7  1  0  0  0
  6 34  1  0  0  0
 34 35  1  0  0  0
  4  8  1  0  0  0
  8  9  1  0  0  0
  9 10  2  0  0  0
 10 11  1  0  0  0
 11 12  2  0  0  0
 12 13  1  0  0  0
 13 14  2  0  0  0
 14 15  1  0  0  0
 15 16  2  0  0  0
 16 17  1  0  0  0
 17 18  2  0  0  0
 17 19  1  0  0  0
 19 20  1  0  0  0
 20 21  1  0  0  0
 21 22  2  0  0  0
 22 23  1  0  0  0
 23 24  2  0  0  0
 24 25  1  0  0  0
 25 26  2  0  0  0
 26 27  1  0  0  0
 27 28  2  0  0  0
 28 29  1  0  0  0
 29 30  1  0  0  0
 30 31  2  0  0  0
  6  2  1  0  0  0
 31  8  1  0  0  0
 29  2  1  0  0  0
 14  9  1  0  0  0
 31 15  1  0  0  0
 21 16  1  0  0  0
 30 22  1  0  0  0
 28 23  1  0  0  0
  7 32  1  0  0  0
 35 36  1  0  0  0
 19 33  1  0  0  0
M  END
> <minimizedAffinity>
5.19974

> <CNNscore>
0.2948720455

> <CNNaffinity>
4.6382708549

> <CNN_VS>
1.3676964045

> <CNNaffinity_variance>
0.6070107222

$$$$
[H]OC([H])([H])[C@@]1(O[H])C([H])([H])[C@@]2([H])O[C@]1(C([H])([H])[H])n1c3c([H])c([H])c([H])c([H])c3c3c4c(c5c6c([H])c([H])c([H])c([H])c6n2c5c31)C(=O)N([H])C4([H])[H]


 36 43  0  0  0  0  0  0  0  0999 V2000
   58.1290   -4.7807  -14.2509 C   0  0  0  0  0  0  0  0  0  0  0  0
   58.3685   -4.4639  -12.8144 C   0  0  0  0  0  0  0  0  0  0  0  0
   57.3281   -5.2226  -12.2102 O   0  0  0  0  0  0  0  0  0  0  0  0
   56.9305   -4.6243  -11.0639 C   0  0  0  0  0  0  0  0  0  0  0  0
   57.0807   -3.1746  -11.2466 C   0  0  0  0  0  0  0  0  0  0  0  0
   58.0185   -3.0573  -12.4276 C   0  0  0  0  0  0  0  0  0  0  0  0
   59.1124   -2.3232  -11.9945 O   0  0  0  0  0  0  0  0  0  0  0  0
   57.6624   -5.1693   -9.9130 N   0  0  0  0  0  0  0  0  0  0  0  0
   57.2261   -5.4324   -8.6933 C   0  0  0  0  0  0  0  0  0  0  0  0
   55.9670   -5.2599   -8.1796 C   0  0  0  0  0  0  0  0  0  0  0  0
   55.7412   -5.6113   -6.8544 C   0  0  0  0  0  0  0  0  0  0  0  0
   56.7537   -6.1180   -6.0806 C   0  0  0  0  0  0  0  0  0  0  0  0
   58.0407   -6.2953   -6.6025 C   0  0  0  0  0  0  0  0  0  0  0  0
   58.2512   -5.9469   -7.9051 C   0  0  0  0  0  0  0  0  0  0  0  0
   59.3605   -5.9863   -8.7189 C   0  0  0  0  0  0  0  0  0  0  0  0
   60.6737   -6.3762   -8.5284 C   0  0  0  0  0  0  0  0  0  0  0  0
   61.4268   -6.9205   -7.4129 C   0  0  0  0  0  0  0  0  0  0  0  0
   61.0772   -7.1957   -6.2640 O   0  0  0  0  0  0  0  0  0  0  0  0
   62.7714   -7.1197   -7.8606 N   0  0  0  0  0  0  0  0  0  0  0  0
   62.9157   -6.7120   -9.2369 C   0  0  0  0  0  0  0  0  0  0  0  0
   61.5481   -6.2608   -9.5930 C   0  0  0  0  0  0  0  0  0  0  0  0
   61.1485   -5.7712  -10.8316 C   0  0  0  0  0  0  0  0  0  0  0  0
   61.7663   -5.5325  -12.0187 C   0  0  0  0  0  0  0  0  0  0  0  0
   63.0776   -5.7183  -12.3914 C   0  0  0  0  0  0  0  0  0  0  0  0
   63.4703   -5.3693  -13.6869 C   0  0  0  0  0  0  0  0  0  0  0  0
   62.5235   -4.8477  -14.5501 C   0  0  0  0  0  0  0  0  0  0  0  0
   61.2101   -4.6702  -14.1511 C   0  0  0  0  0  0  0  0  0  0  0  0
   60.8021   -5.0076  -12.8830 C   0  0  0  0  0  0  0  0  0  0  0  0
   59.6031   -4.9247  -12.2466 N   0  0  0  0  0  0  0  0  0  0  0  0
   59.8544   -5.4009  -10.9807 C   0  0  0  0  0  0  0  0  0  0  0  0
   58.9539   -5.5003   -9.9428 C   0  0  0  0  0  0  0  0  0  0  0  0
   58.9296   -1.3678  -12.1639 H   0  0  0  0  0  0  0  0  0  0  0  0
   63.5748   -7.5075   -7.2958 H   0  0  0  0  0  0  0  0  0  0  0  0
   57.3232   -2.2892  -13.5001 C   0  0  0  0  0  0  0  0  0  0  0  0
   56.0153   -2.7643  -13.6028 O   0  0  0  0  0  0  0  0  0  0  0  0
   55.8584   -3.2727  -14.4388 H   0  0  0  0  0  0  0  0  0  0  0  0
  2  1  1  0  0  0
  2  3  1  0  0  0
  3  4  1  0  0  0
  4  5  1  0  0  0
  5  6  1  0  0  0
  6  7  1  0  0  0
  6 34  1  0  0  0
 34 35  1  0  0  0
  4  8  1  0  0  0
  8  9  1  0  0  0
  9 10  2  0  0  0
 10 11  1  0  0  0
 11 12  2  0  0  0
 12 13  1  0  0  0
 13 14  2  0  0  0
 14 15  1  0  0  0
 15 16  2  0  0  0
 16 17  1  0  0  0
 17 18  2  0  0  0
 17 19  1  0  0  0
 19 20  1  0  0  0
 20 21  1  0  0  0
 21 22  2  0  0  0
 22 23  1  0  0  0
 23 24  2  0  0  0
 24 25  1  0  0  0
 25 26  2  0  0  0
 26 27  1  0  0  0
 27 28  2  0  0  0
 28 29  1  0  0  0
 29 30  1  0  0  0
 30 31  2  0  0  0
  6  2  1  0  0  0
 31  8  1  0  0  0
 29  2  1  0  0  0
 14  9  1  0  0  0
 31 15  1  0  0  0
 21 16  1  0  0  0
 30 22  1  0  0  0
 28 23  1  0  0  0
  7 32  1  0  0  0
 35 36  1  0  0  0
 19 33  1  0  0  0
M  END
> <minimizedAffinity>
10.76409

> <CNNscore>
0.2940688431

> <CNNaffinity>
5.0710725784

> <CNN_VS>
1.4912444353

> <CNNaffinity_variance>
0.1874392480

$$$$
[H]OC([H])([H])[C@@]1(O[H])C([H])([H])[C@@]2([H])O[C@]1(C([H])([H])[H])n1c3c([H])c([H])c([H])c([H])c3c3c4c(c5c6c([H])c([H])c([H])c([H])c6n2c5c31)C(=O)N([H])C4([H])[H]


 36 43  0  0  0  0  0  0  0  0999 V2000
   62.9247  -10.0727   -5.7388 C   0  0  0  0  0  0  0  0  0  0  0  0
   62.0702   -9.0994   -5.0016 C   0  0  0  0  0  0  0  0  0  0  0  0
   61.0471   -8.8792   -5.9648 O   0  0  0  0  0  0  0  0  0  0  0  0
   60.5518   -7.6275   -5.8299 C   0  0  0  0  0  0  0  0  0  0  0  0
   61.6513   -6.7629   -5.3813 C   0  0  0  0  0  0  0  0  0  0  0  0
   62.6794   -7.7369   -4.8499 C   0  0  0  0  0  0  0  0  0  0  0  0
   62.9109   -7.3877   -3.5279 O   0  0  0  0  0  0  0  0  0  0  0  0
   59.3796   -7.6257   -4.9451 N   0  0  0  0  0  0  0  0  0  0  0  0
   58.2609   -6.9281   -5.0409 C   0  0  0  0  0  0  0  0  0  0  0  0
   57.9023   -6.0140   -5.9975 C   0  0  0  0  0  0  0  0  0  0  0  0
   56.6608   -5.3994   -5.8901 C   0  0  0  0  0  0  0  0  0  0  0  0
   55.8160   -5.7006   -4.8528 C   0  0  0  0  0  0  0  0  0  0  0  0
   56.1795   -6.6338   -3.8744 C   0  0  0  0  0  0  0  0  0  0  0  0
   57.4010   -7.2313   -3.9896 C   0  0  0  0  0  0  0  0  0  0  0  0
   58.0621   -8.1684   -3.2284 C   0  0  0  0  0  0  0  0  0  0  0  0
   57.7527   -8.8456   -2.0629 C   0  0  0  0  0  0  0  0  0  0  0  0
   56.6089   -8.8721   -1.1691 C   0  0  0  0  0  0  0  0  0  0  0  0
   55.5414   -8.2584   -1.2100 O   0  0  0  0  0  0  0  0  0  0  0  0
   56.9061   -9.7999   -0.1208 N   0  0  0  0  0  0  0  0  0  0  0  0
   58.2175  -10.3728   -0.3043 C   0  0  0  0  0  0  0  0  0  0  0  0
   58.6878   -9.7279   -1.5546 C   0  0  0  0  0  0  0  0  0  0  0  0
   59.9124   -9.9499   -2.1750 C   0  0  0  0  0  0  0  0  0  0  0  0
   61.0028  -10.7165   -1.9087 C   0  0  0  0  0  0  0  0  0  0  0  0
   61.2503  -11.5778   -0.8647 C   0  0  0  0  0  0  0  0  0  0  0  0
   62.4793  -12.2418   -0.8102 C   0  0  0  0  0  0  0  0  0  0  0  0
   63.4056  -12.0079   -1.8107 C   0  0  0  0  0  0  0  0  0  0  0  0
   63.1327  -11.1363   -2.8507 C   0  0  0  0  0  0  0  0  0  0  0  0
   61.9308  -10.4742   -2.9247 C   0  0  0  0  0  0  0  0  0  0  0  0
   61.4254   -9.5752   -3.8112 N   0  0  0  0  0  0  0  0  0  0  0  0
   60.1790   -9.2699   -3.3154 C   0  0  0  0  0  0  0  0  0  0  0  0
   59.2728   -8.3816   -3.8516 C   0  0  0  0  0  0  0  0  0  0  0  0
   63.6530   -6.7368   -3.5060 H   0  0  0  0  0  0  0  0  0  0  0  0
   56.2822  -10.0577    0.6910 H   0  0  0  0  0  0  0  0  0  0  0  0
   63.9418   -7.5485   -5.6209 C   0  0  0  0  0  0  0  0  0  0  0  0
   64.9992   -7.4529   -4.7156 O   0  0  0  0  0  0  0  0  0  0  0  0
   65.3792   -6.5391   -4.6677 H   0  0  0  0  0  0  0  0  0  0  0  0
  2  1  1  0  0  0
  2  3  1  0  0  0
  3  4  1  0  0  0
  4  5  1  0  0  0
  5  6  1  0  0  0
  6  7  1  0  0  0
  6 34  1  0  0  0
 34 35  1  0  0  0
  4  8  1  0  0  0
  8  9  1  0  0  0
  9 10  2  0  0  0
 10 11  1  0  0  0
 11 12  2  0  0  0
 12 13  1  0  0  0
 13 14  2  0  0  0
 14 15  1  0  0  0
 15 16  2  0  0  0
 16 17  1  0  0  0
 17 18  2  0  0  0
 17 19  1  0  0  0
 19 20  1  0  0  0
 20 21  1  0  0  0
 21 22  2  0  0  0
 22 23  1  0  0  0
 23 24  2  0  0  0
 24 25  1  0  0  0
 25 26  2  0  0  0
 26 27  1  0  0  0
 27 28  2  0  0  0
 28 29  1  0  0  0
 29 30  1  0  0  0
 30 31  2  0  0  0
  6  2  1  0  0  0
 31  8  1  0  0  0
 29  2  1  0  0  0
 14  9  1  0  0  0
 31 15  1  0  0  0
 21 16  1  0  0  0
 30 22  1  0  0  0
 28 23  1  0  0  0
  7 32  1  0  0  0
 35 36  1  0  0  0
 19 33  1  0  0  0
M  END
> <minimizedAffinity>
2.82897

> <CNNscore>
0.2705294192

> <CNNaffinity>
4.9992237091

> <CNN_VS>
1.3524371386

> <CNNaffinity_variance>
0.4699259698

$$$$
[H]c1nc(N([H])c2c([H])c([H])c(N3C([H])([H])C([H])([H])N(C([H])([H])[H])C([H])([H])C3([H])[H])c([H])c2OC([H])([H])[H])nc2c1N(C([H])([H])[H])C(=O)[C@@]([H])(C([H])([H])[H])N2C1([H])C([H])([H])C([H])([H])C([H])([H])C1([H])[H]


 35 39  0  0  0  0  0  0  0  0999 V2000
   54.2644   -3.4021   -9.2008 C   0  0  0  0  0  0  0  0  0  0  0  0
   53.2109   -2.6272   -9.4404 N   0  0  0  0  0  0  0  0  0  0  0  0
   52.0785   -2.6337   -8.7203 C   0  0  0  0  0  0  0  0  0  0  0  0
   51.9780   -3.4978   -7.6506 C   0  0  0  0  0  0  0  0  0  0  0  0
   50.7969   -3.5344   -6.8614 N   0  0  0  0  0  0  0  0  0  0  0  0
   49.6520   -2.6946   -7.1178 C   0  0  0  0  0  0  0  0  0  0  0  0
   50.7891   -4.4597   -5.7755 C   0  0  0  0  0  0  0  0  0  0  0  0
   50.0294   -4.2599   -4.7673 O   0  0  0  0  0  0  0  0  0  0  0  0
   51.6818   -5.6363   -5.8677 C   0  0  0  0  0  0  0  0  0  0  0  0
   51.0796   -6.5524   -6.9394 C   0  0  0  0  0  0  0  0  0  0  0  0
   53.0434   -5.2417   -6.2851 N   0  0  0  0  0  0  0  0  0  0  0  0
   53.0575   -4.3129   -7.3804 C   0  0  0  0  0  0  0  0  0  0  0  0
   54.1322   -4.2399   -8.1421 N   0  0  0  0  0  0  0  0  0  0  0  0
   54.1683   -5.7608   -5.6230 C   0  0  0  0  0  0  0  0  0  0  0  0
   54.0989   -5.8699   -4.1225 C   0  0  0  0  0  0  0  0  0  0  0  0
   55.4695   -6.4930   -3.8199 C   0  0  0  0  0  0  0  0  0  0  0  0
   55.9444   -7.1522   -5.0874 C   0  0  0  0  0  0  0  0  0  0  0  0
   54.7419   -7.0534   -6.0586 C   0  0  0  0  0  0  0  0  0  0  0  0
   55.4710   -3.4365   -9.9184 N   0  0  0  0  0  0  0  0  0  0  0  0
   55.5384   -2.7867  -10.7702 H   0  0  0  0  0  0  0  0  0  0  0  0
   57.3657   -4.6542  -10.7828 C   0  0  0  0  0  0  0  0  0  0  0  0
   58.5087   -5.4187  -10.6348 C   0  0  0  0  0  0  0  0  0  0  0  0
   58.9684   -5.7776   -9.3870 C   0  0  0  0  0  0  0  0  0  0  0  0
   58.2535   -5.3506   -8.3023 C   0  0  0  0  0  0  0  0  0  0  0  0
   57.0901   -4.5720   -8.4606 C   0  0  0  0  0  0  0  0  0  0  0  0
   56.6164   -4.2048   -9.6833 C   0  0  0  0  0  0  0  0  0  0  0  0
   60.1295   -6.5710   -9.2034 N   0  0  0  0  0  0  0  0  0  0  0  0
   60.9378   -6.5632   -8.0000 C   0  0  0  0  0  0  0  0  0  0  0  0
   62.3006   -6.0329   -8.3921 C   0  0  0  0  0  0  0  0  0  0  0  0
   62.8407   -6.7439   -9.4962 N   0  0  0  0  0  0  0  0  0  0  0  0
   63.6291   -7.8871   -9.1723 C   0  0  0  0  0  0  0  0  0  0  0  0
   61.9799   -6.9073  -10.6313 C   0  0  0  0  0  0  0  0  0  0  0  0
   60.6197   -7.4878  -10.2162 C   0  0  0  0  0  0  0  0  0  0  0  0
   57.9162   -3.8495  -12.9877 C   0  0  0  0  0  0  0  0  0  0  0  0
   56.9738   -4.3388  -12.0644 O   0  0  0  0  0  0  0  0  0  0  0  0
 34 35  1  0  0  0
 35 21  1  0  0  0
 21 22  2  0  0  0
 22 23  1  0  0  0
 23 24  2  0  0  0
 24 25  1  0  0  0
 25 26  2  0  0  0
 26 19  1  0  0  0
 19  1  1  0  0  0
  1  2  2  0  0  0
  2  3  1  0  0  0
  3  4  2  0  0  0
  4  5  1  0  0  0
  5  6  1  0  0  0
  5  7  1  0  0  0
  7  8  2  0  0  0
  7  9  1  0  0  0
  9 10  1  0  0  0
  9 11  1  0  0  0
 11 14  1  0  0  0
 14 15  1  0  0  0
 15 16  1  0  0  0
 16 17  1  0  0  0
 17 18  1  0  0  0
 11 12  1  0  0  0
 12 13  2  0  0  0
 23 27  1  0  0  0
 27 28  1  0  0  0
 28 29  1  0  0  0
 29 30  1  0  0  0
 30 31  1  0  0  0
 30 32  1  0  0  0
 32 33  1  0  0  0
 26 21  1  0  0  0
 13  1  1  0  0  0
 33 27  1  0  0  0
 12  4  1  0  0  0
 18 14  1  0  0  0
 19 20  1  0  0  0
M  END
> <minimizedAffinity>
-9.82092

> <CNNscore>
0.9915086627

> <CNNaffinity>
8.2042026520

> <CNN_VS>
8.1345376968

> <CNNaffinity_variance>
0.0245715231

$$$$
[H]c1nc(N([H])c2c([H])c([H])c(N3C([H])([H])C([H])([H])N(C([H])([H])[H])C([H])([H])C3([H])[H])c([H])c2OC([H])([H])[H])nc2c1N(C([H])([H])[H])C(=O)[C@@]([H])(C([H])([H])[H])N2C1([H])C([H])([H])C([H])([H])C([H])([H])C1([H])[H]


 35 39  0  0  0  0  0  0  0  0999 V2000
   53.8826   -3.1337   -8.9087 C   0  0  0  0  0  0  0  0  0  0  0  0
   52.8242   -2.3414   -9.0503 N   0  0  0  0  0  0  0  0  0  0  0  0
   51.6889   -2.4499   -8.3430 C   0  0  0  0  0  0  0  0  0  0  0  0
   51.5906   -3.4472   -7.3960 C   0  0  0  0  0  0  0  0  0  0  0  0
   50.4065   -3.5949   -6.6243 N   0  0  0  0  0  0  0  0  0  0  0  0
   49.2564   -2.7369   -6.7745 C   0  0  0  0  0  0  0  0  0  0  0  0
   50.4013   -4.6544   -5.6688 C   0  0  0  0  0  0  0  0  0  0  0  0
   49.6359   -4.5935   -4.6470 O   0  0  0  0  0  0  0  0  0  0  0  0
   51.3033   -5.8026   -5.9095 C   0  0  0  0  0  0  0  0  0  0  0  0
   50.7124   -6.5748   -7.0949 C   0  0  0  0  0  0  0  0  0  0  0  0
   52.6635   -5.3473   -6.2649 N   0  0  0  0  0  0  0  0  0  0  0  0
   52.6751   -4.2831   -7.2293 C   0  0  0  0  0  0  0  0  0  0  0  0
   53.7524   -4.1036   -7.9693 N   0  0  0  0  0  0  0  0  0  0  0  0
   53.7896   -5.9406   -5.6706 C   0  0  0  0  0  0  0  0  0  0  0  0
   53.6654   -6.3761   -4.2342 C   0  0  0  0  0  0  0  0  0  0  0  0
   55.0576   -6.9805   -3.9999 C   0  0  0  0  0  0  0  0  0  0  0  0
   55.6230   -7.3244   -5.3521 C   0  0  0  0  0  0  0  0  0  0  0  0
   54.4576   -7.0776   -6.3420 C   0  0  0  0  0  0  0  0  0  0  0  0
   55.0923   -3.0655   -9.6185 N   0  0  0  0  0  0  0  0  0  0  0  0
   55.1913   -2.2557  -10.3162 H   0  0  0  0  0  0  0  0  0  0  0  0
   56.8307   -4.1037   -8.3071 C   0  0  0  0  0  0  0  0  0  0  0  0
   57.9357   -4.9217   -8.1556 C   0  0  0  0  0  0  0  0  0  0  0  0
   58.4782   -5.5912   -9.2300 C   0  0  0  0  0  0  0  0  0  0  0  0
   57.8846   -5.4171  -10.4495 C   0  0  0  0  0  0  0  0  0  0  0  0
   56.7593   -4.5825  -10.5964 C   0  0  0  0  0  0  0  0  0  0  0  0
   56.2052   -3.9106   -9.5495 C   0  0  0  0  0  0  0  0  0  0  0  0
   59.6180   -6.4266   -9.1089 N   0  0  0  0  0  0  0  0  0  0  0  0
   60.4522   -6.4974   -7.9254 C   0  0  0  0  0  0  0  0  0  0  0  0
   61.8219   -5.9911   -8.3250 C   0  0  0  0  0  0  0  0  0  0  0  0
   62.3154   -6.6674   -9.4720 N   0  0  0  0  0  0  0  0  0  0  0  0
   63.0749   -7.8471   -9.2177 C   0  0  0  0  0  0  0  0  0  0  0  0
   61.4254   -6.7533  -10.5929 C   0  0  0  0  0  0  0  0  0  0  0  0
   60.0572   -7.3109  -10.1726 C   0  0  0  0  0  0  0  0  0  0  0  0
   56.5520   -4.0421   -5.9131 C   0  0  0  0  0  0  0  0  0  0  0  0
   56.3501   -3.4704   -7.1829 O   0  0  0  0  0  0  0  0  0  0  0  0
 34 35  1  0  0  0
 35 21  1  0  0  0
 21 22  2  0  0  0
 22 23  1  0  0  0
 23 24  2  0  0  0
 24 25  1  0  0  0
 25 26  2  0  0  0
 26 19  1  0  0  0
 19  1  1  0  0  0
  1  2  2  0  0  0
  2  3  1  0  0  0
  3  4  2  0  0  0
  4  5  1  0  0  0
  5  6  1  0  0  0
  5  7  1  0  0  0
  7  8  2  0  0  0
  7  9  1  0  0  0
  9 10  1  0  0  0
  9 11  1  0  0  0
 11 14  1  0  0  0
 14 15  1  0  0  0
 15 16  1  0  0  0
 16 17  1  0  0  0
 17 18  1  0  0  0
 11 12  1  0  0  0
 12 13  2  0  0  0
 23 27  1  0  0  0
 27 28  1  0  0  0
 28 29  1  0  0  0
 29 30  1  0  0  0
 30 31  1  0  0  0
 30 32  1  0  0  0
 32 33  1  0  0  0
 26 21  1  0  0  0
 13  1  1  0  0  0
 33 27  1  0  0  0
 12  4  1  0  0  0
 18 14  1  0  0  0
 19 20  1  0  0  0
M  END
> <minimizedAffinity>
-8.37483

> <CNNscore>
0.9857668877

> <CNNaffinity>
8.2075653076

> <CNN_VS>
8.0907459259

> <CNNaffinity_variance>
0.0168037377

$$$$
[H]c1nc(N([H])c2c([H])c([H])c(N3C([H])([H])C([H])([H])N(C([H])([H])[H])C([H])([H])C3([H])[H])c([H])c2OC([H])([H])[H])nc2c1N(C([H])([H])[H])C(=O)[C@@]([H])(C([H])([H])[H])N2C1([H])C([H])([H])C([H])([H])C([H])([H])C1([H])[H]


 35 39  0  0  0  0  0  0  0  0999 V2000
   54.8790   -4.1026   -9.3855 C   0  0  0  0  0  0  0  0  0  0  0  0
   53.9372   -3.1802   -9.5593 N   0  0  0  0  0  0  0  0  0  0  0  0
   52.8180   -3.0838   -8.8251 C   0  0  0  0  0  0  0  0  0  0  0  0
   52.6087   -3.9960   -7.8126 C   0  0  0  0  0  0  0  0  0  0  0  0
   51.4375   -3.9275   -7.0107 N   0  0  0  0  0  0  0  0  0  0  0  0
   50.4138   -2.9278   -7.1957 C   0  0  0  0  0  0  0  0  0  0  0  0
   51.3120   -4.9136   -5.9873 C   0  0  0  0  0  0  0  0  0  0  0  0
   50.5912   -4.6819   -4.9576 O   0  0  0  0  0  0  0  0  0  0  0  0
   52.0390   -6.1897   -6.1686 C   0  0  0  0  0  0  0  0  0  0  0  0
   51.3140   -6.9444   -7.2889 C   0  0  0  0  0  0  0  0  0  0  0  0
   53.4388   -5.9529   -6.5787 N   0  0  0  0  0  0  0  0  0  0  0  0
   53.5710   -4.9636   -7.6114 C   0  0  0  0  0  0  0  0  0  0  0  0
   54.6417   -4.9837   -8.3818 N   0  0  0  0  0  0  0  0  0  0  0  0
   54.4878   -6.6597   -5.9678 C   0  0  0  0  0  0  0  0  0  0  0  0
   55.8682   -6.0643   -6.0578 C   0  0  0  0  0  0  0  0  0  0  0  0
   56.6757   -7.0988   -5.2602 C   0  0  0  0  0  0  0  0  0  0  0  0
   55.7017   -7.8363   -4.3804 C   0  0  0  0  0  0  0  0  0  0  0  0
   54.3612   -7.0802   -4.5547 C   0  0  0  0  0  0  0  0  0  0  0  0
   56.0662   -4.2494  -10.1209 N   0  0  0  0  0  0  0  0  0  0  0  0
   56.0924   -3.7770  -11.0845 H   0  0  0  0  0  0  0  0  0  0  0  0
   57.9422   -4.5302   -8.6304 C   0  0  0  0  0  0  0  0  0  0  0  0
   59.1092   -5.1517   -8.2245 C   0  0  0  0  0  0  0  0  0  0  0  0
   59.6397   -6.2045   -8.9366 C   0  0  0  0  0  0  0  0  0  0  0  0
   58.9706   -6.6113  -10.0576 C   0  0  0  0  0  0  0  0  0  0  0  0
   57.7823   -5.9737  -10.4650 C   0  0  0  0  0  0  0  0  0  0  0  0
   57.2387   -4.9313   -9.7777 C   0  0  0  0  0  0  0  0  0  0  0  0
   60.8410   -6.8537   -8.5531 N   0  0  0  0  0  0  0  0  0  0  0  0
   60.8947   -8.0377   -7.7185 C   0  0  0  0  0  0  0  0  0  0  0  0
   61.6086   -7.6419   -6.4434 C   0  0  0  0  0  0  0  0  0  0  0  0
   62.8551   -7.0179   -6.7139 N   0  0  0  0  0  0  0  0  0  0  0  0
   63.9791   -7.8906   -6.8047 C   0  0  0  0  0  0  0  0  0  0  0  0
   62.8394   -5.9534   -7.6744 C   0  0  0  0  0  0  0  0  0  0  0  0
   62.1502   -6.3913   -8.9756 C   0  0  0  0  0  0  0  0  0  0  0  0
   56.7736   -3.7453   -6.6731 C   0  0  0  0  0  0  0  0  0  0  0  0
   57.4787   -3.4853   -7.8627 O   0  0  0  0  0  0  0  0  0  0  0  0
 34 35  1  0  0  0
 35 21  1  0  0  0
 21 22  2  0  0  0
 22 23  1  0  0  0
 23 24  2  0  0  0
 24 25  1  0  0  0
 25 26  2  0  0  0
 26 19  1  0  0  0
 19  1  1  0  0  0
  1  2  2  0  0  0
  2  3  1  0  0  0
  3  4  2  0  0  0
  4  5  1  0  0  0
  5  6  1  0  0  0
  5  7  1  0  0  0
  7  8  2  0  0  0
  7  9  1  0  0  0
  9 10  1  0  0  0
  9 11  1  0  0  0
 11 14  1  0  0  0
 14 15  1  0  0  0
 15 16  1  0  0  0
 16 17  1  0  0  0
 17 18  1  0  0  0
 11 12  1  0  0  0
 12 13  2  0  0  0
 23 27  1  0  0  0
 27 28  1  0  0  0
 28 29  1  0  0  0
 29 30  1  0  0  0
 30 31  1  0  0  0
 30 32  1  0  0  0
 32 33  1  0  0  0
 26 21  1  0  0  0
 13  1  1  0  0  0
 33 27  1  0  0  0
 12  4  1  0  0  0
 18 14  1  0  0  0
 19 20  1  0  0  0
M  END
> <minimizedAffinity>
-4.13127

> <CNNscore>
0.7821847200

> <CNNaffinity>
7.5571532249

> <CNN_VS>
5.9110898972

> <CNNaffinity_variance>
0.3082654476

$$$$
[H]c1nc(N([H])c2c([H])c([H])c(N3C([H])([H])C([H])([H])N(C([H])([H])[H])C([H])([H])C3([H])[H])c([H])c2OC([H])([H])[H])nc2c1N(C([H])([H])[H])C(=O)[C@@]([H])(C([H])([H])[H])N2C1([H])C([H])([H])C([H])([H])C([H])([H])C1([H])[H]


 35 39  0  0  0  0  0  0  0  0999 V2000
   54.4664   -3.9958   -8.4781 C   0  0  0  0  0  0  0  0  0  0  0  0
   53.5796   -3.1281   -8.9560 N   0  0  0  0  0  0  0  0  0  0  0  0
   52.3572   -2.9237   -8.4413 C   0  0  0  0  0  0  0  0  0  0  0  0
   51.9719   -3.6548   -7.3375 C   0  0  0  0  0  0  0  0  0  0  0  0
   50.6868   -3.4671   -6.7608 N   0  0  0  0  0  0  0  0  0  0  0  0
   49.7221   -2.5262   -7.2761 C   0  0  0  0  0  0  0  0  0  0  0  0
   50.3813   -4.2682   -5.6204 C   0  0  0  0  0  0  0  0  0  0  0  0
   49.5059   -3.8755   -4.7760 O   0  0  0  0  0  0  0  0  0  0  0  0
   51.1089   -5.5471   -5.4630 C   0  0  0  0  0  0  0  0  0  0  0  0
   50.5650   -6.4891   -6.5434 C   0  0  0  0  0  0  0  0  0  0  0  0
   52.5603   -5.3648   -5.6731 N   0  0  0  0  0  0  0  0  0  0  0  0
   52.8739   -4.5621   -6.8219 C   0  0  0  0  0  0  0  0  0  0  0  0
   54.0555   -4.6981   -7.3927 N   0  0  0  0  0  0  0  0  0  0  0  0
   53.4848   -5.9450   -4.7889 C   0  0  0  0  0  0  0  0  0  0  0  0
   52.9703   -6.3959   -3.4472 C   0  0  0  0  0  0  0  0  0  0  0  0
   54.2516   -6.9794   -2.8337 C   0  0  0  0  0  0  0  0  0  0  0  0
   55.1803   -7.3012   -3.9741 C   0  0  0  0  0  0  0  0  0  0  0  0
   54.3355   -7.0644   -5.2505 C   0  0  0  0  0  0  0  0  0  0  0  0
   55.7554   -4.2492   -8.9744 N   0  0  0  0  0  0  0  0  0  0  0  0
   56.4977   -4.5325   -8.2525 H   0  0  0  0  0  0  0  0  0  0  0  0
   57.5506   -4.5581  -10.5561 C   0  0  0  0  0  0  0  0  0  0  0  0
   58.0880   -4.5226  -11.8300 C   0  0  0  0  0  0  0  0  0  0  0  0
   57.3349   -4.1158  -12.9091 C   0  0  0  0  0  0  0  0  0  0  0  0
   56.0387   -3.7490  -12.6740 C   0  0  0  0  0  0  0  0  0  0  0  0
   55.4979   -3.7878  -11.3738 C   0  0  0  0  0  0  0  0  0  0  0  0
   56.2224   -4.1862  -10.2918 C   0  0  0  0  0  0  0  0  0  0  0  0
   57.8612   -4.0565  -14.2248 N   0  0  0  0  0  0  0  0  0  0  0  0
   59.2329   -3.7066  -14.5369 C   0  0  0  0  0  0  0  0  0  0  0  0
   59.1861   -2.4152  -15.3258 C   0  0  0  0  0  0  0  0  0  0  0  0
   58.3039   -2.5110  -16.4343 N   0  0  0  0  0  0  0  0  0  0  0  0
   58.8858   -2.9698  -17.6525 C   0  0  0  0  0  0  0  0  0  0  0  0
   56.9925   -3.0232  -16.1623 C   0  0  0  0  0  0  0  0  0  0  0  0
   57.0649   -4.3554  -15.4009 C   0  0  0  0  0  0  0  0  0  0  0  0
   59.4266   -5.8680   -9.7966 C   0  0  0  0  0  0  0  0  0  0  0  0
   58.3703   -4.9769   -9.5322 O   0  0  0  0  0  0  0  0  0  0  0  0
 34 35  1  0  0  0
 35 21  1  0  0  0
 21 22  2  0  0  0
 22 23  1  0  0  0
 23 24  2  0  0  0
 24 25  1  0  0  0
 25 26  2  0  0  0
 26 19  1  0  0  0
 19  1  1  0  0  0
  1  2  2  0  0  0
  2  3  1  0  0  0
  3  4  2  0  0  0
  4  5  1  0  0  0
  5  6  1  0  0  0
  5  7  1  0  0  0
  7  8  2  0  0  0
  7  9  1  0  0  0
  9 10  1  0  0  0
  9 11  1  0  0  0
 11 14  1  0  0  0
 14 15  1  0  0  0
 15 16  1  0  0  0
 16 17  1  0  0  0
 17 18  1  0  0  0
 11 12  1  0  0  0
 12 13  2  0  0  0
 23 27  1  0  0  0
 27 28  1  0  0  0
 28 29  1  0  0  0
 29 30  1  0  0  0
 30 31  1  0  0  0
 30 32  1  0  0  0
 32 33  1  0  0  0
 26 21  1  0  0  0
 13  1  1  0  0  0
 33 27  1  0  0  0
 12  4  1  0  0  0
 18 14  1  0  0  0
 19 20  1  0  0  0
M  END
> <minimizedAffinity>
-8.04694

> <CNNscore>
0.7769702673

> <CNNaffinity>
7.7147927284

> <CNN_VS>
5.9941644669

> <CNNaffinity_variance>
0.0978436768

$$$$
[H]c1nc(N([H])c2c([H])c([H])c(N3C([H])([H])C([H])([H])N(C([H])([H])[H])C([H])([H])C3([H])[H])c([H])c2OC([H])([H])[H])nc2c1N(C([H])([H])[H])C(=O)[C@@]([H])(C([H])([H])[H])N2C1([H])C([H])([H])C([H])([H])C([H])([H])C1([H])[H]


 35 39  0  0  0  0  0  0  0  0999 V2000
   55.4296   -4.5607   -9.0716 C   0  0  0  0  0  0  0  0  0  0  0  0
   54.6282   -3.6606   -9.6332 N   0  0  0  0  0  0  0  0  0  0  0  0
   53.4254   -3.3054   -9.1557 C   0  0  0  0  0  0  0  0  0  0  0  0
   52.9675   -3.9038   -8.0010 C   0  0  0  0  0  0  0  0  0  0  0  0
   51.7002   -3.5544   -7.4613 N   0  0  0  0  0  0  0  0  0  0  0  0
   50.8282   -2.5777   -8.0673 C   0  0  0  0  0  0  0  0  0  0  0  0
   51.3151   -4.2263   -6.2630 C   0  0  0  0  0  0  0  0  0  0  0  0
   50.4723   -3.6875   -5.4675 O   0  0  0  0  0  0  0  0  0  0  0  0
   51.9231   -5.5473   -5.9891 C   0  0  0  0  0  0  0  0  0  0  0  0
   51.3046   -6.5244   -6.9957 C   0  0  0  0  0  0  0  0  0  0  0  0
   53.3865   -5.5136   -6.1917 N   0  0  0  0  0  0  0  0  0  0  0  0
   53.7800   -4.8415   -7.3984 C   0  0  0  0  0  0  0  0  0  0  0  0
   54.9488   -5.1299   -7.9380 N   0  0  0  0  0  0  0  0  0  0  0  0
   54.2483   -6.0977   -5.2486 C   0  0  0  0  0  0  0  0  0  0  0  0
   54.9181   -7.3913   -5.6309 C   0  0  0  0  0  0  0  0  0  0  0  0
   55.7653   -7.6532   -4.3771 C   0  0  0  0  0  0  0  0  0  0  0  0
   55.9361   -6.3321   -3.6756 C   0  0  0  0  0  0  0  0  0  0  0  0
   55.3309   -5.2881   -4.6466 C   0  0  0  0  0  0  0  0  0  0  0  0
   56.6941   -4.9691   -9.5257 N   0  0  0  0  0  0  0  0  0  0  0  0
   57.1990   -5.7072   -8.9318 H   0  0  0  0  0  0  0  0  0  0  0  0
   58.7485   -4.9332  -10.7899 C   0  0  0  0  0  0  0  0  0  0  0  0
   59.5187   -4.5587  -11.8758 C   0  0  0  0  0  0  0  0  0  0  0  0
   58.9950   -3.7831  -12.8864 C   0  0  0  0  0  0  0  0  0  0  0  0
   57.6876   -3.3981  -12.7757 C   0  0  0  0  0  0  0  0  0  0  0  0
   56.9088   -3.7834  -11.6668 C   0  0  0  0  0  0  0  0  0  0  0  0
   57.4042   -4.5495  -10.6558 C   0  0  0  0  0  0  0  0  0  0  0  0
   59.7629   -3.3725  -14.0059 N   0  0  0  0  0  0  0  0  0  0  0  0
   59.1942   -2.9308  -15.2640 C   0  0  0  0  0  0  0  0  0  0  0  0
   59.6207   -3.9353  -16.3133 C   0  0  0  0  0  0  0  0  0  0  0  0
   61.0265   -4.1352  -16.3054 N   0  0  0  0  0  0  0  0  0  0  0  0
   61.7809   -3.2705  -17.1518 C   0  0  0  0  0  0  0  0  0  0  0  0
   61.6247   -4.4025  -15.0299 C   0  0  0  0  0  0  0  0  0  0  0  0
   61.2140   -3.3463  -13.9930 C   0  0  0  0  0  0  0  0  0  0  0  0
   60.6693   -6.1584  -10.0014 C   0  0  0  0  0  0  0  0  0  0  0  0
   59.3478   -5.7090   -9.8231 O   0  0  0  0  0  0  0  0  0  0  0  0
 34 35  1  0  0  0
 35 21  1  0  0  0
 21 22  2  0  0  0
 22 23  1  0  0  0
 23 24  2  0  0  0
 24 25  1  0  0  0
 25 26  2  0  0  0
 26 19  1  0  0  0
 19  1  1  0  0  0
  1  2  2  0  0  0
  2  3  1  0  0  0
  3  4  2  0  0  0
  4  5  1  0  0  0
  5  6  1  0  0  0
  5  7  1  0  0  0
  7  8  2  0  0  0
  7  9  1  0  0  0
  9 10  1  0  0  0
  9 11  1  0  0  0
 11 14  1  0  0  0
 14 15  1  0  0  0
 15 16  1  0  0  0
 16 17  1  0  0  0
 17 18  1  0  0  0
 11 12  1  0  0  0
 12 13  2  0  0  0
 23 27  1  0  0  0
 27 28  1  0  0  0
 28 29  1  0  0  0
 29 30  1  0  0  0
 30 31  1  0  0  0
 30 32  1  0  0  0
 32 33  1  0  0  0
 26 21  1  0  0  0
 13  1  1  0  0  0
 33 27  1  0  0  0
 12  4  1  0  0  0
 18 14  1  0  0  0
 19 20  1  0  0  0
M  END
> <minimizedAffinity>
-7.59721

> <CNNscore>
0.7176586390

> <CNNaffinity>
7.3425893784

> <CNN_VS>
5.2694725990

> <CNNaffinity_variance>
0.1206003428

$$$$
[H]c1nc(N([H])c2c([H])c([H])c(N3C([H])([H])C([H])([H])N(C([H])([H])[H])C([H])([H])C3([H])[H])c([H])c2OC([H])([H])[H])nc2c1N(C([H])([H])[H])C(=O)[C@@]([H])(C([H])([H])[H])N2C1([H])C([H])([H])C([H])([H])C([H])([H])C1([H])[H]


 35 39  0  0  0  0  0  0  0  0999 V2000
   53.3478   -3.9035   -8.7233 C   0  0  0  0  0  0  0  0  0  0  0  0
   53.5505   -3.4605   -9.9604 N   0  0  0  0  0  0  0  0  0  0  0  0
   54.6969   -3.6012  -10.6438 C   0  0  0  0  0  0  0  0  0  0  0  0
   55.7538   -4.2483  -10.0395 C   0  0  0  0  0  0  0  0  0  0  0  0
   56.9842   -4.4199  -10.7294 N   0  0  0  0  0  0  0  0  0  0  0  0
   57.2077   -3.9412  -12.0720 C   0  0  0  0  0  0  0  0  0  0  0  0
   58.0172   -5.1037  -10.0217 C   0  0  0  0  0  0  0  0  0  0  0  0
   58.9436   -5.7072  -10.6628 O   0  0  0  0  0  0  0  0  0  0  0  0
   57.9682   -5.0827   -8.5428 C   0  0  0  0  0  0  0  0  0  0  0  0
   58.3231   -3.6527   -8.1192 C   0  0  0  0  0  0  0  0  0  0  0  0
   56.6133   -5.4061   -8.0491 N   0  0  0  0  0  0  0  0  0  0  0  0
   55.5695   -4.7178   -8.7556 C   0  0  0  0  0  0  0  0  0  0  0  0
   54.4074   -4.5349   -8.1586 N   0  0  0  0  0  0  0  0  0  0  0  0
   56.4402   -6.3139   -6.9913 C   0  0  0  0  0  0  0  0  0  0  0  0
   56.8715   -5.8679   -5.6189 C   0  0  0  0  0  0  0  0  0  0  0  0
   56.4887   -7.1007   -4.7869 C   0  0  0  0  0  0  0  0  0  0  0  0
   55.4516   -7.8587   -5.5721 C   0  0  0  0  0  0  0  0  0  0  0  0
   55.1175   -6.9410   -6.7743 C   0  0  0  0  0  0  0  0  0  0  0  0
   52.1729   -3.7853   -7.9634 N   0  0  0  0  0  0  0  0  0  0  0  0
   51.4441   -3.0813   -8.3179 H   0  0  0  0  0  0  0  0  0  0  0  0
   50.7738   -3.9298   -6.0035 C   0  0  0  0  0  0  0  0  0  0  0  0
   50.3534   -4.5360   -4.8336 C   0  0  0  0  0  0  0  0  0  0  0  0
   50.9359   -5.7014   -4.3867 C   0  0  0  0  0  0  0  0  0  0  0  0
   51.9433   -6.2352   -5.1416 C   0  0  0  0  0  0  0  0  0  0  0  0
   52.3662   -5.6124   -6.3324 C   0  0  0  0  0  0  0  0  0  0  0  0
   51.8059   -4.4604   -6.7942 C   0  0  0  0  0  0  0  0  0  0  0  0
   50.5356   -6.3396   -3.1850 N   0  0  0  0  0  0  0  0  0  0  0  0
   50.5697   -5.7101   -1.8796 C   0  0  0  0  0  0  0  0  0  0  0  0
   51.5728   -6.4814   -1.0483 C   0  0  0  0  0  0  0  0  0  0  0  0
   51.2983   -7.8745   -1.0570 N   0  0  0  0  0  0  0  0  0  0  0  0
   50.4274   -8.3417   -0.0291 C   0  0  0  0  0  0  0  0  0  0  0  0
   51.0900   -8.4747   -2.3425 C   0  0  0  0  0  0  0  0  0  0  0  0
   50.0367   -7.7020   -3.1506 C   0  0  0  0  0  0  0  0  0  0  0  0
   48.7658   -2.6009   -6.1240 C   0  0  0  0  0  0  0  0  0  0  0  0
   50.1394   -2.7673   -6.3801 O   0  0  0  0  0  0  0  0  0  0  0  0
 34 35  1  0  0  0
 35 21  1  0  0  0
 21 22  2  0  0  0
 22 23  1  0  0  0
 23 24  2  0  0  0
 24 25  1  0  0  0
 25 26  2  0  0  0
 26 19  1  0  0  0
 19  1  1  0  0  0
  1  2  2  0  0  0
  2  3  1  0  0  0
  3  4  2  0  0  0
  4  5  1  0  0  0
  5  6  1  0  0  0
  5  7  1  0  0  0
  7  8  2  0  0  0
  7  9  1  0  0  0
  9 10  1  0  0  0
  9 11  1  0  0  0
 11 14  1  0  0  0
 14 15  1  0  0  0
 15 16  1  0  0  0
 16 17  1  0  0  0
 17 18  1  0  0  0
 11 12  1  0  0  0
 12 13  2  0  0  0
 23 27  1  0  0  0
 27 28  1  0  0  0
 28 29  1  0  0  0
 29 30  1  0  0  0
 30 31  1  0  0  0
 30 32  1  0  0  0
 32 33  1  0  0  0
 26 21  1  0  0  0
 13  1  1  0  0  0
 33 27  1  0  0  0
 12  4  1  0  0  0
 18 14  1  0  0  0
 19 20  1  0  0  0
M  END
> <minimizedAffinity>
-0.44976

> <CNNscore>
0.4545734823

> <CNNaffinity>
7.2828230858

> <CNN_VS>
3.3105783463

> <CNNaffinity_variance>
0.4893227518

$$$$
[H]c1nc(N([H])c2c([H])c([H])c(N3C([H])([H])C([H])([H])N(C([H])([H])[H])C([H])([H])C3([H])[H])c([H])c2OC([H])([H])[H])nc2c1N(C([H])([H])[H])C(=O)[C@@]([H])(C([H])([H])[H])N2C1([H])C([H])([H])C([H])([H])C([H])([H])C1([H])[H]


 35 39  0  0  0  0  0  0  0  0999 V2000
   56.1478   -3.6761  -11.8667 C   0  0  0  0  0  0  0  0  0  0  0  0
   55.7950   -3.4058  -13.1198 N   0  0  0  0  0  0  0  0  0  0  0  0
   56.6382   -3.3875  -14.1636 C   0  0  0  0  0  0  0  0  0  0  0  0
   57.9707   -3.6660  -13.9444 C   0  0  0  0  0  0  0  0  0  0  0  0
   58.8959   -3.6590  -15.0229 N   0  0  0  0  0  0  0  0  0  0  0  0
   58.5168   -3.3670  -16.3840 C   0  0  0  0  0  0  0  0  0  0  0  0
   60.2515   -3.9614  -14.6965 C   0  0  0  0  0  0  0  0  0  0  0  0
   61.0372   -4.4310  -15.5885 O   0  0  0  0  0  0  0  0  0  0  0  0
   60.6969   -3.7117  -13.3075 C   0  0  0  0  0  0  0  0  0  0  0  0
   60.7673   -2.1890  -13.1437 C   0  0  0  0  0  0  0  0  0  0  0  0
   59.7292   -4.2542  -12.3312 N   0  0  0  0  0  0  0  0  0  0  0  0
   58.3630   -3.9498  -12.6528 C   0  0  0  0  0  0  0  0  0  0  0  0
   57.4651   -3.9453  -11.6863 N   0  0  0  0  0  0  0  0  0  0  0  0
   60.1759   -4.9927  -11.2230 C   0  0  0  0  0  0  0  0  0  0  0  0
   59.1669   -5.8596  -10.5167 C   0  0  0  0  0  0  0  0  0  0  0  0
   60.0482   -6.4926   -9.4299 C   0  0  0  0  0  0  0  0  0  0  0  0
   61.4743   -6.3873   -9.9011 C   0  0  0  0  0  0  0  0  0  0  0  0
   61.3727   -5.8534  -11.3515 C   0  0  0  0  0  0  0  0  0  0  0  0
   55.3106   -3.7101  -10.7398 N   0  0  0  0  0  0  0  0  0  0  0  0
   54.3179   -3.3230  -10.8710 H   0  0  0  0  0  0  0  0  0  0  0  0
   54.5102   -4.4158   -8.5763 C   0  0  0  0  0  0  0  0  0  0  0  0
   54.6962   -4.8802   -7.2868 C   0  0  0  0  0  0  0  0  0  0  0  0
   55.9579   -5.1364   -6.7976 C   0  0  0  0  0  0  0  0  0  0  0  0
   57.0176   -4.9148   -7.6330 C   0  0  0  0  0  0  0  0  0  0  0  0
   56.8207   -4.4418   -8.9453 C   0  0  0  0  0  0  0  0  0  0  0  0
   55.5835   -4.1814   -9.4511 C   0  0  0  0  0  0  0  0  0  0  0  0
   56.1816   -5.6009   -5.4763 N   0  0  0  0  0  0  0  0  0  0  0  0
   56.6058   -6.9478   -5.1488 C   0  0  0  0  0  0  0  0  0  0  0  0
   55.4816   -7.5797   -4.3559 C   0  0  0  0  0  0  0  0  0  0  0  0
   55.0957   -6.7675   -3.2569 N   0  0  0  0  0  0  0  0  0  0  0  0
   55.7893   -7.0076   -2.0343 C   0  0  0  0  0  0  0  0  0  0  0  0
   54.8411   -5.3860   -3.5443 C   0  0  0  0  0  0  0  0  0  0  0  0
   56.0135   -4.7541   -4.3097 C   0  0  0  0  0  0  0  0  0  0  0  0
   52.5425   -3.0227   -8.5691 C   0  0  0  0  0  0  0  0  0  0  0  0
   53.2168   -4.1846   -8.9879 O   0  0  0  0  0  0  0  0  0  0  0  0
 34 35  1  0  0  0
 35 21  1  0  0  0
 21 22  2  0  0  0
 22 23  1  0  0  0
 23 24  2  0  0  0
 24 25  1  0  0  0
 25 26  2  0  0  0
 26 19  1  0  0  0
 19  1  1  0  0  0
  1  2  2  0  0  0
  2  3  1  0  0  0
  3  4  2  0  0  0
  4  5  1  0  0  0
  5  6  1  0  0  0
  5  7  1  0  0  0
  7  8  2  0  0  0
  7  9  1  0  0  0
  9 10  1  0  0  0
  9 11  1  0  0  0
 11 14  1  0  0  0
 14 15  1  0  0  0
 15 16  1  0  0  0
 16 17  1  0  0  0
 17 18  1  0  0  0
 11 12  1  0  0  0
 12 13  2  0  0  0
 23 27  1  0  0  0
 27 28  1  0  0  0
 28 29  1  0  0  0
 29 30  1  0  0  0
 30 31  1  0  0  0
 30 32  1  0  0  0
 32 33  1  0  0  0
 26 21  1  0  0  0
 13  1  1  0  0  0
 33 27  1  0  0  0
 12  4  1  0  0  0
 18 14  1  0  0  0
 19 20  1  0  0  0
M  END
> <minimizedAffinity>
-4.26379

> <CNNscore>
0.4481398761

> <CNNaffinity>
6.7986054420

> <CNN_VS>
3.0467262268

> <CNNaffinity_variance>
0.1005833298

$$$$
[H]c1nc(N([H])c2c([H])c([H])c(N3C([H])([H])C([H])([H])N(C([H])([H])[H])C([H])([H])C3([H])[H])c([H])c2OC([H])([H])[H])nc2c1N(C([H])([H])[H])C(=O)[C@@]([H])(C([H])([H])[H])N2C1([H])C([H])([H])C([H])([H])C([H])([H])C1([H])[H]


 35 39  0  0  0  0  0  0  0  0999 V2000
   57.0831   -4.5208  -11.9462 C   0  0  0  0  0  0  0  0  0  0  0  0
   56.3968   -3.3821  -11.9539 N   0  0  0  0  0  0  0  0  0  0  0  0
   55.8703   -2.8151  -13.0504 C   0  0  0  0  0  0  0  0  0  0  0  0
   56.0408   -3.4407  -14.2671 C   0  0  0  0  0  0  0  0  0  0  0  0
   55.4975   -2.8744  -15.4518 N   0  0  0  0  0  0  0  0  0  0  0  0
   54.7516   -1.6394  -15.4640 C   0  0  0  0  0  0  0  0  0  0  0  0
   55.7250   -3.5964  -16.6611 C   0  0  0  0  0  0  0  0  0  0  0  0
   54.9304   -3.4553  -17.6522 O   0  0  0  0  0  0  0  0  0  0  0  0
   56.8980   -4.4970  -16.7145 C   0  0  0  0  0  0  0  0  0  0  0  0
   58.1349   -3.5926  -16.7642 C   0  0  0  0  0  0  0  0  0  0  0  0
   56.9741   -5.3463  -15.5075 N   0  0  0  0  0  0  0  0  0  0  0  0
   56.7494   -4.6240  -14.2867 C   0  0  0  0  0  0  0  0  0  0  0  0
   57.2324   -5.1096  -13.1592 N   0  0  0  0  0  0  0  0  0  0  0  0
   57.2379   -6.7213  -15.6214 C   0  0  0  0  0  0  0  0  0  0  0  0
   56.2906   -7.6673  -14.9315 C   0  0  0  0  0  0  0  0  0  0  0  0
   56.9034   -9.0193  -15.3251 C   0  0  0  0  0  0  0  0  0  0  0  0
   57.7392   -8.7840  -16.5550 C   0  0  0  0  0  0  0  0  0  0  0  0
   57.4428   -7.3186  -16.9597 C   0  0  0  0  0  0  0  0  0  0  0  0
   57.6537   -5.1581  -10.8326 N   0  0  0  0  0  0  0  0  0  0  0  0
   58.5741   -5.6837  -11.0031 H   0  0  0  0  0  0  0  0  0  0  0  0
   55.8507   -4.8874   -9.2527 C   0  0  0  0  0  0  0  0  0  0  0  0
   55.3187   -4.9132   -7.9763 C   0  0  0  0  0  0  0  0  0  0  0  0
   56.0911   -5.2605   -6.8902 C   0  0  0  0  0  0  0  0  0  0  0  0
   57.4010   -5.5780   -7.1208 C   0  0  0  0  0  0  0  0  0  0  0  0
   57.9362   -5.5497   -8.4236 C   0  0  0  0  0  0  0  0  0  0  0  0
   57.1926   -5.2098   -9.5126 C   0  0  0  0  0  0  0  0  0  0  0  0
   55.5779   -5.2839   -5.5682 N   0  0  0  0  0  0  0  0  0  0  0  0
   56.0088   -4.3885   -4.5127 C   0  0  0  0  0  0  0  0  0  0  0  0
   56.6614   -5.2471   -3.4502 C   0  0  0  0  0  0  0  0  0  0  0  0
   55.8165   -6.3156   -3.0493 N   0  0  0  0  0  0  0  0  0  0  0  0
   54.9368   -6.0368   -1.9623 C   0  0  0  0  0  0  0  0  0  0  0  0
   55.2439   -7.1039   -4.1013 C   0  0  0  0  0  0  0  0  0  0  0  0
   54.5490   -6.2155   -5.1441 C   0  0  0  0  0  0  0  0  0  0  0  0
   53.8618   -3.7618  -10.0207 C   0  0  0  0  0  0  0  0  0  0  0  0
   55.0114   -4.5295  -10.2838 O   0  0  0  0  0  0  0  0  0  0  0  0
 34 35  1  0  0  0
 35 21  1  0  0  0
 21 22  2  0  0  0
 22 23  1  0  0  0
 23 24  2  0  0  0
 24 25  1  0  0  0
 25 26  2  0  0  0
 26 19  1  0  0  0
 19  1  1  0  0  0
  1  2  2  0  0  0
  2  3  1  0  0  0
  3  4  2  0  0  0
  4  5  1  0  0  0
  5  6  1  0  0  0
  5  7  1  0  0  0
  7  8  2  0  0  0
  7  9  1  0  0  0
  9 10  1  0  0  0
  9 11  1  0  0  0
 11 14  1  0  0  0
 14 15  1  0  0  0
 15 16  1  0  0  0
 16 17  1  0  0  0
 17 18  1  0  0  0
 11 12  1  0  0  0
 12 13  2  0  0  0
 23 27  1  0  0  0
 27 28  1  0  0  0
 28 29  1  0  0  0
 29 30  1  0  0  0
 30 31  1  0  0  0
 30 32  1  0  0  0
 32 33  1  0  0  0
 26 21  1  0  0  0
 13  1  1  0  0  0
 33 27  1  0  0  0
 12  4  1  0  0  0
 18 14  1  0  0  0
 19 20  1  0  0  0
M  END
> <minimizedAffinity>
8.85448

> <CNNscore>
0.3954389989

> <CNNaffinity>
6.2939162254

> <CNN_VS>
2.4888598919

> <CNNaffinity_variance>
0.2052570879

$$$$
[H]c1nc(N([H])c2c([H])c([H])c(N3C([H])([H])C([H])([H])N(C([H])([H])[H])C([H])([H])C3([H])[H])c([H])c2OC([H])([H])[H])nc2c1N(C([H])([H])[H])C(=O)[C@@]([H])(C([H])([H])[H])N2C1([H])C([H])([H])C([H])([H])C([H])([H])C1([H])[H]


 35 39  0  0  0  0  0  0  0  0999 V2000
   62.7063   -6.5898  -11.6334 C   0  0  0  0  0  0  0  0  0  0  0  0
   61.5844   -6.0645  -11.1505 N   0  0  0  0  0  0  0  0  0  0  0  0
   60.8462   -5.1339  -11.7750 C   0  0  0  0  0  0  0  0  0  0  0  0
   61.2619   -4.6749  -13.0069 C   0  0  0  0  0  0  0  0  0  0  0  0
   60.5078   -3.6915  -13.7022 N   0  0  0  0  0  0  0  0  0  0  0  0
   59.2896   -3.1196  -13.1819 C   0  0  0  0  0  0  0  0  0  0  0  0
   61.0175   -3.2820  -14.9703 C   0  0  0  0  0  0  0  0  0  0  0  0
   60.2305   -2.7943  -15.8514 O   0  0  0  0  0  0  0  0  0  0  0  0
   62.4681   -3.4441  -15.2137 C   0  0  0  0  0  0  0  0  0  0  0  0
   63.1716   -2.3940  -14.3462 C   0  0  0  0  0  0  0  0  0  0  0  0
   62.9304   -4.7879  -14.8081 N   0  0  0  0  0  0  0  0  0  0  0  0
   62.4232   -5.2040  -13.5306 C   0  0  0  0  0  0  0  0  0  0  0  0
   63.0865   -6.1163  -12.8464 N   0  0  0  0  0  0  0  0  0  0  0  0
   63.7778   -5.5311  -15.6464 C   0  0  0  0  0  0  0  0  0  0  0  0
   63.3991   -5.6306  -17.1007 C   0  0  0  0  0  0  0  0  0  0  0  0
   64.5671   -6.4687  -17.6410 C   0  0  0  0  0  0  0  0  0  0  0  0
   65.7051   -6.3201  -16.6666 C   0  0  0  0  0  0  0  0  0  0  0  0
   65.2285   -5.2397  -15.6643 C   0  0  0  0  0  0  0  0  0  0  0  0
   63.5155   -7.5634  -11.0258 N   0  0  0  0  0  0  0  0  0  0  0  0
   64.5368   -7.6076  -11.3536 H   0  0  0  0  0  0  0  0  0  0  0  0
   63.3330   -8.1419   -8.6908 C   0  0  0  0  0  0  0  0  0  0  0  0
   63.0267   -9.0096   -7.6583 C   0  0  0  0  0  0  0  0  0  0  0  0
   62.5541  -10.2783   -7.9113 C   0  0  0  0  0  0  0  0  0  0  0  0
   62.3997  -10.6470   -9.2190 C   0  0  0  0  0  0  0  0  0  0  0  0
   62.7136   -9.7578  -10.2657 C   0  0  0  0  0  0  0  0  0  0  0  0
   63.1820   -8.4992  -10.0406 C   0  0  0  0  0  0  0  0  0  0  0  0
   62.2434  -11.1951   -6.8747 N   0  0  0  0  0  0  0  0  0  0  0  0
   62.3504  -10.8911   -5.4613 C   0  0  0  0  0  0  0  0  0  0  0  0
   63.4184  -11.8040   -4.8973 C   0  0  0  0  0  0  0  0  0  0  0  0
   63.1686  -13.1638   -5.2211 N   0  0  0  0  0  0  0  0  0  0  0  0
   62.3741  -13.8887   -4.2848 C   0  0  0  0  0  0  0  0  0  0  0  0
   62.8886  -13.4497   -6.5980 C   0  0  0  0  0  0  0  0  0  0  0  0
   61.7719  -12.5425   -7.1363 C   0  0  0  0  0  0  0  0  0  0  0  0
   62.9779   -6.0047   -7.6330 C   0  0  0  0  0  0  0  0  0  0  0  0
   63.8000   -6.8916   -8.3526 O   0  0  0  0  0  0  0  0  0  0  0  0
 34 35  1  0  0  0
 35 21  1  0  0  0
 21 22  2  0  0  0
 22 23  1  0  0  0
 23 24  2  0  0  0
 24 25  1  0  0  0
 25 26  2  0  0  0
 26 19  1  0  0  0
 19  1  1  0  0  0
  1  2  2  0  0  0
  2  3  1  0  0  0
  3  4  2  0  0  0
  4  5  1  0  0  0
  5  6  1  0  0  0
  5  7  1  0  0  0
  7  8  2  0  0  0
  7  9  1  0  0  0
  9 10  1  0  0  0
  9 11  1  0  0  0
 11 14  1  0  0  0
 14 15  1  0  0  0
 15 16  1  0  0  0
 16 17  1  0  0  0
 17 18  1  0  0  0
 11 12  1  0  0  0
 12 13  2  0  0  0
 23 27  1  0  0  0
 27 28  1  0  0  0
 28 29  1  0  0  0
 29 30  1  0  0  0
 30 31  1  0  0  0
 30 32  1  0  0  0
 32 33  1  0  0  0
 26 21  1  0  0  0
 13  1  1  0  0  0
 33 27  1  0  0  0
 12  4  1  0  0  0
 18 14  1  0  0  0
 19 20  1  0  0  0
M  END
> <minimizedAffinity>
-1.56124

> <CNNscore>
0.3722164631

> <CNNaffinity>
5.2932062149

> <CNN_VS>
1.9702185392

> <CNNaffinity_variance>
0.3230010569

$$$$
[H]c1nc(N([H])c2c([H])c([H])c(N3C([H])([H])C([H])([H])C([H])(N4C([H])([H])C([H])([H])N(C([H])([H])[H])C([H])([H])C4([H])[H])C([H])([H])C3([H])[H])c([H])c2OC([H])([H])[H])nc(N([H])c2c([H])c([H])c([H])c([H])c2S(=O)(=O)C([H])(C([H])([H])[H])C([H])([H])[H])c1Cl


 44 48  0  0  0  0  0  0  0  0999 V2000
   55.0020   -3.4106   -9.9583 N   0  0  0  0  0  0  0  0  0  0  0  0
   55.0092   -2.8479  -10.8827 H   0  0  0  0  0  0  0  0  0  0  0  0
   53.8207   -3.3136   -9.1762 C   0  0  0  0  0  0  0  0  0  0  0  0
   52.9464   -2.3043   -9.1894 N   0  0  0  0  0  0  0  0  0  0  0  0
   51.8480   -2.2774   -8.4242 C   0  0  0  0  0  0  0  0  0  0  0  0
   51.5798   -3.3244   -7.5739 C   0  0  0  0  0  0  0  0  0  0  0  0
   50.1400   -3.3066   -6.5603 Cl  0  0  0  0  0  0  0  0  0  0  0  0
   52.4877   -4.4030   -7.5410 C   0  0  0  0  0  0  0  0  0  0  0  0
   53.5533   -4.3364   -8.3417 N   0  0  0  0  0  0  0  0  0  0  0  0
   52.1897   -5.4593   -6.6665 N   0  0  0  0  0  0  0  0  0  0  0  0
   52.0630   -6.4101   -7.1469 H   0  0  0  0  0  0  0  0  0  0  0  0
   52.0275   -5.4979   -5.2734 C   0  0  0  0  0  0  0  0  0  0  0  0
   50.7983   -5.2200   -4.7140 C   0  0  0  0  0  0  0  0  0  0  0  0
   50.6204   -5.2525   -3.3248 C   0  0  0  0  0  0  0  0  0  0  0  0
   51.6817   -5.5635   -2.5288 C   0  0  0  0  0  0  0  0  0  0  0  0
   52.9076   -5.8407   -3.0902 C   0  0  0  0  0  0  0  0  0  0  0  0
   53.1096   -5.8162   -4.4454 C   0  0  0  0  0  0  0  0  0  0  0  0
   54.6429   -6.1652   -5.1292 S   0  0  0  0  0  0  0  0  0  0  0  0
   55.3487   -4.8818   -5.4884 O   0  0  0  0  0  0  0  0  0  0  0  0
   54.6000   -7.0267   -6.3602 O   0  0  0  0  0  0  0  0  0  0  0  0
   55.7240   -7.0072   -3.9888 C   0  0  0  0  0  0  0  0  0  0  0  0
   55.1904   -8.3614   -3.6511 C   0  0  0  0  0  0  0  0  0  0  0  0
   57.1605   -6.9669   -4.3913 C   0  0  0  0  0  0  0  0  0  0  0  0
   56.9437   -4.5494  -10.7979 C   0  0  0  0  0  0  0  0  0  0  0  0
   58.1093   -5.2735  -10.6270 C   0  0  0  0  0  0  0  0  0  0  0  0
   58.5674   -5.6287   -9.3778 C   0  0  0  0  0  0  0  0  0  0  0  0
   57.8020   -5.2233   -8.3116 C   0  0  0  0  0  0  0  0  0  0  0  0
   56.6189   -4.4907   -8.4490 C   0  0  0  0  0  0  0  0  0  0  0  0
   56.1673   -4.1397   -9.6964 C   0  0  0  0  0  0  0  0  0  0  0  0
   59.7788   -6.3716   -9.2167 N   0  0  0  0  0  0  0  0  0  0  0  0
   60.7010   -5.9530   -8.2173 C   0  0  0  0  0  0  0  0  0  0  0  0
   61.7672   -6.9456   -7.8477 C   0  0  0  0  0  0  0  0  0  0  0  0
   62.3767   -7.6572   -9.0084 C   0  0  0  0  0  0  0  0  0  0  0  0
   61.5584   -7.5289  -10.2777 C   0  0  0  0  0  0  0  0  0  0  0  0
   60.0869   -7.5181  -10.0374 C   0  0  0  0  0  0  0  0  0  0  0  0
   62.7384   -9.0064   -8.8281 N   0  0  0  0  0  0  0  0  0  0  0  0
   63.0808   -9.7853   -9.9441 C   0  0  0  0  0  0  0  0  0  0  0  0
   63.0538  -11.2681   -9.5630 C   0  0  0  0  0  0  0  0  0  0  0  0
   63.7207  -11.4077   -8.2830 N   0  0  0  0  0  0  0  0  0  0  0  0
   65.1349  -11.2163   -8.3344 C   0  0  0  0  0  0  0  0  0  0  0  0
   63.0447  -10.7402   -7.2178 C   0  0  0  0  0  0  0  0  0  0  0  0
   62.0566   -9.7362   -7.8078 C   0  0  0  0  0  0  0  0  0  0  0  0
   57.5167   -3.8640  -13.0339 C   0  0  0  0  0  0  0  0  0  0  0  0
   56.5404   -4.2255  -12.0841 O   0  0  0  0  0  0  0  0  0  0  0  0
 43 44  1  0  0  0
 44 24  1  0  0  0
 24 25  2  0  0  0
 25 26  1  0  0  0
 26 27  2  0  0  0
 27 28  1  0  0  0
 28 29  2  0  0  0
 29  1  1  0  0  0
  1  3  1  0  0  0
  3  4  2  0  0  0
  4  5  1  0  0  0
  5  6  2  0  0  0
  6  7  1  0  0  0
  6  8  1  0  0  0
  8 10  1  0  0  0
 10 12  1  0  0  0
 12 13  2  0  0  0
 13 14  1  0  0  0
 14 15  2  0  0  0
 15 16  1  0  0  0
 16 17  2  0  0  0
 17 18  1  0  0  0
 18 19  2  0  0  0
 18 20  2  0  0  0
 18 21  1  0  0  0
 21 22  1  0  0  0
 21 23  1  0  0  0
  8  9  2  0  0  0
 26 30  1  0  0  0
 30 31  1  0  0  0
 31 32  1  0  0  0
 32 33  1  0  0  0
 33 34  1  0  0  0
 34 35  1  0  0  0
 33 36  1  0  0  0
 36 37  1  0  0  0
 37 38  1  0  0  0
 38 39  1  0  0  0
 39 40  1  0  0  0
 39 41  1  0  0  0
 41 42  1  0  0  0
 29 24  1  0  0  0
  9  3  1  0  0  0
 35 30  1  0  0  0
 42 36  1  0  0  0
 17 12  1  0  0  0
  1  2  1  0  0  0
 10 11  1  0  0  0
M  END
> <minimizedAffinity>
-9.50101

> <CNNscore>
0.9266451001

> <CNNaffinity>
8.1607112885

> <CNN_VS>
7.5620832443

> <CNNaffinity_variance>
0.0884491652

$$$$
[H]c1nc(N([H])c2c([H])c([H])c(N3C([H])([H])C([H])([H])C([H])(N4C([H])([H])C([H])([H])N(C([H])([H])[H])C([H])([H])C4([H])[H])C([H])([H])C3([H])[H])c([H])c2OC([H])([H])[H])nc(N([H])c2c([H])c([H])c([H])c([H])c2S(=O)(=O)C([H])(C([H])([H])[H])C([H])([H])[H])c1Cl


 44 48  0  0  0  0  0  0  0  0999 V2000
   54.7512   -3.6890  -10.1841 N   0  0  0  0  0  0  0  0  0  0  0  0
   54.6142   -3.3520  -11.2033 H   0  0  0  0  0  0  0  0  0  0  0  0
   53.6496   -3.4977   -9.3087 C   0  0  0  0  0  0  0  0  0  0  0  0
   52.8686   -2.4162   -9.2479 N   0  0  0  0  0  0  0  0  0  0  0  0
   51.8418   -2.3019   -8.3963 C   0  0  0  0  0  0  0  0  0  0  0  0
   51.5523   -3.3302   -7.5304 C   0  0  0  0  0  0  0  0  0  0  0  0
   50.2057   -3.1977   -6.4035 Cl  0  0  0  0  0  0  0  0  0  0  0  0
   52.3621   -4.4839   -7.5744 C   0  0  0  0  0  0  0  0  0  0  0  0
   53.3617   -4.5019   -8.4584 N   0  0  0  0  0  0  0  0  0  0  0  0
   52.0443   -5.5191   -6.6819 N   0  0  0  0  0  0  0  0  0  0  0  0
   51.8719   -6.4695   -7.1488 H   0  0  0  0  0  0  0  0  0  0  0  0
   51.9111   -5.5371   -5.2853 C   0  0  0  0  0  0  0  0  0  0  0  0
   50.6896   -5.2675   -4.7052 C   0  0  0  0  0  0  0  0  0  0  0  0
   50.5406   -5.2798   -3.3124 C   0  0  0  0  0  0  0  0  0  0  0  0
   51.6223   -5.5625   -2.5335 C   0  0  0  0  0  0  0  0  0  0  0  0
   52.8404   -5.8314   -3.1155 C   0  0  0  0  0  0  0  0  0  0  0  0
   53.0144   -5.8263   -4.4748 C   0  0  0  0  0  0  0  0  0  0  0  0
   54.5383   -6.1646   -5.1843 S   0  0  0  0  0  0  0  0  0  0  0  0
   55.2191   -4.8773   -5.5762 O   0  0  0  0  0  0  0  0  0  0  0  0
   54.4827   -7.0446   -6.4016 O   0  0  0  0  0  0  0  0  0  0  0  0
   55.6536   -6.9751   -4.0540 C   0  0  0  0  0  0  0  0  0  0  0  0
   55.1634   -8.3450   -3.7135 C   0  0  0  0  0  0  0  0  0  0  0  0
   57.0848   -6.8915   -4.4683 C   0  0  0  0  0  0  0  0  0  0  0  0
   56.8555   -4.5158  -10.9967 C   0  0  0  0  0  0  0  0  0  0  0  0
   58.1059   -5.0767  -10.8115 C   0  0  0  0  0  0  0  0  0  0  0  0
   58.5747   -5.4097   -9.5602 C   0  0  0  0  0  0  0  0  0  0  0  0
   57.7311   -5.1534   -8.5067 C   0  0  0  0  0  0  0  0  0  0  0  0
   56.4613   -4.5878   -8.6588 C   0  0  0  0  0  0  0  0  0  0  0  0
   55.9995   -4.2581   -9.9082 C   0  0  0  0  0  0  0  0  0  0  0  0
   59.8733   -5.9823   -9.3839 N   0  0  0  0  0  0  0  0  0  0  0  0
   60.6818   -6.1926  -10.5356 C   0  0  0  0  0  0  0  0  0  0  0  0
   62.1388   -6.4566  -10.2782 C   0  0  0  0  0  0  0  0  0  0  0  0
   62.4061   -7.3864   -9.1429 C   0  0  0  0  0  0  0  0  0  0  0  0
   61.2033   -7.5818   -8.2417 C   0  0  0  0  0  0  0  0  0  0  0  0
   60.3746   -6.3526   -8.0821 C   0  0  0  0  0  0  0  0  0  0  0  0
   63.5411   -7.1341   -8.3479 N   0  0  0  0  0  0  0  0  0  0  0  0
   64.4921   -6.1964   -8.7787 C   0  0  0  0  0  0  0  0  0  0  0  0
   65.7860   -6.3732   -7.9791 C   0  0  0  0  0  0  0  0  0  0  0  0
   65.4252   -6.5300   -6.5835 N   0  0  0  0  0  0  0  0  0  0  0  0
   64.9419   -5.3371   -5.9649 C   0  0  0  0  0  0  0  0  0  0  0  0
   64.6671   -7.7114   -6.3251 C   0  0  0  0  0  0  0  0  0  0  0  0
   64.1057   -8.2402   -7.6433 C   0  0  0  0  0  0  0  0  0  0  0  0
   57.4158   -3.8293  -13.2355 C   0  0  0  0  0  0  0  0  0  0  0  0
   56.4463   -4.2048  -12.2842 O   0  0  0  0  0  0  0  0  0  0  0  0
 43 44  1  0  0  0
 44 24  1  0  0  0
 24 25  2  0  0  0
 25 26  1  0  0  0
 26 27  2  0  0  0
 27 28  1  0  0  0
 28 29  2  0  0  0
 29  1  1  0  0  0
  1  3  1  0  0  0
  3  4  2  0  0  0
  4  5  1  0  0  0
  5  6  2  0  0  0
  6  7  1  0  0  0
  6  8  1  0  0  0
  8 10  1  0  0  0
 10 12  1  0  0  0
 12 13  2  0  0  0
 13 14  1  0  0  0
 14 15  2  0  0  0
 15 16  1  0  0  0
 16 17  2  0  0  0
 17 18  1  0  0  0
 18 19  2  0  0  0
 18 20  2  0  0  0
 18 21  1  0  0  0
 21 22  1  0  0  0
 21 23  1  0  0  0
  8  9  2  0  0  0
 26 30  1  0  0  0
 30 31  1  0  0  0
 31 32  1  0  0  0
 32 33  1  0  0  0
 33 34  1  0  0  0
 34 35  1  0  0  0
 33 36  1  0  0  0
 36 37  1  0  0  0
 37 38  1  0  0  0
 38 39  1  0  0  0
 39 40  1  0  0  0
 39 41  1  0  0  0
 41 42  1  0  0  0
 29 24  1  0  0  0
  9  3  1  0  0  0
 35 30  1  0  0  0
 42 36  1  0  0  0
 17 12  1  0  0  0
  1  2  1  0  0  0
 10 11  1  0  0  0
M  END
> <minimizedAffinity>
-9.58954

> <CNNscore>
0.9050758481

> <CNNaffinity>
8.1857051849

> <CNN_VS>
7.4086842537

> <CNNaffinity_variance>
0.0465758257

$$$$
[H]c1nc(N([H])c2c([H])c([H])c(N3C([H])([H])C([H])([H])C([H])(N4C([H])([H])C([H])([H])N(C([H])([H])[H])C([H])([H])C4([H])[H])C([H])([H])C3([H])[H])c([H])c2OC([H])([H])[H])nc(N([H])c2c([H])c([H])c([H])c([H])c2S(=O)(=O)C([H])(C([H])([H])[H])C([H])([H])[H])c1Cl


 44 48  0  0  0  0  0  0  0  0999 V2000
   55.4251   -3.5014   -9.9730 N   0  0  0  0  0  0  0  0  0  0  0  0
   55.4514   -2.8756  -10.8555 H   0  0  0  0  0  0  0  0  0  0  0  0
   54.2256   -3.4623   -9.2139 C   0  0  0  0  0  0  0  0  0  0  0  0
   53.2108   -2.6114   -9.3854 N   0  0  0  0  0  0  0  0  0  0  0  0
   52.1041   -2.6309   -8.6321 C   0  0  0  0  0  0  0  0  0  0  0  0
   51.9766   -3.5597   -7.6260 C   0  0  0  0  0  0  0  0  0  0  0  0
   50.5283   -3.6005   -6.6253 Cl  0  0  0  0  0  0  0  0  0  0  0  0
   53.0346   -4.4701   -7.4241 C   0  0  0  0  0  0  0  0  0  0  0  0
   54.0957   -4.3699   -8.2272 N   0  0  0  0  0  0  0  0  0  0  0  0
   52.8786   -5.4086   -6.3925 N   0  0  0  0  0  0  0  0  0  0  0  0
   51.8587   -5.6510   -6.1643 H   0  0  0  0  0  0  0  0  0  0  0  0
   53.8172   -6.0900   -5.6031 C   0  0  0  0  0  0  0  0  0  0  0  0
   55.1176   -6.2265   -6.0408 C   0  0  0  0  0  0  0  0  0  0  0  0
   56.0661   -6.9055   -5.2652 C   0  0  0  0  0  0  0  0  0  0  0  0
   55.6869   -7.4325   -4.0672 C   0  0  0  0  0  0  0  0  0  0  0  0
   54.3880   -7.2945   -3.6329 C   0  0  0  0  0  0  0  0  0  0  0  0
   53.4400   -6.6353   -4.3709 C   0  0  0  0  0  0  0  0  0  0  0  0
   51.8262   -6.4711   -3.8151 S   0  0  0  0  0  0  0  0  0  0  0  0
   51.5178   -7.5506   -2.8082 O   0  0  0  0  0  0  0  0  0  0  0  0
   50.7811   -6.5358   -4.8934 O   0  0  0  0  0  0  0  0  0  0  0  0
   51.5492   -4.9275   -2.9672 C   0  0  0  0  0  0  0  0  0  0  0  0
   50.1013   -4.5593   -2.9918 C   0  0  0  0  0  0  0  0  0  0  0  0
   52.2050   -4.8583   -1.6285 C   0  0  0  0  0  0  0  0  0  0  0  0
   57.3260   -4.6778  -10.8532 C   0  0  0  0  0  0  0  0  0  0  0  0
   58.4858   -5.4164  -10.7065 C   0  0  0  0  0  0  0  0  0  0  0  0
   58.9744   -5.7630   -9.4665 C   0  0  0  0  0  0  0  0  0  0  0  0
   58.2456   -5.3340   -8.3841 C   0  0  0  0  0  0  0  0  0  0  0  0
   57.0693   -4.5862   -8.4969 C   0  0  0  0  0  0  0  0  0  0  0  0
   56.5872   -4.2439   -9.7352 C   0  0  0  0  0  0  0  0  0  0  0  0
   60.1796   -6.5211   -9.3306 N   0  0  0  0  0  0  0  0  0  0  0  0
   61.2212   -5.9951   -8.5166 C   0  0  0  0  0  0  0  0  0  0  0  0
   62.3009   -6.9631   -8.1216 C   0  0  0  0  0  0  0  0  0  0  0  0
   62.7546   -7.8635   -9.2210 C   0  0  0  0  0  0  0  0  0  0  0  0
   61.7968   -7.8934  -10.3951 C   0  0  0  0  0  0  0  0  0  0  0  0
   60.3640   -7.7885   -9.9959 C   0  0  0  0  0  0  0  0  0  0  0  0
   63.1048   -9.1840   -8.8785 N   0  0  0  0  0  0  0  0  0  0  0  0
   63.3414   -9.5098   -7.5342 C   0  0  0  0  0  0  0  0  0  0  0  0
   64.0669  -10.8559   -7.4523 C   0  0  0  0  0  0  0  0  0  0  0  0
   63.4117  -11.7677   -8.3698 N   0  0  0  0  0  0  0  0  0  0  0  0
   62.1128  -12.1884   -7.9512 C   0  0  0  0  0  0  0  0  0  0  0  0
   63.5226  -11.3709   -9.7364 C   0  0  0  0  0  0  0  0  0  0  0  0
   63.9317   -9.9007   -9.7956 C   0  0  0  0  0  0  0  0  0  0  0  0
   57.8329   -3.9282  -13.0846 C   0  0  0  0  0  0  0  0  0  0  0  0
   56.8907   -4.3637  -12.1313 O   0  0  0  0  0  0  0  0  0  0  0  0
 43 44  1  0  0  0
 44 24  1  0  0  0
 24 25  2  0  0  0
 25 26  1  0  0  0
 26 27  2  0  0  0
 27 28  1  0  0  0
 28 29  2  0  0  0
 29  1  1  0  0  0
  1  3  1  0  0  0
  3  4  2  0  0  0
  4  5  1  0  0  0
  5  6  2  0  0  0
  6  7  1  0  0  0
  6  8  1  0  0  0
  8 10  1  0  0  0
 10 12  1  0  0  0
 12 13  2  0  0  0
 13 14  1  0  0  0
 14 15  2  0  0  0
 15 16  1  0  0  0
 16 17  2  0  0  0
 17 18  1  0  0  0
 18 19  2  0  0  0
 18 20  2  0  0  0
 18 21  1  0  0  0
 21 22  1  0  0  0
 21 23  1  0  0  0
  8  9  2  0  0  0
 26 30  1  0  0  0
 30 31  1  0  0  0
 31 32  1  0  0  0
 32 33  1  0  0  0
 33 34  1  0  0  0
 34 35  1  0  0  0
 33 36  1  0  0  0
 36 37  1  0  0  0
 37 38  1  0  0  0
 38 39  1  0  0  0
 39 40  1  0  0  0
 39 41  1  0  0  0
 41 42  1  0  0  0
 29 24  1  0  0  0
  9  3  1  0  0  0
 35 30  1  0  0  0
 42 36  1  0  0  0
 17 12  1  0  0  0
  1  2  1  0  0  0
 10 11  1  0  0  0
M  END
> <minimizedAffinity>
-8.66592

> <CNNscore>
0.8474518657

> <CNNaffinity>
8.0202560425

> <CNN_VS>
6.7967810631

> <CNNaffinity_variance>
0.0223492254

$$$$
[H]c1nc(N([H])c2c([H])c([H])c(N3C([H])([H])C([H])([H])C([H])(N4C([H])([H])C([H])([H])N(C([H])([H])[H])C([H])([H])C4([H])[H])C([H])([H])C3([H])[H])c([H])c2OC([H])([H])[H])nc(N([H])c2c([H])c([H])c([H])c([H])c2S(=O)(=O)C([H])(C([H])([H])[H])C([H])([H])[H])c1Cl


 44 48  0  0  0  0  0  0  0  0999 V2000
   55.3047   -3.6498  -10.1447 N   0  0  0  0  0  0  0  0  0  0  0  0
   55.2302   -3.1627  -11.1082 H   0  0  0  0  0  0  0  0  0  0  0  0
   54.1556   -3.5720   -9.3140 C   0  0  0  0  0  0  0  0  0  0  0  0
   53.1400   -2.7157   -9.4503 N   0  0  0  0  0  0  0  0  0  0  0  0
   52.0827   -2.6977   -8.6292 C   0  0  0  0  0  0  0  0  0  0  0  0
   52.0100   -3.5912   -7.5863 C   0  0  0  0  0  0  0  0  0  0  0  0
   50.6270   -3.5824   -6.4963 Cl  0  0  0  0  0  0  0  0  0  0  0  0
   53.0700   -4.5064   -7.4203 C   0  0  0  0  0  0  0  0  0  0  0  0
   54.0794   -4.4449   -8.2911 N   0  0  0  0  0  0  0  0  0  0  0  0
   52.9703   -5.4084   -6.3499 N   0  0  0  0  0  0  0  0  0  0  0  0
   51.9643   -5.6511   -6.0670 H   0  0  0  0  0  0  0  0  0  0  0  0
   53.9506   -6.0530   -5.5804 C   0  0  0  0  0  0  0  0  0  0  0  0
   55.2459   -6.1396   -6.0450 C   0  0  0  0  0  0  0  0  0  0  0  0
   56.2356   -6.7815   -5.2896 C   0  0  0  0  0  0  0  0  0  0  0  0
   55.9018   -7.3221   -4.0842 C   0  0  0  0  0  0  0  0  0  0  0  0
   54.6078   -7.2339   -3.6229 C   0  0  0  0  0  0  0  0  0  0  0  0
   53.6201   -6.6118   -4.3409 C   0  0  0  0  0  0  0  0  0  0  0  0
   52.0132   -6.5094   -3.7517 S   0  0  0  0  0  0  0  0  0  0  0  0
   51.7610   -7.6119   -2.7540 O   0  0  0  0  0  0  0  0  0  0  0  0
   50.9496   -6.5951   -4.8104 O   0  0  0  0  0  0  0  0  0  0  0  0
   51.7016   -4.9874   -2.8773 C   0  0  0  0  0  0  0  0  0  0  0  0
   50.2562   -4.6163   -2.9535 C   0  0  0  0  0  0  0  0  0  0  0  0
   52.3005   -4.9531   -1.5109 C   0  0  0  0  0  0  0  0  0  0  0  0
   57.3333   -4.6190  -10.9917 C   0  0  0  0  0  0  0  0  0  0  0  0
   58.5579   -5.2395  -10.8251 C   0  0  0  0  0  0  0  0  0  0  0  0
   59.0510   -5.5506   -9.5775 C   0  0  0  0  0  0  0  0  0  0  0  0
   58.2587   -5.2100   -8.5083 C   0  0  0  0  0  0  0  0  0  0  0  0
   57.0161   -4.5825   -8.6413 C   0  0  0  0  0  0  0  0  0  0  0  0
   56.5299   -4.2750   -9.8871 C   0  0  0  0  0  0  0  0  0  0  0  0
   60.3228   -6.1857   -9.4209 N   0  0  0  0  0  0  0  0  0  0  0  0
   61.1557   -6.3234  -10.5661 C   0  0  0  0  0  0  0  0  0  0  0  0
   62.5944   -6.6645  -10.2971 C   0  0  0  0  0  0  0  0  0  0  0  0
   62.7960   -7.7012   -9.2436 C   0  0  0  0  0  0  0  0  0  0  0  0
   61.5618   -7.9300   -8.3942 C   0  0  0  0  0  0  0  0  0  0  0  0
   60.7733   -6.6892   -8.1455 C   0  0  0  0  0  0  0  0  0  0  0  0
   63.9162   -7.5641   -8.4010 N   0  0  0  0  0  0  0  0  0  0  0  0
   65.1633   -7.2393   -8.9564 C   0  0  0  0  0  0  0  0  0  0  0  0
   66.2693   -7.5237   -7.9362 C   0  0  0  0  0  0  0  0  0  0  0  0
   65.8310   -7.0081   -6.6538 N   0  0  0  0  0  0  0  0  0  0  0  0
   65.8116   -5.5826   -6.5703 C   0  0  0  0  0  0  0  0  0  0  0  0
   64.6765   -7.6732   -6.1419 C   0  0  0  0  0  0  0  0  0  0  0  0
   64.0006   -8.4401   -7.2767 C   0  0  0  0  0  0  0  0  0  0  0  0
   57.8096   -3.7863  -13.2002 C   0  0  0  0  0  0  0  0  0  0  0  0
   56.8973   -4.3346  -12.2765 O   0  0  0  0  0  0  0  0  0  0  0  0
 43 44  1  0  0  0
 44 24  1  0  0  0
 24 25  2  0  0  0
 25 26  1  0  0  0
 26 27  2  0  0  0
 27 28  1  0  0  0
 28 29  2  0  0  0
 29  1  1  0  0  0
  1  3  1  0  0  0
  3  4  2  0  0  0
  4  5  1  0  0  0
  5  6  2  0  0  0
  6  7  1  0  0  0
  6  8  1  0  0  0
  8 10  1  0  0  0
 10 12  1  0  0  0
 12 13  2  0  0  0
 13 14  1  0  0  0
 14 15  2  0  0  0
 15 16  1  0  0  0
 16 17  2  0  0  0
 17 18  1  0  0  0
 18 19  2  0  0  0
 18 20  2  0  0  0
 18 21  1  0  0  0
 21 22  1  0  0  0
 21 23  1  0  0  0
  8  9  2  0  0  0
 26 30  1  0  0  0
 30 31  1  0  0  0
 31 32  1  0  0  0
 32 33  1  0  0  0
 33 34  1  0  0  0
 34 35  1  0  0  0
 33 36  1  0  0  0
 36 37  1  0  0  0
 37 38  1  0  0  0
 38 39  1  0  0  0
 39 40  1  0  0  0
 39 41  1  0  0  0
 41 42  1  0  0  0
 29 24  1  0  0  0
  9  3  1  0  0  0
 35 30  1  0  0  0
 42 36  1  0  0  0
 17 12  1  0  0  0
  1  2  1  0  0  0
 10 11  1  0  0  0
M  END
> <minimizedAffinity>
-8.62103

> <CNNscore>
0.8268525004

> <CNNaffinity>
8.0621051788

> <CNN_VS>
6.6661720276

> <CNNaffinity_variance>
0.0038069424

$$$$
[H]c1nc(N([H])c2c([H])c([H])c(N3C([H])([H])C([H])([H])C([H])(N4C([H])([H])C([H])([H])N(C([H])([H])[H])C([H])([H])C4([H])[H])C([H])([H])C3([H])[H])c([H])c2OC([H])([H])[H])nc(N([H])c2c([H])c([H])c([H])c([H])c2S(=O)(=O)C([H])(C([H])([H])[H])C([H])([H])[H])c1Cl


 44 48  0  0  0  0  0  0  0  0999 V2000
   54.4368   -3.1895   -9.7109 N   0  0  0  0  0  0  0  0  0  0  0  0
   54.3212   -2.4714  -10.5123 H   0  0  0  0  0  0  0  0  0  0  0  0
   53.3430   -3.3062   -8.8129 C   0  0  0  0  0  0  0  0  0  0  0  0
   52.2727   -2.5091   -8.7654 N   0  0  0  0  0  0  0  0  0  0  0  0
   51.2730   -2.6773   -7.8908 C   0  0  0  0  0  0  0  0  0  0  0  0
   51.3217   -3.7114   -6.9855 C   0  0  0  0  0  0  0  0  0  0  0  0
   50.0162   -3.9483   -5.8279 Cl  0  0  0  0  0  0  0  0  0  0  0  0
   52.4417   -4.5679   -7.0147 C   0  0  0  0  0  0  0  0  0  0  0  0
   53.3857   -4.3173   -7.9241 N   0  0  0  0  0  0  0  0  0  0  0  0
   52.4659   -5.6160   -6.0819 N   0  0  0  0  0  0  0  0  0  0  0  0
   51.4973   -5.9824   -5.8017 H   0  0  0  0  0  0  0  0  0  0  0  0
   53.5302   -6.2742   -5.4475 C   0  0  0  0  0  0  0  0  0  0  0  0
   54.6607   -6.6069   -6.1634 C   0  0  0  0  0  0  0  0  0  0  0  0
   55.7312   -7.2658   -5.5451 C   0  0  0  0  0  0  0  0  0  0  0  0
   55.6418   -7.5758   -4.2212 C   0  0  0  0  0  0  0  0  0  0  0  0
   54.5120   -7.2422   -3.5091 C   0  0  0  0  0  0  0  0  0  0  0  0
   53.4505   -6.5977   -4.0885 C   0  0  0  0  0  0  0  0  0  0  0  0
   52.0505   -6.1880   -3.1872 S   0  0  0  0  0  0  0  0  0  0  0  0
   50.8141   -6.6211   -3.9342 O   0  0  0  0  0  0  0  0  0  0  0  0
   51.9105   -4.7242   -2.8755 O   0  0  0  0  0  0  0  0  0  0  0  0
   51.9813   -7.0245   -1.6144 C   0  0  0  0  0  0  0  0  0  0  0  0
   52.7471   -6.2703   -0.5764 C   0  0  0  0  0  0  0  0  0  0  0  0
   50.6023   -7.4362   -1.2199 C   0  0  0  0  0  0  0  0  0  0  0  0
   56.3088   -4.0361   -8.4653 C   0  0  0  0  0  0  0  0  0  0  0  0
   57.5148   -4.7058   -8.3691 C   0  0  0  0  0  0  0  0  0  0  0  0
   58.1325   -5.2520   -9.4720 C   0  0  0  0  0  0  0  0  0  0  0  0
   57.4838   -5.0945  -10.6726 C   0  0  0  0  0  0  0  0  0  0  0  0
   56.2642   -4.4233  -10.8051 C   0  0  0  0  0  0  0  0  0  0  0  0
   55.6534   -3.8809   -9.7025 C   0  0  0  0  0  0  0  0  0  0  0  0
   59.3763   -5.9483   -9.3555 N   0  0  0  0  0  0  0  0  0  0  0  0
   60.1153   -5.8153   -8.1470 C   0  0  0  0  0  0  0  0  0  0  0  0
   61.2116   -6.8204   -7.9312 C   0  0  0  0  0  0  0  0  0  0  0  0
   62.0327   -7.1073   -9.1430 C   0  0  0  0  0  0  0  0  0  0  0  0
   61.3807   -6.6324  -10.4261 C   0  0  0  0  0  0  0  0  0  0  0  0
   59.8958   -6.7681  -10.4237 C   0  0  0  0  0  0  0  0  0  0  0  0
   62.4922   -8.4267   -9.3209 N   0  0  0  0  0  0  0  0  0  0  0  0
   61.8068   -9.4860   -8.7066 C   0  0  0  0  0  0  0  0  0  0  0  0
   62.6861  -10.7397   -8.7147 C   0  0  0  0  0  0  0  0  0  0  0  0
   63.2770  -10.8566  -10.0337 N   0  0  0  0  0  0  0  0  0  0  0  0
   62.3541  -11.2248  -11.0593 C   0  0  0  0  0  0  0  0  0  0  0  0
   64.1615   -9.7831  -10.3539 C   0  0  0  0  0  0  0  0  0  0  0  0
   63.9045   -8.6238   -9.3934 C   0  0  0  0  0  0  0  0  0  0  0  0
   56.5121   -3.4656   -6.1349 C   0  0  0  0  0  0  0  0  0  0  0  0
   55.7422   -3.5105   -7.3145 O   0  0  0  0  0  0  0  0  0  0  0  0
 43 44  1  0  0  0
 44 24  1  0  0  0
 24 25  2  0  0  0
 25 26  1  0  0  0
 26 27  2  0  0  0
 27 28  1  0  0  0
 28 29  2  0  0  0
 29  1  1  0  0  0
  1  3  1  0  0  0
  3  4  2  0  0  0
  4  5  1  0  0  0
  5  6  2  0  0  0
  6  7  1  0  0  0
  6  8  1  0  0  0
  8 10  1  0  0  0
 10 12  1  0  0  0
 12 13  2  0  0  0
 13 14  1  0  0  0
 14 15  2  0  0  0
 15 16  1  0  0  0
 16 17  2  0  0  0
 17 18  1  0  0  0
 18 19  2  0  0  0
 18 20  2  0  0  0
 18 21  1  0  0  0
 21 22  1  0  0  0
 21 23  1  0  0  0
  8  9  2  0  0  0
 26 30  1  0  0  0
 30 31  1  0  0  0
 31 32  1  0  0  0
 32 33  1  0  0  0
 33 34  1  0  0  0
 34 35  1  0  0  0
 33 36  1  0  0  0
 36 37  1  0  0  0
 37 38  1  0  0  0
 38 39  1  0  0  0
 39 40  1  0  0  0
 39 41  1  0  0  0
 41 42  1  0  0  0
 29 24  1  0  0  0
  9  3  1  0  0  0
 35 30  1  0  0  0
 42 36  1  0  0  0
 17 12  1  0  0  0
  1  2  1  0  0  0
 10 11  1  0  0  0
M  END
> <minimizedAffinity>
-7.68089

> <CNNscore>
0.8006752729

> <CNNaffinity>
8.0626792908

> <CNN_VS>
6.4555878639

> <CNNaffinity_variance>
0.0378356501

$$$$
[H]c1nc(N([H])c2c([H])c([H])c(N3C([H])([H])C([H])([H])C([H])(N4C([H])([H])C([H])([H])N(C([H])([H])[H])C([H])([H])C4([H])[H])C([H])([H])C3([H])[H])c([H])c2OC([H])([H])[H])nc(N([H])c2c([H])c([H])c([H])c([H])c2S(=O)(=O)C([H])(C([H])([H])[H])C([H])([H])[H])c1Cl


 44 48  0  0  0  0  0  0  0  0999 V2000
   55.1061   -3.4214   -9.6413 N   0  0  0  0  0  0  0  0  0  0  0  0
   55.0960   -2.7409  -10.4827 H   0  0  0  0  0  0  0  0  0  0  0  0
   53.9253   -3.4594   -8.8534 C   0  0  0  0  0  0  0  0  0  0  0  0
   52.8344   -2.7097   -9.0300 N   0  0  0  0  0  0  0  0  0  0  0  0
   51.7513   -2.7979   -8.2480 C   0  0  0  0  0  0  0  0  0  0  0  0
   51.7305   -3.6939   -7.2050 C   0  0  0  0  0  0  0  0  0  0  0  0
   50.3147   -3.8241   -6.1662 Cl  0  0  0  0  0  0  0  0  0  0  0  0
   52.8704   -4.4978   -6.9969 C   0  0  0  0  0  0  0  0  0  0  0  0
   53.8998   -4.3353   -7.8304 N   0  0  0  0  0  0  0  0  0  0  0  0
   52.8227   -5.4050   -5.9273 N   0  0  0  0  0  0  0  0  0  0  0  0
   51.8407   -5.5670   -5.5269 H   0  0  0  0  0  0  0  0  0  0  0  0
   53.8293   -6.1414   -5.2847 C   0  0  0  0  0  0  0  0  0  0  0  0
   55.0008   -6.4352   -5.9500 C   0  0  0  0  0  0  0  0  0  0  0  0
   56.0146   -7.1710   -5.3230 C   0  0  0  0  0  0  0  0  0  0  0  0
   55.8287   -7.5954   -4.0415 C   0  0  0  0  0  0  0  0  0  0  0  0
   54.6582   -7.3004   -3.3799 C   0  0  0  0  0  0  0  0  0  0  0  0
   53.6503   -6.5825   -3.9689 C   0  0  0  0  0  0  0  0  0  0  0  0
   52.1986   -6.2224   -3.1306 S   0  0  0  0  0  0  0  0  0  0  0  0
   51.0109   -6.6692   -3.9455 O   0  0  0  0  0  0  0  0  0  0  0  0
   52.0087   -4.7685   -2.7998 O   0  0  0  0  0  0  0  0  0  0  0  0
   52.0724   -7.0905   -1.5785 C   0  0  0  0  0  0  0  0  0  0  0  0
   52.8439   -6.3857   -0.5105 C   0  0  0  0  0  0  0  0  0  0  0  0
   50.6732   -7.4634   -1.2178 C   0  0  0  0  0  0  0  0  0  0  0  0
   56.9685   -4.5629  -10.6416 C   0  0  0  0  0  0  0  0  0  0  0  0
   58.1451   -5.2858  -10.5695 C   0  0  0  0  0  0  0  0  0  0  0  0
   58.7103   -5.6353   -9.3633 C   0  0  0  0  0  0  0  0  0  0  0  0
   58.0401   -5.2256   -8.2363 C   0  0  0  0  0  0  0  0  0  0  0  0
   56.8489   -4.4942   -8.2736 C   0  0  0  0  0  0  0  0  0  0  0  0
   56.2904   -4.1489   -9.4785 C   0  0  0  0  0  0  0  0  0  0  0  0
   59.9318   -6.3768   -9.3048 N   0  0  0  0  0  0  0  0  0  0  0  0
   59.9913   -7.6355   -9.9656 C   0  0  0  0  0  0  0  0  0  0  0  0
   61.3664   -8.2037  -10.1778 C   0  0  0  0  0  0  0  0  0  0  0  0
   62.2792   -8.0637   -9.0064 C   0  0  0  0  0  0  0  0  0  0  0  0
   61.7839   -7.0579   -7.9866 C   0  0  0  0  0  0  0  0  0  0  0  0
   61.0895   -5.8873   -8.5954 C   0  0  0  0  0  0  0  0  0  0  0  0
   63.6418   -7.8216   -9.2679 N   0  0  0  0  0  0  0  0  0  0  0  0
   64.2738   -8.4972  -10.3231 C   0  0  0  0  0  0  0  0  0  0  0  0
   65.7930   -8.3776  -10.1725 C   0  0  0  0  0  0  0  0  0  0  0  0
   66.0969   -6.9997   -9.8384 N   0  0  0  0  0  0  0  0  0  0  0  0
   65.9061   -6.0796  -10.9137 C   0  0  0  0  0  0  0  0  0  0  0  0
   65.5676   -6.5943   -8.5764 C   0  0  0  0  0  0  0  0  0  0  0  0
   64.4927   -7.5898   -8.1451 C   0  0  0  0  0  0  0  0  0  0  0  0
   57.3440   -3.8810  -12.9201 C   0  0  0  0  0  0  0  0  0  0  0  0
   56.4546   -4.2449  -11.8892 O   0  0  0  0  0  0  0  0  0  0  0  0
 43 44  1  0  0  0
 44 24  1  0  0  0
 24 25  2  0  0  0
 25 26  1  0  0  0
 26 27  2  0  0  0
 27 28  1  0  0  0
 28 29  2  0  0  0
 29  1  1  0  0  0
  1  3  1  0  0  0
  3  4  2  0  0  0
  4  5  1  0  0  0
  5  6  2  0  0  0
  6  7  1  0  0  0
  6  8  1  0  0  0
  8 10  1  0  0  0
 10 12  1  0  0  0
 12 13  2  0  0  0
 13 14  1  0  0  0
 14 15  2  0  0  0
 15 16  1  0  0  0
 16 17  2  0  0  0
 17 18  1  0  0  0
 18 19  2  0  0  0
 18 20  2  0  0  0
 18 21  1  0  0  0
 21 22  1  0  0  0
 21 23  1  0  0  0
  8  9  2  0  0  0
 26 30  1  0  0  0
 30 31  1  0  0  0
 31 32  1  0  0  0
 32 33  1  0  0  0
 33 34  1  0  0  0
 34 35  1  0  0  0
 33 36  1  0  0  0
 36 37  1  0  0  0
 37 38  1  0  0  0
 38 39  1  0  0  0
 39 40  1  0  0  0
 39 41  1  0  0  0
 41 42  1  0  0  0
 29 24  1  0  0  0
  9  3  1  0  0  0
 35 30  1  0  0  0
 42 36  1  0  0  0
 17 12  1  0  0  0
  1  2  1  0  0  0
 10 11  1  0  0  0
M  END
> <minimizedAffinity>
-8.42219

> <CNNscore>
0.7948920727

> <CNNaffinity>
8.0311450958

> <CNN_VS>
6.3838934898

> <CNNaffinity_variance>
0.0111624869

$$$$
[H]c1nc(N([H])c2c([H])c([H])c(N3C([H])([H])C([H])([H])C([H])(N4C([H])([H])C([H])([H])N(C([H])([H])[H])C([H])([H])C4([H])[H])C([H])([H])C3([H])[H])c([H])c2OC([H])([H])[H])nc(N([H])c2c([H])c([H])c([H])c([H])c2S(=O)(=O)C([H])(C([H])([H])[H])C([H])([H])[H])c1Cl


 44 48  0  0  0  0  0  0  0  0999 V2000
   55.3316   -3.2442   -9.5536 N   0  0  0  0  0  0  0  0  0  0  0  0
   55.4410   -2.3081  -10.0856 H   0  0  0  0  0  0  0  0  0  0  0  0
   54.0651   -3.4799   -8.9563 C   0  0  0  0  0  0  0  0  0  0  0  0
   52.9382   -2.8078   -9.2049 N   0  0  0  0  0  0  0  0  0  0  0  0
   51.7737   -3.0843   -8.6049 C   0  0  0  0  0  0  0  0  0  0  0  0
   51.7025   -4.1033   -7.6841 C   0  0  0  0  0  0  0  0  0  0  0  0
   50.1795   -4.4814   -6.8852 Cl  0  0  0  0  0  0  0  0  0  0  0  0
   52.8788   -4.8287   -7.4036 C   0  0  0  0  0  0  0  0  0  0  0  0
   53.9898   -4.4768   -8.0537 N   0  0  0  0  0  0  0  0  0  0  0  0
   52.7786   -5.8644   -6.4619 N   0  0  0  0  0  0  0  0  0  0  0  0
   52.9718   -6.8429   -6.8570 H   0  0  0  0  0  0  0  0  0  0  0  0
   52.4710   -5.8524   -5.0931 C   0  0  0  0  0  0  0  0  0  0  0  0
   51.3074   -5.2582   -4.6525 C   0  0  0  0  0  0  0  0  0  0  0  0
   50.9868   -5.2363   -3.2890 C   0  0  0  0  0  0  0  0  0  0  0  0
   51.8427   -5.8119   -2.3986 C   0  0  0  0  0  0  0  0  0  0  0  0
   53.0035   -6.4046   -2.8414 C   0  0  0  0  0  0  0  0  0  0  0  0
   53.3417   -6.4405   -4.1689 C   0  0  0  0  0  0  0  0  0  0  0  0
   54.7911   -7.1838   -4.7045 S   0  0  0  0  0  0  0  0  0  0  0  0
   54.7320   -7.4095   -6.1944 O   0  0  0  0  0  0  0  0  0  0  0  0
   55.0990   -8.5022   -4.0515 O   0  0  0  0  0  0  0  0  0  0  0  0
   56.2257   -6.1621   -4.4281 C   0  0  0  0  0  0  0  0  0  0  0  0
   55.9469   -5.1228   -3.3914 C   0  0  0  0  0  0  0  0  0  0  0  0
   57.4824   -6.9423   -4.2312 C   0  0  0  0  0  0  0  0  0  0  0  0
   56.9150   -4.5524   -8.3070 C   0  0  0  0  0  0  0  0  0  0  0  0
   58.0287   -5.3667   -8.2143 C   0  0  0  0  0  0  0  0  0  0  0  0
   58.7521   -5.7377   -9.3259 C   0  0  0  0  0  0  0  0  0  0  0  0
   58.3053   -5.2538  -10.5314 C   0  0  0  0  0  0  0  0  0  0  0  0
   57.1837   -4.4287  -10.6605 C   0  0  0  0  0  0  0  0  0  0  0  0
   56.4669   -4.0623   -9.5493 C   0  0  0  0  0  0  0  0  0  0  0  0
   59.8977   -6.5867   -9.2148 N   0  0  0  0  0  0  0  0  0  0  0  0
   60.9638   -6.1765   -8.3666 C   0  0  0  0  0  0  0  0  0  0  0  0
   61.9658   -7.2377   -8.0080 C   0  0  0  0  0  0  0  0  0  0  0  0
   62.3678   -8.1160   -9.1448 C   0  0  0  0  0  0  0  0  0  0  0  0
   61.4256   -8.0211  -10.3282 C   0  0  0  0  0  0  0  0  0  0  0  0
   59.9990   -7.8314   -9.9382 C   0  0  0  0  0  0  0  0  0  0  0  0
   62.6175   -9.4730   -8.8625 N   0  0  0  0  0  0  0  0  0  0  0  0
   62.4879   -9.9404   -7.5457 C   0  0  0  0  0  0  0  0  0  0  0  0
   63.1689  -11.3058   -7.4162 C   0  0  0  0  0  0  0  0  0  0  0  0
   62.7846  -12.1021   -8.5654 N   0  0  0  0  0  0  0  0  0  0  0  0
   61.4223  -12.5302   -8.5534 C   0  0  0  0  0  0  0  0  0  0  0  0
   63.2550  -11.5708   -9.8038 C   0  0  0  0  0  0  0  0  0  0  0  0
   63.6611  -10.1131   -9.5973 C   0  0  0  0  0  0  0  0  0  0  0  0
   56.6727   -3.1113   -6.3934 C   0  0  0  0  0  0  0  0  0  0  0  0
   56.2330   -4.2178   -7.1474 O   0  0  0  0  0  0  0  0  0  0  0  0
 43 44  1  0  0  0
 44 24  1  0  0  0
 24 25  2  0  0  0
 25 26  1  0  0  0
 26 27  2  0  0  0
 27 28  1  0  0  0
 28 29  2  0  0  0
 29  1  1  0  0  0
  1  3  1  0  0  0
  3  4  2  0  0  0
  4  5  1  0  0  0
  5  6  2  0  0  0
  6  7  1  0  0  0
  6  8  1  0  0  0
  8 10  1  0  0  0
 10 12  1  0  0  0
 12 13  2  0  0  0
 13 14  1  0  0  0
 14 15  2  0  0  0
 15 16  1  0  0  0
 16 17  2  0  0  0
 17 18  1  0  0  0
 18 19  2  0  0  0
 18 20  2  0  0  0
 18 21  1  0  0  0
 21 22  1  0  0  0
 21 23  1  0  0  0
  8  9  2  0  0  0
 26 30  1  0  0  0
 30 31  1  0  0  0
 31 32  1  0  0  0
 32 33  1  0  0  0
 33 34  1  0  0  0
 34 35  1  0  0  0
 33 36  1  0  0  0
 36 37  1  0  0  0
 37 38  1  0  0  0
 38 39  1  0  0  0
 39 40  1  0  0  0
 39 41  1  0  0  0
 41 42  1  0  0  0
 29 24  1  0  0  0
  9  3  1  0  0  0
 35 30  1  0  0  0
 42 36  1  0  0  0
 17 12  1  0  0  0
  1  2  1  0  0  0
 10 11  1  0  0  0
M  END
> <minimizedAffinity>
-8.22236

> <CNNscore>
0.7682594061

> <CNNaffinity>
7.9026174545

> <CNN_VS>
6.0712599754

> <CNNaffinity_variance>
0.0818732232

$$$$
[H]c1nc(N([H])c2c([H])c([H])c(N3C([H])([H])C([H])([H])C([H])(N4C([H])([H])C([H])([H])N(C([H])([H])[H])C([H])([H])C4([H])[H])C([H])([H])C3([H])[H])c([H])c2OC([H])([H])[H])nc(N([H])c2c([H])c([H])c([H])c([H])c2S(=O)(=O)C([H])(C([H])([H])[H])C([H])([H])[H])c1Cl


 44 48  0  0  0  0  0  0  0  0999 V2000
   54.4406   -3.2901   -9.9103 N   0  0  0  0  0  0  0  0  0  0  0  0
   54.2791   -2.6669  -10.7802 H   0  0  0  0  0  0  0  0  0  0  0  0
   53.3703   -3.3537   -8.9791 C   0  0  0  0  0  0  0  0  0  0  0  0
   52.3526   -2.4941   -8.8869 N   0  0  0  0  0  0  0  0  0  0  0  0
   51.3725   -2.6145   -7.9828 C   0  0  0  0  0  0  0  0  0  0  0  0
   51.3865   -3.6629   -7.0929 C   0  0  0  0  0  0  0  0  0  0  0  0
   50.1059   -3.8376   -5.8971 Cl  0  0  0  0  0  0  0  0  0  0  0  0
   52.4507   -4.5851   -7.1693 C   0  0  0  0  0  0  0  0  0  0  0  0
   53.3793   -4.3786   -8.1052 N   0  0  0  0  0  0  0  0  0  0  0  0
   52.4403   -5.6465   -6.2513 N   0  0  0  0  0  0  0  0  0  0  0  0
   51.4668   -6.0515   -6.0532 H   0  0  0  0  0  0  0  0  0  0  0  0
   53.4751   -6.2764   -5.5436 C   0  0  0  0  0  0  0  0  0  0  0  0
   54.6417   -6.6241   -6.1912 C   0  0  0  0  0  0  0  0  0  0  0  0
   55.6834   -7.2552   -5.4992 C   0  0  0  0  0  0  0  0  0  0  0  0
   55.5297   -7.5230   -4.1720 C   0  0  0  0  0  0  0  0  0  0  0  0
   54.3639   -7.1745   -3.5283 C   0  0  0  0  0  0  0  0  0  0  0  0
   53.3292   -6.5564   -4.1805 C   0  0  0  0  0  0  0  0  0  0  0  0
   51.8838   -6.1278   -3.3637 S   0  0  0  0  0  0  0  0  0  0  0  0
   50.6884   -6.5776   -4.1656 O   0  0  0  0  0  0  0  0  0  0  0  0
   51.7285   -4.6576   -3.0920 O   0  0  0  0  0  0  0  0  0  0  0  0
   51.7308   -6.9298   -1.7789 C   0  0  0  0  0  0  0  0  0  0  0  0
   51.6014   -8.4094   -1.9417 C   0  0  0  0  0  0  0  0  0  0  0  0
   52.7493   -6.4814   -0.7847 C   0  0  0  0  0  0  0  0  0  0  0  0
   56.3487   -3.9651   -8.6158 C   0  0  0  0  0  0  0  0  0  0  0  0
   57.5820   -4.5750   -8.4772 C   0  0  0  0  0  0  0  0  0  0  0  0
   58.2201   -5.1735   -9.5407 C   0  0  0  0  0  0  0  0  0  0  0  0
   57.5631   -5.1308  -10.7464 C   0  0  0  0  0  0  0  0  0  0  0  0
   56.3162   -4.5225  -10.9212 C   0  0  0  0  0  0  0  0  0  0  0  0
   55.6852   -3.9276   -9.8577 C   0  0  0  0  0  0  0  0  0  0  0  0
   59.4923   -5.8070   -9.3801 N   0  0  0  0  0  0  0  0  0  0  0  0
   60.2774   -6.0517  -10.5411 C   0  0  0  0  0  0  0  0  0  0  0  0
   61.7231   -6.3845  -10.3005 C   0  0  0  0  0  0  0  0  0  0  0  0
   61.9588   -7.3292   -9.1704 C   0  0  0  0  0  0  0  0  0  0  0  0
   60.7581   -7.4704   -8.2564 C   0  0  0  0  0  0  0  0  0  0  0  0
   59.9898   -6.2041   -8.0848 C   0  0  0  0  0  0  0  0  0  0  0  0
   63.1130   -7.1327   -8.3875 N   0  0  0  0  0  0  0  0  0  0  0  0
   63.6999   -5.8593   -8.3287 C   0  0  0  0  0  0  0  0  0  0  0  0
   65.1161   -5.9727   -7.7574 C   0  0  0  0  0  0  0  0  0  0  0  0
   65.0602   -6.8570   -6.6096 N   0  0  0  0  0  0  0  0  0  0  0  0
   64.4040   -6.2990   -5.4705 C   0  0  0  0  0  0  0  0  0  0  0  0
   64.6887   -8.1940   -6.9438 C   0  0  0  0  0  0  0  0  0  0  0  0
   64.0579   -8.2018   -8.3347 C   0  0  0  0  0  0  0  0  0  0  0  0
   56.3888   -3.5250   -6.2489 C   0  0  0  0  0  0  0  0  0  0  0  0
   55.7626   -3.3816   -7.5033 O   0  0  0  0  0  0  0  0  0  0  0  0
 43 44  1  0  0  0
 44 24  1  0  0  0
 24 25  2  0  0  0
 25 26  1  0  0  0
 26 27  2  0  0  0
 27 28  1  0  0  0
 28 29  2  0  0  0
 29  1  1  0  0  0
  1  3  1  0  0  0
  3  4  2  0  0  0
  4  5  1  0  0  0
  5  6  2  0  0  0
  6  7  1  0  0  0
  6  8  1  0  0  0
  8 10  1  0  0  0
 10 12  1  0  0  0
 12 13  2  0  0  0
 13 14  1  0  0  0
 14 15  2  0  0  0
 15 16  1  0  0  0
 16 17  2  0  0  0
 17 18  1  0  0  0
 18 19  2  0  0  0
 18 20  2  0  0  0
 18 21  1  0  0  0
 21 22  1  0  0  0
 21 23  1  0  0  0
  8  9  2  0  0  0
 26 30  1  0  0  0
 30 31  1  0  0  0
 31 32  1  0  0  0
 32 33  1  0  0  0
 33 34  1  0  0  0
 34 35  1  0  0  0
 33 36  1  0  0  0
 36 37  1  0  0  0
 37 38  1  0  0  0
 38 39  1  0  0  0
 39 40  1  0  0  0
 39 41  1  0  0  0
 41 42  1  0  0  0
 29 24  1  0  0  0
  9  3  1  0  0  0
 35 30  1  0  0  0
 42 36  1  0  0  0
 17 12  1  0  0  0
  1  2  1  0  0  0
 10 11  1  0  0  0
M  END
> <minimizedAffinity>
-7.66586

> <CNNscore>
0.7144402862

> <CNNaffinity>
7.9639549255

> <CNN_VS>
5.6897702217

> <CNNaffinity_variance>
0.0261221416

$$$$
[H]c1nc(N([H])c2c([H])c([H])c(N3C([H])([H])C([H])([H])C([H])(N4C([H])([H])C([H])([H])N(C([H])([H])[H])C([H])([H])C4([H])[H])C([H])([H])C3([H])[H])c([H])c2OC([H])([H])[H])nc(N([H])c2c([H])c([H])c([H])c([H])c2S(=O)(=O)C([H])(C([H])([H])[H])C([H])([H])[H])c1Cl


 44 48  0  0  0  0  0  0  0  0999 V2000
   54.9516   -3.6523   -9.2162 N   0  0  0  0  0  0  0  0  0  0  0  0
   54.8182   -2.9220  -10.0037 H   0  0  0  0  0  0  0  0  0  0  0  0
   53.8340   -3.8676   -8.3669 C   0  0  0  0  0  0  0  0  0  0  0  0
   52.6512   -3.2532   -8.4484 N   0  0  0  0  0  0  0  0  0  0  0  0
   51.6361   -3.5058   -7.6128 C   0  0  0  0  0  0  0  0  0  0  0  0
   51.7879   -4.4373   -6.6125 C   0  0  0  0  0  0  0  0  0  0  0  0
   50.4639   -4.7829   -5.5043 Cl  0  0  0  0  0  0  0  0  0  0  0  0
   53.0278   -5.1006   -6.5048 C   0  0  0  0  0  0  0  0  0  0  0  0
   53.9774   -4.7789   -7.3856 N   0  0  0  0  0  0  0  0  0  0  0  0
   53.1559   -6.0476   -5.4771 N   0  0  0  0  0  0  0  0  0  0  0  0
   52.2329   -6.5068   -5.1801 H   0  0  0  0  0  0  0  0  0  0  0  0
   54.2754   -6.5046   -4.7657 C   0  0  0  0  0  0  0  0  0  0  0  0
   55.4681   -6.7232   -5.4222 C   0  0  0  0  0  0  0  0  0  0  0  0
   56.5944   -7.1811   -4.7264 C   0  0  0  0  0  0  0  0  0  0  0  0
   56.4972   -7.4094   -3.3866 C   0  0  0  0  0  0  0  0  0  0  0  0
   55.3052   -7.1901   -2.7339 C   0  0  0  0  0  0  0  0  0  0  0  0
   54.1882   -6.7424   -3.3895 C   0  0  0  0  0  0  0  0  0  0  0  0
   52.7110   -6.4730   -2.5616 S   0  0  0  0  0  0  0  0  0  0  0  0
   51.5846   -7.1713   -3.2812 O   0  0  0  0  0  0  0  0  0  0  0  0
   52.3320   -5.0266   -2.4080 O   0  0  0  0  0  0  0  0  0  0  0  0
   52.7199   -7.1469   -0.9111 C   0  0  0  0  0  0  0  0  0  0  0  0
   53.2649   -6.1558    0.0653 C   0  0  0  0  0  0  0  0  0  0  0  0
   51.4282   -7.7852   -0.5224 C   0  0  0  0  0  0  0  0  0  0  0  0
   56.8232   -4.5804  -10.4028 C   0  0  0  0  0  0  0  0  0  0  0  0
   58.0673   -5.1821  -10.4512 C   0  0  0  0  0  0  0  0  0  0  0  0
   58.7673   -5.4964   -9.3077 C   0  0  0  0  0  0  0  0  0  0  0  0
   58.1609   -5.1786   -8.1167 C   0  0  0  0  0  0  0  0  0  0  0  0
   56.9045   -4.5704   -8.0321 C   0  0  0  0  0  0  0  0  0  0  0  0
   56.2116   -4.2597   -9.1751 C   0  0  0  0  0  0  0  0  0  0  0  0
   60.0566   -6.1120   -9.3740 N   0  0  0  0  0  0  0  0  0  0  0  0
   60.7150   -6.1686  -10.6339 C   0  0  0  0  0  0  0  0  0  0  0  0
   62.1820   -6.4934  -10.5965 C   0  0  0  0  0  0  0  0  0  0  0  0
   62.5487   -7.5819   -9.6449 C   0  0  0  0  0  0  0  0  0  0  0  0
   61.4549   -7.8833   -8.6399 C   0  0  0  0  0  0  0  0  0  0  0  0
   60.6950   -6.6752   -8.2085 C   0  0  0  0  0  0  0  0  0  0  0  0
   63.7780   -7.4676   -8.9671 N   0  0  0  0  0  0  0  0  0  0  0  0
   64.3169   -6.1951   -8.7228 C   0  0  0  0  0  0  0  0  0  0  0  0
   65.7937   -6.3278   -8.3402 C   0  0  0  0  0  0  0  0  0  0  0  0
   65.9078   -7.4164   -7.3892 N   0  0  0  0  0  0  0  0  0  0  0  0
   65.3682   -7.1272   -6.0990 C   0  0  0  0  0  0  0  0  0  0  0  0
   65.5529   -8.6854   -7.9376 C   0  0  0  0  0  0  0  0  0  0  0  0
   64.7642   -8.4668   -9.2270 C   0  0  0  0  0  0  0  0  0  0  0  0
   56.9410   -3.9265  -12.7171 C   0  0  0  0  0  0  0  0  0  0  0  0
   56.1736   -4.2914  -11.5928 O   0  0  0  0  0  0  0  0  0  0  0  0
 43 44  1  0  0  0
 44 24  1  0  0  0
 24 25  2  0  0  0
 25 26  1  0  0  0
 26 27  2  0  0  0
 27 28  1  0  0  0
 28 29  2  0  0  0
 29  1  1  0  0  0
  1  3  1  0  0  0
  3  4  2  0  0  0
  4  5  1  0  0  0
  5  6  2  0  0  0
  6  7  1  0  0  0
  6  8  1  0  0  0
  8 10  1  0  0  0
 10 12  1  0  0  0
 12 13  2  0  0  0
 13 14  1  0  0  0
 14 15  2  0  0  0
 15 16  1  0  0  0
 16 17  2  0  0  0
 17 18  1  0  0  0
 18 19  2  0  0  0
 18 20  2  0  0  0
 18 21  1  0  0  0
 21 22  1  0  0  0
 21 23  1  0  0  0
  8  9  2  0  0  0
 26 30  1  0  0  0
 30 31  1  0  0  0
 31 32  1  0  0  0
 32 33  1  0  0  0
 33 34  1  0  0  0
 34 35  1  0  0  0
 33 36  1  0  0  0
 36 37  1  0  0  0
 37 38  1  0  0  0
 38 39  1  0  0  0
 39 40  1  0  0  0
 39 41  1  0  0  0
 41 42  1  0  0  0
 29 24  1  0  0  0
  9  3  1  0  0  0
 35 30  1  0  0  0
 42 36  1  0  0  0
 17 12  1  0  0  0
  1  2  1  0  0  0
 10 11  1  0  0  0
M  END
> <minimizedAffinity>
-8.00919

> <CNNscore>
0.5147708654

> <CNNaffinity>
7.7299895287

> <CNN_VS>
3.9791734219

> <CNNaffinity_variance>
0.0744245499

$$$$
[H]c1nc(N([H])c2c([H])c([H])c(C(=O)N([H])C3([H])C([H])([H])C([H])([H])N(C([H])([H])[H])C([H])([H])C3([H])[H])c([H])c2OC([H])([H])[H])nc2c1N(C([H])([H])[H])C(=O)[C@@]([H])(C([H])([H])C([H])([H])[H])N2C1([H])C([H])([H])C([H])([H])C([H])([H])C1([H])[H]


 40 44  0  0  0  0  0  0  0  0999 V2000
   55.0362   -3.3121  -10.0662 N   0  0  0  0  0  0  0  0  0  0  0  0
   55.0228   -2.7203  -10.9717 H   0  0  0  0  0  0  0  0  0  0  0  0
   51.6123   -5.5497   -5.6993 C   0  0  0  0  0  0  0  0  0  0  0  0
   52.8994   -5.1746   -6.1901 N   0  0  0  0  0  0  0  0  0  0  0  0
   52.8643   -4.2394   -7.2730 C   0  0  0  0  0  0  0  0  0  0  0  0
   53.8276   -4.0957   -8.1617 N   0  0  0  0  0  0  0  0  0  0  0  0
   53.8726   -3.2494   -9.2359 C   0  0  0  0  0  0  0  0  0  0  0  0
   52.8175   -2.4841   -9.3950 N   0  0  0  0  0  0  0  0  0  0  0  0
   51.7713   -2.5264   -8.5699 C   0  0  0  0  0  0  0  0  0  0  0  0
   51.7628   -3.3931   -7.4979 C   0  0  0  0  0  0  0  0  0  0  0  0
   50.6357   -3.4392   -6.6524 N   0  0  0  0  0  0  0  0  0  0  0  0
   49.4601   -2.5829   -6.8273 C   0  0  0  0  0  0  0  0  0  0  0  0
   50.7146   -4.3837   -5.6001 C   0  0  0  0  0  0  0  0  0  0  0  0
   49.9615   -4.1292   -4.5960 O   0  0  0  0  0  0  0  0  0  0  0  0
   54.1833   -5.6103   -5.8111 C   0  0  0  0  0  0  0  0  0  0  0  0
   54.6038   -5.6395   -4.4151 C   0  0  0  0  0  0  0  0  0  0  0  0
   54.5372   -7.1295   -3.9730 C   0  0  0  0  0  0  0  0  0  0  0  0
   55.2603   -7.7019   -5.1722 C   0  0  0  0  0  0  0  0  0  0  0  0
   54.5267   -6.9862   -6.3325 C   0  0  0  0  0  0  0  0  0  0  0  0
   51.0383   -6.9540   -7.7287 C   0  0  0  0  0  0  0  0  0  0  0  0
   50.8435   -6.6438   -6.2546 C   0  0  0  0  0  0  0  0  0  0  0  0
   56.1962   -4.0581   -9.8477 C   0  0  0  0  0  0  0  0  0  0  0  0
   56.6282   -4.4655   -8.6032 C   0  0  0  0  0  0  0  0  0  0  0  0
   57.8230   -5.1735   -8.4943 C   0  0  0  0  0  0  0  0  0  0  0  0
   58.6072   -5.4933   -9.5760 C   0  0  0  0  0  0  0  0  0  0  0  0
   58.1437   -5.0746  -10.7962 C   0  0  0  0  0  0  0  0  0  0  0  0
   56.9874   -4.3801  -10.9746 C   0  0  0  0  0  0  0  0  0  0  0  0
   59.8508   -6.1807   -9.3993 C   0  0  0  0  0  0  0  0  0  0  0  0
   60.5294   -6.5076  -10.4039 O   0  0  0  0  0  0  0  0  0  0  0  0
   60.3395   -6.5085   -8.1224 N   0  0  0  0  0  0  0  0  0  0  0  0
   59.8070   -6.2405   -7.2697 H   0  0  0  0  0  0  0  0  0  0  0  0
   61.5854   -7.2216   -7.8996 C   0  0  0  0  0  0  0  0  0  0  0  0
   62.8042   -6.3743   -8.0464 C   0  0  0  0  0  0  0  0  0  0  0  0
   64.0043   -7.2910   -7.9451 C   0  0  0  0  0  0  0  0  0  0  0  0
   63.8110   -8.3524   -7.0167 N   0  0  0  0  0  0  0  0  0  0  0  0
   63.4951   -9.6299   -7.6096 C   0  0  0  0  0  0  0  0  0  0  0  0
   62.8868   -8.0771   -5.9526 C   0  0  0  0  0  0  0  0  0  0  0  0
   61.5144   -7.7685   -6.4928 C   0  0  0  0  0  0  0  0  0  0  0  0
   56.5473   -3.9710  -12.2235 O   0  0  0  0  0  0  0  0  0  0  0  0
   57.3924   -3.8112  -13.3233 C   0  0  0  0  0  0  0  0  0  0  0  0
 20 21  1  0  0  0
 21  3  1  0  0  0
  3  4  1  0  0  0
  4 15  1  0  0  0
 15 16  1  0  0  0
 16 17  1  0  0  0
 17 18  1  0  0  0
 18 19  1  0  0  0
  4  5  1  0  0  0
  5  6  2  0  0  0
  6  7  1  0  0  0
  7  1  1  0  0  0
  1 22  1  0  0  0
 22 23  2  0  0  0
 23 24  1  0  0  0
 24 25  2  0  0  0
 25 26  1  0  0  0
 26 27  2  0  0  0
 27 39  1  0  0  0
 39 40  1  0  0  0
 25 28  1  0  0  0
 28 29  2  0  0  0
 28 30  1  0  0  0
 30 32  1  0  0  0
 32 33  1  0  0  0
 33 34  1  0  0  0
 34 35  1  0  0  0
 35 36  1  0  0  0
 35 37  1  0  0  0
 37 38  1  0  0  0
  7  8  2  0  0  0
  8  9  1  0  0  0
  9 10  2  0  0  0
 10 11  1  0  0  0
 11 12  1  0  0  0
 11 13  1  0  0  0
 13 14  2  0  0  0
 13  3  1  0  0  0
 19 15  1  0  0  0
 10  5  1  0  0  0
 27 22  1  0  0  0
 38 32  1  0  0  0
  1  2  1  0  0  0
 30 31  1  0  0  0
M  END
> <minimizedAffinity>
-10.84795

> <CNNscore>
0.9820373654

> <CNNaffinity>
8.3111276627

> <CNN_VS>
8.1618375778

> <CNNaffinity_variance>
0.0258199014

$$$$
[H]c1nc(N([H])c2c([H])c([H])c(C(=O)N([H])C3([H])C([H])([H])C([H])([H])N(C([H])([H])[H])C([H])([H])C3([H])[H])c([H])c2OC([H])([H])[H])nc2c1N(C([H])([H])[H])C(=O)[C@@]([H])(C([H])([H])C([H])([H])[H])N2C1([H])C([H])([H])C([H])([H])C([H])([H])C1([H])[H]


 40 44  0  0  0  0  0  0  0  0999 V2000
   54.6076   -2.8951   -9.7401 N   0  0  0  0  0  0  0  0  0  0  0  0
   54.5962   -2.1124  -10.4868 H   0  0  0  0  0  0  0  0  0  0  0  0
   51.4404   -5.7710   -5.5571 C   0  0  0  0  0  0  0  0  0  0  0  0
   52.6890   -5.2674   -6.0321 N   0  0  0  0  0  0  0  0  0  0  0  0
   52.5689   -4.2331   -7.0140 C   0  0  0  0  0  0  0  0  0  0  0  0
   53.4985   -3.9402   -7.9018 N   0  0  0  0  0  0  0  0  0  0  0  0
   53.4639   -2.9900   -8.8856 C   0  0  0  0  0  0  0  0  0  0  0  0
   52.3599   -2.2815   -8.9464 N   0  0  0  0  0  0  0  0  0  0  0  0
   51.3397   -2.4726   -8.1099 C   0  0  0  0  0  0  0  0  0  0  0  0
   51.4118   -3.4407   -7.1311 C   0  0  0  0  0  0  0  0  0  0  0  0
   50.3116   -3.6428   -6.2732 N   0  0  0  0  0  0  0  0  0  0  0  0
   49.0814   -2.8501   -6.3381 C   0  0  0  0  0  0  0  0  0  0  0  0
   50.4753   -4.6805   -5.3234 C   0  0  0  0  0  0  0  0  0  0  0  0
   49.7338   -4.5759   -4.2845 O   0  0  0  0  0  0  0  0  0  0  0  0
   54.0065   -5.6558   -5.7237 C   0  0  0  0  0  0  0  0  0  0  0  0
   54.4660   -5.7887   -4.3460 C   0  0  0  0  0  0  0  0  0  0  0  0
   54.5007   -7.3146   -4.0455 C   0  0  0  0  0  0  0  0  0  0  0  0
   55.2239   -7.7267   -5.3088 C   0  0  0  0  0  0  0  0  0  0  0  0
   54.4175   -6.9531   -6.3802 C   0  0  0  0  0  0  0  0  0  0  0  0
   50.8964   -6.9950   -7.7080 C   0  0  0  0  0  0  0  0  0  0  0  0
   50.7266   -6.8512   -6.2055 C   0  0  0  0  0  0  0  0  0  0  0  0
   55.7457   -3.7041   -9.7286 C   0  0  0  0  0  0  0  0  0  0  0  0
   56.2394   -4.3567  -10.8385 C   0  0  0  0  0  0  0  0  0  0  0  0
   57.3612   -5.1721  -10.7072 C   0  0  0  0  0  0  0  0  0  0  0  0
   58.0134   -5.3648   -9.5135 C   0  0  0  0  0  0  0  0  0  0  0  0
   57.4959   -4.6973   -8.4339 C   0  0  0  0  0  0  0  0  0  0  0  0
   56.4046   -3.8866   -8.4909 C   0  0  0  0  0  0  0  0  0  0  0  0
   59.1331   -6.2532   -9.4278 C   0  0  0  0  0  0  0  0  0  0  0  0
   59.1709   -7.2783  -10.1519 O   0  0  0  0  0  0  0  0  0  0  0  0
   60.2014   -6.0134   -8.5458 N   0  0  0  0  0  0  0  0  0  0  0  0
   60.2059   -5.1664   -7.9416 H   0  0  0  0  0  0  0  0  0  0  0  0
   61.3460   -6.8984   -8.4136 C   0  0  0  0  0  0  0  0  0  0  0  0
   62.6580   -6.2354   -8.6663 C   0  0  0  0  0  0  0  0  0  0  0  0
   63.7184   -7.3152   -8.6492 C   0  0  0  0  0  0  0  0  0  0  0  0
   63.4496   -8.3373   -7.6959 N   0  0  0  0  0  0  0  0  0  0  0  0
   62.9074   -9.5564   -8.2468 C   0  0  0  0  0  0  0  0  0  0  0  0
   62.6624   -7.9315   -6.5655 C   0  0  0  0  0  0  0  0  0  0  0  0
   61.3098   -7.4288   -6.9992 C   0  0  0  0  0  0  0  0  0  0  0  0
   55.9065   -3.2261   -7.3790 O   0  0  0  0  0  0  0  0  0  0  0  0
   56.4752   -3.3221   -6.1075 C   0  0  0  0  0  0  0  0  0  0  0  0
 20 21  1  0  0  0
 21  3  1  0  0  0
  3  4  1  0  0  0
  4 15  1  0  0  0
 15 16  1  0  0  0
 16 17  1  0  0  0
 17 18  1  0  0  0
 18 19  1  0  0  0
  4  5  1  0  0  0
  5  6  2  0  0  0
  6  7  1  0  0  0
  7  1  1  0  0  0
  1 22  1  0  0  0
 22 23  2  0  0  0
 23 24  1  0  0  0
 24 25  2  0  0  0
 25 26  1  0  0  0
 26 27  2  0  0  0
 27 39  1  0  0  0
 39 40  1  0  0  0
 25 28  1  0  0  0
 28 29  2  0  0  0
 28 30  1  0  0  0
 30 32  1  0  0  0
 32 33  1  0  0  0
 33 34  1  0  0  0
 34 35  1  0  0  0
 35 36  1  0  0  0
 35 37  1  0  0  0
 37 38  1  0  0  0
  7  8  2  0  0  0
  8  9  1  0  0  0
  9 10  2  0  0  0
 10 11  1  0  0  0
 11 12  1  0  0  0
 11 13  1  0  0  0
 13 14  2  0  0  0
 13  3  1  0  0  0
 19 15  1  0  0  0
 10  5  1  0  0  0
 27 22  1  0  0  0
 38 32  1  0  0  0
  1  2  1  0  0  0
 30 31  1  0  0  0
M  END
> <minimizedAffinity>
-9.36374

> <CNNscore>
0.8710751534

> <CNNaffinity>
8.1366300583

> <CNN_VS>
7.0876164436

> <CNNaffinity_variance>
0.0747319385

$$$$
[H]c1nc(N([H])c2c([H])c([H])c(C(=O)N([H])C3([H])C([H])([H])C([H])([H])N(C([H])([H])[H])C([H])([H])C3([H])[H])c([H])c2OC([H])([H])[H])nc2c1N(C([H])([H])[H])C(=O)[C@@]([H])(C([H])([H])C([H])([H])[H])N2C1([H])C([H])([H])C([H])([H])C([H])([H])C1([H])[H]


 40 44  0  0  0  0  0  0  0  0999 V2000
   55.3881   -3.5534  -10.2243 N   0  0  0  0  0  0  0  0  0  0  0  0
   55.3546   -3.0771  -11.1950 H   0  0  0  0  0  0  0  0  0  0  0  0
   51.8613   -5.6681   -5.8781 C   0  0  0  0  0  0  0  0  0  0  0  0
   53.1606   -5.3127   -6.3511 N   0  0  0  0  0  0  0  0  0  0  0  0
   53.1539   -4.4024   -7.4555 C   0  0  0  0  0  0  0  0  0  0  0  0
   54.1359   -4.2852   -8.3274 N   0  0  0  0  0  0  0  0  0  0  0  0
   54.2085   -3.4641   -9.4195 C   0  0  0  0  0  0  0  0  0  0  0  0
   53.1621   -2.6958   -9.6174 N   0  0  0  0  0  0  0  0  0  0  0  0
   52.0992   -2.7124   -8.8131 C   0  0  0  0  0  0  0  0  0  0  0  0
   52.0630   -3.5543   -7.7220 C   0  0  0  0  0  0  0  0  0  0  0  0
   50.9187   -3.5738   -6.8988 N   0  0  0  0  0  0  0  0  0  0  0  0
   49.7529   -2.7141   -7.1170 C   0  0  0  0  0  0  0  0  0  0  0  0
   50.9699   -4.4944   -5.8238 C   0  0  0  0  0  0  0  0  0  0  0  0
   50.1984   -4.2120   -4.8413 O   0  0  0  0  0  0  0  0  0  0  0  0
   54.4335   -5.7478   -5.9362 C   0  0  0  0  0  0  0  0  0  0  0  0
   54.8330   -5.7282   -4.5339 C   0  0  0  0  0  0  0  0  0  0  0  0
   54.7422   -7.1992   -4.0361 C   0  0  0  0  0  0  0  0  0  0  0  0
   55.4762   -7.8253   -5.2015 C   0  0  0  0  0  0  0  0  0  0  0  0
   54.7684   -7.1466   -6.3994 C   0  0  0  0  0  0  0  0  0  0  0  0
   51.2080   -7.0225   -7.9175 C   0  0  0  0  0  0  0  0  0  0  0  0
   51.0963   -6.7696   -6.4240 C   0  0  0  0  0  0  0  0  0  0  0  0
   56.5875   -4.1933   -9.9052 C   0  0  0  0  0  0  0  0  0  0  0  0
   57.3815   -4.8463  -10.8240 C   0  0  0  0  0  0  0  0  0  0  0  0
   58.5405   -5.4865  -10.3909 C   0  0  0  0  0  0  0  0  0  0  0  0
   58.9423   -5.5032   -9.0772 C   0  0  0  0  0  0  0  0  0  0  0  0
   58.1297   -4.8410   -8.1940 C   0  0  0  0  0  0  0  0  0  0  0  0
   56.9852   -4.1960   -8.5482 C   0  0  0  0  0  0  0  0  0  0  0  0
   60.1177   -6.2190   -8.6818 C   0  0  0  0  0  0  0  0  0  0  0  0
   61.1531   -5.5857   -8.3599 O   0  0  0  0  0  0  0  0  0  0  0  0
   60.1508   -7.6241   -8.6460 N   0  0  0  0  0  0  0  0  0  0  0  0
   59.3058   -8.1775   -8.8948 H   0  0  0  0  0  0  0  0  0  0  0  0
   61.3274   -8.3889   -8.2699 C   0  0  0  0  0  0  0  0  0  0  0  0
   61.2859   -8.9201   -6.8768 C   0  0  0  0  0  0  0  0  0  0  0  0
   62.6354   -9.5440   -6.5928 C   0  0  0  0  0  0  0  0  0  0  0  0
   63.1980  -10.1843   -7.7327 N   0  0  0  0  0  0  0  0  0  0  0  0
   64.2297   -9.4324   -8.4061 C   0  0  0  0  0  0  0  0  0  0  0  0
   62.2495  -10.6655   -8.6976 C   0  0  0  0  0  0  0  0  0  0  0  0
   61.4162   -9.5372   -9.2481 C   0  0  0  0  0  0  0  0  0  0  0  0
   56.1854   -3.5356   -7.6290 O   0  0  0  0  0  0  0  0  0  0  0  0
   56.6068   -3.2038   -6.3399 C   0  0  0  0  0  0  0  0  0  0  0  0
 20 21  1  0  0  0
 21  3  1  0  0  0
  3  4  1  0  0  0
  4 15  1  0  0  0
 15 16  1  0  0  0
 16 17  1  0  0  0
 17 18  1  0  0  0
 18 19  1  0  0  0
  4  5  1  0  0  0
  5  6  2  0  0  0
  6  7  1  0  0  0
  7  1  1  0  0  0
  1 22  1  0  0  0
 22 23  2  0  0  0
 23 24  1  0  0  0
 24 25  2  0  0  0
 25 26  1  0  0  0
 26 27  2  0  0  0
 27 39  1  0  0  0
 39 40  1  0  0  0
 25 28  1  0  0  0
 28 29  2  0  0  0
 28 30  1  0  0  0
 30 32  1  0  0  0
 32 33  1  0  0  0
 33 34  1  0  0  0
 34 35  1  0  0  0
 35 36  1  0  0  0
 35 37  1  0  0  0
 37 38  1  0  0  0
  7  8  2  0  0  0
  8  9  1  0  0  0
  9 10  2  0  0  0
 10 11  1  0  0  0
 11 12  1  0  0  0
 11 13  1  0  0  0
 13 14  2  0  0  0
 13  3  1  0  0  0
 19 15  1  0  0  0
 10  5  1  0  0  0
 27 22  1  0  0  0
 38 32  1  0  0  0
  1  2  1  0  0  0
 30 31  1  0  0  0
M  END
> <minimizedAffinity>
-7.92711

> <CNNscore>
0.8131710887

> <CNNaffinity>
7.9528455734

> <CNN_VS>
6.4670243263

> <CNNaffinity_variance>
0.1256693453

$$$$
[H]c1nc(N([H])c2c([H])c([H])c(C(=O)N([H])C3([H])C([H])([H])C([H])([H])N(C([H])([H])[H])C([H])([H])C3([H])[H])c([H])c2OC([H])([H])[H])nc2c1N(C([H])([H])[H])C(=O)[C@@]([H])(C([H])([H])C([H])([H])[H])N2C1([H])C([H])([H])C([H])([H])C([H])([H])C1([H])[H]


 40 44  0  0  0  0  0  0  0  0999 V2000
   55.7801   -4.7687   -8.8665 N   0  0  0  0  0  0  0  0  0  0  0  0
   56.3328   -5.4129   -8.1959 H   0  0  0  0  0  0  0  0  0  0  0  0
   50.8498   -5.3974   -5.5353 C   0  0  0  0  0  0  0  0  0  0  0  0
   52.2707   -5.4562   -5.6619 N   0  0  0  0  0  0  0  0  0  0  0  0
   52.7940   -4.6956   -6.7556 C   0  0  0  0  0  0  0  0  0  0  0  0
   53.9492   -4.9377   -7.3431 N   0  0  0  0  0  0  0  0  0  0  0  0
   54.5173   -4.2827   -8.4015 C   0  0  0  0  0  0  0  0  0  0  0  0
   53.8164   -3.2848   -8.8888 N   0  0  0  0  0  0  0  0  0  0  0  0
   52.6314   -2.9316   -8.3906 C   0  0  0  0  0  0  0  0  0  0  0  0
   52.0913   -3.6164   -7.3229 C   0  0  0  0  0  0  0  0  0  0  0  0
   50.8256   -3.2421   -6.8278 N   0  0  0  0  0  0  0  0  0  0  0  0
   50.0451   -2.1266   -7.3685 C   0  0  0  0  0  0  0  0  0  0  0  0
   50.3477   -4.0275   -5.7505 C   0  0  0  0  0  0  0  0  0  0  0  0
   49.4754   -3.4485   -5.0128 O   0  0  0  0  0  0  0  0  0  0  0  0
   53.2245   -6.1740   -4.9158 C   0  0  0  0  0  0  0  0  0  0  0  0
   54.4857   -5.5720   -4.4990 C   0  0  0  0  0  0  0  0  0  0  0  0
   54.3265   -5.2327   -2.9892 C   0  0  0  0  0  0  0  0  0  0  0  0
   53.7513   -6.5670   -2.5682 C   0  0  0  0  0  0  0  0  0  0  0  0
   52.6633   -6.7774   -3.6493 C   0  0  0  0  0  0  0  0  0  0  0  0
   50.5027   -7.0134   -7.4558 C   0  0  0  0  0  0  0  0  0  0  0  0
   49.9572   -6.3014   -6.2300 C   0  0  0  0  0  0  0  0  0  0  0  0
   56.3929   -4.5034  -10.0929 C   0  0  0  0  0  0  0  0  0  0  0  0
   55.7388   -3.9671  -11.1819 C   0  0  0  0  0  0  0  0  0  0  0  0
   56.4374   -3.7791  -12.3723 C   0  0  0  0  0  0  0  0  0  0  0  0
   57.7638   -4.1038  -12.5234 C   0  0  0  0  0  0  0  0  0  0  0  0
   58.3808   -4.6310  -11.4187 C   0  0  0  0  0  0  0  0  0  0  0  0
   57.7594   -4.8414  -10.2268 C   0  0  0  0  0  0  0  0  0  0  0  0
   58.4184   -3.9339  -13.7856 C   0  0  0  0  0  0  0  0  0  0  0  0
   57.7665   -4.0781  -14.8490 O   0  0  0  0  0  0  0  0  0  0  0  0
   59.7841   -3.6113  -13.8727 N   0  0  0  0  0  0  0  0  0  0  0  0
   60.3488   -3.4729  -13.0100 H   0  0  0  0  0  0  0  0  0  0  0  0
   60.4907   -3.4494  -15.1317 C   0  0  0  0  0  0  0  0  0  0  0  0
   59.9040   -2.4113  -16.0277 C   0  0  0  0  0  0  0  0  0  0  0  0
   60.6476   -2.4808  -17.3442 C   0  0  0  0  0  0  0  0  0  0  0  0
   62.0285   -2.7851  -17.1824 N   0  0  0  0  0  0  0  0  0  0  0  0
   62.3872   -4.1547  -17.4634 C   0  0  0  0  0  0  0  0  0  0  0  0
   62.6020   -2.3882  -15.9271 C   0  0  0  0  0  0  0  0  0  0  0  0
   61.9089   -3.0686  -14.7751 C   0  0  0  0  0  0  0  0  0  0  0  0
   58.4131   -5.3772   -9.1284 O   0  0  0  0  0  0  0  0  0  0  0  0
   59.6978   -5.9209   -9.1868 C   0  0  0  0  0  0  0  0  0  0  0  0
 20 21  1  0  0  0
 21  3  1  0  0  0
  3  4  1  0  0  0
  4 15  1  0  0  0
 15 16  1  0  0  0
 16 17  1  0  0  0
 17 18  1  0  0  0
 18 19  1  0  0  0
  4  5  1  0  0  0
  5  6  2  0  0  0
  6  7  1  0  0  0
  7  1  1  0  0  0
  1 22  1  0  0  0
 22 23  2  0  0  0
 23 24  1  0  0  0
 24 25  2  0  0  0
 25 26  1  0  0  0
 26 27  2  0  0  0
 27 39  1  0  0  0
 39 40  1  0  0  0
 25 28  1  0  0  0
 28 29  2  0  0  0
 28 30  1  0  0  0
 30 32  1  0  0  0
 32 33  1  0  0  0
 33 34  1  0  0  0
 34 35  1  0  0  0
 35 36  1  0  0  0
 35 37  1  0  0  0
 37 38  1  0  0  0
  7  8  2  0  0  0
  8  9  1  0  0  0
  9 10  2  0  0  0
 10 11  1  0  0  0
 11 12  1  0  0  0
 11 13  1  0  0  0
 13 14  2  0  0  0
 13  3  1  0  0  0
 19 15  1  0  0  0
 10  5  1  0  0  0
 27 22  1  0  0  0
 38 32  1  0  0  0
  1  2  1  0  0  0
 30 31  1  0  0  0
M  END
> <minimizedAffinity>
-8.78846

> <CNNscore>
0.6744189858

> <CNNaffinity>
7.6139106750

> <CNN_VS>
5.1349658966

> <CNNaffinity_variance>
0.2139286697

$$$$
[H]c1nc(N([H])c2c([H])c([H])c(C(=O)N([H])C3([H])C([H])([H])C([H])([H])N(C([H])([H])[H])C([H])([H])C3([H])[H])c([H])c2OC([H])([H])[H])nc2c1N(C([H])([H])[H])C(=O)[C@@]([H])(C([H])([H])C([H])([H])[H])N2C1([H])C([H])([H])C([H])([H])C([H])([H])C1([H])[H]


 40 44  0  0  0  0  0  0  0  0999 V2000
   54.8503   -4.1205   -8.8289 N   0  0  0  0  0  0  0  0  0  0  0  0
   54.5477   -3.4144   -9.5905 H   0  0  0  0  0  0  0  0  0  0  0  0
   53.4775   -6.4129   -3.4753 C   0  0  0  0  0  0  0  0  0  0  0  0
   54.3228   -5.6023   -4.2919 N   0  0  0  0  0  0  0  0  0  0  0  0
   53.7160   -5.1662   -5.5125 C   0  0  0  0  0  0  0  0  0  0  0  0
   54.3870   -4.8206   -6.5935 N   0  0  0  0  0  0  0  0  0  0  0  0
   53.8959   -4.4145   -7.8042 C   0  0  0  0  0  0  0  0  0  0  0  0
   52.5867   -4.3636   -7.8930 N   0  0  0  0  0  0  0  0  0  0  0  0
   51.7870   -4.6860   -6.8763 C   0  0  0  0  0  0  0  0  0  0  0  0
   52.3197   -5.0912   -5.6711 C   0  0  0  0  0  0  0  0  0  0  0  0
   51.4555   -5.4515   -4.6171 N   0  0  0  0  0  0  0  0  0  0  0  0
   49.9951   -5.3911   -4.7144 C   0  0  0  0  0  0  0  0  0  0  0  0
   52.1022   -5.8820   -3.4329 C   0  0  0  0  0  0  0  0  0  0  0  0
   51.4009   -5.7638   -2.3679 O   0  0  0  0  0  0  0  0  0  0  0  0
   55.6613   -5.2064   -4.1090 C   0  0  0  0  0  0  0  0  0  0  0  0
   56.0965   -4.4990   -2.9103 C   0  0  0  0  0  0  0  0  0  0  0  0
   56.8330   -5.5491   -2.0301 C   0  0  0  0  0  0  0  0  0  0  0  0
   57.6950   -6.1280   -3.1303 C   0  0  0  0  0  0  0  0  0  0  0  0
   56.6464   -6.3436   -4.2487 C   0  0  0  0  0  0  0  0  0  0  0  0
   54.4559   -8.6892   -2.9447 C   0  0  0  0  0  0  0  0  0  0  0  0
   53.3839   -7.8507   -3.6191 C   0  0  0  0  0  0  0  0  0  0  0  0
   56.1365   -4.6461   -8.9675 C   0  0  0  0  0  0  0  0  0  0  0  0
   56.9175   -5.0627   -7.9102 C   0  0  0  0  0  0  0  0  0  0  0  0
   58.2043   -5.5356   -8.1578 C   0  0  0  0  0  0  0  0  0  0  0  0
   58.7466   -5.6111   -9.4178 C   0  0  0  0  0  0  0  0  0  0  0  0
   57.9395   -5.1914  -10.4432 C   0  0  0  0  0  0  0  0  0  0  0  0
   56.6750   -4.7187  -10.2729 C   0  0  0  0  0  0  0  0  0  0  0  0
   60.0929   -6.0600   -9.6081 C   0  0  0  0  0  0  0  0  0  0  0  0
   60.6486   -5.9054  -10.7234 O   0  0  0  0  0  0  0  0  0  0  0  0
   60.8189   -6.6790   -8.5754 N   0  0  0  0  0  0  0  0  0  0  0  0
   60.3911   -6.8104   -7.6362 H   0  0  0  0  0  0  0  0  0  0  0  0
   62.1786   -7.1662   -8.7319 C   0  0  0  0  0  0  0  0  0  0  0  0
   63.2217   -6.2253   -8.2304 C   0  0  0  0  0  0  0  0  0  0  0  0
   64.5683   -6.8024   -8.6105 C   0  0  0  0  0  0  0  0  0  0  0  0
   64.5986   -8.2237   -8.5418 N   0  0  0  0  0  0  0  0  0  0  0  0
   64.4944   -8.8972   -9.8143 C   0  0  0  0  0  0  0  0  0  0  0  0
   63.6775   -8.8136   -7.6114 C   0  0  0  0  0  0  0  0  0  0  0  0
   62.2543   -8.4643   -7.9623 C   0  0  0  0  0  0  0  0  0  0  0  0
   55.8849   -4.3017  -11.3325 O   0  0  0  0  0  0  0  0  0  0  0  0
   56.3968   -3.9510  -12.5833 C   0  0  0  0  0  0  0  0  0  0  0  0
 20 21  1  0  0  0
 21  3  1  0  0  0
  3  4  1  0  0  0
  4 15  1  0  0  0
 15 16  1  0  0  0
 16 17  1  0  0  0
 17 18  1  0  0  0
 18 19  1  0  0  0
  4  5  1  0  0  0
  5  6  2  0  0  0
  6  7  1  0  0  0
  7  1  1  0  0  0
  1 22  1  0  0  0
 22 23  2  0  0  0
 23 24  1  0  0  0
 24 25  2  0  0  0
 25 26  1  0  0  0
 26 27  2  0  0  0
 27 39  1  0  0  0
 39 40  1  0  0  0
 25 28  1  0  0  0
 28 29  2  0  0  0
 28 30  1  0  0  0
 30 32  1  0  0  0
 32 33  1  0  0  0
 33 34  1  0  0  0
 34 35  1  0  0  0
 35 36  1  0  0  0
 35 37  1  0  0  0
 37 38  1  0  0  0
  7  8  2  0  0  0
  8  9  1  0  0  0
  9 10  2  0  0  0
 10 11  1  0  0  0
 11 12  1  0  0  0
 11 13  1  0  0  0
 13 14  2  0  0  0
 13  3  1  0  0  0
 19 15  1  0  0  0
 10  5  1  0  0  0
 27 22  1  0  0  0
 38 32  1  0  0  0
  1  2  1  0  0  0
 30 31  1  0  0  0
M  END
> <minimizedAffinity>
-7.97674

> <CNNscore>
0.3930553198

> <CNNaffinity>
7.3619155884

> <CNN_VS>
2.8936400414

> <CNNaffinity_variance>
0.1573012173

$$$$
[H]c1nc(N([H])c2c([H])c([H])c(C(=O)N([H])C3([H])C([H])([H])C([H])([H])N(C([H])([H])[H])C([H])([H])C3([H])[H])c([H])c2OC([H])([H])[H])nc2c1N(C([H])([H])[H])C(=O)[C@@]([H])(C([H])([H])C([H])([H])[H])N2C1([H])C([H])([H])C([H])([H])C([H])([H])C1([H])[H]


 40 44  0  0  0  0  0  0  0  0999 V2000
   56.1972   -5.1834  -11.5483 N   0  0  0  0  0  0  0  0  0  0  0  0
   56.0672   -6.2304  -11.7871 H   0  0  0  0  0  0  0  0  0  0  0  0
   52.4823   -5.1430   -6.8582 C   0  0  0  0  0  0  0  0  0  0  0  0
   53.7930   -5.3251   -7.3940 N   0  0  0  0  0  0  0  0  0  0  0  0
   53.9988   -4.7004   -8.6652 C   0  0  0  0  0  0  0  0  0  0  0  0
   54.9077   -5.0809   -9.5412 N   0  0  0  0  0  0  0  0  0  0  0  0
   55.1614   -4.5618  -10.7815 C   0  0  0  0  0  0  0  0  0  0  0  0
   54.3983   -3.5543  -11.1377 N   0  0  0  0  0  0  0  0  0  0  0  0
   53.4398   -3.0683  -10.3489 C   0  0  0  0  0  0  0  0  0  0  0  0
   53.2139   -3.6184   -9.1052 C   0  0  0  0  0  0  0  0  0  0  0  0
   52.1788   -3.1052   -8.2975 N   0  0  0  0  0  0  0  0  0  0  0  0
   51.3297   -1.9788   -8.6929 C   0  0  0  0  0  0  0  0  0  0  0  0
   52.0098   -3.7595   -7.0529 C   0  0  0  0  0  0  0  0  0  0  0  0
   51.4331   -3.0546   -6.1525 O   0  0  0  0  0  0  0  0  0  0  0  0
   54.8897   -6.0535   -6.8956 C   0  0  0  0  0  0  0  0  0  0  0  0
   56.0524   -5.3912   -6.3157 C   0  0  0  0  0  0  0  0  0  0  0  0
   55.9156   -5.5457   -4.7738 C   0  0  0  0  0  0  0  0  0  0  0  0
   55.5929   -7.0237   -4.7726 C   0  0  0  0  0  0  0  0  0  0  0  0
   54.5018   -7.0919   -5.8688 C   0  0  0  0  0  0  0  0  0  0  0  0
   51.6312   -7.1475   -8.1535 C   0  0  0  0  0  0  0  0  0  0  0  0
   51.3758   -6.0265   -7.1609 C   0  0  0  0  0  0  0  0  0  0  0  0
   57.3704   -4.5950  -12.0251 C   0  0  0  0  0  0  0  0  0  0  0  0
   58.5321   -4.4855  -11.2904 C   0  0  0  0  0  0  0  0  0  0  0  0
   59.6348   -3.8438  -11.8497 C   0  0  0  0  0  0  0  0  0  0  0  0
   59.6283   -3.3053  -13.1136 C   0  0  0  0  0  0  0  0  0  0  0  0
   58.4576   -3.4365  -13.8144 C   0  0  0  0  0  0  0  0  0  0  0  0
   57.3441   -4.0501  -13.3296 C   0  0  0  0  0  0  0  0  0  0  0  0
   60.7757   -2.6136  -13.6190 C   0  0  0  0  0  0  0  0  0  0  0  0
   60.8674   -1.3700  -13.4719 O   0  0  0  0  0  0  0  0  0  0  0  0
   61.8124   -3.2899  -14.2859 N   0  0  0  0  0  0  0  0  0  0  0  0
   61.7722   -4.3217  -14.4128 H   0  0  0  0  0  0  0  0  0  0  0  0
   62.9834   -2.6244  -14.8305 C   0  0  0  0  0  0  0  0  0  0  0  0
   64.2730   -3.0849  -14.2393 C   0  0  0  0  0  0  0  0  0  0  0  0
   65.3643   -2.1916  -14.7888 C   0  0  0  0  0  0  0  0  0  0  0  0
   65.1351   -1.8081  -16.1401 N   0  0  0  0  0  0  0  0  0  0  0  0
   64.6226   -0.4701  -16.3148 C   0  0  0  0  0  0  0  0  0  0  0  0
   64.3484   -2.7267  -16.9144 C   0  0  0  0  0  0  0  0  0  0  0  0
   62.9773   -2.9050  -16.3153 C   0  0  0  0  0  0  0  0  0  0  0  0
   56.1752   -4.1654  -14.0652 O   0  0  0  0  0  0  0  0  0  0  0  0
   55.9877   -3.5655  -15.3119 C   0  0  0  0  0  0  0  0  0  0  0  0
 20 21  1  0  0  0
 21  3  1  0  0  0
  3  4  1  0  0  0
  4 15  1  0  0  0
 15 16  1  0  0  0
 16 17  1  0  0  0
 17 18  1  0  0  0
 18 19  1  0  0  0
  4  5  1  0  0  0
  5  6  2  0  0  0
  6  7  1  0  0  0
  7  1  1  0  0  0
  1 22  1  0  0  0
 22 23  2  0  0  0
 23 24  1  0  0  0
 24 25  2  0  0  0
 25 26  1  0  0  0
 26 27  2  0  0  0
 27 39  1  0  0  0
 39 40  1  0  0  0
 25 28  1  0  0  0
 28 29  2  0  0  0
 28 30  1  0  0  0
 30 32  1  0  0  0
 32 33  1  0  0  0
 33 34  1  0  0  0
 34 35  1  0  0  0
 35 36  1  0  0  0
 35 37  1  0  0  0
 37 38  1  0  0  0
  7  8  2  0  0  0
  8  9  1  0  0  0
  9 10  2  0  0  0
 10 11  1  0  0  0
 11 12  1  0  0  0
 11 13  1  0  0  0
 13 14  2  0  0  0
 13  3  1  0  0  0
 19 15  1  0  0  0
 10  5  1  0  0  0
 27 22  1  0  0  0
 38 32  1  0  0  0
  1  2  1  0  0  0
 30 31  1  0  0  0
M  END
> <minimizedAffinity>
-1.27650

> <CNNscore>
0.3915135264

> <CNNaffinity>
6.6853132248

> <CNN_VS>
2.6173906326

> <CNNaffinity_variance>
0.3583059907

$$$$
[H]c1nc(N([H])c2c([H])c([H])c(C(=O)N([H])C3([H])C([H])([H])C([H])([H])N(C([H])([H])[H])C([H])([H])C3([H])[H])c([H])c2OC([H])([H])[H])nc2c1N(C([H])([H])[H])C(=O)[C@@]([H])(C([H])([H])C([H])([H])[H])N2C1([H])C([H])([H])C([H])([H])C([H])([H])C1([H])[H]


 40 44  0  0  0  0  0  0  0  0999 V2000
   60.0608   -7.8981   -5.0544 N   0  0  0  0  0  0  0  0  0  0  0  0
   60.6136   -8.4811   -4.3300 H   0  0  0  0  0  0  0  0  0  0  0  0
   55.7582   -7.2057   -0.9546 C   0  0  0  0  0  0  0  0  0  0  0  0
   57.1420   -7.3267   -1.2844 N   0  0  0  0  0  0  0  0  0  0  0  0
   57.4484   -7.0220   -2.6489 C   0  0  0  0  0  0  0  0  0  0  0  0
   58.5055   -7.4770   -3.2921 N   0  0  0  0  0  0  0  0  0  0  0  0
   58.8666   -7.2586   -4.5937 C   0  0  0  0  0  0  0  0  0  0  0  0
   58.0512   -6.4955   -5.2844 N   0  0  0  0  0  0  0  0  0  0  0  0
   56.9454   -5.9689   -4.7582 C   0  0  0  0  0  0  0  0  0  0  0  0
   56.6147   -6.2121   -3.4421 C   0  0  0  0  0  0  0  0  0  0  0  0
   55.4277   -5.6657   -2.9130 N   0  0  0  0  0  0  0  0  0  0  0  0
   54.5197   -4.8112   -3.6820 C   0  0  0  0  0  0  0  0  0  0  0  0
   55.1646   -6.0001   -1.5622 C   0  0  0  0  0  0  0  0  0  0  0  0
   54.3947   -5.1807   -0.9490 O   0  0  0  0  0  0  0  0  0  0  0  0
   58.2350   -7.7386   -0.4986 C   0  0  0  0  0  0  0  0  0  0  0  0
   59.2215   -8.6916   -0.9936 C   0  0  0  0  0  0  0  0  0  0  0  0
   60.4782   -7.8573   -1.3738 C   0  0  0  0  0  0  0  0  0  0  0  0
   60.5361   -7.0369   -0.1040 C   0  0  0  0  0  0  0  0  0  0  0  0
   59.0604   -6.5881    0.0288 C   0  0  0  0  0  0  0  0  0  0  0  0
   54.2581   -8.9284    0.1420 C   0  0  0  0  0  0  0  0  0  0  0  0
   54.8098   -8.2873   -1.1197 C   0  0  0  0  0  0  0  0  0  0  0  0
   60.6061   -7.8544   -6.3391 C   0  0  0  0  0  0  0  0  0  0  0  0
   60.2138   -6.9610   -7.3135 C   0  0  0  0  0  0  0  0  0  0  0  0
   60.7971   -7.0301   -8.5767 C   0  0  0  0  0  0  0  0  0  0  0  0
   61.7573   -7.9542   -8.9103 C   0  0  0  0  0  0  0  0  0  0  0  0
   62.1238   -8.8229   -7.9153 C   0  0  0  0  0  0  0  0  0  0  0  0
   61.5956   -8.8117   -6.6615 C   0  0  0  0  0  0  0  0  0  0  0  0
   62.2870   -8.0102  -10.2395 C   0  0  0  0  0  0  0  0  0  0  0  0
   61.8424   -8.8587  -11.0513 O   0  0  0  0  0  0  0  0  0  0  0  0
   63.3032   -7.1381  -10.6678 N   0  0  0  0  0  0  0  0  0  0  0  0
   63.6839   -6.4157  -10.0231 H   0  0  0  0  0  0  0  0  0  0  0  0
   63.8816   -7.1739  -12.0001 C   0  0  0  0  0  0  0  0  0  0  0  0
   63.0558   -6.4925  -13.0386 C   0  0  0  0  0  0  0  0  0  0  0  0
   63.7088   -6.7578  -14.3780 C   0  0  0  0  0  0  0  0  0  0  0  0
   65.1298   -6.7868  -14.3030 N   0  0  0  0  0  0  0  0  0  0  0  0
   65.7127   -8.1073  -14.3037 C   0  0  0  0  0  0  0  0  0  0  0  0
   65.7048   -6.0105  -13.2404 C   0  0  0  0  0  0  0  0  0  0  0  0
   65.2272   -6.4944  -11.8957 C   0  0  0  0  0  0  0  0  0  0  0  0
   61.9887   -9.7053   -5.6778 O   0  0  0  0  0  0  0  0  0  0  0  0
   63.1141   -9.5183   -4.8728 C   0  0  0  0  0  0  0  0  0  0  0  0
 20 21  1  0  0  0
 21  3  1  0  0  0
  3  4  1  0  0  0
  4 15  1  0  0  0
 15 16  1  0  0  0
 16 17  1  0  0  0
 17 18  1  0  0  0
 18 19  1  0  0  0
  4  5  1  0  0  0
  5  6  2  0  0  0
  6  7  1  0  0  0
  7  1  1  0  0  0
  1 22  1  0  0  0
 22 23  2  0  0  0
 23 24  1  0  0  0
 24 25  2  0  0  0
 25 26  1  0  0  0
 26 27  2  0  0  0
 27 39  1  0  0  0
 39 40  1  0  0  0
 25 28  1  0  0  0
 28 29  2  0  0  0
 28 30  1  0  0  0
 30 32  1  0  0  0
 32 33  1  0  0  0
 33 34  1  0  0  0
 34 35  1  0  0  0
 35 36  1  0  0  0
 35 37  1  0  0  0
 37 38  1  0  0  0
  7  8  2  0  0  0
  8  9  1  0  0  0
  9 10  2  0  0  0
 10 11  1  0  0  0
 11 12  1  0  0  0
 11 13  1  0  0  0
 13 14  2  0  0  0
 13  3  1  0  0  0
 19 15  1  0  0  0
 10  5  1  0  0  0
 27 22  1  0  0  0
 38 32  1  0  0  0
  1  2  1  0  0  0
 30 31  1  0  0  0
M  END
> <minimizedAffinity>
-0.62640

> <CNNscore>
0.3855249286

> <CNNaffinity>
6.0878582001

> <CNN_VS>
2.3470211029

> <CNNaffinity_variance>
1.6465753317

$$$$
[H]c1nc(N([H])c2c([H])c([H])c(C(=O)N([H])C3([H])C([H])([H])C([H])([H])N(C([H])([H])[H])C([H])([H])C3([H])[H])c([H])c2OC([H])([H])[H])nc2c1N(C([H])([H])[H])C(=O)[C@@]([H])(C([H])([H])C([H])([H])[H])N2C1([H])C([H])([H])C([H])([H])C([H])([H])C1([H])[H]


 40 44  0  0  0  0  0  0  0  0999 V2000
   57.9698   -5.9038   -4.5108 N   0  0  0  0  0  0  0  0  0  0  0  0
   58.1327   -4.8442   -4.6557 H   0  0  0  0  0  0  0  0  0  0  0  0
   62.1491  -10.1569   -4.0167 C   0  0  0  0  0  0  0  0  0  0  0  0
   60.8581   -9.6489   -3.6798 N   0  0  0  0  0  0  0  0  0  0  0  0
   60.3507   -8.6790   -4.6019 C   0  0  0  0  0  0  0  0  0  0  0  0
   59.4490   -7.7662   -4.2984 N   0  0  0  0  0  0  0  0  0  0  0  0
   58.9239   -6.7912   -5.1019 C   0  0  0  0  0  0  0  0  0  0  0  0
   59.3807   -6.7687   -6.3329 N   0  0  0  0  0  0  0  0  0  0  0  0
   60.2944   -7.6337   -6.7734 C   0  0  0  0  0  0  0  0  0  0  0  0
   60.8003   -8.6025   -5.9332 C   0  0  0  0  0  0  0  0  0  0  0  0
   61.7842   -9.4911   -6.4125 N   0  0  0  0  0  0  0  0  0  0  0  0
   62.2912   -9.4689   -7.7866 C   0  0  0  0  0  0  0  0  0  0  0  0
   62.2594  -10.4276   -5.4622 C   0  0  0  0  0  0  0  0  0  0  0  0
   62.7689  -11.4889   -5.9665 O   0  0  0  0  0  0  0  0  0  0  0  0
   60.0335   -9.9150   -2.5703 C   0  0  0  0  0  0  0  0  0  0  0  0
   60.5492   -9.8916   -1.2064 C   0  0  0  0  0  0  0  0  0  0  0  0
   60.0678   -8.5499   -0.5835 C   0  0  0  0  0  0  0  0  0  0  0  0
   58.6258   -8.6561   -1.0287 C   0  0  0  0  0  0  0  0  0  0  0  0
   58.8009   -9.0427   -2.5175 C   0  0  0  0  0  0  0  0  0  0  0  0
   63.5950   -8.0761   -4.0123 C   0  0  0  0  0  0  0  0  0  0  0  0
   63.3813   -9.5218   -3.5983 C   0  0  0  0  0  0  0  0  0  0  0  0
   56.8454   -6.2458   -3.7567 C   0  0  0  0  0  0  0  0  0  0  0  0
   56.7429   -6.0555   -2.3949 C   0  0  0  0  0  0  0  0  0  0  0  0
   55.5890   -6.4697   -1.7334 C   0  0  0  0  0  0  0  0  0  0  0  0
   54.5303   -7.0670   -2.3737 C   0  0  0  0  0  0  0  0  0  0  0  0
   54.6673   -7.2362   -3.7271 C   0  0  0  0  0  0  0  0  0  0  0  0
   55.7651   -6.8560   -4.4352 C   0  0  0  0  0  0  0  0  0  0  0  0
   53.3892   -7.5169   -1.6350 C   0  0  0  0  0  0  0  0  0  0  0  0
   53.1440   -7.0230   -0.5069 O   0  0  0  0  0  0  0  0  0  0  0  0
   52.5274   -8.5080   -2.1366 N   0  0  0  0  0  0  0  0  0  0  0  0
   52.6961   -8.9280   -3.0733 H   0  0  0  0  0  0  0  0  0  0  0  0
   51.3710   -9.0064   -1.4120 C   0  0  0  0  0  0  0  0  0  0  0  0
   50.4843   -7.9347   -0.8735 C   0  0  0  0  0  0  0  0  0  0  0  0
   49.4317   -8.6085   -0.0197 C   0  0  0  0  0  0  0  0  0  0  0  0
   49.0256   -9.8703   -0.5381 N   0  0  0  0  0  0  0  0  0  0  0  0
   49.6016  -11.0153    0.1258 C   0  0  0  0  0  0  0  0  0  0  0  0
   49.1612  -10.0229   -1.9595 C   0  0  0  0  0  0  0  0  0  0  0  0
   50.5971   -9.8625   -2.3873 C   0  0  0  0  0  0  0  0  0  0  0  0
   55.8717   -7.0422   -5.8044 O   0  0  0  0  0  0  0  0  0  0  0  0
   54.7713   -7.2204   -6.6451 C   0  0  0  0  0  0  0  0  0  0  0  0
 20 21  1  0  0  0
 21  3  1  0  0  0
  3  4  1  0  0  0
  4 15  1  0  0  0
 15 16  1  0  0  0
 16 17  1  0  0  0
 17 18  1  0  0  0
 18 19  1  0  0  0
  4  5  1  0  0  0
  5  6  2  0  0  0
  6  7  1  0  0  0
  7  1  1  0  0  0
  1 22  1  0  0  0
 22 23  2  0  0  0
 23 24  1  0  0  0
 24 25  2  0  0  0
 25 26  1  0  0  0
 26 27  2  0  0  0
 27 39  1  0  0  0
 39 40  1  0  0  0
 25 28  1  0  0  0
 28 29  2  0  0  0
 28 30  1  0  0  0
 30 32  1  0  0  0
 32 33  1  0  0  0
 33 34  1  0  0  0
 34 35  1  0  0  0
 35 36  1  0  0  0
 35 37  1  0  0  0
 37 38  1  0  0  0
  7  8  2  0  0  0
  8  9  1  0  0  0
  9 10  2  0  0  0
 10 11  1  0  0  0
 11 12  1  0  0  0
 11 13  1  0  0  0
 13 14  2  0  0  0
 13  3  1  0  0  0
 19 15  1  0  0  0
 10  5  1  0  0  0
 27 22  1  0  0  0
 38 32  1  0  0  0
  1  2  1  0  0  0
 30 31  1  0  0  0
M  END
> <minimizedAffinity>
3.26744

> <CNNscore>
0.3399033844

> <CNNaffinity>
6.1793799400

> <CNN_VS>
2.1003921032

> <CNNaffinity_variance>
1.3045041561

$$$$
[H]c1nc(N([H])c2c([H])c([H])c(C(=O)N([H])C3([H])C([H])([H])C([H])([H])N(C([H])([H])[H])C([H])([H])C3([H])[H])c([H])c2OC([H])([H])[H])nc2c1N(C([H])([H])[H])C(=O)[C@@]([H])(C([H])([H])C([H])([H])[H])N2C1([H])C([H])([H])C([H])([H])C([H])([H])C1([H])[H]


 40 44  0  0  0  0  0  0  0  0999 V2000
   54.5747   -4.0619  -10.9929 N   0  0  0  0  0  0  0  0  0  0  0  0
   53.7092   -3.8090  -11.5906 H   0  0  0  0  0  0  0  0  0  0  0  0
   57.9870   -3.7771  -15.8994 C   0  0  0  0  0  0  0  0  0  0  0  0
   56.8236   -3.3704  -15.1789 N   0  0  0  0  0  0  0  0  0  0  0  0
   56.9104   -3.5698  -13.7642 C   0  0  0  0  0  0  0  0  0  0  0  0
   55.8684   -3.7072  -12.9682 N   0  0  0  0  0  0  0  0  0  0  0  0
   55.8545   -3.9217  -11.6170 C   0  0  0  0  0  0  0  0  0  0  0  0
   57.0347   -3.9980  -11.0462 N   0  0  0  0  0  0  0  0  0  0  0  0
   58.1711   -3.8770  -11.7326 C   0  0  0  0  0  0  0  0  0  0  0  0
   58.1444   -3.6616  -13.0940 C   0  0  0  0  0  0  0  0  0  0  0  0
   59.3580   -3.5615  -13.8041 N   0  0  0  0  0  0  0  0  0  0  0  0
   60.6748   -3.6428  -13.1673 C   0  0  0  0  0  0  0  0  0  0  0  0
   59.2208   -3.3711  -15.2008 C   0  0  0  0  0  0  0  0  0  0  0  0
   60.2332   -2.8298  -15.7683 O   0  0  0  0  0  0  0  0  0  0  0  0
   55.5989   -2.8518  -15.6406 C   0  0  0  0  0  0  0  0  0  0  0  0
   55.5152   -1.5584  -16.3089 C   0  0  0  0  0  0  0  0  0  0  0  0
   55.3613   -1.8634  -17.8266 C   0  0  0  0  0  0  0  0  0  0  0  0
   54.2759   -2.9080  -17.6873 C   0  0  0  0  0  0  0  0  0  0  0  0
   54.8581   -3.7948  -16.5598 C   0  0  0  0  0  0  0  0  0  0  0  0
   58.6122   -5.2956  -17.8291 C   0  0  0  0  0  0  0  0  0  0  0  0
   58.1852   -5.1282  -16.3811 C   0  0  0  0  0  0  0  0  0  0  0  0
   54.3073   -4.4851   -9.6893 C   0  0  0  0  0  0  0  0  0  0  0  0
   53.8237   -5.7359   -9.3684 C   0  0  0  0  0  0  0  0  0  0  0  0
   53.5539   -6.0415   -8.0363 C   0  0  0  0  0  0  0  0  0  0  0  0
   53.7464   -5.1508   -7.0082 C   0  0  0  0  0  0  0  0  0  0  0  0
   54.2312   -3.9195   -7.3655 C   0  0  0  0  0  0  0  0  0  0  0  0
   54.5155   -3.5547   -8.6451 C   0  0  0  0  0  0  0  0  0  0  0  0
   53.4056   -5.5032   -5.6628 C   0  0  0  0  0  0  0  0  0  0  0  0
   52.2002   -5.6546   -5.3455 O   0  0  0  0  0  0  0  0  0  0  0  0
   54.3887   -5.6830   -4.6739 N   0  0  0  0  0  0  0  0  0  0  0  0
   55.3969   -5.5771   -4.9078 H   0  0  0  0  0  0  0  0  0  0  0  0
   54.0853   -6.0214   -3.2940 C   0  0  0  0  0  0  0  0  0  0  0  0
   54.1590   -4.8645   -2.3553 C   0  0  0  0  0  0  0  0  0  0  0  0
   53.9788   -5.4094   -0.9548 C   0  0  0  0  0  0  0  0  0  0  0  0
   53.0598   -6.4948   -0.8991 N   0  0  0  0  0  0  0  0  0  0  0  0
   53.6658   -7.8016   -0.8069 C   0  0  0  0  0  0  0  0  0  0  0  0
   52.0569   -6.5040   -1.9269 C   0  0  0  0  0  0  0  0  0  0  0  0
   52.6833   -6.5851   -3.2949 C   0  0  0  0  0  0  0  0  0  0  0  0
   55.0047   -2.3000   -8.9725 O   0  0  0  0  0  0  0  0  0  0  0  0
   54.3338   -1.1113   -8.6785 C   0  0  0  0  0  0  0  0  0  0  0  0
 20 21  1  0  0  0
 21  3  1  0  0  0
  3  4  1  0  0  0
  4 15  1  0  0  0
 15 16  1  0  0  0
 16 17  1  0  0  0
 17 18  1  0  0  0
 18 19  1  0  0  0
  4  5  1  0  0  0
  5  6  2  0  0  0
  6  7  1  0  0  0
  7  1  1  0  0  0
  1 22  1  0  0  0
 22 23  2  0  0  0
 23 24  1  0  0  0
 24 25  2  0  0  0
 25 26  1  0  0  0
 26 27  2  0  0  0
 27 39  1  0  0  0
 39 40  1  0  0  0
 25 28  1  0  0  0
 28 29  2  0  0  0
 28 30  1  0  0  0
 30 32  1  0  0  0
 32 33  1  0  0  0
 33 34  1  0  0  0
 34 35  1  0  0  0
 35 36  1  0  0  0
 35 37  1  0  0  0
 37 38  1  0  0  0
  7  8  2  0  0  0
  8  9  1  0  0  0
  9 10  2  0  0  0
 10 11  1  0  0  0
 11 12  1  0  0  0
 11 13  1  0  0  0
 13 14  2  0  0  0
 13  3  1  0  0  0
 19 15  1  0  0  0
 10  5  1  0  0  0
 27 22  1  0  0  0
 38 32  1  0  0  0
  1  2  1  0  0  0
 30 31  1  0  0  0
M  END
> <minimizedAffinity>
3.31217

> <CNNscore>
0.3126228154

> <CNNaffinity>
6.4201555252

> <CNN_VS>
2.0070869923

> <CNNaffinity_variance>
0.3257919550

$$$$
[H]c1nc(N([H])c2c([H])c([H])c(C(=O)N([H])C3([H])C([H])([H])C([H])([H])N(C([H])([H])[H])C([H])([H])C3([H])[H])c([H])c2[H])nc2c1N(C([H])([H])[H])C(=O)[C@@]([H])(C([H])([H])C([H])([H])[H])N2C1([H])C([H])([H])C([H])([H])C([H])([H])C1([H])[H]


 38 42  0  0  0  0  0  0  0  0999 V2000
   52.7309   -5.3132   -4.1995 C   0  0  0  0  0  0  0  0  0  0  0  0
   53.5986   -5.5972   -5.2780 N   0  0  0  0  0  0  0  0  0  0  0  0
   53.3348   -4.8166   -6.4756 C   0  0  0  0  0  0  0  0  0  0  0  0
   54.3187   -4.5460   -7.3539 N   0  0  0  0  0  0  0  0  0  0  0  0
   54.0882   -3.8156   -8.4892 C   0  0  0  0  0  0  0  0  0  0  0  0
   52.8625   -3.3635   -8.7277 N   0  0  0  0  0  0  0  0  0  0  0  0
   51.8315   -3.5883   -7.9070 C   0  0  0  0  0  0  0  0  0  0  0  0
   52.0816   -4.3235   -6.7728 C   0  0  0  0  0  0  0  0  0  0  0  0
   51.0086   -4.5881   -5.8779 N   0  0  0  0  0  0  0  0  0  0  0  0
   49.6597   -4.1003   -6.1277 C   0  0  0  0  0  0  0  0  0  0  0  0
   51.3092   -5.3556   -4.7216 C   0  0  0  0  0  0  0  0  0  0  0  0
   50.4038   -6.0341   -4.1762 O   0  0  0  0  0  0  0  0  0  0  0  0
   54.6840   -6.5350   -5.3580 C   0  0  0  0  0  0  0  0  0  0  0  0
   54.5130   -7.8109   -4.6113 C   0  0  0  0  0  0  0  0  0  0  0  0
   55.7655   -8.0451   -3.8219 C   0  0  0  0  0  0  0  0  0  0  0  0
   56.6856   -6.8959   -4.0548 C   0  0  0  0  0  0  0  0  0  0  0  0
   56.0128   -5.9218   -4.9667 C   0  0  0  0  0  0  0  0  0  0  0  0
   53.5776   -5.3287   -1.9464 C   0  0  0  0  0  0  0  0  0  0  0  0
   52.7511   -6.1201   -2.9794 C   0  0  0  0  0  0  0  0  0  0  0  0
   55.1525   -3.5311   -9.3694 N   0  0  0  0  0  0  0  0  0  0  0  0
   55.0125   -2.6986  -10.0491 H   0  0  0  0  0  0  0  0  0  0  0  0
   56.3777   -4.1826   -9.4819 C   0  0  0  0  0  0  0  0  0  0  0  0
   57.0400   -4.5721   -8.3136 C   0  0  0  0  0  0  0  0  0  0  0  0
   58.2381   -5.2361   -8.3426 C   0  0  0  0  0  0  0  0  0  0  0  0
   58.8535   -5.5554   -9.5342 C   0  0  0  0  0  0  0  0  0  0  0  0
   58.2163   -5.1810  -10.6893 C   0  0  0  0  0  0  0  0  0  0  0  0
   56.9858   -4.4990  -10.6615 C   0  0  0  0  0  0  0  0  0  0  0  0
   60.1291   -6.2610   -9.6189 C   0  0  0  0  0  0  0  0  0  0  0  0
   60.8640   -6.0486  -10.6157 O   0  0  0  0  0  0  0  0  0  0  0  0
   60.5621   -7.1640   -8.6308 N   0  0  0  0  0  0  0  0  0  0  0  0
   60.0074   -7.3989   -7.7655 H   0  0  0  0  0  0  0  0  0  0  0  0
   61.8417   -7.8322   -8.7735 C   0  0  0  0  0  0  0  0  0  0  0  0
   61.5391   -9.2195   -9.3307 C   0  0  0  0  0  0  0  0  0  0  0  0
   62.6177  -10.1483   -8.8133 C   0  0  0  0  0  0  0  0  0  0  0  0
   62.2903  -10.4016   -7.4144 N   0  0  0  0  0  0  0  0  0  0  0  0
   61.0668  -11.1857   -7.3513 C   0  0  0  0  0  0  0  0  0  0  0  0
   62.1661   -9.1800   -6.6805 C   0  0  0  0  0  0  0  0  0  0  0  0
   62.5633   -7.9553   -7.4689 C   0  0  0  0  0  0  0  0  0  0  0  0
 18 19  1  0  0  0
 19  1  1  0  0  0
  1  2  1  0  0  0
  2 13  1  0  0  0
 13 14  1  0  0  0
 14 15  1  0  0  0
 15 16  1  0  0  0
 16 17  1  0  0  0
  2  3  1  0  0  0
  3  4  2  0  0  0
  4  5  1  0  0  0
  5 20  1  0  0  0
 20 22  1  0  0  0
 22 23  2  0  0  0
 23 24  1  0  0  0
 24 25  2  0  0  0
 25 26  1  0  0  0
 26 27  2  0  0  0
 25 28  1  0  0  0
 28 29  2  0  0  0
 28 30  1  0  0  0
 30 32  1  0  0  0
 32 33  1  0  0  0
 33 34  1  0  0  0
 34 35  1  0  0  0
 35 36  1  0  0  0
 35 37  1  0  0  0
 37 38  1  0  0  0
  5  6  2  0  0  0
  6  7  1  0  0  0
  7  8  2  0  0  0
  8  9  1  0  0  0
  9 10  1  0  0  0
  9 11  1  0  0  0
 11 12  2  0  0  0
 11  1  1  0  0  0
 17 13  1  0  0  0
  8  3  1  0  0  0
 27 22  1  0  0  0
 38 32  1  0  0  0
 20 21  1  0  0  0
 30 31  1  0  0  0
M  END
> <minimizedAffinity>
-9.05253

> <CNNscore>
0.7206383348

> <CNNaffinity>
7.6445608139

> <CNN_VS>
5.5089635849

> <CNNaffinity_variance>
0.0812916309

$$$$
[H]c1nc(N([H])c2c([H])c([H])c(C(=O)N([H])C3([H])C([H])([H])C([H])([H])N(C([H])([H])[H])C([H])([H])C3([H])[H])c([H])c2[H])nc2c1N(C([H])([H])[H])C(=O)[C@@]([H])(C([H])([H])C([H])([H])[H])N2C1([H])C([H])([H])C([H])([H])C([H])([H])C1([H])[H]


 38 42  0  0  0  0  0  0  0  0999 V2000
   64.2192   -2.3664  -16.0190 C   0  0  0  0  0  0  0  0  0  0  0  0
   64.1632   -2.6202  -14.6301 N   0  0  0  0  0  0  0  0  0  0  0  0
   63.8429   -3.9965  -14.2889 C   0  0  0  0  0  0  0  0  0  0  0  0
   64.2633   -4.5360  -13.1293 N   0  0  0  0  0  0  0  0  0  0  0  0
   63.9681   -5.8295  -12.7892 C   0  0  0  0  0  0  0  0  0  0  0  0
   63.2493   -6.5685  -13.6263 N   0  0  0  0  0  0  0  0  0  0  0  0
   62.7941   -6.1085  -14.7960 C   0  0  0  0  0  0  0  0  0  0  0  0
   63.0997   -4.8081  -15.1202 C   0  0  0  0  0  0  0  0  0  0  0  0
   62.6284   -4.2813  -16.3541 N   0  0  0  0  0  0  0  0  0  0  0  0
   61.8380   -5.0794  -17.2803 C   0  0  0  0  0  0  0  0  0  0  0  0
   62.9620   -2.9324  -16.6473 C   0  0  0  0  0  0  0  0  0  0  0  0
   62.2184   -2.2614  -17.4051 O   0  0  0  0  0  0  0  0  0  0  0  0
   64.3708   -1.7246  -13.5261 C   0  0  0  0  0  0  0  0  0  0  0  0
   63.3683   -0.6377  -13.3577 C   0  0  0  0  0  0  0  0  0  0  0  0
   64.1191    0.6454  -13.1667 C   0  0  0  0  0  0  0  0  0  0  0  0
   65.5774    0.3505  -13.2566 C   0  0  0  0  0  0  0  0  0  0  0  0
   65.7545   -1.1079  -13.5295 C   0  0  0  0  0  0  0  0  0  0  0  0
   65.7407   -0.9475  -17.2296 C   0  0  0  0  0  0  0  0  0  0  0  0
   64.3661   -1.0051  -16.5342 C   0  0  0  0  0  0  0  0  0  0  0  0
   64.4511   -6.3647  -11.5774 N   0  0  0  0  0  0  0  0  0  0  0  0
   64.9506   -5.6759  -10.9060 H   0  0  0  0  0  0  0  0  0  0  0  0
   64.3683   -7.6768  -11.1192 C   0  0  0  0  0  0  0  0  0  0  0  0
   64.9010   -7.9834   -9.8632 C   0  0  0  0  0  0  0  0  0  0  0  0
   64.8390   -9.2459   -9.3344 C   0  0  0  0  0  0  0  0  0  0  0  0
   64.2436  -10.2831  -10.0201 C   0  0  0  0  0  0  0  0  0  0  0  0
   63.7155   -9.9986  -11.2533 C   0  0  0  0  0  0  0  0  0  0  0  0
   63.7781   -8.7026  -11.7978 C   0  0  0  0  0  0  0  0  0  0  0  0
   64.1521  -11.6450   -9.5012 C   0  0  0  0  0  0  0  0  0  0  0  0
   64.8316  -12.5432  -10.0583 O   0  0  0  0  0  0  0  0  0  0  0  0
   63.3361  -11.9851   -8.4068 N   0  0  0  0  0  0  0  0  0  0  0  0
   62.7353  -11.2940   -7.8844 H   0  0  0  0  0  0  0  0  0  0  0  0
   63.2907  -13.3573   -7.9385 C   0  0  0  0  0  0  0  0  0  0  0  0
   61.9001  -13.5602   -7.3455 C   0  0  0  0  0  0  0  0  0  0  0  0
   62.0347  -14.5940   -6.2469 C   0  0  0  0  0  0  0  0  0  0  0  0
   62.6508  -13.9022   -5.1200 N   0  0  0  0  0  0  0  0  0  0  0  0
   61.7093  -12.9259   -4.5945 C   0  0  0  0  0  0  0  0  0  0  0  0
   63.8845  -13.2859   -5.5002 C   0  0  0  0  0  0  0  0  0  0  0  0
   64.3309  -13.6344   -6.8997 C   0  0  0  0  0  0  0  0  0  0  0  0
 18 19  1  0  0  0
 19  1  1  0  0  0
  1  2  1  0  0  0
  2 13  1  0  0  0
 13 14  1  0  0  0
 14 15  1  0  0  0
 15 16  1  0  0  0
 16 17  1  0  0  0
  2  3  1  0  0  0
  3  4  2  0  0  0
  4  5  1  0  0  0
  5 20  1  0  0  0
 20 22  1  0  0  0
 22 23  2  0  0  0
 23 24  1  0  0  0
 24 25  2  0  0  0
 25 26  1  0  0  0
 26 27  2  0  0  0
 25 28  1  0  0  0
 28 29  2  0  0  0
 28 30  1  0  0  0
 30 32  1  0  0  0
 32 33  1  0  0  0
 33 34  1  0  0  0
 34 35  1  0  0  0
 35 36  1  0  0  0
 35 37  1  0  0  0
 37 38  1  0  0  0
  5  6  2  0  0  0
  6  7  1  0  0  0
  7  8  2  0  0  0
  8  9  1  0  0  0
  9 10  1  0  0  0
  9 11  1  0  0  0
 11 12  2  0  0  0
 11  1  1  0  0  0
 17 13  1  0  0  0
  8  3  1  0  0  0
 27 22  1  0  0  0
 38 32  1  0  0  0
 20 21  1  0  0  0
 30 31  1  0  0  0
M  END
> <minimizedAffinity>
-3.35605

> <CNNscore>
0.5124264359

> <CNNaffinity>
5.0965147018

> <CNN_VS>
2.6115889549

> <CNNaffinity_variance>
0.3869965374

$$$$
[H]c1nc(N([H])c2c([H])c([H])c(C(=O)N([H])C3([H])C([H])([H])C([H])([H])N(C([H])([H])[H])C([H])([H])C3([H])[H])c([H])c2[H])nc2c1N(C([H])([H])[H])C(=O)[C@@]([H])(C([H])([H])C([H])([H])[H])N2C1([H])C([H])([H])C([H])([H])C([H])([H])C1([H])[H]


 38 42  0  0  0  0  0  0  0  0999 V2000
   53.0657   -5.3908   -4.5422 C   0  0  0  0  0  0  0  0  0  0  0  0
   54.0156   -5.7352   -5.5300 N   0  0  0  0  0  0  0  0  0  0  0  0
   53.8332   -5.0463   -6.7970 C   0  0  0  0  0  0  0  0  0  0  0  0
   54.8771   -4.8214   -7.6170 N   0  0  0  0  0  0  0  0  0  0  0  0
   54.7238   -4.1775   -8.8160 C   0  0  0  0  0  0  0  0  0  0  0  0
   53.5141   -3.7650   -9.1768 N   0  0  0  0  0  0  0  0  0  0  0  0
   52.4271   -3.9492   -8.4208 C   0  0  0  0  0  0  0  0  0  0  0  0
   52.6000   -4.5976   -7.2212 C   0  0  0  0  0  0  0  0  0  0  0  0
   51.4659   -4.8169   -6.3917 N   0  0  0  0  0  0  0  0  0  0  0  0
   50.1338   -4.3719   -6.7754 C   0  0  0  0  0  0  0  0  0  0  0  0
   51.6880   -5.4951   -5.1639 C   0  0  0  0  0  0  0  0  0  0  0  0
   50.7525   -6.1491   -4.6399 O   0  0  0  0  0  0  0  0  0  0  0  0
   55.1153   -6.6571   -5.4614 C   0  0  0  0  0  0  0  0  0  0  0  0
   54.8773   -7.9165   -4.7051 C   0  0  0  0  0  0  0  0  0  0  0  0
   56.0349   -8.1107   -3.7730 C   0  0  0  0  0  0  0  0  0  0  0  0
   56.9603   -6.9529   -3.9307 C   0  0  0  0  0  0  0  0  0  0  0  0
   56.3828   -6.0129   -4.9386 C   0  0  0  0  0  0  0  0  0  0  0  0
   53.8055   -5.2688   -2.2549 C   0  0  0  0  0  0  0  0  0  0  0  0
   53.0038   -6.1086   -3.2690 C   0  0  0  0  0  0  0  0  0  0  0  0
   55.8478   -3.9374   -9.6329 N   0  0  0  0  0  0  0  0  0  0  0  0
   55.7453   -3.1658  -10.3871 H   0  0  0  0  0  0  0  0  0  0  0  0
   57.0903   -4.5645   -9.5981 C   0  0  0  0  0  0  0  0  0  0  0  0
   57.6225   -4.9304   -8.3579 C   0  0  0  0  0  0  0  0  0  0  0  0
   58.8288   -5.5699   -8.2431 C   0  0  0  0  0  0  0  0  0  0  0  0
   59.5821   -5.8865   -9.3535 C   0  0  0  0  0  0  0  0  0  0  0  0
   59.0737   -5.5350  -10.5776 C   0  0  0  0  0  0  0  0  0  0  0  0
   57.8350   -4.8783  -10.6973 C   0  0  0  0  0  0  0  0  0  0  0  0
   60.8726   -6.5664   -9.2848 C   0  0  0  0  0  0  0  0  0  0  0  0
   61.2748   -6.9727   -8.1660 O   0  0  0  0  0  0  0  0  0  0  0  0
   61.6764   -6.7817  -10.4192 N   0  0  0  0  0  0  0  0  0  0  0  0
   61.4142   -6.4729  -11.3926 H   0  0  0  0  0  0  0  0  0  0  0  0
   62.9485   -7.4656  -10.2841 C   0  0  0  0  0  0  0  0  0  0  0  0
   64.0263   -6.4001  -10.4559 C   0  0  0  0  0  0  0  0  0  0  0  0
   65.2354   -7.0874  -11.0556 C   0  0  0  0  0  0  0  0  0  0  0  0
   64.9169   -7.3010  -12.4632 N   0  0  0  0  0  0  0  0  0  0  0  0
   64.8554   -6.0114  -13.1333 C   0  0  0  0  0  0  0  0  0  0  0  0
   63.6938   -8.0271  -12.6148 C   0  0  0  0  0  0  0  0  0  0  0  0
   63.1256   -8.5375  -11.3124 C   0  0  0  0  0  0  0  0  0  0  0  0
 18 19  1  0  0  0
 19  1  1  0  0  0
  1  2  1  0  0  0
  2 13  1  0  0  0
 13 14  1  0  0  0
 14 15  1  0  0  0
 15 16  1  0  0  0
 16 17  1  0  0  0
  2  3  1  0  0  0
  3  4  2  0  0  0
  4  5  1  0  0  0
  5 20  1  0  0  0
 20 22  1  0  0  0
 22 23  2  0  0  0
 23 24  1  0  0  0
 24 25  2  0  0  0
 25 26  1  0  0  0
 26 27  2  0  0  0
 25 28  1  0  0  0
 28 29  2  0  0  0
 28 30  1  0  0  0
 30 32  1  0  0  0
 32 33  1  0  0  0
 33 34  1  0  0  0
 34 35  1  0  0  0
 35 36  1  0  0  0
 35 37  1  0  0  0
 37 38  1  0  0  0
  5  6  2  0  0  0
  6  7  1  0  0  0
  7  8  2  0  0  0
  8  9  1  0  0  0
  9 10  1  0  0  0
  9 11  1  0  0  0
 11 12  2  0  0  0
 11  1  1  0  0  0
 17 13  1  0  0  0
  8  3  1  0  0  0
 27 22  1  0  0  0
 38 32  1  0  0  0
 20 21  1  0  0  0
 30 31  1  0  0  0
M  END
> <minimizedAffinity>
-8.12041

> <CNNscore>
0.4811756015

> <CNNaffinity>
7.1045808792

> <CNN_VS>
3.4185509682

> <CNNaffinity_variance>
0.3253184855

$$$$
[H]c1nc(N([H])c2c([H])c([H])c(C(=O)N([H])C3([H])C([H])([H])C([H])([H])N(C([H])([H])[H])C([H])([H])C3([H])[H])c([H])c2[H])nc2c1N(C([H])([H])[H])C(=O)[C@@]([H])(C([H])([H])C([H])([H])[H])N2C1([H])C([H])([H])C([H])([H])C([H])([H])C1([H])[H]


 38 42  0  0  0  0  0  0  0  0999 V2000
   63.7092   -4.1541  -15.5145 C   0  0  0  0  0  0  0  0  0  0  0  0
   63.8303   -5.2566  -14.6390 N   0  0  0  0  0  0  0  0  0  0  0  0
   63.5641   -6.5430  -15.2615 C   0  0  0  0  0  0  0  0  0  0  0  0
   64.1306   -7.6691  -14.7887 N   0  0  0  0  0  0  0  0  0  0  0  0
   63.8885   -8.8902  -15.3597 C   0  0  0  0  0  0  0  0  0  0  0  0
   63.0744   -8.9630  -16.4063 N   0  0  0  0  0  0  0  0  0  0  0  0
   62.4725   -7.8932  -16.9357 C   0  0  0  0  0  0  0  0  0  0  0  0
   62.7269   -6.6762  -16.3493 C   0  0  0  0  0  0  0  0  0  0  0  0
   62.1005   -5.5157  -16.8812 N   0  0  0  0  0  0  0  0  0  0  0  0
   61.2045   -5.5809  -18.0269 C   0  0  0  0  0  0  0  0  0  0  0  0
   62.3863   -4.2800  -16.2423 C   0  0  0  0  0  0  0  0  0  0  0  0
   61.5490   -3.3456  -16.2987 O   0  0  0  0  0  0  0  0  0  0  0  0
   64.1701   -5.2851  -13.2434 C   0  0  0  0  0  0  0  0  0  0  0  0
   65.5282   -5.7893  -12.9027 C   0  0  0  0  0  0  0  0  0  0  0  0
   65.3753   -6.7927  -11.7998 C   0  0  0  0  0  0  0  0  0  0  0  0
   63.9234   -6.9307  -11.4924 C   0  0  0  0  0  0  0  0  0  0  0  0
   63.1530   -6.0399  -12.4123 C   0  0  0  0  0  0  0  0  0  0  0  0
   65.2297   -2.3069  -15.2511 C   0  0  0  0  0  0  0  0  0  0  0  0
   63.7817   -2.7806  -15.0162 C   0  0  0  0  0  0  0  0  0  0  0  0
   64.5237  -10.0417  -14.8509 N   0  0  0  0  0  0  0  0  0  0  0  0
   65.4072  -10.3831  -15.3778 H   0  0  0  0  0  0  0  0  0  0  0  0
   64.1659  -10.8079  -13.7448 C   0  0  0  0  0  0  0  0  0  0  0  0
   64.0597  -10.1800  -12.5000 C   0  0  0  0  0  0  0  0  0  0  0  0
   63.6918  -10.8614  -11.3697 C   0  0  0  0  0  0  0  0  0  0  0  0
   63.4058  -12.2095  -11.4051 C   0  0  0  0  0  0  0  0  0  0  0  0
   63.5045  -12.8400  -12.6189 C   0  0  0  0  0  0  0  0  0  0  0  0
   63.8821  -12.1418  -13.7807 C   0  0  0  0  0  0  0  0  0  0  0  0
   63.0100  -12.9807  -10.2300 C   0  0  0  0  0  0  0  0  0  0  0  0
   62.5594  -14.1411  -10.4012 O   0  0  0  0  0  0  0  0  0  0  0  0
   63.1148  -12.4746   -8.9216 N   0  0  0  0  0  0  0  0  0  0  0  0
   63.4809  -11.5131   -8.6908 H   0  0  0  0  0  0  0  0  0  0  0  0
   62.7057  -13.2925   -7.7956 C   0  0  0  0  0  0  0  0  0  0  0  0
   61.3676  -12.7318   -7.3246 C   0  0  0  0  0  0  0  0  0  0  0  0
   61.2786  -12.9933   -5.8354 C   0  0  0  0  0  0  0  0  0  0  0  0
   62.1569  -12.0143   -5.2042 N   0  0  0  0  0  0  0  0  0  0  0  0
   61.5874  -10.6875   -5.3805 C   0  0  0  0  0  0  0  0  0  0  0  0
   63.4833  -12.0879   -5.7347 C   0  0  0  0  0  0  0  0  0  0  0  0
   63.6968  -13.2490   -6.6760 C   0  0  0  0  0  0  0  0  0  0  0  0
 18 19  1  0  0  0
 19  1  1  0  0  0
  1  2  1  0  0  0
  2 13  1  0  0  0
 13 14  1  0  0  0
 14 15  1  0  0  0
 15 16  1  0  0  0
 16 17  1  0  0  0
  2  3  1  0  0  0
  3  4  2  0  0  0
  4  5  1  0  0  0
  5 20  1  0  0  0
 20 22  1  0  0  0
 22 23  2  0  0  0
 23 24  1  0  0  0
 24 25  2  0  0  0
 25 26  1  0  0  0
 26 27  2  0  0  0
 25 28  1  0  0  0
 28 29  2  0  0  0
 28 30  1  0  0  0
 30 32  1  0  0  0
 32 33  1  0  0  0
 33 34  1  0  0  0
 34 35  1  0  0  0
 35 36  1  0  0  0
 35 37  1  0  0  0
 37 38  1  0  0  0
  5  6  2  0  0  0
  6  7  1  0  0  0
  7  8  2  0  0  0
  8  9  1  0  0  0
  9 10  1  0  0  0
  9 11  1  0  0  0
 11 12  2  0  0  0
 11  1  1  0  0  0
 17 13  1  0  0  0
  8  3  1  0  0  0
 27 22  1  0  0  0
 38 32  1  0  0  0
 20 21  1  0  0  0
 30 31  1  0  0  0
M  END
> <minimizedAffinity>
-2.74274

> <CNNscore>
0.4742933512

> <CNNaffinity>
5.2862577438

> <CNN_VS>
2.5072369576

> <CNNaffinity_variance>
0.0590647049

$$$$
[H]c1nc(N([H])c2c([H])c([H])c(C(=O)N([H])C3([H])C([H])([H])C([H])([H])N(C([H])([H])[H])C([H])([H])C3([H])[H])c([H])c2[H])nc2c1N(C([H])([H])[H])C(=O)[C@@]([H])(C([H])([H])C([H])([H])[H])N2C1([H])C([H])([H])C([H])([H])C([H])([H])C1([H])[H]


 38 42  0  0  0  0  0  0  0  0999 V2000
   53.1391   -5.4678   -4.0394 C   0  0  0  0  0  0  0  0  0  0  0  0
   54.0304   -5.8115   -5.0806 N   0  0  0  0  0  0  0  0  0  0  0  0
   53.7467   -5.1572   -6.3473 C   0  0  0  0  0  0  0  0  0  0  0  0
   54.7278   -4.9256   -7.2397 N   0  0  0  0  0  0  0  0  0  0  0  0
   54.4788   -4.3140   -8.4396 C   0  0  0  0  0  0  0  0  0  0  0  0
   53.2375   -3.9404   -8.7278 N   0  0  0  0  0  0  0  0  0  0  0  0
   52.2080   -4.1338   -7.8973 C   0  0  0  0  0  0  0  0  0  0  0  0
   52.4767   -4.7495   -6.6981 C   0  0  0  0  0  0  0  0  0  0  0  0
   51.4061   -4.9774   -5.7904 N   0  0  0  0  0  0  0  0  0  0  0  0
   50.0403   -4.5748   -6.0940 C   0  0  0  0  0  0  0  0  0  0  0  0
   51.7266   -5.6209   -4.5657 C   0  0  0  0  0  0  0  0  0  0  0  0
   50.8453   -6.2855   -3.9664 O   0  0  0  0  0  0  0  0  0  0  0  0
   55.1562   -6.7039   -5.0654 C   0  0  0  0  0  0  0  0  0  0  0  0
   54.9490   -8.0200   -4.4024 C   0  0  0  0  0  0  0  0  0  0  0  0
   56.1037   -8.2462   -3.4739 C   0  0  0  0  0  0  0  0  0  0  0  0
   56.9959   -7.0540   -3.5397 C   0  0  0  0  0  0  0  0  0  0  0  0
   56.3997   -6.0620   -4.4850 C   0  0  0  0  0  0  0  0  0  0  0  0
   53.9841   -5.2508   -1.7961 C   0  0  0  0  0  0  0  0  0  0  0  0
   53.1804   -6.1569   -2.7497 C   0  0  0  0  0  0  0  0  0  0  0  0
   55.5397   -4.0652   -9.3345 N   0  0  0  0  0  0  0  0  0  0  0  0
   55.3550   -3.3399  -10.1184 H   0  0  0  0  0  0  0  0  0  0  0  0
   56.8116   -4.6312   -9.3446 C   0  0  0  0  0  0  0  0  0  0  0  0
   57.4454   -4.8348  -10.5743 C   0  0  0  0  0  0  0  0  0  0  0  0
   58.7049   -5.3664  -10.6652 C   0  0  0  0  0  0  0  0  0  0  0  0
   59.4143   -5.7288   -9.5400 C   0  0  0  0  0  0  0  0  0  0  0  0
   58.8069   -5.5347   -8.3259 C   0  0  0  0  0  0  0  0  0  0  0  0
   57.5134   -4.9888   -8.2307 C   0  0  0  0  0  0  0  0  0  0  0  0
   60.7578   -6.2991   -9.5831 C   0  0  0  0  0  0  0  0  0  0  0  0
   61.2260   -6.6409  -10.6978 O   0  0  0  0  0  0  0  0  0  0  0  0
   61.5419   -6.4781   -8.4287 N   0  0  0  0  0  0  0  0  0  0  0  0
   61.2251   -6.2192   -7.4570 H   0  0  0  0  0  0  0  0  0  0  0  0
   62.8707   -7.0494   -8.5393 C   0  0  0  0  0  0  0  0  0  0  0  0
   63.0014   -8.0505   -7.3961 C   0  0  0  0  0  0  0  0  0  0  0  0
   64.4656   -8.0927   -7.0110 C   0  0  0  0  0  0  0  0  0  0  0  0
   64.7161   -6.8697   -6.2563 N   0  0  0  0  0  0  0  0  0  0  0  0
   63.9999   -6.9409   -4.9922 C   0  0  0  0  0  0  0  0  0  0  0  0
   64.3394   -5.7106   -7.0053 C   0  0  0  0  0  0  0  0  0  0  0  0
   63.9426   -6.0116   -8.4306 C   0  0  0  0  0  0  0  0  0  0  0  0
 18 19  1  0  0  0
 19  1  1  0  0  0
  1  2  1  0  0  0
  2 13  1  0  0  0
 13 14  1  0  0  0
 14 15  1  0  0  0
 15 16  1  0  0  0
 16 17  1  0  0  0
  2  3  1  0  0  0
  3  4  2  0  0  0
  4  5  1  0  0  0
  5 20  1  0  0  0
 20 22  1  0  0  0
 22 23  2  0  0  0
 23 24  1  0  0  0
 24 25  2  0  0  0
 25 26  1  0  0  0
 26 27  2  0  0  0
 25 28  1  0  0  0
 28 29  2  0  0  0
 28 30  1  0  0  0
 30 32  1  0  0  0
 32 33  1  0  0  0
 33 34  1  0  0  0
 34 35  1  0  0  0
 35 36  1  0  0  0
 35 37  1  0  0  0
 37 38  1  0  0  0
  5  6  2  0  0  0
  6  7  1  0  0  0
  7  8  2  0  0  0
  8  9  1  0  0  0
  9 10  1  0  0  0
  9 11  1  0  0  0
 11 12  2  0  0  0
 11  1  1  0  0  0
 17 13  1  0  0  0
  8  3  1  0  0  0
 27 22  1  0  0  0
 38 32  1  0  0  0
 20 21  1  0  0  0
 30 31  1  0  0  0
M  END
> <minimizedAffinity>
-8.54182

> <CNNscore>
0.4485144019

> <CNNaffinity>
7.2055916786

> <CNN_VS>
3.2318115234

> <CNNaffinity_variance>
0.1651105881

$$$$
[H]c1nc(N([H])c2c([H])c([H])c(C(=O)N([H])C3([H])C([H])([H])C([H])([H])N(C([H])([H])[H])C([H])([H])C3([H])[H])c([H])c2[H])nc2c1N(C([H])([H])[H])C(=O)[C@@]([H])(C([H])([H])C([H])([H])[H])N2C1([H])C([H])([H])C([H])([H])C([H])([H])C1([H])[H]


 38 42  0  0  0  0  0  0  0  0999 V2000
   62.3071   -3.6624  -16.1216 C   0  0  0  0  0  0  0  0  0  0  0  0
   62.9497   -4.9080  -16.3006 N   0  0  0  0  0  0  0  0  0  0  0  0
   63.7886   -5.3110  -15.1839 C   0  0  0  0  0  0  0  0  0  0  0  0
   64.0197   -6.6125  -14.9285 N   0  0  0  0  0  0  0  0  0  0  0  0
   64.8102   -7.0108  -13.8834 C   0  0  0  0  0  0  0  0  0  0  0  0
   65.3613   -6.0883  -13.1032 N   0  0  0  0  0  0  0  0  0  0  0  0
   65.1818   -4.7766  -13.2890 C   0  0  0  0  0  0  0  0  0  0  0  0
   64.3859   -4.3956  -14.3429 C   0  0  0  0  0  0  0  0  0  0  0  0
   64.1758   -3.0086  -14.5757 N   0  0  0  0  0  0  0  0  0  0  0  0
   64.7751   -1.9864  -13.7297 C   0  0  0  0  0  0  0  0  0  0  0  0
   63.3516   -2.6585  -15.6779 C   0  0  0  0  0  0  0  0  0  0  0  0
   63.5105   -1.5474  -16.2416 O   0  0  0  0  0  0  0  0  0  0  0  0
   62.8950   -5.8154  -17.4131 C   0  0  0  0  0  0  0  0  0  0  0  0
   61.9896   -6.9875  -17.2676 C   0  0  0  0  0  0  0  0  0  0  0  0
   62.7598   -8.2079  -17.6727 C   0  0  0  0  0  0  0  0  0  0  0  0
   64.1452   -7.7885  -18.0284 C   0  0  0  0  0  0  0  0  0  0  0  0
   64.2650   -6.3129  -17.8260 C   0  0  0  0  0  0  0  0  0  0  0  0
   60.0742   -3.3651  -16.9698 C   0  0  0  0  0  0  0  0  0  0  0  0
   61.5601   -3.0328  -17.2105 C   0  0  0  0  0  0  0  0  0  0  0  0
   65.0045   -8.3850  -13.6339 N   0  0  0  0  0  0  0  0  0  0  0  0
   65.8037   -8.8707  -14.1816 H   0  0  0  0  0  0  0  0  0  0  0  0
   64.3003   -9.2126  -12.7636 C   0  0  0  0  0  0  0  0  0  0  0  0
   64.2396  -10.5816  -13.0415 C   0  0  0  0  0  0  0  0  0  0  0  0
   63.5847  -11.4628  -12.2220 C   0  0  0  0  0  0  0  0  0  0  0  0
   62.9490  -11.0393  -11.0743 C   0  0  0  0  0  0  0  0  0  0  0  0
   62.9999   -9.6994  -10.7869 C   0  0  0  0  0  0  0  0  0  0  0  0
   63.6722   -8.7930  -11.6275 C   0  0  0  0  0  0  0  0  0  0  0  0
   62.2378  -11.9373  -10.1687 C   0  0  0  0  0  0  0  0  0  0  0  0
   61.9294  -13.0825  -10.5834 O   0  0  0  0  0  0  0  0  0  0  0  0
   61.8880  -11.5686   -8.8568 N   0  0  0  0  0  0  0  0  0  0  0  0
   62.1080  -10.6291   -8.4318 H   0  0  0  0  0  0  0  0  0  0  0  0
   61.1824  -12.5081   -8.0061 C   0  0  0  0  0  0  0  0  0  0  0  0
   60.4399  -11.6710   -6.9695 C   0  0  0  0  0  0  0  0  0  0  0  0
   60.3415  -12.5098   -5.7123 C   0  0  0  0  0  0  0  0  0  0  0  0
   61.6677  -12.4780   -5.1054 N   0  0  0  0  0  0  0  0  0  0  0  0
   61.9358  -11.1299   -4.6294 C   0  0  0  0  0  0  0  0  0  0  0  0
   62.6712  -12.9158   -6.0261 C   0  0  0  0  0  0  0  0  0  0  0  0
   62.1127  -13.4577   -7.3199 C   0  0  0  0  0  0  0  0  0  0  0  0
 18 19  1  0  0  0
 19  1  1  0  0  0
  1  2  1  0  0  0
  2 13  1  0  0  0
 13 14  1  0  0  0
 14 15  1  0  0  0
 15 16  1  0  0  0
 16 17  1  0  0  0
  2  3  1  0  0  0
  3  4  2  0  0  0
  4  5  1  0  0  0
  5 20  1  0  0  0
 20 22  1  0  0  0
 22 23  2  0  0  0
 23 24  1  0  0  0
 24 25  2  0  0  0
 25 26  1  0  0  0
 26 27  2  0  0  0
 25 28  1  0  0  0
 28 29  2  0  0  0
 28 30  1  0  0  0
 30 32  1  0  0  0
 32 33  1  0  0  0
 33 34  1  0  0  0
 34 35  1  0  0  0
 35 36  1  0  0  0
 35 37  1  0  0  0
 37 38  1  0  0  0
  5  6  2  0  0  0
  6  7  1  0  0  0
  7  8  2  0  0  0
  8  9  1  0  0  0
  9 10  1  0  0  0
  9 11  1  0  0  0
 11 12  2  0  0  0
 11  1  1  0  0  0
 17 13  1  0  0  0
  8  3  1  0  0  0
 27 22  1  0  0  0
 38 32  1  0  0  0
 20 21  1  0  0  0
 30 31  1  0  0  0
M  END
> <minimizedAffinity>
-3.41839

> <CNNscore>
0.4229424298

> <CNNaffinity>
5.2489876747

> <CNN_VS>
2.2200195789

> <CNNaffinity_variance>
0.2577466369

$$$$
[H]c1nc(N([H])c2c([H])c([H])c(C(=O)N([H])C3([H])C([H])([H])C([H])([H])N(C([H])([H])[H])C([H])([H])C3([H])[H])c([H])c2[H])nc2c1N(C([H])([H])[H])C(=O)[C@@]([H])(C([H])([H])C([H])([H])[H])N2C1([H])C([H])([H])C([H])([H])C([H])([H])C1([H])[H]


 38 42  0  0  0  0  0  0  0  0999 V2000
   63.0536   -3.4440  -14.9659 C   0  0  0  0  0  0  0  0  0  0  0  0
   63.2724   -4.7759  -14.5478 N   0  0  0  0  0  0  0  0  0  0  0  0
   62.9785   -5.7743  -15.5627 C   0  0  0  0  0  0  0  0  0  0  0  0
   63.6064   -6.9652  -15.5617 N   0  0  0  0  0  0  0  0  0  0  0  0
   63.3398   -7.9194  -16.5074 C   0  0  0  0  0  0  0  0  0  0  0  0
   62.4392   -7.6610  -17.4485 N   0  0  0  0  0  0  0  0  0  0  0  0
   61.7723   -6.5046  -17.5195 C   0  0  0  0  0  0  0  0  0  0  0  0
   62.0526   -5.5591  -16.5619 C   0  0  0  0  0  0  0  0  0  0  0  0
   61.3593   -4.3182  -16.6014 N   0  0  0  0  0  0  0  0  0  0  0  0
   60.3683   -4.0221  -17.6261 C   0  0  0  0  0  0  0  0  0  0  0  0
   61.6751   -3.3721  -15.5905 C   0  0  0  0  0  0  0  0  0  0  0  0
   60.8176   -2.5196  -15.2508 O   0  0  0  0  0  0  0  0  0  0  0  0
   63.7330   -5.2745  -13.2817 C   0  0  0  0  0  0  0  0  0  0  0  0
   65.0890   -5.8875  -13.2650 C   0  0  0  0  0  0  0  0  0  0  0  0
   64.9846   -7.1986  -12.5462 C   0  0  0  0  0  0  0  0  0  0  0  0
   63.5607   -7.4056  -12.1575 C   0  0  0  0  0  0  0  0  0  0  0  0
   62.7573   -6.2454  -12.6489 C   0  0  0  0  0  0  0  0  0  0  0  0
   64.2639   -1.4079  -14.5382 C   0  0  0  0  0  0  0  0  0  0  0  0
   63.1419   -2.3302  -14.0216 C   0  0  0  0  0  0  0  0  0  0  0  0
   64.0397   -9.1433  -16.4868 N   0  0  0  0  0  0  0  0  0  0  0  0
   64.8525   -9.2510  -17.1957 H   0  0  0  0  0  0  0  0  0  0  0  0
   63.8265  -10.2463  -15.6644 C   0  0  0  0  0  0  0  0  0  0  0  0
   64.3710  -10.2378  -14.3765 C   0  0  0  0  0  0  0  0  0  0  0  0
   64.1870  -11.2757  -13.5012 C   0  0  0  0  0  0  0  0  0  0  0  0
   63.4500  -12.3873  -13.8503 C   0  0  0  0  0  0  0  0  0  0  0  0
   62.9085  -12.4107  -15.1100 C   0  0  0  0  0  0  0  0  0  0  0  0
   63.0964  -11.3457  -16.0101 C   0  0  0  0  0  0  0  0  0  0  0  0
   63.2250  -13.5189  -12.9553 C   0  0  0  0  0  0  0  0  0  0  0  0
   62.8817  -14.6184  -13.4573 O   0  0  0  0  0  0  0  0  0  0  0  0
   63.3781  -13.4230  -11.5601 N   0  0  0  0  0  0  0  0  0  0  0  0
   63.6621  -12.5397  -11.0593 H   0  0  0  0  0  0  0  0  0  0  0  0
   63.1407  -14.5855  -10.7256 C   0  0  0  0  0  0  0  0  0  0  0  0
   61.8390  -14.3156   -9.9778 C   0  0  0  0  0  0  0  0  0  0  0  0
   61.9331  -15.0402   -8.6511 C   0  0  0  0  0  0  0  0  0  0  0  0
   62.8280  -14.2408   -7.8215 N   0  0  0  0  0  0  0  0  0  0  0  0
   62.1773  -12.9784   -7.5072 C   0  0  0  0  0  0  0  0  0  0  0  0
   64.0875  -14.0325   -8.4671 C   0  0  0  0  0  0  0  0  0  0  0  0
   64.2496  -14.8151   -9.7480 C   0  0  0  0  0  0  0  0  0  0  0  0
 18 19  1  0  0  0
 19  1  1  0  0  0
  1  2  1  0  0  0
  2 13  1  0  0  0
 13 14  1  0  0  0
 14 15  1  0  0  0
 15 16  1  0  0  0
 16 17  1  0  0  0
  2  3  1  0  0  0
  3  4  2  0  0  0
  4  5  1  0  0  0
  5 20  1  0  0  0
 20 22  1  0  0  0
 22 23  2  0  0  0
 23 24  1  0  0  0
 24 25  2  0  0  0
 25 26  1  0  0  0
 26 27  2  0  0  0
 25 28  1  0  0  0
 28 29  2  0  0  0
 28 30  1  0  0  0
 30 32  1  0  0  0
 32 33  1  0  0  0
 33 34  1  0  0  0
 34 35  1  0  0  0
 35 36  1  0  0  0
 35 37  1  0  0  0
 37 38  1  0  0  0
  5  6  2  0  0  0
  6  7  1  0  0  0
  7  8  2  0  0  0
  8  9  1  0  0  0
  9 10  1  0  0  0
  9 11  1  0  0  0
 11 12  2  0  0  0
 11  1  1  0  0  0
 17 13  1  0  0  0
  8  3  1  0  0  0
 27 22  1  0  0  0
 38 32  1  0  0  0
 20 21  1  0  0  0
 30 31  1  0  0  0
M  END
> <minimizedAffinity>
-3.19860

> <CNNscore>
0.3977562487

> <CNNaffinity>
4.9970760345

> <CNN_VS>
1.9876182079

> <CNNaffinity_variance>
0.2835897803

$$$$
[H]c1nc(N([H])c2c([H])c([H])c(C(=O)N([H])C3([H])C([H])([H])C([H])([H])N(C([H])([H])[H])C([H])([H])C3([H])[H])c([H])c2[H])nc2c1N(C([H])([H])[H])C(=O)[C@@]([H])(C([H])([H])C([H])([H])[H])N2C1([H])C([H])([H])C([H])([H])C([H])([H])C1([H])[H]


 38 42  0  0  0  0  0  0  0  0999 V2000
   64.6143   -1.8799  -15.9761 C   0  0  0  0  0  0  0  0  0  0  0  0
   64.5297   -2.3118  -14.6334 N   0  0  0  0  0  0  0  0  0  0  0  0
   64.4293   -3.7535  -14.4769 C   0  0  0  0  0  0  0  0  0  0  0  0
   64.8738   -4.3592  -13.3597 N   0  0  0  0  0  0  0  0  0  0  0  0
   64.7841   -5.7157  -13.1931 C   0  0  0  0  0  0  0  0  0  0  0  0
   64.2450   -6.4501  -14.1593 N   0  0  0  0  0  0  0  0  0  0  0  0
   63.7801   -5.9264  -15.2980 C   0  0  0  0  0  0  0  0  0  0  0  0
   63.8781   -4.5636  -15.4475 C   0  0  0  0  0  0  0  0  0  0  0  0
   63.3894   -3.9690  -16.6432 N   0  0  0  0  0  0  0  0  0  0  0  0
   62.7944   -4.7616  -17.7098 C   0  0  0  0  0  0  0  0  0  0  0  0
   63.5052   -2.5580  -16.7544 C   0  0  0  0  0  0  0  0  0  0  0  0
   62.6993   -1.9261  -17.4815 O   0  0  0  0  0  0  0  0  0  0  0  0
   64.5254   -1.5401  -13.4216 C   0  0  0  0  0  0  0  0  0  0  0  0
   63.3195   -0.7041  -13.1732 C   0  0  0  0  0  0  0  0  0  0  0  0
   63.7895    0.6677  -12.7942 C   0  0  0  0  0  0  0  0  0  0  0  0
   65.2790    0.6821  -12.8479 C   0  0  0  0  0  0  0  0  0  0  0  0
   65.7548   -0.6656  -13.2842 C   0  0  0  0  0  0  0  0  0  0  0  0
   65.7550   -0.1845  -17.2480 C   0  0  0  0  0  0  0  0  0  0  0  0
   64.5557   -0.4591  -16.3192 C   0  0  0  0  0  0  0  0  0  0  0  0
   65.2869   -6.3138  -12.0193 N   0  0  0  0  0  0  0  0  0  0  0  0
   66.3648   -6.3387  -11.9091 H   0  0  0  0  0  0  0  0  0  0  0  0
   64.5748   -6.8813  -10.9661 C   0  0  0  0  0  0  0  0  0  0  0  0
   65.0892   -8.0251  -10.3479 C   0  0  0  0  0  0  0  0  0  0  0  0
   64.4582   -8.6286   -9.2921 C   0  0  0  0  0  0  0  0  0  0  0  0
   63.2764   -8.1332   -8.7836 C   0  0  0  0  0  0  0  0  0  0  0  0
   62.7590   -7.0112   -9.3784 C   0  0  0  0  0  0  0  0  0  0  0  0
   63.4057   -6.3901  -10.4628 C   0  0  0  0  0  0  0  0  0  0  0  0
   62.5651   -8.7389   -7.6613 C   0  0  0  0  0  0  0  0  0  0  0  0
   61.6072   -8.1066   -7.1501 O   0  0  0  0  0  0  0  0  0  0  0  0
   62.9114   -9.9971   -7.1356 N   0  0  0  0  0  0  0  0  0  0  0  0
   63.7002  -10.5915   -7.5046 H   0  0  0  0  0  0  0  0  0  0  0  0
   62.1636  -10.5445   -6.0197 C   0  0  0  0  0  0  0  0  0  0  0  0
   63.1193  -11.4761   -5.2812 C   0  0  0  0  0  0  0  0  0  0  0  0
   62.2765  -12.5673   -4.6544 C   0  0  0  0  0  0  0  0  0  0  0  0
   61.9038  -13.4613   -5.7454 N   0  0  0  0  0  0  0  0  0  0  0  0
   63.0959  -14.1443   -6.2232 C   0  0  0  0  0  0  0  0  0  0  0  0
   61.2516  -12.7493   -6.8009 C   0  0  0  0  0  0  0  0  0  0  0  0
   60.9567  -11.3065   -6.4679 C   0  0  0  0  0  0  0  0  0  0  0  0
 18 19  1  0  0  0
 19  1  1  0  0  0
  1  2  1  0  0  0
  2 13  1  0  0  0
 13 14  1  0  0  0
 14 15  1  0  0  0
 15 16  1  0  0  0
 16 17  1  0  0  0
  2  3  1  0  0  0
  3  4  2  0  0  0
  4  5  1  0  0  0
  5 20  1  0  0  0
 20 22  1  0  0  0
 22 23  2  0  0  0
 23 24  1  0  0  0
 24 25  2  0  0  0
 25 26  1  0  0  0
 26 27  2  0  0  0
 25 28  1  0  0  0
 28 29  2  0  0  0
 28 30  1  0  0  0
 30 32  1  0  0  0
 32 33  1  0  0  0
 33 34  1  0  0  0
 34 35  1  0  0  0
 35 36  1  0  0  0
 35 37  1  0  0  0
 37 38  1  0  0  0
  5  6  2  0  0  0
  6  7  1  0  0  0
  7  8  2  0  0  0
  8  9  1  0  0  0
  9 10  1  0  0  0
  9 11  1  0  0  0
 11 12  2  0  0  0
 11  1  1  0  0  0
 17 13  1  0  0  0
  8  3  1  0  0  0
 27 22  1  0  0  0
 38 32  1  0  0  0
 20 21  1  0  0  0
 30 31  1  0  0  0
M  END
> <minimizedAffinity>
-3.33460

> <CNNscore>
0.3518323600

> <CNNaffinity>
5.0028352737

> <CNN_VS>
1.7601593733

> <CNNaffinity_variance>
0.2224942893

$$$$
[H]c1nc(N([H])c2c([H])c([H])c(C(=O)N([H])C3([H])C([H])([H])C([H])([H])N(C([H])([H])[H])C([H])([H])C3([H])[H])c([H])c2[H])nc2c1N(C([H])([H])[H])C(=O)[C@@]([H])(C([H])([H])C([H])([H])[H])N2C1([H])C([H])([H])C([H])([H])C([H])([H])C1([H])[H]


 38 42  0  0  0  0  0  0  0  0999 V2000
   55.1199   -3.7314   -8.6078 C   0  0  0  0  0  0  0  0  0  0  0  0
   55.9232   -4.7929   -8.1339 N   0  0  0  0  0  0  0  0  0  0  0  0
   57.1215   -5.0303   -8.9218 C   0  0  0  0  0  0  0  0  0  0  0  0
   58.2187   -5.5746   -8.3628 N   0  0  0  0  0  0  0  0  0  0  0  0
   59.3553   -5.8090   -9.0901 C   0  0  0  0  0  0  0  0  0  0  0  0
   59.3735   -5.4901  -10.3792 N   0  0  0  0  0  0  0  0  0  0  0  0
   58.3271   -4.9468  -11.0092 C   0  0  0  0  0  0  0  0  0  0  0  0
   57.1951   -4.7192  -10.2634 C   0  0  0  0  0  0  0  0  0  0  0  0
   56.0594   -4.1473  -10.9000 N   0  0  0  0  0  0  0  0  0  0  0  0
   56.0646   -3.7946  -12.3125 C   0  0  0  0  0  0  0  0  0  0  0  0
   54.9094   -3.9340  -10.0945 C   0  0  0  0  0  0  0  0  0  0  0  0
   53.7729   -3.9200  -10.6291 O   0  0  0  0  0  0  0  0  0  0  0  0
   55.7244   -5.6585   -7.0046 C   0  0  0  0  0  0  0  0  0  0  0  0
   54.4453   -6.4183   -6.9698 C   0  0  0  0  0  0  0  0  0  0  0  0
   53.8556   -6.2499   -5.6021 C   0  0  0  0  0  0  0  0  0  0  0  0
   54.7523   -5.3576   -4.8139 C   0  0  0  0  0  0  0  0  0  0  0  0
   55.8936   -4.9383   -5.6826 C   0  0  0  0  0  0  0  0  0  0  0  0
   53.3490   -2.1013   -8.5912 C   0  0  0  0  0  0  0  0  0  0  0  0
   53.8015   -3.4650   -8.0326 C   0  0  0  0  0  0  0  0  0  0  0  0
   60.4922   -6.3554   -8.4599 N   0  0  0  0  0  0  0  0  0  0  0  0
   60.6441   -6.0942   -7.4190 H   0  0  0  0  0  0  0  0  0  0  0  0
   61.4574   -7.2001   -9.0013 C   0  0  0  0  0  0  0  0  0  0  0  0
   61.0602   -8.4521   -9.4808 C   0  0  0  0  0  0  0  0  0  0  0  0
   61.9469   -9.3299  -10.0468 C   0  0  0  0  0  0  0  0  0  0  0  0
   63.2841   -9.0189  -10.1724 C   0  0  0  0  0  0  0  0  0  0  0  0
   63.6897   -7.7941   -9.7077 C   0  0  0  0  0  0  0  0  0  0  0  0
   62.7804   -6.8913   -9.1262 C   0  0  0  0  0  0  0  0  0  0  0  0
   64.2686   -9.9186  -10.7671 C   0  0  0  0  0  0  0  0  0  0  0  0
   65.4316   -9.9296  -10.2917 O   0  0  0  0  0  0  0  0  0  0  0  0
   63.9634  -10.7684  -11.8460 N   0  0  0  0  0  0  0  0  0  0  0  0
   63.0147  -10.8205  -12.3031 H   0  0  0  0  0  0  0  0  0  0  0  0
   64.9867  -11.6402  -12.3909 C   0  0  0  0  0  0  0  0  0  0  0  0
   64.8283  -11.5890  -13.9070 C   0  0  0  0  0  0  0  0  0  0  0  0
   65.2827  -12.9302  -14.4444 C   0  0  0  0  0  0  0  0  0  0  0  0
   64.2044  -13.8666  -14.1464 N   0  0  0  0  0  0  0  0  0  0  0  0
   63.0437  -13.5205  -14.9518 C   0  0  0  0  0  0  0  0  0  0  0  0
   63.8896  -13.8695  -12.7509 C   0  0  0  0  0  0  0  0  0  0  0  0
   64.8410  -13.0501  -11.9125 C   0  0  0  0  0  0  0  0  0  0  0  0
 18 19  1  0  0  0
 19  1  1  0  0  0
  1  2  1  0  0  0
  2 13  1  0  0  0
 13 14  1  0  0  0
 14 15  1  0  0  0
 15 16  1  0  0  0
 16 17  1  0  0  0
  2  3  1  0  0  0
  3  4  2  0  0  0
  4  5  1  0  0  0
  5 20  1  0  0  0
 20 22  1  0  0  0
 22 23  2  0  0  0
 23 24  1  0  0  0
 24 25  2  0  0  0
 25 26  1  0  0  0
 26 27  2  0  0  0
 25 28  1  0  0  0
 28 29  2  0  0  0
 28 30  1  0  0  0
 30 32  1  0  0  0
 32 33  1  0  0  0
 33 34  1  0  0  0
 34 35  1  0  0  0
 35 36  1  0  0  0
 35 37  1  0  0  0
 37 38  1  0  0  0
  5  6  2  0  0  0
  6  7  1  0  0  0
  7  8  2  0  0  0
  8  9  1  0  0  0
  9 10  1  0  0  0
  9 11  1  0  0  0
 11 12  2  0  0  0
 11  1  1  0  0  0
 17 13  1  0  0  0
  8  3  1  0  0  0
 27 22  1  0  0  0
 38 32  1  0  0  0
 20 21  1  0  0  0
 30 31  1  0  0  0
M  END
> <minimizedAffinity>
-6.56550

> <CNNscore>
0.3413147330

> <CNNaffinity>
6.0904116631

> <CNN_VS>
2.0787472725

> <CNNaffinity_variance>
0.0468890965

$$$$
[H]OC([H])([H])[C@@]1(O[H])C([H])([H])[C@@]2([H])O[C@]1(C([H])([H])[H])n1c3c([H])c([H])c([H])c([H])c3c3c4c(c5c6c([H])c([H])c([H])c([H])c6n2c5c31)C([H])([H])N([H])C4=O


 36 43  0  0  0  0  0  0  0  0999 V2000
   54.1094   -8.0663   -3.3258 C   0  0  0  0  0  0  0  0  0  0  0  0
   54.5924   -6.8049   -4.0353 C   0  0  0  0  0  0  0  0  0  0  0  0
   55.3418   -7.3852   -5.1024 O   0  0  0  0  0  0  0  0  0  0  0  0
   56.3259   -6.5429   -5.4806 C   0  0  0  0  0  0  0  0  0  0  0  0
   56.6259   -5.5999   -4.3477 C   0  0  0  0  0  0  0  0  0  0  0  0
   55.6249   -6.0509   -3.2982 C   0  0  0  0  0  0  0  0  0  0  0  0
   55.1633   -4.8846   -2.6926 O   0  0  0  0  0  0  0  0  0  0  0  0
   55.8186   -5.7521   -6.6032 N   0  0  0  0  0  0  0  0  0  0  0  0
   56.4462   -5.3698   -7.6986 C   0  0  0  0  0  0  0  0  0  0  0  0
   57.7337   -5.6055   -8.1237 C   0  0  0  0  0  0  0  0  0  0  0  0
   58.1501   -5.0763   -9.3429 C   0  0  0  0  0  0  0  0  0  0  0  0
   57.2845   -4.3154  -10.1331 C   0  0  0  0  0  0  0  0  0  0  0  0
   55.9936   -4.0753   -9.7133 C   0  0  0  0  0  0  0  0  0  0  0  0
   55.6042   -4.6078   -8.5063 C   0  0  0  0  0  0  0  0  0  0  0  0
   54.4268   -4.5460   -7.8425 C   0  0  0  0  0  0  0  0  0  0  0  0
   53.2018   -3.9295   -8.0893 C   0  0  0  0  0  0  0  0  0  0  0  0
   52.7875   -3.1245   -9.2411 C   0  0  0  0  0  0  0  0  0  0  0  0
   51.4345   -2.7294   -9.0124 N   0  0  0  0  0  0  0  0  0  0  0  0
   51.0206   -3.2743   -7.7422 C   0  0  0  0  0  0  0  0  0  0  0  0
   49.8697   -3.0534   -7.3353 O   0  0  0  0  0  0  0  0  0  0  0  0
   52.1460   -4.0096   -7.2062 C   0  0  0  0  0  0  0  0  0  0  0  0
   52.2962   -4.7329   -6.0170 C   0  0  0  0  0  0  0  0  0  0  0  0
   51.5150   -5.0103   -4.9407 C   0  0  0  0  0  0  0  0  0  0  0  0
   50.2265   -4.6515   -4.6221 C   0  0  0  0  0  0  0  0  0  0  0  0
   49.6707   -5.0715   -3.4065 C   0  0  0  0  0  0  0  0  0  0  0  0
   50.4263   -5.8309   -2.5623 C   0  0  0  0  0  0  0  0  0  0  0  0
   51.7386   -6.1888   -2.9003 C   0  0  0  0  0  0  0  0  0  0  0  0
   52.2848   -5.7854   -4.0811 C   0  0  0  0  0  0  0  0  0  0  0  0
   53.5141   -6.0029   -4.5860 N   0  0  0  0  0  0  0  0  0  0  0  0
   53.5166   -5.3415   -5.7858 C   0  0  0  0  0  0  0  0  0  0  0  0
   54.5559   -5.2479   -6.6768 C   0  0  0  0  0  0  0  0  0  0  0  0
   55.1341   -5.0681   -1.7119 H   0  0  0  0  0  0  0  0  0  0  0  0
   50.8231   -2.1357   -9.6576 H   0  0  0  0  0  0  0  0  0  0  0  0
   56.3936   -6.9211   -2.3357 C   0  0  0  0  0  0  0  0  0  0  0  0
   57.6551   -6.3033   -2.1587 O   0  0  0  0  0  0  0  0  0  0  0  0
   58.1371   -6.7848   -1.4127 H   0  0  0  0  0  0  0  0  0  0  0  0
  2  1  1  0  0  0
  2  3  1  0  0  0
  3  4  1  0  0  0
  4  5  1  0  0  0
  5  6  1  0  0  0
  6  7  1  0  0  0
  6 34  1  0  0  0
 34 35  1  0  0  0
  4  8  1  0  0  0
  8  9  1  0  0  0
  9 10  2  0  0  0
 10 11  1  0  0  0
 11 12  2  0  0  0
 12 13  1  0  0  0
 13 14  2  0  0  0
 14 15  1  0  0  0
 15 16  2  0  0  0
 16 17  1  0  0  0
 17 18  1  0  0  0
 18 19  1  0  0  0
 19 20  2  0  0  0
 19 21  1  0  0  0
 21 22  2  0  0  0
 22 23  1  0  0  0
 23 24  2  0  0  0
 24 25  1  0  0  0
 25 26  2  0  0  0
 26 27  1  0  0  0
 27 28  2  0  0  0
 28 29  1  0  0  0
 29 30  1  0  0  0
 30 31  2  0  0  0
  6  2  1  0  0  0
 31  8  1  0  0  0
 29  2  1  0  0  0
 14  9  1  0  0  0
 31 15  1  0  0  0
 21 16  1  0  0  0
 30 22  1  0  0  0
 28 23  1  0  0  0
  7 32  1  0  0  0
 35 36  1  0  0  0
 18 33  1  0  0  0
M  END
> <minimizedAffinity>
-12.94787

> <CNNscore>
0.6396803856

> <CNNaffinity>
6.7476487160

> <CNN_VS>
4.3163385391

> <CNNaffinity_variance>
0.0302749816

$$$$
[H]OC([H])([H])[C@@]1(O[H])C([H])([H])[C@@]2([H])O[C@]1(C([H])([H])[H])n1c3c([H])c([H])c([H])c([H])c3c3c4c(c5c6c([H])c([H])c([H])c([H])c6n2c5c31)C([H])([H])N([H])C4=O


 36 43  0  0  0  0  0  0  0  0999 V2000
   57.0087   -5.8901   -4.0947 C   0  0  0  0  0  0  0  0  0  0  0  0
   55.5941   -6.2198   -4.5618 C   0  0  0  0  0  0  0  0  0  0  0  0
   54.8347   -5.6282   -3.5081 O   0  0  0  0  0  0  0  0  0  0  0  0
   53.6634   -6.2830   -3.3656 C   0  0  0  0  0  0  0  0  0  0  0  0
   53.8012   -7.6649   -3.9437 C   0  0  0  0  0  0  0  0  0  0  0  0
   55.2337   -7.6463   -4.4479 C   0  0  0  0  0  0  0  0  0  0  0  0
   55.2153   -8.3336   -5.6592 O   0  0  0  0  0  0  0  0  0  0  0  0
   52.6603   -5.5632   -4.1521 N   0  0  0  0  0  0  0  0  0  0  0  0
   51.3995   -5.3116   -3.8570 C   0  0  0  0  0  0  0  0  0  0  0  0
   50.6603   -5.6232   -2.7388 C   0  0  0  0  0  0  0  0  0  0  0  0
   49.3246   -5.2325   -2.6814 C   0  0  0  0  0  0  0  0  0  0  0  0
   48.7308   -4.5341   -3.7361 C   0  0  0  0  0  0  0  0  0  0  0  0
   49.4654   -4.2187   -4.8591 C   0  0  0  0  0  0  0  0  0  0  0  0
   50.7823   -4.6145   -4.8938 C   0  0  0  0  0  0  0  0  0  0  0  0
   51.7370   -4.4545   -5.8391 C   0  0  0  0  0  0  0  0  0  0  0  0
   51.7647   -3.8744   -7.1057 C   0  0  0  0  0  0  0  0  0  0  0  0
   50.6919   -3.1920   -7.8336 C   0  0  0  0  0  0  0  0  0  0  0  0
   51.2336   -2.7767   -9.0879 N   0  0  0  0  0  0  0  0  0  0  0  0
   52.6127   -3.1978   -9.1380 C   0  0  0  0  0  0  0  0  0  0  0  0
   53.2867   -2.9427  -10.1479 O   0  0  0  0  0  0  0  0  0  0  0  0
   52.8984   -3.8732   -7.8904 C   0  0  0  0  0  0  0  0  0  0  0  0
   54.0692   -4.4714   -7.4098 C   0  0  0  0  0  0  0  0  0  0  0  0
   55.3265   -4.6709   -7.8844 C   0  0  0  0  0  0  0  0  0  0  0  0
   55.9229   -4.3385   -9.0779 C   0  0  0  0  0  0  0  0  0  0  0  0
   57.2571   -4.6978   -9.3095 C   0  0  0  0  0  0  0  0  0  0  0  0
   57.9369   -5.3737   -8.3394 C   0  0  0  0  0  0  0  0  0  0  0  0
   57.3159   -5.7061   -7.1277 C   0  0  0  0  0  0  0  0  0  0  0  0
   56.0195   -5.3586   -6.8950 C   0  0  0  0  0  0  0  0  0  0  0  0
   55.2400   -5.5898   -5.8216 N   0  0  0  0  0  0  0  0  0  0  0  0
   54.0283   -5.0415   -6.1502 C   0  0  0  0  0  0  0  0  0  0  0  0
   52.8888   -5.0340   -5.3857 C   0  0  0  0  0  0  0  0  0  0  0  0
   56.0191   -8.9253   -5.6606 H   0  0  0  0  0  0  0  0  0  0  0  0
   50.7217   -2.2472   -9.8625 H   0  0  0  0  0  0  0  0  0  0  0  0
   56.0525   -8.3635   -3.4040 C   0  0  0  0  0  0  0  0  0  0  0  0
   55.2388   -8.4510   -2.2487 O   0  0  0  0  0  0  0  0  0  0  0  0
   55.7057   -9.0495   -1.5820 H   0  0  0  0  0  0  0  0  0  0  0  0
  2  1  1  0  0  0
  2  3  1  0  0  0
  3  4  1  0  0  0
  4  5  1  0  0  0
  5  6  1  0  0  0
  6  7  1  0  0  0
  6 34  1  0  0  0
 34 35  1  0  0  0
  4  8  1  0  0  0
  8  9  1  0  0  0
  9 10  2  0  0  0
 10 11  1  0  0  0
 11 12  2  0  0  0
 12 13  1  0  0  0
 13 14  2  0  0  0
 14 15  1  0  0  0
 15 16  2  0  0  0
 16 17  1  0  0  0
 17 18  1  0  0  0
 18 19  1  0  0  0
 19 20  2  0  0  0
 19 21  1  0  0  0
 21 22  2  0  0  0
 22 23  1  0  0  0
 23 24  2  0  0  0
 24 25  1  0  0  0
 25 26  2  0  0  0
 26 27  1  0  0  0
 27 28  2  0  0  0
 28 29  1  0  0  0
 29 30  1  0  0  0
 30 31  2  0  0  0
  6  2  1  0  0  0
 31  8  1  0  0  0
 29  2  1  0  0  0
 14  9  1  0  0  0
 31 15  1  0  0  0
 21 16  1  0  0  0
 30 22  1  0  0  0
 28 23  1  0  0  0
  7 32  1  0  0  0
 35 36  1  0  0  0
 18 33  1  0  0  0
M  END
> <minimizedAffinity>
-10.32813

> <CNNscore>
0.5969967246

> <CNNaffinity>
6.8751206398

> <CNN_VS>
4.1044244766

> <CNNaffinity_variance>
0.1215175614

$$$$
[H]OC([H])([H])[C@@]1(O[H])C([H])([H])[C@@]2([H])O[C@]1(C([H])([H])[H])n1c3c([H])c([H])c([H])c([H])c3c3c4c(c5c6c([H])c([H])c([H])c([H])c6n2c5c31)C([H])([H])N([H])C4=O


 36 43  0  0  0  0  0  0  0  0999 V2000
   57.0649   -5.5826  -12.3485 C   0  0  0  0  0  0  0  0  0  0  0  0
   56.5545   -4.7157  -11.2014 C   0  0  0  0  0  0  0  0  0  0  0  0
   55.1602   -5.0152  -11.2582 O   0  0  0  0  0  0  0  0  0  0  0  0
   54.4485   -3.9677  -10.7919 C   0  0  0  0  0  0  0  0  0  0  0  0
   55.2835   -2.7212  -10.8997 C   0  0  0  0  0  0  0  0  0  0  0  0
   56.5776   -3.2664  -11.4784 C   0  0  0  0  0  0  0  0  0  0  0  0
   57.5995   -2.5735  -10.8338 O   0  0  0  0  0  0  0  0  0  0  0  0
   54.1860   -4.2132   -9.3728 N   0  0  0  0  0  0  0  0  0  0  0  0
   53.0899   -3.9742   -8.6789 C   0  0  0  0  0  0  0  0  0  0  0  0
   51.8780   -3.4509   -9.0679 C   0  0  0  0  0  0  0  0  0  0  0  0
   50.8706   -3.3013   -8.1178 C   0  0  0  0  0  0  0  0  0  0  0  0
   51.0733   -3.6726   -6.7860 C   0  0  0  0  0  0  0  0  0  0  0  0
   52.2847   -4.1973   -6.3895 C   0  0  0  0  0  0  0  0  0  0  0  0
   53.2648   -4.3361   -7.3446 C   0  0  0  0  0  0  0  0  0  0  0  0
   54.5297   -4.8096   -7.2624 C   0  0  0  0  0  0  0  0  0  0  0  0
   55.3191   -5.3012   -6.2248 C   0  0  0  0  0  0  0  0  0  0  0  0
   54.9778   -5.4879   -4.8123 C   0  0  0  0  0  0  0  0  0  0  0  0
   56.1337   -6.0253   -4.1685 N   0  0  0  0  0  0  0  0  0  0  0  0
   57.1716   -6.1638   -5.1611 C   0  0  0  0  0  0  0  0  0  0  0  0
   58.2766   -6.6146   -4.8220 O   0  0  0  0  0  0  0  0  0  0  0  0
   56.6234   -5.7038   -6.4189 C   0  0  0  0  0  0  0  0  0  0  0  0
   57.1862   -5.6217   -7.6981 C   0  0  0  0  0  0  0  0  0  0  0  0
   58.3965   -5.8999   -8.2492 C   0  0  0  0  0  0  0  0  0  0  0  0
   59.5642   -6.3843   -7.7085 C   0  0  0  0  0  0  0  0  0  0  0  0
   60.6883   -6.5549   -8.5271 C   0  0  0  0  0  0  0  0  0  0  0  0
   60.5971   -6.2336   -9.8495 C   0  0  0  0  0  0  0  0  0  0  0  0
   59.4002   -5.7406  -10.3868 C   0  0  0  0  0  0  0  0  0  0  0  0
   58.3029   -5.5736   -9.5972 C   0  0  0  0  0  0  0  0  0  0  0  0
   57.0776   -5.1072   -9.9043 N   0  0  0  0  0  0  0  0  0  0  0  0
   56.3908   -5.1340   -8.7192 C   0  0  0  0  0  0  0  0  0  0  0  0
   55.0952   -4.7363   -8.5045 C   0  0  0  0  0  0  0  0  0  0  0  0
   58.2670   -2.3361  -11.5368 H   0  0  0  0  0  0  0  0  0  0  0  0
   56.2291   -6.2842   -3.1359 H   0  0  0  0  0  0  0  0  0  0  0  0
   56.5340   -2.9636  -12.9552 C   0  0  0  0  0  0  0  0  0  0  0  0
   57.8518   -3.1457  -13.4395 O   0  0  0  0  0  0  0  0  0  0  0  0
   57.8251   -3.0886  -14.4478 H   0  0  0  0  0  0  0  0  0  0  0  0
  2  1  1  0  0  0
  2  3  1  0  0  0
  3  4  1  0  0  0
  4  5  1  0  0  0
  5  6  1  0  0  0
  6  7  1  0  0  0
  6 34  1  0  0  0
 34 35  1  0  0  0
  4  8  1  0  0  0
  8  9  1  0  0  0
  9 10  2  0  0  0
 10 11  1  0  0  0
 11 12  2  0  0  0
 12 13  1  0  0  0
 13 14  2  0  0  0
 14 15  1  0  0  0
 15 16  2  0  0  0
 16 17  1  0  0  0
 17 18  1  0  0  0
 18 19  1  0  0  0
 19 20  2  0  0  0
 19 21  1  0  0  0
 21 22  2  0  0  0
 22 23  1  0  0  0
 23 24  2  0  0  0
 24 25  1  0  0  0
 25 26  2  0  0  0
 26 27  1  0  0  0
 27 28  2  0  0  0
 28 29  1  0  0  0
 29 30  1  0  0  0
 30 31  2  0  0  0
  6  2  1  0  0  0
 31  8  1  0  0  0
 29  2  1  0  0  0
 14  9  1  0  0  0
 31 15  1  0  0  0
 21 16  1  0  0  0
 30 22  1  0  0  0
 28 23  1  0  0  0
  7 32  1  0  0  0
 35 36  1  0  0  0
 18 33  1  0  0  0
M  END
> <minimizedAffinity>
0.73463

> <CNNscore>
0.4620783627

> <CNNaffinity>
6.2907977104

> <CNN_VS>
2.9068415165

> <CNNaffinity_variance>
0.3405265212

$$$$
[H]OC([H])([H])[C@@]1(O[H])C([H])([H])[C@@]2([H])O[C@]1(C([H])([H])[H])n1c3c([H])c([H])c([H])c([H])c3c3c4c(c5c6c([H])c([H])c([H])c([H])c6n2c5c31)C([H])([H])N([H])C4=O


 36 43  0  0  0  0  0  0  0  0999 V2000
   61.7904   -2.3331  -15.4986 C   0  0  0  0  0  0  0  0  0  0  0  0
   61.7941   -3.7400  -14.9082 C   0  0  0  0  0  0  0  0  0  0  0  0
   62.9981   -3.6910  -14.1434 O   0  0  0  0  0  0  0  0  0  0  0  0
   63.5236   -4.9295  -14.0386 C   0  0  0  0  0  0  0  0  0  0  0  0
   63.0010   -5.7802  -15.1637 C   0  0  0  0  0  0  0  0  0  0  0  0
   62.0837   -4.8078  -15.8847 C   0  0  0  0  0  0  0  0  0  0  0  0
   60.9718   -5.5536  -16.2686 O   0  0  0  0  0  0  0  0  0  0  0  0
   63.0453   -5.5035  -12.7797 N   0  0  0  0  0  0  0  0  0  0  0  0
   63.6979   -6.2460  -11.9062 C   0  0  0  0  0  0  0  0  0  0  0  0
   65.0023   -6.6843  -11.8984 C   0  0  0  0  0  0  0  0  0  0  0  0
   65.4446   -7.4700  -10.8367 C   0  0  0  0  0  0  0  0  0  0  0  0
   64.5876   -7.8159   -9.7886 C   0  0  0  0  0  0  0  0  0  0  0  0
   63.2798   -7.3803   -9.7902 C   0  0  0  0  0  0  0  0  0  0  0  0
   62.8651   -6.6056  -10.8484 C   0  0  0  0  0  0  0  0  0  0  0  0
   61.6668   -6.0412  -11.1250 C   0  0  0  0  0  0  0  0  0  0  0  0
   60.4248   -6.0361  -10.4936 C   0  0  0  0  0  0  0  0  0  0  0  0
   60.0254   -6.6690   -9.2341 C   0  0  0  0  0  0  0  0  0  0  0  0
   58.6465   -6.3604   -9.0277 N   0  0  0  0  0  0  0  0  0  0  0  0
   58.1994   -5.5568  -10.1395 C   0  0  0  0  0  0  0  0  0  0  0  0
   57.0207   -5.1711  -10.1717 O   0  0  0  0  0  0  0  0  0  0  0  0
   59.3327   -5.3811  -11.0221 C   0  0  0  0  0  0  0  0  0  0  0  0
   59.4628   -4.6928  -12.2342 C   0  0  0  0  0  0  0  0  0  0  0  0
   58.6380   -3.9726  -13.0385 C   0  0  0  0  0  0  0  0  0  0  0  0
   57.3044   -3.6529  -12.9388 C   0  0  0  0  0  0  0  0  0  0  0  0
   56.6954   -2.8984  -13.9501 C   0  0  0  0  0  0  0  0  0  0  0  0
   57.4446   -2.4969  -15.0167 C   0  0  0  0  0  0  0  0  0  0  0  0
   58.8030   -2.8305  -15.1050 C   0  0  0  0  0  0  0  0  0  0  0  0
   59.4022   -3.5624  -14.1247 C   0  0  0  0  0  0  0  0  0  0  0  0
   60.6723   -3.9978  -14.0224 N   0  0  0  0  0  0  0  0  0  0  0  0
   60.7018   -4.7042  -12.8490 C   0  0  0  0  0  0  0  0  0  0  0  0
   61.7759   -5.3642  -12.3073 C   0  0  0  0  0  0  0  0  0  0  0  0
   60.7551   -5.2771  -17.2029 H   0  0  0  0  0  0  0  0  0  0  0  0
   58.0394   -6.6631   -8.2017 H   0  0  0  0  0  0  0  0  0  0  0  0
   62.8629   -4.3028  -17.0732 C   0  0  0  0  0  0  0  0  0  0  0  0
   63.7407   -5.3481  -17.4489 O   0  0  0  0  0  0  0  0  0  0  0  0
   64.1727   -5.0936  -18.3259 H   0  0  0  0  0  0  0  0  0  0  0  0
  2  1  1  0  0  0
  2  3  1  0  0  0
  3  4  1  0  0  0
  4  5  1  0  0  0
  5  6  1  0  0  0
  6  7  1  0  0  0
  6 34  1  0  0  0
 34 35  1  0  0  0
  4  8  1  0  0  0
  8  9  1  0  0  0
  9 10  2  0  0  0
 10 11  1  0  0  0
 11 12  2  0  0  0
 12 13  1  0  0  0
 13 14  2  0  0  0
 14 15  1  0  0  0
 15 16  2  0  0  0
 16 17  1  0  0  0
 17 18  1  0  0  0
 18 19  1  0  0  0
 19 20  2  0  0  0
 19 21  1  0  0  0
 21 22  2  0  0  0
 22 23  1  0  0  0
 23 24  2  0  0  0
 24 25  1  0  0  0
 25 26  2  0  0  0
 26 27  1  0  0  0
 27 28  2  0  0  0
 28 29  1  0  0  0
 29 30  1  0  0  0
 30 31  2  0  0  0
  6  2  1  0  0  0
 31  8  1  0  0  0
 29  2  1  0  0  0
 14  9  1  0  0  0
 31 15  1  0  0  0
 21 16  1  0  0  0
 30 22  1  0  0  0
 28 23  1  0  0  0
  7 32  1  0  0  0
 35 36  1  0  0  0
 18 33  1  0  0  0
M  END
> <minimizedAffinity>
3.07168

> <CNNscore>
0.4136690795

> <CNNaffinity>
4.6110816002

> <CNN_VS>
1.9074618816

> <CNNaffinity_variance>
0.1367886513

$$$$
[H]OC([H])([H])[C@@]1(O[H])C([H])([H])[C@@]2([H])O[C@]1(C([H])([H])[H])n1c3c([H])c([H])c([H])c([H])c3c3c4c(c5c6c([H])c([H])c([H])c([H])c6n2c5c31)C([H])([H])N([H])C4=O


 36 43  0  0  0  0  0  0  0  0999 V2000
   52.9704   -4.2567  -10.6817 C   0  0  0  0  0  0  0  0  0  0  0  0
   53.9509   -4.0050   -9.5401 C   0  0  0  0  0  0  0  0  0  0  0  0
   53.5043   -4.9835   -8.6019 O   0  0  0  0  0  0  0  0  0  0  0  0
   53.7791   -4.5717   -7.3465 C   0  0  0  0  0  0  0  0  0  0  0  0
   53.9340   -3.0755   -7.3445 C   0  0  0  0  0  0  0  0  0  0  0  0
   53.7234   -2.7421   -8.8113 C   0  0  0  0  0  0  0  0  0  0  0  0
   54.6405   -1.7356   -9.1039 O   0  0  0  0  0  0  0  0  0  0  0  0
   55.0646   -5.1585   -6.9642 N   0  0  0  0  0  0  0  0  0  0  0  0
   55.4338   -5.6608   -5.8017 C   0  0  0  0  0  0  0  0  0  0  0  0
   54.7369   -5.8025   -4.6235 C   0  0  0  0  0  0  0  0  0  0  0  0
   55.3748   -6.3760   -3.5262 C   0  0  0  0  0  0  0  0  0  0  0  0
   56.7021   -6.8055   -3.6059 C   0  0  0  0  0  0  0  0  0  0  0  0
   57.4060   -6.6665   -4.7828 C   0  0  0  0  0  0  0  0  0  0  0  0
   56.7561   -6.0977   -5.8533 C   0  0  0  0  0  0  0  0  0  0  0  0
   57.1740   -5.8338   -7.1129 C   0  0  0  0  0  0  0  0  0  0  0  0
   58.3781   -6.0014   -7.7937 C   0  0  0  0  0  0  0  0  0  0  0  0
   59.6368   -6.5801   -7.3170 C   0  0  0  0  0  0  0  0  0  0  0  0
   60.5627   -6.5236   -8.4027 N   0  0  0  0  0  0  0  0  0  0  0  0
   59.8927   -5.9175   -9.5276 C   0  0  0  0  0  0  0  0  0  0  0  0
   60.5137   -5.7638  -10.5905 O   0  0  0  0  0  0  0  0  0  0  0  0
   58.5429   -5.6103   -9.1055 C   0  0  0  0  0  0  0  0  0  0  0  0
   57.4712   -5.0239   -9.7891 C   0  0  0  0  0  0  0  0  0  0  0  0
   57.2699   -4.5180  -11.0338 C   0  0  0  0  0  0  0  0  0  0  0  0
   58.1012   -4.3935  -12.1220 C   0  0  0  0  0  0  0  0  0  0  0  0
   57.6215   -3.7981  -13.2959 C   0  0  0  0  0  0  0  0  0  0  0  0
   56.3329   -3.3527  -13.3315 C   0  0  0  0  0  0  0  0  0  0  0  0
   55.4969   -3.4860  -12.2144 C   0  0  0  0  0  0  0  0  0  0  0  0
   55.9561   -4.0652  -11.0703 C   0  0  0  0  0  0  0  0  0  0  0  0
   55.3329   -4.2753   -9.8952 N   0  0  0  0  0  0  0  0  0  0  0  0
   56.2812   -4.8655   -9.1020 C   0  0  0  0  0  0  0  0  0  0  0  0
   56.1384   -5.2596   -7.7954 C   0  0  0  0  0  0  0  0  0  0  0  0
   54.1548   -1.0636   -9.6595 H   0  0  0  0  0  0  0  0  0  0  0  0
   61.5755   -6.8653   -8.3988 H   0  0  0  0  0  0  0  0  0  0  0  0
   52.2991   -2.2601   -8.9289 C   0  0  0  0  0  0  0  0  0  0  0  0
   51.6268   -2.7135   -7.7684 O   0  0  0  0  0  0  0  0  0  0  0  0
   50.7113   -2.2867   -7.7506 H   0  0  0  0  0  0  0  0  0  0  0  0
  2  1  1  0  0  0
  2  3  1  0  0  0
  3  4  1  0  0  0
  4  5  1  0  0  0
  5  6  1  0  0  0
  6  7  1  0  0  0
  6 34  1  0  0  0
 34 35  1  0  0  0
  4  8  1  0  0  0
  8  9  1  0  0  0
  9 10  2  0  0  0
 10 11  1  0  0  0
 11 12  2  0  0  0
 12 13  1  0  0  0
 13 14  2  0  0  0
 14 15  1  0  0  0
 15 16  2  0  0  0
 16 17  1  0  0  0
 17 18  1  0  0  0
 18 19  1  0  0  0
 19 20  2  0  0  0
 19 21  1  0  0  0
 21 22  2  0  0  0
 22 23  1  0  0  0
 23 24  2  0  0  0
 24 25  1  0  0  0
 25 26  2  0  0  0
 26 27  1  0  0  0
 27 28  2  0  0  0
 28 29  1  0  0  0
 29 30  1  0  0  0
 30 31  2  0  0  0
  6  2  1  0  0  0
 31  8  1  0  0  0
 29  2  1  0  0  0
 14  9  1  0  0  0
 31 15  1  0  0  0
 21 16  1  0  0  0
 30 22  1  0  0  0
 28 23  1  0  0  0
  7 32  1  0  0  0
 35 36  1  0  0  0
 18 33  1  0  0  0
M  END
> <minimizedAffinity>
-4.02499

> <CNNscore>
0.3785289228

> <CNNaffinity>
5.9931364059

> <CNN_VS>
2.2685754299

> <CNNaffinity_variance>
0.1478885710

$$$$
[H]OC([H])([H])[C@@]1(O[H])C([H])([H])[C@@]2([H])O[C@]1(C([H])([H])[H])n1c3c([H])c([H])c([H])c([H])c3c3c4c(c5c6c([H])c([H])c([H])c([H])c6n2c5c31)C([H])([H])N([H])C4=O


 36 43  0  0  0  0  0  0  0  0999 V2000
   64.2226   -7.2515   -9.9456 C   0  0  0  0  0  0  0  0  0  0  0  0
   63.7147   -8.4455   -9.1428 C   0  0  0  0  0  0  0  0  0  0  0  0
   64.8498   -8.6954   -8.3145 O   0  0  0  0  0  0  0  0  0  0  0  0
   64.8931  -10.0023   -7.9808 C   0  0  0  0  0  0  0  0  0  0  0  0
   64.1076  -10.7922   -8.9916 C   0  0  0  0  0  0  0  0  0  0  0  0
   63.6076   -9.6970   -9.9174 C   0  0  0  0  0  0  0  0  0  0  0  0
   62.3046  -10.0551  -10.2548 O   0  0  0  0  0  0  0  0  0  0  0  0
   64.2308  -10.1454   -6.6832 N   0  0  0  0  0  0  0  0  0  0  0  0
   64.5654  -10.9095   -5.6613 C   0  0  0  0  0  0  0  0  0  0  0  0
   65.6243  -11.7727   -5.4954 C   0  0  0  0  0  0  0  0  0  0  0  0
   65.7458  -12.4700   -4.2957 C   0  0  0  0  0  0  0  0  0  0  0  0
   64.8139  -12.3055   -3.2675 C   0  0  0  0  0  0  0  0  0  0  0  0
   63.7509  -11.4426   -3.4271 C   0  0  0  0  0  0  0  0  0  0  0  0
   63.6511  -10.7647   -4.6198 C   0  0  0  0  0  0  0  0  0  0  0  0
   62.7387   -9.8691   -5.0630 C   0  0  0  0  0  0  0  0  0  0  0  0
   61.5772   -9.3170   -4.5269 C   0  0  0  0  0  0  0  0  0  0  0  0
   60.9672   -9.5422   -3.2140 C   0  0  0  0  0  0  0  0  0  0  0  0
   59.7905   -8.7353   -3.1536 N   0  0  0  0  0  0  0  0  0  0  0  0
   59.6713   -8.0285   -4.4058 C   0  0  0  0  0  0  0  0  0  0  0  0
   58.7109   -7.2624   -4.5789 O   0  0  0  0  0  0  0  0  0  0  0  0
   60.7984   -8.4189   -5.2253 C   0  0  0  0  0  0  0  0  0  0  0  0
   61.1768   -8.0394   -6.5186 C   0  0  0  0  0  0  0  0  0  0  0  0
   60.6729   -7.2230   -7.4806 C   0  0  0  0  0  0  0  0  0  0  0  0
   59.5433   -6.4403   -7.5241 C   0  0  0  0  0  0  0  0  0  0  0  0
   59.2545   -5.7041   -8.6806 C   0  0  0  0  0  0  0  0  0  0  0  0
   60.1061   -5.7825   -9.7430 C   0  0  0  0  0  0  0  0  0  0  0  0
   61.2537   -6.5848   -9.6846 C   0  0  0  0  0  0  0  0  0  0  0  0
   61.5416   -7.3020   -8.5628 C   0  0  0  0  0  0  0  0  0  0  0  0
   62.5688   -8.1341   -8.3066 N   0  0  0  0  0  0  0  0  0  0  0  0
   62.3331   -8.5933   -7.0376 C   0  0  0  0  0  0  0  0  0  0  0  0
   63.0932   -9.4875   -6.3266 C   0  0  0  0  0  0  0  0  0  0  0  0
   62.2091   -9.8841  -11.2335 H   0  0  0  0  0  0  0  0  0  0  0  0
   59.1089   -8.6576   -2.3340 H   0  0  0  0  0  0  0  0  0  0  0  0
   64.5253   -9.7116  -11.1142 C   0  0  0  0  0  0  0  0  0  0  0  0
   65.7516  -10.2629  -10.6706 O   0  0  0  0  0  0  0  0  0  0  0  0
   66.3363  -10.4165  -11.4801 H   0  0  0  0  0  0  0  0  0  0  0  0
  2  1  1  0  0  0
  2  3  1  0  0  0
  3  4  1  0  0  0
  4  5  1  0  0  0
  5  6  1  0  0  0
  6  7  1  0  0  0
  6 34  1  0  0  0
 34 35  1  0  0  0
  4  8  1  0  0  0
  8  9  1  0  0  0
  9 10  2  0  0  0
 10 11  1  0  0  0
 11 12  2  0  0  0
 12 13  1  0  0  0
 13 14  2  0  0  0
 14 15  1  0  0  0
 15 16  2  0  0  0
 16 17  1  0  0  0
 17 18  1  0  0  0
 18 19  1  0  0  0
 19 20  2  0  0  0
 19 21  1  0  0  0
 21 22  2  0  0  0
 22 23  1  0  0  0
 23 24  2  0  0  0
 24 25  1  0  0  0
 25 26  2  0  0  0
 26 27  1  0  0  0
 27 28  2  0  0  0
 28 29  1  0  0  0
 29 30  1  0  0  0
 30 31  2  0  0  0
  6  2  1  0  0  0
 31  8  1  0  0  0
 29  2  1  0  0  0
 14  9  1  0  0  0
 31 15  1  0  0  0
 21 16  1  0  0  0
 30 22  1  0  0  0
 28 23  1  0  0  0
  7 32  1  0  0  0
 35 36  1  0  0  0
 18 33  1  0  0  0
M  END
> <minimizedAffinity>
-1.13100

> <CNNscore>
0.2873511910

> <CNNaffinity>
4.6304717064

> <CNN_VS>
1.3305715322

> <CNNaffinity_variance>
0.3212337494

$$$$
[H]OC([H])([H])[C@@]1(O[H])C([H])([H])[C@@]2([H])O[C@]1(C([H])([H])[H])n1c3c([H])c([H])c([H])c([H])c3c3c4c(c5c6c([H])c([H])c([H])c([H])c6n2c5c31)C([H])([H])N([H])C4=O


 36 43  0  0  0  0  0  0  0  0999 V2000
   54.5083   -2.3743   -8.2175 C   0  0  0  0  0  0  0  0  0  0  0  0
   54.4892   -3.8142   -7.7132 C   0  0  0  0  0  0  0  0  0  0  0  0
   55.6484   -3.8068   -6.8807 O   0  0  0  0  0  0  0  0  0  0  0  0
   56.1761   -5.0474   -6.8211 C   0  0  0  0  0  0  0  0  0  0  0  0
   55.7230   -5.8307   -8.0226 C   0  0  0  0  0  0  0  0  0  0  0  0
   54.8403   -4.8202   -8.7342 C   0  0  0  0  0  0  0  0  0  0  0  0
   53.7568   -5.5457   -9.2237 O   0  0  0  0  0  0  0  0  0  0  0  0
   55.6327   -5.6979   -5.6276 N   0  0  0  0  0  0  0  0  0  0  0  0
   56.2410   -6.4892   -4.7650 C   0  0  0  0  0  0  0  0  0  0  0  0
   57.5461   -6.9222   -4.7105 C   0  0  0  0  0  0  0  0  0  0  0  0
   57.9342   -7.7688   -3.6747 C   0  0  0  0  0  0  0  0  0  0  0  0
   57.0228   -8.1804   -2.6987 C   0  0  0  0  0  0  0  0  0  0  0  0
   55.7140   -7.7505   -2.7474 C   0  0  0  0  0  0  0  0  0  0  0  0
   55.3532   -6.9151   -3.7789 C   0  0  0  0  0  0  0  0  0  0  0  0
   54.1682   -6.3395   -4.0877 C   0  0  0  0  0  0  0  0  0  0  0  0
   52.8930   -6.3772   -3.5276 C   0  0  0  0  0  0  0  0  0  0  0  0
   52.4287   -7.0863   -2.3326 C   0  0  0  0  0  0  0  0  0  0  0  0
   51.0383   -6.7959   -2.1855 N   0  0  0  0  0  0  0  0  0  0  0  0
   50.6480   -5.9285   -3.2705 C   0  0  0  0  0  0  0  0  0  0  0  0
   49.4702   -5.5461   -3.3454 O   0  0  0  0  0  0  0  0  0  0  0  0
   51.8273   -5.6957   -4.0763 C   0  0  0  0  0  0  0  0  0  0  0  0
   52.0197   -4.9351   -5.2357 C   0  0  0  0  0  0  0  0  0  0  0  0
   51.2358   -4.1710   -6.0403 C   0  0  0  0  0  0  0  0  0  0  0  0
   49.8965   -3.8629   -5.9964 C   0  0  0  0  0  0  0  0  0  0  0  0
   49.3392   -3.0512   -6.9932 C   0  0  0  0  0  0  0  0  0  0  0  0
   50.1438   -2.5834   -7.9902 C   0  0  0  0  0  0  0  0  0  0  0  0
   51.5073   -2.9059   -8.0222 C   0  0  0  0  0  0  0  0  0  0  0  0
   52.0562   -3.6932   -7.0556 C   0  0  0  0  0  0  0  0  0  0  0  0
   53.3218   -4.1291   -6.9086 N   0  0  0  0  0  0  0  0  0  0  0  0
   53.2910   -4.9048   -5.7798 C   0  0  0  0  0  0  0  0  0  0  0  0
   54.3380   -5.5922   -5.2194 C   0  0  0  0  0  0  0  0  0  0  0  0
   53.5904   -5.2143  -10.1504 H   0  0  0  0  0  0  0  0  0  0  0  0
   50.3884   -7.1501   -1.4145 H   0  0  0  0  0  0  0  0  0  0  0  0
   55.6808   -4.2416   -9.8448 C   0  0  0  0  0  0  0  0  0  0  0  0
   56.8672   -5.0126   -9.8912 O   0  0  0  0  0  0  0  0  0  0  0  0
   57.3852   -4.7402  -10.7148 H   0  0  0  0  0  0  0  0  0  0  0  0
  2  1  1  0  0  0
  2  3  1  0  0  0
  3  4  1  0  0  0
  4  5  1  0  0  0
  5  6  1  0  0  0
  6  7  1  0  0  0
  6 34  1  0  0  0
 34 35  1  0  0  0
  4  8  1  0  0  0
  8  9  1  0  0  0
  9 10  2  0  0  0
 10 11  1  0  0  0
 11 12  2  0  0  0
 12 13  1  0  0  0
 13 14  2  0  0  0
 14 15  1  0  0  0
 15 16  2  0  0  0
 16 17  1  0  0  0
 17 18  1  0  0  0
 18 19  1  0  0  0
 19 20  2  0  0  0
 19 21  1  0  0  0
 21 22  2  0  0  0
 22 23  1  0  0  0
 23 24  2  0  0  0
 24 25  1  0  0  0
 25 26  2  0  0  0
 26 27  1  0  0  0
 27 28  2  0  0  0
 28 29  1  0  0  0
 29 30  1  0  0  0
 30 31  2  0  0  0
  6  2  1  0  0  0
 31  8  1  0  0  0
 29  2  1  0  0  0
 14  9  1  0  0  0
 31 15  1  0  0  0
 21 16  1  0  0  0
 30 22  1  0  0  0
 28 23  1  0  0  0
  7 32  1  0  0  0
 35 36  1  0  0  0
 18 33  1  0  0  0
M  END
> <minimizedAffinity>
-7.89137

> <CNNscore>
0.2723185718

> <CNNaffinity>
6.5592637062

> <CNN_VS>
1.7862093449

> <CNNaffinity_variance>
0.2276988029

$$$$
[H]OC([H])([H])[C@@]1(O[H])C([H])([H])[C@@]2([H])O[C@]1(C([H])([H])[H])n1c3c([H])c([H])c([H])c([H])c3c3c4c(c5c6c([H])c([H])c([H])c([H])c6n2c5c31)C([H])([H])N([H])C4=O


 36 43  0  0  0  0  0  0  0  0999 V2000
   52.0036   -4.0645   -7.4431 C   0  0  0  0  0  0  0  0  0  0  0  0
   52.8713   -5.2249   -6.9651 C   0  0  0  0  0  0  0  0  0  0  0  0
   54.1665   -4.7279   -7.3003 O   0  0  0  0  0  0  0  0  0  0  0  0
   55.0029   -5.7588   -7.5425 C   0  0  0  0  0  0  0  0  0  0  0  0
   54.1921   -6.9724   -7.9065 C   0  0  0  0  0  0  0  0  0  0  0  0
   52.7741   -6.4394   -7.7979 C   0  0  0  0  0  0  0  0  0  0  0  0
   52.0276   -7.4687   -7.2293 O   0  0  0  0  0  0  0  0  0  0  0  0
   55.7137   -6.0487   -6.2961 N   0  0  0  0  0  0  0  0  0  0  0  0
   56.9793   -6.3767   -6.1204 C   0  0  0  0  0  0  0  0  0  0  0  0
   58.0020   -6.5257   -7.0290 C   0  0  0  0  0  0  0  0  0  0  0  0
   59.2670   -6.8847   -6.5695 C   0  0  0  0  0  0  0  0  0  0  0  0
   59.5084   -7.0938   -5.2091 C   0  0  0  0  0  0  0  0  0  0  0  0
   58.4885   -6.9463   -4.2936 C   0  0  0  0  0  0  0  0  0  0  0  0
   57.2479   -6.5912   -4.7699 C   0  0  0  0  0  0  0  0  0  0  0  0
   56.0750   -6.3760   -4.1305 C   0  0  0  0  0  0  0  0  0  0  0  0
   55.6645   -6.4465   -2.8008 C   0  0  0  0  0  0  0  0  0  0  0  0
   56.4482   -6.7759   -1.6076 C   0  0  0  0  0  0  0  0  0  0  0  0
   55.5619   -6.7049   -0.4902 N   0  0  0  0  0  0  0  0  0  0  0  0
   54.2544   -6.3438   -0.9820 C   0  0  0  0  0  0  0  0  0  0  0  0
   53.3170   -6.2258   -0.1779 O   0  0  0  0  0  0  0  0  0  0  0  0
   54.3645   -6.1941   -2.4172 C   0  0  0  0  0  0  0  0  0  0  0  0
   53.4141   -5.8534   -3.3870 C   0  0  0  0  0  0  0  0  0  0  0  0
   52.0872   -5.5620   -3.3899 C   0  0  0  0  0  0  0  0  0  0  0  0
   51.1563   -5.5008   -2.3798 C   0  0  0  0  0  0  0  0  0  0  0  0
   49.8241   -5.1908   -2.6830 C   0  0  0  0  0  0  0  0  0  0  0  0
   49.4799   -4.9560   -3.9817 C   0  0  0  0  0  0  0  0  0  0  0  0
   50.4395   -5.0221   -5.0011 C   0  0  0  0  0  0  0  0  0  0  0  0
   51.7369   -5.3215   -4.7134 C   0  0  0  0  0  0  0  0  0  0  0  0
   52.7985   -5.4487   -5.5320 N   0  0  0  0  0  0  0  0  0  0  0  0
   53.8357   -5.7850   -4.7026 C   0  0  0  0  0  0  0  0  0  0  0  0
   55.1342   -6.0422   -5.0640 C   0  0  0  0  0  0  0  0  0  0  0  0
   51.1690   -7.5085   -7.7366 H   0  0  0  0  0  0  0  0  0  0  0  0
   55.8077   -6.8844    0.5343 H   0  0  0  0  0  0  0  0  0  0  0  0
   52.3340   -6.1347   -9.2079 C   0  0  0  0  0  0  0  0  0  0  0  0
   51.6291   -7.2756   -9.6617 O   0  0  0  0  0  0  0  0  0  0  0  0
   51.2016   -7.0469  -10.5480 H   0  0  0  0  0  0  0  0  0  0  0  0
  2  1  1  0  0  0
  2  3  1  0  0  0
  3  4  1  0  0  0
  4  5  1  0  0  0
  5  6  1  0  0  0
  6  7  1  0  0  0
  6 34  1  0  0  0
 34 35  1  0  0  0
  4  8  1  0  0  0
  8  9  1  0  0  0
  9 10  2  0  0  0
 10 11  1  0  0  0
 11 12  2  0  0  0
 12 13  1  0  0  0
 13 14  2  0  0  0
 14 15  1  0  0  0
 15 16  2  0  0  0
 16 17  1  0  0  0
 17 18  1  0  0  0
 18 19  1  0  0  0
 19 20  2  0  0  0
 19 21  1  0  0  0
 21 22  2  0  0  0
 22 23  1  0  0  0
 23 24  2  0  0  0
 24 25  1  0  0  0
 25 26  2  0  0  0
 26 27  1  0  0  0
 27 28  2  0  0  0
 28 29  1  0  0  0
 29 30  1  0  0  0
 30 31  2  0  0  0
  6  2  1  0  0  0
 31  8  1  0  0  0
 29  2  1  0  0  0
 14  9  1  0  0  0
 31 15  1  0  0  0
 21 16  1  0  0  0
 30 22  1  0  0  0
 28 23  1  0  0  0
  7 32  1  0  0  0
 35 36  1  0  0  0
 18 33  1  0  0  0
M  END
> <minimizedAffinity>
7.36129

> <CNNscore>
0.2425795645

> <CNNaffinity>
5.6989564896

> <CNN_VS>
1.3824503422

> <CNNaffinity_variance>
0.4175254703

$$$$
[H]OC([H])([H])[C@@]1(O[H])C([H])([H])[C@@]2([H])O[C@]1(C([H])([H])[H])n1c3c([H])c([H])c([H])c([H])c3c3c4c(c5c6c([H])c([H])c([H])c([H])c6n2c5c31)C([H])([H])N([H])C4=O


 36 43  0  0  0  0  0  0  0  0999 V2000
   55.1290   -8.8538   -3.7905 C   0  0  0  0  0  0  0  0  0  0  0  0
   54.9167   -7.3951   -4.1843 C   0  0  0  0  0  0  0  0  0  0  0  0
   55.0016   -7.5010   -5.6050 O   0  0  0  0  0  0  0  0  0  0  0  0
   55.4476   -6.3379   -6.1241 C   0  0  0  0  0  0  0  0  0  0  0  0
   56.1896   -5.5784   -5.0585 C   0  0  0  0  0  0  0  0  0  0  0  0
   56.0524   -6.5083   -3.8654 C   0  0  0  0  0  0  0  0  0  0  0  0
   55.8446   -5.6804   -2.7649 O   0  0  0  0  0  0  0  0  0  0  0  0
   54.2745   -5.5497   -6.5055 N   0  0  0  0  0  0  0  0  0  0  0  0
   54.0953   -4.7919   -7.5703 C   0  0  0  0  0  0  0  0  0  0  0  0
   54.9269   -4.5290   -8.6347 C   0  0  0  0  0  0  0  0  0  0  0  0
   54.4838   -3.6773   -9.6439 C   0  0  0  0  0  0  0  0  0  0  0  0
   53.2164   -3.0914   -9.5893 C   0  0  0  0  0  0  0  0  0  0  0  0
   52.3784   -3.3503   -8.5260 C   0  0  0  0  0  0  0  0  0  0  0  0
   52.8367   -4.1943   -7.5413 C   0  0  0  0  0  0  0  0  0  0  0  0
   52.2572   -4.6296   -6.3987 C   0  0  0  0  0  0  0  0  0  0  0  0
   51.0330   -4.3924   -5.7770 C   0  0  0  0  0  0  0  0  0  0  0  0
   49.9159   -3.5563   -6.2238 C   0  0  0  0  0  0  0  0  0  0  0  0
   48.8945   -3.6545   -5.2308 N   0  0  0  0  0  0  0  0  0  0  0  0
   49.3712   -4.5296   -4.1874 C   0  0  0  0  0  0  0  0  0  0  0  0
   48.6415   -4.7602   -3.2109 O   0  0  0  0  0  0  0  0  0  0  0  0
   50.6988   -4.9628   -4.5671 C   0  0  0  0  0  0  0  0  0  0  0  0
   51.6116   -5.8123   -3.9307 C   0  0  0  0  0  0  0  0  0  0  0  0
   51.6399   -6.5168   -2.7694 C   0  0  0  0  0  0  0  0  0  0  0  0
   50.7274   -6.6455   -1.7489 C   0  0  0  0  0  0  0  0  0  0  0  0
   51.0391   -7.4384   -0.6367 C   0  0  0  0  0  0  0  0  0  0  0  0
   52.2485   -8.0674   -0.5922 C   0  0  0  0  0  0  0  0  0  0  0  0
   53.1689   -7.9269   -1.6398 C   0  0  0  0  0  0  0  0  0  0  0  0
   52.8719   -7.1589   -2.7250 C   0  0  0  0  0  0  0  0  0  0  0  0
   53.6082   -6.8823   -3.8180 N   0  0  0  0  0  0  0  0  0  0  0  0
   52.8220   -6.0407   -4.5600 C   0  0  0  0  0  0  0  0  0  0  0  0
   53.1363   -5.4613   -5.7634 C   0  0  0  0  0  0  0  0  0  0  0  0
   56.4097   -6.0442   -2.0270 H   0  0  0  0  0  0  0  0  0  0  0  0
   47.9408   -3.1720   -5.2433 H   0  0  0  0  0  0  0  0  0  0  0  0
   57.3571   -7.2586   -3.7695 C   0  0  0  0  0  0  0  0  0  0  0  0
   58.0500   -7.0115   -4.9791 O   0  0  0  0  0  0  0  0  0  0  0  0
   58.9847   -7.3834   -4.8856 H   0  0  0  0  0  0  0  0  0  0  0  0
  2  1  1  0  0  0
  2  3  1  0  0  0
  3  4  1  0  0  0
  4  5  1  0  0  0
  5  6  1  0  0  0
  6  7  1  0  0  0
  6 34  1  0  0  0
 34 35  1  0  0  0
  4  8  1  0  0  0
  8  9  1  0  0  0
  9 10  2  0  0  0
 10 11  1  0  0  0
 11 12  2  0  0  0
 12 13  1  0  0  0
 13 14  2  0  0  0
 14 15  1  0  0  0
 15 16  2  0  0  0
 16 17  1  0  0  0
 17 18  1  0  0  0
 18 19  1  0  0  0
 19 20  2  0  0  0
 19 21  1  0  0  0
 21 22  2  0  0  0
 22 23  1  0  0  0
 23 24  2  0  0  0
 24 25  1  0  0  0
 25 26  2  0  0  0
 26 27  1  0  0  0
 27 28  2  0  0  0
 28 29  1  0  0  0
 29 30  1  0  0  0
 30 31  2  0  0  0
  6  2  1  0  0  0
 31  8  1  0  0  0
 29  2  1  0  0  0
 14  9  1  0  0  0
 31 15  1  0  0  0
 21 16  1  0  0  0
 30 22  1  0  0  0
 28 23  1  0  0  0
  7 32  1  0  0  0
 35 36  1  0  0  0
 18 33  1  0  0  0
M  END
> <minimizedAffinity>
-12.65747

> <CNNscore>
0.2196190953

> <CNNaffinity>
6.2294907570

> <CNN_VS>
1.3681150675

> <CNNaffinity_variance>
0.3495102525

$$$$
[H]c1nc(N([H])c2c([H])c([H])c(C(=O)N([H])C3([H])C([H])([H])C([H])([H])N(C([H])([H])[H])C([H])([H])C3([H])[H])c([H])c2OC([H])([H])[H])nc2c1N(C([H])([H])[H])C(=O)[C@@]([H])(C([H])([H])[H])N2C1([H])C([H])([H])C([H])([H])C([H])([H])C1([H])[H]


 39 43  0  0  0  0  0  0  0  0999 V2000
   55.0165   -3.4554  -10.2752 N   0  0  0  0  0  0  0  0  0  0  0  0
   54.8927   -2.9436  -11.2042 H   0  0  0  0  0  0  0  0  0  0  0  0
   53.9161   -3.3936   -9.3852 C   0  0  0  0  0  0  0  0  0  0  0  0
   52.9313   -2.5118   -9.4099 N   0  0  0  0  0  0  0  0  0  0  0  0
   51.9010   -2.4768   -8.5679 C   0  0  0  0  0  0  0  0  0  0  0  0
   51.8621   -3.4628   -7.5708 C   0  0  0  0  0  0  0  0  0  0  0  0
   50.7732   -3.4684   -6.6639 N   0  0  0  0  0  0  0  0  0  0  0  0
   49.7053   -2.4633   -6.7364 C   0  0  0  0  0  0  0  0  0  0  0  0
   50.7658   -4.4916   -5.6806 C   0  0  0  0  0  0  0  0  0  0  0  0
   50.0567   -4.3241   -4.6312 O   0  0  0  0  0  0  0  0  0  0  0  0
   51.5670   -5.7272   -5.8775 C   0  0  0  0  0  0  0  0  0  0  0  0
   50.7313   -6.6441   -6.7319 C   0  0  0  0  0  0  0  0  0  0  0  0
   52.8529   -5.4338   -6.4648 N   0  0  0  0  0  0  0  0  0  0  0  0
   52.8554   -4.4095   -7.4884 C   0  0  0  0  0  0  0  0  0  0  0  0
   53.8343   -4.3401   -8.3897 N   0  0  0  0  0  0  0  0  0  0  0  0
   54.0932   -6.0218   -6.1520 C   0  0  0  0  0  0  0  0  0  0  0  0
   55.1284   -5.1038   -5.5497 C   0  0  0  0  0  0  0  0  0  0  0  0
   56.2839   -6.1169   -5.4574 C   0  0  0  0  0  0  0  0  0  0  0  0
   55.5838   -7.3680   -4.9768 C   0  0  0  0  0  0  0  0  0  0  0  0
   54.0756   -7.0983   -5.0880 C   0  0  0  0  0  0  0  0  0  0  0  0
   57.1101   -4.2887  -11.1432 C   0  0  0  0  0  0  0  0  0  0  0  0
   58.3061   -4.9428  -10.9740 C   0  0  0  0  0  0  0  0  0  0  0  0
   58.7182   -5.4601   -9.7827 C   0  0  0  0  0  0  0  0  0  0  0  0
   57.8695   -5.3036   -8.7109 C   0  0  0  0  0  0  0  0  0  0  0  0
   56.6464   -4.6407   -8.8614 C   0  0  0  0  0  0  0  0  0  0  0  0
   56.2237   -4.1188  -10.0456 C   0  0  0  0  0  0  0  0  0  0  0  0
   59.9967   -6.1287   -9.6340 C   0  0  0  0  0  0  0  0  0  0  0  0
   60.8060   -6.0919  -10.5918 O   0  0  0  0  0  0  0  0  0  0  0  0
   60.3102   -6.7961   -8.4511 N   0  0  0  0  0  0  0  0  0  0  0  0
   59.6186   -6.8143   -7.6671 H   0  0  0  0  0  0  0  0  0  0  0  0
   61.5528   -7.4940   -8.1912 C   0  0  0  0  0  0  0  0  0  0  0  0
   61.5013   -8.9117   -8.7550 C   0  0  0  0  0  0  0  0  0  0  0  0
   62.9300   -9.4218   -8.6693 C   0  0  0  0  0  0  0  0  0  0  0  0
   63.3695   -9.5169   -7.2932 N   0  0  0  0  0  0  0  0  0  0  0  0
   62.8178  -10.6720   -6.6196 C   0  0  0  0  0  0  0  0  0  0  0  0
   63.2192   -8.2909   -6.5688 C   0  0  0  0  0  0  0  0  0  0  0  0
   61.9276   -7.5758   -6.7558 C   0  0  0  0  0  0  0  0  0  0  0  0
   56.4518   -4.5637  -13.4950 C   0  0  0  0  0  0  0  0  0  0  0  0
   56.7122   -3.7759  -12.3491 O   0  0  0  0  0  0  0  0  0  0  0  0
 38 39  1  0  0  0
 39 21  1  0  0  0
 21 22  2  0  0  0
 22 23  1  0  0  0
 23 24  2  0  0  0
 24 25  1  0  0  0
 25 26  2  0  0  0
 26  1  1  0  0  0
  1  3  1  0  0  0
  3  4  2  0  0  0
  4  5  1  0  0  0
  5  6  2  0  0  0
  6  7  1  0  0  0
  7  8  1  0  0  0
  7  9  1  0  0  0
  9 10  2  0  0  0
  9 11  1  0  0  0
 11 12  1  0  0  0
 11 13  1  0  0  0
 13 16  1  0  0  0
 16 17  1  0  0  0
 17 18  1  0  0  0
 18 19  1  0  0  0
 19 20  1  0  0  0
 13 14  1  0  0  0
 14 15  2  0  0  0
 23 27  1  0  0  0
 27 28  2  0  0  0
 27 29  1  0  0  0
 29 31  1  0  0  0
 31 32  1  0  0  0
 32 33  1  0  0  0
 33 34  1  0  0  0
 34 35  1  0  0  0
 34 36  1  0  0  0
 36 37  1  0  0  0
 26 21  1  0  0  0
 15  3  1  0  0  0
 37 31  1  0  0  0
 14  6  1  0  0  0
 20 16  1  0  0  0
  1  2  1  0  0  0
 29 30  1  0  0  0
M  END
> <minimizedAffinity>
-11.21203

> <CNNscore>
0.9916049242

> <CNNaffinity>
8.2631177902

> <CNN_VS>
8.1937484741

> <CNNaffinity_variance>
0.0222621821

$$$$
[H]c1nc(N([H])c2c([H])c([H])c(C(=O)N([H])C3([H])C([H])([H])C([H])([H])N(C([H])([H])[H])C([H])([H])C3([H])[H])c([H])c2OC([H])([H])[H])nc2c1N(C([H])([H])[H])C(=O)[C@@]([H])(C([H])([H])[H])N2C1([H])C([H])([H])C([H])([H])C([H])([H])C1([H])[H]


 39 43  0  0  0  0  0  0  0  0999 V2000
   54.7841   -2.8080   -9.6226 N   0  0  0  0  0  0  0  0  0  0  0  0
   54.8239   -1.9459  -10.2516 H   0  0  0  0  0  0  0  0  0  0  0  0
   53.6064   -2.9532   -8.8487 C   0  0  0  0  0  0  0  0  0  0  0  0
   52.5155   -2.2105   -8.9270 N   0  0  0  0  0  0  0  0  0  0  0  0
   51.4152   -2.3696   -8.1950 C   0  0  0  0  0  0  0  0  0  0  0  0
   51.4194   -3.4172   -7.2620 C   0  0  0  0  0  0  0  0  0  0  0  0
   50.2609   -3.6287   -6.4737 N   0  0  0  0  0  0  0  0  0  0  0  0
   49.0754   -2.7719   -6.6015 C   0  0  0  0  0  0  0  0  0  0  0  0
   50.3026   -4.7080   -5.5532 C   0  0  0  0  0  0  0  0  0  0  0  0
   49.4809   -4.7075   -4.5750 O   0  0  0  0  0  0  0  0  0  0  0  0
   51.2827   -5.8100   -5.7330 C   0  0  0  0  0  0  0  0  0  0  0  0
   50.6672   -6.7699   -6.7173 C   0  0  0  0  0  0  0  0  0  0  0  0
   52.5651   -5.3093   -6.1680 N   0  0  0  0  0  0  0  0  0  0  0  0
   52.5223   -4.2270   -7.1290 C   0  0  0  0  0  0  0  0  0  0  0  0
   53.5630   -3.9673   -7.9195 N   0  0  0  0  0  0  0  0  0  0  0  0
   53.8398   -5.7471   -5.7612 C   0  0  0  0  0  0  0  0  0  0  0  0
   53.9498   -6.2340   -4.3371 C   0  0  0  0  0  0  0  0  0  0  0  0
   55.4631   -6.5162   -4.3245 C   0  0  0  0  0  0  0  0  0  0  0  0
   55.6865   -7.1603   -5.6742 C   0  0  0  0  0  0  0  0  0  0  0  0
   54.3913   -6.9620   -6.4760 C   0  0  0  0  0  0  0  0  0  0  0  0
   56.5204   -3.9565   -8.3993 C   0  0  0  0  0  0  0  0  0  0  0  0
   57.6030   -4.8009   -8.3563 C   0  0  0  0  0  0  0  0  0  0  0  0
   58.1201   -5.4169   -9.4563 C   0  0  0  0  0  0  0  0  0  0  0  0
   57.5041   -5.1593  -10.6595 C   0  0  0  0  0  0  0  0  0  0  0  0
   56.4001   -4.3021  -10.7255 C   0  0  0  0  0  0  0  0  0  0  0  0
   55.8735   -3.6815   -9.6342 C   0  0  0  0  0  0  0  0  0  0  0  0
   59.2533   -6.3185   -9.3731 C   0  0  0  0  0  0  0  0  0  0  0  0
   59.2732   -7.3249  -10.1216 O   0  0  0  0  0  0  0  0  0  0  0  0
   60.2914   -6.0658   -8.4778 N   0  0  0  0  0  0  0  0  0  0  0  0
   60.2516   -5.2210   -7.8629 H   0  0  0  0  0  0  0  0  0  0  0  0
   61.4690   -6.8928   -8.3111 C   0  0  0  0  0  0  0  0  0  0  0  0
   61.4982   -7.5115   -6.9158 C   0  0  0  0  0  0  0  0  0  0  0  0
   62.6031   -8.5533   -6.9700 C   0  0  0  0  0  0  0  0  0  0  0  0
   63.8925   -7.9364   -7.1992 N   0  0  0  0  0  0  0  0  0  0  0  0
   64.4182   -7.3053   -6.0085 C   0  0  0  0  0  0  0  0  0  0  0  0
   63.9180   -7.1020   -8.3626 C   0  0  0  0  0  0  0  0  0  0  0  0
   62.7571   -6.1873   -8.5360 C   0  0  0  0  0  0  0  0  0  0  0  0
   56.5577   -3.4975   -5.9852 C   0  0  0  0  0  0  0  0  0  0  0  0
   56.0149   -3.3454   -7.2828 O   0  0  0  0  0  0  0  0  0  0  0  0
 38 39  1  0  0  0
 39 21  1  0  0  0
 21 22  2  0  0  0
 22 23  1  0  0  0
 23 24  2  0  0  0
 24 25  1  0  0  0
 25 26  2  0  0  0
 26  1  1  0  0  0
  1  3  1  0  0  0
  3  4  2  0  0  0
  4  5  1  0  0  0
  5  6  2  0  0  0
  6  7  1  0  0  0
  7  8  1  0  0  0
  7  9  1  0  0  0
  9 10  2  0  0  0
  9 11  1  0  0  0
 11 12  1  0  0  0
 11 13  1  0  0  0
 13 16  1  0  0  0
 16 17  1  0  0  0
 17 18  1  0  0  0
 18 19  1  0  0  0
 19 20  1  0  0  0
 13 14  1  0  0  0
 14 15  2  0  0  0
 23 27  1  0  0  0
 27 28  2  0  0  0
 27 29  1  0  0  0
 29 31  1  0  0  0
 31 32  1  0  0  0
 32 33  1  0  0  0
 33 34  1  0  0  0
 34 35  1  0  0  0
 34 36  1  0  0  0
 36 37  1  0  0  0
 26 21  1  0  0  0
 15  3  1  0  0  0
 37 31  1  0  0  0
 14  6  1  0  0  0
 20 16  1  0  0  0
  1  2  1  0  0  0
 29 30  1  0  0  0
M  END
> <minimizedAffinity>
-9.86966

> <CNNscore>
0.9767214060

> <CNNaffinity>
8.1092319489

> <CNN_VS>
7.9204602242

> <CNNaffinity_variance>
0.0067154532

$$$$
[H]c1nc(N([H])c2c([H])c([H])c(C(=O)N([H])C3([H])C([H])([H])C([H])([H])N(C([H])([H])[H])C([H])([H])C3([H])[H])c([H])c2OC([H])([H])[H])nc2c1N(C([H])([H])[H])C(=O)[C@@]([H])(C([H])([H])[H])N2C1([H])C([H])([H])C([H])([H])C([H])([H])C1([H])[H]


 39 43  0  0  0  0  0  0  0  0999 V2000
   56.3445   -4.9098   -8.8566 N   0  0  0  0  0  0  0  0  0  0  0  0
   56.8398   -5.5541   -8.1639 H   0  0  0  0  0  0  0  0  0  0  0  0
   55.0529   -4.4703   -8.4754 C   0  0  0  0  0  0  0  0  0  0  0  0
   54.3211   -3.5528   -9.0843 N   0  0  0  0  0  0  0  0  0  0  0  0
   53.1045   -3.1602   -8.7136 C   0  0  0  0  0  0  0  0  0  0  0  0
   52.5568   -3.7765   -7.5787 C   0  0  0  0  0  0  0  0  0  0  0  0
   51.2571   -3.3966   -7.1606 N   0  0  0  0  0  0  0  0  0  0  0  0
   50.4878   -2.3698   -7.8746 C   0  0  0  0  0  0  0  0  0  0  0  0
   50.7357   -4.0554   -6.0169 C   0  0  0  0  0  0  0  0  0  0  0  0
   49.7768   -3.5025   -5.3788 O   0  0  0  0  0  0  0  0  0  0  0  0
   51.2981   -5.3595   -5.5807 C   0  0  0  0  0  0  0  0  0  0  0  0
   50.6148   -6.4157   -6.4094 C   0  0  0  0  0  0  0  0  0  0  0  0
   52.7352   -5.3857   -5.7164 N   0  0  0  0  0  0  0  0  0  0  0  0
   53.2652   -4.7382   -6.8981 C   0  0  0  0  0  0  0  0  0  0  0  0
   54.4736   -5.0458   -7.3677 N   0  0  0  0  0  0  0  0  0  0  0  0
   53.6699   -5.9591   -4.8334 C   0  0  0  0  0  0  0  0  0  0  0  0
   53.1223   -6.4485   -3.5152 C   0  0  0  0  0  0  0  0  0  0  0  0
   54.4534   -6.8954   -2.8840 C   0  0  0  0  0  0  0  0  0  0  0  0
   55.1555   -7.5664   -4.0430 C   0  0  0  0  0  0  0  0  0  0  0  0
   54.3436   -7.2307   -5.3030 C   0  0  0  0  0  0  0  0  0  0  0  0
   58.2897   -5.1531  -10.2664 C   0  0  0  0  0  0  0  0  0  0  0  0
   58.9932   -4.8498  -11.4066 C   0  0  0  0  0  0  0  0  0  0  0  0
   58.5351   -4.0014  -12.3694 C   0  0  0  0  0  0  0  0  0  0  0  0
   57.2992   -3.4337  -12.1599 C   0  0  0  0  0  0  0  0  0  0  0  0
   56.5660   -3.7289  -11.0053 C   0  0  0  0  0  0  0  0  0  0  0  0
   57.0121   -4.5752  -10.0367 C   0  0  0  0  0  0  0  0  0  0  0  0
   59.2955   -3.7174  -13.5715 C   0  0  0  0  0  0  0  0  0  0  0  0
   58.6718   -3.5286  -14.6433 O   0  0  0  0  0  0  0  0  0  0  0  0
   60.6876   -3.6593  -13.5280 N   0  0  0  0  0  0  0  0  0  0  0  0
   61.1853   -3.8218  -12.6230 H   0  0  0  0  0  0  0  0  0  0  0  0
   61.5466   -3.3825  -14.6612 C   0  0  0  0  0  0  0  0  0  0  0  0
   62.0025   -4.6818  -15.3203 C   0  0  0  0  0  0  0  0  0  0  0  0
   62.6452   -4.2549  -16.6294 C   0  0  0  0  0  0  0  0  0  0  0  0
   63.8249   -3.4494  -16.3943 N   0  0  0  0  0  0  0  0  0  0  0  0
   64.9616   -4.2466  -15.9883 C   0  0  0  0  0  0  0  0  0  0  0  0
   63.5748   -2.3176  -15.5537 C   0  0  0  0  0  0  0  0  0  0  0  0
   62.7512   -2.5738  -14.3410 C   0  0  0  0  0  0  0  0  0  0  0  0
   60.1208   -6.0611   -8.9018 C   0  0  0  0  0  0  0  0  0  0  0  0
   58.7670   -6.0079   -9.3088 O   0  0  0  0  0  0  0  0  0  0  0  0
 38 39  1  0  0  0
 39 21  1  0  0  0
 21 22  2  0  0  0
 22 23  1  0  0  0
 23 24  2  0  0  0
 24 25  1  0  0  0
 25 26  2  0  0  0
 26  1  1  0  0  0
  1  3  1  0  0  0
  3  4  2  0  0  0
  4  5  1  0  0  0
  5  6  2  0  0  0
  6  7  1  0  0  0
  7  8  1  0  0  0
  7  9  1  0  0  0
  9 10  2  0  0  0
  9 11  1  0  0  0
 11 12  1  0  0  0
 11 13  1  0  0  0
 13 16  1  0  0  0
 16 17  1  0  0  0
 17 18  1  0  0  0
 18 19  1  0  0  0
 19 20  1  0  0  0
 13 14  1  0  0  0
 14 15  2  0  0  0
 23 27  1  0  0  0
 27 28  2  0  0  0
 27 29  1  0  0  0
 29 31  1  0  0  0
 31 32  1  0  0  0
 32 33  1  0  0  0
 33 34  1  0  0  0
 34 35  1  0  0  0
 34 36  1  0  0  0
 36 37  1  0  0  0
 26 21  1  0  0  0
 15  3  1  0  0  0
 37 31  1  0  0  0
 14  6  1  0  0  0
 20 16  1  0  0  0
  1  2  1  0  0  0
 29 30  1  0  0  0
M  END
> <minimizedAffinity>
-8.82390

> <CNNscore>
0.7188556194

> <CNNaffinity>
7.4223098755

> <CNN_VS>
5.3355693817

> <CNNaffinity_variance>
0.2819817662

$$$$
[H]c1nc(N([H])c2c([H])c([H])c(C(=O)N([H])C3([H])C([H])([H])C([H])([H])N(C([H])([H])[H])C([H])([H])C3([H])[H])c([H])c2OC([H])([H])[H])nc2c1N(C([H])([H])[H])C(=O)[C@@]([H])(C([H])([H])[H])N2C1([H])C([H])([H])C([H])([H])C([H])([H])C1([H])[H]


 39 43  0  0  0  0  0  0  0  0999 V2000
   52.5533   -5.5822   -8.6438 N   0  0  0  0  0  0  0  0  0  0  0  0
   52.0264   -6.3949   -9.0936 H   0  0  0  0  0  0  0  0  0  0  0  0
   51.9288   -4.9890   -7.5191 C   0  0  0  0  0  0  0  0  0  0  0  0
   50.9853   -4.0631   -7.5387 N   0  0  0  0  0  0  0  0  0  0  0  0
   50.4053   -3.5246   -6.4686 C   0  0  0  0  0  0  0  0  0  0  0  0
   50.8363   -3.9829   -5.2147 C   0  0  0  0  0  0  0  0  0  0  0  0
   50.2325   -3.4447   -4.0511 N   0  0  0  0  0  0  0  0  0  0  0  0
   49.1877   -2.4161   -4.1309 C   0  0  0  0  0  0  0  0  0  0  0  0
   50.6879   -3.9469   -2.8044 C   0  0  0  0  0  0  0  0  0  0  0  0
   50.4800   -3.2506   -1.7536 O   0  0  0  0  0  0  0  0  0  0  0  0
   51.3883   -5.2553   -2.7331 C   0  0  0  0  0  0  0  0  0  0  0  0
   50.3142   -6.3102   -2.6821 C   0  0  0  0  0  0  0  0  0  0  0  0
   52.2917   -5.4309   -3.8456 N   0  0  0  0  0  0  0  0  0  0  0  0
   51.8149   -4.9441   -5.1232 C   0  0  0  0  0  0  0  0  0  0  0  0
   52.3185   -5.4063   -6.2670 N   0  0  0  0  0  0  0  0  0  0  0  0
   53.5743   -6.0110   -3.8257 C   0  0  0  0  0  0  0  0  0  0  0  0
   54.6063   -5.3675   -4.7191 C   0  0  0  0  0  0  0  0  0  0  0  0
   55.7663   -6.3404   -4.4402 C   0  0  0  0  0  0  0  0  0  0  0  0
   55.6589   -6.5573   -2.9475 C   0  0  0  0  0  0  0  0  0  0  0  0
   54.3192   -5.9465   -2.5096 C   0  0  0  0  0  0  0  0  0  0  0  0
   54.9623   -5.7463   -8.6364 C   0  0  0  0  0  0  0  0  0  0  0  0
   56.1923   -5.3986   -9.1397 C   0  0  0  0  0  0  0  0  0  0  0  0
   56.3620   -4.5365  -10.1812 C   0  0  0  0  0  0  0  0  0  0  0  0
   55.2224   -4.0020  -10.7370 C   0  0  0  0  0  0  0  0  0  0  0  0
   53.9597   -4.3426  -10.2394 C   0  0  0  0  0  0  0  0  0  0  0  0
   53.7767   -5.2030   -9.2004 C   0  0  0  0  0  0  0  0  0  0  0  0
   57.6750   -4.2053  -10.7010 C   0  0  0  0  0  0  0  0  0  0  0  0
   58.6276   -4.0927   -9.8926 O   0  0  0  0  0  0  0  0  0  0  0  0
   57.8648   -4.0162  -12.0690 N   0  0  0  0  0  0  0  0  0  0  0  0
   57.0550   -4.1139  -12.7231 H   0  0  0  0  0  0  0  0  0  0  0  0
   59.1272   -3.6859  -12.6981 C   0  0  0  0  0  0  0  0  0  0  0  0
   59.6172   -2.3167  -12.2339 C   0  0  0  0  0  0  0  0  0  0  0  0
   61.0490   -2.2205  -12.7337 C   0  0  0  0  0  0  0  0  0  0  0  0
   61.0996   -2.2328  -14.1804 N   0  0  0  0  0  0  0  0  0  0  0  0
   60.7154   -0.9615  -14.7537 C   0  0  0  0  0  0  0  0  0  0  0  0
   60.4306   -3.3599  -14.7571 C   0  0  0  0  0  0  0  0  0  0  0  0
   59.0982   -3.6923  -14.1836 C   0  0  0  0  0  0  0  0  0  0  0  0
   53.7212   -6.5818   -6.6867 C   0  0  0  0  0  0  0  0  0  0  0  0
   54.8113   -6.6142   -7.5879 O   0  0  0  0  0  0  0  0  0  0  0  0
 38 39  1  0  0  0
 39 21  1  0  0  0
 21 22  2  0  0  0
 22 23  1  0  0  0
 23 24  2  0  0  0
 24 25  1  0  0  0
 25 26  2  0  0  0
 26  1  1  0  0  0
  1  3  1  0  0  0
  3  4  2  0  0  0
  4  5  1  0  0  0
  5  6  2  0  0  0
  6  7  1  0  0  0
  7  8  1  0  0  0
  7  9  1  0  0  0
  9 10  2  0  0  0
  9 11  1  0  0  0
 11 12  1  0  0  0
 11 13  1  0  0  0
 13 16  1  0  0  0
 16 17  1  0  0  0
 17 18  1  0  0  0
 18 19  1  0  0  0
 19 20  1  0  0  0
 13 14  1  0  0  0
 14 15  2  0  0  0
 23 27  1  0  0  0
 27 28  2  0  0  0
 27 29  1  0  0  0
 29 31  1  0  0  0
 31 32  1  0  0  0
 32 33  1  0  0  0
 33 34  1  0  0  0
 34 35  1  0  0  0
 34 36  1  0  0  0
 36 37  1  0  0  0
 26 21  1  0  0  0
 15  3  1  0  0  0
 37 31  1  0  0  0
 14  6  1  0  0  0
 20 16  1  0  0  0
  1  2  1  0  0  0
 29 30  1  0  0  0
M  END
> <minimizedAffinity>
10.07780

> <CNNscore>
0.4437873960

> <CNNaffinity>
6.9194612503

> <CNN_VS>
3.0707697868

> <CNNaffinity_variance>
0.8391659856

$$$$
[H]c1nc(N([H])c2c([H])c([H])c(C(=O)N([H])C3([H])C([H])([H])C([H])([H])N(C([H])([H])[H])C([H])([H])C3([H])[H])c([H])c2OC([H])([H])[H])nc2c1N(C([H])([H])[H])C(=O)[C@@]([H])(C([H])([H])[H])N2C1([H])C([H])([H])C([H])([H])C([H])([H])C1([H])[H]


 39 43  0  0  0  0  0  0  0  0999 V2000
   58.0320   -4.8127  -11.4237 N   0  0  0  0  0  0  0  0  0  0  0  0
   56.9743   -4.8290  -11.2779 H   0  0  0  0  0  0  0  0  0  0  0  0
   58.4762   -4.2845  -12.6609 C   0  0  0  0  0  0  0  0  0  0  0  0
   57.7206   -3.7606  -13.6108 N   0  0  0  0  0  0  0  0  0  0  0  0
   58.1599   -3.2616  -14.7640 C   0  0  0  0  0  0  0  0  0  0  0  0
   59.5448   -3.2975  -14.9847 C   0  0  0  0  0  0  0  0  0  0  0  0
   60.0534   -2.7623  -16.1942 N   0  0  0  0  0  0  0  0  0  0  0  0
   59.1674   -2.1922  -17.2169 C   0  0  0  0  0  0  0  0  0  0  0  0
   61.4609   -2.8056  -16.3701 C   0  0  0  0  0  0  0  0  0  0  0  0
   61.9309   -2.7089  -17.5542 O   0  0  0  0  0  0  0  0  0  0  0  0
   62.3594   -2.9585  -15.1968 C   0  0  0  0  0  0  0  0  0  0  0  0
   62.5477   -1.5785  -14.6229 C   0  0  0  0  0  0  0  0  0  0  0  0
   61.8201   -3.8936  -14.2381 N   0  0  0  0  0  0  0  0  0  0  0  0
   60.3874   -3.8297  -14.0378 C   0  0  0  0  0  0  0  0  0  0  0  0
   59.8270   -4.2978  -12.9232 N   0  0  0  0  0  0  0  0  0  0  0  0
   62.5237   -4.8555  -13.4886 C   0  0  0  0  0  0  0  0  0  0  0  0
   61.7029   -5.6701  -12.5191 C   0  0  0  0  0  0  0  0  0  0  0  0
   62.8518   -6.4876  -11.9013 C   0  0  0  0  0  0  0  0  0  0  0  0
   63.6952   -6.8299  -13.1088 C   0  0  0  0  0  0  0  0  0  0  0  0
   63.1609   -5.9823  -14.2731 C   0  0  0  0  0  0  0  0  0  0  0  0
   58.9630   -6.7094  -10.2548 C   0  0  0  0  0  0  0  0  0  0  0  0
   59.7420   -7.2420   -9.2566 C   0  0  0  0  0  0  0  0  0  0  0  0
   60.4357   -6.4859   -8.3601 C   0  0  0  0  0  0  0  0  0  0  0  0
   60.3302   -5.1198   -8.4867 C   0  0  0  0  0  0  0  0  0  0  0  0
   59.5420   -4.5566   -9.4964 C   0  0  0  0  0  0  0  0  0  0  0  0
   58.8449   -5.3007  -10.3985 C   0  0  0  0  0  0  0  0  0  0  0  0
   61.2649   -7.0806   -7.3292 C   0  0  0  0  0  0  0  0  0  0  0  0
   62.3982   -6.5875   -7.1146 O   0  0  0  0  0  0  0  0  0  0  0  0
   60.8059   -8.1760   -6.5996 N   0  0  0  0  0  0  0  0  0  0  0  0
   59.8581   -8.5705   -6.7978 H   0  0  0  0  0  0  0  0  0  0  0  0
   61.5440   -8.8472   -5.5493 C   0  0  0  0  0  0  0  0  0  0  0  0
   61.6159  -10.3483   -5.8175 C   0  0  0  0  0  0  0  0  0  0  0  0
   62.6325  -10.8784   -4.8202 C   0  0  0  0  0  0  0  0  0  0  0  0
   62.1711  -10.7014   -3.4594 N   0  0  0  0  0  0  0  0  0  0  0  0
   61.1642  -11.6724   -3.0908 C   0  0  0  0  0  0  0  0  0  0  0  0
   61.8156   -9.3476   -3.1576 C   0  0  0  0  0  0  0  0  0  0  0  0
   60.9986   -8.6428   -4.1824 C   0  0  0  0  0  0  0  0  0  0  0  0
   57.4782   -6.9661  -12.1964 C   0  0  0  0  0  0  0  0  0  0  0  0
   58.2718   -7.4856  -11.1467 O   0  0  0  0  0  0  0  0  0  0  0  0
 38 39  1  0  0  0
 39 21  1  0  0  0
 21 22  2  0  0  0
 22 23  1  0  0  0
 23 24  2  0  0  0
 24 25  1  0  0  0
 25 26  2  0  0  0
 26  1  1  0  0  0
  1  3  1  0  0  0
  3  4  2  0  0  0
  4  5  1  0  0  0
  5  6  2  0  0  0
  6  7  1  0  0  0
  7  8  1  0  0  0
  7  9  1  0  0  0
  9 10  2  0  0  0
  9 11  1  0  0  0
 11 12  1  0  0  0
 11 13  1  0  0  0
 13 16  1  0  0  0
 16 17  1  0  0  0
 17 18  1  0  0  0
 18 19  1  0  0  0
 19 20  1  0  0  0
 13 14  1  0  0  0
 14 15  2  0  0  0
 23 27  1  0  0  0
 27 28  2  0  0  0
 27 29  1  0  0  0
 29 31  1  0  0  0
 31 32  1  0  0  0
 32 33  1  0  0  0
 33 34  1  0  0  0
 34 35  1  0  0  0
 34 36  1  0  0  0
 36 37  1  0  0  0
 26 21  1  0  0  0
 15  3  1  0  0  0
 37 31  1  0  0  0
 14  6  1  0  0  0
 20 16  1  0  0  0
  1  2  1  0  0  0
 29 30  1  0  0  0
M  END
> <minimizedAffinity>
9.73209

> <CNNscore>
0.4230945706

> <CNNaffinity>
5.2916116714

> <CNN_VS>
2.2388522625

> <CNNaffinity_variance>
0.4356447756

$$$$
[H]c1nc(N([H])c2c([H])c([H])c(C(=O)N([H])C3([H])C([H])([H])C([H])([H])N(C([H])([H])[H])C([H])([H])C3([H])[H])c([H])c2OC([H])([H])[H])nc2c1N(C([H])([H])[H])C(=O)[C@@]([H])(C([H])([H])[H])N2C1([H])C([H])([H])C([H])([H])C([H])([H])C1([H])[H]


 39 43  0  0  0  0  0  0  0  0999 V2000
   56.6352   -5.4319  -12.7937 N   0  0  0  0  0  0  0  0  0  0  0  0
   56.3813   -6.3570  -13.2629 H   0  0  0  0  0  0  0  0  0  0  0  0
   57.4338   -4.5493  -13.5619 C   0  0  0  0  0  0  0  0  0  0  0  0
   57.0721   -3.9180  -14.6658 N   0  0  0  0  0  0  0  0  0  0  0  0
   57.8366   -3.0853  -15.3685 C   0  0  0  0  0  0  0  0  0  0  0  0
   59.1370   -2.8621  -14.8918 C   0  0  0  0  0  0  0  0  0  0  0  0
   59.9772   -1.9703  -15.6039 N   0  0  0  0  0  0  0  0  0  0  0  0
   59.5238   -1.2955  -16.8266 C   0  0  0  0  0  0  0  0  0  0  0  0
   61.2791   -1.7623  -15.0788 C   0  0  0  0  0  0  0  0  0  0  0  0
   62.1834   -1.3020  -15.8550 O   0  0  0  0  0  0  0  0  0  0  0  0
   61.5731   -2.0743  -13.6563 C   0  0  0  0  0  0  0  0  0  0  0  0
   61.1396   -0.8720  -12.8590 C   0  0  0  0  0  0  0  0  0  0  0  0
   60.9165   -3.2897  -13.2365 N   0  0  0  0  0  0  0  0  0  0  0  0
   59.5770   -3.4879  -13.7496 C   0  0  0  0  0  0  0  0  0  0  0  0
   58.7176   -4.2989  -13.1341 N   0  0  0  0  0  0  0  0  0  0  0  0
   61.4305   -4.2967  -12.3976 C   0  0  0  0  0  0  0  0  0  0  0  0
   60.5642   -5.5198  -12.2233 C   0  0  0  0  0  0  0  0  0  0  0  0
   61.4523   -6.2680  -11.2126 C   0  0  0  0  0  0  0  0  0  0  0  0
   62.8412   -6.0353  -11.7633 C   0  0  0  0  0  0  0  0  0  0  0  0
   62.7066   -4.9674  -12.8592 C   0  0  0  0  0  0  0  0  0  0  0  0
   57.0559   -5.3882  -10.4164 C   0  0  0  0  0  0  0  0  0  0  0  0
   56.6359   -5.1805   -9.1251 C   0  0  0  0  0  0  0  0  0  0  0  0
   55.3719   -4.7896   -8.7994 C   0  0  0  0  0  0  0  0  0  0  0  0
   54.4923   -4.6013   -9.8407 C   0  0  0  0  0  0  0  0  0  0  0  0
   54.8995   -4.8074  -11.1635 C   0  0  0  0  0  0  0  0  0  0  0  0
   56.1593   -5.1971  -11.5020 C   0  0  0  0  0  0  0  0  0  0  0  0
   54.9661   -4.5605   -7.4258 C   0  0  0  0  0  0  0  0  0  0  0  0
   55.5082   -3.6248   -6.7900 O   0  0  0  0  0  0  0  0  0  0  0  0
   53.9965   -5.3676   -6.8329 N   0  0  0  0  0  0  0  0  0  0  0  0
   53.5600   -6.1425   -7.3827 H   0  0  0  0  0  0  0  0  0  0  0  0
   53.5138   -5.2301   -5.4740 C   0  0  0  0  0  0  0  0  0  0  0  0
   54.1854   -6.2510   -4.5590 C   0  0  0  0  0  0  0  0  0  0  0  0
   53.8138   -5.8213   -3.1497 C   0  0  0  0  0  0  0  0  0  0  0  0
   52.3855   -5.9170   -2.9335 N   0  0  0  0  0  0  0  0  0  0  0  0
   51.9513   -7.2820   -2.7320 C   0  0  0  0  0  0  0  0  0  0  0  0
   51.6200   -5.1979   -3.9066 C   0  0  0  0  0  0  0  0  0  0  0  0
   52.0419   -5.3658   -5.3238 C   0  0  0  0  0  0  0  0  0  0  0  0
   59.0817   -6.7004   -9.9537 C   0  0  0  0  0  0  0  0  0  0  0  0
   58.3308   -5.7821  -10.7246 O   0  0  0  0  0  0  0  0  0  0  0  0
 38 39  1  0  0  0
 39 21  1  0  0  0
 21 22  2  0  0  0
 22 23  1  0  0  0
 23 24  2  0  0  0
 24 25  1  0  0  0
 25 26  2  0  0  0
 26  1  1  0  0  0
  1  3  1  0  0  0
  3  4  2  0  0  0
  4  5  1  0  0  0
  5  6  2  0  0  0
  6  7  1  0  0  0
  7  8  1  0  0  0
  7  9  1  0  0  0
  9 10  2  0  0  0
  9 11  1  0  0  0
 11 12  1  0  0  0
 11 13  1  0  0  0
 13 16  1  0  0  0
 16 17  1  0  0  0
 17 18  1  0  0  0
 18 19  1  0  0  0
 19 20  1  0  0  0
 13 14  1  0  0  0
 14 15  2  0  0  0
 23 27  1  0  0  0
 27 28  2  0  0  0
 27 29  1  0  0  0
 29 31  1  0  0  0
 31 32  1  0  0  0
 32 33  1  0  0  0
 33 34  1  0  0  0
 34 35  1  0  0  0
 34 36  1  0  0  0
 36 37  1  0  0  0
 26 21  1  0  0  0
 15  3  1  0  0  0
 37 31  1  0  0  0
 14  6  1  0  0  0
 20 16  1  0  0  0
  1  2  1  0  0  0
 29 30  1  0  0  0
M  END
> <minimizedAffinity>
6.41654

> <CNNscore>
0.3989854157

> <CNNaffinity>
6.2594132423

> <CNN_VS>
2.4974145889

> <CNNaffinity_variance>
0.5423032045

$$$$
[H]c1nc(N([H])c2c([H])c([H])c(C(=O)N([H])C3([H])C([H])([H])C([H])([H])N(C([H])([H])[H])C([H])([H])C3([H])[H])c([H])c2OC([H])([H])[H])nc2c1N(C([H])([H])[H])C(=O)[C@@]([H])(C([H])([H])[H])N2C1([H])C([H])([H])C([H])([H])C([H])([H])C1([H])[H]


 39 43  0  0  0  0  0  0  0  0999 V2000
   54.5590   -4.1164   -8.5010 N   0  0  0  0  0  0  0  0  0  0  0  0
   54.2166   -3.4321   -9.2460 H   0  0  0  0  0  0  0  0  0  0  0  0
   53.6273   -4.4377   -7.4835 C   0  0  0  0  0  0  0  0  0  0  0  0
   52.3137   -4.3010   -7.5460 N   0  0  0  0  0  0  0  0  0  0  0  0
   51.4546   -4.6174   -6.5799 C   0  0  0  0  0  0  0  0  0  0  0  0
   51.9952   -5.1405   -5.3958 C   0  0  0  0  0  0  0  0  0  0  0  0
   51.1119   -5.5037   -4.3488 N   0  0  0  0  0  0  0  0  0  0  0  0
   49.6591   -5.3297   -4.4716 C   0  0  0  0  0  0  0  0  0  0  0  0
   51.6998   -6.0423   -3.1748 C   0  0  0  0  0  0  0  0  0  0  0  0
   51.0260   -6.0194   -2.0896 O   0  0  0  0  0  0  0  0  0  0  0  0
   53.0682   -6.6193   -3.2177 C   0  0  0  0  0  0  0  0  0  0  0  0
   52.9167   -8.0371   -3.7035 C   0  0  0  0  0  0  0  0  0  0  0  0
   53.9458   -5.8334   -4.0524 N   0  0  0  0  0  0  0  0  0  0  0  0
   53.3534   -5.3078   -5.2646 C   0  0  0  0  0  0  0  0  0  0  0  0
   54.1101   -4.9542   -6.3028 N   0  0  0  0  0  0  0  0  0  0  0  0
   55.2979   -5.5187   -3.8183 C   0  0  0  0  0  0  0  0  0  0  0  0
   55.6334   -5.0278   -2.4314 C   0  0  0  0  0  0  0  0  0  0  0  0
   57.1295   -4.7471   -2.6605 C   0  0  0  0  0  0  0  0  0  0  0  0
   57.5626   -5.9378   -3.4858 C   0  0  0  0  0  0  0  0  0  0  0  0
   56.2798   -6.6668   -3.9131 C   0  0  0  0  0  0  0  0  0  0  0  0
   56.4507   -4.6519   -9.9029 C   0  0  0  0  0  0  0  0  0  0  0  0
   57.7243   -5.1391  -10.0683 C   0  0  0  0  0  0  0  0  0  0  0  0
   58.4903   -5.6048   -9.0422 C   0  0  0  0  0  0  0  0  0  0  0  0
   57.9308   -5.5728   -7.7854 C   0  0  0  0  0  0  0  0  0  0  0  0
   56.6349   -5.0806   -7.5948 C   0  0  0  0  0  0  0  0  0  0  0  0
   55.8600   -4.6119   -8.6112 C   0  0  0  0  0  0  0  0  0  0  0  0
   59.8397   -6.0952   -9.2488 C   0  0  0  0  0  0  0  0  0  0  0  0
   60.3329   -6.0224  -10.3999 O   0  0  0  0  0  0  0  0  0  0  0  0
   60.5641   -6.6352   -8.1873 N   0  0  0  0  0  0  0  0  0  0  0  0
   60.1310   -6.6866   -7.2371 H   0  0  0  0  0  0  0  0  0  0  0  0
   61.9147   -7.1513   -8.2763 C   0  0  0  0  0  0  0  0  0  0  0  0
   62.1760   -8.1675   -7.1674 C   0  0  0  0  0  0  0  0  0  0  0  0
   63.4950   -8.8246   -7.5382 C   0  0  0  0  0  0  0  0  0  0  0  0
   64.5806   -7.8672   -7.5151 N   0  0  0  0  0  0  0  0  0  0  0  0
   65.0078   -7.5543   -6.1689 C   0  0  0  0  0  0  0  0  0  0  0  0
   64.3340   -6.7173   -8.3320 C   0  0  0  0  0  0  0  0  0  0  0  0
   62.9778   -6.1150   -8.2197 C   0  0  0  0  0  0  0  0  0  0  0  0
   56.2089   -3.9288  -12.2393 C   0  0  0  0  0  0  0  0  0  0  0  0
   55.6952   -4.1886  -10.9470 O   0  0  0  0  0  0  0  0  0  0  0  0
 38 39  1  0  0  0
 39 21  1  0  0  0
 21 22  2  0  0  0
 22 23  1  0  0  0
 23 24  2  0  0  0
 24 25  1  0  0  0
 25 26  2  0  0  0
 26  1  1  0  0  0
  1  3  1  0  0  0
  3  4  2  0  0  0
  4  5  1  0  0  0
  5  6  2  0  0  0
  6  7  1  0  0  0
  7  8  1  0  0  0
  7  9  1  0  0  0
  9 10  2  0  0  0
  9 11  1  0  0  0
 11 12  1  0  0  0
 11 13  1  0  0  0
 13 16  1  0  0  0
 16 17  1  0  0  0
 17 18  1  0  0  0
 18 19  1  0  0  0
 19 20  1  0  0  0
 13 14  1  0  0  0
 14 15  2  0  0  0
 23 27  1  0  0  0
 27 28  2  0  0  0
 27 29  1  0  0  0
 29 31  1  0  0  0
 31 32  1  0  0  0
 32 33  1  0  0  0
 33 34  1  0  0  0
 34 35  1  0  0  0
 34 36  1  0  0  0
 36 37  1  0  0  0
 26 21  1  0  0  0
 15  3  1  0  0  0
 37 31  1  0  0  0
 14  6  1  0  0  0
 20 16  1  0  0  0
  1  2  1  0  0  0
 29 30  1  0  0  0
M  END
> <minimizedAffinity>
-7.48021

> <CNNscore>
0.3560771942

> <CNNaffinity>
7.2388167381

> <CNN_VS>
2.5775775909

> <CNNaffinity_variance>
0.2797449529

$$$$
[H]c1nc(N([H])c2c([H])c([H])c(C(=O)N([H])C3([H])C([H])([H])C([H])([H])N(C([H])([H])[H])C([H])([H])C3([H])[H])c([H])c2OC([H])([H])[H])nc2c1N(C([H])([H])[H])C(=O)[C@@]([H])(C([H])([H])[H])N2C1([H])C([H])([H])C([H])([H])C([H])([H])C1([H])[H]


 39 43  0  0  0  0  0  0  0  0999 V2000
   54.7227   -4.2498   -8.5805 N   0  0  0  0  0  0  0  0  0  0  0  0
   54.3876   -3.6531   -9.4003 H   0  0  0  0  0  0  0  0  0  0  0  0
   53.7656   -4.4972   -7.5658 C   0  0  0  0  0  0  0  0  0  0  0  0
   52.4629   -4.2854   -7.6427 N   0  0  0  0  0  0  0  0  0  0  0  0
   51.5790   -4.5332   -6.6788 C   0  0  0  0  0  0  0  0  0  0  0  0
   52.0786   -5.0647   -5.4806 C   0  0  0  0  0  0  0  0  0  0  0  0
   51.1672   -5.3563   -4.4353 N   0  0  0  0  0  0  0  0  0  0  0  0
   49.7281   -5.1001   -4.5744 C   0  0  0  0  0  0  0  0  0  0  0  0
   51.7132   -5.9062   -3.2464 C   0  0  0  0  0  0  0  0  0  0  0  0
   51.0332   -5.8238   -2.1680 O   0  0  0  0  0  0  0  0  0  0  0  0
   53.0458   -6.5627   -3.2664 C   0  0  0  0  0  0  0  0  0  0  0  0
   52.8156   -7.9781   -3.7278 C   0  0  0  0  0  0  0  0  0  0  0  0
   53.9745   -5.8450   -4.1072 N   0  0  0  0  0  0  0  0  0  0  0  0
   53.4236   -5.3084   -5.3341 C   0  0  0  0  0  0  0  0  0  0  0  0
   54.2079   -5.0189   -6.3716 N   0  0  0  0  0  0  0  0  0  0  0  0
   55.3408   -5.6053   -3.8666 C   0  0  0  0  0  0  0  0  0  0  0  0
   55.6935   -5.1118   -2.4849 C   0  0  0  0  0  0  0  0  0  0  0  0
   57.2052   -4.9221   -2.7056 C   0  0  0  0  0  0  0  0  0  0  0  0
   57.5747   -6.1494   -3.5079 C   0  0  0  0  0  0  0  0  0  0  0  0
   56.2551   -6.8098   -3.9344 C   0  0  0  0  0  0  0  0  0  0  0  0
   56.7053   -4.7784   -9.8535 C   0  0  0  0  0  0  0  0  0  0  0  0
   57.9979   -5.2368   -9.9297 C   0  0  0  0  0  0  0  0  0  0  0  0
   58.7141   -5.6500   -8.8467 C   0  0  0  0  0  0  0  0  0  0  0  0
   58.0819   -5.5938   -7.6258 C   0  0  0  0  0  0  0  0  0  0  0  0
   56.7654   -5.1303   -7.5258 C   0  0  0  0  0  0  0  0  0  0  0  0
   56.0396   -4.7140   -8.5998 C   0  0  0  0  0  0  0  0  0  0  0  0
   60.0848   -6.1108   -8.9596 C   0  0  0  0  0  0  0  0  0  0  0  0
   60.7265   -6.3432   -7.9070 O   0  0  0  0  0  0  0  0  0  0  0  0
   60.6687   -6.2869  -10.2131 N   0  0  0  0  0  0  0  0  0  0  0  0
   60.1142   -6.0852  -11.0762 H   0  0  0  0  0  0  0  0  0  0  0  0
   62.0239   -6.7429  -10.4454 C   0  0  0  0  0  0  0  0  0  0  0  0
   62.5366   -6.2406  -11.7927 C   0  0  0  0  0  0  0  0  0  0  0  0
   64.0261   -6.5409  -11.7842 C   0  0  0  0  0  0  0  0  0  0  0  0
   64.2716   -7.9666  -11.7297 N   0  0  0  0  0  0  0  0  0  0  0  0
   64.0543   -8.6100  -13.0069 C   0  0  0  0  0  0  0  0  0  0  0  0
   63.6134   -8.6091  -10.6323 C   0  0  0  0  0  0  0  0  0  0  0  0
   62.1964   -8.2179  -10.4008 C   0  0  0  0  0  0  0  0  0  0  0  0
   56.6002   -3.9544  -12.1664 C   0  0  0  0  0  0  0  0  0  0  0  0
   56.0005   -4.3679  -10.9536 O   0  0  0  0  0  0  0  0  0  0  0  0
 38 39  1  0  0  0
 39 21  1  0  0  0
 21 22  2  0  0  0
 22 23  1  0  0  0
 23 24  2  0  0  0
 24 25  1  0  0  0
 25 26  2  0  0  0
 26  1  1  0  0  0
  1  3  1  0  0  0
  3  4  2  0  0  0
  4  5  1  0  0  0
  5  6  2  0  0  0
  6  7  1  0  0  0
  7  8  1  0  0  0
  7  9  1  0  0  0
  9 10  2  0  0  0
  9 11  1  0  0  0
 11 12  1  0  0  0
 11 13  1  0  0  0
 13 16  1  0  0  0
 16 17  1  0  0  0
 17 18  1  0  0  0
 18 19  1  0  0  0
 19 20  1  0  0  0
 13 14  1  0  0  0
 14 15  2  0  0  0
 23 27  1  0  0  0
 27 28  2  0  0  0
 27 29  1  0  0  0
 29 31  1  0  0  0
 31 32  1  0  0  0
 32 33  1  0  0  0
 33 34  1  0  0  0
 34 35  1  0  0  0
 34 36  1  0  0  0
 36 37  1  0  0  0
 26 21  1  0  0  0
 15  3  1  0  0  0
 37 31  1  0  0  0
 14  6  1  0  0  0
 20 16  1  0  0  0
  1  2  1  0  0  0
 29 30  1  0  0  0
M  END
> <minimizedAffinity>
-6.91896

> <CNNscore>
0.3162578046

> <CNNaffinity>
7.0478353500

> <CNN_VS>
2.2289328575

> <CNNaffinity_variance>
0.4005458355

$$$$
[H]c1nc(N([H])c2c([H])c([H])c(C(=O)N([H])C3([H])C([H])([H])C([H])([H])N(C([H])([H])[H])C([H])([H])C3([H])[H])c([H])c2OC([H])([H])[H])nc2c1N(C([H])([H])[H])C(=O)[C@@]([H])(C([H])([H])[H])N2C1([H])C([H])([H])C([H])([H])C([H])([H])C1([H])[H]


 39 43  0  0  0  0  0  0  0  0999 V2000
   56.0981   -4.8310  -13.3945 N   0  0  0  0  0  0  0  0  0  0  0  0
   55.5950   -5.5802  -13.9654 H   0  0  0  0  0  0  0  0  0  0  0  0
   57.0345   -4.0396  -14.1042 C   0  0  0  0  0  0  0  0  0  0  0  0
   57.1502   -2.7234  -14.0567 N   0  0  0  0  0  0  0  0  0  0  0  0
   58.0439   -1.9992  -14.7263 C   0  0  0  0  0  0  0  0  0  0  0  0
   58.9373   -2.6981  -15.5518 C   0  0  0  0  0  0  0  0  0  0  0  0
   59.9138   -1.9639  -16.2700 N   0  0  0  0  0  0  0  0  0  0  0  0
   59.9971   -0.5007  -16.1808 C   0  0  0  0  0  0  0  0  0  0  0  0
   60.8064   -2.7115  -17.0814 C   0  0  0  0  0  0  0  0  0  0  0  0
   61.4256   -2.1088  -18.0223 O   0  0  0  0  0  0  0  0  0  0  0  0
   61.0105   -4.1620  -16.8328 C   0  0  0  0  0  0  0  0  0  0  0  0
   62.0380   -4.2649  -15.7361 C   0  0  0  0  0  0  0  0  0  0  0  0
   59.7692   -4.8195  -16.4990 N   0  0  0  0  0  0  0  0  0  0  0  0
   58.8709   -4.0678  -15.6476 C   0  0  0  0  0  0  0  0  0  0  0  0
   57.9321   -4.6804  -14.9273 N   0  0  0  0  0  0  0  0  0  0  0  0
   59.3361   -6.0944  -16.9101 C   0  0  0  0  0  0  0  0  0  0  0  0
   58.1870   -6.1203  -17.8878 C   0  0  0  0  0  0  0  0  0  0  0  0
   58.0186   -7.6478  -17.9786 C   0  0  0  0  0  0  0  0  0  0  0  0
   59.4502   -8.1319  -18.0284 C   0  0  0  0  0  0  0  0  0  0  0  0
   60.3353   -6.9233  -17.6885 C   0  0  0  0  0  0  0  0  0  0  0  0
   56.8492   -4.7374  -11.1015 C   0  0  0  0  0  0  0  0  0  0  0  0
   56.5926   -4.6357   -9.7559 C   0  0  0  0  0  0  0  0  0  0  0  0
   55.3390   -4.5093   -9.2371 C   0  0  0  0  0  0  0  0  0  0  0  0
   54.2953   -4.4857  -10.1337 C   0  0  0  0  0  0  0  0  0  0  0  0
   54.5347   -4.5881  -11.5085 C   0  0  0  0  0  0  0  0  0  0  0  0
   55.7820   -4.7139  -12.0393 C   0  0  0  0  0  0  0  0  0  0  0  0
   55.1041   -4.3849   -7.8112 C   0  0  0  0  0  0  0  0  0  0  0  0
   55.4557   -3.3264   -7.2371 O   0  0  0  0  0  0  0  0  0  0  0  0
   54.5025   -5.4235   -7.1023 N   0  0  0  0  0  0  0  0  0  0  0  0
   54.2195   -6.2969   -7.6026 H   0  0  0  0  0  0  0  0  0  0  0  0
   54.2180   -5.4087   -5.6820 C   0  0  0  0  0  0  0  0  0  0  0  0
   55.3752   -6.0194   -4.8955 C   0  0  0  0  0  0  0  0  0  0  0  0
   55.0807   -5.6899   -3.4417 C   0  0  0  0  0  0  0  0  0  0  0  0
   53.8637   -6.3349   -2.9958 N   0  0  0  0  0  0  0  0  0  0  0  0
   54.0539   -7.7450   -2.7349 C   0  0  0  0  0  0  0  0  0  0  0  0
   52.7347   -6.0414   -3.8262 C   0  0  0  0  0  0  0  0  0  0  0  0
   52.9678   -6.1118   -5.2943 C   0  0  0  0  0  0  0  0  0  0  0  0
   59.1914   -5.4533  -10.8977 C   0  0  0  0  0  0  0  0  0  0  0  0
   58.1166   -4.8648  -11.6047 O   0  0  0  0  0  0  0  0  0  0  0  0
 38 39  1  0  0  0
 39 21  1  0  0  0
 21 22  2  0  0  0
 22 23  1  0  0  0
 23 24  2  0  0  0
 24 25  1  0  0  0
 25 26  2  0  0  0
 26  1  1  0  0  0
  1  3  1  0  0  0
  3  4  2  0  0  0
  4  5  1  0  0  0
  5  6  2  0  0  0
  6  7  1  0  0  0
  7  8  1  0  0  0
  7  9  1  0  0  0
  9 10  2  0  0  0
  9 11  1  0  0  0
 11 12  1  0  0  0
 11 13  1  0  0  0
 13 16  1  0  0  0
 16 17  1  0  0  0
 17 18  1  0  0  0
 18 19  1  0  0  0
 19 20  1  0  0  0
 13 14  1  0  0  0
 14 15  2  0  0  0
 23 27  1  0  0  0
 27 28  2  0  0  0
 27 29  1  0  0  0
 29 31  1  0  0  0
 31 32  1  0  0  0
 32 33  1  0  0  0
 33 34  1  0  0  0
 34 35  1  0  0  0
 34 36  1  0  0  0
 36 37  1  0  0  0
 26 21  1  0  0  0
 15  3  1  0  0  0
 37 31  1  0  0  0
 14  6  1  0  0  0
 20 16  1  0  0  0
  1  2  1  0  0  0
 29 30  1  0  0  0
M  END
> <minimizedAffinity>
8.94632

> <CNNscore>
0.2877596021

> <CNNaffinity>
5.9631500244

> <CNN_VS>
1.7159537077

> <CNNaffinity_variance>
0.4710579515

$$$$
[H]c1nc(N([H])c2c([H])c([H])c(N3C([H])([H])C([H])([H])N(C([H])([H])[H])C([H])([H])C3([H])[H])c([H])c2[H])nc2c1N(C([H])([H])[H])C(=O)[C@@]([H])(C([H])([H])C([H])([H])[H])N2C1([H])C([H])([H])C([H])([H])C([H])([H])C1([H])[H]


 34 38  0  0  0  0  0  0  0  0999 V2000
   51.9133   -5.8248   -6.0546 C   0  0  0  0  0  0  0  0  0  0  0  0
   53.2041   -5.3641   -6.4416 N   0  0  0  0  0  0  0  0  0  0  0  0
   53.2462   -4.4178   -7.5257 C   0  0  0  0  0  0  0  0  0  0  0  0
   54.3250   -4.3538   -8.3238 N   0  0  0  0  0  0  0  0  0  0  0  0
   54.3739   -3.4503   -9.3622 C   0  0  0  0  0  0  0  0  0  0  0  0
   53.3207   -2.6485   -9.5451 N   0  0  0  0  0  0  0  0  0  0  0  0
   52.2102   -2.6466   -8.7991 C   0  0  0  0  0  0  0  0  0  0  0  0
   52.1758   -3.5629   -7.7562 C   0  0  0  0  0  0  0  0  0  0  0  0
   51.0547   -3.6590   -6.8920 N   0  0  0  0  0  0  0  0  0  0  0  0
   49.8935   -2.7765   -7.0895 C   0  0  0  0  0  0  0  0  0  0  0  0
   51.0621   -4.6118   -5.8353 C   0  0  0  0  0  0  0  0  0  0  0  0
   50.3890   -4.4153   -4.8053 O   0  0  0  0  0  0  0  0  0  0  0  0
   54.4620   -5.7478   -5.8524 C   0  0  0  0  0  0  0  0  0  0  0  0
   54.8323   -7.1753   -6.1125 C   0  0  0  0  0  0  0  0  0  0  0  0
   55.2551   -7.7666   -4.7848 C   0  0  0  0  0  0  0  0  0  0  0  0
   54.4594   -6.9223   -3.7797 C   0  0  0  0  0  0  0  0  0  0  0  0
   54.5374   -5.5675   -4.3876 C   0  0  0  0  0  0  0  0  0  0  0  0
   49.7759   -6.6451   -7.0641 C   0  0  0  0  0  0  0  0  0  0  0  0
   51.2840   -6.6049   -7.2048 C   0  0  0  0  0  0  0  0  0  0  0  0
   55.5609   -3.4514  -10.1284 N   0  0  0  0  0  0  0  0  0  0  0  0
   55.6107   -2.8208  -10.9933 H   0  0  0  0  0  0  0  0  0  0  0  0
   56.7061   -4.1977   -9.8742 C   0  0  0  0  0  0  0  0  0  0  0  0
   57.1122   -4.5804   -8.6363 C   0  0  0  0  0  0  0  0  0  0  0  0
   58.2643   -5.3561   -8.4357 C   0  0  0  0  0  0  0  0  0  0  0  0
   59.0352   -5.7622   -9.4960 C   0  0  0  0  0  0  0  0  0  0  0  0
   58.6149   -5.3682  -10.7443 C   0  0  0  0  0  0  0  0  0  0  0  0
   57.4891   -4.6092  -10.9582 C   0  0  0  0  0  0  0  0  0  0  0  0
   60.2024   -6.5399   -9.3131 N   0  0  0  0  0  0  0  0  0  0  0  0
   60.3050   -7.8407   -9.9685 C   0  0  0  0  0  0  0  0  0  0  0  0
   61.2750   -8.6600   -9.1220 C   0  0  0  0  0  0  0  0  0  0  0  0
   62.5971   -8.0969   -9.2365 N   0  0  0  0  0  0  0  0  0  0  0  0
   63.5840   -8.8645   -8.5441 C   0  0  0  0  0  0  0  0  0  0  0  0
   62.6348   -6.7040   -8.8990 C   0  0  0  0  0  0  0  0  0  0  0  0
   61.3082   -6.1221   -8.5147 C   0  0  0  0  0  0  0  0  0  0  0  0
 18 19  1  0  0  0
 19  1  1  0  0  0
  1  2  1  0  0  0
  2 13  1  0  0  0
 13 14  1  0  0  0
 14 15  1  0  0  0
 15 16  1  0  0  0
 16 17  1  0  0  0
  2  3  1  0  0  0
  3  4  2  0  0  0
  4  5  1  0  0  0
  5 20  1  0  0  0
 20 22  1  0  0  0
 22 23  2  0  0  0
 23 24  1  0  0  0
 24 25  2  0  0  0
 25 26  1  0  0  0
 26 27  2  0  0  0
 25 28  1  0  0  0
 28 29  1  0  0  0
 29 30  1  0  0  0
 30 31  1  0  0  0
 31 32  1  0  0  0
 31 33  1  0  0  0
 33 34  1  0  0  0
  5  6  2  0  0  0
  6  7  1  0  0  0
  7  8  2  0  0  0
  8  9  1  0  0  0
  9 10  1  0  0  0
  9 11  1  0  0  0
 11 12  2  0  0  0
 11  1  1  0  0  0
 17 13  1  0  0  0
  8  3  1  0  0  0
 27 22  1  0  0  0
 34 28  1  0  0  0
 20 21  1  0  0  0
M  END
> <minimizedAffinity>
-10.00900

> <CNNscore>
0.9802681208

> <CNNaffinity>
8.0905570984

> <CNN_VS>
7.9309153557

> <CNNaffinity_variance>
0.0234002732

$$$$
[H]c1nc(N([H])c2c([H])c([H])c(N3C([H])([H])C([H])([H])N(C([H])([H])[H])C([H])([H])C3([H])[H])c([H])c2[H])nc2c1N(C([H])([H])[H])C(=O)[C@@]([H])(C([H])([H])C([H])([H])[H])N2C1([H])C([H])([H])C([H])([H])C([H])([H])C1([H])[H]


 34 38  0  0  0  0  0  0  0  0999 V2000
   50.6181   -5.3817   -6.0353 C   0  0  0  0  0  0  0  0  0  0  0  0
   52.0376   -5.4916   -6.0730 N   0  0  0  0  0  0  0  0  0  0  0  0
   52.7108   -4.7258   -7.0893 C   0  0  0  0  0  0  0  0  0  0  0  0
   53.8841   -5.1502   -7.5873 N   0  0  0  0  0  0  0  0  0  0  0  0
   54.5355   -4.4227   -8.5587 C   0  0  0  0  0  0  0  0  0  0  0  0
   53.9641   -3.2918   -8.9832 N   0  0  0  0  0  0  0  0  0  0  0  0
   52.8013   -2.7988   -8.5420 C   0  0  0  0  0  0  0  0  0  0  0  0
   52.1566   -3.5433   -7.5629 C   0  0  0  0  0  0  0  0  0  0  0  0
   50.9171   -3.1268   -7.0123 N   0  0  0  0  0  0  0  0  0  0  0  0
   50.2855   -1.8810   -7.4764 C   0  0  0  0  0  0  0  0  0  0  0  0
   50.2918   -3.9199   -6.0102 C   0  0  0  0  0  0  0  0  0  0  0  0
   49.5253   -3.3957   -5.1794 O   0  0  0  0  0  0  0  0  0  0  0  0
   52.8582   -6.2859   -5.1942 C   0  0  0  0  0  0  0  0  0  0  0  0
   52.1650   -6.6840   -3.9279 C   0  0  0  0  0  0  0  0  0  0  0  0
   53.1197   -6.3818   -2.7928 C   0  0  0  0  0  0  0  0  0  0  0  0
   53.9552   -5.2275   -3.3634 C   0  0  0  0  0  0  0  0  0  0  0  0
   54.1226   -5.6418   -4.7816 C   0  0  0  0  0  0  0  0  0  0  0  0
   50.4009   -7.4039   -7.4927 C   0  0  0  0  0  0  0  0  0  0  0  0
   50.0284   -5.9448   -7.3247 C   0  0  0  0  0  0  0  0  0  0  0  0
   55.7712   -4.9463   -9.0001 N   0  0  0  0  0  0  0  0  0  0  0  0
   56.2675   -5.6702   -8.3854 H   0  0  0  0  0  0  0  0  0  0  0  0
   56.4309   -4.6205  -10.1797 C   0  0  0  0  0  0  0  0  0  0  0  0
   55.8355   -4.0487  -11.2579 C   0  0  0  0  0  0  0  0  0  0  0  0
   56.5528   -3.7161  -12.4172 C   0  0  0  0  0  0  0  0  0  0  0  0
   57.9004   -3.9595  -12.5077 C   0  0  0  0  0  0  0  0  0  0  0  0
   58.4923   -4.5392  -11.4105 C   0  0  0  0  0  0  0  0  0  0  0  0
   57.8046   -4.8708  -10.2675 C   0  0  0  0  0  0  0  0  0  0  0  0
   58.6391   -3.6358  -13.6696 N   0  0  0  0  0  0  0  0  0  0  0  0
   57.9287   -3.2255  -14.8775 C   0  0  0  0  0  0  0  0  0  0  0  0
   58.8516   -3.5706  -16.0428 C   0  0  0  0  0  0  0  0  0  0  0  0
   60.0098   -2.7134  -16.0009 N   0  0  0  0  0  0  0  0  0  0  0  0
   60.8818   -2.9116  -17.1158 C   0  0  0  0  0  0  0  0  0  0  0  0
   60.6922   -2.7692  -14.7413 C   0  0  0  0  0  0  0  0  0  0  0  0
   60.0633   -3.6838  -13.7343 C   0  0  0  0  0  0  0  0  0  0  0  0
 18 19  1  0  0  0
 19  1  1  0  0  0
  1  2  1  0  0  0
  2 13  1  0  0  0
 13 14  1  0  0  0
 14 15  1  0  0  0
 15 16  1  0  0  0
 16 17  1  0  0  0
  2  3  1  0  0  0
  3  4  2  0  0  0
  4  5  1  0  0  0
  5 20  1  0  0  0
 20 22  1  0  0  0
 22 23  2  0  0  0
 23 24  1  0  0  0
 24 25  2  0  0  0
 25 26  1  0  0  0
 26 27  2  0  0  0
 25 28  1  0  0  0
 28 29  1  0  0  0
 29 30  1  0  0  0
 30 31  1  0  0  0
 31 32  1  0  0  0
 31 33  1  0  0  0
 33 34  1  0  0  0
  5  6  2  0  0  0
  6  7  1  0  0  0
  7  8  2  0  0  0
  8  9  1  0  0  0
  9 10  1  0  0  0
  9 11  1  0  0  0
 11 12  2  0  0  0
 11  1  1  0  0  0
 17 13  1  0  0  0
  8  3  1  0  0  0
 27 22  1  0  0  0
 34 28  1  0  0  0
 20 21  1  0  0  0
M  END
> <minimizedAffinity>
-9.09073

> <CNNscore>
0.6703068018

> <CNNaffinity>
7.5054388046

> <CNN_VS>
5.0309467316

> <CNNaffinity_variance>
0.1171728224

$$$$
[H]c1nc(N([H])c2c([H])c([H])c(N3C([H])([H])C([H])([H])N(C([H])([H])[H])C([H])([H])C3([H])[H])c([H])c2[H])nc2c1N(C([H])([H])[H])C(=O)[C@@]([H])(C([H])([H])C([H])([H])[H])N2C1([H])C([H])([H])C([H])([H])C([H])([H])C1([H])[H]


 34 38  0  0  0  0  0  0  0  0999 V2000
   50.4716   -5.7069   -4.8244 C   0  0  0  0  0  0  0  0  0  0  0  0
   51.5714   -4.9938   -5.3815 N   0  0  0  0  0  0  0  0  0  0  0  0
   51.2454   -3.9156   -6.2780 C   0  0  0  0  0  0  0  0  0  0  0  0
   52.0997   -3.5693   -7.2553 N   0  0  0  0  0  0  0  0  0  0  0  0
   51.7962   -2.5380   -8.1163 C   0  0  0  0  0  0  0  0  0  0  0  0
   50.6336   -1.9014   -7.9462 N   0  0  0  0  0  0  0  0  0  0  0  0
   49.7285   -2.1816   -7.0018 C   0  0  0  0  0  0  0  0  0  0  0  0
   50.0487   -3.2236   -6.1414 C   0  0  0  0  0  0  0  0  0  0  0  0
   49.1725   -3.6172   -5.0972 N   0  0  0  0  0  0  0  0  0  0  0  0
   47.8920   -2.9174   -4.9059 C   0  0  0  0  0  0  0  0  0  0  0  0
   49.5410   -4.6899   -4.2381 C   0  0  0  0  0  0  0  0  0  0  0  0
   49.0967   -4.7468   -3.0754 O   0  0  0  0  0  0  0  0  0  0  0  0
   52.9683   -5.2432   -5.1309 C   0  0  0  0  0  0  0  0  0  0  0  0
   53.5564   -6.2933   -6.0221 C   0  0  0  0  0  0  0  0  0  0  0  0
   54.3305   -7.2404   -5.1305 C   0  0  0  0  0  0  0  0  0  0  0  0
   53.5888   -7.1140   -3.7927 C   0  0  0  0  0  0  0  0  0  0  0  0
   53.2822   -5.6596   -3.7482 C   0  0  0  0  0  0  0  0  0  0  0  0
   50.6602   -6.9453   -6.9903 C   0  0  0  0  0  0  0  0  0  0  0  0
   49.7071   -6.4166   -5.9377 C   0  0  0  0  0  0  0  0  0  0  0  0
   52.7706   -2.2419   -9.0955 N   0  0  0  0  0  0  0  0  0  0  0  0
   52.5918   -1.4220   -9.7618 H   0  0  0  0  0  0  0  0  0  0  0  0
   53.9723   -2.9127   -9.2926 C   0  0  0  0  0  0  0  0  0  0  0  0
   54.2431   -3.7006  -10.3649 C   0  0  0  0  0  0  0  0  0  0  0  0
   55.4833   -4.3364  -10.5293 C   0  0  0  0  0  0  0  0  0  0  0  0
   56.4826   -4.1851   -9.6008 C   0  0  0  0  0  0  0  0  0  0  0  0
   56.1968   -3.3859   -8.5193 C   0  0  0  0  0  0  0  0  0  0  0  0
   54.9879   -2.7559   -8.3433 C   0  0  0  0  0  0  0  0  0  0  0  0
   57.7371   -4.8218   -9.7468 N   0  0  0  0  0  0  0  0  0  0  0  0
   58.1564   -5.8108   -8.7578 C   0  0  0  0  0  0  0  0  0  0  0  0
   59.6820   -5.8185   -8.7950 C   0  0  0  0  0  0  0  0  0  0  0  0
   60.1233   -6.3634  -10.0546 N   0  0  0  0  0  0  0  0  0  0  0  0
   61.5447   -6.4905  -10.1314 C   0  0  0  0  0  0  0  0  0  0  0  0
   59.5624   -5.6751  -11.1803 C   0  0  0  0  0  0  0  0  0  0  0  0
   58.6339   -4.5542  -10.8232 C   0  0  0  0  0  0  0  0  0  0  0  0
 18 19  1  0  0  0
 19  1  1  0  0  0
  1  2  1  0  0  0
  2 13  1  0  0  0
 13 14  1  0  0  0
 14 15  1  0  0  0
 15 16  1  0  0  0
 16 17  1  0  0  0
  2  3  1  0  0  0
  3  4  2  0  0  0
  4  5  1  0  0  0
  5 20  1  0  0  0
 20 22  1  0  0  0
 22 23  2  0  0  0
 23 24  1  0  0  0
 24 25  2  0  0  0
 25 26  1  0  0  0
 26 27  2  0  0  0
 25 28  1  0  0  0
 28 29  1  0  0  0
 29 30  1  0  0  0
 30 31  1  0  0  0
 31 32  1  0  0  0
 31 33  1  0  0  0
 33 34  1  0  0  0
  5  6  2  0  0  0
  6  7  1  0  0  0
  7  8  2  0  0  0
  8  9  1  0  0  0
  9 10  1  0  0  0
  9 11  1  0  0  0
 11 12  2  0  0  0
 11  1  1  0  0  0
 17 13  1  0  0  0
  8  3  1  0  0  0
 27 22  1  0  0  0
 34 28  1  0  0  0
 20 21  1  0  0  0
M  END
> <minimizedAffinity>
-6.23123

> <CNNscore>
0.5343812704

> <CNNaffinity>
7.6808457375

> <CNN_VS>
4.1045002937

> <CNNaffinity_variance>
0.3109761178

$$$$
[H]c1nc(N([H])c2c([H])c([H])c(N3C([H])([H])C([H])([H])N(C([H])([H])[H])C([H])([H])C3([H])[H])c([H])c2[H])nc2c1N(C([H])([H])[H])C(=O)[C@@]([H])(C([H])([H])C([H])([H])[H])N2C1([H])C([H])([H])C([H])([H])C([H])([H])C1([H])[H]


 34 38  0  0  0  0  0  0  0  0999 V2000
   64.0453  -11.2831  -15.2788 C   0  0  0  0  0  0  0  0  0  0  0  0
   63.8825  -11.1319  -13.8721 N   0  0  0  0  0  0  0  0  0  0  0  0
   64.3396   -9.8897  -13.3060 C   0  0  0  0  0  0  0  0  0  0  0  0
   64.7621   -9.8443  -12.0315 N   0  0  0  0  0  0  0  0  0  0  0  0
   65.1996   -8.6596  -11.4817 C   0  0  0  0  0  0  0  0  0  0  0  0
   65.1886   -7.5689  -12.2538 N   0  0  0  0  0  0  0  0  0  0  0  0
   64.7852   -7.5267  -13.5286 C   0  0  0  0  0  0  0  0  0  0  0  0
   64.3471   -8.7288  -14.0687 C   0  0  0  0  0  0  0  0  0  0  0  0
   63.8926   -8.8157  -15.4100 N   0  0  0  0  0  0  0  0  0  0  0  0
   63.8778   -7.6162  -16.2627 C   0  0  0  0  0  0  0  0  0  0  0  0
   63.4516  -10.0676  -15.9224 C   0  0  0  0  0  0  0  0  0  0  0  0
   62.6213  -10.1111  -16.8504 O   0  0  0  0  0  0  0  0  0  0  0  0
   63.3033  -12.0942  -12.9692 C   0  0  0  0  0  0  0  0  0  0  0  0
   64.3188  -12.8384  -12.1582 C   0  0  0  0  0  0  0  0  0  0  0  0
   63.9590  -14.3060  -12.2464 C   0  0  0  0  0  0  0  0  0  0  0  0
   63.2471  -14.3898  -13.6037 C   0  0  0  0  0  0  0  0  0  0  0  0
   62.4666  -13.1242  -13.6194 C   0  0  0  0  0  0  0  0  0  0  0  0
   65.7466  -11.6801  -17.0700 C   0  0  0  0  0  0  0  0  0  0  0  0
   65.5315  -11.2850  -15.6231 C   0  0  0  0  0  0  0  0  0  0  0  0
   65.6038   -8.7167  -10.1292 N   0  0  0  0  0  0  0  0  0  0  0  0
   66.6509   -8.6694   -9.9071 H   0  0  0  0  0  0  0  0  0  0  0  0
   64.7690   -8.8255   -9.0228 C   0  0  0  0  0  0  0  0  0  0  0  0
   63.8341   -7.9043   -8.6747 C   0  0  0  0  0  0  0  0  0  0  0  0
   62.9980   -8.0741   -7.5605 C   0  0  0  0  0  0  0  0  0  0  0  0
   63.0946   -9.1912   -6.7692 C   0  0  0  0  0  0  0  0  0  0  0  0
   64.0451  -10.1165   -7.1308 C   0  0  0  0  0  0  0  0  0  0  0  0
   64.8714   -9.9659   -8.2188 C   0  0  0  0  0  0  0  0  0  0  0  0
   62.2643   -9.3775   -5.6395 N   0  0  0  0  0  0  0  0  0  0  0  0
   62.4296  -10.5748   -4.8201 C   0  0  0  0  0  0  0  0  0  0  0  0
   61.0802  -10.8107   -4.1476 C   0  0  0  0  0  0  0  0  0  0  0  0
   60.8338   -9.7571   -3.1952 N   0  0  0  0  0  0  0  0  0  0  0  0
   59.6280   -9.9559   -2.4542 C   0  0  0  0  0  0  0  0  0  0  0  0
   60.9202   -8.4517   -3.7818 C   0  0  0  0  0  0  0  0  0  0  0  0
   61.2578   -8.4482   -5.2420 C   0  0  0  0  0  0  0  0  0  0  0  0
 18 19  1  0  0  0
 19  1  1  0  0  0
  1  2  1  0  0  0
  2 13  1  0  0  0
 13 14  1  0  0  0
 14 15  1  0  0  0
 15 16  1  0  0  0
 16 17  1  0  0  0
  2  3  1  0  0  0
  3  4  2  0  0  0
  4  5  1  0  0  0
  5 20  1  0  0  0
 20 22  1  0  0  0
 22 23  2  0  0  0
 23 24  1  0  0  0
 24 25  2  0  0  0
 25 26  1  0  0  0
 26 27  2  0  0  0
 25 28  1  0  0  0
 28 29  1  0  0  0
 29 30  1  0  0  0
 30 31  1  0  0  0
 31 32  1  0  0  0
 31 33  1  0  0  0
 33 34  1  0  0  0
  5  6  2  0  0  0
  6  7  1  0  0  0
  7  8  2  0  0  0
  8  9  1  0  0  0
  9 10  1  0  0  0
  9 11  1  0  0  0
 11 12  2  0  0  0
 11  1  1  0  0  0
 17 13  1  0  0  0
  8  3  1  0  0  0
 27 22  1  0  0  0
 34 28  1  0  0  0
 20 21  1  0  0  0
M  END
> <minimizedAffinity>
-2.37022

> <CNNscore>
0.5342882276

> <CNNaffinity>
5.4873886108

> <CNN_VS>
2.9318470955

> <CNNaffinity_variance>
0.3927735686

$$$$
[H]c1nc(N([H])c2c([H])c([H])c(N3C([H])([H])C([H])([H])N(C([H])([H])[H])C([H])([H])C3([H])[H])c([H])c2[H])nc2c1N(C([H])([H])[H])C(=O)[C@@]([H])(C([H])([H])C([H])([H])[H])N2C1([H])C([H])([H])C([H])([H])C([H])([H])C1([H])[H]


 34 38  0  0  0  0  0  0  0  0999 V2000
   64.0582  -13.1496  -13.9043 C   0  0  0  0  0  0  0  0  0  0  0  0
   63.9030  -12.2502  -12.8110 N   0  0  0  0  0  0  0  0  0  0  0  0
   64.2819  -10.8821  -13.0506 C   0  0  0  0  0  0  0  0  0  0  0  0
   64.7161  -10.1150  -12.0368 N   0  0  0  0  0  0  0  0  0  0  0  0
   65.0791   -8.8047  -12.2571 C   0  0  0  0  0  0  0  0  0  0  0  0
   64.9847   -8.3295  -13.5025 N   0  0  0  0  0  0  0  0  0  0  0  0
   64.5637   -9.0231  -14.5661 C   0  0  0  0  0  0  0  0  0  0  0  0
   64.2012  -10.3424  -14.3281 C   0  0  0  0  0  0  0  0  0  0  0  0
   63.7372  -11.1826  -15.3729 N   0  0  0  0  0  0  0  0  0  0  0  0
   63.6305  -10.6622  -16.7454 C   0  0  0  0  0  0  0  0  0  0  0  0
   63.3756  -12.5281  -15.0841 C   0  0  0  0  0  0  0  0  0  0  0  0
   62.5388  -13.1212  -15.7915 O   0  0  0  0  0  0  0  0  0  0  0  0
   63.4016  -12.5753  -11.4998 C   0  0  0  0  0  0  0  0  0  0  0  0
   63.5510  -14.0226  -11.1455 C   0  0  0  0  0  0  0  0  0  0  0  0
   62.2172  -14.4779  -10.5932 C   0  0  0  0  0  0  0  0  0  0  0  0
   61.2306  -13.5347  -11.2953 C   0  0  0  0  0  0  0  0  0  0  0  0
   61.9764  -12.2483  -11.2859 C   0  0  0  0  0  0  0  0  0  0  0  0
   65.7550  -14.3636  -15.2855 C   0  0  0  0  0  0  0  0  0  0  0  0
   65.5368  -13.2690  -14.2607 C   0  0  0  0  0  0  0  0  0  0  0  0
   65.5030   -8.0802  -11.1207 N   0  0  0  0  0  0  0  0  0  0  0  0
   66.4387   -7.5602  -11.1668 H   0  0  0  0  0  0  0  0  0  0  0  0
   64.8183   -7.9598   -9.9167 C   0  0  0  0  0  0  0  0  0  0  0  0
   63.6599   -7.2690   -9.7598 C   0  0  0  0  0  0  0  0  0  0  0  0
   62.9941   -7.1991   -8.5264 C   0  0  0  0  0  0  0  0  0  0  0  0
   63.4947   -7.8335   -7.4171 C   0  0  0  0  0  0  0  0  0  0  0  0
   64.6683   -8.5290   -7.5878 C   0  0  0  0  0  0  0  0  0  0  0  0
   65.3326   -8.6078   -8.7885 C   0  0  0  0  0  0  0  0  0  0  0  0
   62.8406   -7.7702   -6.1647 N   0  0  0  0  0  0  0  0  0  0  0  0
   63.3602   -6.8797   -5.1307 C   0  0  0  0  0  0  0  0  0  0  0  0
   62.9085   -7.4753   -3.8003 C   0  0  0  0  0  0  0  0  0  0  0  0
   61.4763   -7.3554   -3.6885 N   0  0  0  0  0  0  0  0  0  0  0  0
   60.9830   -7.8082   -2.4259 C   0  0  0  0  0  0  0  0  0  0  0  0
   60.7852   -7.9399   -4.8004 C   0  0  0  0  0  0  0  0  0  0  0  0
   61.6804   -8.5357   -5.8443 C   0  0  0  0  0  0  0  0  0  0  0  0
 18 19  1  0  0  0
 19  1  1  0  0  0
  1  2  1  0  0  0
  2 13  1  0  0  0
 13 14  1  0  0  0
 14 15  1  0  0  0
 15 16  1  0  0  0
 16 17  1  0  0  0
  2  3  1  0  0  0
  3  4  2  0  0  0
  4  5  1  0  0  0
  5 20  1  0  0  0
 20 22  1  0  0  0
 22 23  2  0  0  0
 23 24  1  0  0  0
 24 25  2  0  0  0
 25 26  1  0  0  0
 26 27  2  0  0  0
 25 28  1  0  0  0
 28 29  1  0  0  0
 29 30  1  0  0  0
 30 31  1  0  0  0
 31 32  1  0  0  0
 31 33  1  0  0  0
 33 34  1  0  0  0
  5  6  2  0  0  0
  6  7  1  0  0  0
  7  8  2  0  0  0
  8  9  1  0  0  0
  9 10  1  0  0  0
  9 11  1  0  0  0
 11 12  2  0  0  0
 11  1  1  0  0  0
 17 13  1  0  0  0
  8  3  1  0  0  0
 27 22  1  0  0  0
 34 28  1  0  0  0
 20 21  1  0  0  0
M  END
> <minimizedAffinity>
-2.98884

> <CNNscore>
0.4636143744

> <CNNaffinity>
5.3332772255

> <CNN_VS>
2.4725840092

> <CNNaffinity_variance>
0.1530922204

$$$$
[H]c1nc(N([H])c2c([H])c([H])c(N3C([H])([H])C([H])([H])N(C([H])([H])[H])C([H])([H])C3([H])[H])c([H])c2[H])nc2c1N(C([H])([H])[H])C(=O)[C@@]([H])(C([H])([H])C([H])([H])[H])N2C1([H])C([H])([H])C([H])([H])C([H])([H])C1([H])[H]


 34 38  0  0  0  0  0  0  0  0999 V2000
   64.3956   -8.5554  -15.6932 C   0  0  0  0  0  0  0  0  0  0  0  0
   64.2714   -9.0733  -14.3723 N   0  0  0  0  0  0  0  0  0  0  0  0
   64.0721   -8.1074  -13.3236 C   0  0  0  0  0  0  0  0  0  0  0  0
   64.4960   -8.3692  -12.0759 N   0  0  0  0  0  0  0  0  0  0  0  0
   64.3079   -7.4512  -11.0665 C   0  0  0  0  0  0  0  0  0  0  0  0
   63.6952   -6.3031  -11.3700 N   0  0  0  0  0  0  0  0  0  0  0  0
   63.2433   -5.9636  -12.5825 C   0  0  0  0  0  0  0  0  0  0  0  0
   63.4402   -6.8993  -13.5897 C   0  0  0  0  0  0  0  0  0  0  0  0
   63.0055   -6.6589  -14.9187 N   0  0  0  0  0  0  0  0  0  0  0  0
   62.3290   -5.3962  -15.2563 C   0  0  0  0  0  0  0  0  0  0  0  0
   63.2270   -7.6458  -15.9194 C   0  0  0  0  0  0  0  0  0  0  0  0
   62.4744   -7.7186  -16.9097 O   0  0  0  0  0  0  0  0  0  0  0  0
   64.3204  -10.4616  -13.9892 C   0  0  0  0  0  0  0  0  0  0  0  0
   65.7134  -10.9941  -13.8517 C   0  0  0  0  0  0  0  0  0  0  0  0
   65.7549  -12.3091  -14.6002 C   0  0  0  0  0  0  0  0  0  0  0  0
   64.6702  -12.1146  -15.6687 C   0  0  0  0  0  0  0  0  0  0  0  0
   63.6218  -11.3809  -14.9114 C   0  0  0  0  0  0  0  0  0  0  0  0
   65.7544   -7.0436  -17.1521 C   0  0  0  0  0  0  0  0  0  0  0  0
   65.6515   -7.6945  -15.7877 C   0  0  0  0  0  0  0  0  0  0  0  0
   64.7732   -7.8326   -9.7882 N   0  0  0  0  0  0  0  0  0  0  0  0
   65.6340   -7.3347   -9.3889 H   0  0  0  0  0  0  0  0  0  0  0  0
   64.2189   -8.8066   -8.9654 C   0  0  0  0  0  0  0  0  0  0  0  0
   64.9329   -9.7754   -8.3366 C   0  0  0  0  0  0  0  0  0  0  0  0
   64.3273  -10.7212   -7.4952 C   0  0  0  0  0  0  0  0  0  0  0  0
   62.9731  -10.7039   -7.2731 C   0  0  0  0  0  0  0  0  0  0  0  0
   62.2605   -9.7191   -7.9155 C   0  0  0  0  0  0  0  0  0  0  0  0
   62.8379   -8.7852   -8.7423 C   0  0  0  0  0  0  0  0  0  0  0  0
   62.3443  -11.6518   -6.4325 N   0  0  0  0  0  0  0  0  0  0  0  0
   60.9963  -12.1108   -6.7553 C   0  0  0  0  0  0  0  0  0  0  0  0
   60.3796  -12.5595   -5.4335 C   0  0  0  0  0  0  0  0  0  0  0  0
   61.0590  -13.7436   -4.9705 N   0  0  0  0  0  0  0  0  0  0  0  0
   60.4782  -14.2815   -3.7807 C   0  0  0  0  0  0  0  0  0  0  0  0
   62.4773  -13.5609   -4.8665 C   0  0  0  0  0  0  0  0  0  0  0  0
   62.9591  -12.1997   -5.2679 C   0  0  0  0  0  0  0  0  0  0  0  0
 18 19  1  0  0  0
 19  1  1  0  0  0
  1  2  1  0  0  0
  2 13  1  0  0  0
 13 14  1  0  0  0
 14 15  1  0  0  0
 15 16  1  0  0  0
 16 17  1  0  0  0
  2  3  1  0  0  0
  3  4  2  0  0  0
  4  5  1  0  0  0
  5 20  1  0  0  0
 20 22  1  0  0  0
 22 23  2  0  0  0
 23 24  1  0  0  0
 24 25  2  0  0  0
 25 26  1  0  0  0
 26 27  2  0  0  0
 25 28  1  0  0  0
 28 29  1  0  0  0
 29 30  1  0  0  0
 30 31  1  0  0  0
 31 32  1  0  0  0
 31 33  1  0  0  0
 33 34  1  0  0  0
  5  6  2  0  0  0
  6  7  1  0  0  0
  7  8  2  0  0  0
  8  9  1  0  0  0
  9 10  1  0  0  0
  9 11  1  0  0  0
 11 12  2  0  0  0
 11  1  1  0  0  0
 17 13  1  0  0  0
  8  3  1  0  0  0
 27 22  1  0  0  0
 34 28  1  0  0  0
 20 21  1  0  0  0
M  END
> <minimizedAffinity>
-2.71338

> <CNNscore>
0.4339627624

> <CNNaffinity>
5.3047199249

> <CNN_VS>
2.3020508289

> <CNNaffinity_variance>
0.2037007362

$$$$
[H]c1nc(N([H])c2c([H])c([H])c(N3C([H])([H])C([H])([H])N(C([H])([H])[H])C([H])([H])C3([H])[H])c([H])c2[H])nc2c1N(C([H])([H])[H])C(=O)[C@@]([H])(C([H])([H])C([H])([H])[H])N2C1([H])C([H])([H])C([H])([H])C([H])([H])C1([H])[H]


 34 38  0  0  0  0  0  0  0  0999 V2000
   64.3829   -7.5103  -15.2602 C   0  0  0  0  0  0  0  0  0  0  0  0
   64.3044   -8.5750  -14.3175 N   0  0  0  0  0  0  0  0  0  0  0  0
   64.0140   -8.2036  -12.9572 C   0  0  0  0  0  0  0  0  0  0  0  0
   64.4576   -8.9627  -11.9414 N   0  0  0  0  0  0  0  0  0  0  0  0
   64.1828   -8.6153  -10.6372 C   0  0  0  0  0  0  0  0  0  0  0  0
   63.4668   -7.5079  -10.4214 N   0  0  0  0  0  0  0  0  0  0  0  0
   62.9880   -6.6978  -11.3723 C   0  0  0  0  0  0  0  0  0  0  0  0
   63.2732   -7.0612  -12.6820 C   0  0  0  0  0  0  0  0  0  0  0  0
   62.8210   -6.2856  -13.7806 N   0  0  0  0  0  0  0  0  0  0  0  0
   62.0309   -5.0661  -13.5467 C   0  0  0  0  0  0  0  0  0  0  0  0
   63.1354   -6.6953  -15.1063 C   0  0  0  0  0  0  0  0  0  0  0  0
   62.3950   -6.3765  -16.0564 O   0  0  0  0  0  0  0  0  0  0  0  0
   64.4813   -9.9780  -14.5943 C   0  0  0  0  0  0  0  0  0  0  0  0
   65.7551  -10.2877  -15.3183 C   0  0  0  0  0  0  0  0  0  0  0  0
   65.3937  -11.2049  -16.4669 C   0  0  0  0  0  0  0  0  0  0  0  0
   63.9404  -10.8080  -16.7609 C   0  0  0  0  0  0  0  0  0  0  0  0
   63.3992  -10.5903  -15.3931 C   0  0  0  0  0  0  0  0  0  0  0  0
   65.7550   -5.5428  -15.9720 C   0  0  0  0  0  0  0  0  0  0  0  0
   65.5536   -6.5991  -14.9045 C   0  0  0  0  0  0  0  0  0  0  0  0
   64.6787   -9.4911   -9.6457 N   0  0  0  0  0  0  0  0  0  0  0  0
   65.6240   -9.9673   -9.8119 H   0  0  0  0  0  0  0  0  0  0  0  0
   64.0604   -9.8085   -8.4416 C   0  0  0  0  0  0  0  0  0  0  0  0
   63.2041  -10.8484   -8.2707 C   0  0  0  0  0  0  0  0  0  0  0  0
   62.6254  -11.1416   -7.0263 C   0  0  0  0  0  0  0  0  0  0  0  0
   62.9054  -10.3787   -5.9203 C   0  0  0  0  0  0  0  0  0  0  0  0
   63.7729   -9.3283   -6.1055 C   0  0  0  0  0  0  0  0  0  0  0  0
   64.3485   -9.0278   -7.3169 C   0  0  0  0  0  0  0  0  0  0  0  0
   62.3280  -10.6556   -4.6592 N   0  0  0  0  0  0  0  0  0  0  0  0
   62.1278   -9.5649   -3.7093 C   0  0  0  0  0  0  0  0  0  0  0  0
   62.1254  -10.2101   -2.3264 C   0  0  0  0  0  0  0  0  0  0  0  0
   60.9461  -11.0271   -2.1859 N   0  0  0  0  0  0  0  0  0  0  0  0
   60.8223  -11.5948   -0.8802 C   0  0  0  0  0  0  0  0  0  0  0  0
   60.8208  -11.9996   -3.2320 C   0  0  0  0  0  0  0  0  0  0  0  0
   61.9185  -11.9598   -4.2515 C   0  0  0  0  0  0  0  0  0  0  0  0
 18 19  1  0  0  0
 19  1  1  0  0  0
  1  2  1  0  0  0
  2 13  1  0  0  0
 13 14  1  0  0  0
 14 15  1  0  0  0
 15 16  1  0  0  0
 16 17  1  0  0  0
  2  3  1  0  0  0
  3  4  2  0  0  0
  4  5  1  0  0  0
  5 20  1  0  0  0
 20 22  1  0  0  0
 22 23  2  0  0  0
 23 24  1  0  0  0
 24 25  2  0  0  0
 25 26  1  0  0  0
 26 27  2  0  0  0
 25 28  1  0  0  0
 28 29  1  0  0  0
 29 30  1  0  0  0
 30 31  1  0  0  0
 31 32  1  0  0  0
 31 33  1  0  0  0
 33 34  1  0  0  0
  5  6  2  0  0  0
  6  7  1  0  0  0
  7  8  2  0  0  0
  8  9  1  0  0  0
  9 10  1  0  0  0
  9 11  1  0  0  0
 11 12  2  0  0  0
 11  1  1  0  0  0
 17 13  1  0  0  0
  8  3  1  0  0  0
 27 22  1  0  0  0
 34 28  1  0  0  0
 20 21  1  0  0  0
M  END
> <minimizedAffinity>
-2.26892

> <CNNscore>
0.4306527972

> <CNNaffinity>
5.1265125275

> <CNN_VS>
2.2077469826

> <CNNaffinity_variance>
0.2513925135

$$$$
[H]c1nc(N([H])c2c([H])c([H])c(N3C([H])([H])C([H])([H])N(C([H])([H])[H])C([H])([H])C3([H])[H])c([H])c2[H])nc2c1N(C([H])([H])[H])C(=O)[C@@]([H])(C([H])([H])C([H])([H])[H])N2C1([H])C([H])([H])C([H])([H])C([H])([H])C1([H])[H]


 34 38  0  0  0  0  0  0  0  0999 V2000
   55.5050   -5.5723   -4.5892 C   0  0  0  0  0  0  0  0  0  0  0  0
   55.1775   -4.8444   -5.7687 N   0  0  0  0  0  0  0  0  0  0  0  0
   54.1424   -5.4041   -6.5981 C   0  0  0  0  0  0  0  0  0  0  0  0
   54.1390   -5.1719   -7.9213 N   0  0  0  0  0  0  0  0  0  0  0  0
   53.1515   -5.7024   -8.7217 C   0  0  0  0  0  0  0  0  0  0  0  0
   52.2074   -6.4484   -8.1405 N   0  0  0  0  0  0  0  0  0  0  0  0
   52.1368   -6.7283   -6.8342 C   0  0  0  0  0  0  0  0  0  0  0  0
   53.1391   -6.1864   -6.0403 C   0  0  0  0  0  0  0  0  0  0  0  0
   53.1755   -6.4087   -4.6395 N   0  0  0  0  0  0  0  0  0  0  0  0
   52.1365   -7.2287   -3.9958 C   0  0  0  0  0  0  0  0  0  0  0  0
   54.2205   -5.8336   -3.8640 C   0  0  0  0  0  0  0  0  0  0  0  0
   54.0416   -5.5767   -2.6580 O   0  0  0  0  0  0  0  0  0  0  0  0
   55.7750   -3.6077   -6.2048 C   0  0  0  0  0  0  0  0  0  0  0  0
   54.7839   -2.5022   -6.4004 C   0  0  0  0  0  0  0  0  0  0  0  0
   55.0860   -1.8764   -7.7451 C   0  0  0  0  0  0  0  0  0  0  0  0
   55.7128   -3.0445   -8.5188 C   0  0  0  0  0  0  0  0  0  0  0  0
   56.5350   -3.7020   -7.4687 C   0  0  0  0  0  0  0  0  0  0  0  0
   55.0218   -8.0107   -4.8748 C   0  0  0  0  0  0  0  0  0  0  0  0
   56.0814   -6.9319   -4.9723 C   0  0  0  0  0  0  0  0  0  0  0  0
   53.2292   -5.3818  -10.0954 N   0  0  0  0  0  0  0  0  0  0  0  0
   52.3217   -5.3511  -10.6644 H   0  0  0  0  0  0  0  0  0  0  0  0
   54.3852   -5.0884  -10.8099 C   0  0  0  0  0  0  0  0  0  0  0  0
   54.4197   -4.8456  -12.1454 C   0  0  0  0  0  0  0  0  0  0  0  0
   55.6112   -4.5287  -12.8156 C   0  0  0  0  0  0  0  0  0  0  0  0
   56.8026   -4.4516  -12.1388 C   0  0  0  0  0  0  0  0  0  0  0  0
   56.7556   -4.7000  -10.7874 C   0  0  0  0  0  0  0  0  0  0  0  0
   55.5975   -5.0112  -10.1158 C   0  0  0  0  0  0  0  0  0  0  0  0
   58.0143   -4.1385  -12.7978 N   0  0  0  0  0  0  0  0  0  0  0  0
   59.2836   -4.4312  -12.1380 C   0  0  0  0  0  0  0  0  0  0  0  0
   60.2974   -3.4568  -12.7307 C   0  0  0  0  0  0  0  0  0  0  0  0
   60.5274   -3.7937  -14.1133 N   0  0  0  0  0  0  0  0  0  0  0  0
   61.5372   -2.9822  -14.7168 C   0  0  0  0  0  0  0  0  0  0  0  0
   59.3161   -3.8396  -14.8789 C   0  0  0  0  0  0  0  0  0  0  0  0
   58.0738   -3.5456  -14.0938 C   0  0  0  0  0  0  0  0  0  0  0  0
 18 19  1  0  0  0
 19  1  1  0  0  0
  1  2  1  0  0  0
  2 13  1  0  0  0
 13 14  1  0  0  0
 14 15  1  0  0  0
 15 16  1  0  0  0
 16 17  1  0  0  0
  2  3  1  0  0  0
  3  4  2  0  0  0
  4  5  1  0  0  0
  5 20  1  0  0  0
 20 22  1  0  0  0
 22 23  2  0  0  0
 23 24  1  0  0  0
 24 25  2  0  0  0
 25 26  1  0  0  0
 26 27  2  0  0  0
 25 28  1  0  0  0
 28 29  1  0  0  0
 29 30  1  0  0  0
 30 31  1  0  0  0
 31 32  1  0  0  0
 31 33  1  0  0  0
 33 34  1  0  0  0
  5  6  2  0  0  0
  6  7  1  0  0  0
  7  8  2  0  0  0
  8  9  1  0  0  0
  9 10  1  0  0  0
  9 11  1  0  0  0
 11 12  2  0  0  0
 11  1  1  0  0  0
 17 13  1  0  0  0
  8  3  1  0  0  0
 27 22  1  0  0  0
 34 28  1  0  0  0
 20 21  1  0  0  0
M  END
> <minimizedAffinity>
10.56500

> <CNNscore>
0.4156663120

> <CNNaffinity>
6.5455789566

> <CNN_VS>
2.7207765579

> <CNNaffinity_variance>
0.5554953814

$$$$
[H]c1nc(N([H])c2c([H])c([H])c(N3C([H])([H])C([H])([H])N(C([H])([H])[H])C([H])([H])C3([H])[H])c([H])c2[H])nc2c1N(C([H])([H])[H])C(=O)[C@@]([H])(C([H])([H])C([H])([H])[H])N2C1([H])C([H])([H])C([H])([H])C([H])([H])C1([H])[H]


 34 38  0  0  0  0  0  0  0  0999 V2000
   55.6920   -4.1700  -12.4021 C   0  0  0  0  0  0  0  0  0  0  0  0
   56.3470   -4.1542  -11.1375 N   0  0  0  0  0  0  0  0  0  0  0  0
   57.7321   -4.5466  -11.1306 C   0  0  0  0  0  0  0  0  0  0  0  0
   58.2695   -5.1049  -10.0332 N   0  0  0  0  0  0  0  0  0  0  0  0
   59.5942   -5.4819  -10.0177 C   0  0  0  0  0  0  0  0  0  0  0  0
   60.3175   -5.2744  -11.1220 N   0  0  0  0  0  0  0  0  0  0  0  0
   59.8621   -4.7264  -12.2542 C   0  0  0  0  0  0  0  0  0  0  0  0
   58.5249   -4.3515  -12.2544 C   0  0  0  0  0  0  0  0  0  0  0  0
   57.9226   -3.7583  -13.3939 N   0  0  0  0  0  0  0  0  0  0  0  0
   58.7165   -3.5270  -14.6113 C   0  0  0  0  0  0  0  0  0  0  0  0
   56.5493   -3.3887  -13.3501 C   0  0  0  0  0  0  0  0  0  0  0  0
   56.1219   -2.4667  -14.0709 O   0  0  0  0  0  0  0  0  0  0  0  0
   55.7615   -3.7804   -9.8750 C   0  0  0  0  0  0  0  0  0  0  0  0
   55.9515   -4.8072   -8.8016 C   0  0  0  0  0  0  0  0  0  0  0  0
   54.6020   -5.0104   -8.1467 C   0  0  0  0  0  0  0  0  0  0  0  0
   53.6291   -4.6614   -9.2814 C   0  0  0  0  0  0  0  0  0  0  0  0
   54.3101   -3.5068   -9.9251 C   0  0  0  0  0  0  0  0  0  0  0  0
   54.2023   -6.0493  -13.1158 C   0  0  0  0  0  0  0  0  0  0  0  0
   55.6375   -5.6001  -12.9305 C   0  0  0  0  0  0  0  0  0  0  0  0
   60.0646   -6.0411   -8.8086 N   0  0  0  0  0  0  0  0  0  0  0  0
   59.7754   -5.5792   -7.8861 H   0  0  0  0  0  0  0  0  0  0  0  0
   60.8806   -7.1593   -8.6795 C   0  0  0  0  0  0  0  0  0  0  0  0
   61.7193   -7.3793   -7.6345 C   0  0  0  0  0  0  0  0  0  0  0  0
   62.5044   -8.5386   -7.5393 C   0  0  0  0  0  0  0  0  0  0  0  0
   62.4549   -9.5065   -8.5110 C   0  0  0  0  0  0  0  0  0  0  0  0
   61.6029   -9.2725   -9.5644 C   0  0  0  0  0  0  0  0  0  0  0  0
   60.8270   -8.1432   -9.6728 C   0  0  0  0  0  0  0  0  0  0  0  0
   63.2423  -10.6789   -8.4349 N   0  0  0  0  0  0  0  0  0  0  0  0
   63.7406  -11.1226   -7.1362 C   0  0  0  0  0  0  0  0  0  0  0  0
   64.9967  -11.9390   -7.4269 C   0  0  0  0  0  0  0  0  0  0  0  0
   64.6252  -13.1572   -8.1023 N   0  0  0  0  0  0  0  0  0  0  0  0
   65.7397  -14.0229   -8.3284 C   0  0  0  0  0  0  0  0  0  0  0  0
   63.8543  -12.9180   -9.2873 C   0  0  0  0  0  0  0  0  0  0  0  0
   63.5838  -11.4714   -9.5707 C   0  0  0  0  0  0  0  0  0  0  0  0
 18 19  1  0  0  0
 19  1  1  0  0  0
  1  2  1  0  0  0
  2 13  1  0  0  0
 13 14  1  0  0  0
 14 15  1  0  0  0
 15 16  1  0  0  0
 16 17  1  0  0  0
  2  3  1  0  0  0
  3  4  2  0  0  0
  4  5  1  0  0  0
  5 20  1  0  0  0
 20 22  1  0  0  0
 22 23  2  0  0  0
 23 24  1  0  0  0
 24 25  2  0  0  0
 25 26  1  0  0  0
 26 27  2  0  0  0
 25 28  1  0  0  0
 28 29  1  0  0  0
 29 30  1  0  0  0
 30 31  1  0  0  0
 31 32  1  0  0  0
 31 33  1  0  0  0
 33 34  1  0  0  0
  5  6  2  0  0  0
  6  7  1  0  0  0
  7  8  2  0  0  0
  8  9  1  0  0  0
  9 10  1  0  0  0
  9 11  1  0  0  0
 11 12  2  0  0  0
 11  1  1  0  0  0
 17 13  1  0  0  0
  8  3  1  0  0  0
 27 22  1  0  0  0
 34 28  1  0  0  0
 20 21  1  0  0  0
M  END
> <minimizedAffinity>
1.01080

> <CNNscore>
0.3971336484

> <CNNaffinity>
5.7337203026

> <CNN_VS>
2.2770533562

> <CNNaffinity_variance>
0.3423542976

$$$$
[H]c1nn([H])c([H])c1-c1c([H])c([H])c2c(nc([H])n2-c2sc(C(=O)N([H])[H])c(O[C@@]([H])(c3c([H])c([H])c([H])c([H])c3Cl)C([H])([H])[H])c2[H])c1[H]


 35 39  0  0  0  0  0  0  0  0999 V2000
   51.0011   -4.8836   -5.0212 C   0  0  0  0  0  0  0  0  0  0  0  0
   51.9197   -4.8435   -6.0109 C   0  0  0  0  0  0  0  0  0  0  0  0
   51.7837   -3.9522   -7.0222 C   0  0  0  0  0  0  0  0  0  0  0  0
   50.3700   -3.1413   -6.6297 S   0  0  0  0  0  0  0  0  0  0  0  0
   49.9566   -3.9409   -5.1770 C   0  0  0  0  0  0  0  0  0  0  0  0
   52.6614   -3.7215   -8.1451 N   0  0  0  0  0  0  0  0  0  0  0  0
   52.3295   -2.9589   -9.2285 C   0  0  0  0  0  0  0  0  0  0  0  0
   53.3339   -2.9217  -10.0832 N   0  0  0  0  0  0  0  0  0  0  0  0
   54.3252   -3.6765   -9.5335 C   0  0  0  0  0  0  0  0  0  0  0  0
   55.5956   -4.0016   -9.9607 C   0  0  0  0  0  0  0  0  0  0  0  0
   56.4781   -4.8043   -9.2413 C   0  0  0  0  0  0  0  0  0  0  0  0
   56.0080   -5.2799   -8.0357 C   0  0  0  0  0  0  0  0  0  0  0  0
   54.7302   -4.9721   -7.5716 C   0  0  0  0  0  0  0  0  0  0  0  0
   53.9024   -4.1718   -8.3279 C   0  0  0  0  0  0  0  0  0  0  0  0
   57.8034   -5.0972   -9.7640 C   0  0  0  0  0  0  0  0  0  0  0  0
   58.2101   -4.8114  -11.0646 C   0  0  0  0  0  0  0  0  0  0  0  0
   59.4982   -5.2085  -11.2087 N   0  0  0  0  0  0  0  0  0  0  0  0
   59.9197   -5.7330  -10.0456 N   0  0  0  0  0  0  0  0  0  0  0  0
   58.8917   -5.6669   -9.1667 C   0  0  0  0  0  0  0  0  0  0  0  0
   60.8891   -6.1052   -9.9302 H   0  0  0  0  0  0  0  0  0  0  0  0
   48.7905   -3.7172   -4.3192 C   0  0  0  0  0  0  0  0  0  0  0  0
   48.4392   -4.6909   -3.3642 N   0  0  0  0  0  0  0  0  0  0  0  0
   48.1200   -2.6875   -4.4255 O   0  0  0  0  0  0  0  0  0  0  0  0
   47.8279   -4.4749   -2.5523 H   0  0  0  0  0  0  0  0  0  0  0  0
   48.7933   -5.6621   -3.4637 H   0  0  0  0  0  0  0  0  0  0  0  0
   51.0162   -5.7172   -3.9587 O   0  0  0  0  0  0  0  0  0  0  0  0
   50.7039   -6.8073   -1.8857 C   0  0  0  0  0  0  0  0  0  0  0  0
   51.5749   -6.6072   -3.1526 C   0  0  0  0  0  0  0  0  0  0  0  0
   52.8993   -6.1598   -2.5620 C   0  0  0  0  0  0  0  0  0  0  0  0
   52.9626   -5.5225   -1.3460 C   0  0  0  0  0  0  0  0  0  0  0  0
   54.1522   -4.9870   -0.8389 C   0  0  0  0  0  0  0  0  0  0  0  0
   55.2852   -5.1157   -1.6063 C   0  0  0  0  0  0  0  0  0  0  0  0
   55.2419   -5.7445   -2.8123 C   0  0  0  0  0  0  0  0  0  0  0  0
   54.0442   -6.2736   -3.2949 C   0  0  0  0  0  0  0  0  0  0  0  0
   54.0898   -7.1967   -4.7959 Cl  0  0  0  0  0  0  0  0  0  0  0  0
 27 28  1  0  0  0
 28 26  1  0  0  0
 26  1  1  0  0  0
  1  2  1  0  0  0
  2  3  2  0  0  0
  3  4  1  0  0  0
  4  5  1  0  0  0
  5 21  1  0  0  0
 21 22  1  0  0  0
 21 23  2  0  0  0
  3  6  1  0  0  0
  6  7  1  0  0  0
  7  8  2  0  0  0
  8  9  1  0  0  0
  9 10  2  0  0  0
 10 11  1  0  0  0
 11 12  2  0  0  0
 12 13  1  0  0  0
 13 14  2  0  0  0
 11 15  1  0  0  0
 15 16  1  0  0  0
 16 17  2  0  0  0
 17 18  1  0  0  0
 18 19  1  0  0  0
 28 29  1  0  0  0
 29 30  2  0  0  0
 30 31  1  0  0  0
 31 32  2  0  0  0
 32 33  1  0  0  0
 33 34  2  0  0  0
 34 35  1  0  0  0
  5  1  2  0  0  0
 14  6  1  0  0  0
 19 15  2  0  0  0
 34 29  1  0  0  0
 14  9  1  0  0  0
 22 24  1  0  0  0
 22 25  1  0  0  0
 18 20  1  0  0  0
M  END
> <minimizedAffinity>
-9.73590

> <CNNscore>
0.7459393740

> <CNNaffinity>
7.8884162903

> <CNN_VS>
5.8842802048

> <CNNaffinity_variance>
0.1428373307

$$$$
[H]c1nn([H])c([H])c1-c1c([H])c([H])c2c(nc([H])n2-c2sc(C(=O)N([H])[H])c(O[C@@]([H])(c3c([H])c([H])c([H])c([H])c3Cl)C([H])([H])[H])c2[H])c1[H]


 35 39  0  0  0  0  0  0  0  0999 V2000
   57.2833   -4.6781  -10.9311 C   0  0  0  0  0  0  0  0  0  0  0  0
   56.0211   -4.2418  -10.7278 C   0  0  0  0  0  0  0  0  0  0  0  0
   55.4776   -4.3022   -9.4882 C   0  0  0  0  0  0  0  0  0  0  0  0
   56.7059   -4.9712   -8.5642 S   0  0  0  0  0  0  0  0  0  0  0  0
   57.9092   -5.1715   -9.7611 C   0  0  0  0  0  0  0  0  0  0  0  0
   54.1740   -3.8601   -9.0525 N   0  0  0  0  0  0  0  0  0  0  0  0
   53.3998   -2.9717   -9.7430 C   0  0  0  0  0  0  0  0  0  0  0  0
   52.2613   -2.7707   -9.1074 N   0  0  0  0  0  0  0  0  0  0  0  0
   52.3116   -3.5462   -7.9891 C   0  0  0  0  0  0  0  0  0  0  0  0
   51.4229   -3.7489   -6.9540 C   0  0  0  0  0  0  0  0  0  0  0  0
   51.6616   -4.6002   -5.8774 C   0  0  0  0  0  0  0  0  0  0  0  0
   52.8735   -5.2572   -5.8906 C   0  0  0  0  0  0  0  0  0  0  0  0
   53.7963   -5.0773   -6.9199 C   0  0  0  0  0  0  0  0  0  0  0  0
   53.5032   -4.2222   -7.9593 C   0  0  0  0  0  0  0  0  0  0  0  0
   50.6682   -4.7584   -4.8269 C   0  0  0  0  0  0  0  0  0  0  0  0
   50.8204   -5.6017   -3.7295 C   0  0  0  0  0  0  0  0  0  0  0  0
   49.7146   -5.4985   -2.9521 N   0  0  0  0  0  0  0  0  0  0  0  0
   48.8709   -4.6193   -3.5183 N   0  0  0  0  0  0  0  0  0  0  0  0
   49.4478   -4.1688   -4.6575 C   0  0  0  0  0  0  0  0  0  0  0  0
   47.9492   -4.3854   -3.0853 H   0  0  0  0  0  0  0  0  0  0  0  0
   59.2512   -5.7393   -9.6114 C   0  0  0  0  0  0  0  0  0  0  0  0
   59.6659   -6.2071   -8.3493 N   0  0  0  0  0  0  0  0  0  0  0  0
   60.0145   -5.8121  -10.5774 O   0  0  0  0  0  0  0  0  0  0  0  0
   60.4601   -6.8675   -8.2372 H   0  0  0  0  0  0  0  0  0  0  0  0
   59.1724   -5.8874   -7.4932 H   0  0  0  0  0  0  0  0  0  0  0  0
   57.9436   -4.6740  -12.1092 O   0  0  0  0  0  0  0  0  0  0  0  0
   59.2470   -2.7601  -12.5793 C   0  0  0  0  0  0  0  0  0  0  0  0
   58.6632   -4.1107  -13.0679 C   0  0  0  0  0  0  0  0  0  0  0  0
   57.8540   -3.6887  -14.2804 C   0  0  0  0  0  0  0  0  0  0  0  0
   56.4845   -3.8011  -14.3023 C   0  0  0  0  0  0  0  0  0  0  0  0
   55.7270   -3.5405  -15.4500 C   0  0  0  0  0  0  0  0  0  0  0  0
   56.4028   -3.1608  -16.5850 C   0  0  0  0  0  0  0  0  0  0  0  0
   57.7585   -3.0431  -16.5819 C   0  0  0  0  0  0  0  0  0  0  0  0
   58.4916   -3.3049  -15.4237 C   0  0  0  0  0  0  0  0  0  0  0  0
   60.2268   -2.9963  -15.4523 Cl  0  0  0  0  0  0  0  0  0  0  0  0
 27 28  1  0  0  0
 28 26  1  0  0  0
 26  1  1  0  0  0
  1  2  1  0  0  0
  2  3  2  0  0  0
  3  4  1  0  0  0
  4  5  1  0  0  0
  5 21  1  0  0  0
 21 22  1  0  0  0
 21 23  2  0  0  0
  3  6  1  0  0  0
  6  7  1  0  0  0
  7  8  2  0  0  0
  8  9  1  0  0  0
  9 10  2  0  0  0
 10 11  1  0  0  0
 11 12  2  0  0  0
 12 13  1  0  0  0
 13 14  2  0  0  0
 11 15  1  0  0  0
 15 16  1  0  0  0
 16 17  2  0  0  0
 17 18  1  0  0  0
 18 19  1  0  0  0
 28 29  1  0  0  0
 29 30  2  0  0  0
 30 31  1  0  0  0
 31 32  2  0  0  0
 32 33  1  0  0  0
 33 34  2  0  0  0
 34 35  1  0  0  0
  5  1  2  0  0  0
 14  6  1  0  0  0
 19 15  2  0  0  0
 34 29  1  0  0  0
 14  9  1  0  0  0
 22 24  1  0  0  0
 22 25  1  0  0  0
 18 20  1  0  0  0
M  END
> <minimizedAffinity>
-8.97542

> <CNNscore>
0.6748595238

> <CNNaffinity>
7.2446379662

> <CNN_VS>
4.8891129494

> <CNNaffinity_variance>
0.1168190464

$$$$
[H]c1nn([H])c([H])c1-c1c([H])c([H])c2c(nc([H])n2-c2sc(C(=O)N([H])[H])c(O[C@@]([H])(c3c([H])c([H])c([H])c([H])c3Cl)C([H])([H])[H])c2[H])c1[H]


 35 39  0  0  0  0  0  0  0  0999 V2000
   54.6733   -4.1718   -7.9262 C   0  0  0  0  0  0  0  0  0  0  0  0
   53.5110   -3.4840   -7.9573 C   0  0  0  0  0  0  0  0  0  0  0  0
   52.4802   -3.8646   -7.1647 C   0  0  0  0  0  0  0  0  0  0  0  0
   53.0945   -5.1952   -6.3510 S   0  0  0  0  0  0  0  0  0  0  0  0
   54.6642   -5.2622   -7.0234 C   0  0  0  0  0  0  0  0  0  0  0  0
   51.1808   -3.2522   -7.0190 N   0  0  0  0  0  0  0  0  0  0  0  0
   50.6919   -2.2918   -7.8581 C   0  0  0  0  0  0  0  0  0  0  0  0
   49.4789   -1.9341   -7.4822 N   0  0  0  0  0  0  0  0  0  0  0  0
   49.1897   -2.6812   -6.3809 C   0  0  0  0  0  0  0  0  0  0  0  0
   48.0818   -2.7449   -5.5619 C   0  0  0  0  0  0  0  0  0  0  0  0
   47.9743   -3.5917   -4.4610 C   0  0  0  0  0  0  0  0  0  0  0  0
   49.0672   -4.3951   -4.2143 C   0  0  0  0  0  0  0  0  0  0  0  0
   50.2038   -4.3581   -5.0203 C   0  0  0  0  0  0  0  0  0  0  0  0
   50.2513   -3.4998   -6.0967 C   0  0  0  0  0  0  0  0  0  0  0  0
   46.7674   -3.5978   -3.6493 C   0  0  0  0  0  0  0  0  0  0  0  0
   46.1710   -2.4523   -3.1290 C   0  0  0  0  0  0  0  0  0  0  0  0
   45.0677   -2.8211   -2.4329 N   0  0  0  0  0  0  0  0  0  0  0  0
   44.9453   -4.1577   -2.4966 N   0  0  0  0  0  0  0  0  0  0  0  0
   45.9769   -4.6317   -3.2346 C   0  0  0  0  0  0  0  0  0  0  0  0
   44.1592   -4.6603   -2.0263 H   0  0  0  0  0  0  0  0  0  0  0  0
   55.7284   -6.2300   -6.7468 C   0  0  0  0  0  0  0  0  0  0  0  0
   56.5324   -6.0636   -5.6025 N   0  0  0  0  0  0  0  0  0  0  0  0
   55.9221   -7.1848   -7.5031 O   0  0  0  0  0  0  0  0  0  0  0  0
   57.0885   -6.8427   -5.1984 H   0  0  0  0  0  0  0  0  0  0  0  0
   56.5831   -5.1359   -5.1384 H   0  0  0  0  0  0  0  0  0  0  0  0
   55.7748   -3.9009   -8.6591 O   0  0  0  0  0  0  0  0  0  0  0  0
   55.7155   -4.5909  -10.9182 C   0  0  0  0  0  0  0  0  0  0  0  0
   56.4780   -3.8638   -9.7809 C   0  0  0  0  0  0  0  0  0  0  0  0
   57.7791   -4.6424   -9.7203 C   0  0  0  0  0  0  0  0  0  0  0  0
   58.3094   -5.2396  -10.8387 C   0  0  0  0  0  0  0  0  0  0  0  0
   59.4363   -6.0681  -10.7859 C   0  0  0  0  0  0  0  0  0  0  0  0
   60.0146   -6.2769   -9.5567 C   0  0  0  0  0  0  0  0  0  0  0  0
   59.5041   -5.6932   -8.4385 C   0  0  0  0  0  0  0  0  0  0  0  0
   58.3816   -4.8680   -8.5173 C   0  0  0  0  0  0  0  0  0  0  0  0
   57.8603   -4.0339   -7.0546 Cl  0  0  0  0  0  0  0  0  0  0  0  0
 27 28  1  0  0  0
 28 26  1  0  0  0
 26  1  1  0  0  0
  1  2  1  0  0  0
  2  3  2  0  0  0
  3  4  1  0  0  0
  4  5  1  0  0  0
  5 21  1  0  0  0
 21 22  1  0  0  0
 21 23  2  0  0  0
  3  6  1  0  0  0
  6  7  1  0  0  0
  7  8  2  0  0  0
  8  9  1  0  0  0
  9 10  2  0  0  0
 10 11  1  0  0  0
 11 12  2  0  0  0
 12 13  1  0  0  0
 13 14  2  0  0  0
 11 15  1  0  0  0
 15 16  1  0  0  0
 16 17  2  0  0  0
 17 18  1  0  0  0
 18 19  1  0  0  0
 28 29  1  0  0  0
 29 30  2  0  0  0
 30 31  1  0  0  0
 31 32  2  0  0  0
 32 33  1  0  0  0
 33 34  2  0  0  0
 34 35  1  0  0  0
  5  1  2  0  0  0
 14  6  1  0  0  0
 19 15  2  0  0  0
 34 29  1  0  0  0
 14  9  1  0  0  0
 22 24  1  0  0  0
 22 25  1  0  0  0
 18 20  1  0  0  0
M  END
> <minimizedAffinity>
0.87156

> <CNNscore>
0.4913717806

> <CNNaffinity>
6.9995546341

> <CNN_VS>
3.4393835068

> <CNNaffinity_variance>
0.3430546522

$$$$
[H]c1nn([H])c([H])c1-c1c([H])c([H])c2c(nc([H])n2-c2sc(C(=O)N([H])[H])c(O[C@@]([H])(c3c([H])c([H])c([H])c([H])c3Cl)C([H])([H])[H])c2[H])c1[H]


 35 39  0  0  0  0  0  0  0  0999 V2000
   52.8318   -4.4271   -7.2458 C   0  0  0  0  0  0  0  0  0  0  0  0
   53.9772   -4.7545   -7.8827 C   0  0  0  0  0  0  0  0  0  0  0  0
   54.3090   -4.1298   -9.0383 C   0  0  0  0  0  0  0  0  0  0  0  0
   53.0351   -3.0669   -9.2779 S   0  0  0  0  0  0  0  0  0  0  0  0
   52.0832   -3.4217   -7.9036 C   0  0  0  0  0  0  0  0  0  0  0  0
   55.4913   -4.3016   -9.8490 N   0  0  0  0  0  0  0  0  0  0  0  0
   55.5742   -3.9390  -11.1632 C   0  0  0  0  0  0  0  0  0  0  0  0
   56.7778   -4.2056  -11.6334 N   0  0  0  0  0  0  0  0  0  0  0  0
   57.4752   -4.7497  -10.5980 C   0  0  0  0  0  0  0  0  0  0  0  0
   58.7673   -5.2195  -10.4888 C   0  0  0  0  0  0  0  0  0  0  0  0
   59.3073   -5.7503   -9.3194 C   0  0  0  0  0  0  0  0  0  0  0  0
   58.4604   -5.7885   -8.2322 C   0  0  0  0  0  0  0  0  0  0  0  0
   57.1487   -5.3226   -8.3052 C   0  0  0  0  0  0  0  0  0  0  0  0
   56.6709   -4.8072   -9.4901 C   0  0  0  0  0  0  0  0  0  0  0  0
   60.6826   -6.2225   -9.2891 C   0  0  0  0  0  0  0  0  0  0  0  0
   61.3315   -6.6628   -8.1386 C   0  0  0  0  0  0  0  0  0  0  0  0
   62.5921   -7.0336   -8.4719 N   0  0  0  0  0  0  0  0  0  0  0  0
   62.7617   -6.8449   -9.7914 N   0  0  0  0  0  0  0  0  0  0  0  0
   61.6033   -6.3517  -10.2899 C   0  0  0  0  0  0  0  0  0  0  0  0
   63.6657   -7.0663  -10.2662 H   0  0  0  0  0  0  0  0  0  0  0  0
   50.7948   -2.8408   -7.5187 C   0  0  0  0  0  0  0  0  0  0  0  0
   49.7529   -3.6899   -7.0980 N   0  0  0  0  0  0  0  0  0  0  0  0
   50.6183   -1.6208   -7.5580 O   0  0  0  0  0  0  0  0  0  0  0  0
   48.9426   -3.3420   -6.5485 H   0  0  0  0  0  0  0  0  0  0  0  0
   49.7806   -4.6994   -7.3405 H   0  0  0  0  0  0  0  0  0  0  0  0
   52.3838   -4.9676   -6.0920 O   0  0  0  0  0  0  0  0  0  0  0  0
   50.8586   -5.7853   -4.4832 C   0  0  0  0  0  0  0  0  0  0  0  0
   52.2031   -5.9611   -5.2349 C   0  0  0  0  0  0  0  0  0  0  0  0
   53.2052   -5.9836   -4.0955 C   0  0  0  0  0  0  0  0  0  0  0  0
   52.9143   -5.4239   -2.8745 C   0  0  0  0  0  0  0  0  0  0  0  0
   53.8631   -5.3175   -1.8510 C   0  0  0  0  0  0  0  0  0  0  0  0
   55.1263   -5.7974   -2.1028 C   0  0  0  0  0  0  0  0  0  0  0  0
   55.4323   -6.3557   -3.3054 C   0  0  0  0  0  0  0  0  0  0  0  0
   54.4678   -6.4538   -4.3091 C   0  0  0  0  0  0  0  0  0  0  0  0
   54.8931   -7.3142   -5.7876 Cl  0  0  0  0  0  0  0  0  0  0  0  0
 27 28  1  0  0  0
 28 26  1  0  0  0
 26  1  1  0  0  0
  1  2  1  0  0  0
  2  3  2  0  0  0
  3  4  1  0  0  0
  4  5  1  0  0  0
  5 21  1  0  0  0
 21 22  1  0  0  0
 21 23  2  0  0  0
  3  6  1  0  0  0
  6  7  1  0  0  0
  7  8  2  0  0  0
  8  9  1  0  0  0
  9 10  2  0  0  0
 10 11  1  0  0  0
 11 12  2  0  0  0
 12 13  1  0  0  0
 13 14  2  0  0  0
 11 15  1  0  0  0
 15 16  1  0  0  0
 16 17  2  0  0  0
 17 18  1  0  0  0
 18 19  1  0  0  0
 28 29  1  0  0  0
 29 30  2  0  0  0
 30 31  1  0  0  0
 31 32  2  0  0  0
 32 33  1  0  0  0
 33 34  2  0  0  0
 34 35  1  0  0  0
  5  1  2  0  0  0
 14  6  1  0  0  0
 19 15  2  0  0  0
 34 29  1  0  0  0
 14  9  1  0  0  0
 22 24  1  0  0  0
 22 25  1  0  0  0
 18 20  1  0  0  0
M  END
> <minimizedAffinity>
-9.05372

> <CNNscore>
0.4786923230

> <CNNaffinity>
7.3716530800

> <CNN_VS>
3.5287537575

> <CNNaffinity_variance>
0.2889664769

$$$$
[H]c1nn([H])c([H])c1-c1c([H])c([H])c2c(nc([H])n2-c2sc(C(=O)N([H])[H])c(O[C@@]([H])(c3c([H])c([H])c([H])c([H])c3Cl)C([H])([H])[H])c2[H])c1[H]


 35 39  0  0  0  0  0  0  0  0999 V2000
   56.2181   -4.0950  -11.4054 C   0  0  0  0  0  0  0  0  0  0  0  0
   55.0122   -3.8439  -10.8508 C   0  0  0  0  0  0  0  0  0  0  0  0
   54.8122   -4.0852   -9.5327 C   0  0  0  0  0  0  0  0  0  0  0  0
   56.2968   -4.6725   -9.0219 S   0  0  0  0  0  0  0  0  0  0  0  0
   57.1686   -4.6082  -10.4904 C   0  0  0  0  0  0  0  0  0  0  0  0
   53.6253   -3.8546   -8.7436 N   0  0  0  0  0  0  0  0  0  0  0  0
   52.6378   -2.9770   -9.0900 C   0  0  0  0  0  0  0  0  0  0  0  0
   51.6784   -2.9913   -8.1844 N   0  0  0  0  0  0  0  0  0  0  0  0
   52.0631   -3.8958   -7.2417 C   0  0  0  0  0  0  0  0  0  0  0  0
   51.4751   -4.3316   -6.0728 C   0  0  0  0  0  0  0  0  0  0  0  0
   52.0374   -5.2838   -5.2256 C   0  0  0  0  0  0  0  0  0  0  0  0
   53.2565   -5.7918   -5.6208 C   0  0  0  0  0  0  0  0  0  0  0  0
   53.8806   -5.3753   -6.7956 C   0  0  0  0  0  0  0  0  0  0  0  0
   53.2746   -4.4303   -7.5940 C   0  0  0  0  0  0  0  0  0  0  0  0
   51.3485   -5.6898   -4.0106 C   0  0  0  0  0  0  0  0  0  0  0  0
   50.1688   -5.1101   -3.5515 C   0  0  0  0  0  0  0  0  0  0  0  0
   49.8035   -5.7315   -2.4034 N   0  0  0  0  0  0  0  0  0  0  0  0
   50.7091   -6.6835   -2.1222 N   0  0  0  0  0  0  0  0  0  0  0  0
   51.6488   -6.6597   -3.0969 C   0  0  0  0  0  0  0  0  0  0  0  0
   50.6240   -7.2896   -1.2754 H   0  0  0  0  0  0  0  0  0  0  0  0
   58.5545   -5.0110  -10.7404 C   0  0  0  0  0  0  0  0  0  0  0  0
   59.2407   -5.7637   -9.7676 N   0  0  0  0  0  0  0  0  0  0  0  0
   59.1201   -4.6995  -11.7912 O   0  0  0  0  0  0  0  0  0  0  0  0
   60.0910   -6.3164   -9.9934 H   0  0  0  0  0  0  0  0  0  0  0  0
   58.8984   -5.7734   -8.7871 H   0  0  0  0  0  0  0  0  0  0  0  0
   56.5518   -3.9000  -12.6995 O   0  0  0  0  0  0  0  0  0  0  0  0
   56.0593   -5.3768  -14.4770 C   0  0  0  0  0  0  0  0  0  0  0  0
   56.3229   -3.9242  -14.0038 C   0  0  0  0  0  0  0  0  0  0  0  0
   57.5193   -3.5256  -14.8482 C   0  0  0  0  0  0  0  0  0  0  0  0
   58.7956   -3.5511  -14.3394 C   0  0  0  0  0  0  0  0  0  0  0  0
   59.8991   -3.0685  -15.0525 C   0  0  0  0  0  0  0  0  0  0  0  0
   59.6700   -2.5537  -16.3062 C   0  0  0  0  0  0  0  0  0  0  0  0
   58.4132   -2.5212  -16.8268 C   0  0  0  0  0  0  0  0  0  0  0  0
   57.3293   -3.0119  -16.0976 C   0  0  0  0  0  0  0  0  0  0  0  0
   55.7546   -3.0680  -16.8877 Cl  0  0  0  0  0  0  0  0  0  0  0  0
 27 28  1  0  0  0
 28 26  1  0  0  0
 26  1  1  0  0  0
  1  2  1  0  0  0
  2  3  2  0  0  0
  3  4  1  0  0  0
  4  5  1  0  0  0
  5 21  1  0  0  0
 21 22  1  0  0  0
 21 23  2  0  0  0
  3  6  1  0  0  0
  6  7  1  0  0  0
  7  8  2  0  0  0
  8  9  1  0  0  0
  9 10  2  0  0  0
 10 11  1  0  0  0
 11 12  2  0  0  0
 12 13  1  0  0  0
 13 14  2  0  0  0
 11 15  1  0  0  0
 15 16  1  0  0  0
 16 17  2  0  0  0
 17 18  1  0  0  0
 18 19  1  0  0  0
 28 29  1  0  0  0
 29 30  2  0  0  0
 30 31  1  0  0  0
 31 32  2  0  0  0
 32 33  1  0  0  0
 33 34  2  0  0  0
 34 35  1  0  0  0
  5  1  2  0  0  0
 14  6  1  0  0  0
 19 15  2  0  0  0
 34 29  1  0  0  0
 14  9  1  0  0  0
 22 24  1  0  0  0
 22 25  1  0  0  0
 18 20  1  0  0  0
M  END
> <minimizedAffinity>
-8.91982

> <CNNscore>
0.4561069310

> <CNNaffinity>
7.0045309067

> <CNN_VS>
3.1948151588

> <CNNaffinity_variance>
0.0604169294

$$$$
[H]c1nn([H])c([H])c1-c1c([H])c([H])c2c(nc([H])n2-c2sc(C(=O)N([H])[H])c(O[C@@]([H])(c3c([H])c([H])c([H])c([H])c3Cl)C([H])([H])[H])c2[H])c1[H]


 35 39  0  0  0  0  0  0  0  0999 V2000
   58.5446   -5.3710  -11.6832 C   0  0  0  0  0  0  0  0  0  0  0  0
   58.8302   -6.4677  -10.9479 C   0  0  0  0  0  0  0  0  0  0  0  0
   60.1206   -6.7898  -10.6898 C   0  0  0  0  0  0  0  0  0  0  0  0
   60.9800   -5.5770  -11.4647 S   0  0  0  0  0  0  0  0  0  0  0  0
   59.6914   -4.6623  -12.1154 C   0  0  0  0  0  0  0  0  0  0  0  0
   60.6366   -7.8851   -9.9032 N   0  0  0  0  0  0  0  0  0  0  0  0
   60.2553   -9.1865  -10.0653 C   0  0  0  0  0  0  0  0  0  0  0  0
   60.9040   -9.9597   -9.2155 N   0  0  0  0  0  0  0  0  0  0  0  0
   61.7143   -9.1339   -8.4971 C   0  0  0  0  0  0  0  0  0  0  0  0
   62.6144   -9.3657   -7.4782 C   0  0  0  0  0  0  0  0  0  0  0  0
   63.3639   -8.3681   -6.8586 C   0  0  0  0  0  0  0  0  0  0  0  0
   63.1585   -7.0874   -7.3255 C   0  0  0  0  0  0  0  0  0  0  0  0
   62.2573   -6.8152   -8.3536 C   0  0  0  0  0  0  0  0  0  0  0  0
   61.5447   -7.8444   -8.9286 C   0  0  0  0  0  0  0  0  0  0  0  0
   64.2944   -8.6993   -5.7909 C   0  0  0  0  0  0  0  0  0  0  0  0
   64.8363   -7.7665   -4.9107 C   0  0  0  0  0  0  0  0  0  0  0  0
   65.6529   -8.4164   -4.0454 N   0  0  0  0  0  0  0  0  0  0  0  0
   65.6444   -9.7259   -4.3466 N   0  0  0  0  0  0  0  0  0  0  0  0
   64.8202   -9.9000   -5.4068 C   0  0  0  0  0  0  0  0  0  0  0  0
   66.2082  -10.4180   -3.8037 H   0  0  0  0  0  0  0  0  0  0  0  0
   59.7633   -3.4537  -12.9398 C   0  0  0  0  0  0  0  0  0  0  0  0
   60.2428   -3.5468  -14.2608 N   0  0  0  0  0  0  0  0  0  0  0  0
   59.4068   -2.3626  -12.4886 O   0  0  0  0  0  0  0  0  0  0  0  0
   60.0501   -2.8149  -14.9727 H   0  0  0  0  0  0  0  0  0  0  0  0
   60.8119   -4.3673  -14.5462 H   0  0  0  0  0  0  0  0  0  0  0  0
   57.3089   -4.9366  -12.0122 O   0  0  0  0  0  0  0  0  0  0  0  0
   54.9961   -4.5224  -12.2618 C   0  0  0  0  0  0  0  0  0  0  0  0
   56.4536   -4.0924  -12.5690 C   0  0  0  0  0  0  0  0  0  0  0  0
   56.4759   -4.1017  -14.0864 C   0  0  0  0  0  0  0  0  0  0  0  0
   56.8293   -2.9845  -14.8045 C   0  0  0  0  0  0  0  0  0  0  0  0
   56.7354   -2.9267  -16.1998 C   0  0  0  0  0  0  0  0  0  0  0  0
   56.2679   -4.0425  -16.8521 C   0  0  0  0  0  0  0  0  0  0  0  0
   55.9142   -5.1582  -16.1579 C   0  0  0  0  0  0  0  0  0  0  0  0
   56.0203   -5.1927  -14.7669 C   0  0  0  0  0  0  0  0  0  0  0  0
   55.6797   -6.7150  -13.9461 Cl  0  0  0  0  0  0  0  0  0  0  0  0
 27 28  1  0  0  0
 28 26  1  0  0  0
 26  1  1  0  0  0
  1  2  1  0  0  0
  2  3  2  0  0  0
  3  4  1  0  0  0
  4  5  1  0  0  0
  5 21  1  0  0  0
 21 22  1  0  0  0
 21 23  2  0  0  0
  3  6  1  0  0  0
  6  7  1  0  0  0
  7  8  2  0  0  0
  8  9  1  0  0  0
  9 10  2  0  0  0
 10 11  1  0  0  0
 11 12  2  0  0  0
 12 13  1  0  0  0
 13 14  2  0  0  0
 11 15  1  0  0  0
 15 16  1  0  0  0
 16 17  2  0  0  0
 17 18  1  0  0  0
 18 19  1  0  0  0
 28 29  1  0  0  0
 29 30  2  0  0  0
 30 31  1  0  0  0
 31 32  2  0  0  0
 32 33  1  0  0  0
 33 34  2  0  0  0
 34 35  1  0  0  0
  5  1  2  0  0  0
 14  6  1  0  0  0
 19 15  2  0  0  0
 34 29  1  0  0  0
 14  9  1  0  0  0
 22 24  1  0  0  0
 22 25  1  0  0  0
 18 20  1  0  0  0
M  END
> <minimizedAffinity>
7.19505

> <CNNscore>
0.4177888632

> <CNNaffinity>
5.2056550980

> <CNN_VS>
2.1748647690

> <CNNaffinity_variance>
0.5062631369

$$$$
[H]c1nn([H])c([H])c1-c1c([H])c([H])c2c(nc([H])n2-c2sc(C(=O)N([H])[H])c(O[C@@]([H])(c3c([H])c([H])c([H])c([H])c3Cl)C([H])([H])[H])c2[H])c1[H]


 35 39  0  0  0  0  0  0  0  0999 V2000
   54.3413   -5.2925   -6.3626 C   0  0  0  0  0  0  0  0  0  0  0  0
   55.0078   -5.1525   -7.5292 C   0  0  0  0  0  0  0  0  0  0  0  0
   56.3531   -5.3098   -7.5608 C   0  0  0  0  0  0  0  0  0  0  0  0
   56.7354   -5.6557   -5.9658 S   0  0  0  0  0  0  0  0  0  0  0  0
   55.1786   -5.5992   -5.2631 C   0  0  0  0  0  0  0  0  0  0  0  0
   57.2427   -5.2406   -8.6960 N   0  0  0  0  0  0  0  0  0  0  0  0
   58.5511   -5.6312   -8.6645 C   0  0  0  0  0  0  0  0  0  0  0  0
   59.1044   -5.4631   -9.8504 N   0  0  0  0  0  0  0  0  0  0  0  0
   58.1290   -4.9544  -10.6531 C   0  0  0  0  0  0  0  0  0  0  0  0
   58.1146   -4.5802  -11.9805 C   0  0  0  0  0  0  0  0  0  0  0  0
   56.9949   -4.0707  -12.6344 C   0  0  0  0  0  0  0  0  0  0  0  0
   55.8561   -3.9508  -11.8668 C   0  0  0  0  0  0  0  0  0  0  0  0
   55.8332   -4.3190  -10.5226 C   0  0  0  0  0  0  0  0  0  0  0  0
   56.9726   -4.8179   -9.9307 C   0  0  0  0  0  0  0  0  0  0  0  0
   57.0648   -3.7018  -14.0395 C   0  0  0  0  0  0  0  0  0  0  0  0
   55.9681   -3.6836  -14.8971 C   0  0  0  0  0  0  0  0  0  0  0  0
   56.3889   -3.2891  -16.1239 N   0  0  0  0  0  0  0  0  0  0  0  0
   57.7110   -3.0559  -16.0711 N   0  0  0  0  0  0  0  0  0  0  0  0
   58.1239   -3.3064  -14.8060 C   0  0  0  0  0  0  0  0  0  0  0  0
   58.2470   -2.7400  -16.9105 H   0  0  0  0  0  0  0  0  0  0  0  0
   54.8099   -5.7966   -3.8593 C   0  0  0  0  0  0  0  0  0  0  0  0
   55.1373   -4.8056   -2.9136 N   0  0  0  0  0  0  0  0  0  0  0  0
   54.2163   -6.8173   -3.5026 O   0  0  0  0  0  0  0  0  0  0  0  0
   54.6640   -4.7428   -1.9908 H   0  0  0  0  0  0  0  0  0  0  0  0
   55.8766   -4.1094   -3.1313 H   0  0  0  0  0  0  0  0  0  0  0  0
   53.0078   -5.1643   -6.1909 O   0  0  0  0  0  0  0  0  0  0  0  0
   51.1649   -6.3473   -7.0782 C   0  0  0  0  0  0  0  0  0  0  0  0
   51.8011   -5.6081   -5.8730 C   0  0  0  0  0  0  0  0  0  0  0  0
   50.7901   -4.5090   -5.6029 C   0  0  0  0  0  0  0  0  0  0  0  0
   49.9520   -4.5581   -4.5149 C   0  0  0  0  0  0  0  0  0  0  0  0
   48.9271   -3.6265   -4.3127 C   0  0  0  0  0  0  0  0  0  0  0  0
   48.7737   -2.6362   -5.2533 C   0  0  0  0  0  0  0  0  0  0  0  0
   49.5948   -2.5710   -6.3365 C   0  0  0  0  0  0  0  0  0  0  0  0
   50.6121   -3.5095   -6.5141 C   0  0  0  0  0  0  0  0  0  0  0  0
   51.7248   -3.2822   -7.8622 Cl  0  0  0  0  0  0  0  0  0  0  0  0
 27 28  1  0  0  0
 28 26  1  0  0  0
 26  1  1  0  0  0
  1  2  1  0  0  0
  2  3  2  0  0  0
  3  4  1  0  0  0
  4  5  1  0  0  0
  5 21  1  0  0  0
 21 22  1  0  0  0
 21 23  2  0  0  0
  3  6  1  0  0  0
  6  7  1  0  0  0
  7  8  2  0  0  0
  8  9  1  0  0  0
  9 10  2  0  0  0
 10 11  1  0  0  0
 11 12  2  0  0  0
 12 13  1  0  0  0
 13 14  2  0  0  0
 11 15  1  0  0  0
 15 16  1  0  0  0
 16 17  2  0  0  0
 17 18  1  0  0  0
 18 19  1  0  0  0
 28 29  1  0  0  0
 29 30  2  0  0  0
 30 31  1  0  0  0
 31 32  2  0  0  0
 32 33  1  0  0  0
 33 34  2  0  0  0
 34 35  1  0  0  0
  5  1  2  0  0  0
 14  6  1  0  0  0
 19 15  2  0  0  0
 34 29  1  0  0  0
 14  9  1  0  0  0
 22 24  1  0  0  0
 22 25  1  0  0  0
 18 20  1  0  0  0
M  END
> <minimizedAffinity>
-10.71271

> <CNNscore>
0.3833600283

> <CNNaffinity>
7.1220903397

> <CNN_VS>
2.7303247452

> <CNNaffinity_variance>
0.3468423188

$$$$
[H]c1nn([H])c([H])c1-c1c([H])c([H])c2c(nc([H])n2-c2sc(C(=O)N([H])[H])c(O[C@@]([H])(c3c([H])c([H])c([H])c([H])c3Cl)C([H])([H])[H])c2[H])c1[H]


 35 39  0  0  0  0  0  0  0  0999 V2000
   54.3051   -5.5402   -5.6721 C   0  0  0  0  0  0  0  0  0  0  0  0
   54.9637   -5.4078   -6.8441 C   0  0  0  0  0  0  0  0  0  0  0  0
   56.3178   -5.4442   -6.8650 C   0  0  0  0  0  0  0  0  0  0  0  0
   56.7196   -5.6616   -5.2522 S   0  0  0  0  0  0  0  0  0  0  0  0
   55.1596   -5.7059   -4.5557 C   0  0  0  0  0  0  0  0  0  0  0  0
   57.2047   -5.3602   -8.0013 N   0  0  0  0  0  0  0  0  0  0  0  0
   58.5240   -5.7120   -7.9667 C   0  0  0  0  0  0  0  0  0  0  0  0
   59.0719   -5.5395   -9.1544 N   0  0  0  0  0  0  0  0  0  0  0  0
   58.0818   -5.0676   -9.9616 C   0  0  0  0  0  0  0  0  0  0  0  0
   58.0562   -4.7071  -11.2926 C   0  0  0  0  0  0  0  0  0  0  0  0
   56.9219   -4.2371  -11.9509 C   0  0  0  0  0  0  0  0  0  0  0  0
   55.7802   -4.1429  -11.1840 C   0  0  0  0  0  0  0  0  0  0  0  0
   55.7684   -4.4983   -9.8361 C   0  0  0  0  0  0  0  0  0  0  0  0
   56.9221   -4.9578   -9.2400 C   0  0  0  0  0  0  0  0  0  0  0  0
   56.9806   -3.8801  -13.3597 C   0  0  0  0  0  0  0  0  0  0  0  0
   58.1616   -3.6235  -14.0512 C   0  0  0  0  0  0  0  0  0  0  0  0
   57.8507   -3.3302  -15.3377 N   0  0  0  0  0  0  0  0  0  0  0  0
   56.5165   -3.3942  -15.4835 N   0  0  0  0  0  0  0  0  0  0  0  0
   55.9858   -3.7276  -14.2831 C   0  0  0  0  0  0  0  0  0  0  0  0
   56.0544   -3.2027  -16.4008 H   0  0  0  0  0  0  0  0  0  0  0  0
   54.8013   -5.8547   -3.1432 C   0  0  0  0  0  0  0  0  0  0  0  0
   54.8557   -4.7315   -2.2953 N   0  0  0  0  0  0  0  0  0  0  0  0
   54.4523   -6.9495   -2.6951 O   0  0  0  0  0  0  0  0  0  0  0  0
   54.3507   -4.6978   -1.3879 H   0  0  0  0  0  0  0  0  0  0  0  0
   55.4179   -3.9033   -2.5720 H   0  0  0  0  0  0  0  0  0  0  0  0
   52.9645   -5.5236   -5.5096 O   0  0  0  0  0  0  0  0  0  0  0  0
   51.6779   -6.5551   -7.2019 C   0  0  0  0  0  0  0  0  0  0  0  0
   51.7147   -5.6918   -5.9148 C   0  0  0  0  0  0  0  0  0  0  0  0
   51.0353   -4.4129   -6.3687 C   0  0  0  0  0  0  0  0  0  0  0  0
   51.5117   -3.6881   -7.4347 C   0  0  0  0  0  0  0  0  0  0  0  0
   50.9830   -2.4428   -7.7935 C   0  0  0  0  0  0  0  0  0  0  0  0
   49.9499   -1.9481   -7.0338 C   0  0  0  0  0  0  0  0  0  0  0  0
   49.4645   -2.6521   -5.9753 C   0  0  0  0  0  0  0  0  0  0  0  0
   50.0059   -3.8936   -5.6396 C   0  0  0  0  0  0  0  0  0  0  0  0
   49.2367   -4.8123   -4.3467 Cl  0  0  0  0  0  0  0  0  0  0  0  0
 27 28  1  0  0  0
 28 26  1  0  0  0
 26  1  1  0  0  0
  1  2  1  0  0  0
  2  3  2  0  0  0
  3  4  1  0  0  0
  4  5  1  0  0  0
  5 21  1  0  0  0
 21 22  1  0  0  0
 21 23  2  0  0  0
  3  6  1  0  0  0
  6  7  1  0  0  0
  7  8  2  0  0  0
  8  9  1  0  0  0
  9 10  2  0  0  0
 10 11  1  0  0  0
 11 12  2  0  0  0
 12 13  1  0  0  0
 13 14  2  0  0  0
 11 15  1  0  0  0
 15 16  1  0  0  0
 16 17  2  0  0  0
 17 18  1  0  0  0
 18 19  1  0  0  0
 28 29  1  0  0  0
 29 30  2  0  0  0
 30 31  1  0  0  0
 31 32  2  0  0  0
 32 33  1  0  0  0
 33 34  2  0  0  0
 34 35  1  0  0  0
  5  1  2  0  0  0
 14  6  1  0  0  0
 19 15  2  0  0  0
 34 29  1  0  0  0
 14  9  1  0  0  0
 22 24  1  0  0  0
 22 25  1  0  0  0
 18 20  1  0  0  0
M  END
> <minimizedAffinity>
-10.08948

> <CNNscore>
0.3487592041

> <CNNaffinity>
7.0455727577

> <CNN_VS>
2.4572083950

> <CNNaffinity_variance>
0.4709660411

$$$$
[H]c1nn([H])c([H])c1-c1c([H])c([H])c2c(nc([H])n2-c2sc(C(=O)N([H])[H])c(O[C@@]([H])(c3c([H])c([H])c([H])c([H])c3Cl)C([H])([H])[H])c2[H])c1[H]


 35 39  0  0  0  0  0  0  0  0999 V2000
   54.1080   -5.3495   -6.3412 C   0  0  0  0  0  0  0  0  0  0  0  0
   54.8171   -5.1960   -7.4807 C   0  0  0  0  0  0  0  0  0  0  0  0
   56.1669   -5.3103   -7.4561 C   0  0  0  0  0  0  0  0  0  0  0  0
   56.4941   -5.6332   -5.8441 S   0  0  0  0  0  0  0  0  0  0  0  0
   54.9088   -5.6220   -5.2060 C   0  0  0  0  0  0  0  0  0  0  0  0
   57.0998   -5.2202   -8.5545 N   0  0  0  0  0  0  0  0  0  0  0  0
   58.4184   -5.5646   -8.4654 C   0  0  0  0  0  0  0  0  0  0  0  0
   59.0142   -5.3878   -9.6292 N   0  0  0  0  0  0  0  0  0  0  0  0
   58.0558   -4.9206  -10.4764 C   0  0  0  0  0  0  0  0  0  0  0  0
   58.0834   -4.5588  -11.8070 C   0  0  0  0  0  0  0  0  0  0  0  0
   56.9748   -4.0946  -12.5115 C   0  0  0  0  0  0  0  0  0  0  0  0
   55.8017   -4.0076  -11.7926 C   0  0  0  0  0  0  0  0  0  0  0  0
   55.7360   -4.3645  -10.4467 C   0  0  0  0  0  0  0  0  0  0  0  0
   56.8665   -4.8181   -9.8035 C   0  0  0  0  0  0  0  0  0  0  0  0
   57.0899   -3.7358  -13.9163 C   0  0  0  0  0  0  0  0  0  0  0  0
   56.0243   -3.7389  -14.8124 C   0  0  0  0  0  0  0  0  0  0  0  0
   56.4834   -3.3485  -16.0268 N   0  0  0  0  0  0  0  0  0  0  0  0
   57.7997   -3.0976  -15.9290 N   0  0  0  0  0  0  0  0  0  0  0  0
   58.1705   -3.3327  -14.6481 C   0  0  0  0  0  0  0  0  0  0  0  0
   58.3612   -2.7813  -16.7515 H   0  0  0  0  0  0  0  0  0  0  0  0
   54.4891   -5.8219   -3.8169 C   0  0  0  0  0  0  0  0  0  0  0  0
   53.6887   -6.9339   -3.4908 N   0  0  0  0  0  0  0  0  0  0  0  0
   54.8319   -5.0293   -2.9363 O   0  0  0  0  0  0  0  0  0  0  0  0
   53.6043   -7.2892   -2.5182 H   0  0  0  0  0  0  0  0  0  0  0  0
   53.1570   -7.4230   -4.2369 H   0  0  0  0  0  0  0  0  0  0  0  0
   52.7653   -5.2630   -6.2251 O   0  0  0  0  0  0  0  0  0  0  0  0
   50.9875   -6.5132   -7.1524 C   0  0  0  0  0  0  0  0  0  0  0  0
   51.5627   -5.7386   -5.9388 C   0  0  0  0  0  0  0  0  0  0  0  0
   50.5115   -4.6667   -5.7169 C   0  0  0  0  0  0  0  0  0  0  0  0
   50.1768   -3.7755   -6.7081 C   0  0  0  0  0  0  0  0  0  0  0  0
   49.3070   -2.7008   -6.4904 C   0  0  0  0  0  0  0  0  0  0  0  0
   48.7826   -2.5530   -5.2286 C   0  0  0  0  0  0  0  0  0  0  0  0
   49.1017   -3.4262   -4.2349 C   0  0  0  0  0  0  0  0  0  0  0  0
   49.9687   -4.4924   -4.4776 C   0  0  0  0  0  0  0  0  0  0  0  0
   50.2262   -5.6634   -3.1855 Cl  0  0  0  0  0  0  0  0  0  0  0  0
 27 28  1  0  0  0
 28 26  1  0  0  0
 26  1  1  0  0  0
  1  2  1  0  0  0
  2  3  2  0  0  0
  3  4  1  0  0  0
  4  5  1  0  0  0
  5 21  1  0  0  0
 21 22  1  0  0  0
 21 23  2  0  0  0
  3  6  1  0  0  0
  6  7  1  0  0  0
  7  8  2  0  0  0
  8  9  1  0  0  0
  9 10  2  0  0  0
 10 11  1  0  0  0
 11 12  2  0  0  0
 12 13  1  0  0  0
 13 14  2  0  0  0
 11 15  1  0  0  0
 15 16  1  0  0  0
 16 17  2  0  0  0
 17 18  1  0  0  0
 18 19  1  0  0  0
 28 29  1  0  0  0
 29 30  2  0  0  0
 30 31  1  0  0  0
 31 32  2  0  0  0
 32 33  1  0  0  0
 33 34  2  0  0  0
 34 35  1  0  0  0
  5  1  2  0  0  0
 14  6  1  0  0  0
 19 15  2  0  0  0
 34 29  1  0  0  0
 14  9  1  0  0  0
 22 24  1  0  0  0
 22 25  1  0  0  0
 18 20  1  0  0  0
M  END
> <minimizedAffinity>
-10.56328

> <CNNscore>
0.3442820907

> <CNNaffinity>
6.7446503639

> <CNN_VS>
2.3220622540

> <CNNaffinity_variance>
0.5726295710

$$$$
[H]c1nc(N([H])c2c([H])c([H])c(N3C([H])([H])C([H])([H])N(C([H])([H])[H])C([H])([H])C3([H])[H])c([H])c2OC([H])([H])[H])nc2c1N(C([H])([H])[H])C(=O)[C@@]([H])(C([H])([H])C([H])([H])[H])N2C1([H])C([H])([H])C([H])([H])C([H])([H])C1([H])[H]


 36 40  0  0  0  0  0  0  0  0999 V2000
   59.4315   -3.5640  -12.5957 C   0  0  0  0  0  0  0  0  0  0  0  0
   58.0316   -3.8848  -12.4823 N   0  0  0  0  0  0  0  0  0  0  0  0
   57.6041   -4.3323  -11.1652 C   0  0  0  0  0  0  0  0  0  0  0  0
   56.3647   -4.0342  -10.7986 N   0  0  0  0  0  0  0  0  0  0  0  0
   55.9455   -4.4518   -9.5458 C   0  0  0  0  0  0  0  0  0  0  0  0
   56.8047   -5.1241   -8.7856 N   0  0  0  0  0  0  0  0  0  0  0  0
   58.0664   -5.4458   -9.1174 C   0  0  0  0  0  0  0  0  0  0  0  0
   58.4863   -5.0319  -10.3620 C   0  0  0  0  0  0  0  0  0  0  0  0
   59.7883   -5.2809  -10.8624 N   0  0  0  0  0  0  0  0  0  0  0  0
   60.7586   -6.0394  -10.0583 C   0  0  0  0  0  0  0  0  0  0  0  0
   60.1600   -4.8068  -12.1627 C   0  0  0  0  0  0  0  0  0  0  0  0
   61.0034   -5.3700  -12.8630 O   0  0  0  0  0  0  0  0  0  0  0  0
   57.0984   -3.7885  -13.5675 C   0  0  0  0  0  0  0  0  0  0  0  0
   56.3769   -5.0173  -13.9511 C   0  0  0  0  0  0  0  0  0  0  0  0
   55.8327   -4.5704  -15.3403 C   0  0  0  0  0  0  0  0  0  0  0  0
   57.2194   -4.3080  -15.9589 C   0  0  0  0  0  0  0  0  0  0  0  0
   57.7756   -3.3741  -14.8724 C   0  0  0  0  0  0  0  0  0  0  0  0
   61.2096   -2.2652  -13.6923 C   0  0  0  0  0  0  0  0  0  0  0  0
   59.9029   -3.0660  -13.9106 C   0  0  0  0  0  0  0  0  0  0  0  0
   54.6204   -4.0874   -9.2329 N   0  0  0  0  0  0  0  0  0  0  0  0
   54.1221   -3.3906   -9.8859 H   0  0  0  0  0  0  0  0  0  0  0  0
   53.8735   -4.5475   -8.1447 C   0  0  0  0  0  0  0  0  0  0  0  0
   54.1530   -5.6353   -7.3641 C   0  0  0  0  0  0  0  0  0  0  0  0
   53.3547   -6.0477   -6.2871 C   0  0  0  0  0  0  0  0  0  0  0  0
   52.2185   -5.3224   -5.9873 C   0  0  0  0  0  0  0  0  0  0  0  0
   51.8914   -4.2102   -6.7501 C   0  0  0  0  0  0  0  0  0  0  0  0
   52.7060   -3.8427   -7.7989 C   0  0  0  0  0  0  0  0  0  0  0  0
   51.3696   -5.6766   -4.9311 N   0  0  0  0  0  0  0  0  0  0  0  0
   51.2628   -6.9771   -4.3193 C   0  0  0  0  0  0  0  0  0  0  0  0
   51.7397   -6.8331   -2.8912 C   0  0  0  0  0  0  0  0  0  0  0  0
   51.1475   -5.6875   -2.2317 N   0  0  0  0  0  0  0  0  0  0  0  0
   52.1474   -4.6778   -1.9376 C   0  0  0  0  0  0  0  0  0  0  0  0
   50.0356   -5.1300   -2.9809 C   0  0  0  0  0  0  0  0  0  0  0  0
   50.4824   -4.6500   -4.3499 C   0  0  0  0  0  0  0  0  0  0  0  0
   52.3906   -2.7317   -8.5701 O   0  0  0  0  0  0  0  0  0  0  0  0
   51.2736   -1.9453   -8.2807 C   0  0  0  0  0  0  0  0  0  0  0  0
 18 19  1  0  0  0
 19  1  1  0  0  0
  1  2  1  0  0  0
  2 13  1  0  0  0
 13 14  1  0  0  0
 14 15  1  0  0  0
 15 16  1  0  0  0
 16 17  1  0  0  0
  2  3  1  0  0  0
  3  4  2  0  0  0
  4  5  1  0  0  0
  5 20  1  0  0  0
 20 22  1  0  0  0
 22 23  2  0  0  0
 23 24  1  0  0  0
 24 25  2  0  0  0
 25 26  1  0  0  0
 26 27  2  0  0  0
 27 35  1  0  0  0
 35 36  1  0  0  0
 25 28  1  0  0  0
 28 29  1  0  0  0
 29 30  1  0  0  0
 30 31  1  0  0  0
 31 32  1  0  0  0
 31 33  1  0  0  0
 33 34  1  0  0  0
  5  6  2  0  0  0
  6  7  1  0  0  0
  7  8  2  0  0  0
  8  9  1  0  0  0
  9 10  1  0  0  0
  9 11  1  0  0  0
 11 12  2  0  0  0
 11  1  1  0  0  0
 17 13  1  0  0  0
  8  3  1  0  0  0
 27 22  1  0  0  0
 34 28  1  0  0  0
 20 21  1  0  0  0
M  END
> <minimizedAffinity>
-6.14535

> <CNNscore>
0.4266555607

> <CNNaffinity>
7.0237207413

> <CNN_VS>
2.9967095852

> <CNNaffinity_variance>
0.0534415729

$$$$
[H]c1nc(N([H])c2c([H])c([H])c(N3C([H])([H])C([H])([H])N(C([H])([H])[H])C([H])([H])C3([H])[H])c([H])c2OC([H])([H])[H])nc2c1N(C([H])([H])[H])C(=O)[C@@]([H])(C([H])([H])C([H])([H])[H])N2C1([H])C([H])([H])C([H])([H])C([H])([H])C1([H])[H]


 36 40  0  0  0  0  0  0  0  0999 V2000
   53.3092   -5.4873   -3.6887 C   0  0  0  0  0  0  0  0  0  0  0  0
   54.2728   -5.7367   -4.7303 N   0  0  0  0  0  0  0  0  0  0  0  0
   53.9174   -5.2121   -6.0404 C   0  0  0  0  0  0  0  0  0  0  0  0
   54.9130   -4.8240   -6.8262 N   0  0  0  0  0  0  0  0  0  0  0  0
   54.5886   -4.3198   -8.0753 C   0  0  0  0  0  0  0  0  0  0  0  0
   53.3045   -4.2538   -8.4141 N   0  0  0  0  0  0  0  0  0  0  0  0
   52.2670   -4.6347   -7.6498 C   0  0  0  0  0  0  0  0  0  0  0  0
   52.5861   -5.1360   -6.4074 C   0  0  0  0  0  0  0  0  0  0  0  0
   51.6125   -5.5736   -5.4756 N   0  0  0  0  0  0  0  0  0  0  0  0
   50.1839   -5.5349   -5.8235 C   0  0  0  0  0  0  0  0  0  0  0  0
   52.0182   -6.0708   -4.1942 C   0  0  0  0  0  0  0  0  0  0  0  0
   51.3643   -6.9034   -3.5633 O   0  0  0  0  0  0  0  0  0  0  0  0
   55.5004   -6.4512   -4.5300 C   0  0  0  0  0  0  0  0  0  0  0  0
   55.4276   -7.7304   -3.7979 C   0  0  0  0  0  0  0  0  0  0  0  0
   56.9384   -7.9244   -3.4727 C   0  0  0  0  0  0  0  0  0  0  0  0
   57.0786   -6.6206   -2.6635 C   0  0  0  0  0  0  0  0  0  0  0  0
   56.5047   -5.6479   -3.7059 C   0  0  0  0  0  0  0  0  0  0  0  0
   53.1365   -4.9353   -1.2978 C   0  0  0  0  0  0  0  0  0  0  0  0
   53.6493   -5.9703   -2.3285 C   0  0  0  0  0  0  0  0  0  0  0  0
   55.7033   -3.9240   -8.8417 N   0  0  0  0  0  0  0  0  0  0  0  0
   55.6353   -2.9988   -9.3891 H   0  0  0  0  0  0  0  0  0  0  0  0
   56.9093   -4.6199   -8.9641 C   0  0  0  0  0  0  0  0  0  0  0  0
   57.6910   -5.0848   -7.9424 C   0  0  0  0  0  0  0  0  0  0  0  0
   58.8981   -5.7725   -8.1352 C   0  0  0  0  0  0  0  0  0  0  0  0
   59.3336   -5.9997   -9.4259 C   0  0  0  0  0  0  0  0  0  0  0  0
   58.5758   -5.5475  -10.4970 C   0  0  0  0  0  0  0  0  0  0  0  0
   57.3962   -4.8763  -10.2589 C   0  0  0  0  0  0  0  0  0  0  0  0
   60.5311   -6.6737   -9.6969 N   0  0  0  0  0  0  0  0  0  0  0  0
   61.7784   -6.0730  -10.0973 C   0  0  0  0  0  0  0  0  0  0  0  0
   62.7677   -6.3254   -8.9814 C   0  0  0  0  0  0  0  0  0  0  0  0
   62.7531   -7.7057   -8.5421 N   0  0  0  0  0  0  0  0  0  0  0  0
   62.2486   -7.8182   -7.1861 C   0  0  0  0  0  0  0  0  0  0  0  0
   62.0234   -8.5697   -9.4527 C   0  0  0  0  0  0  0  0  0  0  0  0
   60.5710   -8.1435   -9.5678 C   0  0  0  0  0  0  0  0  0  0  0  0
   56.6281   -4.4187  -11.3215 O   0  0  0  0  0  0  0  0  0  0  0  0
   57.1944   -4.1943  -12.5780 C   0  0  0  0  0  0  0  0  0  0  0  0
 18 19  1  0  0  0
 19  1  1  0  0  0
  1  2  1  0  0  0
  2 13  1  0  0  0
 13 14  1  0  0  0
 14 15  1  0  0  0
 15 16  1  0  0  0
 16 17  1  0  0  0
  2  3  1  0  0  0
  3  4  2  0  0  0
  4  5  1  0  0  0
  5 20  1  0  0  0
 20 22  1  0  0  0
 22 23  2  0  0  0
 23 24  1  0  0  0
 24 25  2  0  0  0
 25 26  1  0  0  0
 26 27  2  0  0  0
 27 35  1  0  0  0
 35 36  1  0  0  0
 25 28  1  0  0  0
 28 29  1  0  0  0
 29 30  1  0  0  0
 30 31  1  0  0  0
 31 32  1  0  0  0
 31 33  1  0  0  0
 33 34  1  0  0  0
  5  6  2  0  0  0
  6  7  1  0  0  0
  7  8  2  0  0  0
  8  9  1  0  0  0
  9 10  1  0  0  0
  9 11  1  0  0  0
 11 12  2  0  0  0
 11  1  1  0  0  0
 17 13  1  0  0  0
  8  3  1  0  0  0
 27 22  1  0  0  0
 34 28  1  0  0  0
 20 21  1  0  0  0
M  END
> <minimizedAffinity>
-7.55630

> <CNNscore>
0.4001765549

> <CNNaffinity>
7.1686639786

> <CNN_VS>
2.8687312603

> <CNNaffinity_variance>
0.1038244739

$$$$
[H]c1nc(N([H])c2c([H])c([H])c(N3C([H])([H])C([H])([H])N(C([H])([H])[H])C([H])([H])C3([H])[H])c([H])c2OC([H])([H])[H])nc2c1N(C([H])([H])[H])C(=O)[C@@]([H])(C([H])([H])C([H])([H])[H])N2C1([H])C([H])([H])C([H])([H])C([H])([H])C1([H])[H]


 36 40  0  0  0  0  0  0  0  0999 V2000
   49.7414   -4.3484   -7.1603 C   0  0  0  0  0  0  0  0  0  0  0  0
   51.1541   -4.0783   -7.2438 N   0  0  0  0  0  0  0  0  0  0  0  0
   51.9729   -4.7531   -6.2477 C   0  0  0  0  0  0  0  0  0  0  0  0
   53.2057   -5.0876   -6.6051 N   0  0  0  0  0  0  0  0  0  0  0  0
   53.9953   -5.7332   -5.6673 C   0  0  0  0  0  0  0  0  0  0  0  0
   53.4755   -5.9798   -4.4685 N   0  0  0  0  0  0  0  0  0  0  0  0
   52.2341   -5.6593   -4.0665 C   0  0  0  0  0  0  0  0  0  0  0  0
   51.4466   -5.0177   -4.9964 C   0  0  0  0  0  0  0  0  0  0  0  0
   50.1118   -4.6189   -4.7377 N   0  0  0  0  0  0  0  0  0  0  0  0
   49.5104   -4.8564   -3.4165 C   0  0  0  0  0  0  0  0  0  0  0  0
   49.3465   -3.9678   -5.7596 C   0  0  0  0  0  0  0  0  0  0  0  0
   48.4439   -3.1667   -5.5098 O   0  0  0  0  0  0  0  0  0  0  0  0
   51.7461   -3.2089   -8.2192 C   0  0  0  0  0  0  0  0  0  0  0  0
   52.3333   -3.8371   -9.4185 C   0  0  0  0  0  0  0  0  0  0  0  0
   53.1717   -2.6371   -9.9503 C   0  0  0  0  0  0  0  0  0  0  0  0
   54.0449   -2.5026   -8.6879 C   0  0  0  0  0  0  0  0  0  0  0  0
   52.9189   -2.4162   -7.6455 C   0  0  0  0  0  0  0  0  0  0  0  0
   49.1173   -2.1838   -8.1482 C   0  0  0  0  0  0  0  0  0  0  0  0
   48.8738   -3.7122   -8.1809 C   0  0  0  0  0  0  0  0  0  0  0  0
   55.2858   -6.0596   -6.1306 N   0  0  0  0  0  0  0  0  0  0  0  0
   55.9191   -6.6456   -5.4858 H   0  0  0  0  0  0  0  0  0  0  0  0
   55.8362   -5.6963   -7.3630 C   0  0  0  0  0  0  0  0  0  0  0  0
   55.5125   -6.2151   -8.5864 C   0  0  0  0  0  0  0  0  0  0  0  0
   56.1104   -5.8089   -9.7884 C   0  0  0  0  0  0  0  0  0  0  0  0
   57.0833   -4.8297   -9.7479 C   0  0  0  0  0  0  0  0  0  0  0  0
   57.4473   -4.2719   -8.5304 C   0  0  0  0  0  0  0  0  0  0  0  0
   56.8321   -4.7027   -7.3751 C   0  0  0  0  0  0  0  0  0  0  0  0
   57.7290   -4.3772  -10.9055 N   0  0  0  0  0  0  0  0  0  0  0  0
   58.2743   -5.1985  -11.9568 C   0  0  0  0  0  0  0  0  0  0  0  0
   57.4677   -4.9117  -13.2037 C   0  0  0  0  0  0  0  0  0  0  0  0
   57.2984   -3.4907  -13.4283 N   0  0  0  0  0  0  0  0  0  0  0  0
   55.9096   -3.0983  -13.2757 C   0  0  0  0  0  0  0  0  0  0  0  0
   58.1711   -2.6889  -12.5894 C   0  0  0  0  0  0  0  0  0  0  0  0
   57.8854   -2.9249  -11.1173 C   0  0  0  0  0  0  0  0  0  0  0  0
   57.1866   -4.1527   -6.1502 O   0  0  0  0  0  0  0  0  0  0  0  0
   57.2234   -2.7694   -5.9632 C   0  0  0  0  0  0  0  0  0  0  0  0
 18 19  1  0  0  0
 19  1  1  0  0  0
  1  2  1  0  0  0
  2 13  1  0  0  0
 13 14  1  0  0  0
 14 15  1  0  0  0
 15 16  1  0  0  0
 16 17  1  0  0  0
  2  3  1  0  0  0
  3  4  2  0  0  0
  4  5  1  0  0  0
  5 20  1  0  0  0
 20 22  1  0  0  0
 22 23  2  0  0  0
 23 24  1  0  0  0
 24 25  2  0  0  0
 25 26  1  0  0  0
 26 27  2  0  0  0
 27 35  1  0  0  0
 35 36  1  0  0  0
 25 28  1  0  0  0
 28 29  1  0  0  0
 29 30  1  0  0  0
 30 31  1  0  0  0
 31 32  1  0  0  0
 31 33  1  0  0  0
 33 34  1  0  0  0
  5  6  2  0  0  0
  6  7  1  0  0  0
  7  8  2  0  0  0
  8  9  1  0  0  0
  9 10  1  0  0  0
  9 11  1  0  0  0
 11 12  2  0  0  0
 11  1  1  0  0  0
 17 13  1  0  0  0
  8  3  1  0  0  0
 27 22  1  0  0  0
 34 28  1  0  0  0
 20 21  1  0  0  0
M  END
> <minimizedAffinity>
9.75454

> <CNNscore>
0.3270005584

> <CNNaffinity>
6.6630539894

> <CNN_VS>
2.1788222790

> <CNNaffinity_variance>
0.2911754251

$$$$
[H]c1nc(N([H])c2c([H])c([H])c(N3C([H])([H])C([H])([H])N(C([H])([H])[H])C([H])([H])C3([H])[H])c([H])c2OC([H])([H])[H])nc2c1N(C([H])([H])[H])C(=O)[C@@]([H])(C([H])([H])C([H])([H])[H])N2C1([H])C([H])([H])C([H])([H])C([H])([H])C1([H])[H]


 36 40  0  0  0  0  0  0  0  0999 V2000
   55.2362   -3.6843   -8.7542 C   0  0  0  0  0  0  0  0  0  0  0  0
   56.0240   -4.8250   -8.3621 N   0  0  0  0  0  0  0  0  0  0  0  0
   57.2291   -5.0442   -9.1478 C   0  0  0  0  0  0  0  0  0  0  0  0
   58.2663   -5.5873   -8.5244 N   0  0  0  0  0  0  0  0  0  0  0  0
   59.4212   -5.7990   -9.2599 C   0  0  0  0  0  0  0  0  0  0  0  0
   59.4248   -5.4476  -10.5423 N   0  0  0  0  0  0  0  0  0  0  0  0
   58.3986   -4.8952  -11.2112 C   0  0  0  0  0  0  0  0  0  0  0  0
   57.2492   -4.6832  -10.4828 C   0  0  0  0  0  0  0  0  0  0  0  0
   56.0799   -4.1024  -11.0331 N   0  0  0  0  0  0  0  0  0  0  0  0
   56.0400   -3.7204  -12.4529 C   0  0  0  0  0  0  0  0  0  0  0  0
   54.9244   -3.8986  -10.2101 C   0  0  0  0  0  0  0  0  0  0  0  0
   53.7765   -3.8992  -10.6587 O   0  0  0  0  0  0  0  0  0  0  0  0
   55.6747   -5.7065   -7.2857 C   0  0  0  0  0  0  0  0  0  0  0  0
   54.2559   -6.0923   -7.1597 C   0  0  0  0  0  0  0  0  0  0  0  0
   54.2759   -6.6684   -5.7128 C   0  0  0  0  0  0  0  0  0  0  0  0
   54.7450   -5.3613   -5.0452 C   0  0  0  0  0  0  0  0  0  0  0  0
   55.9801   -5.0944   -5.9200 C   0  0  0  0  0  0  0  0  0  0  0  0
   53.2517   -2.2365   -8.6272 C   0  0  0  0  0  0  0  0  0  0  0  0
   54.0197   -3.4005   -7.9552 C   0  0  0  0  0  0  0  0  0  0  0  0
   60.4759   -6.3714   -8.5205 N   0  0  0  0  0  0  0  0  0  0  0  0
   60.5936   -6.0682   -7.4936 H   0  0  0  0  0  0  0  0  0  0  0  0
   61.3988   -7.3099   -8.9909 C   0  0  0  0  0  0  0  0  0  0  0  0
   61.1228   -8.5719   -9.4403 C   0  0  0  0  0  0  0  0  0  0  0  0
   62.1008   -9.4690   -9.8941 C   0  0  0  0  0  0  0  0  0  0  0  0
   63.4220   -9.0672   -9.8921 C   0  0  0  0  0  0  0  0  0  0  0  0
   63.7535   -7.7958   -9.4452 C   0  0  0  0  0  0  0  0  0  0  0  0
   62.7583   -6.9486   -9.0086 C   0  0  0  0  0  0  0  0  0  0  0  0
   64.4542   -9.9094  -10.3246 N   0  0  0  0  0  0  0  0  0  0  0  0
   65.4952  -10.4763   -9.5050 C   0  0  0  0  0  0  0  0  0  0  0  0
   65.2911  -11.9750   -9.5071 C   0  0  0  0  0  0  0  0  0  0  0  0
   65.0770  -12.4940  -10.8424 N   0  0  0  0  0  0  0  0  0  0  0  0
   63.7276  -13.0055  -10.9952 C   0  0  0  0  0  0  0  0  0  0  0  0
   65.3951  -11.5216  -11.8728 C   0  0  0  0  0  0  0  0  0  0  0  0
   64.5211  -10.2866  -11.7501 C   0  0  0  0  0  0  0  0  0  0  0  0
   63.0760   -5.6737   -8.5591 O   0  0  0  0  0  0  0  0  0  0  0  0
   64.1719   -5.4554   -7.7217 C   0  0  0  0  0  0  0  0  0  0  0  0
 18 19  1  0  0  0
 19  1  1  0  0  0
  1  2  1  0  0  0
  2 13  1  0  0  0
 13 14  1  0  0  0
 14 15  1  0  0  0
 15 16  1  0  0  0
 16 17  1  0  0  0
  2  3  1  0  0  0
  3  4  2  0  0  0
  4  5  1  0  0  0
  5 20  1  0  0  0
 20 22  1  0  0  0
 22 23  2  0  0  0
 23 24  1  0  0  0
 24 25  2  0  0  0
 25 26  1  0  0  0
 26 27  2  0  0  0
 27 35  1  0  0  0
 35 36  1  0  0  0
 25 28  1  0  0  0
 28 29  1  0  0  0
 29 30  1  0  0  0
 30 31  1  0  0  0
 31 32  1  0  0  0
 31 33  1  0  0  0
 33 34  1  0  0  0
  5  6  2  0  0  0
  6  7  1  0  0  0
  7  8  2  0  0  0
  8  9  1  0  0  0
  9 10  1  0  0  0
  9 11  1  0  0  0
 11 12  2  0  0  0
 11  1  1  0  0  0
 17 13  1  0  0  0
  8  3  1  0  0  0
 27 22  1  0  0  0
 34 28  1  0  0  0
 20 21  1  0  0  0
M  END
> <minimizedAffinity>
-6.61540

> <CNNscore>
0.3151263297

> <CNNaffinity>
6.2810163498

> <CNN_VS>
1.9793136120

> <CNNaffinity_variance>
0.0509297848

$$$$
[H]c1nc(N([H])c2c([H])c([H])c(N3C([H])([H])C([H])([H])N(C([H])([H])[H])C([H])([H])C3([H])[H])c([H])c2OC([H])([H])[H])nc2c1N(C([H])([H])[H])C(=O)[C@@]([H])(C([H])([H])C([H])([H])[H])N2C1([H])C([H])([H])C([H])([H])C([H])([H])C1([H])[H]


 36 40  0  0  0  0  0  0  0  0999 V2000
   51.5993   -6.2437   -5.8855 C   0  0  0  0  0  0  0  0  0  0  0  0
   52.6410   -5.5061   -6.5535 N   0  0  0  0  0  0  0  0  0  0  0  0
   53.9747   -5.6770   -5.9967 C   0  0  0  0  0  0  0  0  0  0  0  0
   54.9955   -5.6039   -6.8405 N   0  0  0  0  0  0  0  0  0  0  0  0
   56.2708   -5.7675   -6.3242 C   0  0  0  0  0  0  0  0  0  0  0  0
   56.3987   -5.9876   -5.0190 N   0  0  0  0  0  0  0  0  0  0  0  0
   55.3935   -6.0695   -4.1312 C   0  0  0  0  0  0  0  0  0  0  0  0
   54.1246   -5.9074   -4.6413 C   0  0  0  0  0  0  0  0  0  0  0  0
   52.9552   -5.9734   -3.8439 N   0  0  0  0  0  0  0  0  0  0  0  0
   53.0590   -6.1944   -2.3934 C   0  0  0  0  0  0  0  0  0  0  0  0
   51.6654   -5.8095   -4.4467 C   0  0  0  0  0  0  0  0  0  0  0  0
   50.6965   -5.3526   -3.8373 O   0  0  0  0  0  0  0  0  0  0  0  0
   52.4174   -4.6512   -7.6835 C   0  0  0  0  0  0  0  0  0  0  0  0
   53.4367   -3.6224   -7.9664 C   0  0  0  0  0  0  0  0  0  0  0  0
   52.6272   -2.7247   -8.9487 C   0  0  0  0  0  0  0  0  0  0  0  0
   51.5050   -2.3925   -7.9465 C   0  0  0  0  0  0  0  0  0  0  0  0
   51.1392   -3.8279   -7.5367 C   0  0  0  0  0  0  0  0  0  0  0  0
   50.0255   -7.2651   -7.4763 C   0  0  0  0  0  0  0  0  0  0  0  0
   50.2304   -6.1297   -6.4442 C   0  0  0  0  0  0  0  0  0  0  0  0
   57.2955   -5.6834   -7.2882 N   0  0  0  0  0  0  0  0  0  0  0  0
   58.2592   -6.0933   -7.0360 H   0  0  0  0  0  0  0  0  0  0  0  0
   57.1865   -5.1150   -8.5606 C   0  0  0  0  0  0  0  0  0  0  0  0
   56.2270   -4.2364   -8.9827 C   0  0  0  0  0  0  0  0  0  0  0  0
   56.1713   -3.7071  -10.2804 C   0  0  0  0  0  0  0  0  0  0  0  0
   57.1347   -4.0871  -11.1939 C   0  0  0  0  0  0  0  0  0  0  0  0
   58.1298   -4.9767  -10.8141 C   0  0  0  0  0  0  0  0  0  0  0  0
   58.1442   -5.4706   -9.5278 C   0  0  0  0  0  0  0  0  0  0  0  0
   57.1408   -3.6055  -12.5091 N   0  0  0  0  0  0  0  0  0  0  0  0
   58.3026   -3.3787  -13.3311 C   0  0  0  0  0  0  0  0  0  0  0  0
   58.2212   -4.3502  -14.4875 C   0  0  0  0  0  0  0  0  0  0  0  0
   56.9087   -4.3593  -15.1003 N   0  0  0  0  0  0  0  0  0  0  0  0
   56.2401   -5.6296  -14.8873 C   0  0  0  0  0  0  0  0  0  0  0  0
   56.0848   -3.2467  -14.6627 C   0  0  0  0  0  0  0  0  0  0  0  0
   55.8553   -3.2907  -13.1627 C   0  0  0  0  0  0  0  0  0  0  0  0
   59.1344   -6.3613   -9.1344 O   0  0  0  0  0  0  0  0  0  0  0  0
   60.4657   -6.1739   -9.5119 C   0  0  0  0  0  0  0  0  0  0  0  0
 18 19  1  0  0  0
 19  1  1  0  0  0
  1  2  1  0  0  0
  2 13  1  0  0  0
 13 14  1  0  0  0
 14 15  1  0  0  0
 15 16  1  0  0  0
 16 17  1  0  0  0
  2  3  1  0  0  0
  3  4  2  0  0  0
  4  5  1  0  0  0
  5 20  1  0  0  0
 20 22  1  0  0  0
 22 23  2  0  0  0
 23 24  1  0  0  0
 24 25  2  0  0  0
 25 26  1  0  0  0
 26 27  2  0  0  0
 27 35  1  0  0  0
 35 36  1  0  0  0
 25 28  1  0  0  0
 28 29  1  0  0  0
 29 30  1  0  0  0
 30 31  1  0  0  0
 31 32  1  0  0  0
 31 33  1  0  0  0
 33 34  1  0  0  0
  5  6  2  0  0  0
  6  7  1  0  0  0
  7  8  2  0  0  0
  8  9  1  0  0  0
  9 10  1  0  0  0
  9 11  1  0  0  0
 11 12  2  0  0  0
 11  1  1  0  0  0
 17 13  1  0  0  0
  8  3  1  0  0  0
 27 22  1  0  0  0
 34 28  1  0  0  0
 20 21  1  0  0  0
M  END
> <minimizedAffinity>
-8.41580

> <CNNscore>
0.2875460982

> <CNNaffinity>
7.4400725365

> <CNN_VS>
2.1393637657

> <CNNaffinity_variance>
0.0182839781

$$$$
[H]c1nc(N([H])c2c([H])c([H])c(N3C([H])([H])C([H])([H])N(C([H])([H])[H])C([H])([H])C3([H])[H])c([H])c2OC([H])([H])[H])nc2c1N(C([H])([H])[H])C(=O)[C@@]([H])(C([H])([H])C([H])([H])[H])N2C1([H])C([H])([H])C([H])([H])C([H])([H])C1([H])[H]


 36 40  0  0  0  0  0  0  0  0999 V2000
   54.8088   -7.7266   -2.7395 C   0  0  0  0  0  0  0  0  0  0  0  0
   55.3088   -7.1437   -3.9585 N   0  0  0  0  0  0  0  0  0  0  0  0
   56.7489   -6.9384   -4.0009 C   0  0  0  0  0  0  0  0  0  0  0  0
   57.3385   -7.0364   -5.1850 N   0  0  0  0  0  0  0  0  0  0  0  0
   58.7098   -6.8460   -5.2394 C   0  0  0  0  0  0  0  0  0  0  0  0
   59.3540   -6.5772   -4.1076 N   0  0  0  0  0  0  0  0  0  0  0  0
   58.7966   -6.4699   -2.8897 C   0  0  0  0  0  0  0  0  0  0  0  0
   57.4336   -6.6589   -2.8322 C   0  0  0  0  0  0  0  0  0  0  0  0
   56.6924   -6.5893   -1.6266 N   0  0  0  0  0  0  0  0  0  0  0  0
   57.3679   -6.2736   -0.3587 C   0  0  0  0  0  0  0  0  0  0  0  0
   55.2767   -6.8116   -1.6409 C   0  0  0  0  0  0  0  0  0  0  0  0
   54.5116   -6.2971   -0.8231 O   0  0  0  0  0  0  0  0  0  0  0  0
   54.4779   -6.7741   -5.0679 C   0  0  0  0  0  0  0  0  0  0  0  0
   54.5542   -5.3762   -5.5347 C   0  0  0  0  0  0  0  0  0  0  0  0
   53.2672   -5.3294   -6.4107 C   0  0  0  0  0  0  0  0  0  0  0  0
   52.2995   -5.6693   -5.2608 C   0  0  0  0  0  0  0  0  0  0  0  0
   52.9926   -6.9444   -4.7550 C   0  0  0  0  0  0  0  0  0  0  0  0
   53.1301   -9.5217   -2.6397 C   0  0  0  0  0  0  0  0  0  0  0  0
   53.3512   -7.9898   -2.6685 C   0  0  0  0  0  0  0  0  0  0  0  0
   59.2565   -6.9754   -6.5321 N   0  0  0  0  0  0  0  0  0  0  0  0
   60.0917   -7.6432   -6.6611 H   0  0  0  0  0  0  0  0  0  0  0  0
   58.8164   -6.3164   -7.6835 C   0  0  0  0  0  0  0  0  0  0  0  0
   59.1883   -6.5872   -8.9716 C   0  0  0  0  0  0  0  0  0  0  0  0
   58.7122   -5.8802  -10.0855 C   0  0  0  0  0  0  0  0  0  0  0  0
   57.8160   -4.8491   -9.8836 C   0  0  0  0  0  0  0  0  0  0  0  0
   57.4078   -4.5352   -8.5949 C   0  0  0  0  0  0  0  0  0  0  0  0
   57.9025   -5.2578   -7.5309 C   0  0  0  0  0  0  0  0  0  0  0  0
   57.3018   -4.0945  -10.9456 N   0  0  0  0  0  0  0  0  0  0  0  0
   58.0545   -3.2459  -11.8346 C   0  0  0  0  0  0  0  0  0  0  0  0
   57.9593   -3.8581  -13.2144 C   0  0  0  0  0  0  0  0  0  0  0  0
   56.5988   -4.2176  -13.5584 N   0  0  0  0  0  0  0  0  0  0  0  0
   56.4486   -5.6570  -13.6649 C   0  0  0  0  0  0  0  0  0  0  0  0
   55.6266   -3.6494  -12.6418 C   0  0  0  0  0  0  0  0  0  0  0  0
   55.8533   -4.1453  -11.2250 C   0  0  0  0  0  0  0  0  0  0  0  0
   57.5022   -4.9545   -6.2362 O   0  0  0  0  0  0  0  0  0  0  0  0
   56.2236   -4.4584   -5.9732 C   0  0  0  0  0  0  0  0  0  0  0  0
 18 19  1  0  0  0
 19  1  1  0  0  0
  1  2  1  0  0  0
  2 13  1  0  0  0
 13 14  1  0  0  0
 14 15  1  0  0  0
 15 16  1  0  0  0
 16 17  1  0  0  0
  2  3  1  0  0  0
  3  4  2  0  0  0
  4  5  1  0  0  0
  5 20  1  0  0  0
 20 22  1  0  0  0
 22 23  2  0  0  0
 23 24  1  0  0  0
 24 25  2  0  0  0
 25 26  1  0  0  0
 26 27  2  0  0  0
 27 35  1  0  0  0
 35 36  1  0  0  0
 25 28  1  0  0  0
 28 29  1  0  0  0
 29 30  1  0  0  0
 30 31  1  0  0  0
 31 32  1  0  0  0
 31 33  1  0  0  0
 33 34  1  0  0  0
  5  6  2  0  0  0
  6  7  1  0  0  0
  7  8  2  0  0  0
  8  9  1  0  0  0
  9 10  1  0  0  0
  9 11  1  0  0  0
 11 12  2  0  0  0
 11  1  1  0  0  0
 17 13  1  0  0  0
  8  3  1  0  0  0
 27 22  1  0  0  0
 34 28  1  0  0  0
 20 21  1  0  0  0
M  END
> <minimizedAffinity>
2.85643

> <CNNscore>
0.2680279016

> <CNNaffinity>
6.4292640686

> <CNN_VS>
1.7232221365

> <CNNaffinity_variance>
0.5016618967

$$$$
[H]c1nc(N([H])c2c([H])c([H])c(N3C([H])([H])C([H])([H])N(C([H])([H])[H])C([H])([H])C3([H])[H])c([H])c2OC([H])([H])[H])nc2c1N(C([H])([H])[H])C(=O)[C@@]([H])(C([H])([H])C([H])([H])[H])N2C1([H])C([H])([H])C([H])([H])C([H])([H])C1([H])[H]


 36 40  0  0  0  0  0  0  0  0999 V2000
   51.9051   -6.1325   -6.1700 C   0  0  0  0  0  0  0  0  0  0  0  0
   52.6984   -5.2498   -6.9868 N   0  0  0  0  0  0  0  0  0  0  0  0
   54.1370   -5.3542   -6.7935 C   0  0  0  0  0  0  0  0  0  0  0  0
   54.9069   -5.1167   -7.8471 N   0  0  0  0  0  0  0  0  0  0  0  0
   56.2785   -5.2154   -7.6779 C   0  0  0  0  0  0  0  0  0  0  0  0
   56.7432   -5.5409   -6.4753 N   0  0  0  0  0  0  0  0  0  0  0  0
   56.0000   -5.7897   -5.3839 C   0  0  0  0  0  0  0  0  0  0  0  0
   54.6362   -5.6927   -5.5489 C   0  0  0  0  0  0  0  0  0  0  0  0
   53.7107   -5.9318   -4.5029 N   0  0  0  0  0  0  0  0  0  0  0  0
   54.1886   -6.2736   -3.1545 C   0  0  0  0  0  0  0  0  0  0  0  0
   52.3034   -5.8264   -4.7520 C   0  0  0  0  0  0  0  0  0  0  0  0
   51.4923   -5.5123   -3.8789 O   0  0  0  0  0  0  0  0  0  0  0  0
   52.1462   -4.3186   -7.9279 C   0  0  0  0  0  0  0  0  0  0  0  0
   53.0301   -3.2407   -8.4119 C   0  0  0  0  0  0  0  0  0  0  0  0
   51.9612   -2.2960   -9.0372 C   0  0  0  0  0  0  0  0  0  0  0  0
   51.1817   -2.0753   -7.7266 C   0  0  0  0  0  0  0  0  0  0  0  0
   50.9624   -3.5482   -7.3463 C   0  0  0  0  0  0  0  0  0  0  0  0
   50.0438   -7.1640   -7.4038 C   0  0  0  0  0  0  0  0  0  0  0  0
   50.4355   -6.0874   -6.3627 C   0  0  0  0  0  0  0  0  0  0  0  0
   57.0213   -4.9557   -8.8473 N   0  0  0  0  0  0  0  0  0  0  0  0
   56.5544   -4.3691   -9.6207 H   0  0  0  0  0  0  0  0  0  0  0  0
   58.3249   -5.3868   -9.1092 C   0  0  0  0  0  0  0  0  0  0  0  0
   59.2423   -5.8179   -8.1908 C   0  0  0  0  0  0  0  0  0  0  0  0
   60.5409   -6.2320   -8.5215 C   0  0  0  0  0  0  0  0  0  0  0  0
   60.9280   -6.2078   -9.8468 C   0  0  0  0  0  0  0  0  0  0  0  0
   60.0333   -5.7782  -10.8168 C   0  0  0  0  0  0  0  0  0  0  0  0
   58.7675   -5.3807  -10.4447 C   0  0  0  0  0  0  0  0  0  0  0  0
   62.2097   -6.6005  -10.2526 N   0  0  0  0  0  0  0  0  0  0  0  0
   63.3754   -6.7131   -9.4126 C   0  0  0  0  0  0  0  0  0  0  0  0
   63.7577   -8.1762   -9.3827 C   0  0  0  0  0  0  0  0  0  0  0  0
   63.7781   -8.7613  -10.7077 N   0  0  0  0  0  0  0  0  0  0  0  0
   62.7279   -9.7512  -10.8592 C   0  0  0  0  0  0  0  0  0  0  0  0
   63.7178   -7.7596  -11.7571 C   0  0  0  0  0  0  0  0  0  0  0  0
   62.4374   -6.9490  -11.6687 C   0  0  0  0  0  0  0  0  0  0  0  0
   57.8621   -4.9489  -11.4051 O   0  0  0  0  0  0  0  0  0  0  0  0
   58.1268   -3.8281  -12.1949 C   0  0  0  0  0  0  0  0  0  0  0  0
 18 19  1  0  0  0
 19  1  1  0  0  0
  1  2  1  0  0  0
  2 13  1  0  0  0
 13 14  1  0  0  0
 14 15  1  0  0  0
 15 16  1  0  0  0
 16 17  1  0  0  0
  2  3  1  0  0  0
  3  4  2  0  0  0
  4  5  1  0  0  0
  5 20  1  0  0  0
 20 22  1  0  0  0
 22 23  2  0  0  0
 23 24  1  0  0  0
 24 25  2  0  0  0
 25 26  1  0  0  0
 26 27  2  0  0  0
 27 35  1  0  0  0
 35 36  1  0  0  0
 25 28  1  0  0  0
 28 29  1  0  0  0
 29 30  1  0  0  0
 30 31  1  0  0  0
 31 32  1  0  0  0
 31 33  1  0  0  0
 33 34  1  0  0  0
  5  6  2  0  0  0
  6  7  1  0  0  0
  7  8  2  0  0  0
  8  9  1  0  0  0
  9 10  1  0  0  0
  9 11  1  0  0  0
 11 12  2  0  0  0
 11  1  1  0  0  0
 17 13  1  0  0  0
  8  3  1  0  0  0
 27 22  1  0  0  0
 34 28  1  0  0  0
 20 21  1  0  0  0
M  END
> <minimizedAffinity>
-7.72034

> <CNNscore>
0.2668956816

> <CNNaffinity>
6.7627463341

> <CNN_VS>
1.8049477339

> <CNNaffinity_variance>
0.1319433451

$$$$
[H]c1nc(N([H])c2c([H])c([H])c(N3C([H])([H])C([H])([H])N(C([H])([H])[H])C([H])([H])C3([H])[H])c([H])c2OC([H])([H])[H])nc2c1N(C([H])([H])[H])C(=O)[C@@]([H])(C([H])([H])C([H])([H])[H])N2C1([H])C([H])([H])C([H])([H])C([H])([H])C1([H])[H]


 36 40  0  0  0  0  0  0  0  0999 V2000
   59.5282   -2.4970  -16.1949 C   0  0  0  0  0  0  0  0  0  0  0  0
   58.4078   -3.1804  -15.6006 N   0  0  0  0  0  0  0  0  0  0  0  0
   58.5716   -3.5338  -14.1984 C   0  0  0  0  0  0  0  0  0  0  0  0
   57.4784   -3.5482  -13.4473 N   0  0  0  0  0  0  0  0  0  0  0  0
   57.6203   -3.8802  -12.1097 C   0  0  0  0  0  0  0  0  0  0  0  0
   58.8378   -4.1640  -11.6567 N   0  0  0  0  0  0  0  0  0  0  0  0
   59.9692   -4.1606  -12.3815 C   0  0  0  0  0  0  0  0  0  0  0  0
   59.8316   -3.8308  -13.7115 C   0  0  0  0  0  0  0  0  0  0  0  0
   60.9242   -3.7717  -14.6117 N   0  0  0  0  0  0  0  0  0  0  0  0
   62.2821   -4.0994  -14.1513 C   0  0  0  0  0  0  0  0  0  0  0  0
   60.7072   -3.4064  -15.9804 C   0  0  0  0  0  0  0  0  0  0  0  0
   61.4255   -3.8038  -16.8996 O   0  0  0  0  0  0  0  0  0  0  0  0
   57.2051   -3.5110  -16.3090 C   0  0  0  0  0  0  0  0  0  0  0  0
   56.8517   -2.6730  -17.4711 C   0  0  0  0  0  0  0  0  0  0  0  0
   55.3660   -3.1034  -17.6535 C   0  0  0  0  0  0  0  0  0  0  0  0
   54.9127   -2.6478  -16.2530 C   0  0  0  0  0  0  0  0  0  0  0  0
   55.9665   -3.3971  -15.4223 C   0  0  0  0  0  0  0  0  0  0  0  0
   58.9930   -0.5870  -17.6495 C   0  0  0  0  0  0  0  0  0  0  0  0
   59.3887   -2.0831  -17.6120 C   0  0  0  0  0  0  0  0  0  0  0  0
   56.4127   -3.8638  -11.3830 N   0  0  0  0  0  0  0  0  0  0  0  0
   55.5324   -3.4885  -11.8774 H   0  0  0  0  0  0  0  0  0  0  0  0
   56.2374   -4.2942  -10.0647 C   0  0  0  0  0  0  0  0  0  0  0  0
   57.1798   -4.8802   -9.2651 C   0  0  0  0  0  0  0  0  0  0  0  0
   56.9350   -5.2962   -7.9482 C   0  0  0  0  0  0  0  0  0  0  0  0
   55.6743   -5.1092   -7.4166 C   0  0  0  0  0  0  0  0  0  0  0  0
   54.6832   -4.5190   -8.1881 C   0  0  0  0  0  0  0  0  0  0  0  0
   54.9701   -4.1260   -9.4774 C   0  0  0  0  0  0  0  0  0  0  0  0
   55.3533   -5.5042   -6.1117 N   0  0  0  0  0  0  0  0  0  0  0  0
   54.4851   -6.5916   -5.7368 C   0  0  0  0  0  0  0  0  0  0  0  0
   55.3429   -7.6172   -5.0297 C   0  0  0  0  0  0  0  0  0  0  0  0
   56.1990   -7.0146   -4.0285 N   0  0  0  0  0  0  0  0  0  0  0  0
   57.5970   -7.1198   -4.4030 C   0  0  0  0  0  0  0  0  0  0  0  0
   55.8299   -5.6407   -3.7377 C   0  0  0  0  0  0  0  0  0  0  0  0
   55.9422   -4.7689   -4.9753 C   0  0  0  0  0  0  0  0  0  0  0  0
   53.9878   -3.5339  -10.2603 O   0  0  0  0  0  0  0  0  0  0  0  0
   52.8351   -2.9938   -9.6864 C   0  0  0  0  0  0  0  0  0  0  0  0
 18 19  1  0  0  0
 19  1  1  0  0  0
  1  2  1  0  0  0
  2 13  1  0  0  0
 13 14  1  0  0  0
 14 15  1  0  0  0
 15 16  1  0  0  0
 16 17  1  0  0  0
  2  3  1  0  0  0
  3  4  2  0  0  0
  4  5  1  0  0  0
  5 20  1  0  0  0
 20 22  1  0  0  0
 22 23  2  0  0  0
 23 24  1  0  0  0
 24 25  2  0  0  0
 25 26  1  0  0  0
 26 27  2  0  0  0
 27 35  1  0  0  0
 35 36  1  0  0  0
 25 28  1  0  0  0
 28 29  1  0  0  0
 29 30  1  0  0  0
 30 31  1  0  0  0
 31 32  1  0  0  0
 31 33  1  0  0  0
 33 34  1  0  0  0
  5  6  2  0  0  0
  6  7  1  0  0  0
  7  8  2  0  0  0
  8  9  1  0  0  0
  9 10  1  0  0  0
  9 11  1  0  0  0
 11 12  2  0  0  0
 11  1  1  0  0  0
 17 13  1  0  0  0
  8  3  1  0  0  0
 27 22  1  0  0  0
 34 28  1  0  0  0
 20 21  1  0  0  0
M  END
> <minimizedAffinity>
-6.15495

> <CNNscore>
0.2471863776

> <CNNaffinity>
6.3893365860

> <CNN_VS>
1.5793569088

> <CNNaffinity_variance>
0.1058185324

$$$$
[H]c1nc(N([H])c2c([H])c([H])c(N3C([H])([H])C([H])([H])N(C([H])([H])[H])C([H])([H])C3([H])[H])c([H])c2OC([H])([H])[H])nc2c1N(C([H])([H])[H])C(=O)[C@@]([H])(C([H])([H])C([H])([H])[H])N2C1([H])C([H])([H])C([H])([H])C([H])([H])C1([H])[H]


 36 40  0  0  0  0  0  0  0  0999 V2000
   56.1231   -4.2746   -8.6117 C   0  0  0  0  0  0  0  0  0  0  0  0
   55.1141   -5.1382   -8.0534 N   0  0  0  0  0  0  0  0  0  0  0  0
   55.4739   -5.7782   -6.7969 C   0  0  0  0  0  0  0  0  0  0  0  0
   54.4911   -6.0228   -5.9404 N   0  0  0  0  0  0  0  0  0  0  0  0
   54.8200   -6.6293   -4.7388 C   0  0  0  0  0  0  0  0  0  0  0  0
   56.0954   -6.9303   -4.5133 N   0  0  0  0  0  0  0  0  0  0  0  0
   57.1199   -6.6998   -5.3516 C   0  0  0  0  0  0  0  0  0  0  0  0
   56.7963   -6.0968   -6.5468 C   0  0  0  0  0  0  0  0  0  0  0  0
   57.7572   -5.7762   -7.5374 N   0  0  0  0  0  0  0  0  0  0  0  0
   59.1742   -6.1130   -7.3317 C   0  0  0  0  0  0  0  0  0  0  0  0
   57.3488   -5.1352   -8.7524 C   0  0  0  0  0  0  0  0  0  0  0  0
   57.9513   -5.2779   -9.8180 O   0  0  0  0  0  0  0  0  0  0  0  0
   53.8393   -5.3791   -8.6654 C   0  0  0  0  0  0  0  0  0  0  0  0
   52.9047   -4.2404   -8.7538 C   0  0  0  0  0  0  0  0  0  0  0  0
   51.5917   -5.0129   -9.0781 C   0  0  0  0  0  0  0  0  0  0  0  0
   51.6016   -5.8582   -7.7899 C   0  0  0  0  0  0  0  0  0  0  0  0
   53.0257   -6.4247   -7.9053 C   0  0  0  0  0  0  0  0  0  0  0  0
   56.1577   -4.4873  -11.0621 C   0  0  0  0  0  0  0  0  0  0  0  0
   55.7833   -3.5708   -9.8720 C   0  0  0  0  0  0  0  0  0  0  0  0
   53.7197   -6.8455   -3.8849 N   0  0  0  0  0  0  0  0  0  0  0  0
   53.7919   -7.6406   -3.1618 H   0  0  0  0  0  0  0  0  0  0  0  0
   52.5251   -6.1197   -3.8788 C   0  0  0  0  0  0  0  0  0  0  0  0
   51.9196   -5.5350   -4.9569 C   0  0  0  0  0  0  0  0  0  0  0  0
   50.7200   -4.8122   -4.8801 C   0  0  0  0  0  0  0  0  0  0  0  0
   50.1050   -4.6756   -3.6512 C   0  0  0  0  0  0  0  0  0  0  0  0
   50.6802   -5.2505   -2.5267 C   0  0  0  0  0  0  0  0  0  0  0  0
   51.8598   -5.9519   -2.6506 C   0  0  0  0  0  0  0  0  0  0  0  0
   48.9092   -3.9633   -3.4952 N   0  0  0  0  0  0  0  0  0  0  0  0
   48.3753   -2.9797   -4.4032 C   0  0  0  0  0  0  0  0  0  0  0  0
   47.0864   -3.5447   -4.9575 C   0  0  0  0  0  0  0  0  0  0  0  0
   46.2364   -4.0856   -3.9166 N   0  0  0  0  0  0  0  0  0  0  0  0
   46.1117   -5.5263   -4.0384 C   0  0  0  0  0  0  0  0  0  0  0  0
   46.6757   -3.7020   -2.5869 C   0  0  0  0  0  0  0  0  0  0  0  0
   48.0762   -4.2144   -2.3028 C   0  0  0  0  0  0  0  0  0  0  0  0
   52.4460   -6.5324   -1.5335 O   0  0  0  0  0  0  0  0  0  0  0  0
   51.7376   -7.4276   -0.7293 C   0  0  0  0  0  0  0  0  0  0  0  0
 18 19  1  0  0  0
 19  1  1  0  0  0
  1  2  1  0  0  0
  2 13  1  0  0  0
 13 14  1  0  0  0
 14 15  1  0  0  0
 15 16  1  0  0  0
 16 17  1  0  0  0
  2  3  1  0  0  0
  3  4  2  0  0  0
  4  5  1  0  0  0
  5 20  1  0  0  0
 20 22  1  0  0  0
 22 23  2  0  0  0
 23 24  1  0  0  0
 24 25  2  0  0  0
 25 26  1  0  0  0
 26 27  2  0  0  0
 27 35  1  0  0  0
 35 36  1  0  0  0
 25 28  1  0  0  0
 28 29  1  0  0  0
 29 30  1  0  0  0
 30 31  1  0  0  0
 31 32  1  0  0  0
 31 33  1  0  0  0
 33 34  1  0  0  0
  5  6  2  0  0  0
  6  7  1  0  0  0
  7  8  2  0  0  0
  8  9  1  0  0  0
  9 10  1  0  0  0
  9 11  1  0  0  0
 11 12  2  0  0  0
 11  1  1  0  0  0
 17 13  1  0  0  0
  8  3  1  0  0  0
 27 22  1  0  0  0
 34 28  1  0  0  0
 20 21  1  0  0  0
M  END
> <minimizedAffinity>
6.33637

> <CNNscore>
0.2246379554

> <CNNaffinity>
6.8746666908

> <CNN_VS>
1.5443110466

> <CNNaffinity_variance>
0.2953033447

$$$$
[H]c1nc(N([H])c2c([H])c([H])c(N3C([H])([H])C([H])([H])N(C([H])([H])[H])C([H])([H])C3([H])[H])c([H])c2[H])nc2c1N(C([H])([H])[H])C(=O)[C@@]([H])(C([H])([H])[H])N2C1([H])C([H])([H])C([H])([H])C([H])([H])C1([H])[H]


 33 37  0  0  0  0  0  0  0  0999 V2000
   50.9775   -6.4884   -6.8021 C   0  0  0  0  0  0  0  0  0  0  0  0
   51.5896   -5.5695   -5.7567 C   0  0  0  0  0  0  0  0  0  0  0  0
   52.8994   -5.1944   -6.2123 N   0  0  0  0  0  0  0  0  0  0  0  0
   52.9729   -4.2956   -7.3381 C   0  0  0  0  0  0  0  0  0  0  0  0
   54.0583   -4.2605   -8.1198 N   0  0  0  0  0  0  0  0  0  0  0  0
   54.1522   -3.4115   -9.1998 C   0  0  0  0  0  0  0  0  0  0  0  0
   53.1009   -2.6218   -9.4284 N   0  0  0  0  0  0  0  0  0  0  0  0
   51.9742   -2.5986   -8.6881 C   0  0  0  0  0  0  0  0  0  0  0  0
   51.9132   -3.4520   -7.6253 C   0  0  0  0  0  0  0  0  0  0  0  0
   50.7527   -3.4701   -6.8129 N   0  0  0  0  0  0  0  0  0  0  0  0
   49.6502   -2.6106   -7.0890 C   0  0  0  0  0  0  0  0  0  0  0  0
   50.6946   -4.3591   -5.7099 C   0  0  0  0  0  0  0  0  0  0  0  0
   49.9282   -4.1584   -4.7197 O   0  0  0  0  0  0  0  0  0  0  0  0
   54.1255   -5.6449   -5.6335 C   0  0  0  0  0  0  0  0  0  0  0  0
   54.0044   -5.7970   -4.1320 C   0  0  0  0  0  0  0  0  0  0  0  0
   55.0596   -6.8034   -3.7973 C   0  0  0  0  0  0  0  0  0  0  0  0
   55.1548   -7.7344   -4.9880 C   0  0  0  0  0  0  0  0  0  0  0  0
   54.5567   -6.9995   -6.1531 C   0  0  0  0  0  0  0  0  0  0  0  0
   55.3209   -3.4475   -9.9827 N   0  0  0  0  0  0  0  0  0  0  0  0
   55.3334   -2.8314  -10.8727 H   0  0  0  0  0  0  0  0  0  0  0  0
   56.4873   -4.1805   -9.7761 C   0  0  0  0  0  0  0  0  0  0  0  0
   57.2892   -4.5531  -10.8627 C   0  0  0  0  0  0  0  0  0  0  0  0
   58.4325   -5.2851  -10.7376 C   0  0  0  0  0  0  0  0  0  0  0  0
   58.8640   -5.7043   -9.4964 C   0  0  0  0  0  0  0  0  0  0  0  0
   58.1002   -5.3559   -8.4096 C   0  0  0  0  0  0  0  0  0  0  0  0
   56.9228   -4.6006   -8.5546 C   0  0  0  0  0  0  0  0  0  0  0  0
   60.0628   -6.4735   -9.3453 N   0  0  0  0  0  0  0  0  0  0  0  0
   61.1157   -5.9453   -8.5380 C   0  0  0  0  0  0  0  0  0  0  0  0
   62.3831   -6.7286   -8.5866 C   0  0  0  0  0  0  0  0  0  0  0  0
   62.5012   -7.5489   -9.7739 N   0  0  0  0  0  0  0  0  0  0  0  0
   62.5324   -6.7863  -10.9822 C   0  0  0  0  0  0  0  0  0  0  0  0
   61.4083   -8.4735   -9.7969 C   0  0  0  0  0  0  0  0  0  0  0  0
   60.1200   -7.7468  -10.0310 C   0  0  0  0  0  0  0  0  0  0  0  0
  1  2  1  0  0  0
  2  3  1  0  0  0
  3 14  1  0  0  0
 14 15  1  0  0  0
 15 16  1  0  0  0
 16 17  1  0  0  0
 17 18  1  0  0  0
  3  4  1  0  0  0
  4  5  2  0  0  0
  5  6  1  0  0  0
  6 19  1  0  0  0
 19 21  1  0  0  0
 21 22  2  0  0  0
 22 23  1  0  0  0
 23 24  2  0  0  0
 24 25  1  0  0  0
 25 26  2  0  0  0
 24 27  1  0  0  0
 27 28  1  0  0  0
 28 29  1  0  0  0
 29 30  1  0  0  0
 30 31  1  0  0  0
 30 32  1  0  0  0
 32 33  1  0  0  0
  6  7  2  0  0  0
  7  8  1  0  0  0
  8  9  2  0  0  0
  9 10  1  0  0  0
 10 11  1  0  0  0
 10 12  1  0  0  0
 12 13  2  0  0  0
 12  2  1  0  0  0
 18 14  1  0  0  0
  9  4  1  0  0  0
 26 21  1  0  0  0
 33 27  1  0  0  0
 19 20  1  0  0  0
M  END
> <minimizedAffinity>
-10.38870

> <CNNscore>
0.9859055281

> <CNNaffinity>
8.0217380524

> <CNN_VS>
7.9086756706

> <CNNaffinity_variance>
0.0238307603

$$$$
[H]c1nc(N([H])c2c([H])c([H])c(N3C([H])([H])C([H])([H])N(C([H])([H])[H])C([H])([H])C3([H])[H])c([H])c2[H])nc2c1N(C([H])([H])[H])C(=O)[C@@]([H])(C([H])([H])[H])N2C1([H])C([H])([H])C([H])([H])C([H])([H])C1([H])[H]


 33 37  0  0  0  0  0  0  0  0999 V2000
   51.3754   -6.4637   -7.0496 C   0  0  0  0  0  0  0  0  0  0  0  0
   51.9319   -5.4811   -6.0313 C   0  0  0  0  0  0  0  0  0  0  0  0
   53.3291   -5.2998   -6.3118 N   0  0  0  0  0  0  0  0  0  0  0  0
   53.6716   -4.5673   -7.5064 C   0  0  0  0  0  0  0  0  0  0  0  0
   54.8561   -4.7419   -8.1037 N   0  0  0  0  0  0  0  0  0  0  0  0
   55.2060   -4.0546   -9.2444 C   0  0  0  0  0  0  0  0  0  0  0  0
   54.2997   -3.2017   -9.7262 N   0  0  0  0  0  0  0  0  0  0  0  0
   53.0875   -2.9710   -9.1827 C   0  0  0  0  0  0  0  0  0  0  0  0
   52.7719   -3.6681   -8.0531 C   0  0  0  0  0  0  0  0  0  0  0  0
   51.5111   -3.4654   -7.4397 N   0  0  0  0  0  0  0  0  0  0  0  0
   50.5696   -2.5447   -7.9842 C   0  0  0  0  0  0  0  0  0  0  0  0
   51.1882   -4.1926   -6.2661 C   0  0  0  0  0  0  0  0  0  0  0  0
   50.3143   -3.7898   -5.4403 O   0  0  0  0  0  0  0  0  0  0  0  0
   54.3959   -5.7896   -5.4973 C   0  0  0  0  0  0  0  0  0  0  0  0
   53.9832   -5.8817   -4.0435 C   0  0  0  0  0  0  0  0  0  0  0  0
   54.8980   -6.9267   -3.4870 C   0  0  0  0  0  0  0  0  0  0  0  0
   55.1659   -7.9032   -4.6132 C   0  0  0  0  0  0  0  0  0  0  0  0
   54.8421   -7.1817   -5.8897 C   0  0  0  0  0  0  0  0  0  0  0  0
   56.4643   -4.3077   -9.8215 N   0  0  0  0  0  0  0  0  0  0  0  0
   57.2358   -4.6904   -9.1658 H   0  0  0  0  0  0  0  0  0  0  0  0
   56.8705   -4.1287  -11.1419 C   0  0  0  0  0  0  0  0  0  0  0  0
   58.2337   -4.0972  -11.4634 C   0  0  0  0  0  0  0  0  0  0  0  0
   58.7038   -3.9077  -12.7290 C   0  0  0  0  0  0  0  0  0  0  0  0
   57.8305   -3.7333  -13.7822 C   0  0  0  0  0  0  0  0  0  0  0  0
   56.4865   -3.7585  -13.5011 C   0  0  0  0  0  0  0  0  0  0  0  0
   56.0167   -3.9546  -12.1901 C   0  0  0  0  0  0  0  0  0  0  0  0
   58.3057   -3.5335  -15.1186 N   0  0  0  0  0  0  0  0  0  0  0  0
   59.6876   -3.2305  -15.3136 C   0  0  0  0  0  0  0  0  0  0  0  0
   60.0477   -2.8648  -16.7132 C   0  0  0  0  0  0  0  0  0  0  0  0
   58.9183   -2.3962  -17.4887 N   0  0  0  0  0  0  0  0  0  0  0  0
   58.3383   -1.1982  -16.9682 C   0  0  0  0  0  0  0  0  0  0  0  0
   57.9401   -3.4405  -17.5417 C   0  0  0  0  0  0  0  0  0  0  0  0
   57.3377   -3.6551  -16.1876 C   0  0  0  0  0  0  0  0  0  0  0  0
  1  2  1  0  0  0
  2  3  1  0  0  0
  3 14  1  0  0  0
 14 15  1  0  0  0
 15 16  1  0  0  0
 16 17  1  0  0  0
 17 18  1  0  0  0
  3  4  1  0  0  0
  4  5  2  0  0  0
  5  6  1  0  0  0
  6 19  1  0  0  0
 19 21  1  0  0  0
 21 22  2  0  0  0
 22 23  1  0  0  0
 23 24  2  0  0  0
 24 25  1  0  0  0
 25 26  2  0  0  0
 24 27  1  0  0  0
 27 28  1  0  0  0
 28 29  1  0  0  0
 29 30  1  0  0  0
 30 31  1  0  0  0
 30 32  1  0  0  0
 32 33  1  0  0  0
  6  7  2  0  0  0
  7  8  1  0  0  0
  8  9  2  0  0  0
  9 10  1  0  0  0
 10 11  1  0  0  0
 10 12  1  0  0  0
 12 13  2  0  0  0
 12  2  1  0  0  0
 18 14  1  0  0  0
  9  4  1  0  0  0
 26 21  1  0  0  0
 33 27  1  0  0  0
 19 20  1  0  0  0
M  END
> <minimizedAffinity>
-8.83403

> <CNNscore>
0.8665151000

> <CNNaffinity>
7.4966058731

> <CNN_VS>
6.4959220886

> <CNNaffinity_variance>
0.1134513840

$$$$
[H]c1nc(N([H])c2c([H])c([H])c(N3C([H])([H])C([H])([H])N(C([H])([H])[H])C([H])([H])C3([H])[H])c([H])c2[H])nc2c1N(C([H])([H])[H])C(=O)[C@@]([H])(C([H])([H])[H])N2C1([H])C([H])([H])C([H])([H])C([H])([H])C1([H])[H]


 33 37  0  0  0  0  0  0  0  0999 V2000
   60.0718   -2.6094  -12.6844 C   0  0  0  0  0  0  0  0  0  0  0  0
   61.0941   -1.8843  -13.5452 C   0  0  0  0  0  0  0  0  0  0  0  0
   62.3547   -2.5561  -13.3924 N   0  0  0  0  0  0  0  0  0  0  0  0
   62.4809   -3.8636  -13.9884 C   0  0  0  0  0  0  0  0  0  0  0  0
   63.3759   -4.7452  -13.5281 N   0  0  0  0  0  0  0  0  0  0  0  0
   63.5152   -5.9990  -14.0802 C   0  0  0  0  0  0  0  0  0  0  0  0
   62.7085   -6.2914  -15.1024 N   0  0  0  0  0  0  0  0  0  0  0  0
   61.7838   -5.4590  -15.6219 C   0  0  0  0  0  0  0  0  0  0  0  0
   61.6712   -4.2244  -15.0520 C   0  0  0  0  0  0  0  0  0  0  0  0
   60.7156   -3.3089  -15.5578 N   0  0  0  0  0  0  0  0  0  0  0  0
   59.8722   -3.6582  -16.6519 C   0  0  0  0  0  0  0  0  0  0  0  0
   60.6027   -2.0274  -14.9616 C   0  0  0  0  0  0  0  0  0  0  0  0
   60.1121   -1.0351  -15.5802 O   0  0  0  0  0  0  0  0  0  0  0  0
   63.4843   -2.0248  -12.6973 C   0  0  0  0  0  0  0  0  0  0  0  0
   64.7833   -2.4485  -13.3496 C   0  0  0  0  0  0  0  0  0  0  0  0
   65.7452   -1.3792  -12.9376 C   0  0  0  0  0  0  0  0  0  0  0  0
   64.9411   -0.1006  -12.8281 C   0  0  0  0  0  0  0  0  0  0  0  0
   63.5043   -0.5115  -12.6803 C   0  0  0  0  0  0  0  0  0  0  0  0
   64.4684   -6.8742  -13.5273 N   0  0  0  0  0  0  0  0  0  0  0  0
   65.4015   -6.9847  -14.0646 H   0  0  0  0  0  0  0  0  0  0  0  0
   64.3810   -7.6386  -12.3660 C   0  0  0  0  0  0  0  0  0  0  0  0
   64.7186   -8.9981  -12.3883 C   0  0  0  0  0  0  0  0  0  0  0  0
   64.6399   -9.8106  -11.2964 C   0  0  0  0  0  0  0  0  0  0  0  0
   64.2108   -9.3144  -10.0831 C   0  0  0  0  0  0  0  0  0  0  0  0
   63.8715   -7.9849  -10.0271 C   0  0  0  0  0  0  0  0  0  0  0  0
   63.9577   -7.1592  -11.1623 C   0  0  0  0  0  0  0  0  0  0  0  0
   64.1221  -10.1526   -8.9250 N   0  0  0  0  0  0  0  0  0  0  0  0
   62.8964  -10.1775   -8.1925 C   0  0  0  0  0  0  0  0  0  0  0  0
   62.9589  -10.9351   -6.9102 C   0  0  0  0  0  0  0  0  0  0  0  0
   64.3047  -11.0712   -6.3935 N   0  0  0  0  0  0  0  0  0  0  0  0
   64.9119   -9.8181   -6.0719 C   0  0  0  0  0  0  0  0  0  0  0  0
   65.0932  -11.7727   -7.3610 C   0  0  0  0  0  0  0  0  0  0  0  0
   65.2968  -10.9232   -8.5774 C   0  0  0  0  0  0  0  0  0  0  0  0
  1  2  1  0  0  0
  2  3  1  0  0  0
  3 14  1  0  0  0
 14 15  1  0  0  0
 15 16  1  0  0  0
 16 17  1  0  0  0
 17 18  1  0  0  0
  3  4  1  0  0  0
  4  5  2  0  0  0
  5  6  1  0  0  0
  6 19  1  0  0  0
 19 21  1  0  0  0
 21 22  2  0  0  0
 22 23  1  0  0  0
 23 24  2  0  0  0
 24 25  1  0  0  0
 25 26  2  0  0  0
 24 27  1  0  0  0
 27 28  1  0  0  0
 28 29  1  0  0  0
 29 30  1  0  0  0
 30 31  1  0  0  0
 30 32  1  0  0  0
 32 33  1  0  0  0
  6  7  2  0  0  0
  7  8  1  0  0  0
  8  9  2  0  0  0
  9 10  1  0  0  0
 10 11  1  0  0  0
 10 12  1  0  0  0
 12 13  2  0  0  0
 12  2  1  0  0  0
 18 14  1  0  0  0
  9  4  1  0  0  0
 26 21  1  0  0  0
 33 27  1  0  0  0
 19 20  1  0  0  0
M  END
> <minimizedAffinity>
3.75472

> <CNNscore>
0.4449097812

> <CNNaffinity>
5.1899900436

> <CNN_VS>
2.3090772629

> <CNNaffinity_variance>
0.6433851719

$$$$
[H]c1nc(N([H])c2c([H])c([H])c(N3C([H])([H])C([H])([H])N(C([H])([H])[H])C([H])([H])C3([H])[H])c([H])c2[H])nc2c1N(C([H])([H])[H])C(=O)[C@@]([H])(C([H])([H])[H])N2C1([H])C([H])([H])C([H])([H])C([H])([H])C1([H])[H]


 33 37  0  0  0  0  0  0  0  0999 V2000
   65.4392  -12.7257  -12.4594 C   0  0  0  0  0  0  0  0  0  0  0  0
   63.9528  -12.5439  -12.7233 C   0  0  0  0  0  0  0  0  0  0  0  0
   63.4597  -11.5559  -11.8044 N   0  0  0  0  0  0  0  0  0  0  0  0
   63.8711  -10.1905  -12.0216 C   0  0  0  0  0  0  0  0  0  0  0  0
   63.8817   -9.3077  -11.0162 N   0  0  0  0  0  0  0  0  0  0  0  0
   64.2702   -7.9993  -11.1986 C   0  0  0  0  0  0  0  0  0  0  0  0
   64.6373   -7.6549  -12.4346 N   0  0  0  0  0  0  0  0  0  0  0  0
   64.6535   -8.4847  -13.4972 C   0  0  0  0  0  0  0  0  0  0  0  0
   64.2629   -9.7742  -13.2826 C   0  0  0  0  0  0  0  0  0  0  0  0
   64.2606  -10.6898  -14.3637 N   0  0  0  0  0  0  0  0  0  0  0  0
   64.6590  -10.2836  -15.6701 C   0  0  0  0  0  0  0  0  0  0  0  0
   63.8539  -12.0287  -14.1351 C   0  0  0  0  0  0  0  0  0  0  0  0
   63.4235  -12.7729  -15.0672 O   0  0  0  0  0  0  0  0  0  0  0  0
   62.5966  -11.8276  -10.6986 C   0  0  0  0  0  0  0  0  0  0  0  0
   61.6395  -12.9587  -11.0101 C   0  0  0  0  0  0  0  0  0  0  0  0
   61.2908  -13.5019   -9.6604 C   0  0  0  0  0  0  0  0  0  0  0  0
   62.5187  -13.3138   -8.7941 C   0  0  0  0  0  0  0  0  0  0  0  0
   63.3501  -12.2534   -9.4570 C   0  0  0  0  0  0  0  0  0  0  0  0
   64.2697   -7.1374  -10.0862 N   0  0  0  0  0  0  0  0  0  0  0  0
   64.3270   -6.0757  -10.2893 H   0  0  0  0  0  0  0  0  0  0  0  0
   64.2096   -7.4600   -8.7324 C   0  0  0  0  0  0  0  0  0  0  0  0
   63.1908   -6.9361   -7.9261 C   0  0  0  0  0  0  0  0  0  0  0  0
   63.0803   -7.1933   -6.5918 C   0  0  0  0  0  0  0  0  0  0  0  0
   63.9956   -8.0067   -5.9567 C   0  0  0  0  0  0  0  0  0  0  0  0
   65.0077   -8.5366   -6.7189 C   0  0  0  0  0  0  0  0  0  0  0  0
   65.1087   -8.2617   -8.0944 C   0  0  0  0  0  0  0  0  0  0  0  0
   63.8955   -8.2888   -4.5560 N   0  0  0  0  0  0  0  0  0  0  0  0
   63.7378   -9.6466   -4.1426 C   0  0  0  0  0  0  0  0  0  0  0  0
   63.4637   -9.8210   -2.6877 C   0  0  0  0  0  0  0  0  0  0  0  0
   62.9165   -8.6342   -2.0644 N   0  0  0  0  0  0  0  0  0  0  0  0
   61.6479   -8.2525   -2.6006 C   0  0  0  0  0  0  0  0  0  0  0  0
   63.8606   -7.5679   -2.2123 C   0  0  0  0  0  0  0  0  0  0  0  0
   63.9623   -7.1620   -3.6502 C   0  0  0  0  0  0  0  0  0  0  0  0
  1  2  1  0  0  0
  2  3  1  0  0  0
  3 14  1  0  0  0
 14 15  1  0  0  0
 15 16  1  0  0  0
 16 17  1  0  0  0
 17 18  1  0  0  0
  3  4  1  0  0  0
  4  5  2  0  0  0
  5  6  1  0  0  0
  6 19  1  0  0  0
 19 21  1  0  0  0
 21 22  2  0  0  0
 22 23  1  0  0  0
 23 24  2  0  0  0
 24 25  1  0  0  0
 25 26  2  0  0  0
 24 27  1  0  0  0
 27 28  1  0  0  0
 28 29  1  0  0  0
 29 30  1  0  0  0
 30 31  1  0  0  0
 30 32  1  0  0  0
 32 33  1  0  0  0
  6  7  2  0  0  0
  7  8  1  0  0  0
  8  9  2  0  0  0
  9 10  1  0  0  0
 10 11  1  0  0  0
 10 12  1  0  0  0
 12 13  2  0  0  0
 12  2  1  0  0  0
 18 14  1  0  0  0
  9  4  1  0  0  0
 26 21  1  0  0  0
 33 27  1  0  0  0
 19 20  1  0  0  0
M  END
> <minimizedAffinity>
-2.91896

> <CNNscore>
0.4437696636

> <CNNaffinity>
5.1086721420

> <CNN_VS>
2.2670736313

> <CNNaffinity_variance>
0.3532232344

$$$$
[H]c1nc(N([H])c2c([H])c([H])c(N3C([H])([H])C([H])([H])N(C([H])([H])[H])C([H])([H])C3([H])[H])c([H])c2[H])nc2c1N(C([H])([H])[H])C(=O)[C@@]([H])(C([H])([H])[H])N2C1([H])C([H])([H])C([H])([H])C([H])([H])C1([H])[H]


 33 37  0  0  0  0  0  0  0  0999 V2000
   57.2817   -2.0186  -14.2316 C   0  0  0  0  0  0  0  0  0  0  0  0
   57.9054   -3.1498  -15.0336 C   0  0  0  0  0  0  0  0  0  0  0  0
   59.0311   -3.6471  -14.2925 N   0  0  0  0  0  0  0  0  0  0  0  0
   58.7509   -4.3865  -13.0861 C   0  0  0  0  0  0  0  0  0  0  0  0
   59.6587   -4.4736  -12.1070 N   0  0  0  0  0  0  0  0  0  0  0  0
   59.4147   -5.1734  -10.9464 C   0  0  0  0  0  0  0  0  0  0  0  0
   58.2215   -5.7629  -10.8472 N   0  0  0  0  0  0  0  0  0  0  0  0
   57.2565   -5.7211  -11.7880 C   0  0  0  0  0  0  0  0  0  0  0  0
   57.5300   -5.0196  -12.9257 C   0  0  0  0  0  0  0  0  0  0  0  0
   56.5520   -4.9422  -13.9477 N   0  0  0  0  0  0  0  0  0  0  0  0
   55.2890   -5.5862  -13.8050 C   0  0  0  0  0  0  0  0  0  0  0  0
   56.8414   -4.2116  -15.1280 C   0  0  0  0  0  0  0  0  0  0  0  0
   56.2401   -4.4302  -16.2228 O   0  0  0  0  0  0  0  0  0  0  0  0
   60.3986   -3.4629  -14.6630 C   0  0  0  0  0  0  0  0  0  0  0  0
   61.1323   -2.6022  -13.6564 C   0  0  0  0  0  0  0  0  0  0  0  0
   62.5616   -3.0119  -13.8235 C   0  0  0  0  0  0  0  0  0  0  0  0
   62.5439   -4.4776  -14.2042 C   0  0  0  0  0  0  0  0  0  0  0  0
   61.1679   -4.7645  -14.7330 C   0  0  0  0  0  0  0  0  0  0  0  0
   60.4152   -5.2029   -9.9572 N   0  0  0  0  0  0  0  0  0  0  0  0
   60.6038   -4.2801   -9.4238 H   0  0  0  0  0  0  0  0  0  0  0  0
   61.2181   -6.2696   -9.5598 C   0  0  0  0  0  0  0  0  0  0  0  0
   61.1261   -6.7759   -8.2568 C   0  0  0  0  0  0  0  0  0  0  0  0
   61.8922   -7.8040   -7.7935 C   0  0  0  0  0  0  0  0  0  0  0  0
   62.8210   -8.4106   -8.6132 C   0  0  0  0  0  0  0  0  0  0  0  0
   62.9367   -7.9378   -9.8973 C   0  0  0  0  0  0  0  0  0  0  0  0
   62.1395   -6.8759  -10.3607 C   0  0  0  0  0  0  0  0  0  0  0  0
   63.6344   -9.4923   -8.1444 N   0  0  0  0  0  0  0  0  0  0  0  0
   65.0250   -9.4915   -8.4691 C   0  0  0  0  0  0  0  0  0  0  0  0
   65.7474  -10.7402   -8.0933 C   0  0  0  0  0  0  0  0  0  0  0  0
   64.8711  -11.8834   -7.9458 N   0  0  0  0  0  0  0  0  0  0  0  0
   64.2002  -12.2364   -9.1573 C   0  0  0  0  0  0  0  0  0  0  0  0
   63.9195  -11.5954   -6.9155 C   0  0  0  0  0  0  0  0  0  0  0  0
   62.9784  -10.5208   -7.3653 C   0  0  0  0  0  0  0  0  0  0  0  0
  1  2  1  0  0  0
  2  3  1  0  0  0
  3 14  1  0  0  0
 14 15  1  0  0  0
 15 16  1  0  0  0
 16 17  1  0  0  0
 17 18  1  0  0  0
  3  4  1  0  0  0
  4  5  2  0  0  0
  5  6  1  0  0  0
  6 19  1  0  0  0
 19 21  1  0  0  0
 21 22  2  0  0  0
 22 23  1  0  0  0
 23 24  2  0  0  0
 24 25  1  0  0  0
 25 26  2  0  0  0
 24 27  1  0  0  0
 27 28  1  0  0  0
 28 29  1  0  0  0
 29 30  1  0  0  0
 30 31  1  0  0  0
 30 32  1  0  0  0
 32 33  1  0  0  0
  6  7  2  0  0  0
  7  8  1  0  0  0
  8  9  2  0  0  0
  9 10  1  0  0  0
 10 11  1  0  0  0
 10 12  1  0  0  0
 12 13  2  0  0  0
 12  2  1  0  0  0
 18 14  1  0  0  0
  9  4  1  0  0  0
 26 21  1  0  0  0
 33 27  1  0  0  0
 19 20  1  0  0  0
M  END
> <minimizedAffinity>
7.49241

> <CNNscore>
0.4079499841

> <CNNaffinity>
5.1813797951

> <CNN_VS>
2.1137437820

> <CNNaffinity_variance>
0.5365089178

$$$$
[H]c1nc(N([H])c2c([H])c([H])c(N3C([H])([H])C([H])([H])N(C([H])([H])[H])C([H])([H])C3([H])[H])c([H])c2[H])nc2c1N(C([H])([H])[H])C(=O)[C@@]([H])(C([H])([H])[H])N2C1([H])C([H])([H])C([H])([H])C([H])([H])C1([H])[H]


 33 37  0  0  0  0  0  0  0  0999 V2000
   52.9304   -3.3848   -6.3611 C   0  0  0  0  0  0  0  0  0  0  0  0
   52.2690   -4.6282   -6.9342 C   0  0  0  0  0  0  0  0  0  0  0  0
   53.1935   -5.2370   -7.8498 N   0  0  0  0  0  0  0  0  0  0  0  0
   54.3591   -5.8715   -7.2846 C   0  0  0  0  0  0  0  0  0  0  0  0
   55.4726   -6.0332   -8.0087 N   0  0  0  0  0  0  0  0  0  0  0  0
   56.5977   -6.6357   -7.4916 C   0  0  0  0  0  0  0  0  0  0  0  0
   56.5208   -7.0519   -6.2259 N   0  0  0  0  0  0  0  0  0  0  0  0
   55.4372   -6.9255   -5.4336 C   0  0  0  0  0  0  0  0  0  0  0  0
   54.3393   -6.3241   -5.9763 C   0  0  0  0  0  0  0  0  0  0  0  0
   53.1725   -6.1646   -5.1888 N   0  0  0  0  0  0  0  0  0  0  0  0
   53.1289   -6.6232   -3.8404 C   0  0  0  0  0  0  0  0  0  0  0  0
   52.0345   -5.5388   -5.7577 C   0  0  0  0  0  0  0  0  0  0  0  0
   50.8639   -5.7270   -5.3078 O   0  0  0  0  0  0  0  0  0  0  0  0
   53.0414   -5.2588   -9.2703 C   0  0  0  0  0  0  0  0  0  0  0  0
   53.5812   -3.9936   -9.9029 C   0  0  0  0  0  0  0  0  0  0  0  0
   53.9150   -4.4167  -11.2986 C   0  0  0  0  0  0  0  0  0  0  0  0
   54.3424   -5.8672  -11.2143 C   0  0  0  0  0  0  0  0  0  0  0  0
   53.7911   -6.4001   -9.9232 C   0  0  0  0  0  0  0  0  0  0  0  0
   57.7345   -6.7525   -8.3128 N   0  0  0  0  0  0  0  0  0  0  0  0
   57.5625   -6.8343   -9.3784 H   0  0  0  0  0  0  0  0  0  0  0  0
   59.0776   -6.7833   -7.9445 C   0  0  0  0  0  0  0  0  0  0  0  0
   60.0584   -7.1386   -8.8795 C   0  0  0  0  0  0  0  0  0  0  0  0
   61.3878   -7.2079   -8.5855 C   0  0  0  0  0  0  0  0  0  0  0  0
   61.8403   -6.9220   -7.3143 C   0  0  0  0  0  0  0  0  0  0  0  0
   60.9040   -6.5703   -6.3732 C   0  0  0  0  0  0  0  0  0  0  0  0
   59.5358   -6.5036   -6.6915 C   0  0  0  0  0  0  0  0  0  0  0  0
   63.2331   -6.9889   -6.9868 N   0  0  0  0  0  0  0  0  0  0  0  0
   64.1864   -6.5970   -7.9753 C   0  0  0  0  0  0  0  0  0  0  0  0
   65.6049   -6.8699   -7.6072 C   0  0  0  0  0  0  0  0  0  0  0  0
   65.7443   -7.8995   -6.5987 N   0  0  0  0  0  0  0  0  0  0  0  0
   65.2583   -9.1737   -7.0264 C   0  0  0  0  0  0  0  0  0  0  0  0
   65.0546   -7.4744   -5.4182 C   0  0  0  0  0  0  0  0  0  0  0  0
   63.5769   -7.4549   -5.6604 C   0  0  0  0  0  0  0  0  0  0  0  0
  1  2  1  0  0  0
  2  3  1  0  0  0
  3 14  1  0  0  0
 14 15  1  0  0  0
 15 16  1  0  0  0
 16 17  1  0  0  0
 17 18  1  0  0  0
  3  4  1  0  0  0
  4  5  2  0  0  0
  5  6  1  0  0  0
  6 19  1  0  0  0
 19 21  1  0  0  0
 21 22  2  0  0  0
 22 23  1  0  0  0
 23 24  2  0  0  0
 24 25  1  0  0  0
 25 26  2  0  0  0
 24 27  1  0  0  0
 27 28  1  0  0  0
 28 29  1  0  0  0
 29 30  1  0  0  0
 30 31  1  0  0  0
 30 32  1  0  0  0
 32 33  1  0  0  0
  6  7  2  0  0  0
  7  8  1  0  0  0
  8  9  2  0  0  0
  9 10  1  0  0  0
 10 11  1  0  0  0
 10 12  1  0  0  0
 12 13  2  0  0  0
 12  2  1  0  0  0
 18 14  1  0  0  0
  9  4  1  0  0  0
 26 21  1  0  0  0
 33 27  1  0  0  0
 19 20  1  0  0  0
M  END
> <minimizedAffinity>
26.56204

> <CNNscore>
0.3968670070

> <CNNaffinity>
5.9835991859

> <CNN_VS>
2.3746931553

> <CNNaffinity_variance>
1.5639216900

$$$$
[H]c1nc(N([H])c2c([H])c([H])c(N3C([H])([H])C([H])([H])N(C([H])([H])[H])C([H])([H])C3([H])[H])c([H])c2[H])nc2c1N(C([H])([H])[H])C(=O)[C@@]([H])(C([H])([H])[H])N2C1([H])C([H])([H])C([H])([H])C([H])([H])C1([H])[H]


 33 37  0  0  0  0  0  0  0  0999 V2000
   65.7547   -3.7851  -13.5429 C   0  0  0  0  0  0  0  0  0  0  0  0
   65.4508   -5.0489  -14.3318 C   0  0  0  0  0  0  0  0  0  0  0  0
   64.8043   -5.9767  -13.4459 N   0  0  0  0  0  0  0  0  0  0  0  0
   63.4565   -5.6664  -13.0360 C   0  0  0  0  0  0  0  0  0  0  0  0
   62.9531   -6.1599  -11.8987 N   0  0  0  0  0  0  0  0  0  0  0  0
   61.6699   -5.8781  -11.4864 C   0  0  0  0  0  0  0  0  0  0  0  0
   60.9505   -5.0842  -12.2822 N   0  0  0  0  0  0  0  0  0  0  0  0
   61.3859   -4.5491  -13.4408 C   0  0  0  0  0  0  0  0  0  0  0  0
   62.6618   -4.8479  -13.8206 C   0  0  0  0  0  0  0  0  0  0  0  0
   63.1715   -4.3126  -15.0292 N   0  0  0  0  0  0  0  0  0  0  0  0
   62.3717   -3.4687  -15.8529 C   0  0  0  0  0  0  0  0  0  0  0  0
   64.4982   -4.6262  -15.4191 C   0  0  0  0  0  0  0  0  0  0  0  0
   64.8818   -4.5589  -16.6259 O   0  0  0  0  0  0  0  0  0  0  0  0
   65.3970   -7.1767  -12.9457 C   0  0  0  0  0  0  0  0  0  0  0  0
   65.7337   -7.0546  -11.4746 C   0  0  0  0  0  0  0  0  0  0  0  0
   65.7352   -8.4730  -10.9985 C   0  0  0  0  0  0  0  0  0  0  0  0
   64.6992   -9.2028  -11.8277 C   0  0  0  0  0  0  0  0  0  0  0  0
   64.4813   -8.3762  -13.0623 C   0  0  0  0  0  0  0  0  0  0  0  0
   61.2210   -6.4225  -10.2689 N   0  0  0  0  0  0  0  0  0  0  0  0
   60.1665   -6.6560  -10.1961 H   0  0  0  0  0  0  0  0  0  0  0  0
   61.9522   -6.7062   -9.1177 C   0  0  0  0  0  0  0  0  0  0  0  0
   63.1456   -6.0219   -8.8524 C   0  0  0  0  0  0  0  0  0  0  0  0
   63.9214   -6.2598   -7.7569 C   0  0  0  0  0  0  0  0  0  0  0  0
   63.5540   -7.2148   -6.8320 C   0  0  0  0  0  0  0  0  0  0  0  0
   62.3890   -7.9044   -7.0625 C   0  0  0  0  0  0  0  0  0  0  0  0
   61.5993   -7.6479   -8.1976 C   0  0  0  0  0  0  0  0  0  0  0  0
   64.3559   -7.4783   -5.6748 N   0  0  0  0  0  0  0  0  0  0  0  0
   65.0773   -8.7090   -5.6098 C   0  0  0  0  0  0  0  0  0  0  0  0
   65.7349   -8.9705   -4.2977 C   0  0  0  0  0  0  0  0  0  0  0  0
   65.1388   -8.2323   -3.2040 N   0  0  0  0  0  0  0  0  0  0  0  0
   63.7730   -8.5818   -2.9694 C   0  0  0  0  0  0  0  0  0  0  0  0
   65.2533   -6.8331   -3.4855 C   0  0  0  0  0  0  0  0  0  0  0  0
   64.3767   -6.4642   -4.6423 C   0  0  0  0  0  0  0  0  0  0  0  0
  1  2  1  0  0  0
  2  3  1  0  0  0
  3 14  1  0  0  0
 14 15  1  0  0  0
 15 16  1  0  0  0
 16 17  1  0  0  0
 17 18  1  0  0  0
  3  4  1  0  0  0
  4  5  2  0  0  0
  5  6  1  0  0  0
  6 19  1  0  0  0
 19 21  1  0  0  0
 21 22  2  0  0  0
 22 23  1  0  0  0
 23 24  2  0  0  0
 24 25  1  0  0  0
 25 26  2  0  0  0
 24 27  1  0  0  0
 27 28  1  0  0  0
 28 29  1  0  0  0
 29 30  1  0  0  0
 30 31  1  0  0  0
 30 32  1  0  0  0
 32 33  1  0  0  0
  6  7  2  0  0  0
  7  8  1  0  0  0
  8  9  2  0  0  0
  9 10  1  0  0  0
 10 11  1  0  0  0
 10 12  1  0  0  0
 12 13  2  0  0  0
 12  2  1  0  0  0
 18 14  1  0  0  0
  9  4  1  0  0  0
 26 21  1  0  0  0
 33 27  1  0  0  0
 19 20  1  0  0  0
M  END
> <minimizedAffinity>
-1.93420

> <CNNscore>
0.3889969289

> <CNNaffinity>
5.2038984299

> <CNN_VS>
2.0243005753

> <CNNaffinity_variance>
0.2155967951

$$$$
[H]c1nc(N([H])c2c([H])c([H])c(N3C([H])([H])C([H])([H])N(C([H])([H])[H])C([H])([H])C3([H])[H])c([H])c2[H])nc2c1N(C([H])([H])[H])C(=O)[C@@]([H])(C([H])([H])[H])N2C1([H])C([H])([H])C([H])([H])C([H])([H])C1([H])[H]


 33 37  0  0  0  0  0  0  0  0999 V2000
   63.6848   -2.2145  -14.1481 C   0  0  0  0  0  0  0  0  0  0  0  0
   63.2330   -3.2230  -15.1925 C   0  0  0  0  0  0  0  0  0  0  0  0
   63.6996   -4.5189  -14.7847 N   0  0  0  0  0  0  0  0  0  0  0  0
   63.0621   -5.1178  -13.6376 C   0  0  0  0  0  0  0  0  0  0  0  0
   63.6942   -6.0412  -12.9041 N   0  0  0  0  0  0  0  0  0  0  0  0
   63.1068   -6.6271  -11.8051 C   0  0  0  0  0  0  0  0  0  0  0  0
   61.8694   -6.2255  -11.5074 N   0  0  0  0  0  0  0  0  0  0  0  0
   61.1680   -5.3025  -12.1961 C   0  0  0  0  0  0  0  0  0  0  0  0
   61.7787   -4.7413  -13.2794 C   0  0  0  0  0  0  0  0  0  0  0  0
   61.0881   -3.7656  -14.0398 N   0  0  0  0  0  0  0  0  0  0  0  0
   59.7667   -3.3632  -13.6904 C   0  0  0  0  0  0  0  0  0  0  0  0
   61.7276   -3.1855  -15.1645 C   0  0  0  0  0  0  0  0  0  0  0  0
   61.0754   -2.6545  -16.1135 O   0  0  0  0  0  0  0  0  0  0  0  0
   64.7426   -5.2518  -15.4300 C   0  0  0  0  0  0  0  0  0  0  0  0
   64.2029   -6.4824  -16.1275 C   0  0  0  0  0  0  0  0  0  0  0  0
   65.2149   -6.7492  -17.1967 C   0  0  0  0  0  0  0  0  0  0  0  0
   65.7549   -5.3990  -17.6199 C   0  0  0  0  0  0  0  0  0  0  0  0
   65.4502   -4.4472  -16.4991 C   0  0  0  0  0  0  0  0  0  0  0  0
   63.8449   -7.5779  -11.0761 N   0  0  0  0  0  0  0  0  0  0  0  0
   64.9011   -7.6548  -11.3004 H   0  0  0  0  0  0  0  0  0  0  0  0
   63.4025   -8.4565  -10.0898 C   0  0  0  0  0  0  0  0  0  0  0  0
   63.8123   -8.2903   -8.7604 C   0  0  0  0  0  0  0  0  0  0  0  0
   63.4347   -9.1210   -7.7476 C   0  0  0  0  0  0  0  0  0  0  0  0
   62.6062  -10.1957   -7.9946 C   0  0  0  0  0  0  0  0  0  0  0  0
   62.1864  -10.3874   -9.2880 C   0  0  0  0  0  0  0  0  0  0  0  0
   62.5848   -9.5219  -10.3224 C   0  0  0  0  0  0  0  0  0  0  0  0
   62.1985  -11.0789   -6.9432 N   0  0  0  0  0  0  0  0  0  0  0  0
   60.9289  -11.7245   -7.0477 C   0  0  0  0  0  0  0  0  0  0  0  0
   60.5175  -12.4781   -5.8291 C   0  0  0  0  0  0  0  0  0  0  0  0
   61.1884  -12.0287   -4.6272 N   0  0  0  0  0  0  0  0  0  0  0  0
   60.8954  -10.6698   -4.2954 C   0  0  0  0  0  0  0  0  0  0  0  0
   62.5985  -12.2055   -4.8020 C   0  0  0  0  0  0  0  0  0  0  0  0
   63.1153  -11.2548   -5.8372 C   0  0  0  0  0  0  0  0  0  0  0  0
  1  2  1  0  0  0
  2  3  1  0  0  0
  3 14  1  0  0  0
 14 15  1  0  0  0
 15 16  1  0  0  0
 16 17  1  0  0  0
 17 18  1  0  0  0
  3  4  1  0  0  0
  4  5  2  0  0  0
  5  6  1  0  0  0
  6 19  1  0  0  0
 19 21  1  0  0  0
 21 22  2  0  0  0
 22 23  1  0  0  0
 23 24  2  0  0  0
 24 25  1  0  0  0
 25 26  2  0  0  0
 24 27  1  0  0  0
 27 28  1  0  0  0
 28 29  1  0  0  0
 29 30  1  0  0  0
 30 31  1  0  0  0
 30 32  1  0  0  0
 32 33  1  0  0  0
  6  7  2  0  0  0
  7  8  1  0  0  0
  8  9  2  0  0  0
  9 10  1  0  0  0
 10 11  1  0  0  0
 10 12  1  0  0  0
 12 13  2  0  0  0
 12  2  1  0  0  0
 18 14  1  0  0  0
  9  4  1  0  0  0
 26 21  1  0  0  0
 33 27  1  0  0  0
 19 20  1  0  0  0
M  END
> <minimizedAffinity>
-2.47395

> <CNNscore>
0.3658368587

> <CNNaffinity>
5.0688443184

> <CNN_VS>
1.8543701172

> <CNNaffinity_variance>
0.2397116423

$$$$
[H]c1nc(N([H])c2c([H])c([H])c(N3C([H])([H])C([H])([H])N(C([H])([H])[H])C([H])([H])C3([H])[H])c([H])c2[H])nc2c1N(C([H])([H])[H])C(=O)[C@@]([H])(C([H])([H])[H])N2C1([H])C([H])([H])C([H])([H])C([H])([H])C1([H])[H]


 33 37  0  0  0  0  0  0  0  0999 V2000
   57.3700   -2.3831  -10.5043 C   0  0  0  0  0  0  0  0  0  0  0  0
   57.8604   -3.8125  -10.6730 C   0  0  0  0  0  0  0  0  0  0  0  0
   57.5213   -4.5383   -9.4806 N   0  0  0  0  0  0  0  0  0  0  0  0
   56.1257   -4.8290   -9.2608 C   0  0  0  0  0  0  0  0  0  0  0  0
   55.6559   -5.0514   -8.0278 N   0  0  0  0  0  0  0  0  0  0  0  0
   54.3281   -5.3308   -7.7926 C   0  0  0  0  0  0  0  0  0  0  0  0
   53.5301   -5.3687   -8.8617 N   0  0  0  0  0  0  0  0  0  0  0  0
   53.9273   -5.1562  -10.1325 C   0  0  0  0  0  0  0  0  0  0  0  0
   55.2490   -4.8819  -10.3312 C   0  0  0  0  0  0  0  0  0  0  0  0
   55.7216   -4.6500  -11.6465 N   0  0  0  0  0  0  0  0  0  0  0  0
   54.8380   -4.6999  -12.7632 C   0  0  0  0  0  0  0  0  0  0  0  0
   57.0961   -4.3651  -11.8471 C   0  0  0  0  0  0  0  0  0  0  0  0
   57.6715   -4.5614  -12.9599 O   0  0  0  0  0  0  0  0  0  0  0  0
   58.4615   -4.9898   -8.5041 C   0  0  0  0  0  0  0  0  0  0  0  0
   57.8044   -5.8911   -7.4802 C   0  0  0  0  0  0  0  0  0  0  0  0
   58.9384   -6.7223   -6.9687 C   0  0  0  0  0  0  0  0  0  0  0  0
   59.8958   -6.8988   -8.1288 C   0  0  0  0  0  0  0  0  0  0  0  0
   59.5889   -5.8007   -9.1061 C   0  0  0  0  0  0  0  0  0  0  0  0
   53.9101   -5.5357   -6.4647 N   0  0  0  0  0  0  0  0  0  0  0  0
   54.6157   -6.0137   -5.7974 H   0  0  0  0  0  0  0  0  0  0  0  0
   52.6917   -5.2097   -5.8733 C   0  0  0  0  0  0  0  0  0  0  0  0
   51.8794   -4.2142   -6.4319 C   0  0  0  0  0  0  0  0  0  0  0  0
   50.6852   -3.8305   -5.8979 C   0  0  0  0  0  0  0  0  0  0  0  0
   50.2087   -4.4243   -4.7477 C   0  0  0  0  0  0  0  0  0  0  0  0
   50.9813   -5.4042   -4.1742 C   0  0  0  0  0  0  0  0  0  0  0  0
   52.2114   -5.7890   -4.7368 C   0  0  0  0  0  0  0  0  0  0  0  0
   48.9562   -4.0348   -4.1723 N   0  0  0  0  0  0  0  0  0  0  0  0
   48.6419   -4.4831   -2.8534 C   0  0  0  0  0  0  0  0  0  0  0  0
   47.2505   -4.1788   -2.4131 C   0  0  0  0  0  0  0  0  0  0  0  0
   46.3390   -3.9580   -3.5162 N   0  0  0  0  0  0  0  0  0  0  0  0
   46.1819   -5.1058   -4.3531 C   0  0  0  0  0  0  0  0  0  0  0  0
   46.8144   -2.8453   -4.2817 C   0  0  0  0  0  0  0  0  0  0  0  0
   48.0892   -3.2043   -4.9807 C   0  0  0  0  0  0  0  0  0  0  0  0
  1  2  1  0  0  0
  2  3  1  0  0  0
  3 14  1  0  0  0
 14 15  1  0  0  0
 15 16  1  0  0  0
 16 17  1  0  0  0
 17 18  1  0  0  0
  3  4  1  0  0  0
  4  5  2  0  0  0
  5  6  1  0  0  0
  6 19  1  0  0  0
 19 21  1  0  0  0
 21 22  2  0  0  0
 22 23  1  0  0  0
 23 24  2  0  0  0
 24 25  1  0  0  0
 25 26  2  0  0  0
 24 27  1  0  0  0
 27 28  1  0  0  0
 28 29  1  0  0  0
 29 30  1  0  0  0
 30 31  1  0  0  0
 30 32  1  0  0  0
 32 33  1  0  0  0
  6  7  2  0  0  0
  7  8  1  0  0  0
  8  9  2  0  0  0
  9 10  1  0  0  0
 10 11  1  0  0  0
 10 12  1  0  0  0
 12 13  2  0  0  0
 12  2  1  0  0  0
 18 14  1  0  0  0
  9  4  1  0  0  0
 26 21  1  0  0  0
 33 27  1  0  0  0
 19 20  1  0  0  0
M  END
> <minimizedAffinity>
12.17994

> <CNNscore>
0.3121888340

> <CNNaffinity>
6.3772459030

> <CNN_VS>
1.9909049273

> <CNNaffinity_variance>
0.7089210749

$$$$
[H]c1nc(N([H])c2c([H])c([H])c(N3C([H])([H])C([H])([H])N(C([H])([H])[H])C([H])([H])C3([H])[H])c([H])c2OC([H])([H])[H])nc2c1N(C([H])([H])[H])C(=O)[C@]([H])(C([H])([H])[H])N2C1([H])C([H])([H])C([H])([H])C([H])([H])C1([H])[H]


 35 39  0  0  0  0  0  0  0  0999 V2000
   54.3085   -3.5049   -9.2849 C   0  0  0  0  0  0  0  0  0  0  0  0
   53.3237   -2.6434   -9.4585 N   0  0  0  0  0  0  0  0  0  0  0  0
   52.1990   -2.5237   -8.7446 C   0  0  0  0  0  0  0  0  0  0  0  0
   52.0533   -3.4081   -7.7007 C   0  0  0  0  0  0  0  0  0  0  0  0
   50.9132   -3.4273   -6.8610 N   0  0  0  0  0  0  0  0  0  0  0  0
   49.8381   -2.4476   -7.0822 C   0  0  0  0  0  0  0  0  0  0  0  0
   50.8390   -4.3906   -5.8224 C   0  0  0  0  0  0  0  0  0  0  0  0
   50.1596   -4.1470   -4.7999 O   0  0  0  0  0  0  0  0  0  0  0  0
   51.6050   -5.6610   -6.0427 C   0  0  0  0  0  0  0  0  0  0  0  0
   51.4536   -6.5285   -4.8464 C   0  0  0  0  0  0  0  0  0  0  0  0
   52.9614   -5.2702   -6.3779 N   0  0  0  0  0  0  0  0  0  0  0  0
   53.0559   -4.3221   -7.4836 C   0  0  0  0  0  0  0  0  0  0  0  0
   54.1412   -4.3806   -8.2340 N   0  0  0  0  0  0  0  0  0  0  0  0
   54.0942   -5.7516   -5.7103 C   0  0  0  0  0  0  0  0  0  0  0  0
   54.8156   -6.9277   -6.2515 C   0  0  0  0  0  0  0  0  0  0  0  0
   55.9760   -7.0737   -5.2551 C   0  0  0  0  0  0  0  0  0  0  0  0
   56.0291   -5.7448   -4.4899 C   0  0  0  0  0  0  0  0  0  0  0  0
   55.2217   -4.8055   -5.4227 C   0  0  0  0  0  0  0  0  0  0  0  0
   55.4970   -3.6107  -10.0585 N   0  0  0  0  0  0  0  0  0  0  0  0
   55.5210   -3.0658  -11.0004 H   0  0  0  0  0  0  0  0  0  0  0  0
   57.4523   -4.7803  -10.8063 C   0  0  0  0  0  0  0  0  0  0  0  0
   58.5977   -5.5018  -10.5876 C   0  0  0  0  0  0  0  0  0  0  0  0
   58.9961   -5.8142   -9.3019 C   0  0  0  0  0  0  0  0  0  0  0  0
   58.2284   -5.3892   -8.2782 C   0  0  0  0  0  0  0  0  0  0  0  0
   57.0564   -4.6497   -8.5140 C   0  0  0  0  0  0  0  0  0  0  0  0
   56.6311   -4.3234   -9.7624 C   0  0  0  0  0  0  0  0  0  0  0  0
   60.1701   -6.5752   -9.0684 N   0  0  0  0  0  0  0  0  0  0  0  0
   61.0629   -6.3942   -7.9451 C   0  0  0  0  0  0  0  0  0  0  0  0
   62.4277   -6.0654   -8.5072 C   0  0  0  0  0  0  0  0  0  0  0  0
   62.8527   -6.9596   -9.5324 N   0  0  0  0  0  0  0  0  0  0  0  0
   63.3632   -8.2170   -9.0173 C   0  0  0  0  0  0  0  0  0  0  0  0
   61.8804   -7.1746  -10.5864 C   0  0  0  0  0  0  0  0  0  0  0  0
   60.5442   -7.6325   -9.9783 C   0  0  0  0  0  0  0  0  0  0  0  0
   57.9619   -3.7645  -12.9825 C   0  0  0  0  0  0  0  0  0  0  0  0
   57.1274   -4.5142  -12.1276 O   0  0  0  0  0  0  0  0  0  0  0  0
 34 35  1  0  0  0
 35 21  1  0  0  0
 21 22  2  0  0  0
 22 23  1  0  0  0
 23 24  2  0  0  0
 24 25  1  0  0  0
 25 26  2  0  0  0
 26 19  1  0  0  0
 19  1  1  0  0  0
  1  2  2  0  0  0
  2  3  1  0  0  0
  3  4  2  0  0  0
  4  5  1  0  0  0
  5  6  1  0  0  0
  5  7  1  0  0  0
  7  8  2  0  0  0
  7  9  1  0  0  0
  9 10  1  0  0  0
  9 11  1  0  0  0
 11 14  1  0  0  0
 14 15  1  0  0  0
 15 16  1  0  0  0
 16 17  1  0  0  0
 17 18  1  0  0  0
 11 12  1  0  0  0
 12 13  2  0  0  0
 23 27  1  0  0  0
 27 28  1  0  0  0
 28 29  1  0  0  0
 29 30  1  0  0  0
 30 31  1  0  0  0
 30 32  1  0  0  0
 32 33  1  0  0  0
 26 21  1  0  0  0
 13  1  1  0  0  0
 33 27  1  0  0  0
 12  4  1  0  0  0
 18 14  1  0  0  0
 19 20  1  0  0  0
M  END
> <minimizedAffinity>
-9.37261

> <CNNscore>
0.9856885076

> <CNNaffinity>
8.1115875244

> <CNN_VS>
7.9954986572

> <CNNaffinity_variance>
0.0122412909

$$$$
[H]c1nc(N([H])c2c([H])c([H])c(N3C([H])([H])C([H])([H])N(C([H])([H])[H])C([H])([H])C3([H])[H])c([H])c2OC([H])([H])[H])nc2c1N(C([H])([H])[H])C(=O)[C@]([H])(C([H])([H])[H])N2C1([H])C([H])([H])C([H])([H])C([H])([H])C1([H])[H]


 35 39  0  0  0  0  0  0  0  0999 V2000
   54.3866   -3.6137   -9.3344 C   0  0  0  0  0  0  0  0  0  0  0  0
   53.3483   -2.8170   -9.5054 N   0  0  0  0  0  0  0  0  0  0  0  0
   52.2400   -2.7375   -8.7608 C   0  0  0  0  0  0  0  0  0  0  0  0
   52.1773   -3.5917   -7.6841 C   0  0  0  0  0  0  0  0  0  0  0  0
   51.0655   -3.6473   -6.8089 N   0  0  0  0  0  0  0  0  0  0  0  0
   49.9287   -2.7395   -7.0285 C   0  0  0  0  0  0  0  0  0  0  0  0
   51.0785   -4.5764   -5.7371 C   0  0  0  0  0  0  0  0  0  0  0  0
   50.4164   -4.3368   -4.7024 O   0  0  0  0  0  0  0  0  0  0  0  0
   51.9109   -5.8075   -5.9392 C   0  0  0  0  0  0  0  0  0  0  0  0
   51.8459   -6.6400   -4.7106 C   0  0  0  0  0  0  0  0  0  0  0  0
   53.2316   -5.3511   -6.3296 N   0  0  0  0  0  0  0  0  0  0  0  0
   53.2377   -4.4383   -7.4685 C   0  0  0  0  0  0  0  0  0  0  0  0
   54.3020   -4.4604   -8.2503 N   0  0  0  0  0  0  0  0  0  0  0  0
   54.4099   -5.7428   -5.6823 C   0  0  0  0  0  0  0  0  0  0  0  0
   55.1894   -6.8857   -6.2139 C   0  0  0  0  0  0  0  0  0  0  0  0
   56.3828   -6.9323   -5.2473 C   0  0  0  0  0  0  0  0  0  0  0  0
   56.3722   -5.5826   -4.5176 C   0  0  0  0  0  0  0  0  0  0  0  0
   55.4826   -4.7209   -5.4505 C   0  0  0  0  0  0  0  0  0  0  0  0
   55.5559   -3.6778  -10.1410 N   0  0  0  0  0  0  0  0  0  0  0  0
   55.5390   -3.1224  -11.0770 H   0  0  0  0  0  0  0  0  0  0  0  0
   57.5833   -4.6754  -10.9441 C   0  0  0  0  0  0  0  0  0  0  0  0
   58.7579   -5.3597  -10.7645 C   0  0  0  0  0  0  0  0  0  0  0  0
   59.1423   -5.7764   -9.5044 C   0  0  0  0  0  0  0  0  0  0  0  0
   58.3316   -5.4897   -8.4659 C   0  0  0  0  0  0  0  0  0  0  0  0
   57.1298   -4.7871   -8.6614 C   0  0  0  0  0  0  0  0  0  0  0  0
   56.7171   -4.3614   -9.8839 C   0  0  0  0  0  0  0  0  0  0  0  0
   60.3471   -6.5001   -9.3131 N   0  0  0  0  0  0  0  0  0  0  0  0
   60.7768   -7.6190  -10.1225 C   0  0  0  0  0  0  0  0  0  0  0  0
   60.9302   -8.8063   -9.1985 C   0  0  0  0  0  0  0  0  0  0  0  0
   61.6946   -8.5238   -8.0292 N   0  0  0  0  0  0  0  0  0  0  0  0
   63.1260   -8.5210   -8.2701 C   0  0  0  0  0  0  0  0  0  0  0  0
   61.2765   -7.3379   -7.3073 C   0  0  0  0  0  0  0  0  0  0  0  0
   61.2589   -6.1282   -8.2567 C   0  0  0  0  0  0  0  0  0  0  0  0
   58.2372   -3.7807  -13.1348 C   0  0  0  0  0  0  0  0  0  0  0  0
   57.2754   -4.2978  -12.2421 O   0  0  0  0  0  0  0  0  0  0  0  0
 34 35  1  0  0  0
 35 21  1  0  0  0
 21 22  2  0  0  0
 22 23  1  0  0  0
 23 24  2  0  0  0
 24 25  1  0  0  0
 25 26  2  0  0  0
 26 19  1  0  0  0
 19  1  1  0  0  0
  1  2  2  0  0  0
  2  3  1  0  0  0
  3  4  2  0  0  0
  4  5  1  0  0  0
  5  6  1  0  0  0
  5  7  1  0  0  0
  7  8  2  0  0  0
  7  9  1  0  0  0
  9 10  1  0  0  0
  9 11  1  0  0  0
 11 14  1  0  0  0
 14 15  1  0  0  0
 15 16  1  0  0  0
 16 17  1  0  0  0
 17 18  1  0  0  0
 11 12  1  0  0  0
 12 13  2  0  0  0
 23 27  1  0  0  0
 27 28  1  0  0  0
 28 29  1  0  0  0
 29 30  1  0  0  0
 30 31  1  0  0  0
 30 32  1  0  0  0
 32 33  1  0  0  0
 26 21  1  0  0  0
 13  1  1  0  0  0
 33 27  1  0  0  0
 12  4  1  0  0  0
 18 14  1  0  0  0
 19 20  1  0  0  0
M  END
> <minimizedAffinity>
-8.88314

> <CNNscore>
0.9754014611

> <CNNaffinity>
8.0436992645

> <CNN_VS>
7.8458361626

> <CNNaffinity_variance>
0.0139964428

$$$$
[H]c1nc(N([H])c2c([H])c([H])c(N3C([H])([H])C([H])([H])N(C([H])([H])[H])C([H])([H])C3([H])[H])c([H])c2OC([H])([H])[H])nc2c1N(C([H])([H])[H])C(=O)[C@]([H])(C([H])([H])[H])N2C1([H])C([H])([H])C([H])([H])C([H])([H])C1([H])[H]


 35 39  0  0  0  0  0  0  0  0999 V2000
   54.0490   -3.3313   -9.3105 C   0  0  0  0  0  0  0  0  0  0  0  0
   53.0373   -2.4928   -9.4351 N   0  0  0  0  0  0  0  0  0  0  0  0
   51.9270   -2.4259   -8.6924 C   0  0  0  0  0  0  0  0  0  0  0  0
   51.8300   -3.3450   -7.6731 C   0  0  0  0  0  0  0  0  0  0  0  0
   50.7110   -3.4212   -6.8087 N   0  0  0  0  0  0  0  0  0  0  0  0
   49.6047   -2.4657   -6.9752 C   0  0  0  0  0  0  0  0  0  0  0  0
   50.6875   -4.4170   -5.7988 C   0  0  0  0  0  0  0  0  0  0  0  0
   50.0260   -4.2233   -4.7541 O   0  0  0  0  0  0  0  0  0  0  0  0
   51.4823   -5.6584   -6.0753 C   0  0  0  0  0  0  0  0  0  0  0  0
   51.3828   -6.5653   -4.9031 C   0  0  0  0  0  0  0  0  0  0  0  0
   52.8193   -5.2200   -6.4291 N   0  0  0  0  0  0  0  0  0  0  0  0
   52.8619   -4.2369   -7.5071 C   0  0  0  0  0  0  0  0  0  0  0  0
   53.9304   -4.2425   -8.2834 N   0  0  0  0  0  0  0  0  0  0  0  0
   53.9802   -5.6896   -5.8026 C   0  0  0  0  0  0  0  0  0  0  0  0
   54.0624   -5.6887   -4.3228 C   0  0  0  0  0  0  0  0  0  0  0  0
   55.4491   -6.3050   -4.0821 C   0  0  0  0  0  0  0  0  0  0  0  0
   55.8452   -6.9559   -5.4139 C   0  0  0  0  0  0  0  0  0  0  0  0
   54.4778   -7.0642   -6.1369 C   0  0  0  0  0  0  0  0  0  0  0  0
   55.2213   -3.3807  -10.1138 N   0  0  0  0  0  0  0  0  0  0  0  0
   55.2434   -2.7379  -10.9919 H   0  0  0  0  0  0  0  0  0  0  0  0
   56.8444   -4.3173   -8.6175 C   0  0  0  0  0  0  0  0  0  0  0  0
   57.9614   -5.0647   -8.3456 C   0  0  0  0  0  0  0  0  0  0  0  0
   58.6510   -5.6931   -9.3648 C   0  0  0  0  0  0  0  0  0  0  0  0
   58.1929   -5.5490  -10.6247 C   0  0  0  0  0  0  0  0  0  0  0  0
   57.0464   -4.7808  -10.8919 C   0  0  0  0  0  0  0  0  0  0  0  0
   56.3418   -4.1474   -9.9181 C   0  0  0  0  0  0  0  0  0  0  0  0
   59.8173   -6.4534   -9.0935 N   0  0  0  0  0  0  0  0  0  0  0  0
   60.6512   -6.2987   -7.9220 C   0  0  0  0  0  0  0  0  0  0  0  0
   62.0401   -5.9461   -8.4052 C   0  0  0  0  0  0  0  0  0  0  0  0
   62.5226   -6.8088   -9.4321 N   0  0  0  0  0  0  0  0  0  0  0  0
   63.0158   -8.0771   -8.9268 C   0  0  0  0  0  0  0  0  0  0  0  0
   61.6062   -6.9999  -10.5393 C   0  0  0  0  0  0  0  0  0  0  0  0
   60.2445   -7.4826  -10.0123 C   0  0  0  0  0  0  0  0  0  0  0  0
   56.8356   -3.5805   -6.2756 C   0  0  0  0  0  0  0  0  0  0  0  0
   56.2163   -3.7207   -7.5350 O   0  0  0  0  0  0  0  0  0  0  0  0
 34 35  1  0  0  0
 35 21  1  0  0  0
 21 22  2  0  0  0
 22 23  1  0  0  0
 23 24  2  0  0  0
 24 25  1  0  0  0
 25 26  2  0  0  0
 26 19  1  0  0  0
 19  1  1  0  0  0
  1  2  2  0  0  0
  2  3  1  0  0  0
  3  4  2  0  0  0
  4  5  1  0  0  0
  5  6  1  0  0  0
  5  7  1  0  0  0
  7  8  2  0  0  0
  7  9  1  0  0  0
  9 10  1  0  0  0
  9 11  1  0  0  0
 11 14  1  0  0  0
 14 15  1  0  0  0
 15 16  1  0  0  0
 16 17  1  0  0  0
 17 18  1  0  0  0
 11 12  1  0  0  0
 12 13  2  0  0  0
 23 27  1  0  0  0
 27 28  1  0  0  0
 28 29  1  0  0  0
 29 30  1  0  0  0
 30 31  1  0  0  0
 30 32  1  0  0  0
 32 33  1  0  0  0
 26 21  1  0  0  0
 13  1  1  0  0  0
 33 27  1  0  0  0
 12  4  1  0  0  0
 18 14  1  0  0  0
 19 20  1  0  0  0
M  END
> <minimizedAffinity>
-8.37992

> <CNNscore>
0.9682907462

> <CNNaffinity>
8.0313911438

> <CNN_VS>
7.7767219543

> <CNNaffinity_variance>
0.0214543939

$$$$
[H]c1nc(N([H])c2c([H])c([H])c(N3C([H])([H])C([H])([H])N(C([H])([H])[H])C([H])([H])C3([H])[H])c([H])c2OC([H])([H])[H])nc2c1N(C([H])([H])[H])C(=O)[C@]([H])(C([H])([H])[H])N2C1([H])C([H])([H])C([H])([H])C([H])([H])C1([H])[H]


 35 39  0  0  0  0  0  0  0  0999 V2000
   54.7799   -4.3048   -9.1358 C   0  0  0  0  0  0  0  0  0  0  0  0
   54.0755   -3.2424   -9.4779 N   0  0  0  0  0  0  0  0  0  0  0  0
   52.9382   -2.7978   -8.9321 C   0  0  0  0  0  0  0  0  0  0  0  0
   52.4441   -3.5407   -7.8848 C   0  0  0  0  0  0  0  0  0  0  0  0
   51.2411   -3.2175   -7.2114 N   0  0  0  0  0  0  0  0  0  0  0  0
   50.4860   -2.0219   -7.6176 C   0  0  0  0  0  0  0  0  0  0  0  0
   50.7961   -4.0547   -6.1563 C   0  0  0  0  0  0  0  0  0  0  0  0
   50.0789   -3.5776   -5.2483 O   0  0  0  0  0  0  0  0  0  0  0  0
   51.2358   -5.4872   -6.2184 C   0  0  0  0  0  0  0  0  0  0  0  0
   50.7215   -6.2014   -5.0218 C   0  0  0  0  0  0  0  0  0  0  0  0
   52.6778   -5.4679   -6.3772 N   0  0  0  0  0  0  0  0  0  0  0  0
   53.1468   -4.6553   -7.4952 C   0  0  0  0  0  0  0  0  0  0  0  0
   54.2663   -5.0336   -8.0849 N   0  0  0  0  0  0  0  0  0  0  0  0
   53.5591   -6.1638   -5.5405 C   0  0  0  0  0  0  0  0  0  0  0  0
   54.5642   -7.0756   -6.1360 C   0  0  0  0  0  0  0  0  0  0  0  0
   55.3152   -7.5751   -4.8922 C   0  0  0  0  0  0  0  0  0  0  0  0
   54.9331   -6.6058   -3.7658 C   0  0  0  0  0  0  0  0  0  0  0  0
   54.3892   -5.3902   -4.5600 C   0  0  0  0  0  0  0  0  0  0  0  0
   55.9893   -4.7561   -9.7323 N   0  0  0  0  0  0  0  0  0  0  0  0
   56.5765   -5.4784   -9.1681 H   0  0  0  0  0  0  0  0  0  0  0  0
   57.9071   -4.4206  -11.1322 C   0  0  0  0  0  0  0  0  0  0  0  0
   58.5048   -4.0643  -12.3138 C   0  0  0  0  0  0  0  0  0  0  0  0
   57.7425   -3.6514  -13.3898 C   0  0  0  0  0  0  0  0  0  0  0  0
   56.4030   -3.6114  -13.2411 C   0  0  0  0  0  0  0  0  0  0  0  0
   55.8008   -3.9794  -12.0253 C   0  0  0  0  0  0  0  0  0  0  0  0
   56.5154   -4.3898  -10.9450 C   0  0  0  0  0  0  0  0  0  0  0  0
   58.3544   -3.2645  -14.6095 N   0  0  0  0  0  0  0  0  0  0  0  0
   57.6619   -3.1119  -15.8700 C   0  0  0  0  0  0  0  0  0  0  0  0
   58.3043   -4.0664  -16.8514 C   0  0  0  0  0  0  0  0  0  0  0  0
   59.7267   -3.9814  -16.8815 N   0  0  0  0  0  0  0  0  0  0  0  0
   60.2147   -2.8529  -17.6532 C   0  0  0  0  0  0  0  0  0  0  0  0
   60.3626   -4.0480  -15.5802 C   0  0  0  0  0  0  0  0  0  0  0  0
   59.7685   -2.9740  -14.6536 C   0  0  0  0  0  0  0  0  0  0  0  0
   59.1759   -6.1546   -9.9444 C   0  0  0  0  0  0  0  0  0  0  0  0
   58.7484   -4.8202  -10.1052 O   0  0  0  0  0  0  0  0  0  0  0  0
 34 35  1  0  0  0
 35 21  1  0  0  0
 21 22  2  0  0  0
 22 23  1  0  0  0
 23 24  2  0  0  0
 24 25  1  0  0  0
 25 26  2  0  0  0
 26 19  1  0  0  0
 19  1  1  0  0  0
  1  2  2  0  0  0
  2  3  1  0  0  0
  3  4  2  0  0  0
  4  5  1  0  0  0
  5  6  1  0  0  0
  5  7  1  0  0  0
  7  8  2  0  0  0
  7  9  1  0  0  0
  9 10  1  0  0  0
  9 11  1  0  0  0
 11 14  1  0  0  0
 14 15  1  0  0  0
 15 16  1  0  0  0
 16 17  1  0  0  0
 17 18  1  0  0  0
 11 12  1  0  0  0
 12 13  2  0  0  0
 23 27  1  0  0  0
 27 28  1  0  0  0
 28 29  1  0  0  0
 29 30  1  0  0  0
 30 31  1  0  0  0
 30 32  1  0  0  0
 32 33  1  0  0  0
 26 21  1  0  0  0
 13  1  1  0  0  0
 33 27  1  0  0  0
 12  4  1  0  0  0
 18 14  1  0  0  0
 19 20  1  0  0  0
M  END
> <minimizedAffinity>
-8.25241

> <CNNscore>
0.7869032621

> <CNNaffinity>
7.6076683998

> <CNN_VS>
5.9864993095

> <CNNaffinity_variance>
0.0803871527

$$$$
[H]c1nc(N([H])c2c([H])c([H])c(N3C([H])([H])C([H])([H])N(C([H])([H])[H])C([H])([H])C3([H])[H])c([H])c2OC([H])([H])[H])nc2c1N(C([H])([H])[H])C(=O)[C@]([H])(C([H])([H])[H])N2C1([H])C([H])([H])C([H])([H])C([H])([H])C1([H])[H]


 35 39  0  0  0  0  0  0  0  0999 V2000
   54.5531   -4.3832   -8.2530 C   0  0  0  0  0  0  0  0  0  0  0  0
   53.3087   -3.9583   -8.3669 N   0  0  0  0  0  0  0  0  0  0  0  0
   52.2959   -4.1377   -7.5121 C   0  0  0  0  0  0  0  0  0  0  0  0
   52.5899   -4.8529   -6.3741 C   0  0  0  0  0  0  0  0  0  0  0  0
   51.6263   -5.1478   -5.3792 N   0  0  0  0  0  0  0  0  0  0  0  0
   50.2503   -4.6522   -5.5387 C   0  0  0  0  0  0  0  0  0  0  0  0
   52.0150   -5.9117   -4.2490 C   0  0  0  0  0  0  0  0  0  0  0  0
   51.3991   -5.7747   -3.1680 O   0  0  0  0  0  0  0  0  0  0  0  0
   53.1680   -6.8496   -4.4494 C   0  0  0  0  0  0  0  0  0  0  0  0
   53.4658   -7.5289   -3.1623 C   0  0  0  0  0  0  0  0  0  0  0  0
   54.2454   -6.0610   -5.0170 N   0  0  0  0  0  0  0  0  0  0  0  0
   53.8744   -5.3139   -6.2147 C   0  0  0  0  0  0  0  0  0  0  0  0
   54.8247   -5.0971   -7.1059 N   0  0  0  0  0  0  0  0  0  0  0  0
   55.5363   -6.0099   -4.4769 C   0  0  0  0  0  0  0  0  0  0  0  0
   55.7656   -5.2935   -3.2000 C   0  0  0  0  0  0  0  0  0  0  0  0
   57.2680   -5.5222   -2.9736 C   0  0  0  0  0  0  0  0  0  0  0  0
   57.6555   -6.6667   -3.9194 C   0  0  0  0  0  0  0  0  0  0  0  0
   56.2755   -7.2941   -4.2455 C   0  0  0  0  0  0  0  0  0  0  0  0
   55.6139   -4.1774   -9.1773 N   0  0  0  0  0  0  0  0  0  0  0  0
   55.4125   -3.5161  -10.0181 H   0  0  0  0  0  0  0  0  0  0  0  0
   57.5665   -4.9366  -10.3441 C   0  0  0  0  0  0  0  0  0  0  0  0
   58.8270   -5.4746  -10.3870 C   0  0  0  0  0  0  0  0  0  0  0  0
   59.4797   -5.8281   -9.2215 C   0  0  0  0  0  0  0  0  0  0  0  0
   58.8420   -5.6276   -8.0506 C   0  0  0  0  0  0  0  0  0  0  0  0
   57.5499   -5.0748   -8.0183 C   0  0  0  0  0  0  0  0  0  0  0  0
   56.8753   -4.7153   -9.1415 C   0  0  0  0  0  0  0  0  0  0  0  0
   60.7765   -6.4015   -9.2588 N   0  0  0  0  0  0  0  0  0  0  0  0
   61.4646   -6.8123  -10.4628 C   0  0  0  0  0  0  0  0  0  0  0  0
   61.7564   -8.2901  -10.3288 C   0  0  0  0  0  0  0  0  0  0  0  0
   62.3616   -8.6415   -9.0872 N   0  0  0  0  0  0  0  0  0  0  0  0
   63.7834   -8.3525   -9.0435 C   0  0  0  0  0  0  0  0  0  0  0  0
   61.6798   -8.1252   -7.9164 C   0  0  0  0  0  0  0  0  0  0  0  0
   61.5191   -6.6005   -8.0361 C   0  0  0  0  0  0  0  0  0  0  0  0
   57.3962   -3.5051  -12.3314 C   0  0  0  0  0  0  0  0  0  0  0  0
   56.9863   -4.6132  -11.5611 O   0  0  0  0  0  0  0  0  0  0  0  0
 34 35  1  0  0  0
 35 21  1  0  0  0
 21 22  2  0  0  0
 22 23  1  0  0  0
 23 24  2  0  0  0
 24 25  1  0  0  0
 25 26  2  0  0  0
 26 19  1  0  0  0
 19  1  1  0  0  0
  1  2  2  0  0  0
  2  3  1  0  0  0
  3  4  2  0  0  0
  4  5  1  0  0  0
  5  6  1  0  0  0
  5  7  1  0  0  0
  7  8  2  0  0  0
  7  9  1  0  0  0
  9 10  1  0  0  0
  9 11  1  0  0  0
 11 14  1  0  0  0
 14 15  1  0  0  0
 15 16  1  0  0  0
 16 17  1  0  0  0
 17 18  1  0  0  0
 11 12  1  0  0  0
 12 13  2  0  0  0
 23 27  1  0  0  0
 27 28  1  0  0  0
 28 29  1  0  0  0
 29 30  1  0  0  0
 30 31  1  0  0  0
 30 32  1  0  0  0
 32 33  1  0  0  0
 26 21  1  0  0  0
 13  1  1  0  0  0
 33 27  1  0  0  0
 12  4  1  0  0  0
 18 14  1  0  0  0
 19 20  1  0  0  0
M  END
> <minimizedAffinity>
-7.58374

> <CNNscore>
0.6071926951

> <CNNaffinity>
7.3101844788

> <CNN_VS>
4.4386906624

> <CNNaffinity_variance>
0.1810201406

$$$$
[H]c1nc(N([H])c2c([H])c([H])c(N3C([H])([H])C([H])([H])N(C([H])([H])[H])C([H])([H])C3([H])[H])c([H])c2OC([H])([H])[H])nc2c1N(C([H])([H])[H])C(=O)[C@]([H])(C([H])([H])[H])N2C1([H])C([H])([H])C([H])([H])C([H])([H])C1([H])[H]


 35 39  0  0  0  0  0  0  0  0999 V2000
   56.6108   -4.2878  -11.6809 C   0  0  0  0  0  0  0  0  0  0  0  0
   55.9325   -3.1707  -11.8649 N   0  0  0  0  0  0  0  0  0  0  0  0
   55.5362   -2.6291  -13.0219 C   0  0  0  0  0  0  0  0  0  0  0  0
   55.8782   -3.3244  -14.1588 C   0  0  0  0  0  0  0  0  0  0  0  0
   55.5522   -2.8774  -15.4623 N   0  0  0  0  0  0  0  0  0  0  0  0
   54.7903   -1.6296  -15.6272 C   0  0  0  0  0  0  0  0  0  0  0  0
   55.9660   -3.6487  -16.5785 C   0  0  0  0  0  0  0  0  0  0  0  0
   55.3141   -3.5923  -17.6455 O   0  0  0  0  0  0  0  0  0  0  0  0
   57.1887   -4.4945  -16.3812 C   0  0  0  0  0  0  0  0  0  0  0  0
   57.4490   -5.2627  -17.6256 C   0  0  0  0  0  0  0  0  0  0  0  0
   56.9555   -5.2811  -15.1847 N   0  0  0  0  0  0  0  0  0  0  0  0
   56.5844   -4.4940  -14.0129 C   0  0  0  0  0  0  0  0  0  0  0  0
   56.9424   -4.9674  -12.8331 N   0  0  0  0  0  0  0  0  0  0  0  0
   57.0731   -6.6757  -15.1387 C   0  0  0  0  0  0  0  0  0  0  0  0
   56.1725   -7.4555  -14.2571 C   0  0  0  0  0  0  0  0  0  0  0  0
   56.6154   -8.8977  -14.5477 C   0  0  0  0  0  0  0  0  0  0  0  0
   57.4347   -8.8220  -15.8428 C   0  0  0  0  0  0  0  0  0  0  0  0
   56.9959   -7.4513  -16.4198 C   0  0  0  0  0  0  0  0  0  0  0  0
   57.0194   -4.8440  -10.4376 N   0  0  0  0  0  0  0  0  0  0  0  0
   58.0770   -5.0760  -10.3263 H   0  0  0  0  0  0  0  0  0  0  0  0
   56.8291   -5.6709   -8.1948 C   0  0  0  0  0  0  0  0  0  0  0  0
   56.1110   -5.9852   -7.0696 C   0  0  0  0  0  0  0  0  0  0  0  0
   54.7458   -5.7761   -7.0268 C   0  0  0  0  0  0  0  0  0  0  0  0
   54.1483   -5.2566   -8.1182 C   0  0  0  0  0  0  0  0  0  0  0  0
   54.8944   -4.9376   -9.2661 C   0  0  0  0  0  0  0  0  0  0  0  0
   56.2371   -5.1289   -9.3474 C   0  0  0  0  0  0  0  0  0  0  0  0
   53.9935   -6.1151   -5.8731 N   0  0  0  0  0  0  0  0  0  0  0  0
   52.5499   -6.0867   -5.7897 C   0  0  0  0  0  0  0  0  0  0  0  0
   52.1848   -5.1200   -4.6856 C   0  0  0  0  0  0  0  0  0  0  0  0
   52.8975   -5.3450   -3.4720 N   0  0  0  0  0  0  0  0  0  0  0  0
   52.3620   -6.4454   -2.6914 C   0  0  0  0  0  0  0  0  0  0  0  0
   54.3347   -5.4564   -3.6284 C   0  0  0  0  0  0  0  0  0  0  0  0
   54.6639   -6.5416   -4.6671 C   0  0  0  0  0  0  0  0  0  0  0  0
   59.1114   -5.2749   -9.0084 C   0  0  0  0  0  0  0  0  0  0  0  0
   58.1931   -5.9155   -8.1507 O   0  0  0  0  0  0  0  0  0  0  0  0
 34 35  1  0  0  0
 35 21  1  0  0  0
 21 22  2  0  0  0
 22 23  1  0  0  0
 23 24  2  0  0  0
 24 25  1  0  0  0
 25 26  2  0  0  0
 26 19  1  0  0  0
 19  1  1  0  0  0
  1  2  2  0  0  0
  2  3  1  0  0  0
  3  4  2  0  0  0
  4  5  1  0  0  0
  5  6  1  0  0  0
  5  7  1  0  0  0
  7  8  2  0  0  0
  7  9  1  0  0  0
  9 10  1  0  0  0
  9 11  1  0  0  0
 11 14  1  0  0  0
 14 15  1  0  0  0
 15 16  1  0  0  0
 16 17  1  0  0  0
 17 18  1  0  0  0
 11 12  1  0  0  0
 12 13  2  0  0  0
 23 27  1  0  0  0
 27 28  1  0  0  0
 28 29  1  0  0  0
 29 30  1  0  0  0
 30 31  1  0  0  0
 30 32  1  0  0  0
 32 33  1  0  0  0
 26 21  1  0  0  0
 13  1  1  0  0  0
 33 27  1  0  0  0
 12  4  1  0  0  0
 18 14  1  0  0  0
 19 20  1  0  0  0
M  END
> <minimizedAffinity>
12.14843

> <CNNscore>
0.4597875178

> <CNNaffinity>
6.3950362206

> <CNN_VS>
2.9403579235

> <CNNaffinity_variance>
0.5144690275

$$$$
[H]c1nc(N([H])c2c([H])c([H])c(N3C([H])([H])C([H])([H])N(C([H])([H])[H])C([H])([H])C3([H])[H])c([H])c2OC([H])([H])[H])nc2c1N(C([H])([H])[H])C(=O)[C@]([H])(C([H])([H])[H])N2C1([H])C([H])([H])C([H])([H])C([H])([H])C1([H])[H]


 35 39  0  0  0  0  0  0  0  0999 V2000
   55.5528   -4.7110   -6.7177 C   0  0  0  0  0  0  0  0  0  0  0  0
   56.5322   -5.4416   -6.2189 N   0  0  0  0  0  0  0  0  0  0  0  0
   56.4666   -6.3448   -5.2346 C   0  0  0  0  0  0  0  0  0  0  0  0
   55.2240   -6.5344   -4.6753 C   0  0  0  0  0  0  0  0  0  0  0  0
   54.9881   -7.4386   -3.6113 N   0  0  0  0  0  0  0  0  0  0  0  0
   56.1042   -8.2399   -3.0851 C   0  0  0  0  0  0  0  0  0  0  0  0
   53.6771   -7.5520   -3.0816 C   0  0  0  0  0  0  0  0  0  0  0  0
   53.3191   -8.6218   -2.5395 O   0  0  0  0  0  0  0  0  0  0  0  0
   52.8012   -6.3424   -3.2196 C   0  0  0  0  0  0  0  0  0  0  0  0
   51.4616   -6.6509   -2.6567 C   0  0  0  0  0  0  0  0  0  0  0  0
   52.8322   -5.9704   -4.6216 N   0  0  0  0  0  0  0  0  0  0  0  0
   54.1752   -5.7944   -5.1654 C   0  0  0  0  0  0  0  0  0  0  0  0
   54.3175   -4.9174   -6.1426 N   0  0  0  0  0  0  0  0  0  0  0  0
   51.6831   -5.7900   -5.4013 C   0  0  0  0  0  0  0  0  0  0  0  0
   51.1848   -4.4185   -5.6605 C   0  0  0  0  0  0  0  0  0  0  0  0
   49.9698   -4.6878   -6.5615 C   0  0  0  0  0  0  0  0  0  0  0  0
   50.1322   -6.1342   -7.0472 C   0  0  0  0  0  0  0  0  0  0  0  0
   51.6350   -6.3981   -6.7713 C   0  0  0  0  0  0  0  0  0  0  0  0
   55.6484   -3.7567   -7.7677 N   0  0  0  0  0  0  0  0  0  0  0  0
   55.3758   -2.7309   -7.5265 H   0  0  0  0  0  0  0  0  0  0  0  0
   55.1984   -3.5918  -10.1172 C   0  0  0  0  0  0  0  0  0  0  0  0
   55.5257   -3.7780  -11.4358 C   0  0  0  0  0  0  0  0  0  0  0  0
   56.7296   -4.3593  -11.7850 C   0  0  0  0  0  0  0  0  0  0  0  0
   57.5651   -4.7334  -10.7951 C   0  0  0  0  0  0  0  0  0  0  0  0
   57.2195   -4.5372   -9.4467 C   0  0  0  0  0  0  0  0  0  0  0  0
   56.0459   -3.9703   -9.0631 C   0  0  0  0  0  0  0  0  0  0  0  0
   57.0677   -4.5714  -13.1461 N   0  0  0  0  0  0  0  0  0  0  0  0
   58.2332   -4.0229  -13.8037 C   0  0  0  0  0  0  0  0  0  0  0  0
   57.7397   -3.1758  -14.9552 C   0  0  0  0  0  0  0  0  0  0  0  0
   56.7837   -3.8366  -15.7803 N   0  0  0  0  0  0  0  0  0  0  0  0
   57.3854   -4.7675  -16.7175 C   0  0  0  0  0  0  0  0  0  0  0  0
   55.6841   -4.4472  -15.0591 C   0  0  0  0  0  0  0  0  0  0  0  0
   56.2311   -5.3997  -13.9827 C   0  0  0  0  0  0  0  0  0  0  0  0
   52.8655   -3.7282   -9.3644 C   0  0  0  0  0  0  0  0  0  0  0  0
   53.9700   -3.0033   -9.8583 O   0  0  0  0  0  0  0  0  0  0  0  0
 34 35  1  0  0  0
 35 21  1  0  0  0
 21 22  2  0  0  0
 22 23  1  0  0  0
 23 24  2  0  0  0
 24 25  1  0  0  0
 25 26  2  0  0  0
 26 19  1  0  0  0
 19  1  1  0  0  0
  1  2  2  0  0  0
  2  3  1  0  0  0
  3  4  2  0  0  0
  4  5  1  0  0  0
  5  6  1  0  0  0
  5  7  1  0  0  0
  7  8  2  0  0  0
  7  9  1  0  0  0
  9 10  1  0  0  0
  9 11  1  0  0  0
 11 14  1  0  0  0
 14 15  1  0  0  0
 15 16  1  0  0  0
 16 17  1  0  0  0
 17 18  1  0  0  0
 11 12  1  0  0  0
 12 13  2  0  0  0
 23 27  1  0  0  0
 27 28  1  0  0  0
 28 29  1  0  0  0
 29 30  1  0  0  0
 30 31  1  0  0  0
 30 32  1  0  0  0
 32 33  1  0  0  0
 26 21  1  0  0  0
 13  1  1  0  0  0
 33 27  1  0  0  0
 12  4  1  0  0  0
 18 14  1  0  0  0
 19 20  1  0  0  0
M  END
> <minimizedAffinity>
-7.88663

> <CNNscore>
0.3952841163

> <CNNaffinity>
7.4081969261

> <CNN_VS>
2.9283425808

> <CNNaffinity_variance>
0.0945790187

$$$$
[H]c1nc(N([H])c2c([H])c([H])c(N3C([H])([H])C([H])([H])N(C([H])([H])[H])C([H])([H])C3([H])[H])c([H])c2OC([H])([H])[H])nc2c1N(C([H])([H])[H])C(=O)[C@]([H])(C([H])([H])[H])N2C1([H])C([H])([H])C([H])([H])C([H])([H])C1([H])[H]


 35 39  0  0  0  0  0  0  0  0999 V2000
   56.9880   -5.2659   -6.8830 C   0  0  0  0  0  0  0  0  0  0  0  0
   57.9949   -5.6663   -6.1295 N   0  0  0  0  0  0  0  0  0  0  0  0
   59.2078   -6.0704   -6.5227 C   0  0  0  0  0  0  0  0  0  0  0  0
   59.4311   -6.0666   -7.8803 C   0  0  0  0  0  0  0  0  0  0  0  0
   60.6535   -6.4838   -8.4609 N   0  0  0  0  0  0  0  0  0  0  0  0
   61.7552   -6.9185   -7.5880 C   0  0  0  0  0  0  0  0  0  0  0  0
   60.7861   -6.4676   -9.8731 C   0  0  0  0  0  0  0  0  0  0  0  0
   61.9197   -6.3350  -10.3866 O   0  0  0  0  0  0  0  0  0  0  0  0
   59.5169   -6.6154  -10.6583 C   0  0  0  0  0  0  0  0  0  0  0  0
   59.8341   -6.5314  -12.1070 C   0  0  0  0  0  0  0  0  0  0  0  0
   58.5994   -5.6138  -10.1486 N   0  0  0  0  0  0  0  0  0  0  0  0
   58.4093   -5.6560   -8.7020 C   0  0  0  0  0  0  0  0  0  0  0  0
   57.2341   -5.2703   -8.2389 N   0  0  0  0  0  0  0  0  0  0  0  0
   57.9425   -4.6800  -10.9594 C   0  0  0  0  0  0  0  0  0  0  0  0
   56.7549   -3.9653  -10.4348 C   0  0  0  0  0  0  0  0  0  0  0  0
   56.3962   -3.0422  -11.6095 C   0  0  0  0  0  0  0  0  0  0  0  0
   57.6340   -3.0325  -12.5162 C   0  0  0  0  0  0  0  0  0  0  0  0
   58.7357   -3.5579  -11.5599 C   0  0  0  0  0  0  0  0  0  0  0  0
   55.7062   -4.8389   -6.4393 N   0  0  0  0  0  0  0  0  0  0  0  0
   55.3169   -3.9193   -6.8723 H   0  0  0  0  0  0  0  0  0  0  0  0
   53.5098   -5.5332   -5.7731 C   0  0  0  0  0  0  0  0  0  0  0  0
   52.6314   -6.1232   -4.9009 C   0  0  0  0  0  0  0  0  0  0  0  0
   53.0807   -6.6689   -3.7136 C   0  0  0  0  0  0  0  0  0  0  0  0
   54.4001   -6.6033   -3.4436 C   0  0  0  0  0  0  0  0  0  0  0  0
   55.2917   -5.9965   -4.3453 C   0  0  0  0  0  0  0  0  0  0  0  0
   54.8890   -5.4485   -5.5215 C   0  0  0  0  0  0  0  0  0  0  0  0
   52.1760   -7.2651   -2.7982 N   0  0  0  0  0  0  0  0  0  0  0  0
   50.7348   -7.1908   -2.8931 C   0  0  0  0  0  0  0  0  0  0  0  0
   50.2364   -6.5349   -1.6249 C   0  0  0  0  0  0  0  0  0  0  0  0
   50.7767   -7.1073   -0.4367 N   0  0  0  0  0  0  0  0  0  0  0  0
   50.1277   -8.3483   -0.0550 C   0  0  0  0  0  0  0  0  0  0  0  0
   52.2204   -7.2419   -0.4346 C   0  0  0  0  0  0  0  0  0  0  0  0
   52.6730   -8.0275   -1.6768 C   0  0  0  0  0  0  0  0  0  0  0  0
   52.0040   -5.6918   -7.7057 C   0  0  0  0  0  0  0  0  0  0  0  0
   52.9719   -5.0101   -6.9390 O   0  0  0  0  0  0  0  0  0  0  0  0
 34 35  1  0  0  0
 35 21  1  0  0  0
 21 22  2  0  0  0
 22 23  1  0  0  0
 23 24  2  0  0  0
 24 25  1  0  0  0
 25 26  2  0  0  0
 26 19  1  0  0  0
 19  1  1  0  0  0
  1  2  2  0  0  0
  2  3  1  0  0  0
  3  4  2  0  0  0
  4  5  1  0  0  0
  5  6  1  0  0  0
  5  7  1  0  0  0
  7  8  2  0  0  0
  7  9  1  0  0  0
  9 10  1  0  0  0
  9 11  1  0  0  0
 11 14  1  0  0  0
 14 15  1  0  0  0
 15 16  1  0  0  0
 16 17  1  0  0  0
 17 18  1  0  0  0
 11 12  1  0  0  0
 12 13  2  0  0  0
 23 27  1  0  0  0
 27 28  1  0  0  0
 28 29  1  0  0  0
 29 30  1  0  0  0
 30 31  1  0  0  0
 30 32  1  0  0  0
 32 33  1  0  0  0
 26 21  1  0  0  0
 13  1  1  0  0  0
 33 27  1  0  0  0
 12  4  1  0  0  0
 18 14  1  0  0  0
 19 20  1  0  0  0
M  END
> <minimizedAffinity>
8.47031

> <CNNscore>
0.3831412792

> <CNNaffinity>
6.5810165405

> <CNN_VS>
2.5214591026

> <CNNaffinity_variance>
0.9640388489

$$$$
[H]c1nc(N([H])c2c([H])c([H])c(N3C([H])([H])C([H])([H])N(C([H])([H])[H])C([H])([H])C3([H])[H])c([H])c2OC([H])([H])[H])nc2c1N(C([H])([H])[H])C(=O)[C@]([H])(C([H])([H])[H])N2C1([H])C([H])([H])C([H])([H])C([H])([H])C1([H])[H]


 35 39  0  0  0  0  0  0  0  0999 V2000
   53.3574   -5.4252   -6.3218 C   0  0  0  0  0  0  0  0  0  0  0  0
   53.0553   -4.5235   -7.2370 N   0  0  0  0  0  0  0  0  0  0  0  0
   51.9971   -3.7062   -7.2699 C   0  0  0  0  0  0  0  0  0  0  0  0
   51.1168   -3.8209   -6.2188 C   0  0  0  0  0  0  0  0  0  0  0  0
   49.9376   -3.0439   -6.1135 N   0  0  0  0  0  0  0  0  0  0  0  0
   49.6373   -2.0447   -7.1508 C   0  0  0  0  0  0  0  0  0  0  0  0
   49.0762   -3.2463   -5.0049 C   0  0  0  0  0  0  0  0  0  0  0  0
   48.3483   -2.3089   -4.6075 O   0  0  0  0  0  0  0  0  0  0  0  0
   49.1101   -4.6099   -4.3813 C   0  0  0  0  0  0  0  0  0  0  0  0
   48.1884   -4.6301   -3.2165 C   0  0  0  0  0  0  0  0  0  0  0  0
   50.5033   -4.8965   -4.0955 N   0  0  0  0  0  0  0  0  0  0  0  0
   51.3934   -4.7473   -5.2426 C   0  0  0  0  0  0  0  0  0  0  0  0
   52.4620   -5.5226   -5.2787 N   0  0  0  0  0  0  0  0  0  0  0  0
   50.9719   -5.2853   -2.8345 C   0  0  0  0  0  0  0  0  0  0  0  0
   50.9056   -6.7120   -2.4392 C   0  0  0  0  0  0  0  0  0  0  0  0
   51.5438   -6.6837   -1.0418 C   0  0  0  0  0  0  0  0  0  0  0  0
   52.2641   -5.3322   -0.9474 C   0  0  0  0  0  0  0  0  0  0  0  0
   52.3720   -4.9217   -2.4387 C   0  0  0  0  0  0  0  0  0  0  0  0
   54.4919   -6.2824   -6.3091 N   0  0  0  0  0  0  0  0  0  0  0  0
   54.4252   -7.1777   -5.6936 H   0  0  0  0  0  0  0  0  0  0  0  0
   56.8815   -6.4766   -6.3590 C   0  0  0  0  0  0  0  0  0  0  0  0
   58.1020   -6.3379   -6.9685 C   0  0  0  0  0  0  0  0  0  0  0  0
   58.1931   -5.8292   -8.2500 C   0  0  0  0  0  0  0  0  0  0  0  0
   57.0521   -5.4773   -8.8763 C   0  0  0  0  0  0  0  0  0  0  0  0
   55.8062   -5.6243   -8.2421 C   0  0  0  0  0  0  0  0  0  0  0  0
   55.6752   -6.1195   -6.9836 C   0  0  0  0  0  0  0  0  0  0  0  0
   59.4532   -5.6662   -8.8805 N   0  0  0  0  0  0  0  0  0  0  0  0
   59.6498   -5.1283  -10.2085 C   0  0  0  0  0  0  0  0  0  0  0  0
   60.3487   -6.1934  -11.0233 C   0  0  0  0  0  0  0  0  0  0  0  0
   61.4905   -6.7489  -10.3760 N   0  0  0  0  0  0  0  0  0  0  0  0
   62.6661   -5.9023  -10.4666 C   0  0  0  0  0  0  0  0  0  0  0  0
   61.2575   -7.1879   -9.0139 C   0  0  0  0  0  0  0  0  0  0  0  0
   60.6660   -6.0336   -8.1876 C   0  0  0  0  0  0  0  0  0  0  0  0
   57.0514   -6.1878   -3.9269 C   0  0  0  0  0  0  0  0  0  0  0  0
   56.8838   -6.9933   -5.0724 O   0  0  0  0  0  0  0  0  0  0  0  0
 34 35  1  0  0  0
 35 21  1  0  0  0
 21 22  2  0  0  0
 22 23  1  0  0  0
 23 24  2  0  0  0
 24 25  1  0  0  0
 25 26  2  0  0  0
 26 19  1  0  0  0
 19  1  1  0  0  0
  1  2  2  0  0  0
  2  3  1  0  0  0
  3  4  2  0  0  0
  4  5  1  0  0  0
  5  6  1  0  0  0
  5  7  1  0  0  0
  7  8  2  0  0  0
  7  9  1  0  0  0
  9 10  1  0  0  0
  9 11  1  0  0  0
 11 14  1  0  0  0
 14 15  1  0  0  0
 15 16  1  0  0  0
 16 17  1  0  0  0
 17 18  1  0  0  0
 11 12  1  0  0  0
 12 13  2  0  0  0
 23 27  1  0  0  0
 27 28  1  0  0  0
 28 29  1  0  0  0
 29 30  1  0  0  0
 30 31  1  0  0  0
 30 32  1  0  0  0
 32 33  1  0  0  0
 26 21  1  0  0  0
 13  1  1  0  0  0
 33 27  1  0  0  0
 12  4  1  0  0  0
 18 14  1  0  0  0
 19 20  1  0  0  0
M  END
> <minimizedAffinity>
-0.78222

> <CNNscore>
0.3803580701

> <CNNaffinity>
6.9868102074

> <CNN_VS>
2.6574895382

> <CNNaffinity_variance>
0.5484596491

$$$$
[H]c1nc(N([H])c2c([H])c([H])c(N3C([H])([H])C([H])([H])N(C([H])([H])[H])C([H])([H])C3([H])[H])c([H])c2OC([H])([H])[H])nc2c1C([H])([H])C([H])([H])c1c(C(=O)N([H])[H])nn(C([H])([H])[H])c1-2


 36 40  0  0  0  0  0  0  0  0999 V2000
   53.9657   -3.4264   -9.1278 C   0  0  0  0  0  0  0  0  0  0  0  0
   52.8894   -2.6935   -9.3762 N   0  0  0  0  0  0  0  0  0  0  0  0
   51.7729   -2.6745   -8.6369 C   0  0  0  0  0  0  0  0  0  0  0  0
   51.7662   -3.4989   -7.5234 C   0  0  0  0  0  0  0  0  0  0  0  0
   50.5562   -3.4980   -6.6989 C   0  0  0  0  0  0  0  0  0  0  0  0
   50.5832   -4.3811   -5.5138 C   0  0  0  0  0  0  0  0  0  0  0  0
   51.7843   -5.1707   -5.2802 C   0  0  0  0  0  0  0  0  0  0  0  0
   52.0877   -6.0824   -4.2623 C   0  0  0  0  0  0  0  0  0  0  0  0
   53.3078   -6.5286   -4.5013 N   0  0  0  0  0  0  0  0  0  0  0  0
   53.8194   -5.9940   -5.5726 N   0  0  0  0  0  0  0  0  0  0  0  0
   55.1193   -6.2133   -6.1721 C   0  0  0  0  0  0  0  0  0  0  0  0
   52.8757   -5.1443   -6.0666 C   0  0  0  0  0  0  0  0  0  0  0  0
   52.8675   -4.2667   -7.2448 C   0  0  0  0  0  0  0  0  0  0  0  0
   53.9687   -4.2569   -8.0124 N   0  0  0  0  0  0  0  0  0  0  0  0
   51.1995   -6.4385   -3.1721 C   0  0  0  0  0  0  0  0  0  0  0  0
   51.4873   -7.5889   -2.3890 N   0  0  0  0  0  0  0  0  0  0  0  0
   50.1809   -5.7696   -2.8892 O   0  0  0  0  0  0  0  0  0  0  0  0
   52.4075   -7.6333   -1.9015 H   0  0  0  0  0  0  0  0  0  0  0  0
   50.8144   -8.3787   -2.2893 H   0  0  0  0  0  0  0  0  0  0  0  0
   55.1302   -3.4301   -9.9207 N   0  0  0  0  0  0  0  0  0  0  0  0
   55.1325   -2.7971  -10.8007 H   0  0  0  0  0  0  0  0  0  0  0  0
   57.0261   -4.5926  -10.8450 C   0  0  0  0  0  0  0  0  0  0  0  0
   58.1739   -5.3006  -10.6872 C   0  0  0  0  0  0  0  0  0  0  0  0
   58.6846   -5.6223   -9.4511 C   0  0  0  0  0  0  0  0  0  0  0  0
   57.9974   -5.2054   -8.3406 C   0  0  0  0  0  0  0  0  0  0  0  0
   56.8207   -4.4799   -8.4804 C   0  0  0  0  0  0  0  0  0  0  0  0
   56.3108   -4.1585   -9.7190 C   0  0  0  0  0  0  0  0  0  0  0  0
   59.8874   -6.3665   -9.3584 N   0  0  0  0  0  0  0  0  0  0  0  0
   60.9338   -5.9337   -8.4446 C   0  0  0  0  0  0  0  0  0  0  0  0
   62.2759   -6.5493   -8.8617 C   0  0  0  0  0  0  0  0  0  0  0  0
   62.2066   -7.9736   -8.8066 N   0  0  0  0  0  0  0  0  0  0  0  0
   62.2496   -8.3507   -7.3848 C   0  0  0  0  0  0  0  0  0  0  0  0
   61.0175   -8.5370   -9.3524 C   0  0  0  0  0  0  0  0  0  0  0  0
   60.1567   -7.5569  -10.1240 C   0  0  0  0  0  0  0  0  0  0  0  0
   57.4309   -3.9056  -13.1044 C   0  0  0  0  0  0  0  0  0  0  0  0
   56.5369   -4.2841  -12.0871 O   0  0  0  0  0  0  0  0  0  0  0  0
 35 36  1  0  0  0
 36 22  1  0  0  0
 22 23  2  0  0  0
 23 24  1  0  0  0
 24 25  2  0  0  0
 25 26  1  0  0  0
 26 27  2  0  0  0
 27 20  1  0  0  0
 20  1  1  0  0  0
  1  2  2  0  0  0
  2  3  1  0  0  0
  3  4  2  0  0  0
  4  5  1  0  0  0
  5  6  1  0  0  0
  6  7  1  0  0  0
  7  8  1  0  0  0
  8  9  2  0  0  0
  9 10  1  0  0  0
 10 11  1  0  0  0
 10 12  1  0  0  0
 12 13  1  0  0  0
 13 14  2  0  0  0
  8 15  1  0  0  0
 15 16  1  0  0  0
 15 17  2  0  0  0
 24 28  1  0  0  0
 28 29  1  0  0  0
 29 30  1  0  0  0
 30 31  1  0  0  0
 31 32  1  0  0  0
 31 33  1  0  0  0
 33 34  1  0  0  0
 27 22  1  0  0  0
 14  1  1  0  0  0
 34 28  1  0  0  0
 13  4  1  0  0  0
 12  7  2  0  0  0
 20 21  1  0  0  0
 16 18  1  0  0  0
 16 19  1  0  0  0
M  END
> <minimizedAffinity>
-10.01007

> <CNNscore>
0.9563121200

> <CNNaffinity>
7.8448076248

> <CNN_VS>
7.5020847321

> <CNNaffinity_variance>
0.1136569604

$$$$
[H]c1nc(N([H])c2c([H])c([H])c(N3C([H])([H])C([H])([H])N(C([H])([H])[H])C([H])([H])C3([H])[H])c([H])c2OC([H])([H])[H])nc2c1C([H])([H])C([H])([H])c1c(C(=O)N([H])[H])nn(C([H])([H])[H])c1-2


 36 40  0  0  0  0  0  0  0  0999 V2000
   54.0040   -3.4190   -9.1401 C   0  0  0  0  0  0  0  0  0  0  0  0
   52.9429   -2.6629   -9.3840 N   0  0  0  0  0  0  0  0  0  0  0  0
   51.8266   -2.6263   -8.6451 C   0  0  0  0  0  0  0  0  0  0  0  0
   51.8024   -3.4580   -7.5374 C   0  0  0  0  0  0  0  0  0  0  0  0
   50.5921   -3.4384   -6.7135 C   0  0  0  0  0  0  0  0  0  0  0  0
   50.6005   -4.3300   -5.5345 C   0  0  0  0  0  0  0  0  0  0  0  0
   51.7852   -5.1453   -5.3057 C   0  0  0  0  0  0  0  0  0  0  0  0
   52.0695   -6.0700   -4.2940 C   0  0  0  0  0  0  0  0  0  0  0  0
   53.2804   -6.5392   -4.5354 N   0  0  0  0  0  0  0  0  0  0  0  0
   53.8035   -6.0077   -5.6028 N   0  0  0  0  0  0  0  0  0  0  0  0
   55.0990   -6.2490   -6.2031 C   0  0  0  0  0  0  0  0  0  0  0  0
   52.8774   -5.1356   -6.0914 C   0  0  0  0  0  0  0  0  0  0  0  0
   52.8878   -4.2499   -7.2636 C   0  0  0  0  0  0  0  0  0  0  0  0
   53.9895   -4.2571   -8.0305 N   0  0  0  0  0  0  0  0  0  0  0  0
   51.1735   -6.4155   -3.2068 C   0  0  0  0  0  0  0  0  0  0  0  0
   51.4623   -7.5512   -2.4028 N   0  0  0  0  0  0  0  0  0  0  0  0
   50.1473   -5.7500   -2.9442 O   0  0  0  0  0  0  0  0  0  0  0  0
   52.3781   -7.5809   -1.9059 H   0  0  0  0  0  0  0  0  0  0  0  0
   50.7944   -8.3444   -2.2969 H   0  0  0  0  0  0  0  0  0  0  0  0
   55.1687   -3.4409   -9.9324 N   0  0  0  0  0  0  0  0  0  0  0  0
   55.1757   -2.8193  -10.8204 H   0  0  0  0  0  0  0  0  0  0  0  0
   57.0739   -4.6009  -10.8406 C   0  0  0  0  0  0  0  0  0  0  0  0
   58.2173   -5.3138  -10.6733 C   0  0  0  0  0  0  0  0  0  0  0  0
   58.7099   -5.6480   -9.4332 C   0  0  0  0  0  0  0  0  0  0  0  0
   58.0085   -5.2389   -8.3286 C   0  0  0  0  0  0  0  0  0  0  0  0
   56.8360   -4.5085   -8.4782 C   0  0  0  0  0  0  0  0  0  0  0  0
   56.3442   -4.1746   -9.7208 C   0  0  0  0  0  0  0  0  0  0  0  0
   59.9090   -6.3966   -9.3305 N   0  0  0  0  0  0  0  0  0  0  0  0
   60.0433   -7.6463  -10.0636 C   0  0  0  0  0  0  0  0  0  0  0  0
   61.1515   -8.5015   -9.4352 C   0  0  0  0  0  0  0  0  0  0  0  0
   62.4025   -7.8178   -9.5005 N   0  0  0  0  0  0  0  0  0  0  0  0
   62.8612   -7.8947  -10.8967 C   0  0  0  0  0  0  0  0  0  0  0  0
   62.3494   -6.4372   -9.1536 C   0  0  0  0  0  0  0  0  0  0  0  0
   61.0393   -5.9975   -8.5312 C   0  0  0  0  0  0  0  0  0  0  0  0
   57.5123   -3.8985  -13.0891 C   0  0  0  0  0  0  0  0  0  0  0  0
   56.6029   -4.2798  -12.0866 O   0  0  0  0  0  0  0  0  0  0  0  0
 35 36  1  0  0  0
 36 22  1  0  0  0
 22 23  2  0  0  0
 23 24  1  0  0  0
 24 25  2  0  0  0
 25 26  1  0  0  0
 26 27  2  0  0  0
 27 20  1  0  0  0
 20  1  1  0  0  0
  1  2  2  0  0  0
  2  3  1  0  0  0
  3  4  2  0  0  0
  4  5  1  0  0  0
  5  6  1  0  0  0
  6  7  1  0  0  0
  7  8  1  0  0  0
  8  9  2  0  0  0
  9 10  1  0  0  0
 10 11  1  0  0  0
 10 12  1  0  0  0
 12 13  1  0  0  0
 13 14  2  0  0  0
  8 15  1  0  0  0
 15 16  1  0  0  0
 15 17  2  0  0  0
 24 28  1  0  0  0
 28 29  1  0  0  0
 29 30  1  0  0  0
 30 31  1  0  0  0
 31 32  1  0  0  0
 31 33  1  0  0  0
 33 34  1  0  0  0
 27 22  1  0  0  0
 14  1  1  0  0  0
 34 28  1  0  0  0
 13  4  1  0  0  0
 12  7  2  0  0  0
 20 21  1  0  0  0
 16 18  1  0  0  0
 16 19  1  0  0  0
M  END
> <minimizedAffinity>
-10.10361

> <CNNscore>
0.9511174560

> <CNNaffinity>
7.8056030273

> <CNN_VS>
7.4240450859

> <CNNaffinity_variance>
0.1274986416

$$$$
[H]c1nc(N([H])c2c([H])c([H])c(N3C([H])([H])C([H])([H])N(C([H])([H])[H])C([H])([H])C3([H])[H])c([H])c2OC([H])([H])[H])nc2c1C([H])([H])C([H])([H])c1c(C(=O)N([H])[H])nn(C([H])([H])[H])c1-2


 36 40  0  0  0  0  0  0  0  0999 V2000
   53.6517   -3.3371   -9.2832 C   0  0  0  0  0  0  0  0  0  0  0  0
   52.6247   -2.5088   -9.4113 N   0  0  0  0  0  0  0  0  0  0  0  0
   51.5721   -2.4404   -8.5862 C   0  0  0  0  0  0  0  0  0  0  0  0
   51.5797   -3.3199   -7.5157 C   0  0  0  0  0  0  0  0  0  0  0  0
   50.4389   -3.2668   -6.5994 C   0  0  0  0  0  0  0  0  0  0  0  0
   50.4806   -4.2113   -5.4630 C   0  0  0  0  0  0  0  0  0  0  0  0
   51.6257   -5.1053   -5.3622 C   0  0  0  0  0  0  0  0  0  0  0  0
   51.9272   -6.0914   -4.4154 C   0  0  0  0  0  0  0  0  0  0  0  0
   53.0844   -6.6198   -4.7706 N   0  0  0  0  0  0  0  0  0  0  0  0
   53.5575   -6.0712   -5.8525 N   0  0  0  0  0  0  0  0  0  0  0  0
   54.7861   -6.3608   -6.5622 C   0  0  0  0  0  0  0  0  0  0  0  0
   52.6537   -5.1239   -6.2301 C   0  0  0  0  0  0  0  0  0  0  0  0
   52.6309   -4.1867   -7.3613 C   0  0  0  0  0  0  0  0  0  0  0  0
   53.6687   -4.2236   -8.2119 N   0  0  0  0  0  0  0  0  0  0  0  0
   51.0962   -6.4333   -3.2767 C   0  0  0  0  0  0  0  0  0  0  0  0
   51.4727   -7.5215   -2.4439 N   0  0  0  0  0  0  0  0  0  0  0  0
   50.0520   -5.8050   -2.9938 O   0  0  0  0  0  0  0  0  0  0  0  0
   52.4094   -7.4896   -1.9879 H   0  0  0  0  0  0  0  0  0  0  0  0
   50.8481   -8.3393   -2.2779 H   0  0  0  0  0  0  0  0  0  0  0  0
   54.7493   -3.3912  -10.1647 N   0  0  0  0  0  0  0  0  0  0  0  0
   54.6838   -2.8051  -11.0742 H   0  0  0  0  0  0  0  0  0  0  0  0
   56.5619   -4.1307   -8.7618 C   0  0  0  0  0  0  0  0  0  0  0  0
   57.7163   -4.8232   -8.5844 C   0  0  0  0  0  0  0  0  0  0  0  0
   58.3223   -5.5294   -9.5974 C   0  0  0  0  0  0  0  0  0  0  0  0
   57.7269   -5.5262  -10.8322 C   0  0  0  0  0  0  0  0  0  0  0  0
   56.5453   -4.8237  -11.0347 C   0  0  0  0  0  0  0  0  0  0  0  0
   55.9397   -4.1170  -10.0191 C   0  0  0  0  0  0  0  0  0  0  0  0
   59.5285   -6.2291   -9.3437 N   0  0  0  0  0  0  0  0  0  0  0  0
   59.8967   -7.3586  -10.1839 C   0  0  0  0  0  0  0  0  0  0  0  0
   60.9174   -8.2403   -9.4523 C   0  0  0  0  0  0  0  0  0  0  0  0
   62.1030   -7.4974   -9.1714 N   0  0  0  0  0  0  0  0  0  0  0  0
   62.8344   -7.3602  -10.4411 C   0  0  0  0  0  0  0  0  0  0  0  0
   61.8815   -6.1815   -8.6728 C   0  0  0  0  0  0  0  0  0  0  0  0
   60.4452   -5.8922   -8.2845 C   0  0  0  0  0  0  0  0  0  0  0  0
   56.5418   -3.4977   -6.4510 C   0  0  0  0  0  0  0  0  0  0  0  0
   55.9767   -3.4343   -7.7371 O   0  0  0  0  0  0  0  0  0  0  0  0
 35 36  1  0  0  0
 36 22  1  0  0  0
 22 23  2  0  0  0
 23 24  1  0  0  0
 24 25  2  0  0  0
 25 26  1  0  0  0
 26 27  2  0  0  0
 27 20  1  0  0  0
 20  1  1  0  0  0
  1  2  2  0  0  0
  2  3  1  0  0  0
  3  4  2  0  0  0
  4  5  1  0  0  0
  5  6  1  0  0  0
  6  7  1  0  0  0
  7  8  1  0  0  0
  8  9  2  0  0  0
  9 10  1  0  0  0
 10 11  1  0  0  0
 10 12  1  0  0  0
 12 13  1  0  0  0
 13 14  2  0  0  0
  8 15  1  0  0  0
 15 16  1  0  0  0
 15 17  2  0  0  0
 24 28  1  0  0  0
 28 29  1  0  0  0
 29 30  1  0  0  0
 30 31  1  0  0  0
 31 32  1  0  0  0
 31 33  1  0  0  0
 33 34  1  0  0  0
 27 22  1  0  0  0
 14  1  1  0  0  0
 34 28  1  0  0  0
 13  4  1  0  0  0
 12  7  2  0  0  0
 20 21  1  0  0  0
 16 18  1  0  0  0
 16 19  1  0  0  0
M  END
> <minimizedAffinity>
-8.83954

> <CNNscore>
0.9061151147

> <CNNaffinity>
7.6442222595

> <CNN_VS>
6.9265451431

> <CNNaffinity_variance>
0.1024720222

$$$$
[H]c1nc(N([H])c2c([H])c([H])c(N3C([H])([H])C([H])([H])N(C([H])([H])[H])C([H])([H])C3([H])[H])c([H])c2OC([H])([H])[H])nc2c1C([H])([H])C([H])([H])c1c(C(=O)N([H])[H])nn(C([H])([H])[H])c1-2


 36 40  0  0  0  0  0  0  0  0999 V2000
   53.3291   -4.5863   -7.7202 C   0  0  0  0  0  0  0  0  0  0  0  0
   53.1198   -3.5877   -8.5664 N   0  0  0  0  0  0  0  0  0  0  0  0
   52.0735   -2.7520   -8.5408 C   0  0  0  0  0  0  0  0  0  0  0  0
   51.1450   -2.9699   -7.5358 C   0  0  0  0  0  0  0  0  0  0  0  0
   49.9903   -2.0709   -7.4869 C   0  0  0  0  0  0  0  0  0  0  0  0
   49.0224   -2.3237   -6.3986 C   0  0  0  0  0  0  0  0  0  0  0  0
   49.2898   -3.4327   -5.4935 C   0  0  0  0  0  0  0  0  0  0  0  0
   48.5603   -3.9051   -4.3961 C   0  0  0  0  0  0  0  0  0  0  0  0
   49.2290   -4.9345   -3.9084 N   0  0  0  0  0  0  0  0  0  0  0  0
   50.3169   -5.1712   -4.5837 N   0  0  0  0  0  0  0  0  0  0  0  0
   51.3159   -6.1988   -4.3764 C   0  0  0  0  0  0  0  0  0  0  0  0
   50.3640   -4.2386   -5.5760 C   0  0  0  0  0  0  0  0  0  0  0  0
   51.3391   -3.9966   -6.6480 C   0  0  0  0  0  0  0  0  0  0  0  0
   52.4030   -4.8130   -6.7079 N   0  0  0  0  0  0  0  0  0  0  0  0
   47.3118   -3.3397   -3.9212 C   0  0  0  0  0  0  0  0  0  0  0  0
   46.3843   -4.1756   -3.2424 N   0  0  0  0  0  0  0  0  0  0  0  0
   47.0137   -2.1358   -4.0853 O   0  0  0  0  0  0  0  0  0  0  0  0
   46.7055   -4.6674   -2.3814 H   0  0  0  0  0  0  0  0  0  0  0  0
   45.4059   -4.3094   -3.5759 H   0  0  0  0  0  0  0  0  0  0  0  0
   54.4384   -5.4536   -7.7665 N   0  0  0  0  0  0  0  0  0  0  0  0
   54.8346   -5.6994   -8.7451 H   0  0  0  0  0  0  0  0  0  0  0  0
   56.4454   -5.6875   -6.4560 C   0  0  0  0  0  0  0  0  0  0  0  0
   57.1287   -6.2483   -5.4254 C   0  0  0  0  0  0  0  0  0  0  0  0
   56.5686   -7.1788   -4.5812 C   0  0  0  0  0  0  0  0  0  0  0  0
   55.2663   -7.5470   -4.7997 C   0  0  0  0  0  0  0  0  0  0  0  0
   54.5495   -6.9850   -5.8490 C   0  0  0  0  0  0  0  0  0  0  0  0
   55.1120   -6.0533   -6.6934 C   0  0  0  0  0  0  0  0  0  0  0  0
   57.3400   -7.7261   -3.5257 N   0  0  0  0  0  0  0  0  0  0  0  0
   58.7894   -7.6006   -3.5523 C   0  0  0  0  0  0  0  0  0  0  0  0
   59.4199   -8.6552   -2.6334 C   0  0  0  0  0  0  0  0  0  0  0  0
   58.9874   -8.4620   -1.2872 N   0  0  0  0  0  0  0  0  0  0  0  0
   59.7104   -7.2900   -0.7681 C   0  0  0  0  0  0  0  0  0  0  0  0
   57.5962   -8.1947   -1.1375 C   0  0  0  0  0  0  0  0  0  0  0  0
   56.7770   -8.4162   -2.3932 C   0  0  0  0  0  0  0  0  0  0  0  0
   57.9342   -5.1919   -8.2667 C   0  0  0  0  0  0  0  0  0  0  0  0
   57.0250   -4.7623   -7.2838 O   0  0  0  0  0  0  0  0  0  0  0  0
 35 36  1  0  0  0
 36 22  1  0  0  0
 22 23  2  0  0  0
 23 24  1  0  0  0
 24 25  2  0  0  0
 25 26  1  0  0  0
 26 27  2  0  0  0
 27 20  1  0  0  0
 20  1  1  0  0  0
  1  2  2  0  0  0
  2  3  1  0  0  0
  3  4  2  0  0  0
  4  5  1  0  0  0
  5  6  1  0  0  0
  6  7  1  0  0  0
  7  8  1  0  0  0
  8  9  2  0  0  0
  9 10  1  0  0  0
 10 11  1  0  0  0
 10 12  1  0  0  0
 12 13  1  0  0  0
 13 14  2  0  0  0
  8 15  1  0  0  0
 15 16  1  0  0  0
 15 17  2  0  0  0
 24 28  1  0  0  0
 28 29  1  0  0  0
 29 30  1  0  0  0
 30 31  1  0  0  0
 31 32  1  0  0  0
 31 33  1  0  0  0
 33 34  1  0  0  0
 27 22  1  0  0  0
 14  1  1  0  0  0
 34 28  1  0  0  0
 13  4  1  0  0  0
 12  7  2  0  0  0
 20 21  1  0  0  0
 16 18  1  0  0  0
 16 19  1  0  0  0
M  END
> <minimizedAffinity>
-9.27939

> <CNNscore>
0.8065488935

> <CNNaffinity>
7.6530175209

> <CNN_VS>
6.1725330353

> <CNNaffinity_variance>
0.1090299934

$$$$
[H]c1nc(N([H])c2c([H])c([H])c(N3C([H])([H])C([H])([H])N(C([H])([H])[H])C([H])([H])C3([H])[H])c([H])c2OC([H])([H])[H])nc2c1C([H])([H])C([H])([H])c1c(C(=O)N([H])[H])nn(C([H])([H])[H])c1-2


 36 40  0  0  0  0  0  0  0  0999 V2000
   54.3590   -4.2156   -9.1055 C   0  0  0  0  0  0  0  0  0  0  0  0
   53.7266   -3.2207   -9.7117 N   0  0  0  0  0  0  0  0  0  0  0  0
   52.5858   -2.6554   -9.2962 C   0  0  0  0  0  0  0  0  0  0  0  0
   52.0397   -3.1713   -8.1321 C   0  0  0  0  0  0  0  0  0  0  0  0
   50.7911   -2.5719   -7.6572 C   0  0  0  0  0  0  0  0  0  0  0  0
   50.2383   -3.1381   -6.4086 C   0  0  0  0  0  0  0  0  0  0  0  0
   50.9636   -4.2318   -5.7774 C   0  0  0  0  0  0  0  0  0  0  0  0
   50.6809   -4.9565   -4.6136 C   0  0  0  0  0  0  0  0  0  0  0  0
   51.6499   -5.8428   -4.4714 N   0  0  0  0  0  0  0  0  0  0  0  0
   52.5284   -5.7600   -5.4290 N   0  0  0  0  0  0  0  0  0  0  0  0
   53.7283   -6.5430   -5.6386 C   0  0  0  0  0  0  0  0  0  0  0  0
   52.1088   -4.7567   -6.2500 C   0  0  0  0  0  0  0  0  0  0  0  0
   52.6750   -4.2006   -7.4864 C   0  0  0  0  0  0  0  0  0  0  0  0
   53.8189   -4.7401   -7.9363 N   0  0  0  0  0  0  0  0  0  0  0  0
   49.5300   -4.7401   -3.7576 C   0  0  0  0  0  0  0  0  0  0  0  0
   48.5861   -3.7356   -4.1035 N   0  0  0  0  0  0  0  0  0  0  0  0
   49.3310   -5.4064   -2.7177 O   0  0  0  0  0  0  0  0  0  0  0  0
   48.1176   -3.8010   -5.0323 H   0  0  0  0  0  0  0  0  0  0  0  0
   48.3518   -2.9462   -3.4644 H   0  0  0  0  0  0  0  0  0  0  0  0
   55.5594   -4.7951   -9.5617 N   0  0  0  0  0  0  0  0  0  0  0  0
   55.9718   -5.6076   -8.9746 H   0  0  0  0  0  0  0  0  0  0  0  0
   57.7029   -4.5794  -10.6382 C   0  0  0  0  0  0  0  0  0  0  0  0
   58.4587   -4.2577  -11.7194 C   0  0  0  0  0  0  0  0  0  0  0  0
   57.9141   -3.8040  -12.8983 C   0  0  0  0  0  0  0  0  0  0  0  0
   56.5513   -3.6757  -12.9723 C   0  0  0  0  0  0  0  0  0  0  0  0
   55.7599   -3.9995  -11.8771 C   0  0  0  0  0  0  0  0  0  0  0  0
   56.3069   -4.4537  -10.6973 C   0  0  0  0  0  0  0  0  0  0  0  0
   58.7620   -3.4838  -13.9880 N   0  0  0  0  0  0  0  0  0  0  0  0
   60.2060   -3.5432  -13.8191 C   0  0  0  0  0  0  0  0  0  0  0  0
   60.8918   -2.7038  -14.9051 C   0  0  0  0  0  0  0  0  0  0  0  0
   60.5799   -3.2174  -16.1995 N   0  0  0  0  0  0  0  0  0  0  0  0
   61.3676   -4.4481  -16.3741 C   0  0  0  0  0  0  0  0  0  0  0  0
   59.2122   -3.5661  -16.3920 C   0  0  0  0  0  0  0  0  0  0  0  0
   58.2843   -3.0945  -15.2903 C   0  0  0  0  0  0  0  0  0  0  0  0
   59.3134   -5.9683   -9.5346 C   0  0  0  0  0  0  0  0  0  0  0  0
   58.2684   -5.0294   -9.4742 O   0  0  0  0  0  0  0  0  0  0  0  0
 35 36  1  0  0  0
 36 22  1  0  0  0
 22 23  2  0  0  0
 23 24  1  0  0  0
 24 25  2  0  0  0
 25 26  1  0  0  0
 26 27  2  0  0  0
 27 20  1  0  0  0
 20  1  1  0  0  0
  1  2  2  0  0  0
  2  3  1  0  0  0
  3  4  2  0  0  0
  4  5  1  0  0  0
  5  6  1  0  0  0
  6  7  1  0  0  0
  7  8  1  0  0  0
  8  9  2  0  0  0
  9 10  1  0  0  0
 10 11  1  0  0  0
 10 12  1  0  0  0
 12 13  1  0  0  0
 13 14  2  0  0  0
  8 15  1  0  0  0
 15 16  1  0  0  0
 15 17  2  0  0  0
 24 28  1  0  0  0
 28 29  1  0  0  0
 29 30  1  0  0  0
 30 31  1  0  0  0
 31 32  1  0  0  0
 31 33  1  0  0  0
 33 34  1  0  0  0
 27 22  1  0  0  0
 14  1  1  0  0  0
 34 28  1  0  0  0
 13  4  1  0  0  0
 12  7  2  0  0  0
 20 21  1  0  0  0
 16 18  1  0  0  0
 16 19  1  0  0  0
M  END
> <minimizedAffinity>
-9.75086

> <CNNscore>
0.7120706439

> <CNNaffinity>
7.2285890579

> <CNN_VS>
5.1472659111

> <CNNaffinity_variance>
0.0395940579

$$$$
[H]c1nc(N([H])c2c([H])c([H])c(N3C([H])([H])C([H])([H])N(C([H])([H])[H])C([H])([H])C3([H])[H])c([H])c2OC([H])([H])[H])nc2c1C([H])([H])C([H])([H])c1c(C(=O)N([H])[H])nn(C([H])([H])[H])c1-2


 36 40  0  0  0  0  0  0  0  0999 V2000
   56.0724   -5.3946   -7.6408 C   0  0  0  0  0  0  0  0  0  0  0  0
   56.0462   -6.3194   -6.6915 N   0  0  0  0  0  0  0  0  0  0  0  0
   55.0141   -6.5682   -5.8752 C   0  0  0  0  0  0  0  0  0  0  0  0
   53.8899   -5.7792   -6.0577 C   0  0  0  0  0  0  0  0  0  0  0  0
   52.7477   -6.0298   -5.1765 C   0  0  0  0  0  0  0  0  0  0  0  0
   51.5609   -5.1778   -5.4017 C   0  0  0  0  0  0  0  0  0  0  0  0
   51.6338   -4.1727   -6.4529 C   0  0  0  0  0  0  0  0  0  0  0  0
   50.6857   -3.2358   -6.8806 C   0  0  0  0  0  0  0  0  0  0  0  0
   51.2399   -2.5560   -7.8682 N   0  0  0  0  0  0  0  0  0  0  0  0
   52.4512   -2.9629   -8.1183 N   0  0  0  0  0  0  0  0  0  0  0  0
   53.3893   -2.4843   -9.1123 C   0  0  0  0  0  0  0  0  0  0  0  0
   52.7068   -3.9725   -7.2396 C   0  0  0  0  0  0  0  0  0  0  0  0
   53.8922   -4.8156   -7.0332 C   0  0  0  0  0  0  0  0  0  0  0  0
   54.9489   -4.5977   -7.8318 N   0  0  0  0  0  0  0  0  0  0  0  0
   49.3587   -3.0779   -6.3164 C   0  0  0  0  0  0  0  0  0  0  0  0
   49.1719   -3.2584   -4.9192 N   0  0  0  0  0  0  0  0  0  0  0  0
   48.3620   -2.7866   -7.0140 O   0  0  0  0  0  0  0  0  0  0  0  0
   49.7234   -2.6592   -4.2686 H   0  0  0  0  0  0  0  0  0  0  0  0
   48.5088   -3.9629   -4.5313 H   0  0  0  0  0  0  0  0  0  0  0  0
   57.1709   -5.1505   -8.4884 N   0  0  0  0  0  0  0  0  0  0  0  0
   58.1607   -5.2478   -8.0573 H   0  0  0  0  0  0  0  0  0  0  0  0
   58.3464   -4.8958  -10.5749 C   0  0  0  0  0  0  0  0  0  0  0  0
   58.3670   -4.5564  -11.8894 C   0  0  0  0  0  0  0  0  0  0  0  0
   57.2528   -4.1047  -12.5578 C   0  0  0  0  0  0  0  0  0  0  0  0
   56.0795   -3.9970  -11.8571 C   0  0  0  0  0  0  0  0  0  0  0  0
   56.0373   -4.3391  -10.5110 C   0  0  0  0  0  0  0  0  0  0  0  0
   57.1540   -4.7914   -9.8433 C   0  0  0  0  0  0  0  0  0  0  0  0
   57.3450   -3.7653  -13.9308 N   0  0  0  0  0  0  0  0  0  0  0  0
   58.6503   -3.5267  -14.5280 C   0  0  0  0  0  0  0  0  0  0  0  0
   58.4909   -2.7123  -15.8185 C   0  0  0  0  0  0  0  0  0  0  0  0
   57.7005   -3.4315  -16.7643 N   0  0  0  0  0  0  0  0  0  0  0  0
   58.5515   -4.5012  -17.3095 C   0  0  0  0  0  0  0  0  0  0  0  0
   56.5399   -4.0559  -16.2234 C   0  0  0  0  0  0  0  0  0  0  0  0
   56.2070   -3.6379  -14.8051 C   0  0  0  0  0  0  0  0  0  0  0  0
   59.7489   -6.7215   -9.9111 C   0  0  0  0  0  0  0  0  0  0  0  0
   59.4697   -5.3435   -9.9305 O   0  0  0  0  0  0  0  0  0  0  0  0
 35 36  1  0  0  0
 36 22  1  0  0  0
 22 23  2  0  0  0
 23 24  1  0  0  0
 24 25  2  0  0  0
 25 26  1  0  0  0
 26 27  2  0  0  0
 27 20  1  0  0  0
 20  1  1  0  0  0
  1  2  2  0  0  0
  2  3  1  0  0  0
  3  4  2  0  0  0
  4  5  1  0  0  0
  5  6  1  0  0  0
  6  7  1  0  0  0
  7  8  1  0  0  0
  8  9  2  0  0  0
  9 10  1  0  0  0
 10 11  1  0  0  0
 10 12  1  0  0  0
 12 13  1  0  0  0
 13 14  2  0  0  0
  8 15  1  0  0  0
 15 16  1  0  0  0
 15 17  2  0  0  0
 24 28  1  0  0  0
 28 29  1  0  0  0
 29 30  1  0  0  0
 30 31  1  0  0  0
 31 32  1  0  0  0
 31 33  1  0  0  0
 33 34  1  0  0  0
 27 22  1  0  0  0
 14  1  1  0  0  0
 34 28  1  0  0  0
 13  4  1  0  0  0
 12  7  2  0  0  0
 20 21  1  0  0  0
 16 18  1  0  0  0
 16 19  1  0  0  0
M  END
> <minimizedAffinity>
-8.41559

> <CNNscore>
0.6595046520

> <CNNaffinity>
7.3565430641

> <CNN_VS>
4.8516745567

> <CNNaffinity_variance>
0.0514282398

$$$$
[H]c1nc(N([H])c2c([H])c([H])c(N3C([H])([H])C([H])([H])N(C([H])([H])[H])C([H])([H])C3([H])[H])c([H])c2OC([H])([H])[H])nc2c1C([H])([H])C([H])([H])c1c(C(=O)N([H])[H])nn(C([H])([H])[H])c1-2


 36 40  0  0  0  0  0  0  0  0999 V2000
   54.0721   -4.9068   -7.9355 C   0  0  0  0  0  0  0  0  0  0  0  0
   54.2369   -6.0446   -7.2756 N   0  0  0  0  0  0  0  0  0  0  0  0
   53.4161   -6.5231   -6.3318 C   0  0  0  0  0  0  0  0  0  0  0  0
   52.3079   -5.7453   -6.0376 C   0  0  0  0  0  0  0  0  0  0  0  0
   51.3953   -6.2453   -5.0076 C   0  0  0  0  0  0  0  0  0  0  0  0
   50.2184   -5.3974   -4.7226 C   0  0  0  0  0  0  0  0  0  0  0  0
   50.0778   -4.1547   -5.4685 C   0  0  0  0  0  0  0  0  0  0  0  0
   49.0884   -3.1662   -5.4079 C   0  0  0  0  0  0  0  0  0  0  0  0
   49.4194   -2.2407   -6.2902 N   0  0  0  0  0  0  0  0  0  0  0  0
   50.5243   -2.5359   -6.9127 N   0  0  0  0  0  0  0  0  0  0  0  0
   51.2200   -1.7924   -7.9424 C   0  0  0  0  0  0  0  0  0  0  0  0
   50.9436   -3.7296   -6.4067 C   0  0  0  0  0  0  0  0  0  0  0  0
   52.1150   -4.5641   -6.7066 C   0  0  0  0  0  0  0  0  0  0  0  0
   52.9628   -4.1192   -7.6475 N   0  0  0  0  0  0  0  0  0  0  0  0
   47.9361   -3.1953   -4.5273 C   0  0  0  0  0  0  0  0  0  0  0  0
   47.7592   -4.3000   -3.6510 N   0  0  0  0  0  0  0  0  0  0  0  0
   47.0830   -2.2805   -4.5062 O   0  0  0  0  0  0  0  0  0  0  0  0
   48.5192   -4.5133   -2.9703 H   0  0  0  0  0  0  0  0  0  0  0  0
   46.9036   -4.8950   -3.6688 H   0  0  0  0  0  0  0  0  0  0  0  0
   54.9498   -4.4230   -8.9255 N   0  0  0  0  0  0  0  0  0  0  0  0
   54.5674   -3.6645   -9.5990 H   0  0  0  0  0  0  0  0  0  0  0  0
   57.1064   -5.0483   -8.0548 C   0  0  0  0  0  0  0  0  0  0  0  0
   58.3999   -5.4150   -8.2448 C   0  0  0  0  0  0  0  0  0  0  0  0
   58.9556   -5.5588   -9.4949 C   0  0  0  0  0  0  0  0  0  0  0  0
   58.1607   -5.3193  -10.5859 C   0  0  0  0  0  0  0  0  0  0  0  0
   56.8343   -4.9430  -10.4130 C   0  0  0  0  0  0  0  0  0  0  0  0
   56.2795   -4.7995   -9.1604 C   0  0  0  0  0  0  0  0  0  0  0  0
   60.3141   -5.9424   -9.6214 N   0  0  0  0  0  0  0  0  0  0  0  0
   61.0553   -6.3681   -8.4438 C   0  0  0  0  0  0  0  0  0  0  0  0
   62.5623   -6.2461   -8.7055 C   0  0  0  0  0  0  0  0  0  0  0  0
   62.9462   -7.0864   -9.7931 N   0  0  0  0  0  0  0  0  0  0  0  0
   62.9445   -8.4689   -9.2888 C   0  0  0  0  0  0  0  0  0  0  0  0
   62.0705   -7.0503  -10.9161 C   0  0  0  0  0  0  0  0  0  0  0  0
   61.0357   -5.9439  -10.8684 C   0  0  0  0  0  0  0  0  0  0  0  0
   56.9595   -5.8094   -5.7876 C   0  0  0  0  0  0  0  0  0  0  0  0
   56.5752   -4.9115   -6.7993 O   0  0  0  0  0  0  0  0  0  0  0  0
 35 36  1  0  0  0
 36 22  1  0  0  0
 22 23  2  0  0  0
 23 24  1  0  0  0
 24 25  2  0  0  0
 25 26  1  0  0  0
 26 27  2  0  0  0
 27 20  1  0  0  0
 20  1  1  0  0  0
  1  2  2  0  0  0
  2  3  1  0  0  0
  3  4  2  0  0  0
  4  5  1  0  0  0
  5  6  1  0  0  0
  6  7  1  0  0  0
  7  8  1  0  0  0
  8  9  2  0  0  0
  9 10  1  0  0  0
 10 11  1  0  0  0
 10 12  1  0  0  0
 12 13  1  0  0  0
 13 14  2  0  0  0
  8 15  1  0  0  0
 15 16  1  0  0  0
 15 17  2  0  0  0
 24 28  1  0  0  0
 28 29  1  0  0  0
 29 30  1  0  0  0
 30 31  1  0  0  0
 31 32  1  0  0  0
 31 33  1  0  0  0
 33 34  1  0  0  0
 27 22  1  0  0  0
 14  1  1  0  0  0
 34 28  1  0  0  0
 13  4  1  0  0  0
 12  7  2  0  0  0
 20 21  1  0  0  0
 16 18  1  0  0  0
 16 19  1  0  0  0
M  END
> <minimizedAffinity>
-8.14011

> <CNNscore>
0.6547837853

> <CNNaffinity>
7.3685083389

> <CNN_VS>
4.8247799873

> <CNNaffinity_variance>
0.1865993142

$$$$
[H]c1nc(N([H])c2c([H])c([H])c(N3C([H])([H])C([H])([H])N(C([H])([H])[H])C([H])([H])C3([H])[H])c([H])c2OC([H])([H])[H])nc2c1C([H])([H])C([H])([H])c1c(C(=O)N([H])[H])nn(C([H])([H])[H])c1-2


 36 40  0  0  0  0  0  0  0  0999 V2000
   54.4752   -4.1599   -8.9600 C   0  0  0  0  0  0  0  0  0  0  0  0
   53.7083   -3.2395   -9.5273 N   0  0  0  0  0  0  0  0  0  0  0  0
   52.5263   -2.8160   -9.0613 C   0  0  0  0  0  0  0  0  0  0  0  0
   52.0893   -3.4045   -7.8857 C   0  0  0  0  0  0  0  0  0  0  0  0
   50.7986   -2.9603   -7.3559 C   0  0  0  0  0  0  0  0  0  0  0  0
   50.3642   -3.6005   -6.0963 C   0  0  0  0  0  0  0  0  0  0  0  0
   51.2358   -4.6084   -5.5089 C   0  0  0  0  0  0  0  0  0  0  0  0
   51.0845   -5.3736   -4.3464 C   0  0  0  0  0  0  0  0  0  0  0  0
   52.1549   -6.1419   -4.2537 N   0  0  0  0  0  0  0  0  0  0  0  0
   52.9801   -5.9468   -5.2417 N   0  0  0  0  0  0  0  0  0  0  0  0
   54.2542   -6.5818   -5.5075 C   0  0  0  0  0  0  0  0  0  0  0  0
   52.4152   -4.9908   -6.0314 C   0  0  0  0  0  0  0  0  0  0  0  0
   52.8647   -4.3592   -7.2795 C   0  0  0  0  0  0  0  0  0  0  0  0
   54.0454   -4.7563   -7.7796 N   0  0  0  0  0  0  0  0  0  0  0  0
   49.9501   -5.3023   -3.4452 C   0  0  0  0  0  0  0  0  0  0  0  0
   48.8343   -4.4950   -3.7954 N   0  0  0  0  0  0  0  0  0  0  0  0
   49.9118   -5.9273   -2.3622 O   0  0  0  0  0  0  0  0  0  0  0  0
   48.3458   -4.6957   -4.6941 H   0  0  0  0  0  0  0  0  0  0  0  0
   48.4947   -3.7187   -3.1884 H   0  0  0  0  0  0  0  0  0  0  0  0
   55.7164   -4.5901   -9.4690 N   0  0  0  0  0  0  0  0  0  0  0  0
   56.3395   -5.1893   -8.8148 H   0  0  0  0  0  0  0  0  0  0  0  0
   57.6531   -4.4597  -10.8946 C   0  0  0  0  0  0  0  0  0  0  0  0
   58.2184   -4.2261  -12.1068 C   0  0  0  0  0  0  0  0  0  0  0  0
   57.4828   -3.8710  -13.2137 C   0  0  0  0  0  0  0  0  0  0  0  0
   56.1243   -3.7513  -13.0745 C   0  0  0  0  0  0  0  0  0  0  0  0
   55.5263   -3.9859  -11.8424 C   0  0  0  0  0  0  0  0  0  0  0  0
   56.2644   -4.3414  -10.7350 C   0  0  0  0  0  0  0  0  0  0  0  0
   58.1376   -3.6395  -14.4492 N   0  0  0  0  0  0  0  0  0  0  0  0
   57.3524   -3.5079  -15.6672 C   0  0  0  0  0  0  0  0  0  0  0  0
   58.2420   -3.7668  -16.8902 C   0  0  0  0  0  0  0  0  0  0  0  0
   59.3002   -2.8109  -16.9448 N   0  0  0  0  0  0  0  0  0  0  0  0
   58.7087   -1.5412  -17.3960 C   0  0  0  0  0  0  0  0  0  0  0  0
   59.9402   -2.5539  -15.6984 C   0  0  0  0  0  0  0  0  0  0  0  0
   59.5662   -3.5191  -14.5913 C   0  0  0  0  0  0  0  0  0  0  0  0
   58.9858   -6.0928   -9.7553 C   0  0  0  0  0  0  0  0  0  0  0  0
   58.4069   -4.8123   -9.8060 O   0  0  0  0  0  0  0  0  0  0  0  0
 35 36  1  0  0  0
 36 22  1  0  0  0
 22 23  2  0  0  0
 23 24  1  0  0  0
 24 25  2  0  0  0
 25 26  1  0  0  0
 26 27  2  0  0  0
 27 20  1  0  0  0
 20  1  1  0  0  0
  1  2  2  0  0  0
  2  3  1  0  0  0
  3  4  2  0  0  0
  4  5  1  0  0  0
  5  6  1  0  0  0
  6  7  1  0  0  0
  7  8  1  0  0  0
  8  9  2  0  0  0
  9 10  1  0  0  0
 10 11  1  0  0  0
 10 12  1  0  0  0
 12 13  1  0  0  0
 13 14  2  0  0  0
  8 15  1  0  0  0
 15 16  1  0  0  0
 15 17  2  0  0  0
 24 28  1  0  0  0
 28 29  1  0  0  0
 29 30  1  0  0  0
 30 31  1  0  0  0
 31 32  1  0  0  0
 31 33  1  0  0  0
 33 34  1  0  0  0
 27 22  1  0  0  0
 14  1  1  0  0  0
 34 28  1  0  0  0
 13  4  1  0  0  0
 12  7  2  0  0  0
 20 21  1  0  0  0
 16 18  1  0  0  0
 16 19  1  0  0  0
M  END
> <minimizedAffinity>
-9.51658

> <CNNscore>
0.6289502382

> <CNNaffinity>
7.1540589333

> <CNN_VS>
4.4995470047

> <CNNaffinity_variance>
0.0340536460

$$$$
[H]c1nc(N([H])c2c([H])c([H])c(N3C([H])([H])C([H])([H])N(C([H])([H])[H])C([H])([H])C3([H])[H])c([H])c2OC([H])([H])[H])nc2c1C([H])([H])C([H])([H])c1c(C(=O)N([H])[H])nn(C([H])([H])[H])c1-2


 36 40  0  0  0  0  0  0  0  0999 V2000
   54.4405   -4.9789   -7.7477 C   0  0  0  0  0  0  0  0  0  0  0  0
   54.6657   -6.0028   -6.9364 N   0  0  0  0  0  0  0  0  0  0  0  0
   53.8639   -6.3964   -5.9386 C   0  0  0  0  0  0  0  0  0  0  0  0
   52.7072   -5.6552   -5.7588 C   0  0  0  0  0  0  0  0  0  0  0  0
   51.8140   -6.0639   -4.6730 C   0  0  0  0  0  0  0  0  0  0  0  0
   50.5847   -5.2588   -4.5122 C   0  0  0  0  0  0  0  0  0  0  0  0
   50.3784   -4.1415   -5.4231 C   0  0  0  0  0  0  0  0  0  0  0  0
   49.3305   -3.2168   -5.5031 C   0  0  0  0  0  0  0  0  0  0  0  0
   49.6158   -2.4029   -6.5035 N   0  0  0  0  0  0  0  0  0  0  0  0
   50.7440   -2.7125   -7.0752 N   0  0  0  0  0  0  0  0  0  0  0  0
   51.4060   -2.0763   -8.1951 C   0  0  0  0  0  0  0  0  0  0  0  0
   51.2283   -3.7971   -6.4077 C   0  0  0  0  0  0  0  0  0  0  0  0
   52.4516   -4.5913   -6.5851 C   0  0  0  0  0  0  0  0  0  0  0  0
   53.2823   -4.2289   -7.5753 N   0  0  0  0  0  0  0  0  0  0  0  0
   48.1715   -3.1953   -4.6312 C   0  0  0  0  0  0  0  0  0  0  0  0
   47.9247   -4.3032   -3.7762 N   0  0  0  0  0  0  0  0  0  0  0  0
   47.3720   -2.2336   -4.5996 O   0  0  0  0  0  0  0  0  0  0  0  0
   48.6658   -4.5717   -3.0942 H   0  0  0  0  0  0  0  0  0  0  0  0
   47.0365   -4.8478   -3.8107 H   0  0  0  0  0  0  0  0  0  0  0  0
   55.2995   -4.5829   -8.7918 N   0  0  0  0  0  0  0  0  0  0  0  0
   54.8901   -3.9206   -9.5459 H   0  0  0  0  0  0  0  0  0  0  0  0
   57.1433   -4.9414  -10.2991 C   0  0  0  0  0  0  0  0  0  0  0  0
   58.4380   -5.2807  -10.5276 C   0  0  0  0  0  0  0  0  0  0  0  0
   59.3040   -5.6302   -9.5176 C   0  0  0  0  0  0  0  0  0  0  0  0
   58.8286   -5.6322   -8.2318 C   0  0  0  0  0  0  0  0  0  0  0  0
   57.5068   -5.2882   -7.9766 C   0  0  0  0  0  0  0  0  0  0  0  0
   56.6409   -4.9385   -8.9892 C   0  0  0  0  0  0  0  0  0  0  0  0
   60.6433   -5.9758   -9.8270 N   0  0  0  0  0  0  0  0  0  0  0  0
   61.5064   -6.5165   -8.7877 C   0  0  0  0  0  0  0  0  0  0  0  0
   62.9768   -6.3425   -9.1899 C   0  0  0  0  0  0  0  0  0  0  0  0
   63.2475   -7.0519  -10.3982 N   0  0  0  0  0  0  0  0  0  0  0  0
   63.3049   -8.4814  -10.0530 C   0  0  0  0  0  0  0  0  0  0  0  0
   62.2581   -6.9066  -11.4127 C   0  0  0  0  0  0  0  0  0  0  0  0
   61.2294   -5.8288  -11.1349 C   0  0  0  0  0  0  0  0  0  0  0  0
   56.8063   -3.8821  -12.4216 C   0  0  0  0  0  0  0  0  0  0  0  0
   56.2992   -4.5969  -11.3219 O   0  0  0  0  0  0  0  0  0  0  0  0
 35 36  1  0  0  0
 36 22  1  0  0  0
 22 23  2  0  0  0
 23 24  1  0  0  0
 24 25  2  0  0  0
 25 26  1  0  0  0
 26 27  2  0  0  0
 27 20  1  0  0  0
 20  1  1  0  0  0
  1  2  2  0  0  0
  2  3  1  0  0  0
  3  4  2  0  0  0
  4  5  1  0  0  0
  5  6  1  0  0  0
  6  7  1  0  0  0
  7  8  1  0  0  0
  8  9  2  0  0  0
  9 10  1  0  0  0
 10 11  1  0  0  0
 10 12  1  0  0  0
 12 13  1  0  0  0
 13 14  2  0  0  0
  8 15  1  0  0  0
 15 16  1  0  0  0
 15 17  2  0  0  0
 24 28  1  0  0  0
 28 29  1  0  0  0
 29 30  1  0  0  0
 30 31  1  0  0  0
 31 32  1  0  0  0
 31 33  1  0  0  0
 33 34  1  0  0  0
 27 22  1  0  0  0
 14  1  1  0  0  0
 34 28  1  0  0  0
 13  4  1  0  0  0
 12  7  2  0  0  0
 20 21  1  0  0  0
 16 18  1  0  0  0
 16 19  1  0  0  0
M  END
> <minimizedAffinity>
-8.64710

> <CNNscore>
0.5983837247

> <CNNaffinity>
7.3834981918

> <CNN_VS>
4.4181652069

> <CNNaffinity_variance>
0.2423330247

$$$$
[H]c1nn([H])c([H])c1-c1c([H])c([H])c2c(nc([H])n2-c2sc(C(=O)N([H])[H])c(O[C@@]([H])(c3c([H])c([H])c([H])c([H])c3C(F)(F)F)C([H])([H])[H])c2[H])c1[H]


 38 42  0  0  0  0  0  0  0  0999 V2000
   51.1293   -4.7646   -4.9742 C   0  0  0  0  0  0  0  0  0  0  0  0
   52.0066   -4.7189   -5.9735 C   0  0  0  0  0  0  0  0  0  0  0  0
   51.7387   -3.8807   -7.0351 C   0  0  0  0  0  0  0  0  0  0  0  0
   50.2521   -3.1811   -6.5897 S   0  0  0  0  0  0  0  0  0  0  0  0
   50.0078   -3.9523   -5.0945 C   0  0  0  0  0  0  0  0  0  0  0  0
   52.5483   -3.6802   -8.2065 N   0  0  0  0  0  0  0  0  0  0  0  0
   52.2630   -3.0720   -9.3617 C   0  0  0  0  0  0  0  0  0  0  0  0
   53.3279   -3.1159  -10.1914 N   0  0  0  0  0  0  0  0  0  0  0  0
   54.3080   -3.7556   -9.5711 C   0  0  0  0  0  0  0  0  0  0  0  0
   55.6122   -4.1183   -9.8727 C   0  0  0  0  0  0  0  0  0  0  0  0
   56.4350   -4.8012   -9.0140 C   0  0  0  0  0  0  0  0  0  0  0  0
   55.9164   -5.1400   -7.7784 C   0  0  0  0  0  0  0  0  0  0  0  0
   54.6292   -4.8018   -7.4350 C   0  0  0  0  0  0  0  0  0  0  0  0
   53.8102   -4.1127   -8.3113 C   0  0  0  0  0  0  0  0  0  0  0  0
   57.7960   -5.1508   -9.3952 C   0  0  0  0  0  0  0  0  0  0  0  0
   58.3034   -5.0929  -10.6834 C   0  0  0  0  0  0  0  0  0  0  0  0
   59.5858   -5.4917  -10.6223 N   0  0  0  0  0  0  0  0  0  0  0  0
   59.9342   -5.8003   -9.3875 N   0  0  0  0  0  0  0  0  0  0  0  0
   58.8464   -5.5972   -8.6162 C   0  0  0  0  0  0  0  0  0  0  0  0
   60.8880   -6.1418   -9.0681 H   0  0  0  0  0  0  0  0  0  0  0  0
   48.8814   -3.7804   -4.1815 C   0  0  0  0  0  0  0  0  0  0  0  0
   48.5963   -4.7481   -3.2073 N   0  0  0  0  0  0  0  0  0  0  0  0
   48.1785   -2.7533   -4.2877 O   0  0  0  0  0  0  0  0  0  0  0  0
   48.2359   -4.4759   -2.2565 H   0  0  0  0  0  0  0  0  0  0  0  0
   48.7198   -5.7752   -3.3586 H   0  0  0  0  0  0  0  0  0  0  0  0
   51.2260   -5.5576   -3.8015 O   0  0  0  0  0  0  0  0  0  0  0  0
   51.6785   -7.7194   -2.8695 C   0  0  0  0  0  0  0  0  0  0  0  0
   52.2329   -6.4670   -3.6436 C   0  0  0  0  0  0  0  0  0  0  0  0
   53.5123   -6.0816   -3.0940 C   0  0  0  0  0  0  0  0  0  0  0  0
   53.5570   -5.1928   -2.0060 C   0  0  0  0  0  0  0  0  0  0  0  0
   54.7132   -4.7847   -1.3991 C   0  0  0  0  0  0  0  0  0  0  0  0
   55.9193   -5.2617   -1.8664 C   0  0  0  0  0  0  0  0  0  0  0  0
   55.8959   -6.1234   -2.9203 C   0  0  0  0  0  0  0  0  0  0  0  0
   54.7054   -6.5497   -3.5539 C   0  0  0  0  0  0  0  0  0  0  0  0
   54.7768   -7.4484   -4.6920 C   0  0  0  0  0  0  0  0  0  0  0  0
   56.0636   -7.2701   -5.2780 F   0  0  0  0  0  0  0  0  0  0  0  0
   54.7499   -8.7899   -4.4225 F   0  0  0  0  0  0  0  0  0  0  0  0
   53.9901   -7.0630   -5.7693 F   0  0  0  0  0  0  0  0  0  0  0  0
 27 28  1  0  0  0
 28 26  1  0  0  0
 26  1  1  0  0  0
  1  2  1  0  0  0
  2  3  2  0  0  0
  3  4  1  0  0  0
  4  5  1  0  0  0
  5 21  1  0  0  0
 21 22  1  0  0  0
 21 23  2  0  0  0
  3  6  1  0  0  0
  6  7  1  0  0  0
  7  8  2  0  0  0
  8  9  1  0  0  0
  9 10  2  0  0  0
 10 11  1  0  0  0
 11 12  2  0  0  0
 12 13  1  0  0  0
 13 14  2  0  0  0
 11 15  1  0  0  0
 15 16  1  0  0  0
 16 17  2  0  0  0
 17 18  1  0  0  0
 18 19  1  0  0  0
 28 29  1  0  0  0
 29 30  2  0  0  0
 30 31  1  0  0  0
 31 32  2  0  0  0
 32 33  1  0  0  0
 33 34  2  0  0  0
 34 35  1  0  0  0
 35 36  1  0  0  0
 35 37  1  0  0  0
 35 38  1  0  0  0
  5  1  2  0  0  0
 14  6  1  0  0  0
 19 15  2  0  0  0
 34 29  1  0  0  0
 14  9  1  0  0  0
 22 24  1  0  0  0
 22 25  1  0  0  0
 18 20  1  0  0  0
M  END
> <minimizedAffinity>
-9.54937

> <CNNscore>
0.6843172908

> <CNNaffinity>
8.0123844147

> <CNN_VS>
5.4830131531

> <CNNaffinity_variance>
0.1436093897

$$$$
[H]c1nn([H])c([H])c1-c1c([H])c([H])c2c(nc([H])n2-c2sc(C(=O)N([H])[H])c(O[C@@]([H])(c3c([H])c([H])c([H])c([H])c3C(F)(F)F)C([H])([H])[H])c2[H])c1[H]


 38 42  0  0  0  0  0  0  0  0999 V2000
   56.9854   -4.4705  -10.6338 C   0  0  0  0  0  0  0  0  0  0  0  0
   55.7432   -4.0031  -10.5401 C   0  0  0  0  0  0  0  0  0  0  0  0
   55.1354   -4.0179   -9.3024 C   0  0  0  0  0  0  0  0  0  0  0  0
   56.3388   -4.6936   -8.3059 S   0  0  0  0  0  0  0  0  0  0  0  0
   57.5637   -4.9376   -9.4592 C   0  0  0  0  0  0  0  0  0  0  0  0
   53.8097   -3.5617   -8.9827 N   0  0  0  0  0  0  0  0  0  0  0  0
   53.0016   -2.7235   -9.6384 C   0  0  0  0  0  0  0  0  0  0  0  0
   51.8360   -2.5765   -8.9718 N   0  0  0  0  0  0  0  0  0  0  0  0
   51.8890   -3.3231   -7.8789 C   0  0  0  0  0  0  0  0  0  0  0  0
   51.0425   -3.5986   -6.8153 C   0  0  0  0  0  0  0  0  0  0  0  0
   51.3617   -4.4407   -5.7811 C   0  0  0  0  0  0  0  0  0  0  0  0
   52.6057   -5.0420   -5.8176 C   0  0  0  0  0  0  0  0  0  0  0  0
   53.4783   -4.7993   -6.8515 C   0  0  0  0  0  0  0  0  0  0  0  0
   53.1431   -3.9473   -7.8885 C   0  0  0  0  0  0  0  0  0  0  0  0
   50.4243   -4.6859   -4.6944 C   0  0  0  0  0  0  0  0  0  0  0  0
   50.6739   -5.4857   -3.5907 C   0  0  0  0  0  0  0  0  0  0  0  0
   49.5706   -5.4571   -2.8230 N   0  0  0  0  0  0  0  0  0  0  0  0
   48.6340   -4.6964   -3.3571 N   0  0  0  0  0  0  0  0  0  0  0  0
   49.1395   -4.2118   -4.5099 C   0  0  0  0  0  0  0  0  0  0  0  0
   47.6702   -4.5057   -2.9531 H   0  0  0  0  0  0  0  0  0  0  0  0
   58.8913   -5.5030   -9.2368 C   0  0  0  0  0  0  0  0  0  0  0  0
   59.6737   -5.9374  -10.3166 N   0  0  0  0  0  0  0  0  0  0  0  0
   59.3139   -5.5908   -8.0646 O   0  0  0  0  0  0  0  0  0  0  0  0
   60.7196   -5.8176  -10.3161 H   0  0  0  0  0  0  0  0  0  0  0  0
   59.2793   -6.3963  -11.1691 H   0  0  0  0  0  0  0  0  0  0  0  0
   57.7755   -4.5381  -11.8105 O   0  0  0  0  0  0  0  0  0  0  0  0
   56.4375   -5.4634  -13.5713 C   0  0  0  0  0  0  0  0  0  0  0  0
   57.2511   -4.2290  -13.0333 C   0  0  0  0  0  0  0  0  0  0  0  0
   58.0775   -3.6922  -14.0898 C   0  0  0  0  0  0  0  0  0  0  0  0
   59.4615   -3.5590  -13.8839 C   0  0  0  0  0  0  0  0  0  0  0  0
   60.3327   -3.0850  -14.8263 C   0  0  0  0  0  0  0  0  0  0  0  0
   59.8454   -2.7096  -16.0600 C   0  0  0  0  0  0  0  0  0  0  0  0
   58.5070   -2.8310  -16.2778 C   0  0  0  0  0  0  0  0  0  0  0  0
   57.5994   -3.3192  -15.3091 C   0  0  0  0  0  0  0  0  0  0  0  0
   56.1825   -3.3864  -15.6182 C   0  0  0  0  0  0  0  0  0  0  0  0
   55.9506   -2.4760  -16.6899 F   0  0  0  0  0  0  0  0  0  0  0  0
   55.7152   -4.5707  -16.1203 F   0  0  0  0  0  0  0  0  0  0  0  0
   55.3641   -2.8071  -14.6577 F   0  0  0  0  0  0  0  0  0  0  0  0
 27 28  1  0  0  0
 28 26  1  0  0  0
 26  1  1  0  0  0
  1  2  1  0  0  0
  2  3  2  0  0  0
  3  4  1  0  0  0
  4  5  1  0  0  0
  5 21  1  0  0  0
 21 22  1  0  0  0
 21 23  2  0  0  0
  3  6  1  0  0  0
  6  7  1  0  0  0
  7  8  2  0  0  0
  8  9  1  0  0  0
  9 10  2  0  0  0
 10 11  1  0  0  0
 11 12  2  0  0  0
 12 13  1  0  0  0
 13 14  2  0  0  0
 11 15  1  0  0  0
 15 16  1  0  0  0
 16 17  2  0  0  0
 17 18  1  0  0  0
 18 19  1  0  0  0
 28 29  1  0  0  0
 29 30  2  0  0  0
 30 31  1  0  0  0
 31 32  2  0  0  0
 32 33  1  0  0  0
 33 34  2  0  0  0
 34 35  1  0  0  0
 35 36  1  0  0  0
 35 37  1  0  0  0
 35 38  1  0  0  0
  5  1  2  0  0  0
 14  6  1  0  0  0
 19 15  2  0  0  0
 34 29  1  0  0  0
 14  9  1  0  0  0
 22 24  1  0  0  0
 22 25  1  0  0  0
 18 20  1  0  0  0
M  END
> <minimizedAffinity>
-8.83416

> <CNNscore>
0.6674953699

> <CNNaffinity>
7.4806661606

> <CNN_VS>
4.9933099747

> <CNNaffinity_variance>
0.1857842505

$$$$
[H]c1nn([H])c([H])c1-c1c([H])c([H])c2c(nc([H])n2-c2sc(C(=O)N([H])[H])c(O[C@@]([H])(c3c([H])c([H])c([H])c([H])c3C(F)(F)F)C([H])([H])[H])c2[H])c1[H]


 38 42  0  0  0  0  0  0  0  0999 V2000
   52.9717   -4.1309   -7.4696 C   0  0  0  0  0  0  0  0  0  0  0  0
   54.0913   -4.4790   -8.0987 C   0  0  0  0  0  0  0  0  0  0  0  0
   54.3362   -3.9306   -9.3399 C   0  0  0  0  0  0  0  0  0  0  0  0
   52.9746   -2.9381   -9.5824 S   0  0  0  0  0  0  0  0  0  0  0  0
   52.1404   -3.2346   -8.1312 C   0  0  0  0  0  0  0  0  0  0  0  0
   55.4770   -4.1684  -10.1824 N   0  0  0  0  0  0  0  0  0  0  0  0
   55.6467   -3.9529  -11.4902 C   0  0  0  0  0  0  0  0  0  0  0  0
   56.8881   -4.3252  -11.8707 N   0  0  0  0  0  0  0  0  0  0  0  0
   57.5260   -4.7841  -10.8044 C   0  0  0  0  0  0  0  0  0  0  0  0
   58.7859   -5.2998  -10.5392 C   0  0  0  0  0  0  0  0  0  0  0  0
   59.1982   -5.7131   -9.2983 C   0  0  0  0  0  0  0  0  0  0  0  0
   58.2905   -5.6018   -8.2620 C   0  0  0  0  0  0  0  0  0  0  0  0
   57.0304   -5.0967   -8.4768 C   0  0  0  0  0  0  0  0  0  0  0  0
   56.6277   -4.6835   -9.7341 C   0  0  0  0  0  0  0  0  0  0  0  0
   60.5373   -6.2454   -9.0896 C   0  0  0  0  0  0  0  0  0  0  0  0
   61.4981   -6.3972  -10.0764 C   0  0  0  0  0  0  0  0  0  0  0  0
   62.5904   -6.9162   -9.4892 N   0  0  0  0  0  0  0  0  0  0  0  0
   62.3964   -7.1070   -8.1981 N   0  0  0  0  0  0  0  0  0  0  0  0
   61.1383   -6.7003   -7.9314 C   0  0  0  0  0  0  0  0  0  0  0  0
   63.0985   -7.5042   -7.5068 H   0  0  0  0  0  0  0  0  0  0  0  0
   50.8618   -2.6681   -7.7115 C   0  0  0  0  0  0  0  0  0  0  0  0
   49.8348   -3.4957   -7.2349 N   0  0  0  0  0  0  0  0  0  0  0  0
   50.7037   -1.4313   -7.7865 O   0  0  0  0  0  0  0  0  0  0  0  0
   49.1954   -3.1813   -6.4601 H   0  0  0  0  0  0  0  0  0  0  0  0
   49.6429   -4.4531   -7.6086 H   0  0  0  0  0  0  0  0  0  0  0  0
   52.5447   -4.5825   -6.1941 O   0  0  0  0  0  0  0  0  0  0  0  0
   51.1052   -6.4979   -6.2725 C   0  0  0  0  0  0  0  0  0  0  0  0
   52.5145   -5.9136   -5.8885 C   0  0  0  0  0  0  0  0  0  0  0  0
   52.9004   -6.3919   -4.5810 C   0  0  0  0  0  0  0  0  0  0  0  0
   51.9508   -6.4121   -3.5450 C   0  0  0  0  0  0  0  0  0  0  0  0
   52.2080   -6.8669   -2.2806 C   0  0  0  0  0  0  0  0  0  0  0  0
   53.4685   -7.3388   -1.9822 C   0  0  0  0  0  0  0  0  0  0  0  0
   54.4021   -7.3265   -2.9732 C   0  0  0  0  0  0  0  0  0  0  0  0
   54.1448   -6.8575   -4.2825 C   0  0  0  0  0  0  0  0  0  0  0  0
   55.2101   -6.8534   -5.2689 C   0  0  0  0  0  0  0  0  0  0  0  0
   56.3354   -7.4840   -4.6630 F   0  0  0  0  0  0  0  0  0  0  0  0
   55.0119   -7.6048   -6.3954 F   0  0  0  0  0  0  0  0  0  0  0  0
   55.7611   -5.6007   -5.5037 F   0  0  0  0  0  0  0  0  0  0  0  0
 27 28  1  0  0  0
 28 26  1  0  0  0
 26  1  1  0  0  0
  1  2  1  0  0  0
  2  3  2  0  0  0
  3  4  1  0  0  0
  4  5  1  0  0  0
  5 21  1  0  0  0
 21 22  1  0  0  0
 21 23  2  0  0  0
  3  6  1  0  0  0
  6  7  1  0  0  0
  7  8  2  0  0  0
  8  9  1  0  0  0
  9 10  2  0  0  0
 10 11  1  0  0  0
 11 12  2  0  0  0
 12 13  1  0  0  0
 13 14  2  0  0  0
 11 15  1  0  0  0
 15 16  1  0  0  0
 16 17  2  0  0  0
 17 18  1  0  0  0
 18 19  1  0  0  0
 28 29  1  0  0  0
 29 30  2  0  0  0
 30 31  1  0  0  0
 31 32  2  0  0  0
 32 33  1  0  0  0
 33 34  2  0  0  0
 34 35  1  0  0  0
 35 36  1  0  0  0
 35 37  1  0  0  0
 35 38  1  0  0  0
  5  1  2  0  0  0
 14  6  1  0  0  0
 19 15  2  0  0  0
 34 29  1  0  0  0
 14  9  1  0  0  0
 22 24  1  0  0  0
 22 25  1  0  0  0
 18 20  1  0  0  0
M  END
> <minimizedAffinity>
-8.92748

> <CNNscore>
0.5368134379

> <CNNaffinity>
7.6334753036

> <CNN_VS>
4.0977520943

> <CNNaffinity_variance>
0.2149304599

$$$$
[H]c1nn([H])c([H])c1-c1c([H])c([H])c2c(nc([H])n2-c2sc(C(=O)N([H])[H])c(O[C@@]([H])(c3c([H])c([H])c([H])c([H])c3C(F)(F)F)C([H])([H])[H])c2[H])c1[H]


 38 42  0  0  0  0  0  0  0  0999 V2000
   57.2636   -4.8717  -10.7704 C   0  0  0  0  0  0  0  0  0  0  0  0
   56.0188   -4.4098  -10.6836 C   0  0  0  0  0  0  0  0  0  0  0  0
   55.4674   -4.2606   -9.4286 C   0  0  0  0  0  0  0  0  0  0  0  0
   56.7259   -4.7788   -8.4062 S   0  0  0  0  0  0  0  0  0  0  0  0
   57.9020   -5.1658   -9.5712 C   0  0  0  0  0  0  0  0  0  0  0  0
   54.1496   -3.7795   -9.1128 N   0  0  0  0  0  0  0  0  0  0  0  0
   53.3562   -2.9323   -9.7749 C   0  0  0  0  0  0  0  0  0  0  0  0
   52.1930   -2.7607   -9.1099 N   0  0  0  0  0  0  0  0  0  0  0  0
   52.2328   -3.5002   -8.0117 C   0  0  0  0  0  0  0  0  0  0  0  0
   51.3814   -3.7536   -6.9466 C   0  0  0  0  0  0  0  0  0  0  0  0
   51.6858   -4.5936   -5.9063 C   0  0  0  0  0  0  0  0  0  0  0  0
   52.9192   -5.2163   -5.9379 C   0  0  0  0  0  0  0  0  0  0  0  0
   53.7963   -4.9960   -6.9729 C   0  0  0  0  0  0  0  0  0  0  0  0
   53.4761   -4.1458   -8.0162 C   0  0  0  0  0  0  0  0  0  0  0  0
   50.7438   -4.8149   -4.8183 C   0  0  0  0  0  0  0  0  0  0  0  0
   50.9195   -5.7184   -3.7825 C   0  0  0  0  0  0  0  0  0  0  0  0
   49.8385   -5.6260   -2.9886 N   0  0  0  0  0  0  0  0  0  0  0  0
   48.9847   -4.7284   -3.4429 N   0  0  0  0  0  0  0  0  0  0  0  0
   49.5233   -4.2170   -4.5689 C   0  0  0  0  0  0  0  0  0  0  0  0
   48.0548   -4.4633   -3.0031 H   0  0  0  0  0  0  0  0  0  0  0  0
   59.2480   -5.6802   -9.3357 C   0  0  0  0  0  0  0  0  0  0  0  0
   60.1180   -5.9249  -10.4082 N   0  0  0  0  0  0  0  0  0  0  0  0
   59.6066   -5.8972   -8.1590 O   0  0  0  0  0  0  0  0  0  0  0  0
   61.1522   -5.7478  -10.3236 H   0  0  0  0  0  0  0  0  0  0  0  0
   59.8038   -6.2894  -11.3363 H   0  0  0  0  0  0  0  0  0  0  0  0
   58.0011   -5.0921  -11.9623 O   0  0  0  0  0  0  0  0  0  0  0  0
   58.4555   -2.7433  -11.8088 C   0  0  0  0  0  0  0  0  0  0  0  0
   58.5050   -4.0486  -12.6856 C   0  0  0  0  0  0  0  0  0  0  0  0
   58.0267   -3.7591  -14.0177 C   0  0  0  0  0  0  0  0  0  0  0  0
   56.6572   -3.8936  -14.3041 C   0  0  0  0  0  0  0  0  0  0  0  0
   56.1008   -3.6222  -15.5242 C   0  0  0  0  0  0  0  0  0  0  0  0
   56.9141   -3.1890  -16.5496 C   0  0  0  0  0  0  0  0  0  0  0  0
   58.2440   -3.0533  -16.2911 C   0  0  0  0  0  0  0  0  0  0  0  0
   58.8273   -3.3324  -15.0332 C   0  0  0  0  0  0  0  0  0  0  0  0
   60.2611   -3.1883  -14.8558 C   0  0  0  0  0  0  0  0  0  0  0  0
   60.8066   -2.8845  -16.1369 F   0  0  0  0  0  0  0  0  0  0  0  0
   60.6861   -2.1377  -14.0886 F   0  0  0  0  0  0  0  0  0  0  0  0
   60.9255   -4.3829  -14.6124 F   0  0  0  0  0  0  0  0  0  0  0  0
 27 28  1  0  0  0
 28 26  1  0  0  0
 26  1  1  0  0  0
  1  2  1  0  0  0
  2  3  2  0  0  0
  3  4  1  0  0  0
  4  5  1  0  0  0
  5 21  1  0  0  0
 21 22  1  0  0  0
 21 23  2  0  0  0
  3  6  1  0  0  0
  6  7  1  0  0  0
  7  8  2  0  0  0
  8  9  1  0  0  0
  9 10  2  0  0  0
 10 11  1  0  0  0
 11 12  2  0  0  0
 12 13  1  0  0  0
 13 14  2  0  0  0
 11 15  1  0  0  0
 15 16  1  0  0  0
 16 17  2  0  0  0
 17 18  1  0  0  0
 18 19  1  0  0  0
 28 29  1  0  0  0
 29 30  2  0  0  0
 30 31  1  0  0  0
 31 32  2  0  0  0
 32 33  1  0  0  0
 33 34  2  0  0  0
 34 35  1  0  0  0
 35 36  1  0  0  0
 35 37  1  0  0  0
 35 38  1  0  0  0
  5  1  2  0  0  0
 14  6  1  0  0  0
 19 15  2  0  0  0
 34 29  1  0  0  0
 14  9  1  0  0  0
 22 24  1  0  0  0
 22 25  1  0  0  0
 18 20  1  0  0  0
M  END
> <minimizedAffinity>
-8.30385

> <CNNscore>
0.5148449540

> <CNNaffinity>
7.1701917648

> <CNN_VS>
3.6915371418

> <CNNaffinity_variance>
0.1511634886

$$$$
[H]c1nn([H])c([H])c1-c1c([H])c([H])c2c(nc([H])n2-c2sc(C(=O)N([H])[H])c(O[C@@]([H])(c3c([H])c([H])c([H])c([H])c3C(F)(F)F)C([H])([H])[H])c2[H])c1[H]


 38 42  0  0  0  0  0  0  0  0999 V2000
   51.1785   -5.0269   -5.2530 C   0  0  0  0  0  0  0  0  0  0  0  0
   52.0533   -4.9713   -6.2540 C   0  0  0  0  0  0  0  0  0  0  0  0
   51.8953   -3.9809   -7.2003 C   0  0  0  0  0  0  0  0  0  0  0  0
   50.5126   -3.1563   -6.6474 S   0  0  0  0  0  0  0  0  0  0  0  0
   50.1717   -4.0685   -5.2539 C   0  0  0  0  0  0  0  0  0  0  0  0
   52.7228   -3.7430   -8.3520 N   0  0  0  0  0  0  0  0  0  0  0  0
   52.4571   -3.0931   -9.4890 C   0  0  0  0  0  0  0  0  0  0  0  0
   53.5340   -3.1126  -10.3042 N   0  0  0  0  0  0  0  0  0  0  0  0
   54.5022   -3.7783   -9.6926 C   0  0  0  0  0  0  0  0  0  0  0  0
   55.8092   -4.1363   -9.9878 C   0  0  0  0  0  0  0  0  0  0  0  0
   56.6164   -4.8529   -9.1419 C   0  0  0  0  0  0  0  0  0  0  0  0
   56.0783   -5.2326   -7.9268 C   0  0  0  0  0  0  0  0  0  0  0  0
   54.7876   -4.9008   -7.5903 C   0  0  0  0  0  0  0  0  0  0  0  0
   53.9843   -4.1773   -8.4536 C   0  0  0  0  0  0  0  0  0  0  0  0
   57.9814   -5.1952   -9.5154 C   0  0  0  0  0  0  0  0  0  0  0  0
   58.5172   -5.0643  -10.7865 C   0  0  0  0  0  0  0  0  0  0  0  0
   59.7935   -5.4819  -10.7233 N   0  0  0  0  0  0  0  0  0  0  0  0
   60.1115   -5.8703   -9.5030 N   0  0  0  0  0  0  0  0  0  0  0  0
   59.0096   -5.7017   -8.7436 C   0  0  0  0  0  0  0  0  0  0  0  0
   61.0544   -6.2427   -9.1854 H   0  0  0  0  0  0  0  0  0  0  0  0
   49.0781   -3.8673   -4.3076 C   0  0  0  0  0  0  0  0  0  0  0  0
   48.8479   -4.7873   -3.2745 N   0  0  0  0  0  0  0  0  0  0  0  0
   48.3533   -2.8585   -4.4390 O   0  0  0  0  0  0  0  0  0  0  0  0
   48.5193   -4.4717   -2.3255 H   0  0  0  0  0  0  0  0  0  0  0  0
   48.9841   -5.8187   -3.3774 H   0  0  0  0  0  0  0  0  0  0  0  0
   51.1726   -5.9646   -4.1881 O   0  0  0  0  0  0  0  0  0  0  0  0
   53.4101   -6.8098   -4.3494 C   0  0  0  0  0  0  0  0  0  0  0  0
   52.2908   -6.1875   -3.4357 C   0  0  0  0  0  0  0  0  0  0  0  0
   52.2226   -6.9113   -2.1872 C   0  0  0  0  0  0  0  0  0  0  0  0
   51.3957   -8.0437   -2.0897 C   0  0  0  0  0  0  0  0  0  0  0  0
   51.2787   -8.8104   -0.9626 C   0  0  0  0  0  0  0  0  0  0  0  0
   52.0071   -8.4701    0.1573 C   0  0  0  0  0  0  0  0  0  0  0  0
   52.8134   -7.3756    0.0819 C   0  0  0  0  0  0  0  0  0  0  0  0
   52.9396   -6.5773   -1.0788 C   0  0  0  0  0  0  0  0  0  0  0  0
   53.8014   -5.4090   -1.0597 C   0  0  0  0  0  0  0  0  0  0  0  0
   53.1195   -4.3819   -1.7746 F   0  0  0  0  0  0  0  0  0  0  0  0
   54.0296   -4.8295    0.1590 F   0  0  0  0  0  0  0  0  0  0  0  0
   54.9290   -5.5227   -1.8618 F   0  0  0  0  0  0  0  0  0  0  0  0
 27 28  1  0  0  0
 28 26  1  0  0  0
 26  1  1  0  0  0
  1  2  1  0  0  0
  2  3  2  0  0  0
  3  4  1  0  0  0
  4  5  1  0  0  0
  5 21  1  0  0  0
 21 22  1  0  0  0
 21 23  2  0  0  0
  3  6  1  0  0  0
  6  7  1  0  0  0
  7  8  2  0  0  0
  8  9  1  0  0  0
  9 10  2  0  0  0
 10 11  1  0  0  0
 11 12  2  0  0  0
 12 13  1  0  0  0
 13 14  2  0  0  0
 11 15  1  0  0  0
 15 16  1  0  0  0
 16 17  2  0  0  0
 17 18  1  0  0  0
 18 19  1  0  0  0
 28 29  1  0  0  0
 29 30  2  0  0  0
 30 31  1  0  0  0
 31 32  2  0  0  0
 32 33  1  0  0  0
 33 34  2  0  0  0
 34 35  1  0  0  0
 35 36  1  0  0  0
 35 37  1  0  0  0
 35 38  1  0  0  0
  5  1  2  0  0  0
 14  6  1  0  0  0
 19 15  2  0  0  0
 34 29  1  0  0  0
 14  9  1  0  0  0
 22 24  1  0  0  0
 22 25  1  0  0  0
 18 20  1  0  0  0
M  END
> <minimizedAffinity>
-9.84854

> <CNNscore>
0.4923187196

> <CNNaffinity>
7.6144247055

> <CNN_VS>
3.7487237453

> <CNNaffinity_variance>
0.2544271350

$$$$
[H]c1nn([H])c([H])c1-c1c([H])c([H])c2c(nc([H])n2-c2sc(C(=O)N([H])[H])c(O[C@@]([H])(c3c([H])c([H])c([H])c([H])c3C(F)(F)F)C([H])([H])[H])c2[H])c1[H]


 38 42  0  0  0  0  0  0  0  0999 V2000
   51.0473   -4.6996   -4.9339 C   0  0  0  0  0  0  0  0  0  0  0  0
   51.9407   -4.6462   -5.9185 C   0  0  0  0  0  0  0  0  0  0  0  0
   51.6678   -3.8353   -6.9998 C   0  0  0  0  0  0  0  0  0  0  0  0
   50.1540   -3.1714   -6.5932 S   0  0  0  0  0  0  0  0  0  0  0  0
   49.9052   -3.9226   -5.0886 C   0  0  0  0  0  0  0  0  0  0  0  0
   52.4922   -3.6323   -8.1604 N   0  0  0  0  0  0  0  0  0  0  0  0
   52.2253   -3.0116   -9.3133 C   0  0  0  0  0  0  0  0  0  0  0  0
   53.2990   -3.0582  -10.1316 N   0  0  0  0  0  0  0  0  0  0  0  0
   54.2662   -3.7122   -9.5061 C   0  0  0  0  0  0  0  0  0  0  0  0
   55.5703   -4.0844   -9.7964 C   0  0  0  0  0  0  0  0  0  0  0  0
   56.3772   -4.7822   -8.9347 C   0  0  0  0  0  0  0  0  0  0  0  0
   55.8418   -5.1267   -7.7079 C   0  0  0  0  0  0  0  0  0  0  0  0
   54.5541   -4.7796   -7.3757 C   0  0  0  0  0  0  0  0  0  0  0  0
   53.7511   -4.0755   -8.2550 C   0  0  0  0  0  0  0  0  0  0  0  0
   57.7391   -5.1411   -9.3039 C   0  0  0  0  0  0  0  0  0  0  0  0
   58.7246   -5.5481   -8.4189 C   0  0  0  0  0  0  0  0  0  0  0  0
   59.8328   -5.7858   -9.1420 N   0  0  0  0  0  0  0  0  0  0  0  0
   59.6260   -5.5598  -10.4254 N   0  0  0  0  0  0  0  0  0  0  0  0
   58.3428   -5.1620  -10.5467 C   0  0  0  0  0  0  0  0  0  0  0  0
   60.3360   -5.6713  -11.2078 H   0  0  0  0  0  0  0  0  0  0  0  0
   48.7582   -3.7672   -4.1986 C   0  0  0  0  0  0  0  0  0  0  0  0
   48.4917   -4.7181   -3.2027 N   0  0  0  0  0  0  0  0  0  0  0  0
   48.0207   -2.7696   -4.3442 O   0  0  0  0  0  0  0  0  0  0  0  0
   48.1058   -4.4336   -2.2656 H   0  0  0  0  0  0  0  0  0  0  0  0
   48.6547   -5.7436   -3.3237 H   0  0  0  0  0  0  0  0  0  0  0  0
   51.1457   -5.4684   -3.7454 O   0  0  0  0  0  0  0  0  0  0  0  0
   51.4271   -7.5617   -2.6115 C   0  0  0  0  0  0  0  0  0  0  0  0
   51.9932   -6.5365   -3.6619 C   0  0  0  0  0  0  0  0  0  0  0  0
   53.4107   -6.3544   -3.4501 C   0  0  0  0  0  0  0  0  0  0  0  0
   54.3177   -6.7991   -4.4274 C   0  0  0  0  0  0  0  0  0  0  0  0
   55.6749   -6.6536   -4.3339 C   0  0  0  0  0  0  0  0  0  0  0  0
   56.2070   -6.0360   -3.2222 C   0  0  0  0  0  0  0  0  0  0  0  0
   55.3438   -5.5990   -2.2643 C   0  0  0  0  0  0  0  0  0  0  0  0
   53.9399   -5.7461   -2.3527 C   0  0  0  0  0  0  0  0  0  0  0  0
   53.0963   -5.2763   -1.2685 C   0  0  0  0  0  0  0  0  0  0  0  0
   52.3089   -4.2096   -1.7912 F   0  0  0  0  0  0  0  0  0  0  0  0
   52.1518   -6.1479   -0.7983 F   0  0  0  0  0  0  0  0  0  0  0  0
   53.7788   -4.5805   -0.2794 F   0  0  0  0  0  0  0  0  0  0  0  0
 27 28  1  0  0  0
 28 26  1  0  0  0
 26  1  1  0  0  0
  1  2  1  0  0  0
  2  3  2  0  0  0
  3  4  1  0  0  0
  4  5  1  0  0  0
  5 21  1  0  0  0
 21 22  1  0  0  0
 21 23  2  0  0  0
  3  6  1  0  0  0
  6  7  1  0  0  0
  7  8  2  0  0  0
  8  9  1  0  0  0
  9 10  2  0  0  0
 10 11  1  0  0  0
 11 12  2  0  0  0
 12 13  1  0  0  0
 13 14  2  0  0  0
 11 15  1  0  0  0
 15 16  1  0  0  0
 16 17  2  0  0  0
 17 18  1  0  0  0
 18 19  1  0  0  0
 28 29  1  0  0  0
 29 30  2  0  0  0
 30 31  1  0  0  0
 31 32  2  0  0  0
 32 33  1  0  0  0
 33 34  2  0  0  0
 34 35  1  0  0  0
 35 36  1  0  0  0
 35 37  1  0  0  0
 35 38  1  0  0  0
  5  1  2  0  0  0
 14  6  1  0  0  0
 19 15  2  0  0  0
 34 29  1  0  0  0
 14  9  1  0  0  0
 22 24  1  0  0  0
 22 25  1  0  0  0
 18 20  1  0  0  0
M  END
> <minimizedAffinity>
-9.37872

> <CNNscore>
0.4652808905

> <CNNaffinity>
7.7893514633

> <CNN_VS>
3.6242363453

> <CNNaffinity_variance>
0.2053623646

$$$$
[H]c1nn([H])c([H])c1-c1c([H])c([H])c2c(nc([H])n2-c2sc(C(=O)N([H])[H])c(O[C@@]([H])(c3c([H])c([H])c([H])c([H])c3C(F)(F)F)C([H])([H])[H])c2[H])c1[H]


 38 42  0  0  0  0  0  0  0  0999 V2000
   53.2580   -4.3570   -7.4337 C   0  0  0  0  0  0  0  0  0  0  0  0
   54.3953   -4.6133   -8.0750 C   0  0  0  0  0  0  0  0  0  0  0  0
   54.5738   -4.0622   -9.3263 C   0  0  0  0  0  0  0  0  0  0  0  0
   53.1266   -3.1972   -9.5608 S   0  0  0  0  0  0  0  0  0  0  0  0
   52.3417   -3.5466   -8.0938 C   0  0  0  0  0  0  0  0  0  0  0  0
   55.7196   -4.2097  -10.1826 N   0  0  0  0  0  0  0  0  0  0  0  0
   55.8901   -3.8753  -11.4650 C   0  0  0  0  0  0  0  0  0  0  0  0
   57.1369   -4.1972  -11.8729 N   0  0  0  0  0  0  0  0  0  0  0  0
   57.7775   -4.7428  -10.8500 C   0  0  0  0  0  0  0  0  0  0  0  0
   59.0428   -5.2655  -10.6276 C   0  0  0  0  0  0  0  0  0  0  0  0
   59.4568   -5.7841   -9.4275 C   0  0  0  0  0  0  0  0  0  0  0  0
   58.5451   -5.7773   -8.3887 C   0  0  0  0  0  0  0  0  0  0  0  0
   57.2796   -5.2697   -8.5619 C   0  0  0  0  0  0  0  0  0  0  0  0
   56.8752   -4.7496   -9.7783 C   0  0  0  0  0  0  0  0  0  0  0  0
   60.8016   -6.3173   -9.2627 C   0  0  0  0  0  0  0  0  0  0  0  0
   61.3573   -6.7222   -8.0596 C   0  0  0  0  0  0  0  0  0  0  0  0
   62.6046   -7.1488   -8.3231 N   0  0  0  0  0  0  0  0  0  0  0  0
   62.8858   -7.0455   -9.6082 N   0  0  0  0  0  0  0  0  0  0  0  0
   61.7887   -6.5357  -10.2047 C   0  0  0  0  0  0  0  0  0  0  0  0
   63.8005   -7.3136  -10.0771 H   0  0  0  0  0  0  0  0  0  0  0  0
   51.0239   -3.0895   -7.6623 C   0  0  0  0  0  0  0  0  0  0  0  0
   50.7019   -1.7246   -7.6712 N   0  0  0  0  0  0  0  0  0  0  0  0
   50.1909   -3.9407   -7.2854 O   0  0  0  0  0  0  0  0  0  0  0  0
   49.7336   -1.3937   -7.9180 H   0  0  0  0  0  0  0  0  0  0  0  0
   51.3847   -0.9676   -7.4394 H   0  0  0  0  0  0  0  0  0  0  0  0
   52.8901   -4.8273   -6.1465 O   0  0  0  0  0  0  0  0  0  0  0  0
   53.9836   -6.9414   -5.8614 C   0  0  0  0  0  0  0  0  0  0  0  0
   53.7902   -5.4685   -5.3437 C   0  0  0  0  0  0  0  0  0  0  0  0
   53.6436   -5.4725   -3.9064 C   0  0  0  0  0  0  0  0  0  0  0  0
   54.7906   -5.4298   -3.0952 C   0  0  0  0  0  0  0  0  0  0  0  0
   54.7595   -5.4061   -1.7276 C   0  0  0  0  0  0  0  0  0  0  0  0
   53.5399   -5.4244   -1.0851 C   0  0  0  0  0  0  0  0  0  0  0  0
   52.4175   -5.4664   -1.8546 C   0  0  0  0  0  0  0  0  0  0  0  0
   52.4407   -5.4919   -3.2685 C   0  0  0  0  0  0  0  0  0  0  0  0
   51.1938   -5.5668   -4.0085 C   0  0  0  0  0  0  0  0  0  0  0  0
   50.1707   -5.8677   -3.0631 F   0  0  0  0  0  0  0  0  0  0  0  0
   50.7451   -4.4081   -4.5820 F   0  0  0  0  0  0  0  0  0  0  0  0
   51.0811   -6.6894   -4.8180 F   0  0  0  0  0  0  0  0  0  0  0  0
 27 28  1  0  0  0
 28 26  1  0  0  0
 26  1  1  0  0  0
  1  2  1  0  0  0
  2  3  2  0  0  0
  3  4  1  0  0  0
  4  5  1  0  0  0
  5 21  1  0  0  0
 21 22  1  0  0  0
 21 23  2  0  0  0
  3  6  1  0  0  0
  6  7  1  0  0  0
  7  8  2  0  0  0
  8  9  1  0  0  0
  9 10  2  0  0  0
 10 11  1  0  0  0
 11 12  2  0  0  0
 12 13  1  0  0  0
 13 14  2  0  0  0
 11 15  1  0  0  0
 15 16  1  0  0  0
 16 17  2  0  0  0
 17 18  1  0  0  0
 18 19  1  0  0  0
 28 29  1  0  0  0
 29 30  2  0  0  0
 30 31  1  0  0  0
 31 32  2  0  0  0
 32 33  1  0  0  0
 33 34  2  0  0  0
 34 35  1  0  0  0
 35 36  1  0  0  0
 35 37  1  0  0  0
 35 38  1  0  0  0
  5  1  2  0  0  0
 14  6  1  0  0  0
 19 15  2  0  0  0
 34 29  1  0  0  0
 14  9  1  0  0  0
 22 24  1  0  0  0
 22 25  1  0  0  0
 18 20  1  0  0  0
M  END
> <minimizedAffinity>
-9.20898

> <CNNscore>
0.3828194439

> <CNNaffinity>
7.3865966797

> <CNN_VS>
2.8277328014

> <CNNaffinity_variance>
0.2030858099

$$$$
[H]c1nn([H])c([H])c1-c1c([H])c([H])c2c(nc([H])n2-c2sc(C(=O)N([H])[H])c(O[C@@]([H])(c3c([H])c([H])c([H])c([H])c3C(F)(F)F)C([H])([H])[H])c2[H])c1[H]


 38 42  0  0  0  0  0  0  0  0999 V2000
   58.7941   -5.3782  -10.4654 C   0  0  0  0  0  0  0  0  0  0  0  0
   57.7098   -5.2741   -9.7013 C   0  0  0  0  0  0  0  0  0  0  0  0
   57.8149   -5.6286   -8.3729 C   0  0  0  0  0  0  0  0  0  0  0  0
   59.4454   -6.1001   -8.2425 S   0  0  0  0  0  0  0  0  0  0  0  0
   59.9486   -5.8418   -9.8456 C   0  0  0  0  0  0  0  0  0  0  0  0
   56.7746   -5.5899   -7.3809 N   0  0  0  0  0  0  0  0  0  0  0  0
   56.7568   -6.0525   -6.1274 C   0  0  0  0  0  0  0  0  0  0  0  0
   55.5629   -5.7979   -5.5493 N   0  0  0  0  0  0  0  0  0  0  0  0
   54.8033   -5.1672   -6.4325 C   0  0  0  0  0  0  0  0  0  0  0  0
   53.5164   -4.6506   -6.4549 C   0  0  0  0  0  0  0  0  0  0  0  0
   52.9617   -4.0242   -7.5416 C   0  0  0  0  0  0  0  0  0  0  0  0
   53.7469   -3.9102   -8.6732 C   0  0  0  0  0  0  0  0  0  0  0  0
   55.0282   -4.4070   -8.6979 C   0  0  0  0  0  0  0  0  0  0  0  0
   55.5751   -5.0367   -7.5942 C   0  0  0  0  0  0  0  0  0  0  0  0
   51.6026   -3.5040   -7.4969 C   0  0  0  0  0  0  0  0  0  0  0  0
   50.5063   -4.1796   -6.9852 C   0  0  0  0  0  0  0  0  0  0  0  0
   49.4418   -3.3705   -7.1250 N   0  0  0  0  0  0  0  0  0  0  0  0
   49.7793   -2.2265   -7.6893 N   0  0  0  0  0  0  0  0  0  0  0  0
   51.1057   -2.2882   -7.9262 C   0  0  0  0  0  0  0  0  0  0  0  0
   49.1285   -1.4168   -7.9116 H   0  0  0  0  0  0  0  0  0  0  0  0
   61.2795   -6.0629  -10.4039 C   0  0  0  0  0  0  0  0  0  0  0  0
   62.3645   -6.3652   -9.5683 N   0  0  0  0  0  0  0  0  0  0  0  0
   61.4296   -5.9768  -11.6410 O   0  0  0  0  0  0  0  0  0  0  0  0
   63.1182   -7.0341   -9.8726 H   0  0  0  0  0  0  0  0  0  0  0  0
   62.4915   -5.9565   -8.6145 H   0  0  0  0  0  0  0  0  0  0  0  0
   58.8876   -5.0631  -11.8457 O   0  0  0  0  0  0  0  0  0  0  0  0
   57.2814   -3.3317  -11.4345 C   0  0  0  0  0  0  0  0  0  0  0  0
   58.4676   -3.8551  -12.3256 C   0  0  0  0  0  0  0  0  0  0  0  0
   58.1447   -3.6740  -13.7221 C   0  0  0  0  0  0  0  0  0  0  0  0
   56.8099   -3.7997  -14.1442 C   0  0  0  0  0  0  0  0  0  0  0  0
   56.3968   -3.6246  -15.4367 C   0  0  0  0  0  0  0  0  0  0  0  0
   57.3295   -3.3048  -16.4002 C   0  0  0  0  0  0  0  0  0  0  0  0
   58.6279   -3.1794  -16.0102 C   0  0  0  0  0  0  0  0  0  0  0  0
   59.0634   -3.3594  -14.6766 C   0  0  0  0  0  0  0  0  0  0  0  0
   60.4741   -3.2354  -14.3562 C   0  0  0  0  0  0  0  0  0  0  0  0
   60.5774   -2.2635  -13.3190 F   0  0  0  0  0  0  0  0  0  0  0  0
   61.0813   -4.3315  -13.8059 F   0  0  0  0  0  0  0  0  0  0  0  0
   61.2235   -2.5936  -15.3332 F   0  0  0  0  0  0  0  0  0  0  0  0
 27 28  1  0  0  0
 28 26  1  0  0  0
 26  1  1  0  0  0
  1  2  1  0  0  0
  2  3  2  0  0  0
  3  4  1  0  0  0
  4  5  1  0  0  0
  5 21  1  0  0  0
 21 22  1  0  0  0
 21 23  2  0  0  0
  3  6  1  0  0  0
  6  7  1  0  0  0
  7  8  2  0  0  0
  8  9  1  0  0  0
  9 10  2  0  0  0
 10 11  1  0  0  0
 11 12  2  0  0  0
 12 13  1  0  0  0
 13 14  2  0  0  0
 11 15  1  0  0  0
 15 16  1  0  0  0
 16 17  2  0  0  0
 17 18  1  0  0  0
 18 19  1  0  0  0
 28 29  1  0  0  0
 29 30  2  0  0  0
 30 31  1  0  0  0
 31 32  2  0  0  0
 32 33  1  0  0  0
 33 34  2  0  0  0
 34 35  1  0  0  0
 35 36  1  0  0  0
 35 37  1  0  0  0
 35 38  1  0  0  0
  5  1  2  0  0  0
 14  6  1  0  0  0
 19 15  2  0  0  0
 34 29  1  0  0  0
 14  9  1  0  0  0
 22 24  1  0  0  0
 22 25  1  0  0  0
 18 20  1  0  0  0
M  END
> <minimizedAffinity>
-7.30201

> <CNNscore>
0.3578555882

> <CNNaffinity>
6.9907135963

> <CNN_VS>
2.5016658306

> <CNNaffinity_variance>
0.1322923750

$$$$
[H]c1nn([H])c([H])c1-c1c([H])c([H])c2c(nc([H])n2-c2sc(C(=O)N([H])[H])c(O[C@@]([H])(c3c([H])c([H])c([H])c([H])c3C(F)(F)F)C([H])([H])[H])c2[H])c1[H]


 38 42  0  0  0  0  0  0  0  0999 V2000
   59.1392   -5.0422  -11.0105 C   0  0  0  0  0  0  0  0  0  0  0  0
   58.0771   -5.1086  -10.2118 C   0  0  0  0  0  0  0  0  0  0  0  0
   56.9594   -4.3777  -10.5554 C   0  0  0  0  0  0  0  0  0  0  0  0
   57.4431   -3.6164  -11.9991 S   0  0  0  0  0  0  0  0  0  0  0  0
   59.0227   -4.2305  -12.1329 C   0  0  0  0  0  0  0  0  0  0  0  0
   55.7146   -4.3099   -9.8388 N   0  0  0  0  0  0  0  0  0  0  0  0
   54.5103   -3.8874  -10.2347 C   0  0  0  0  0  0  0  0  0  0  0  0
   53.6178   -4.0008   -9.2272 N   0  0  0  0  0  0  0  0  0  0  0  0
   54.2466   -4.4991   -8.1733 C   0  0  0  0  0  0  0  0  0  0  0  0
   53.9022   -4.8417   -6.8743 C   0  0  0  0  0  0  0  0  0  0  0  0
   54.7841   -5.3565   -5.9588 C   0  0  0  0  0  0  0  0  0  0  0  0
   56.0900   -5.5379   -6.3734 C   0  0  0  0  0  0  0  0  0  0  0  0
   56.4780   -5.2129   -7.6512 C   0  0  0  0  0  0  0  0  0  0  0  0
   55.5776   -4.6943   -8.5645 C   0  0  0  0  0  0  0  0  0  0  0  0
   54.3549   -5.6951   -4.6094 C   0  0  0  0  0  0  0  0  0  0  0  0
   53.0984   -6.1686   -4.2672 C   0  0  0  0  0  0  0  0  0  0  0  0
   53.0961   -6.3601   -2.9365 N   0  0  0  0  0  0  0  0  0  0  0  0
   54.2609   -6.0428   -2.4040 N   0  0  0  0  0  0  0  0  0  0  0  0
   55.0505   -5.6310   -3.4171 C   0  0  0  0  0  0  0  0  0  0  0  0
   54.5214   -6.1022   -1.3758 H   0  0  0  0  0  0  0  0  0  0  0  0
   59.9959   -3.9530  -13.1853 C   0  0  0  0  0  0  0  0  0  0  0  0
   59.8168   -2.8695  -14.0575 N   0  0  0  0  0  0  0  0  0  0  0  0
   60.9904   -4.7014  -13.2909 O   0  0  0  0  0  0  0  0  0  0  0  0
   60.6362   -2.3086  -14.4069 H   0  0  0  0  0  0  0  0  0  0  0  0
   58.8826   -2.5573  -14.4079 H   0  0  0  0  0  0  0  0  0  0  0  0
   60.3745   -5.7167  -10.8303 O   0  0  0  0  0  0  0  0  0  0  0  0
   59.8035   -5.8057   -8.5037 C   0  0  0  0  0  0  0  0  0  0  0  0
   60.6368   -6.4194   -9.6887 C   0  0  0  0  0  0  0  0  0  0  0  0
   61.9926   -6.6659   -9.2545 C   0  0  0  0  0  0  0  0  0  0  0  0
   62.5252   -5.9143   -8.1929 C   0  0  0  0  0  0  0  0  0  0  0  0
   63.7867   -6.0858   -7.6919 C   0  0  0  0  0  0  0  0  0  0  0  0
   64.6023   -7.0487   -8.2468 C   0  0  0  0  0  0  0  0  0  0  0  0
   64.1038   -7.7865   -9.2768 C   0  0  0  0  0  0  0  0  0  0  0  0
   62.8014   -7.6152   -9.8011 C   0  0  0  0  0  0  0  0  0  0  0  0
   62.3632   -8.4273  -10.9220 C   0  0  0  0  0  0  0  0  0  0  0  0
   63.3801   -9.3997  -11.1491 F   0  0  0  0  0  0  0  0  0  0  0  0
   61.2471   -9.1955  -10.7294 F   0  0  0  0  0  0  0  0  0  0  0  0
   62.4069   -7.7746  -12.1468 F   0  0  0  0  0  0  0  0  0  0  0  0
 27 28  1  0  0  0
 28 26  1  0  0  0
 26  1  1  0  0  0
  1  2  1  0  0  0
  2  3  2  0  0  0
  3  4  1  0  0  0
  4  5  1  0  0  0
  5 21  1  0  0  0
 21 22  1  0  0  0
 21 23  2  0  0  0
  3  6  1  0  0  0
  6  7  1  0  0  0
  7  8  2  0  0  0
  8  9  1  0  0  0
  9 10  2  0  0  0
 10 11  1  0  0  0
 11 12  2  0  0  0
 12 13  1  0  0  0
 13 14  2  0  0  0
 11 15  1  0  0  0
 15 16  1  0  0  0
 16 17  2  0  0  0
 17 18  1  0  0  0
 18 19  1  0  0  0
 28 29  1  0  0  0
 29 30  2  0  0  0
 30 31  1  0  0  0
 31 32  2  0  0  0
 32 33  1  0  0  0
 33 34  2  0  0  0
 34 35  1  0  0  0
 35 36  1  0  0  0
 35 37  1  0  0  0
 35 38  1  0  0  0
  5  1  2  0  0  0
 14  6  1  0  0  0
 19 15  2  0  0  0
 34 29  1  0  0  0
 14  9  1  0  0  0
 22 24  1  0  0  0
 22 25  1  0  0  0
 18 20  1  0  0  0
M  END
> <minimizedAffinity>
-7.40367

> <CNNscore>
0.2913624644

> <CNNaffinity>
6.5854468346

> <CNN_VS>
1.9187520742

> <CNNaffinity_variance>
0.1570235491

$$$$
[H]c1nc(N([H])c2c([H])c([H])c(N3C([H])([H])C([H])([H])C([H])(N(C([H])([H])[H])C([H])([H])[H])C([H])([H])C3([H])[H])c([H])c2OC([H])([H])[H])nc2c1N(C([H])([H])[H])C(=O)[C@@]([H])(C([H])([H])[H])N2C1([H])C([H])([H])C([H])([H])C([H])([H])C1([H])[H]


 37 41  0  0  0  0  0  0  0  0999 V2000
   55.6246   -3.6327  -10.0128 N   0  0  0  0  0  0  0  0  0  0  0  0
   55.6133   -3.0244  -10.9016 H   0  0  0  0  0  0  0  0  0  0  0  0
   54.4360   -3.5496   -9.2536 C   0  0  0  0  0  0  0  0  0  0  0  0
   53.4592   -2.6551   -9.4095 N   0  0  0  0  0  0  0  0  0  0  0  0
   52.3404   -2.5871   -8.6844 C   0  0  0  0  0  0  0  0  0  0  0  0
   52.1317   -3.5068   -7.6679 C   0  0  0  0  0  0  0  0  0  0  0  0
   50.9610   -3.4679   -6.8733 N   0  0  0  0  0  0  0  0  0  0  0  0
   49.9322   -2.4453   -7.1138 C   0  0  0  0  0  0  0  0  0  0  0  0
   50.8100   -4.4359   -5.8466 C   0  0  0  0  0  0  0  0  0  0  0  0
   50.0255   -4.2078   -4.8864 O   0  0  0  0  0  0  0  0  0  0  0  0
   51.5972   -5.6922   -5.9557 C   0  0  0  0  0  0  0  0  0  0  0  0
   50.8264   -6.6007   -6.8907 C   0  0  0  0  0  0  0  0  0  0  0  0
   52.9467   -5.4285   -6.4322 N   0  0  0  0  0  0  0  0  0  0  0  0
   53.1211   -4.4465   -7.4784 C   0  0  0  0  0  0  0  0  0  0  0  0
   54.2184   -4.4549   -8.2448 N   0  0  0  0  0  0  0  0  0  0  0  0
   54.1103   -6.0762   -5.9344 C   0  0  0  0  0  0  0  0  0  0  0  0
   53.7705   -6.7509   -4.6017 C   0  0  0  0  0  0  0  0  0  0  0  0
   54.3656   -5.9079   -3.5186 C   0  0  0  0  0  0  0  0  0  0  0  0
   55.5600   -5.2726   -4.1502 C   0  0  0  0  0  0  0  0  0  0  0  0
   55.2449   -5.1532   -5.6055 C   0  0  0  0  0  0  0  0  0  0  0  0
   57.5333   -4.7788  -10.8935 C   0  0  0  0  0  0  0  0  0  0  0  0
   58.6924   -5.4983  -10.7385 C   0  0  0  0  0  0  0  0  0  0  0  0
   59.1731   -5.8386   -9.5106 C   0  0  0  0  0  0  0  0  0  0  0  0
   58.4449   -5.4295   -8.4040 C   0  0  0  0  0  0  0  0  0  0  0  0
   57.2573   -4.6921   -8.5707 C   0  0  0  0  0  0  0  0  0  0  0  0
   56.7873   -4.3584   -9.8055 C   0  0  0  0  0  0  0  0  0  0  0  0
   60.3617   -6.5817   -9.3888 N   0  0  0  0  0  0  0  0  0  0  0  0
   60.4138   -7.9088  -10.0403 C   0  0  0  0  0  0  0  0  0  0  0  0
   61.4846   -8.7083   -9.3302 C   0  0  0  0  0  0  0  0  0  0  0  0
   61.3112   -8.5243   -7.8462 C   0  0  0  0  0  0  0  0  0  0  0  0
   61.6613   -7.0999   -7.4637 C   0  0  0  0  0  0  0  0  0  0  0  0
   61.5471   -6.1918   -8.6990 C   0  0  0  0  0  0  0  0  0  0  0  0
   62.1037   -9.4718   -7.0849 N   0  0  0  0  0  0  0  0  0  0  0  0
   61.3203  -10.6916   -6.9454 C   0  0  0  0  0  0  0  0  0  0  0  0
   63.2782   -9.8281   -7.8580 C   0  0  0  0  0  0  0  0  0  0  0  0
   57.9236   -3.7537  -13.0901 C   0  0  0  0  0  0  0  0  0  0  0  0
   57.1426   -4.4912  -12.1985 O   0  0  0  0  0  0  0  0  0  0  0  0
 36 37  1  0  0  0
 37 21  1  0  0  0
 21 22  2  0  0  0
 22 23  1  0  0  0
 23 24  2  0  0  0
 24 25  1  0  0  0
 25 26  2  0  0  0
 26  1  1  0  0  0
  1  3  1  0  0  0
  3  4  2  0  0  0
  4  5  1  0  0  0
  5  6  2  0  0  0
  6  7  1  0  0  0
  7  8  1  0  0  0
  7  9  1  0  0  0
  9 10  2  0  0  0
  9 11  1  0  0  0
 11 12  1  0  0  0
 11 13  1  0  0  0
 13 16  1  0  0  0
 16 17  1  0  0  0
 17 18  1  0  0  0
 18 19  1  0  0  0
 19 20  1  0  0  0
 13 14  1  0  0  0
 14 15  2  0  0  0
 23 27  1  0  0  0
 27 28  1  0  0  0
 28 29  1  0  0  0
 29 30  1  0  0  0
 30 31  1  0  0  0
 31 32  1  0  0  0
 30 33  1  0  0  0
 33 34  1  0  0  0
 33 35  1  0  0  0
 26 21  1  0  0  0
 15  3  1  0  0  0
 32 27  1  0  0  0
 14  6  1  0  0  0
 20 16  1  0  0  0
  1  2  1  0  0  0
M  END
> <minimizedAffinity>
-9.75110

> <CNNscore>
0.9739680290

> <CNNaffinity>
8.3042936325

> <CNN_VS>
8.0881166458

> <CNNaffinity_variance>
0.0343983583

$$$$
[H]c1nc(N([H])c2c([H])c([H])c(N3C([H])([H])C([H])([H])C([H])(N(C([H])([H])[H])C([H])([H])[H])C([H])([H])C3([H])[H])c([H])c2OC([H])([H])[H])nc2c1N(C([H])([H])[H])C(=O)[C@@]([H])(C([H])([H])[H])N2C1([H])C([H])([H])C([H])([H])C([H])([H])C1([H])[H]


 37 41  0  0  0  0  0  0  0  0999 V2000
   55.5588   -3.6102   -9.9376 N   0  0  0  0  0  0  0  0  0  0  0  0
   55.5631   -3.0082  -10.8308 H   0  0  0  0  0  0  0  0  0  0  0  0
   54.3609   -3.5146   -9.1949 C   0  0  0  0  0  0  0  0  0  0  0  0
   53.3957   -2.6100   -9.3642 N   0  0  0  0  0  0  0  0  0  0  0  0
   52.2679   -2.5301   -8.6545 C   0  0  0  0  0  0  0  0  0  0  0  0
   52.0356   -3.4474   -7.6409 C   0  0  0  0  0  0  0  0  0  0  0  0
   50.8545   -3.3960   -6.8626 N   0  0  0  0  0  0  0  0  0  0  0  0
   49.8399   -2.3628   -7.1173 C   0  0  0  0  0  0  0  0  0  0  0  0
   50.6793   -4.3621   -5.8379 C   0  0  0  0  0  0  0  0  0  0  0  0
   49.8842   -4.1256   -4.8886 O   0  0  0  0  0  0  0  0  0  0  0  0
   51.4549   -5.6267   -5.9360 C   0  0  0  0  0  0  0  0  0  0  0  0
   50.6875   -6.5273   -6.8815 C   0  0  0  0  0  0  0  0  0  0  0  0
   52.8134   -5.3772   -6.3940 N   0  0  0  0  0  0  0  0  0  0  0  0
   53.0124   -4.3972   -7.4378 C   0  0  0  0  0  0  0  0  0  0  0  0
   54.1200   -4.4173   -8.1891 N   0  0  0  0  0  0  0  0  0  0  0  0
   53.9632   -6.0369   -5.8802 C   0  0  0  0  0  0  0  0  0  0  0  0
   53.6056   -6.6839   -4.5385 C   0  0  0  0  0  0  0  0  0  0  0  0
   54.2103   -5.8341   -3.4662 C   0  0  0  0  0  0  0  0  0  0  0  0
   55.4185   -5.2299   -4.1021 C   0  0  0  0  0  0  0  0  0  0  0  0
   55.1122   -5.1285   -5.5606 C   0  0  0  0  0  0  0  0  0  0  0  0
   57.4763   -4.7673  -10.7845 C   0  0  0  0  0  0  0  0  0  0  0  0
   58.6289   -5.4923  -10.6091 C   0  0  0  0  0  0  0  0  0  0  0  0
   59.0873   -5.8331   -9.3727 C   0  0  0  0  0  0  0  0  0  0  0  0
   58.3428   -5.4187   -8.2791 C   0  0  0  0  0  0  0  0  0  0  0  0
   57.1619   -4.6756   -8.4668 C   0  0  0  0  0  0  0  0  0  0  0  0
   56.7143   -4.3414   -9.7098 C   0  0  0  0  0  0  0  0  0  0  0  0
   60.2699   -6.5820   -9.2300 N   0  0  0  0  0  0  0  0  0  0  0  0
   60.9673   -6.5260   -7.9265 C   0  0  0  0  0  0  0  0  0  0  0  0
   62.4105   -6.9036   -8.1805 C   0  0  0  0  0  0  0  0  0  0  0  0
   62.8877   -6.1668   -9.4035 C   0  0  0  0  0  0  0  0  0  0  0  0
   62.1878   -6.7108  -10.6332 C   0  0  0  0  0  0  0  0  0  0  0  0
   60.8829   -7.4089  -10.2167 C   0  0  0  0  0  0  0  0  0  0  0  0
   64.3287   -6.2419   -9.5553 N   0  0  0  0  0  0  0  0  0  0  0  0
   64.9291   -5.7544   -8.3212 C   0  0  0  0  0  0  0  0  0  0  0  0
   64.7154   -7.6348   -9.6741 C   0  0  0  0  0  0  0  0  0  0  0  0
   57.9366   -3.8063  -12.9965 C   0  0  0  0  0  0  0  0  0  0  0  0
   57.1090   -4.4797  -12.0963 O   0  0  0  0  0  0  0  0  0  0  0  0
 36 37  1  0  0  0
 37 21  1  0  0  0
 21 22  2  0  0  0
 22 23  1  0  0  0
 23 24  2  0  0  0
 24 25  1  0  0  0
 25 26  2  0  0  0
 26  1  1  0  0  0
  1  3  1  0  0  0
  3  4  2  0  0  0
  4  5  1  0  0  0
  5  6  2  0  0  0
  6  7  1  0  0  0
  7  8  1  0  0  0
  7  9  1  0  0  0
  9 10  2  0  0  0
  9 11  1  0  0  0
 11 12  1  0  0  0
 11 13  1  0  0  0
 13 16  1  0  0  0
 16 17  1  0  0  0
 17 18  1  0  0  0
 18 19  1  0  0  0
 19 20  1  0  0  0
 13 14  1  0  0  0
 14 15  2  0  0  0
 23 27  1  0  0  0
 27 28  1  0  0  0
 28 29  1  0  0  0
 29 30  1  0  0  0
 30 31  1  0  0  0
 31 32  1  0  0  0
 30 33  1  0  0  0
 33 34  1  0  0  0
 33 35  1  0  0  0
 26 21  1  0  0  0
 15  3  1  0  0  0
 32 27  1  0  0  0
 14  6  1  0  0  0
 20 16  1  0  0  0
  1  2  1  0  0  0
M  END
> <minimizedAffinity>
-9.59155

> <CNNscore>
0.9707439542

> <CNNaffinity>
8.2391004562

> <CNN_VS>
7.9980568886

> <CNNaffinity_variance>
0.0208715834

$$$$
[H]c1nc(N([H])c2c([H])c([H])c(N3C([H])([H])C([H])([H])C([H])(N(C([H])([H])[H])C([H])([H])[H])C([H])([H])C3([H])[H])c([H])c2OC([H])([H])[H])nc2c1N(C([H])([H])[H])C(=O)[C@@]([H])(C([H])([H])[H])N2C1([H])C([H])([H])C([H])([H])C([H])([H])C1([H])[H]


 37 41  0  0  0  0  0  0  0  0999 V2000
   55.3441   -3.3146   -9.7911 N   0  0  0  0  0  0  0  0  0  0  0  0
   55.3871   -2.5396  -10.5379 H   0  0  0  0  0  0  0  0  0  0  0  0
   54.1278   -3.3431   -9.0728 C   0  0  0  0  0  0  0  0  0  0  0  0
   53.0261   -2.6470   -9.3557 N   0  0  0  0  0  0  0  0  0  0  0  0
   51.8825   -2.6825   -8.6678 C   0  0  0  0  0  0  0  0  0  0  0  0
   51.7845   -3.5011   -7.5529 C   0  0  0  0  0  0  0  0  0  0  0  0
   50.5916   -3.5658   -6.7938 N   0  0  0  0  0  0  0  0  0  0  0  0
   49.4212   -2.7625   -7.1771 C   0  0  0  0  0  0  0  0  0  0  0  0
   50.5580   -4.4209   -5.6617 C   0  0  0  0  0  0  0  0  0  0  0  0
   49.7085   -4.2172   -4.7527 O   0  0  0  0  0  0  0  0  0  0  0  0
   51.5424   -5.5333   -5.6023 C   0  0  0  0  0  0  0  0  0  0  0  0
   50.9678   -6.6585   -6.4376 C   0  0  0  0  0  0  0  0  0  0  0  0
   52.8495   -5.1060   -6.0784 N   0  0  0  0  0  0  0  0  0  0  0  0
   52.9047   -4.2355   -7.2310 C   0  0  0  0  0  0  0  0  0  0  0  0
   54.0191   -4.1499   -7.9674 N   0  0  0  0  0  0  0  0  0  0  0  0
   54.0814   -5.4901   -5.4818 C   0  0  0  0  0  0  0  0  0  0  0  0
   54.4208   -6.9182   -5.9201 C   0  0  0  0  0  0  0  0  0  0  0  0
   54.1346   -7.8142   -4.7569 C   0  0  0  0  0  0  0  0  0  0  0  0
   54.3599   -6.9554   -3.5566 C   0  0  0  0  0  0  0  0  0  0  0  0
   54.0546   -5.5571   -3.9844 C   0  0  0  0  0  0  0  0  0  0  0  0
   57.0667   -4.3097   -8.4589 C   0  0  0  0  0  0  0  0  0  0  0  0
   58.1875   -5.0893   -8.3132 C   0  0  0  0  0  0  0  0  0  0  0  0
   58.7804   -5.7075   -9.3719 C   0  0  0  0  0  0  0  0  0  0  0  0
   58.2085   -5.5230  -10.6213 C   0  0  0  0  0  0  0  0  0  0  0  0
   57.0593   -4.7222  -10.7629 C   0  0  0  0  0  0  0  0  0  0  0  0
   56.4760   -4.1090   -9.6949 C   0  0  0  0  0  0  0  0  0  0  0  0
   59.9317   -6.4949   -9.1871 N   0  0  0  0  0  0  0  0  0  0  0  0
   60.4839   -6.5968   -7.8184 C   0  0  0  0  0  0  0  0  0  0  0  0
   61.9417   -6.9783   -7.9569 C   0  0  0  0  0  0  0  0  0  0  0  0
   62.5574   -6.1248   -9.0332 C   0  0  0  0  0  0  0  0  0  0  0  0
   61.9891   -6.5160  -10.3830 C   0  0  0  0  0  0  0  0  0  0  0  0
   60.6387   -7.2243  -10.1877 C   0  0  0  0  0  0  0  0  0  0  0  0
   64.0055   -6.2167   -9.0377 N   0  0  0  0  0  0  0  0  0  0  0  0
   64.4975   -5.4984   -7.8702 C   0  0  0  0  0  0  0  0  0  0  0  0
   64.3875   -7.6038   -8.8535 C   0  0  0  0  0  0  0  0  0  0  0  0
   56.8355   -4.1927   -6.0173 C   0  0  0  0  0  0  0  0  0  0  0  0
   56.5509   -3.7295   -7.3030 O   0  0  0  0  0  0  0  0  0  0  0  0
 36 37  1  0  0  0
 37 21  1  0  0  0
 21 22  2  0  0  0
 22 23  1  0  0  0
 23 24  2  0  0  0
 24 25  1  0  0  0
 25 26  2  0  0  0
 26  1  1  0  0  0
  1  3  1  0  0  0
  3  4  2  0  0  0
  4  5  1  0  0  0
  5  6  2  0  0  0
  6  7  1  0  0  0
  7  8  1  0  0  0
  7  9  1  0  0  0
  9 10  2  0  0  0
  9 11  1  0  0  0
 11 12  1  0  0  0
 11 13  1  0  0  0
 13 16  1  0  0  0
 16 17  1  0  0  0
 17 18  1  0  0  0
 18 19  1  0  0  0
 19 20  1  0  0  0
 13 14  1  0  0  0
 14 15  2  0  0  0
 23 27  1  0  0  0
 27 28  1  0  0  0
 28 29  1  0  0  0
 29 30  1  0  0  0
 30 31  1  0  0  0
 31 32  1  0  0  0
 30 33  1  0  0  0
 33 34  1  0  0  0
 33 35  1  0  0  0
 26 21  1  0  0  0
 15  3  1  0  0  0
 32 27  1  0  0  0
 14  6  1  0  0  0
 20 16  1  0  0  0
  1  2  1  0  0  0
M  END
> <minimizedAffinity>
-7.43587

> <CNNscore>
0.9055190682

> <CNNaffinity>
8.0942964554

> <CNN_VS>
7.3295397758

> <CNNaffinity_variance>
0.0789707005

$$$$
[H]c1nc(N([H])c2c([H])c([H])c(N3C([H])([H])C([H])([H])C([H])(N(C([H])([H])[H])C([H])([H])[H])C([H])([H])C3([H])[H])c([H])c2OC([H])([H])[H])nc2c1N(C([H])([H])[H])C(=O)[C@@]([H])(C([H])([H])[H])N2C1([H])C([H])([H])C([H])([H])C([H])([H])C1([H])[H]


 37 41  0  0  0  0  0  0  0  0999 V2000
   56.7266   -4.8099   -9.8587 N   0  0  0  0  0  0  0  0  0  0  0  0
   57.2997   -5.4797   -9.2396 H   0  0  0  0  0  0  0  0  0  0  0  0
   55.4609   -4.4846   -9.3220 C   0  0  0  0  0  0  0  0  0  0  0  0
   54.5264   -3.7304   -9.9020 N   0  0  0  0  0  0  0  0  0  0  0  0
   53.3336   -3.4298   -9.3833 C   0  0  0  0  0  0  0  0  0  0  0  0
   52.9917   -3.9226   -8.1330 C   0  0  0  0  0  0  0  0  0  0  0  0
   51.7389   -3.6250   -7.5455 N   0  0  0  0  0  0  0  0  0  0  0  0
   50.7649   -2.7835   -8.2562 C   0  0  0  0  0  0  0  0  0  0  0  0
   51.4523   -4.1577   -6.2618 C   0  0  0  0  0  0  0  0  0  0  0  0
   50.5679   -3.6150   -5.5458 O   0  0  0  0  0  0  0  0  0  0  0  0
   52.2217   -5.3495   -5.8170 C   0  0  0  0  0  0  0  0  0  0  0  0
   51.5449   -6.5529   -6.4396 C   0  0  0  0  0  0  0  0  0  0  0  0
   53.6218   -5.2456   -6.2000 N   0  0  0  0  0  0  0  0  0  0  0  0
   53.9341   -4.7063   -7.5042 C   0  0  0  0  0  0  0  0  0  0  0  0
   55.1114   -4.9669   -8.0851 N   0  0  0  0  0  0  0  0  0  0  0  0
   54.7076   -5.6414   -5.3721 C   0  0  0  0  0  0  0  0  0  0  0  0
   55.0373   -7.1104   -5.6551 C   0  0  0  0  0  0  0  0  0  0  0  0
   54.5033   -7.9090   -4.5083 C   0  0  0  0  0  0  0  0  0  0  0  0
   54.5644   -6.9789   -3.3420 C   0  0  0  0  0  0  0  0  0  0  0  0
   54.4172   -5.6019   -3.9019 C   0  0  0  0  0  0  0  0  0  0  0  0
   58.7042   -4.6216  -11.1952 C   0  0  0  0  0  0  0  0  0  0  0  0
   59.3602   -4.2488  -12.3422 C   0  0  0  0  0  0  0  0  0  0  0  0
   58.7139   -3.6561  -13.3843 C   0  0  0  0  0  0  0  0  0  0  0  0
   57.3516   -3.4374  -13.2494 C   0  0  0  0  0  0  0  0  0  0  0  0
   56.6857   -3.8223  -12.0703 C   0  0  0  0  0  0  0  0  0  0  0  0
   57.3447   -4.4145  -11.0348 C   0  0  0  0  0  0  0  0  0  0  0  0
   59.4188   -3.2817  -14.5430 N   0  0  0  0  0  0  0  0  0  0  0  0
   58.6951   -3.3226  -15.8326 C   0  0  0  0  0  0  0  0  0  0  0  0
   59.7387   -3.4418  -16.9219 C   0  0  0  0  0  0  0  0  0  0  0  0
   60.7438   -4.4828  -16.5069 C   0  0  0  0  0  0  0  0  0  0  0  0
   61.5553   -3.9703  -15.3335 C   0  0  0  0  0  0  0  0  0  0  0  0
   60.7772   -2.8546  -14.6171 C   0  0  0  0  0  0  0  0  0  0  0  0
   61.6115   -4.8683  -17.6042 N   0  0  0  0  0  0  0  0  0  0  0  0
   62.9013   -4.2252  -17.3945 C   0  0  0  0  0  0  0  0  0  0  0  0
   61.8519   -6.2969  -17.5316 C   0  0  0  0  0  0  0  0  0  0  0  0
   59.9118   -6.5425  -10.2570 C   0  0  0  0  0  0  0  0  0  0  0  0
   59.4718   -5.2190  -10.1989 O   0  0  0  0  0  0  0  0  0  0  0  0
 36 37  1  0  0  0
 37 21  1  0  0  0
 21 22  2  0  0  0
 22 23  1  0  0  0
 23 24  2  0  0  0
 24 25  1  0  0  0
 25 26  2  0  0  0
 26  1  1  0  0  0
  1  3  1  0  0  0
  3  4  2  0  0  0
  4  5  1  0  0  0
  5  6  2  0  0  0
  6  7  1  0  0  0
  7  8  1  0  0  0
  7  9  1  0  0  0
  9 10  2  0  0  0
  9 11  1  0  0  0
 11 12  1  0  0  0
 11 13  1  0  0  0
 13 16  1  0  0  0
 16 17  1  0  0  0
 17 18  1  0  0  0
 18 19  1  0  0  0
 19 20  1  0  0  0
 13 14  1  0  0  0
 14 15  2  0  0  0
 23 27  1  0  0  0
 27 28  1  0  0  0
 28 29  1  0  0  0
 29 30  1  0  0  0
 30 31  1  0  0  0
 31 32  1  0  0  0
 30 33  1  0  0  0
 33 34  1  0  0  0
 33 35  1  0  0  0
 26 21  1  0  0  0
 15  3  1  0  0  0
 32 27  1  0  0  0
 14  6  1  0  0  0
 20 16  1  0  0  0
  1  2  1  0  0  0
M  END
> <minimizedAffinity>
-6.37556

> <CNNscore>
0.5237058997

> <CNNaffinity>
7.2102456093

> <CNN_VS>
3.7760481834

> <CNNaffinity_variance>
0.1775948703

$$$$
[H]c1nc(N([H])c2c([H])c([H])c(N3C([H])([H])C([H])([H])C([H])(N(C([H])([H])[H])C([H])([H])[H])C([H])([H])C3([H])[H])c([H])c2OC([H])([H])[H])nc2c1N(C([H])([H])[H])C(=O)[C@@]([H])(C([H])([H])[H])N2C1([H])C([H])([H])C([H])([H])C([H])([H])C1([H])[H]


 37 41  0  0  0  0  0  0  0  0999 V2000
   55.8110   -5.7677   -8.9850 N   0  0  0  0  0  0  0  0  0  0  0  0
   55.5282   -6.0972   -9.9707 H   0  0  0  0  0  0  0  0  0  0  0  0
   54.7139   -5.4085   -8.1706 C   0  0  0  0  0  0  0  0  0  0  0  0
   53.6718   -4.6594   -8.5333 N   0  0  0  0  0  0  0  0  0  0  0  0
   52.6410   -4.3264   -7.7531 C   0  0  0  0  0  0  0  0  0  0  0  0
   52.6073   -4.7760   -6.4418 C   0  0  0  0  0  0  0  0  0  0  0  0
   51.5347   -4.4431   -5.5804 N   0  0  0  0  0  0  0  0  0  0  0  0
   50.4234   -3.6102   -6.0632 C   0  0  0  0  0  0  0  0  0  0  0  0
   51.5625   -4.9323   -4.2485 C   0  0  0  0  0  0  0  0  0  0  0  0
   50.8799   -4.3556   -3.3591 O   0  0  0  0  0  0  0  0  0  0  0  0
   52.4090   -6.1205   -3.9627 C   0  0  0  0  0  0  0  0  0  0  0  0
   51.5948   -7.3328   -4.3641 C   0  0  0  0  0  0  0  0  0  0  0  0
   53.6762   -6.0479   -4.6745 N   0  0  0  0  0  0  0  0  0  0  0  0
   53.6685   -5.5532   -6.0326 C   0  0  0  0  0  0  0  0  0  0  0  0
   54.6697   -5.8478   -6.8707 N   0  0  0  0  0  0  0  0  0  0  0  0
   54.9271   -6.4334   -4.1195 C   0  0  0  0  0  0  0  0  0  0  0  0
   54.7097   -7.6335   -3.1925 C   0  0  0  0  0  0  0  0  0  0  0  0
   54.7919   -7.1241   -1.7884 C   0  0  0  0  0  0  0  0  0  0  0  0
   55.7172   -5.9551   -1.8661 C   0  0  0  0  0  0  0  0  0  0  0  0
   55.5660   -5.3979   -3.2438 C   0  0  0  0  0  0  0  0  0  0  0  0
   57.6403   -6.2453   -7.5160 C   0  0  0  0  0  0  0  0  0  0  0  0
   58.9801   -6.2659   -7.2166 C   0  0  0  0  0  0  0  0  0  0  0  0
   59.9231   -5.8182   -8.0913 C   0  0  0  0  0  0  0  0  0  0  0  0
   59.4818   -5.3335   -9.3130 C   0  0  0  0  0  0  0  0  0  0  0  0
   58.1065   -5.3155   -9.6129 C   0  0  0  0  0  0  0  0  0  0  0  0
   57.1732   -5.7665   -8.7282 C   0  0  0  0  0  0  0  0  0  0  0  0
   61.2876   -5.8489   -7.7493 N   0  0  0  0  0  0  0  0  0  0  0  0
   62.2728   -5.6027   -8.8250 C   0  0  0  0  0  0  0  0  0  0  0  0
   63.5786   -6.2241   -8.3795 C   0  0  0  0  0  0  0  0  0  0  0  0
   63.2897   -7.5927   -7.8231 C   0  0  0  0  0  0  0  0  0  0  0  0
   62.5289   -7.4636   -6.5184 C   0  0  0  0  0  0  0  0  0  0  0  0
   61.8401   -6.0905   -6.4573 C   0  0  0  0  0  0  0  0  0  0  0  0
   64.5003   -8.3710   -7.6388 N   0  0  0  0  0  0  0  0  0  0  0  0
   64.3487   -9.6089   -8.3911 C   0  0  0  0  0  0  0  0  0  0  0  0
   65.6108   -7.6603   -8.2433 C   0  0  0  0  0  0  0  0  0  0  0  0
   55.7469   -7.6392   -6.8084 C   0  0  0  0  0  0  0  0  0  0  0  0
   56.7717   -6.7297   -6.5415 O   0  0  0  0  0  0  0  0  0  0  0  0
 36 37  1  0  0  0
 37 21  1  0  0  0
 21 22  2  0  0  0
 22 23  1  0  0  0
 23 24  2  0  0  0
 24 25  1  0  0  0
 25 26  2  0  0  0
 26  1  1  0  0  0
  1  3  1  0  0  0
  3  4  2  0  0  0
  4  5  1  0  0  0
  5  6  2  0  0  0
  6  7  1  0  0  0
  7  8  1  0  0  0
  7  9  1  0  0  0
  9 10  2  0  0  0
  9 11  1  0  0  0
 11 12  1  0  0  0
 11 13  1  0  0  0
 13 16  1  0  0  0
 16 17  1  0  0  0
 17 18  1  0  0  0
 18 19  1  0  0  0
 19 20  1  0  0  0
 13 14  1  0  0  0
 14 15  2  0  0  0
 23 27  1  0  0  0
 27 28  1  0  0  0
 28 29  1  0  0  0
 29 30  1  0  0  0
 30 31  1  0  0  0
 31 32  1  0  0  0
 30 33  1  0  0  0
 33 34  1  0  0  0
 33 35  1  0  0  0
 26 21  1  0  0  0
 15  3  1  0  0  0
 32 27  1  0  0  0
 14  6  1  0  0  0
 20 16  1  0  0  0
  1  2  1  0  0  0
M  END
> <minimizedAffinity>
7.79180

> <CNNscore>
0.4587728977

> <CNNaffinity>
6.9420080185

> <CNN_VS>
3.1848051548

> <CNNaffinity_variance>
1.1912413836

$$$$
[H]c1nc(N([H])c2c([H])c([H])c(N3C([H])([H])C([H])([H])C([H])(N(C([H])([H])[H])C([H])([H])[H])C([H])([H])C3([H])[H])c([H])c2OC([H])([H])[H])nc2c1N(C([H])([H])[H])C(=O)[C@@]([H])(C([H])([H])[H])N2C1([H])C([H])([H])C([H])([H])C([H])([H])C1([H])[H]


 37 41  0  0  0  0  0  0  0  0999 V2000
   61.9993   -7.6787  -10.8086 N   0  0  0  0  0  0  0  0  0  0  0  0
   61.2375   -8.4282  -10.9433 H   0  0  0  0  0  0  0  0  0  0  0  0
   62.1883   -6.8525  -11.9389 C   0  0  0  0  0  0  0  0  0  0  0  0
   61.7571   -5.5988  -12.0828 N   0  0  0  0  0  0  0  0  0  0  0  0
   61.9419   -4.8285  -13.1573 C   0  0  0  0  0  0  0  0  0  0  0  0
   62.6380   -5.3338  -14.2449 C   0  0  0  0  0  0  0  0  0  0  0  0
   62.8532   -4.5518  -15.4049 N   0  0  0  0  0  0  0  0  0  0  0  0
   62.3420   -3.1752  -15.4796 C   0  0  0  0  0  0  0  0  0  0  0  0
   63.5703   -5.1297  -16.4846 C   0  0  0  0  0  0  0  0  0  0  0  0
   63.4403   -4.6530  -17.6444 O   0  0  0  0  0  0  0  0  0  0  0  0
   64.4545   -6.2880  -16.1899 C   0  0  0  0  0  0  0  0  0  0  0  0
   65.7544   -5.7123  -15.6677 C   0  0  0  0  0  0  0  0  0  0  0  0
   63.8328   -7.1965  -15.2382 N   0  0  0  0  0  0  0  0  0  0  0  0
   63.0986   -6.6271  -14.1310 C   0  0  0  0  0  0  0  0  0  0  0  0
   62.8760   -7.3420  -13.0215 N   0  0  0  0  0  0  0  0  0  0  0  0
   63.9004   -8.6139  -15.3262 C   0  0  0  0  0  0  0  0  0  0  0  0
   65.3716   -9.0386  -15.3692 C   0  0  0  0  0  0  0  0  0  0  0  0
   65.6773   -9.4201  -16.7830 C   0  0  0  0  0  0  0  0  0  0  0  0
   64.3787   -9.9165  -17.3274 C   0  0  0  0  0  0  0  0  0  0  0  0
   63.3103   -9.1895  -16.5783 C   0  0  0  0  0  0  0  0  0  0  0  0
   63.3108   -8.8123   -9.1571 C   0  0  0  0  0  0  0  0  0  0  0  0
   63.9465   -8.8642   -7.9412 C   0  0  0  0  0  0  0  0  0  0  0  0
   63.9379   -7.8128   -7.0758 C   0  0  0  0  0  0  0  0  0  0  0  0
   63.2571   -6.6699   -7.4662 C   0  0  0  0  0  0  0  0  0  0  0  0
   62.6076   -6.6240   -8.7144 C   0  0  0  0  0  0  0  0  0  0  0  0
   62.6239   -7.6837   -9.5711 C   0  0  0  0  0  0  0  0  0  0  0  0
   64.5954   -7.9026   -5.8350 N   0  0  0  0  0  0  0  0  0  0  0  0
   65.1692   -9.2115   -5.4530 C   0  0  0  0  0  0  0  0  0  0  0  0
   65.2933   -9.2167   -3.9448 C   0  0  0  0  0  0  0  0  0  0  0  0
   64.0171   -8.6733   -3.3598 C   0  0  0  0  0  0  0  0  0  0  0  0
   63.9013   -7.1943   -3.6717 C   0  0  0  0  0  0  0  0  0  0  0  0
   64.7794   -6.8537   -4.8868 C   0  0  0  0  0  0  0  0  0  0  0  0
   63.9320   -8.9066   -1.9302 N   0  0  0  0  0  0  0  0  0  0  0  0
   63.3827   -7.7046   -1.3183 C   0  0  0  0  0  0  0  0  0  0  0  0
   62.9707   -9.9646   -1.6847 C   0  0  0  0  0  0  0  0  0  0  0  0
   64.0488  -11.1178   -9.5679 C   0  0  0  0  0  0  0  0  0  0  0  0
   63.3897   -9.9500   -9.9559 O   0  0  0  0  0  0  0  0  0  0  0  0
 36 37  1  0  0  0
 37 21  1  0  0  0
 21 22  2  0  0  0
 22 23  1  0  0  0
 23 24  2  0  0  0
 24 25  1  0  0  0
 25 26  2  0  0  0
 26  1  1  0  0  0
  1  3  1  0  0  0
  3  4  2  0  0  0
  4  5  1  0  0  0
  5  6  2  0  0  0
  6  7  1  0  0  0
  7  8  1  0  0  0
  7  9  1  0  0  0
  9 10  2  0  0  0
  9 11  1  0  0  0
 11 12  1  0  0  0
 11 13  1  0  0  0
 13 16  1  0  0  0
 16 17  1  0  0  0
 17 18  1  0  0  0
 18 19  1  0  0  0
 19 20  1  0  0  0
 13 14  1  0  0  0
 14 15  2  0  0  0
 23 27  1  0  0  0
 27 28  1  0  0  0
 28 29  1  0  0  0
 29 30  1  0  0  0
 30 31  1  0  0  0
 31 32  1  0  0  0
 30 33  1  0  0  0
 33 34  1  0  0  0
 33 35  1  0  0  0
 26 21  1  0  0  0
 15  3  1  0  0  0
 32 27  1  0  0  0
 14  6  1  0  0  0
 20 16  1  0  0  0
  1  2  1  0  0  0
M  END
> <minimizedAffinity>
-2.33134

> <CNNscore>
0.4319796562

> <CNNaffinity>
5.4334697723

> <CNN_VS>
2.3471484184

> <CNNaffinity_variance>
0.2220481336

$$$$
[H]c1nc(N([H])c2c([H])c([H])c(N3C([H])([H])C([H])([H])C([H])(N(C([H])([H])[H])C([H])([H])[H])C([H])([H])C3([H])[H])c([H])c2OC([H])([H])[H])nc2c1N(C([H])([H])[H])C(=O)[C@@]([H])(C([H])([H])[H])N2C1([H])C([H])([H])C([H])([H])C([H])([H])C1([H])[H]


 37 41  0  0  0  0  0  0  0  0999 V2000
   51.9333   -6.6323   -6.6584 N   0  0  0  0  0  0  0  0  0  0  0  0
   51.6185   -7.5907   -7.0361 H   0  0  0  0  0  0  0  0  0  0  0  0
   50.9418   -5.9669   -5.9032 C   0  0  0  0  0  0  0  0  0  0  0  0
   50.2788   -6.4628   -4.8578 N   0  0  0  0  0  0  0  0  0  0  0  0
   49.3429   -5.8233   -4.1526 C   0  0  0  0  0  0  0  0  0  0  0  0
   48.9960   -4.5267   -4.5011 C   0  0  0  0  0  0  0  0  0  0  0  0
   48.0066   -3.8144   -3.7820 N   0  0  0  0  0  0  0  0  0  0  0  0
   47.3234   -4.4383   -2.6393 C   0  0  0  0  0  0  0  0  0  0  0  0
   47.6957   -2.4919   -4.1922 C   0  0  0  0  0  0  0  0  0  0  0  0
   46.5880   -1.9840   -3.8689 O   0  0  0  0  0  0  0  0  0  0  0  0
   48.7082   -1.7581   -4.9963 C   0  0  0  0  0  0  0  0  0  0  0  0
   49.7080   -1.1902   -4.0106 C   0  0  0  0  0  0  0  0  0  0  0  0
   49.3362   -2.6315   -5.9763 N   0  0  0  0  0  0  0  0  0  0  0  0
   49.6616   -3.9821   -5.5773 C   0  0  0  0  0  0  0  0  0  0  0  0
   50.5904   -4.6831   -6.2388 N   0  0  0  0  0  0  0  0  0  0  0  0
   49.6524   -2.2420   -7.3066 C   0  0  0  0  0  0  0  0  0  0  0  0
   48.9237   -3.1717   -8.2821 C   0  0  0  0  0  0  0  0  0  0  0  0
   49.9439   -4.1176   -8.8320 C   0  0  0  0  0  0  0  0  0  0  0  0
   51.2237   -3.3493   -8.8018 C   0  0  0  0  0  0  0  0  0  0  0  0
   51.1001   -2.3826   -7.6698 C   0  0  0  0  0  0  0  0  0  0  0  0
   54.2782   -6.6485   -6.1753 C   0  0  0  0  0  0  0  0  0  0  0  0
   55.5766   -6.3060   -6.4619 C   0  0  0  0  0  0  0  0  0  0  0  0
   55.9040   -5.5679   -7.5586 C   0  0  0  0  0  0  0  0  0  0  0  0
   54.8699   -5.1666   -8.3902 C   0  0  0  0  0  0  0  0  0  0  0  0
   53.5411   -5.5214   -8.0898 C   0  0  0  0  0  0  0  0  0  0  0  0
   53.2272   -6.2605   -6.9887 C   0  0  0  0  0  0  0  0  0  0  0  0
   57.2449   -5.2302   -7.8189 N   0  0  0  0  0  0  0  0  0  0  0  0
   57.6052   -4.8602   -9.2051 C   0  0  0  0  0  0  0  0  0  0  0  0
   59.0925   -5.0963   -9.3535 C   0  0  0  0  0  0  0  0  0  0  0  0
   59.4263   -6.4312   -8.7430 C   0  0  0  0  0  0  0  0  0  0  0  0
   59.2565   -6.3615   -7.2382 C   0  0  0  0  0  0  0  0  0  0  0  0
   58.3168   -5.1990   -6.8791 C   0  0  0  0  0  0  0  0  0  0  0  0
   60.7656   -6.8682   -9.0906 N   0  0  0  0  0  0  0  0  0  0  0  0
   60.8611   -6.8867  -10.5438 C   0  0  0  0  0  0  0  0  0  0  0  0
   61.7166   -5.8734   -8.6325 C   0  0  0  0  0  0  0  0  0  0  0  0
   53.9839   -6.8543   -3.7464 C   0  0  0  0  0  0  0  0  0  0  0  0
   54.0678   -7.4058   -5.0260 O   0  0  0  0  0  0  0  0  0  0  0  0
 36 37  1  0  0  0
 37 21  1  0  0  0
 21 22  2  0  0  0
 22 23  1  0  0  0
 23 24  2  0  0  0
 24 25  1  0  0  0
 25 26  2  0  0  0
 26  1  1  0  0  0
  1  3  1  0  0  0
  3  4  2  0  0  0
  4  5  1  0  0  0
  5  6  2  0  0  0
  6  7  1  0  0  0
  7  8  1  0  0  0
  7  9  1  0  0  0
  9 10  2  0  0  0
  9 11  1  0  0  0
 11 12  1  0  0  0
 11 13  1  0  0  0
 13 16  1  0  0  0
 16 17  1  0  0  0
 17 18  1  0  0  0
 18 19  1  0  0  0
 19 20  1  0  0  0
 13 14  1  0  0  0
 14 15  2  0  0  0
 23 27  1  0  0  0
 27 28  1  0  0  0
 28 29  1  0  0  0
 29 30  1  0  0  0
 30 31  1  0  0  0
 31 32  1  0  0  0
 30 33  1  0  0  0
 33 34  1  0  0  0
 33 35  1  0  0  0
 26 21  1  0  0  0
 15  3  1  0  0  0
 32 27  1  0  0  0
 14  6  1  0  0  0
 20 16  1  0  0  0
  1  2  1  0  0  0
M  END
> <minimizedAffinity>
10.36115

> <CNNscore>
0.4175662696

> <CNNaffinity>
6.9292511940

> <CNN_VS>
2.8934216499

> <CNNaffinity_variance>
0.5556172132

$$$$
[H]c1nc(N([H])c2c([H])c([H])c(N3C([H])([H])C([H])([H])C([H])(N(C([H])([H])[H])C([H])([H])[H])C([H])([H])C3([H])[H])c([H])c2OC([H])([H])[H])nc2c1N(C([H])([H])[H])C(=O)[C@@]([H])(C([H])([H])[H])N2C1([H])C([H])([H])C([H])([H])C([H])([H])C1([H])[H]


 37 41  0  0  0  0  0  0  0  0999 V2000
   58.2201   -5.7720  -11.1079 N   0  0  0  0  0  0  0  0  0  0  0  0
   58.1724   -6.8437  -11.2059 H   0  0  0  0  0  0  0  0  0  0  0  0
   59.3340   -5.1923  -11.7553 C   0  0  0  0  0  0  0  0  0  0  0  0
   60.5731   -5.1048  -11.2701 N   0  0  0  0  0  0  0  0  0  0  0  0
   61.6175   -4.5534  -11.8924 C   0  0  0  0  0  0  0  0  0  0  0  0
   61.4470   -4.0105  -13.1569 C   0  0  0  0  0  0  0  0  0  0  0  0
   62.5272   -3.4135  -13.8499 N   0  0  0  0  0  0  0  0  0  0  0  0
   63.8638   -3.3595  -13.2397 C   0  0  0  0  0  0  0  0  0  0  0  0
   62.2850   -2.8730  -15.1396 C   0  0  0  0  0  0  0  0  0  0  0  0
   63.0691   -2.0038  -15.6076 O   0  0  0  0  0  0  0  0  0  0  0  0
   61.0990   -3.3668  -15.8878 C   0  0  0  0  0  0  0  0  0  0  0  0
   61.5156   -4.6690  -16.5394 C   0  0  0  0  0  0  0  0  0  0  0  0
   59.9526   -3.5336  -15.0071 N   0  0  0  0  0  0  0  0  0  0  0  0
   60.1787   -4.0835  -13.6896 C   0  0  0  0  0  0  0  0  0  0  0  0
   59.1771   -4.6519  -13.0075 N   0  0  0  0  0  0  0  0  0  0  0  0
   58.6187   -3.1899  -15.3589 C   0  0  0  0  0  0  0  0  0  0  0  0
   58.3569   -3.6313  -16.8022 C   0  0  0  0  0  0  0  0  0  0  0  0
   58.3840   -2.3991  -17.6500 C   0  0  0  0  0  0  0  0  0  0  0  0
   57.9279   -1.3068  -16.7400 C   0  0  0  0  0  0  0  0  0  0  0  0
   58.3347   -1.7179  -15.3628 C   0  0  0  0  0  0  0  0  0  0  0  0
   57.3815   -4.9166   -9.0349 C   0  0  0  0  0  0  0  0  0  0  0  0
   56.3938   -4.3460   -8.2707 C   0  0  0  0  0  0  0  0  0  0  0  0
   55.1754   -4.0243   -8.7872 C   0  0  0  0  0  0  0  0  0  0  0  0
   54.9594   -4.2947  -10.1297 C   0  0  0  0  0  0  0  0  0  0  0  0
   55.9769   -4.8799  -10.9070 C   0  0  0  0  0  0  0  0  0  0  0  0
   57.1918   -5.1970  -10.3774 C   0  0  0  0  0  0  0  0  0  0  0  0
   54.1840   -3.4456   -7.9736 N   0  0  0  0  0  0  0  0  0  0  0  0
   54.1310   -3.8583   -6.5539 C   0  0  0  0  0  0  0  0  0  0  0  0
   52.7272   -3.5770   -6.0638 C   0  0  0  0  0  0  0  0  0  0  0  0
   51.7530   -4.0664   -7.1018 C   0  0  0  0  0  0  0  0  0  0  0  0
   51.8457   -3.1966   -8.3398 C   0  0  0  0  0  0  0  0  0  0  0  0
   53.2078   -2.4841   -8.3680 C   0  0  0  0  0  0  0  0  0  0  0  0
   50.3930   -4.1012   -6.5972 N   0  0  0  0  0  0  0  0  0  0  0  0
   49.6582   -5.0892   -7.3750 C   0  0  0  0  0  0  0  0  0  0  0  0
   50.4123   -4.5899   -5.2317 C   0  0  0  0  0  0  0  0  0  0  0  0
   58.9484   -6.4803   -7.9728 C   0  0  0  0  0  0  0  0  0  0  0  0
   58.5852   -5.2003   -8.3952 O   0  0  0  0  0  0  0  0  0  0  0  0
 36 37  1  0  0  0
 37 21  1  0  0  0
 21 22  2  0  0  0
 22 23  1  0  0  0
 23 24  2  0  0  0
 24 25  1  0  0  0
 25 26  2  0  0  0
 26  1  1  0  0  0
  1  3  1  0  0  0
  3  4  2  0  0  0
  4  5  1  0  0  0
  5  6  2  0  0  0
  6  7  1  0  0  0
  7  8  1  0  0  0
  7  9  1  0  0  0
  9 10  2  0  0  0
  9 11  1  0  0  0
 11 12  1  0  0  0
 11 13  1  0  0  0
 13 16  1  0  0  0
 16 17  1  0  0  0
 17 18  1  0  0  0
 18 19  1  0  0  0
 19 20  1  0  0  0
 13 14  1  0  0  0
 14 15  2  0  0  0
 23 27  1  0  0  0
 27 28  1  0  0  0
 28 29  1  0  0  0
 29 30  1  0  0  0
 30 31  1  0  0  0
 31 32  1  0  0  0
 30 33  1  0  0  0
 33 34  1  0  0  0
 33 35  1  0  0  0
 26 21  1  0  0  0
 15  3  1  0  0  0
 32 27  1  0  0  0
 14  6  1  0  0  0
 20 16  1  0  0  0
  1  2  1  0  0  0
M  END
> <minimizedAffinity>
8.50437

> <CNNscore>
0.3978376091

> <CNNaffinity>
6.3901453018

> <CNN_VS>
2.5422401428

> <CNNaffinity_variance>
0.9957664609

$$$$
[H]c1nc(N([H])c2c([H])c([H])c(N3C([H])([H])C([H])([H])C([H])(N(C([H])([H])[H])C([H])([H])[H])C([H])([H])C3([H])[H])c([H])c2OC([H])([H])[H])nc2c1N(C([H])([H])[H])C(=O)[C@@]([H])(C([H])([H])[H])N2C1([H])C([H])([H])C([H])([H])C([H])([H])C1([H])[H]


 37 41  0  0  0  0  0  0  0  0999 V2000
   57.7377   -5.6274   -8.8044 N   0  0  0  0  0  0  0  0  0  0  0  0
   57.2478   -5.1007   -9.6061 H   0  0  0  0  0  0  0  0  0  0  0  0
   59.0936   -5.9252   -9.0667 C   0  0  0  0  0  0  0  0  0  0  0  0
   59.7872   -5.5657  -10.1475 N   0  0  0  0  0  0  0  0  0  0  0  0
   61.0690   -5.8543  -10.3837 C   0  0  0  0  0  0  0  0  0  0  0  0
   61.7834   -6.5912   -9.4513 C   0  0  0  0  0  0  0  0  0  0  0  0
   63.1431   -6.9218   -9.6643 N   0  0  0  0  0  0  0  0  0  0  0  0
   63.8325   -6.4839  -10.8869 C   0  0  0  0  0  0  0  0  0  0  0  0
   63.8160   -7.6815   -8.6724 C   0  0  0  0  0  0  0  0  0  0  0  0
   64.8537   -8.3277   -8.9806 O   0  0  0  0  0  0  0  0  0  0  0  0
   63.2550   -7.6779   -7.2956 C   0  0  0  0  0  0  0  0  0  0  0  0
   63.7578   -6.4129   -6.6317 C   0  0  0  0  0  0  0  0  0  0  0  0
   61.8016   -7.7474   -7.3189 N   0  0  0  0  0  0  0  0  0  0  0  0
   61.0978   -6.9798   -8.3213 C   0  0  0  0  0  0  0  0  0  0  0  0
   59.8109   -6.6539   -8.1507 N   0  0  0  0  0  0  0  0  0  0  0  0
   61.0247   -8.5241   -6.4164 C   0  0  0  0  0  0  0  0  0  0  0  0
   61.9592   -9.1799   -5.3950 C   0  0  0  0  0  0  0  0  0  0  0  0
   62.0796  -10.6223   -5.7729 C   0  0  0  0  0  0  0  0  0  0  0  0
   60.7813  -10.9471   -6.4346 C   0  0  0  0  0  0  0  0  0  0  0  0
   60.2991   -9.6736   -7.0485 C   0  0  0  0  0  0  0  0  0  0  0  0
   57.5400   -6.2461   -6.4999 C   0  0  0  0  0  0  0  0  0  0  0  0
   56.7965   -6.5207   -5.3788 C   0  0  0  0  0  0  0  0  0  0  0  0
   55.4357   -6.4661   -5.3827 C   0  0  0  0  0  0  0  0  0  0  0  0
   54.8141   -6.1189   -6.5723 C   0  0  0  0  0  0  0  0  0  0  0  0
   55.5830   -5.8388   -7.7178 C   0  0  0  0  0  0  0  0  0  0  0  0
   56.9444   -5.8973   -7.7001 C   0  0  0  0  0  0  0  0  0  0  0  0
   54.7050   -6.7593   -4.2166 N   0  0  0  0  0  0  0  0  0  0  0  0
   53.3175   -7.2464   -4.3777 C   0  0  0  0  0  0  0  0  0  0  0  0
   52.5919   -6.9508   -3.0831 C   0  0  0  0  0  0  0  0  0  0  0  0
   52.9288   -5.5466   -2.6579 C   0  0  0  0  0  0  0  0  0  0  0  0
   54.3839   -5.4750   -2.2390 C   0  0  0  0  0  0  0  0  0  0  0  0
   55.1599   -6.6424   -2.8703 C   0  0  0  0  0  0  0  0  0  0  0  0
   52.0623   -5.0788   -1.5922 N   0  0  0  0  0  0  0  0  0  0  0  0
   52.1444   -6.0406   -0.5016 C   0  0  0  0  0  0  0  0  0  0  0  0
   52.5884   -3.8301   -1.0748 C   0  0  0  0  0  0  0  0  0  0  0  0
   59.6142   -5.9753   -5.2142 C   0  0  0  0  0  0  0  0  0  0  0  0
   58.9237   -6.3349   -6.3729 O   0  0  0  0  0  0  0  0  0  0  0  0
 36 37  1  0  0  0
 37 21  1  0  0  0
 21 22  2  0  0  0
 22 23  1  0  0  0
 23 24  2  0  0  0
 24 25  1  0  0  0
 25 26  2  0  0  0
 26  1  1  0  0  0
  1  3  1  0  0  0
  3  4  2  0  0  0
  4  5  1  0  0  0
  5  6  2  0  0  0
  6  7  1  0  0  0
  7  8  1  0  0  0
  7  9  1  0  0  0
  9 10  2  0  0  0
  9 11  1  0  0  0
 11 12  1  0  0  0
 11 13  1  0  0  0
 13 16  1  0  0  0
 16 17  1  0  0  0
 17 18  1  0  0  0
 18 19  1  0  0  0
 19 20  1  0  0  0
 13 14  1  0  0  0
 14 15  2  0  0  0
 23 27  1  0  0  0
 27 28  1  0  0  0
 28 29  1  0  0  0
 29 30  1  0  0  0
 30 31  1  0  0  0
 31 32  1  0  0  0
 30 33  1  0  0  0
 33 34  1  0  0  0
 33 35  1  0  0  0
 26 21  1  0  0  0
 15  3  1  0  0  0
 32 27  1  0  0  0
 14  6  1  0  0  0
 20 16  1  0  0  0
  1  2  1  0  0  0
M  END
> <minimizedAffinity>
8.17951

> <CNNscore>
0.3575450182

> <CNNaffinity>
6.2051877975

> <CNN_VS>
2.2186338902

> <CNNaffinity_variance>
0.5993458033

$$$$
[H]c1nc(N([H])c2c([H])c([H])c(C(=O)N3C([H])([H])C([H])([H])N(C([H])([H])[H])C([H])([H])C3([H])[H])c([H])c2OC([H])([H])[H])nc2c1N(C([H])([H])[H])C(=O)[C@@]([H])(C([H])([H])[H])N2C1([H])C([H])([H])C([H])([H])C([H])([H])C1([H])[H]


 37 41  0  0  0  0  0  0  0  0999 V2000
   54.9239   -3.5898  -10.3677 N   0  0  0  0  0  0  0  0  0  0  0  0
   54.7005   -3.1223  -11.3042 H   0  0  0  0  0  0  0  0  0  0  0  0
   53.8763   -3.5505   -9.4315 C   0  0  0  0  0  0  0  0  0  0  0  0
   52.8976   -2.6403   -9.4361 N   0  0  0  0  0  0  0  0  0  0  0  0
   51.8811   -2.5625   -8.5661 C   0  0  0  0  0  0  0  0  0  0  0  0
   51.8815   -3.5418   -7.5787 C   0  0  0  0  0  0  0  0  0  0  0  0
   50.8724   -3.5944   -6.5887 N   0  0  0  0  0  0  0  0  0  0  0  0
   49.7775   -2.6389   -6.5378 C   0  0  0  0  0  0  0  0  0  0  0  0
   50.9533   -4.6437   -5.6090 C   0  0  0  0  0  0  0  0  0  0  0  0
   50.4362   -4.5182   -4.4929 O   0  0  0  0  0  0  0  0  0  0  0  0
   51.6787   -5.9176   -5.9470 C   0  0  0  0  0  0  0  0  0  0  0  0
   50.8257   -6.6084   -7.0150 C   0  0  0  0  0  0  0  0  0  0  0  0
   52.9369   -5.5211   -6.5535 N   0  0  0  0  0  0  0  0  0  0  0  0
   52.8813   -4.4887   -7.5554 C   0  0  0  0  0  0  0  0  0  0  0  0
   53.8660   -4.5172   -8.4460 N   0  0  0  0  0  0  0  0  0  0  0  0
   54.1052   -6.1786   -6.1054 C   0  0  0  0  0  0  0  0  0  0  0  0
   55.3131   -5.3915   -5.8277 C   0  0  0  0  0  0  0  0  0  0  0  0
   56.2217   -6.4514   -5.1752 C   0  0  0  0  0  0  0  0  0  0  0  0
   55.2783   -7.4352   -4.5140 C   0  0  0  0  0  0  0  0  0  0  0  0
   53.8844   -6.8973   -4.7629 C   0  0  0  0  0  0  0  0  0  0  0  0
   57.0435   -4.1554  -11.3650 C   0  0  0  0  0  0  0  0  0  0  0  0
   58.2885   -4.6944  -11.2896 C   0  0  0  0  0  0  0  0  0  0  0  0
   58.8099   -5.2708  -10.1118 C   0  0  0  0  0  0  0  0  0  0  0  0
   57.9870   -5.2634   -9.0204 C   0  0  0  0  0  0  0  0  0  0  0  0
   56.7111   -4.7078   -9.1085 C   0  0  0  0  0  0  0  0  0  0  0  0
   56.1992   -4.1494  -10.2402 C   0  0  0  0  0  0  0  0  0  0  0  0
   60.1429   -5.8044  -10.1387 C   0  0  0  0  0  0  0  0  0  0  0  0
   60.7799   -5.6718  -11.2710 O   0  0  0  0  0  0  0  0  0  0  0  0
   60.8819   -6.4456   -9.1579 N   0  0  0  0  0  0  0  0  0  0  0  0
   60.5443   -6.7873   -7.8037 C   0  0  0  0  0  0  0  0  0  0  0  0
   61.6657   -7.6403   -7.2092 C   0  0  0  0  0  0  0  0  0  0  0  0
   62.9372   -6.9566   -7.2009 N   0  0  0  0  0  0  0  0  0  0  0  0
   63.9767   -7.9874   -7.1003 C   0  0  0  0  0  0  0  0  0  0  0  0
   63.1663   -6.2635   -8.4628 C   0  0  0  0  0  0  0  0  0  0  0  0
   62.2801   -6.8729   -9.5157 C   0  0  0  0  0  0  0  0  0  0  0  0
   56.4368   -4.3890  -13.7054 C   0  0  0  0  0  0  0  0  0  0  0  0
   56.5716   -3.5953  -12.5556 O   0  0  0  0  0  0  0  0  0  0  0  0
 36 37  1  0  0  0
 37 21  1  0  0  0
 21 22  2  0  0  0
 22 23  1  0  0  0
 23 24  2  0  0  0
 24 25  1  0  0  0
 25 26  2  0  0  0
 26  1  1  0  0  0
  1  3  1  0  0  0
  3  4  2  0  0  0
  4  5  1  0  0  0
  5  6  2  0  0  0
  6  7  1  0  0  0
  7  8  1  0  0  0
  7  9  1  0  0  0
  9 10  2  0  0  0
  9 11  1  0  0  0
 11 12  1  0  0  0
 11 13  1  0  0  0
 13 16  1  0  0  0
 16 17  1  0  0  0
 17 18  1  0  0  0
 18 19  1  0  0  0
 19 20  1  0  0  0
 13 14  1  0  0  0
 14 15  2  0  0  0
 23 27  1  0  0  0
 27 28  2  0  0  0
 27 29  1  0  0  0
 29 30  1  0  0  0
 30 31  1  0  0  0
 31 32  1  0  0  0
 32 33  1  0  0  0
 32 34  1  0  0  0
 34 35  1  0  0  0
 26 21  1  0  0  0
 15  3  1  0  0  0
 35 29  1  0  0  0
 14  6  1  0  0  0
 20 16  1  0  0  0
  1  2  1  0  0  0
M  END
> <minimizedAffinity>
-10.39509

> <CNNscore>
0.9807919264

> <CNNaffinity>
8.2641124725

> <CNN_VS>
8.1053743362

> <CNNaffinity_variance>
0.0435248986

$$$$
[H]c1nc(N([H])c2c([H])c([H])c(C(=O)N3C([H])([H])C([H])([H])N(C([H])([H])[H])C([H])([H])C3([H])[H])c([H])c2OC([H])([H])[H])nc2c1N(C([H])([H])[H])C(=O)[C@@]([H])(C([H])([H])[H])N2C1([H])C([H])([H])C([H])([H])C([H])([H])C1([H])[H]


 37 41  0  0  0  0  0  0  0  0999 V2000
   55.1329   -3.5815   -9.9393 N   0  0  0  0  0  0  0  0  0  0  0  0
   55.0700   -3.1030  -10.8945 H   0  0  0  0  0  0  0  0  0  0  0  0
   53.9648   -3.4897   -9.1628 C   0  0  0  0  0  0  0  0  0  0  0  0
   52.9741   -2.6231   -9.3947 N   0  0  0  0  0  0  0  0  0  0  0  0
   51.8451   -2.4985   -8.6833 C   0  0  0  0  0  0  0  0  0  0  0  0
   51.7327   -3.3738   -7.6085 C   0  0  0  0  0  0  0  0  0  0  0  0
   50.5976   -3.3666   -6.7643 N   0  0  0  0  0  0  0  0  0  0  0  0
   49.4829   -2.4539   -6.9619 C   0  0  0  0  0  0  0  0  0  0  0  0
   50.5677   -4.3092   -5.6789 C   0  0  0  0  0  0  0  0  0  0  0  0
   49.8978   -4.0932   -4.6623 O   0  0  0  0  0  0  0  0  0  0  0  0
   51.3642   -5.5813   -5.7811 C   0  0  0  0  0  0  0  0  0  0  0  0
   50.6848   -6.4075   -6.8772 C   0  0  0  0  0  0  0  0  0  0  0  0
   52.6842   -5.1988   -6.2495 N   0  0  0  0  0  0  0  0  0  0  0  0
   52.7426   -4.2743   -7.3516 C   0  0  0  0  0  0  0  0  0  0  0  0
   53.8418   -4.3531   -8.0927 N   0  0  0  0  0  0  0  0  0  0  0  0
   53.7948   -5.7626   -5.5813 C   0  0  0  0  0  0  0  0  0  0  0  0
   53.6124   -6.3453   -4.2461 C   0  0  0  0  0  0  0  0  0  0  0  0
   54.9823   -7.0129   -4.0173 C   0  0  0  0  0  0  0  0  0  0  0  0
   55.4896   -7.3695   -5.3996 C   0  0  0  0  0  0  0  0  0  0  0  0
   54.3974   -6.9454   -6.3593 C   0  0  0  0  0  0  0  0  0  0  0  0
   57.1993   -4.5656  -10.6934 C   0  0  0  0  0  0  0  0  0  0  0  0
   58.3859   -5.1792  -10.4451 C   0  0  0  0  0  0  0  0  0  0  0  0
   58.8365   -5.4905   -9.1445 C   0  0  0  0  0  0  0  0  0  0  0  0
   58.0060   -5.1387   -8.1174 C   0  0  0  0  0  0  0  0  0  0  0  0
   56.7904   -4.5094   -8.3832 C   0  0  0  0  0  0  0  0  0  0  0  0
   56.3470   -4.2049   -9.6343 C   0  0  0  0  0  0  0  0  0  0  0  0
   60.1123   -6.1323   -8.9936 C   0  0  0  0  0  0  0  0  0  0  0  0
   60.3779   -6.5828   -7.7970 O   0  0  0  0  0  0  0  0  0  0  0  0
   61.1259   -6.3599   -9.9102 N   0  0  0  0  0  0  0  0  0  0  0  0
   61.2244   -6.0175  -11.3021 C   0  0  0  0  0  0  0  0  0  0  0  0
   62.6306   -6.3530  -11.8008 C   0  0  0  0  0  0  0  0  0  0  0  0
   62.9513   -7.7529  -11.6544 N   0  0  0  0  0  0  0  0  0  0  0  0
   64.4145   -7.8613  -11.6761 C   0  0  0  0  0  0  0  0  0  0  0  0
   62.5213   -8.2545  -10.3548 C   0  0  0  0  0  0  0  0  0  0  0  0
   62.3490   -7.0875   -9.4202 C   0  0  0  0  0  0  0  0  0  0  0  0
   57.7391   -3.8670  -12.9563 C   0  0  0  0  0  0  0  0  0  0  0  0
   56.7966   -4.2776  -12.0007 O   0  0  0  0  0  0  0  0  0  0  0  0
 36 37  1  0  0  0
 37 21  1  0  0  0
 21 22  2  0  0  0
 22 23  1  0  0  0
 23 24  2  0  0  0
 24 25  1  0  0  0
 25 26  2  0  0  0
 26  1  1  0  0  0
  1  3  1  0  0  0
  3  4  2  0  0  0
  4  5  1  0  0  0
  5  6  2  0  0  0
  6  7  1  0  0  0
  7  8  1  0  0  0
  7  9  1  0  0  0
  9 10  2  0  0  0
  9 11  1  0  0  0
 11 12  1  0  0  0
 11 13  1  0  0  0
 13 16  1  0  0  0
 16 17  1  0  0  0
 17 18  1  0  0  0
 18 19  1  0  0  0
 19 20  1  0  0  0
 13 14  1  0  0  0
 14 15  2  0  0  0
 23 27  1  0  0  0
 27 28  2  0  0  0
 27 29  1  0  0  0
 29 30  1  0  0  0
 30 31  1  0  0  0
 31 32  1  0  0  0
 32 33  1  0  0  0
 32 34  1  0  0  0
 34 35  1  0  0  0
 26 21  1  0  0  0
 15  3  1  0  0  0
 35 29  1  0  0  0
 14  6  1  0  0  0
 20 16  1  0  0  0
  1  2  1  0  0  0
M  END
> <minimizedAffinity>
-10.61241

> <CNNscore>
0.9784650207

> <CNNaffinity>
8.0606174469

> <CNN_VS>
7.8870320320

> <CNNaffinity_variance>
0.0088787954

$$$$
[H]c1nc(N([H])c2c([H])c([H])c(C(=O)N3C([H])([H])C([H])([H])N(C([H])([H])[H])C([H])([H])C3([H])[H])c([H])c2OC([H])([H])[H])nc2c1N(C([H])([H])[H])C(=O)[C@@]([H])(C([H])([H])[H])N2C1([H])C([H])([H])C([H])([H])C([H])([H])C1([H])[H]


 37 41  0  0  0  0  0  0  0  0999 V2000
   54.9693   -3.2628   -9.7990 N   0  0  0  0  0  0  0  0  0  0  0  0
   54.9385   -2.5932  -10.6334 H   0  0  0  0  0  0  0  0  0  0  0  0
   53.7971   -3.2829   -9.0237 C   0  0  0  0  0  0  0  0  0  0  0  0
   52.7666   -2.4496   -9.1971 N   0  0  0  0  0  0  0  0  0  0  0  0
   51.6319   -2.4304   -8.4840 C   0  0  0  0  0  0  0  0  0  0  0  0
   51.5598   -3.3857   -7.4759 C   0  0  0  0  0  0  0  0  0  0  0  0
   50.4244   -3.4933   -6.6389 N   0  0  0  0  0  0  0  0  0  0  0  0
   49.2679   -2.6225   -6.7754 C   0  0  0  0  0  0  0  0  0  0  0  0
   50.4378   -4.5124   -5.6247 C   0  0  0  0  0  0  0  0  0  0  0  0
   49.7569   -4.4026   -4.5984 O   0  0  0  0  0  0  0  0  0  0  0  0
   51.2940   -5.7347   -5.8147 C   0  0  0  0  0  0  0  0  0  0  0  0
   50.6563   -6.5106   -6.9709 C   0  0  0  0  0  0  0  0  0  0  0  0
   52.5950   -5.2572   -6.2477 N   0  0  0  0  0  0  0  0  0  0  0  0
   52.6110   -4.2535   -7.2798 C   0  0  0  0  0  0  0  0  0  0  0  0
   53.7137   -4.2264   -8.0193 N   0  0  0  0  0  0  0  0  0  0  0  0
   53.7303   -5.8147   -5.6166 C   0  0  0  0  0  0  0  0  0  0  0  0
   53.5864   -6.4379   -4.2951 C   0  0  0  0  0  0  0  0  0  0  0  0
   54.9745   -7.0814   -4.1110 C   0  0  0  0  0  0  0  0  0  0  0  0
   55.4624   -7.3884   -5.5120 C   0  0  0  0  0  0  0  0  0  0  0  0
   54.3428   -6.9620   -6.4388 C   0  0  0  0  0  0  0  0  0  0  0  0
   56.7281   -4.0385   -8.3457 C   0  0  0  0  0  0  0  0  0  0  0  0
   57.8802   -4.7269   -8.1335 C   0  0  0  0  0  0  0  0  0  0  0  0
   58.5626   -5.4225   -9.1541 C   0  0  0  0  0  0  0  0  0  0  0  0
   58.0001   -5.3732  -10.3989 C   0  0  0  0  0  0  0  0  0  0  0  0
   56.8176   -4.6637  -10.6059 C   0  0  0  0  0  0  0  0  0  0  0  0
   56.1518   -3.9895   -9.6277 C   0  0  0  0  0  0  0  0  0  0  0  0
   59.7688   -6.1263   -8.8192 C   0  0  0  0  0  0  0  0  0  0  0  0
   59.8554   -6.5388   -7.5833 O   0  0  0  0  0  0  0  0  0  0  0  0
   60.8735   -6.4484   -9.5907 N   0  0  0  0  0  0  0  0  0  0  0  0
   61.1657   -6.1721  -10.9701 C   0  0  0  0  0  0  0  0  0  0  0  0
   62.6005   -6.6054  -11.2734 C   0  0  0  0  0  0  0  0  0  0  0  0
   62.8160   -8.0132  -11.0374 N   0  0  0  0  0  0  0  0  0  0  0  0
   64.2613   -8.2026  -10.8690 C   0  0  0  0  0  0  0  0  0  0  0  0
   62.1976   -8.4341   -9.7861 C   0  0  0  0  0  0  0  0  0  0  0  0
   61.9801   -7.2203   -8.9233 C   0  0  0  0  0  0  0  0  0  0  0  0
   56.3886   -3.6814   -5.9672 C   0  0  0  0  0  0  0  0  0  0  0  0
   56.0884   -3.3647   -7.3012 O   0  0  0  0  0  0  0  0  0  0  0  0
 36 37  1  0  0  0
 37 21  1  0  0  0
 21 22  2  0  0  0
 22 23  1  0  0  0
 23 24  2  0  0  0
 24 25  1  0  0  0
 25 26  2  0  0  0
 26  1  1  0  0  0
  1  3  1  0  0  0
  3  4  2  0  0  0
  4  5  1  0  0  0
  5  6  2  0  0  0
  6  7  1  0  0  0
  7  8  1  0  0  0
  7  9  1  0  0  0
  9 10  2  0  0  0
  9 11  1  0  0  0
 11 12  1  0  0  0
 11 13  1  0  0  0
 13 16  1  0  0  0
 16 17  1  0  0  0
 17 18  1  0  0  0
 18 19  1  0  0  0
 19 20  1  0  0  0
 13 14  1  0  0  0
 14 15  2  0  0  0
 23 27  1  0  0  0
 27 28  2  0  0  0
 27 29  1  0  0  0
 29 30  1  0  0  0
 30 31  1  0  0  0
 31 32  1  0  0  0
 32 33  1  0  0  0
 32 34  1  0  0  0
 34 35  1  0  0  0
 26 21  1  0  0  0
 15  3  1  0  0  0
 35 29  1  0  0  0
 14  6  1  0  0  0
 20 16  1  0  0  0
  1  2  1  0  0  0
M  END
> <minimizedAffinity>
-9.72268

> <CNNscore>
0.9766886830

> <CNNaffinity>
8.0623645782

> <CNN_VS>
7.8744201660

> <CNNaffinity_variance>
0.0235293061

$$$$
[H]c1nc(N([H])c2c([H])c([H])c(C(=O)N3C([H])([H])C([H])([H])N(C([H])([H])[H])C([H])([H])C3([H])[H])c([H])c2OC([H])([H])[H])nc2c1N(C([H])([H])[H])C(=O)[C@@]([H])(C([H])([H])[H])N2C1([H])C([H])([H])C([H])([H])C([H])([H])C1([H])[H]


 37 41  0  0  0  0  0  0  0  0999 V2000
   55.7463   -4.6922   -8.8436 N   0  0  0  0  0  0  0  0  0  0  0  0
   56.3769   -5.2049   -8.1474 H   0  0  0  0  0  0  0  0  0  0  0  0
   54.4835   -4.3397   -8.3367 C   0  0  0  0  0  0  0  0  0  0  0  0
   53.7289   -3.3486   -8.8210 N   0  0  0  0  0  0  0  0  0  0  0  0
   52.5225   -2.9762   -8.3714 C   0  0  0  0  0  0  0  0  0  0  0  0
   52.0459   -3.7180   -7.2959 C   0  0  0  0  0  0  0  0  0  0  0  0
   50.7865   -3.4477   -6.7112 N   0  0  0  0  0  0  0  0  0  0  0  0
   49.9138   -2.3879   -7.1908 C   0  0  0  0  0  0  0  0  0  0  0  0
   50.3752   -4.2679   -5.6042 C   0  0  0  0  0  0  0  0  0  0  0  0
   49.5675   -3.8524   -4.7653 O   0  0  0  0  0  0  0  0  0  0  0  0
   50.9361   -5.6568   -5.4635 C   0  0  0  0  0  0  0  0  0  0  0  0
   50.3500   -6.4594   -6.6287 C   0  0  0  0  0  0  0  0  0  0  0  0
   52.3692   -5.5395   -5.6649 N   0  0  0  0  0  0  0  0  0  0  0  0
   52.8080   -4.7432   -6.7811 C   0  0  0  0  0  0  0  0  0  0  0  0
   53.9997   -5.0684   -7.2687 N   0  0  0  0  0  0  0  0  0  0  0  0
   53.2074   -6.2122   -4.7468 C   0  0  0  0  0  0  0  0  0  0  0  0
   54.4038   -5.5339   -4.2331 C   0  0  0  0  0  0  0  0  0  0  0  0
   54.8629   -6.5169   -3.1387 C   0  0  0  0  0  0  0  0  0  0  0  0
   53.5990   -7.2013   -2.6597 C   0  0  0  0  0  0  0  0  0  0  0  0
   52.4682   -6.5711   -3.4459 C   0  0  0  0  0  0  0  0  0  0  0  0
   57.6226   -4.8108  -10.3511 C   0  0  0  0  0  0  0  0  0  0  0  0
   58.1850   -4.6028  -11.5704 C   0  0  0  0  0  0  0  0  0  0  0  0
   57.4831   -4.0416  -12.6584 C   0  0  0  0  0  0  0  0  0  0  0  0
   56.1779   -3.7074  -12.4273 C   0  0  0  0  0  0  0  0  0  0  0  0
   55.6105   -3.9250  -11.1723 C   0  0  0  0  0  0  0  0  0  0  0  0
   56.2794   -4.4658  -10.1165 C   0  0  0  0  0  0  0  0  0  0  0  0
   58.1709   -3.8735  -13.9078 C   0  0  0  0  0  0  0  0  0  0  0  0
   57.4111   -3.8447  -14.9694 O   0  0  0  0  0  0  0  0  0  0  0  0
   59.5207   -3.7347  -14.1871 N   0  0  0  0  0  0  0  0  0  0  0  0
   60.6618   -3.7236  -13.3140 C   0  0  0  0  0  0  0  0  0  0  0  0
   61.9368   -3.7103  -14.1583 C   0  0  0  0  0  0  0  0  0  0  0  0
   62.0166   -2.5574  -15.0235 N   0  0  0  0  0  0  0  0  0  0  0  0
   62.9608   -2.8916  -16.0959 C   0  0  0  0  0  0  0  0  0  0  0  0
   60.7355   -2.2990  -15.6696 C   0  0  0  0  0  0  0  0  0  0  0  0
   59.9124   -3.5584  -15.6298 C   0  0  0  0  0  0  0  0  0  0  0  0
   59.6199   -5.9372   -9.5500 C   0  0  0  0  0  0  0  0  0  0  0  0
   58.3596   -5.3706   -9.3035 O   0  0  0  0  0  0  0  0  0  0  0  0
 36 37  1  0  0  0
 37 21  1  0  0  0
 21 22  2  0  0  0
 22 23  1  0  0  0
 23 24  2  0  0  0
 24 25  1  0  0  0
 25 26  2  0  0  0
 26  1  1  0  0  0
  1  3  1  0  0  0
  3  4  2  0  0  0
  4  5  1  0  0  0
  5  6  2  0  0  0
  6  7  1  0  0  0
  7  8  1  0  0  0
  7  9  1  0  0  0
  9 10  2  0  0  0
  9 11  1  0  0  0
 11 12  1  0  0  0
 11 13  1  0  0  0
 13 16  1  0  0  0
 16 17  1  0  0  0
 17 18  1  0  0  0
 18 19  1  0  0  0
 19 20  1  0  0  0
 13 14  1  0  0  0
 14 15  2  0  0  0
 23 27  1  0  0  0
 27 28  2  0  0  0
 27 29  1  0  0  0
 29 30  1  0  0  0
 30 31  1  0  0  0
 31 32  1  0  0  0
 32 33  1  0  0  0
 32 34  1  0  0  0
 34 35  1  0  0  0
 26 21  1  0  0  0
 15  3  1  0  0  0
 35 29  1  0  0  0
 14  6  1  0  0  0
 20 16  1  0  0  0
  1  2  1  0  0  0
M  END
> <minimizedAffinity>
-9.23033

> <CNNscore>
0.6942212582

> <CNNaffinity>
7.5328454971

> <CNN_VS>
5.2294616699

> <CNNaffinity_variance>
0.1371524632

$$$$
[H]c1nc(N([H])c2c([H])c([H])c(C(=O)N3C([H])([H])C([H])([H])N(C([H])([H])[H])C([H])([H])C3([H])[H])c([H])c2OC([H])([H])[H])nc2c1N(C([H])([H])[H])C(=O)[C@@]([H])(C([H])([H])[H])N2C1([H])C([H])([H])C([H])([H])C([H])([H])C1([H])[H]


 37 41  0  0  0  0  0  0  0  0999 V2000
   55.5806   -3.7977  -11.6942 N   0  0  0  0  0  0  0  0  0  0  0  0
   54.5752   -3.6491  -12.0296 H   0  0  0  0  0  0  0  0  0  0  0  0
   56.5502   -3.7304  -12.7095 C   0  0  0  0  0  0  0  0  0  0  0  0
   56.2741   -3.5184  -13.9999 N   0  0  0  0  0  0  0  0  0  0  0  0
   57.1624   -3.4473  -15.0010 C   0  0  0  0  0  0  0  0  0  0  0  0
   58.4886   -3.6158  -14.6177 C   0  0  0  0  0  0  0  0  0  0  0  0
   59.5429   -3.5646  -15.5596 N   0  0  0  0  0  0  0  0  0  0  0  0
   59.3137   -3.3337  -16.9769 C   0  0  0  0  0  0  0  0  0  0  0  0
   60.8828   -3.7477  -15.0713 C   0  0  0  0  0  0  0  0  0  0  0  0
   61.7807   -4.1696  -15.8094 O   0  0  0  0  0  0  0  0  0  0  0  0
   61.1995   -3.4197  -13.6377 C   0  0  0  0  0  0  0  0  0  0  0  0
   61.0749   -1.8975  -13.5245 C   0  0  0  0  0  0  0  0  0  0  0  0
   60.1482   -4.0246  -12.8397 N   0  0  0  0  0  0  0  0  0  0  0  0
   58.7948   -3.8361  -13.2932 C   0  0  0  0  0  0  0  0  0  0  0  0
   57.8704   -3.8967  -12.3416 N   0  0  0  0  0  0  0  0  0  0  0  0
   60.5441   -4.7483  -11.6919 C   0  0  0  0  0  0  0  0  0  0  0  0
   59.5685   -5.6085  -11.0107 C   0  0  0  0  0  0  0  0  0  0  0  0
   60.4675   -6.3419   -9.9966 C   0  0  0  0  0  0  0  0  0  0  0  0
   61.8377   -6.3944  -10.6409 C   0  0  0  0  0  0  0  0  0  0  0  0
   61.6775   -5.7426  -11.9987 C   0  0  0  0  0  0  0  0  0  0  0  0
   54.7106   -3.6736   -9.4503 C   0  0  0  0  0  0  0  0  0  0  0  0
   54.8356   -3.8743   -8.1123 C   0  0  0  0  0  0  0  0  0  0  0  0
   55.9860   -4.4381   -7.5207 C   0  0  0  0  0  0  0  0  0  0  0  0
   56.9966   -4.7831   -8.3741 C   0  0  0  0  0  0  0  0  0  0  0  0
   56.8580   -4.5727   -9.7455 C   0  0  0  0  0  0  0  0  0  0  0  0
   55.7521   -4.0296  -10.3258 C   0  0  0  0  0  0  0  0  0  0  0  0
   56.0105   -4.6150   -6.0957 C   0  0  0  0  0  0  0  0  0  0  0  0
   56.4289   -3.5869   -5.4078 O   0  0  0  0  0  0  0  0  0  0  0  0
   55.6628   -5.7031   -5.3120 N   0  0  0  0  0  0  0  0  0  0  0  0
   55.1747   -7.0039   -5.6785 C   0  0  0  0  0  0  0  0  0  0  0  0
   55.1105   -7.8837   -4.4293 C   0  0  0  0  0  0  0  0  0  0  0  0
   54.2391   -7.3419   -3.4139 N   0  0  0  0  0  0  0  0  0  0  0  0
   54.6335   -7.9544   -2.1402 C   0  0  0  0  0  0  0  0  0  0  0  0
   54.4440   -5.9066   -3.2607 C   0  0  0  0  0  0  0  0  0  0  0  0
   55.7948   -5.5497   -3.8204 C   0  0  0  0  0  0  0  0  0  0  0  0
   52.5397   -2.6283   -9.1429 C   0  0  0  0  0  0  0  0  0  0  0  0
   53.5497   -3.1115   -9.9893 O   0  0  0  0  0  0  0  0  0  0  0  0
 36 37  1  0  0  0
 37 21  1  0  0  0
 21 22  2  0  0  0
 22 23  1  0  0  0
 23 24  2  0  0  0
 24 25  1  0  0  0
 25 26  2  0  0  0
 26  1  1  0  0  0
  1  3  1  0  0  0
  3  4  2  0  0  0
  4  5  1  0  0  0
  5  6  2  0  0  0
  6  7  1  0  0  0
  7  8  1  0  0  0
  7  9  1  0  0  0
  9 10  2  0  0  0
  9 11  1  0  0  0
 11 12  1  0  0  0
 11 13  1  0  0  0
 13 16  1  0  0  0
 16 17  1  0  0  0
 17 18  1  0  0  0
 18 19  1  0  0  0
 19 20  1  0  0  0
 13 14  1  0  0  0
 14 15  2  0  0  0
 23 27  1  0  0  0
 27 28  2  0  0  0
 27 29  1  0  0  0
 29 30  1  0  0  0
 30 31  1  0  0  0
 31 32  1  0  0  0
 32 33  1  0  0  0
 32 34  1  0  0  0
 34 35  1  0  0  0
 26 21  1  0  0  0
 15  3  1  0  0  0
 35 29  1  0  0  0
 14  6  1  0  0  0
 20 16  1  0  0  0
  1  2  1  0  0  0
M  END
> <minimizedAffinity>
-4.88585

> <CNNscore>
0.4557957351

> <CNNaffinity>
6.7283539772

> <CNN_VS>
3.0667550564

> <CNNaffinity_variance>
0.0668797418

$$$$
[H]c1nc(N([H])c2c([H])c([H])c(C(=O)N3C([H])([H])C([H])([H])N(C([H])([H])[H])C([H])([H])C3([H])[H])c([H])c2OC([H])([H])[H])nc2c1N(C([H])([H])[H])C(=O)[C@@]([H])(C([H])([H])[H])N2C1([H])C([H])([H])C([H])([H])C([H])([H])C1([H])[H]


 37 41  0  0  0  0  0  0  0  0999 V2000
   57.1383   -5.5251   -7.7425 N   0  0  0  0  0  0  0  0  0  0  0  0
   57.3786   -6.0673   -6.8517 H   0  0  0  0  0  0  0  0  0  0  0  0
   55.8629   -4.9341   -7.7395 C   0  0  0  0  0  0  0  0  0  0  0  0
   55.5079   -3.9082   -8.5190 N   0  0  0  0  0  0  0  0  0  0  0  0
   54.3076   -3.3128   -8.5505 C   0  0  0  0  0  0  0  0  0  0  0  0
   53.3693   -3.8437   -7.6720 C   0  0  0  0  0  0  0  0  0  0  0  0
   52.0559   -3.3246   -7.5902 N   0  0  0  0  0  0  0  0  0  0  0  0
   51.6026   -2.2134   -8.4114 C   0  0  0  0  0  0  0  0  0  0  0  0
   51.1533   -3.9384   -6.6543 C   0  0  0  0  0  0  0  0  0  0  0  0
   50.1964   -3.3124   -6.1837 O   0  0  0  0  0  0  0  0  0  0  0  0
   51.3754   -5.3675   -6.2402 C   0  0  0  0  0  0  0  0  0  0  0  0
   51.0872   -6.2089   -7.4871 C   0  0  0  0  0  0  0  0  0  0  0  0
   52.7880   -5.4857   -5.9260 N   0  0  0  0  0  0  0  0  0  0  0  0
   53.7149   -4.9005   -6.8593 C   0  0  0  0  0  0  0  0  0  0  0  0
   54.9229   -5.4521   -6.8712 N   0  0  0  0  0  0  0  0  0  0  0  0
   53.1295   -6.1595   -4.7313 C   0  0  0  0  0  0  0  0  0  0  0  0
   54.1216   -5.5646   -3.8272 C   0  0  0  0  0  0  0  0  0  0  0  0
   54.0099   -6.4928   -2.6022 C   0  0  0  0  0  0  0  0  0  0  0  0
   52.5833   -7.0027   -2.6151 C   0  0  0  0  0  0  0  0  0  0  0  0
   51.9182   -6.3302   -3.7981 C   0  0  0  0  0  0  0  0  0  0  0  0
   57.7371   -5.1471  -10.0460 C   0  0  0  0  0  0  0  0  0  0  0  0
   58.6546   -5.1151  -11.0476 C   0  0  0  0  0  0  0  0  0  0  0  0
   60.0181   -5.4239  -10.8553 C   0  0  0  0  0  0  0  0  0  0  0  0
   60.3864   -5.7658   -9.5841 C   0  0  0  0  0  0  0  0  0  0  0  0
   59.4367   -5.7956   -8.5635 C   0  0  0  0  0  0  0  0  0  0  0  0
   58.1191   -5.4992   -8.7391 C   0  0  0  0  0  0  0  0  0  0  0  0
   60.9059   -5.3499  -11.9817 C   0  0  0  0  0  0  0  0  0  0  0  0
   60.5043   -4.5918  -12.9662 O   0  0  0  0  0  0  0  0  0  0  0  0
   62.1326   -5.9521  -12.2092 N   0  0  0  0  0  0  0  0  0  0  0  0
   62.9017   -6.8494  -11.3920 C   0  0  0  0  0  0  0  0  0  0  0  0
   64.1052   -7.3475  -12.1933 C   0  0  0  0  0  0  0  0  0  0  0  0
   64.9682   -6.2730  -12.6230 N   0  0  0  0  0  0  0  0  0  0  0  0
   65.7544   -6.7812  -13.7529 C   0  0  0  0  0  0  0  0  0  0  0  0
   64.1908   -5.1510  -13.1348 C   0  0  0  0  0  0  0  0  0  0  0  0
   62.8205   -5.6460  -13.5126 C   0  0  0  0  0  0  0  0  0  0  0  0
   55.9919   -4.3853  -11.5539 C   0  0  0  0  0  0  0  0  0  0  0  0
   56.3965   -4.8321  -10.2864 O   0  0  0  0  0  0  0  0  0  0  0  0
 36 37  1  0  0  0
 37 21  1  0  0  0
 21 22  2  0  0  0
 22 23  1  0  0  0
 23 24  2  0  0  0
 24 25  1  0  0  0
 25 26  2  0  0  0
 26  1  1  0  0  0
  1  3  1  0  0  0
  3  4  2  0  0  0
  4  5  1  0  0  0
  5  6  2  0  0  0
  6  7  1  0  0  0
  7  8  1  0  0  0
  7  9  1  0  0  0
  9 10  2  0  0  0
  9 11  1  0  0  0
 11 12  1  0  0  0
 11 13  1  0  0  0
 13 16  1  0  0  0
 16 17  1  0  0  0
 17 18  1  0  0  0
 18 19  1  0  0  0
 19 20  1  0  0  0
 13 14  1  0  0  0
 14 15  2  0  0  0
 23 27  1  0  0  0
 27 28  2  0  0  0
 27 29  1  0  0  0
 29 30  1  0  0  0
 30 31  1  0  0  0
 31 32  1  0  0  0
 32 33  1  0  0  0
 32 34  1  0  0  0
 34 35  1  0  0  0
 26 21  1  0  0  0
 15  3  1  0  0  0
 35 29  1  0  0  0
 14  6  1  0  0  0
 20 16  1  0  0  0
  1  2  1  0  0  0
M  END
> <minimizedAffinity>
-6.76569

> <CNNscore>
0.3789551854

> <CNNaffinity>
6.8426337242

> <CNN_VS>
2.5930514336

> <CNNaffinity_variance>
0.1790608615

$$$$
[H]c1nc(N([H])c2c([H])c([H])c(C(=O)N3C([H])([H])C([H])([H])N(C([H])([H])[H])C([H])([H])C3([H])[H])c([H])c2OC([H])([H])[H])nc2c1N(C([H])([H])[H])C(=O)[C@@]([H])(C([H])([H])[H])N2C1([H])C([H])([H])C([H])([H])C([H])([H])C1([H])[H]


 37 41  0  0  0  0  0  0  0  0999 V2000
   60.0904   -5.8315   -9.9937 N   0  0  0  0  0  0  0  0  0  0  0  0
   60.4958   -5.2514  -10.7966 H   0  0  0  0  0  0  0  0  0  0  0  0
   60.9355   -6.8534   -9.5277 C   0  0  0  0  0  0  0  0  0  0  0  0
   60.7121   -8.1577   -9.7151 N   0  0  0  0  0  0  0  0  0  0  0  0
   61.4866   -9.1654   -9.2899 C   0  0  0  0  0  0  0  0  0  0  0  0
   62.6227   -8.7733   -8.5901 C   0  0  0  0  0  0  0  0  0  0  0  0
   63.5406   -9.7209   -8.0794 N   0  0  0  0  0  0  0  0  0  0  0  0
   63.3607  -11.1537   -8.2508 C   0  0  0  0  0  0  0  0  0  0  0  0
   64.6882   -9.2229   -7.3706 C   0  0  0  0  0  0  0  0  0  0  0  0
   65.2690   -9.9153   -6.5267 O   0  0  0  0  0  0  0  0  0  0  0  0
   65.1926   -7.8356   -7.6606 C   0  0  0  0  0  0  0  0  0  0  0  0
   65.7549   -7.8893   -9.0841 C   0  0  0  0  0  0  0  0  0  0  0  0
   64.0267   -6.9704   -7.6624 N   0  0  0  0  0  0  0  0  0  0  0  0
   62.8713   -7.4343   -8.3853 C   0  0  0  0  0  0  0  0  0  0  0  0
   62.0664   -6.4768   -8.8312 N   0  0  0  0  0  0  0  0  0  0  0  0
   64.1255   -5.7523   -6.9520 C   0  0  0  0  0  0  0  0  0  0  0  0
   64.6679   -5.7562   -5.5877 C   0  0  0  0  0  0  0  0  0  0  0  0
   64.7933   -4.2460   -5.3075 C   0  0  0  0  0  0  0  0  0  0  0  0
   65.0148   -3.6046   -6.6620 C   0  0  0  0  0  0  0  0  0  0  0  0
   65.0544   -4.7474   -7.6553 C   0  0  0  0  0  0  0  0  0  0  0  0
   57.8629   -5.0718  -10.5117 C   0  0  0  0  0  0  0  0  0  0  0  0
   56.6090   -4.7127  -10.1309 C   0  0  0  0  0  0  0  0  0  0  0  0
   56.1786   -4.7205   -8.7870 C   0  0  0  0  0  0  0  0  0  0  0  0
   57.1018   -5.1156   -7.8595 C   0  0  0  0  0  0  0  0  0  0  0  0
   58.3859   -5.4820   -8.2610 C   0  0  0  0  0  0  0  0  0  0  0  0
   58.8105   -5.4778   -9.5550 C   0  0  0  0  0  0  0  0  0  0  0  0
   54.8277   -4.3308   -8.4949 C   0  0  0  0  0  0  0  0  0  0  0  0
   54.2943   -3.4796   -9.3292 O   0  0  0  0  0  0  0  0  0  0  0  0
   53.9790   -4.7060   -7.4661 N   0  0  0  0  0  0  0  0  0  0  0  0
   54.1858   -5.5990   -6.3597 C   0  0  0  0  0  0  0  0  0  0  0  0
   52.9780   -5.5240   -5.4247 C   0  0  0  0  0  0  0  0  0  0  0  0
   51.7457   -5.8921   -6.0804 N   0  0  0  0  0  0  0  0  0  0  0  0
   50.6516   -5.3183   -5.2887 C   0  0  0  0  0  0  0  0  0  0  0  0
   51.6567   -5.2870   -7.4038 C   0  0  0  0  0  0  0  0  0  0  0  0
   52.5958   -4.1123   -7.4612 C   0  0  0  0  0  0  0  0  0  0  0  0
   58.1848   -3.8499  -12.5861 C   0  0  0  0  0  0  0  0  0  0  0  0
   58.2422   -5.0479  -11.8569 O   0  0  0  0  0  0  0  0  0  0  0  0
 36 37  1  0  0  0
 37 21  1  0  0  0
 21 22  2  0  0  0
 22 23  1  0  0  0
 23 24  2  0  0  0
 24 25  1  0  0  0
 25 26  2  0  0  0
 26  1  1  0  0  0
  1  3  1  0  0  0
  3  4  2  0  0  0
  4  5  1  0  0  0
  5  6  2  0  0  0
  6  7  1  0  0  0
  7  8  1  0  0  0
  7  9  1  0  0  0
  9 10  2  0  0  0
  9 11  1  0  0  0
 11 12  1  0  0  0
 11 13  1  0  0  0
 13 16  1  0  0  0
 16 17  1  0  0  0
 17 18  1  0  0  0
 18 19  1  0  0  0
 19 20  1  0  0  0
 13 14  1  0  0  0
 14 15  2  0  0  0
 23 27  1  0  0  0
 27 28  2  0  0  0
 27 29  1  0  0  0
 29 30  1  0  0  0
 30 31  1  0  0  0
 31 32  1  0  0  0
 32 33  1  0  0  0
 32 34  1  0  0  0
 34 35  1  0  0  0
 26 21  1  0  0  0
 15  3  1  0  0  0
 35 29  1  0  0  0
 14  6  1  0  0  0
 20 16  1  0  0  0
  1  2  1  0  0  0
M  END
> <minimizedAffinity>
-8.55292

> <CNNscore>
0.2819118202

> <CNNaffinity>
6.1579403877

> <CNN_VS>
1.7359961271

> <CNNaffinity_variance>
0.1206904650

$$$$
[H]c1nc(N([H])c2c([H])c([H])c(C(=O)N3C([H])([H])C([H])([H])N(C([H])([H])[H])C([H])([H])C3([H])[H])c([H])c2OC([H])([H])[H])nc2c1N(C([H])([H])[H])C(=O)[C@@]([H])(C([H])([H])[H])N2C1([H])C([H])([H])C([H])([H])C([H])([H])C1([H])[H]


 37 41  0  0  0  0  0  0  0  0999 V2000
   55.9007   -3.9809   -8.0424 N   0  0  0  0  0  0  0  0  0  0  0  0
   55.8925   -2.9257   -8.2210 H   0  0  0  0  0  0  0  0  0  0  0  0
   54.7902   -4.4600   -7.3263 C   0  0  0  0  0  0  0  0  0  0  0  0
   53.5504   -4.5303   -7.8204 N   0  0  0  0  0  0  0  0  0  0  0  0
   52.4631   -4.9777   -7.1771 C   0  0  0  0  0  0  0  0  0  0  0  0
   52.6897   -5.3999   -5.8715 C   0  0  0  0  0  0  0  0  0  0  0  0
   51.6420   -5.9011   -5.0639 N   0  0  0  0  0  0  0  0  0  0  0  0
   50.2720   -6.0087   -5.5396 C   0  0  0  0  0  0  0  0  0  0  0  0
   51.9706   -6.3162   -3.7271 C   0  0  0  0  0  0  0  0  0  0  0  0
   51.1179   -6.3235   -2.8316 O   0  0  0  0  0  0  0  0  0  0  0  0
   53.3759   -6.7505   -3.4112 C   0  0  0  0  0  0  0  0  0  0  0  0
   53.5801   -8.0691   -4.1629 C   0  0  0  0  0  0  0  0  0  0  0  0
   54.2520   -5.7511   -3.9958 N   0  0  0  0  0  0  0  0  0  0  0  0
   53.9597   -5.3351   -5.3427 C   0  0  0  0  0  0  0  0  0  0  0  0
   55.0023   -4.8816   -6.0289 N   0  0  0  0  0  0  0  0  0  0  0  0
   55.3109   -5.2711   -3.1918 C   0  0  0  0  0  0  0  0  0  0  0  0
   55.0185   -4.7537   -1.8493 C   0  0  0  0  0  0  0  0  0  0  0  0
   56.4387   -4.5647   -1.2817 C   0  0  0  0  0  0  0  0  0  0  0  0
   57.2922   -5.5995   -1.9859 C   0  0  0  0  0  0  0  0  0  0  0  0
   56.3465   -6.3672   -2.8862 C   0  0  0  0  0  0  0  0  0  0  0  0
   57.7649   -5.4569   -7.6504 C   0  0  0  0  0  0  0  0  0  0  0  0
   58.8434   -6.1556   -8.0919 C   0  0  0  0  0  0  0  0  0  0  0  0
   59.2604   -6.1608   -9.4400 C   0  0  0  0  0  0  0  0  0  0  0  0
   58.5128   -5.4131  -10.3063 C   0  0  0  0  0  0  0  0  0  0  0  0
   57.4079   -4.6998   -9.8428 C   0  0  0  0  0  0  0  0  0  0  0  0
   56.9977   -4.6885   -8.5442 C   0  0  0  0  0  0  0  0  0  0  0  0
   60.4100   -6.9419   -9.8016 C   0  0  0  0  0  0  0  0  0  0  0  0
   60.1744   -7.9639  -10.5795 O   0  0  0  0  0  0  0  0  0  0  0  0
   61.7457   -6.7979   -9.4633 N   0  0  0  0  0  0  0  0  0  0  0  0
   62.4028   -5.8246   -8.6354 C   0  0  0  0  0  0  0  0  0  0  0  0
   63.8679   -6.2260   -8.4592 C   0  0  0  0  0  0  0  0  0  0  0  0
   64.5757   -6.3053   -9.7149 N   0  0  0  0  0  0  0  0  0  0  0  0
   65.7536   -7.1509   -9.4895 C   0  0  0  0  0  0  0  0  0  0  0  0
   63.7720   -6.9809  -10.7263 C   0  0  0  0  0  0  0  0  0  0  0  0
   62.7142   -7.7984  -10.0349 C   0  0  0  0  0  0  0  0  0  0  0  0
   57.4180   -6.6899   -5.5865 C   0  0  0  0  0  0  0  0  0  0  0  0
   57.3909   -5.4836   -6.3037 O   0  0  0  0  0  0  0  0  0  0  0  0
 36 37  1  0  0  0
 37 21  1  0  0  0
 21 22  2  0  0  0
 22 23  1  0  0  0
 23 24  2  0  0  0
 24 25  1  0  0  0
 25 26  2  0  0  0
 26  1  1  0  0  0
  1  3  1  0  0  0
  3  4  2  0  0  0
  4  5  1  0  0  0
  5  6  2  0  0  0
  6  7  1  0  0  0
  7  8  1  0  0  0
  7  9  1  0  0  0
  9 10  2  0  0  0
  9 11  1  0  0  0
 11 12  1  0  0  0
 11 13  1  0  0  0
 13 16  1  0  0  0
 16 17  1  0  0  0
 17 18  1  0  0  0
 18 19  1  0  0  0
 19 20  1  0  0  0
 13 14  1  0  0  0
 14 15  2  0  0  0
 23 27  1  0  0  0
 27 28  2  0  0  0
 27 29  1  0  0  0
 29 30  1  0  0  0
 30 31  1  0  0  0
 31 32  1  0  0  0
 32 33  1  0  0  0
 32 34  1  0  0  0
 34 35  1  0  0  0
 26 21  1  0  0  0
 15  3  1  0  0  0
 35 29  1  0  0  0
 14  6  1  0  0  0
 20 16  1  0  0  0
  1  2  1  0  0  0
M  END
> <minimizedAffinity>
-4.42192

> <CNNscore>
0.2780830860

> <CNNaffinity>
6.7446937561

> <CNN_VS>
1.8755851984

> <CNNaffinity_variance>
0.6671557426

$$$$
[H]c1nc(N([H])c2c([H])c([H])c(C(=O)N3C([H])([H])C([H])([H])N(C([H])([H])[H])C([H])([H])C3([H])[H])c([H])c2OC([H])([H])[H])nc2c1N(C([H])([H])[H])C(=O)[C@@]([H])(C([H])([H])[H])N2C1([H])C([H])([H])C([H])([H])C([H])([H])C1([H])[H]


 37 41  0  0  0  0  0  0  0  0999 V2000
   60.8747   -8.7599   -7.1984 N   0  0  0  0  0  0  0  0  0  0  0  0
   60.1207   -9.3819   -7.6343 H   0  0  0  0  0  0  0  0  0  0  0  0
   60.8459   -8.7055   -5.7941 C   0  0  0  0  0  0  0  0  0  0  0  0
   61.7736   -9.2509   -5.0015 N   0  0  0  0  0  0  0  0  0  0  0  0
   61.7880   -9.2255   -3.6616 C   0  0  0  0  0  0  0  0  0  0  0  0
   60.7163   -8.5577   -3.0787 C   0  0  0  0  0  0  0  0  0  0  0  0
   60.5918   -8.4429   -1.6743 N   0  0  0  0  0  0  0  0  0  0  0  0
   61.5662   -9.0085   -0.7549 C   0  0  0  0  0  0  0  0  0  0  0  0
   59.4515   -7.7328   -1.1617 C   0  0  0  0  0  0  0  0  0  0  0  0
   59.0124   -7.9605   -0.0284 O   0  0  0  0  0  0  0  0  0  0  0  0
   58.7804   -6.6936   -2.0179 C   0  0  0  0  0  0  0  0  0  0  0  0
   59.7853   -5.5440   -2.1367 C   0  0  0  0  0  0  0  0  0  0  0  0
   58.6142   -7.2925   -3.3300 N   0  0  0  0  0  0  0  0  0  0  0  0
   59.7490   -7.9893   -3.8774 C   0  0  0  0  0  0  0  0  0  0  0  0
   59.7867   -8.0457   -5.2037 N   0  0  0  0  0  0  0  0  0  0  0  0
   57.3541   -7.1436   -3.9528 C   0  0  0  0  0  0  0  0  0  0  0  0
   56.3460   -8.2000   -3.8004 C   0  0  0  0  0  0  0  0  0  0  0  0
   55.1087   -7.5310   -4.4299 C   0  0  0  0  0  0  0  0  0  0  0  0
   55.3011   -6.0447   -4.2083 C   0  0  0  0  0  0  0  0  0  0  0  0
   56.5956   -5.9098   -3.4335 C   0  0  0  0  0  0  0  0  0  0  0  0
   62.7142   -8.8921   -8.7494 C   0  0  0  0  0  0  0  0  0  0  0  0
   63.5839   -8.3114   -9.6170 C   0  0  0  0  0  0  0  0  0  0  0  0
   63.5769   -6.9307   -9.9084 C   0  0  0  0  0  0  0  0  0  0  0  0
   62.6323   -6.1821   -9.2636 C   0  0  0  0  0  0  0  0  0  0  0  0
   61.7447   -6.7880   -8.3751 C   0  0  0  0  0  0  0  0  0  0  0  0
   61.7435   -8.1191   -8.0874 C   0  0  0  0  0  0  0  0  0  0  0  0
   64.5353   -6.4211  -10.8488 C   0  0  0  0  0  0  0  0  0  0  0  0
   65.7466   -6.2614  -10.3878 O   0  0  0  0  0  0  0  0  0  0  0  0
   64.3963   -6.0637  -12.1800 N   0  0  0  0  0  0  0  0  0  0  0  0
   63.2451   -6.0820  -13.0397 C   0  0  0  0  0  0  0  0  0  0  0  0
   63.6059   -5.4234  -14.3719 C   0  0  0  0  0  0  0  0  0  0  0  0
   64.6881   -6.0979  -15.0486 N   0  0  0  0  0  0  0  0  0  0  0  0
   65.2629   -5.1386  -15.9986 C   0  0  0  0  0  0  0  0  0  0  0  0
   65.7543   -6.4419  -14.1158 C   0  0  0  0  0  0  0  0  0  0  0  0
   65.6263   -5.5715  -12.8946 C   0  0  0  0  0  0  0  0  0  0  0  0
   62.3495  -11.1815   -9.4745 C   0  0  0  0  0  0  0  0  0  0  0  0
   62.7606  -10.2656   -8.4936 O   0  0  0  0  0  0  0  0  0  0  0  0
 36 37  1  0  0  0
 37 21  1  0  0  0
 21 22  2  0  0  0
 22 23  1  0  0  0
 23 24  2  0  0  0
 24 25  1  0  0  0
 25 26  2  0  0  0
 26  1  1  0  0  0
  1  3  1  0  0  0
  3  4  2  0  0  0
  4  5  1  0  0  0
  5  6  2  0  0  0
  6  7  1  0  0  0
  7  8  1  0  0  0
  7  9  1  0  0  0
  9 10  2  0  0  0
  9 11  1  0  0  0
 11 12  1  0  0  0
 11 13  1  0  0  0
 13 16  1  0  0  0
 16 17  1  0  0  0
 17 18  1  0  0  0
 18 19  1  0  0  0
 19 20  1  0  0  0
 13 14  1  0  0  0
 14 15  2  0  0  0
 23 27  1  0  0  0
 27 28  2  0  0  0
 27 29  1  0  0  0
 29 30  1  0  0  0
 30 31  1  0  0  0
 31 32  1  0  0  0
 32 33  1  0  0  0
 32 34  1  0  0  0
 34 35  1  0  0  0
 26 21  1  0  0  0
 15  3  1  0  0  0
 35 29  1  0  0  0
 14  6  1  0  0  0
 20 16  1  0  0  0
  1  2  1  0  0  0
M  END
> <minimizedAffinity>
-2.48399

> <CNNscore>
0.2604353130

> <CNNaffinity>
5.6210179329

> <CNN_VS>
1.4639115334

> <CNNaffinity_variance>
0.6100648046

$$$$
[H]c1nc(N([H])c2c([H])c([H])c(C(=O)N([H])C3([H])C([H])([H])N(C([H])([H])[H])C([H])([H])C3([H])[H])c([H])c2OC([H])([H])[H])nc2c1N(C([H])([H])[H])C(=O)[C@@]([H])(C([H])([H])[H])N2C1([H])C([H])([H])C([H])([H])C([H])([H])C1([H])[H]


 38 42  0  0  0  0  0  0  0  0999 V2000
   54.7418   -3.3836   -9.4054 N   0  0  0  0  0  0  0  0  0  0  0  0
   54.6432   -2.6932  -10.2198 H   0  0  0  0  0  0  0  0  0  0  0  0
   53.6428   -3.5057   -8.5430 C   0  0  0  0  0  0  0  0  0  0  0  0
   52.5520   -2.7271   -8.8452 N   0  0  0  0  0  0  0  0  0  0  0  0
   51.4261   -2.7132   -8.1497 C   0  0  0  0  0  0  0  0  0  0  0  0
   51.3444   -3.5368   -7.0474 C   0  0  0  0  0  0  0  0  0  0  0  0
   50.1792   -3.5996   -6.2389 N   0  0  0  0  0  0  0  0  0  0  0  0
   48.9939   -2.7866   -6.5398 C   0  0  0  0  0  0  0  0  0  0  0  0
   50.1846   -4.4805   -5.1258 C   0  0  0  0  0  0  0  0  0  0  0  0
   49.1260   -4.9629   -4.6702 O   0  0  0  0  0  0  0  0  0  0  0  0
   51.5013   -4.8098   -4.5190 C   0  0  0  0  0  0  0  0  0  0  0  0
   51.3226   -5.6482   -3.3204 C   0  0  0  0  0  0  0  0  0  0  0  0
   52.3690   -5.2272   -5.5492 N   0  0  0  0  0  0  0  0  0  0  0  0
   52.4081   -4.3448   -6.6898 C   0  0  0  0  0  0  0  0  0  0  0  0
   53.5167   -4.2833   -7.4708 N   0  0  0  0  0  0  0  0  0  0  0  0
   53.2006   -6.4079   -5.6053 C   0  0  0  0  0  0  0  0  0  0  0  0
   53.7943   -6.6806   -6.9581 C   0  0  0  0  0  0  0  0  0  0  0  0
   55.2000   -7.1856   -6.7129 C   0  0  0  0  0  0  0  0  0  0  0  0
   55.4066   -7.1925   -5.2363 C   0  0  0  0  0  0  0  0  0  0  0  0
   54.2576   -6.5072   -4.5653 C   0  0  0  0  0  0  0  0  0  0  0  0
   56.6208   -4.3891  -10.5623 C   0  0  0  0  0  0  0  0  0  0  0  0
   57.8348   -5.0351  -10.5882 C   0  0  0  0  0  0  0  0  0  0  0  0
   58.5092   -5.3907   -9.4482 C   0  0  0  0  0  0  0  0  0  0  0  0
   57.8929   -5.0591   -8.2607 C   0  0  0  0  0  0  0  0  0  0  0  0
   56.6566   -4.4011   -8.2139 C   0  0  0  0  0  0  0  0  0  0  0  0
   55.9839   -4.0467   -9.3586 C   0  0  0  0  0  0  0  0  0  0  0  0
   59.7972   -6.0784   -9.4614 C   0  0  0  0  0  0  0  0  0  0  0  0
   60.4669   -6.0985  -10.5147 O   0  0  0  0  0  0  0  0  0  0  0  0
   60.2813   -6.7135   -8.2985 N   0  0  0  0  0  0  0  0  0  0  0  0
   59.8094   -6.7569   -7.3754 H   0  0  0  0  0  0  0  0  0  0  0  0
   61.5713   -7.3841   -8.3680 C   0  0  0  0  0  0  0  0  0  0  0  0
   62.1148   -7.4687   -6.9539 C   0  0  0  0  0  0  0  0  0  0  0  0
   63.0420   -8.6616   -7.0620 C   0  0  0  0  0  0  0  0  0  0  0  0
   62.5160   -9.5048   -8.0928 N   0  0  0  0  0  0  0  0  0  0  0  0
   63.5133   -9.9338   -9.0524 C   0  0  0  0  0  0  0  0  0  0  0  0
   61.4483   -8.8220   -8.7550 C   0  0  0  0  0  0  0  0  0  0  0  0
   56.6814   -3.8506  -12.9446 C   0  0  0  0  0  0  0  0  0  0  0  0
   55.9733   -4.0480  -11.7576 O   0  0  0  0  0  0  0  0  0  0  0  0
 37 38  1  0  0  0
 38 21  1  0  0  0
 21 22  2  0  0  0
 22 23  1  0  0  0
 23 24  2  0  0  0
 24 25  1  0  0  0
 25 26  2  0  0  0
 26  1  1  0  0  0
  1  3  1  0  0  0
  3  4  2  0  0  0
  4  5  1  0  0  0
  5  6  2  0  0  0
  6  7  1  0  0  0
  7  8  1  0  0  0
  7  9  1  0  0  0
  9 10  2  0  0  0
  9 11  1  0  0  0
 11 12  1  0  0  0
 11 13  1  0  0  0
 13 16  1  0  0  0
 16 17  1  0  0  0
 17 18  1  0  0  0
 18 19  1  0  0  0
 19 20  1  0  0  0
 13 14  1  0  0  0
 14 15  2  0  0  0
 23 27  1  0  0  0
 27 28  2  0  0  0
 27 29  1  0  0  0
 29 31  1  0  0  0
 31 32  1  0  0  0
 32 33  1  0  0  0
 33 34  1  0  0  0
 34 35  1  0  0  0
 34 36  1  0  0  0
 26 21  1  0  0  0
 15  3  1  0  0  0
 36 31  1  0  0  0
 14  6  1  0  0  0
 20 16  1  0  0  0
  1  2  1  0  0  0
 29 30  1  0  0  0
M  END
> <minimizedAffinity>
-9.70212

> <CNNscore>
0.8322240710

> <CNNaffinity>
7.9018564224

> <CNN_VS>
6.5761151314

> <CNNaffinity_variance>
0.1380736828

$$$$
[H]c1nc(N([H])c2c([H])c([H])c(C(=O)N([H])C3([H])C([H])([H])N(C([H])([H])[H])C([H])([H])C3([H])[H])c([H])c2OC([H])([H])[H])nc2c1N(C([H])([H])[H])C(=O)[C@@]([H])(C([H])([H])[H])N2C1([H])C([H])([H])C([H])([H])C([H])([H])C1([H])[H]


 38 42  0  0  0  0  0  0  0  0999 V2000
   54.0729   -3.1280   -9.3696 N   0  0  0  0  0  0  0  0  0  0  0  0
   53.8632   -2.3823  -10.1108 H   0  0  0  0  0  0  0  0  0  0  0  0
   53.0917   -3.3404   -8.3905 C   0  0  0  0  0  0  0  0  0  0  0  0
   51.9529   -2.5805   -8.5059 N   0  0  0  0  0  0  0  0  0  0  0  0
   50.9211   -2.6475   -7.6798 C   0  0  0  0  0  0  0  0  0  0  0  0
   50.9962   -3.5412   -6.6331 C   0  0  0  0  0  0  0  0  0  0  0  0
   49.9411   -3.6931   -5.6954 N   0  0  0  0  0  0  0  0  0  0  0  0
   48.7079   -2.9022   -5.7958 C   0  0  0  0  0  0  0  0  0  0  0  0
   50.1053   -4.6417   -4.6523 C   0  0  0  0  0  0  0  0  0  0  0  0
   49.1232   -5.1864   -4.1050 O   0  0  0  0  0  0  0  0  0  0  0  0
   51.4944   -4.9652   -4.2326 C   0  0  0  0  0  0  0  0  0  0  0  0
   51.4855   -5.8828   -3.0797 C   0  0  0  0  0  0  0  0  0  0  0  0
   52.2390   -5.2880   -5.3858 N   0  0  0  0  0  0  0  0  0  0  0  0
   52.1155   -4.3347   -6.4614 C   0  0  0  0  0  0  0  0  0  0  0  0
   53.1178   -4.1876   -7.3651 N   0  0  0  0  0  0  0  0  0  0  0  0
   53.0866   -6.4349   -5.6206 C   0  0  0  0  0  0  0  0  0  0  0  0
   53.5398   -6.5857   -7.0450 C   0  0  0  0  0  0  0  0  0  0  0  0
   54.9746   -7.0643   -6.9876 C   0  0  0  0  0  0  0  0  0  0  0  0
   55.3365   -7.1768   -5.5455 C   0  0  0  0  0  0  0  0  0  0  0  0
   54.2497   -6.5801   -4.7070 C   0  0  0  0  0  0  0  0  0  0  0  0
   56.1547   -3.9150   -8.4066 C   0  0  0  0  0  0  0  0  0  0  0  0
   57.3844   -4.5257   -8.4895 C   0  0  0  0  0  0  0  0  0  0  0  0
   57.8848   -5.0273   -9.6636 C   0  0  0  0  0  0  0  0  0  0  0  0
   57.0745   -4.8825  -10.7694 C   0  0  0  0  0  0  0  0  0  0  0  0
   55.8191   -4.2635  -10.7049 C   0  0  0  0  0  0  0  0  0  0  0  0
   55.3213   -3.7619   -9.5263 C   0  0  0  0  0  0  0  0  0  0  0  0
   59.1890   -5.6759   -9.7659 C   0  0  0  0  0  0  0  0  0  0  0  0
   59.8554   -5.5433  -10.8131 O   0  0  0  0  0  0  0  0  0  0  0  0
   59.6922   -6.4440   -8.6950 N   0  0  0  0  0  0  0  0  0  0  0  0
   59.2246   -6.6179   -7.7851 H   0  0  0  0  0  0  0  0  0  0  0  0
   60.9978   -7.0683   -8.8509 C   0  0  0  0  0  0  0  0  0  0  0  0
   61.5214   -7.3770   -7.4606 C   0  0  0  0  0  0  0  0  0  0  0  0
   62.4765   -8.5168   -7.7484 C   0  0  0  0  0  0  0  0  0  0  0  0
   61.9855   -9.1862   -8.9149 N   0  0  0  0  0  0  0  0  0  0  0  0
   63.0067   -9.4296   -9.9136 C   0  0  0  0  0  0  0  0  0  0  0  0
   60.9129   -8.4236   -9.4742 C   0  0  0  0  0  0  0  0  0  0  0  0
   56.3876   -3.6354   -5.9907 C   0  0  0  0  0  0  0  0  0  0  0  0
   55.6902   -3.4191   -7.1808 O   0  0  0  0  0  0  0  0  0  0  0  0
 37 38  1  0  0  0
 38 21  1  0  0  0
 21 22  2  0  0  0
 22 23  1  0  0  0
 23 24  2  0  0  0
 24 25  1  0  0  0
 25 26  2  0  0  0
 26  1  1  0  0  0
  1  3  1  0  0  0
  3  4  2  0  0  0
  4  5  1  0  0  0
  5  6  2  0  0  0
  6  7  1  0  0  0
  7  8  1  0  0  0
  7  9  1  0  0  0
  9 10  2  0  0  0
  9 11  1  0  0  0
 11 12  1  0  0  0
 11 13  1  0  0  0
 13 16  1  0  0  0
 16 17  1  0  0  0
 17 18  1  0  0  0
 18 19  1  0  0  0
 19 20  1  0  0  0
 13 14  1  0  0  0
 14 15  2  0  0  0
 23 27  1  0  0  0
 27 28  2  0  0  0
 27 29  1  0  0  0
 29 31  1  0  0  0
 31 32  1  0  0  0
 32 33  1  0  0  0
 33 34  1  0  0  0
 34 35  1  0  0  0
 34 36  1  0  0  0
 26 21  1  0  0  0
 15  3  1  0  0  0
 36 31  1  0  0  0
 14  6  1  0  0  0
 20 16  1  0  0  0
  1  2  1  0  0  0
 29 30  1  0  0  0
M  END
> <minimizedAffinity>
-9.24636

> <CNNscore>
0.7520737648

> <CNNaffinity>
7.6671485901

> <CNN_VS>
5.7662611008

> <CNNaffinity_variance>
0.0645322055

$$$$
[H]c1nc(N([H])c2c([H])c([H])c(C(=O)N([H])C3([H])C([H])([H])N(C([H])([H])[H])C([H])([H])C3([H])[H])c([H])c2OC([H])([H])[H])nc2c1N(C([H])([H])[H])C(=O)[C@@]([H])(C([H])([H])[H])N2C1([H])C([H])([H])C([H])([H])C([H])([H])C1([H])[H]


 38 42  0  0  0  0  0  0  0  0999 V2000
   55.0294   -4.4179   -8.6477 N   0  0  0  0  0  0  0  0  0  0  0  0
   54.6317   -3.8018   -9.4300 H   0  0  0  0  0  0  0  0  0  0  0  0
   54.1710   -4.7174   -7.5801 C   0  0  0  0  0  0  0  0  0  0  0  0
   52.8329   -4.5028   -7.8061 N   0  0  0  0  0  0  0  0  0  0  0  0
   51.8774   -4.7328   -6.9198 C   0  0  0  0  0  0  0  0  0  0  0  0
   52.2524   -5.2211   -5.6865 C   0  0  0  0  0  0  0  0  0  0  0  0
   51.3041   -5.5059   -4.6691 N   0  0  0  0  0  0  0  0  0  0  0  0
   49.8665   -5.2952   -4.8820 C   0  0  0  0  0  0  0  0  0  0  0  0
   51.7825   -6.0103   -3.4316 C   0  0  0  0  0  0  0  0  0  0  0  0
   51.0650   -6.7194   -2.6946 O   0  0  0  0  0  0  0  0  0  0  0  0
   53.1747   -5.6628   -3.0422 C   0  0  0  0  0  0  0  0  0  0  0  0
   53.4777   -6.1760   -1.6946 C   0  0  0  0  0  0  0  0  0  0  0  0
   54.0250   -5.9735   -4.1233 N   0  0  0  0  0  0  0  0  0  0  0  0
   53.5835   -5.4582   -5.3963 C   0  0  0  0  0  0  0  0  0  0  0  0
   54.4838   -5.1887   -6.3760 N   0  0  0  0  0  0  0  0  0  0  0  0
   55.2539   -6.7341   -4.1149 C   0  0  0  0  0  0  0  0  0  0  0  0
   56.4210   -6.0141   -3.5013 C   0  0  0  0  0  0  0  0  0  0  0  0
   57.1990   -7.0511   -2.7200 C   0  0  0  0  0  0  0  0  0  0  0  0
   56.4775   -8.3460   -2.8808 C   0  0  0  0  0  0  0  0  0  0  0  0
   55.1628   -8.1080   -3.5554 C   0  0  0  0  0  0  0  0  0  0  0  0
   56.8876   -4.8215  -10.1525 C   0  0  0  0  0  0  0  0  0  0  0  0
   58.1844   -5.1948  -10.4185 C   0  0  0  0  0  0  0  0  0  0  0  0
   59.0592   -5.5846   -9.4370 C   0  0  0  0  0  0  0  0  0  0  0  0
   58.5579   -5.5804   -8.1529 C   0  0  0  0  0  0  0  0  0  0  0  0
   57.2401   -5.2034   -7.8621 C   0  0  0  0  0  0  0  0  0  0  0  0
   56.3665   -4.8136   -8.8487 C   0  0  0  0  0  0  0  0  0  0  0  0
   60.4374   -5.9852   -9.7056 C   0  0  0  0  0  0  0  0  0  0  0  0
   60.8374   -6.0389  -10.8869 O   0  0  0  0  0  0  0  0  0  0  0  0
   61.3087   -6.3081   -8.6442 N   0  0  0  0  0  0  0  0  0  0  0  0
   61.0813   -6.2962   -7.6318 H   0  0  0  0  0  0  0  0  0  0  0  0
   62.6720   -6.7010   -8.9693 C   0  0  0  0  0  0  0  0  0  0  0  0
   63.6019   -5.8621   -8.1127 C   0  0  0  0  0  0  0  0  0  0  0  0
   64.8309   -6.7454   -8.0540 C   0  0  0  0  0  0  0  0  0  0  0  0
   64.3783   -8.0969   -8.1913 N   0  0  0  0  0  0  0  0  0  0  0  0
   65.1291   -8.8606   -9.1672 C   0  0  0  0  0  0  0  0  0  0  0  0
   62.9878   -8.0921   -8.5247 C   0  0  0  0  0  0  0  0  0  0  0  0
   56.5248   -3.8565  -12.3676 C   0  0  0  0  0  0  0  0  0  0  0  0
   56.0342   -4.4314  -11.1936 O   0  0  0  0  0  0  0  0  0  0  0  0
 37 38  1  0  0  0
 38 21  1  0  0  0
 21 22  2  0  0  0
 22 23  1  0  0  0
 23 24  2  0  0  0
 24 25  1  0  0  0
 25 26  2  0  0  0
 26  1  1  0  0  0
  1  3  1  0  0  0
  3  4  2  0  0  0
  4  5  1  0  0  0
  5  6  2  0  0  0
  6  7  1  0  0  0
  7  8  1  0  0  0
  7  9  1  0  0  0
  9 10  2  0  0  0
  9 11  1  0  0  0
 11 12  1  0  0  0
 11 13  1  0  0  0
 13 16  1  0  0  0
 16 17  1  0  0  0
 17 18  1  0  0  0
 18 19  1  0  0  0
 19 20  1  0  0  0
 13 14  1  0  0  0
 14 15  2  0  0  0
 23 27  1  0  0  0
 27 28  2  0  0  0
 27 29  1  0  0  0
 29 31  1  0  0  0
 31 32  1  0  0  0
 32 33  1  0  0  0
 33 34  1  0  0  0
 34 35  1  0  0  0
 34 36  1  0  0  0
 26 21  1  0  0  0
 15  3  1  0  0  0
 36 31  1  0  0  0
 14  6  1  0  0  0
 20 16  1  0  0  0
  1  2  1  0  0  0
 29 30  1  0  0  0
M  END
> <minimizedAffinity>
-8.70362

> <CNNscore>
0.4053142965

> <CNNaffinity>
7.0515990257

> <CNN_VS>
2.8581140041

> <CNNaffinity_variance>
0.1340911984

$$$$
[H]c1nc(N([H])c2c([H])c([H])c(C(=O)N([H])C3([H])C([H])([H])N(C([H])([H])[H])C([H])([H])C3([H])[H])c([H])c2OC([H])([H])[H])nc2c1N(C([H])([H])[H])C(=O)[C@@]([H])(C([H])([H])[H])N2C1([H])C([H])([H])C([H])([H])C([H])([H])C1([H])[H]


 38 42  0  0  0  0  0  0  0  0999 V2000
   53.9153   -3.8768   -8.4419 N   0  0  0  0  0  0  0  0  0  0  0  0
   53.4668   -3.1374   -9.0758 H   0  0  0  0  0  0  0  0  0  0  0  0
   53.1774   -4.2795   -7.3195 C   0  0  0  0  0  0  0  0  0  0  0  0
   51.8274   -4.0289   -7.3660 N   0  0  0  0  0  0  0  0  0  0  0  0
   50.9741   -4.3423   -6.4042 C   0  0  0  0  0  0  0  0  0  0  0  0
   51.4760   -4.9624   -5.2801 C   0  0  0  0  0  0  0  0  0  0  0  0
   50.6436   -5.3442   -4.1954 N   0  0  0  0  0  0  0  0  0  0  0  0
   49.1960   -5.0980   -4.2178 C   0  0  0  0  0  0  0  0  0  0  0  0
   51.2484   -5.9817   -3.0807 C   0  0  0  0  0  0  0  0  0  0  0  0
   50.6039   -6.7580   -2.3439 O   0  0  0  0  0  0  0  0  0  0  0  0
   52.6831   -5.6912   -2.8204 C   0  0  0  0  0  0  0  0  0  0  0  0
   53.1260   -6.3475   -1.5777 C   0  0  0  0  0  0  0  0  0  0  0  0
   53.3980   -5.8938   -4.0189 N   0  0  0  0  0  0  0  0  0  0  0  0
   52.8259   -5.2420   -5.1717 C   0  0  0  0  0  0  0  0  0  0  0  0
   53.6147   -4.8789   -6.2152 N   0  0  0  0  0  0  0  0  0  0  0  0
   54.6028   -6.6631   -4.2317 C   0  0  0  0  0  0  0  0  0  0  0  0
   55.8525   -6.0072   -3.7170 C   0  0  0  0  0  0  0  0  0  0  0  0
   56.7039   -7.1127   -3.1304 C   0  0  0  0  0  0  0  0  0  0  0  0
   55.9428   -8.3833   -3.3024 C   0  0  0  0  0  0  0  0  0  0  0  0
   54.5575   -8.0781   -3.7798 C   0  0  0  0  0  0  0  0  0  0  0  0
   56.1971   -4.5049   -7.9137 C   0  0  0  0  0  0  0  0  0  0  0  0
   57.4593   -4.9262   -8.2621 C   0  0  0  0  0  0  0  0  0  0  0  0
   57.8227   -5.1835   -9.5591 C   0  0  0  0  0  0  0  0  0  0  0  0
   56.8383   -4.9933  -10.5051 C   0  0  0  0  0  0  0  0  0  0  0  0
   55.5470   -4.5647  -10.1699 C   0  0  0  0  0  0  0  0  0  0  0  0
   55.1868   -4.3077   -8.8688 C   0  0  0  0  0  0  0  0  0  0  0  0
   59.1592   -5.6291   -9.9428 C   0  0  0  0  0  0  0  0  0  0  0  0
   59.6242   -5.2809  -11.0477 O   0  0  0  0  0  0  0  0  0  0  0  0
   59.9181   -6.4438   -9.0765 N   0  0  0  0  0  0  0  0  0  0  0  0
   59.6300   -6.7887   -8.1412 H   0  0  0  0  0  0  0  0  0  0  0  0
   61.2443   -6.8589   -9.5095 C   0  0  0  0  0  0  0  0  0  0  0  0
   62.2092   -6.5411   -8.3824 C   0  0  0  0  0  0  0  0  0  0  0  0
   63.3208   -7.5337   -8.6530 C   0  0  0  0  0  0  0  0  0  0  0  0
   62.7237   -8.6579   -9.3085 N   0  0  0  0  0  0  0  0  0  0  0  0
   63.4411   -9.0831  -10.4934 C   0  0  0  0  0  0  0  0  0  0  0  0
   61.3672   -8.3429   -9.6332 C   0  0  0  0  0  0  0  0  0  0  0  0
   56.5060   -3.2433   -5.8445 C   0  0  0  0  0  0  0  0  0  0  0  0
   55.8777   -4.2558   -6.5720 O   0  0  0  0  0  0  0  0  0  0  0  0
 37 38  1  0  0  0
 38 21  1  0  0  0
 21 22  2  0  0  0
 22 23  1  0  0  0
 23 24  2  0  0  0
 24 25  1  0  0  0
 25 26  2  0  0  0
 26  1  1  0  0  0
  1  3  1  0  0  0
  3  4  2  0  0  0
  4  5  1  0  0  0
  5  6  2  0  0  0
  6  7  1  0  0  0
  7  8  1  0  0  0
  7  9  1  0  0  0
  9 10  2  0  0  0
  9 11  1  0  0  0
 11 12  1  0  0  0
 11 13  1  0  0  0
 13 16  1  0  0  0
 16 17  1  0  0  0
 17 18  1  0  0  0
 18 19  1  0  0  0
 19 20  1  0  0  0
 13 14  1  0  0  0
 14 15  2  0  0  0
 23 27  1  0  0  0
 27 28  2  0  0  0
 27 29  1  0  0  0
 29 31  1  0  0  0
 31 32  1  0  0  0
 32 33  1  0  0  0
 33 34  1  0  0  0
 34 35  1  0  0  0
 34 36  1  0  0  0
 26 21  1  0  0  0
 15  3  1  0  0  0
 36 31  1  0  0  0
 14  6  1  0  0  0
 20 16  1  0  0  0
  1  2  1  0  0  0
 29 30  1  0  0  0
M  END
> <minimizedAffinity>
-7.72118

> <CNNscore>
0.3662105501

> <CNNaffinity>
7.1639924049

> <CNN_VS>
2.6235296726

> <CNNaffinity_variance>
0.2280675918

$$$$
[H]c1nc(N([H])c2c([H])c([H])c(C(=O)N([H])C3([H])C([H])([H])N(C([H])([H])[H])C([H])([H])C3([H])[H])c([H])c2OC([H])([H])[H])nc2c1N(C([H])([H])[H])C(=O)[C@@]([H])(C([H])([H])[H])N2C1([H])C([H])([H])C([H])([H])C([H])([H])C1([H])[H]


 38 42  0  0  0  0  0  0  0  0999 V2000
   55.6796   -3.9395  -10.5237 N   0  0  0  0  0  0  0  0  0  0  0  0
   54.7630   -3.5185  -10.8874 H   0  0  0  0  0  0  0  0  0  0  0  0
   56.7747   -3.9227  -11.3993 C   0  0  0  0  0  0  0  0  0  0  0  0
   57.9873   -4.2660  -10.8521 N   0  0  0  0  0  0  0  0  0  0  0  0
   59.1264   -4.3109  -11.5244 C   0  0  0  0  0  0  0  0  0  0  0  0
   59.0916   -3.9912  -12.8648 C   0  0  0  0  0  0  0  0  0  0  0  0
   60.2571   -4.0143  -13.6750 N   0  0  0  0  0  0  0  0  0  0  0  0
   61.5663   -4.3848  -13.1225 C   0  0  0  0  0  0  0  0  0  0  0  0
   60.1245   -3.6742  -15.0467 C   0  0  0  0  0  0  0  0  0  0  0  0
   60.9180   -4.1110  -15.9071 O   0  0  0  0  0  0  0  0  0  0  0  0
   59.0021   -2.7753  -15.4244 C   0  0  0  0  0  0  0  0  0  0  0  0
   59.0672   -2.4418  -16.8582 C   0  0  0  0  0  0  0  0  0  0  0  0
   57.8139   -3.2995  -14.8750 N   0  0  0  0  0  0  0  0  0  0  0  0
   57.9025   -3.6369  -13.4752 C   0  0  0  0  0  0  0  0  0  0  0  0
   56.7915   -3.6223  -12.6952 N   0  0  0  0  0  0  0  0  0  0  0  0
   56.5480   -3.5420  -15.5287 C   0  0  0  0  0  0  0  0  0  0  0  0
   55.7384   -2.3027  -15.7846 C   0  0  0  0  0  0  0  0  0  0  0  0
   55.0903   -2.4889  -17.1397 C   0  0  0  0  0  0  0  0  0  0  0  0
   55.5332   -3.8170  -17.6530 C   0  0  0  0  0  0  0  0  0  0  0  0
   56.6028   -4.3681  -16.7629 C   0  0  0  0  0  0  0  0  0  0  0  0
   54.3536   -4.4909   -8.5697 C   0  0  0  0  0  0  0  0  0  0  0  0
   54.2079   -4.9691   -7.2883 C   0  0  0  0  0  0  0  0  0  0  0  0
   55.2644   -5.4283   -6.5444 C   0  0  0  0  0  0  0  0  0  0  0  0
   56.4958   -5.3826   -7.1624 C   0  0  0  0  0  0  0  0  0  0  0  0
   56.6642   -4.8991   -8.4667 C   0  0  0  0  0  0  0  0  0  0  0  0
   55.6028   -4.4396   -9.2088 C   0  0  0  0  0  0  0  0  0  0  0  0
   55.1241   -5.9366   -5.1827 C   0  0  0  0  0  0  0  0  0  0  0  0
   56.0689   -6.5693   -4.6677 O   0  0  0  0  0  0  0  0  0  0  0  0
   53.9355   -5.7163   -4.4556 N   0  0  0  0  0  0  0  0  0  0  0  0
   53.0942   -5.2061   -4.7853 H   0  0  0  0  0  0  0  0  0  0  0  0
   53.8497   -6.2451   -3.1022 C   0  0  0  0  0  0  0  0  0  0  0  0
   54.1047   -5.0928   -2.1485 C   0  0  0  0  0  0  0  0  0  0  0  0
   53.3926   -5.5749   -0.9017 C   0  0  0  0  0  0  0  0  0  0  0  0
   52.3312   -6.4329   -1.3347 N   0  0  0  0  0  0  0  0  0  0  0  0
   52.2763   -7.6904   -0.6170 C   0  0  0  0  0  0  0  0  0  0  0  0
   52.4627   -6.6658   -2.7394 C   0  0  0  0  0  0  0  0  0  0  0  0
   52.6789   -2.7772   -9.0468 C   0  0  0  0  0  0  0  0  0  0  0  0
   53.2398   -4.0330   -9.2868 O   0  0  0  0  0  0  0  0  0  0  0  0
 37 38  1  0  0  0
 38 21  1  0  0  0
 21 22  2  0  0  0
 22 23  1  0  0  0
 23 24  2  0  0  0
 24 25  1  0  0  0
 25 26  2  0  0  0
 26  1  1  0  0  0
  1  3  1  0  0  0
  3  4  2  0  0  0
  4  5  1  0  0  0
  5  6  2  0  0  0
  6  7  1  0  0  0
  7  8  1  0  0  0
  7  9  1  0  0  0
  9 10  2  0  0  0
  9 11  1  0  0  0
 11 12  1  0  0  0
 11 13  1  0  0  0
 13 16  1  0  0  0
 16 17  1  0  0  0
 17 18  1  0  0  0
 18 19  1  0  0  0
 19 20  1  0  0  0
 13 14  1  0  0  0
 14 15  2  0  0  0
 23 27  1  0  0  0
 27 28  2  0  0  0
 27 29  1  0  0  0
 29 31  1  0  0  0
 31 32  1  0  0  0
 32 33  1  0  0  0
 33 34  1  0  0  0
 34 35  1  0  0  0
 34 36  1  0  0  0
 26 21  1  0  0  0
 15  3  1  0  0  0
 36 31  1  0  0  0
 14  6  1  0  0  0
 20 16  1  0  0  0
  1  2  1  0  0  0
 29 30  1  0  0  0
M  END
> <minimizedAffinity>
-5.66092

> <CNNscore>
0.2759215832

> <CNNaffinity>
6.4219284058

> <CNN_VS>
1.7719486952

> <CNNaffinity_variance>
0.1401436031

$$$$
[H]c1nc(N([H])c2c([H])c([H])c(C(=O)N([H])C3([H])C([H])([H])N(C([H])([H])[H])C([H])([H])C3([H])[H])c([H])c2OC([H])([H])[H])nc2c1N(C([H])([H])[H])C(=O)[C@@]([H])(C([H])([H])[H])N2C1([H])C([H])([H])C([H])([H])C([H])([H])C1([H])[H]


 38 42  0  0  0  0  0  0  0  0999 V2000
   56.2198   -4.5651   -8.7553 N   0  0  0  0  0  0  0  0  0  0  0  0
   55.7597   -3.9278   -9.4845 H   0  0  0  0  0  0  0  0  0  0  0  0
   55.4814   -4.8335   -7.5938 C   0  0  0  0  0  0  0  0  0  0  0  0
   56.2151   -5.1062   -6.4646 N   0  0  0  0  0  0  0  0  0  0  0  0
   55.6924   -5.3766   -5.2792 C   0  0  0  0  0  0  0  0  0  0  0  0
   54.3182   -5.3848   -5.1724 C   0  0  0  0  0  0  0  0  0  0  0  0
   53.6598   -5.6578   -3.9446 N   0  0  0  0  0  0  0  0  0  0  0  0
   54.4151   -5.9447   -2.7182 C   0  0  0  0  0  0  0  0  0  0  0  0
   52.2406   -5.6400   -3.9287 C   0  0  0  0  0  0  0  0  0  0  0  0
   51.6027   -5.3860   -2.8849 O   0  0  0  0  0  0  0  0  0  0  0  0
   51.5372   -5.9358   -5.2047 C   0  0  0  0  0  0  0  0  0  0  0  0
   50.0795   -5.9767   -4.9938 C   0  0  0  0  0  0  0  0  0  0  0  0
   52.0820   -5.1100   -6.2096 N   0  0  0  0  0  0  0  0  0  0  0  0
   53.5232   -5.1187   -6.2721 C   0  0  0  0  0  0  0  0  0  0  0  0
   54.1600   -4.8533   -7.4412 N   0  0  0  0  0  0  0  0  0  0  0  0
   51.3900   -4.2687   -7.1593 C   0  0  0  0  0  0  0  0  0  0  0  0
   50.2841   -3.4452   -6.5629 C   0  0  0  0  0  0  0  0  0  0  0  0
   50.3360   -2.0984   -7.2517 C   0  0  0  0  0  0  0  0  0  0  0  0
   51.4649   -2.1524   -8.2243 C   0  0  0  0  0  0  0  0  0  0  0  0
   52.2510   -3.4082   -8.0119 C   0  0  0  0  0  0  0  0  0  0  0  0
   57.8953   -4.9675  -10.4615 C   0  0  0  0  0  0  0  0  0  0  0  0
   59.1357   -5.3909  -10.8788 C   0  0  0  0  0  0  0  0  0  0  0  0
   60.0774   -5.8896  -10.0157 C   0  0  0  0  0  0  0  0  0  0  0  0
   59.7048   -5.9427   -8.6896 C   0  0  0  0  0  0  0  0  0  0  0  0
   58.4462   -5.5162   -8.2452 C   0  0  0  0  0  0  0  0  0  0  0  0
   57.5051   -5.0172   -9.1135 C   0  0  0  0  0  0  0  0  0  0  0  0
   61.3967   -6.3443  -10.4456 C   0  0  0  0  0  0  0  0  0  0  0  0
   61.7384   -6.1853  -11.6356 O   0  0  0  0  0  0  0  0  0  0  0  0
   62.2766   -6.9563   -9.5284 N   0  0  0  0  0  0  0  0  0  0  0  0
   62.0952   -7.1359   -8.5227 H   0  0  0  0  0  0  0  0  0  0  0  0
   63.5795   -7.3904  -10.0110 C   0  0  0  0  0  0  0  0  0  0  0  0
   64.6113   -6.9475   -8.9905 C   0  0  0  0  0  0  0  0  0  0  0  0
   65.7245   -7.9437   -9.2408 C   0  0  0  0  0  0  0  0  0  0  0  0
   65.1102   -9.1366   -9.7405 N   0  0  0  0  0  0  0  0  0  0  0  0
   65.7547   -9.6645  -10.9260 C   0  0  0  0  0  0  0  0  0  0  0  0
   63.7278   -8.8771   -9.9983 C   0  0  0  0  0  0  0  0  0  0  0  0
   57.3749   -3.7731  -12.5283 C   0  0  0  0  0  0  0  0  0  0  0  0
   56.9691   -4.4657  -11.3859 O   0  0  0  0  0  0  0  0  0  0  0  0
 37 38  1  0  0  0
 38 21  1  0  0  0
 21 22  2  0  0  0
 22 23  1  0  0  0
 23 24  2  0  0  0
 24 25  1  0  0  0
 25 26  2  0  0  0
 26  1  1  0  0  0
  1  3  1  0  0  0
  3  4  2  0  0  0
  4  5  1  0  0  0
  5  6  2  0  0  0
  6  7  1  0  0  0
  7  8  1  0  0  0
  7  9  1  0  0  0
  9 10  2  0  0  0
  9 11  1  0  0  0
 11 12  1  0  0  0
 11 13  1  0  0  0
 13 16  1  0  0  0
 16 17  1  0  0  0
 17 18  1  0  0  0
 18 19  1  0  0  0
 19 20  1  0  0  0
 13 14  1  0  0  0
 14 15  2  0  0  0
 23 27  1  0  0  0
 27 28  2  0  0  0
 27 29  1  0  0  0
 29 31  1  0  0  0
 31 32  1  0  0  0
 32 33  1  0  0  0
 33 34  1  0  0  0
 34 35  1  0  0  0
 34 36  1  0  0  0
 26 21  1  0  0  0
 15  3  1  0  0  0
 36 31  1  0  0  0
 14  6  1  0  0  0
 20 16  1  0  0  0
  1  2  1  0  0  0
 29 30  1  0  0  0
M  END
> <minimizedAffinity>
-8.47452

> <CNNscore>
0.2757103145

> <CNNaffinity>
6.9400186539

> <CNN_VS>
1.9134347439

> <CNNaffinity_variance>
0.3201902807

$$$$
[H]c1nc(N([H])c2c([H])c([H])c(C(=O)N([H])C3([H])C([H])([H])N(C([H])([H])[H])C([H])([H])C3([H])[H])c([H])c2OC([H])([H])[H])nc2c1N(C([H])([H])[H])C(=O)[C@@]([H])(C([H])([H])[H])N2C1([H])C([H])([H])C([H])([H])C([H])([H])C1([H])[H]


 38 42  0  0  0  0  0  0  0  0999 V2000
   56.8502   -4.8556   -7.1532 N   0  0  0  0  0  0  0  0  0  0  0  0
   57.7536   -4.7611   -6.5835 H   0  0  0  0  0  0  0  0  0  0  0  0
   55.6734   -5.1126   -6.4352 C   0  0  0  0  0  0  0  0  0  0  0  0
   55.8356   -5.4244   -5.1070 N   0  0  0  0  0  0  0  0  0  0  0  0
   54.8425   -5.6912   -4.2738 C   0  0  0  0  0  0  0  0  0  0  0  0
   53.5589   -5.6532   -4.7748 C   0  0  0  0  0  0  0  0  0  0  0  0
   52.4253   -5.9183   -3.9624 N   0  0  0  0  0  0  0  0  0  0  0  0
   52.5642   -6.2462   -2.5377 C   0  0  0  0  0  0  0  0  0  0  0  0
   51.1414   -5.8517   -4.5641 C   0  0  0  0  0  0  0  0  0  0  0  0
   50.1198   -5.5887   -3.8948 O   0  0  0  0  0  0  0  0  0  0  0  0
   51.0558   -6.1073   -6.0262 C   0  0  0  0  0  0  0  0  0  0  0  0
   49.6509   -6.1004   -6.4706 C   0  0  0  0  0  0  0  0  0  0  0  0
   52.0045   -5.2885   -6.6728 N   0  0  0  0  0  0  0  0  0  0  0  0
   53.3286   -5.3462   -6.1033 C   0  0  0  0  0  0  0  0  0  0  0  0
   54.4172   -5.0886   -6.8724 N   0  0  0  0  0  0  0  0  0  0  0  0
   51.8164   -4.4121   -7.8065 C   0  0  0  0  0  0  0  0  0  0  0  0
   51.1560   -3.1047   -7.4728 C   0  0  0  0  0  0  0  0  0  0  0  0
   51.8414   -2.0527   -8.3181 C   0  0  0  0  0  0  0  0  0  0  0  0
   52.8864   -2.7531   -9.1185 C   0  0  0  0  0  0  0  0  0  0  0  0
   53.0198   -4.1661   -8.6432 C   0  0  0  0  0  0  0  0  0  0  0  0
   58.2177   -5.1493   -9.1341 C   0  0  0  0  0  0  0  0  0  0  0  0
   58.4525   -5.0310  -10.4842 C   0  0  0  0  0  0  0  0  0  0  0  0
   57.5462   -4.4705  -11.3474 C   0  0  0  0  0  0  0  0  0  0  0  0
   56.3722   -4.0273  -10.7771 C   0  0  0  0  0  0  0  0  0  0  0  0
   56.1147   -4.1391   -9.4043 C   0  0  0  0  0  0  0  0  0  0  0  0
   57.0257   -4.7013   -8.5425 C   0  0  0  0  0  0  0  0  0  0  0  0
   57.7836   -4.3369  -12.7819 C   0  0  0  0  0  0  0  0  0  0  0  0
   58.9561   -4.2416  -13.1996 O   0  0  0  0  0  0  0  0  0  0  0  0
   56.7020   -4.3156  -13.6873 N   0  0  0  0  0  0  0  0  0  0  0  0
   55.6946   -4.3879  -13.4493 H   0  0  0  0  0  0  0  0  0  0  0  0
   56.9962   -4.1805  -15.1064 C   0  0  0  0  0  0  0  0  0  0  0  0
   55.7288   -3.6995  -15.7882 C   0  0  0  0  0  0  0  0  0  0  0  0
   56.2922   -3.0187  -17.0183 C   0  0  0  0  0  0  0  0  0  0  0  0
   57.6021   -2.5548  -16.6734 N   0  0  0  0  0  0  0  0  0  0  0  0
   58.6127   -2.8990  -17.6530 C   0  0  0  0  0  0  0  0  0  0  0  0
   57.9571   -3.0716  -15.3882 C   0  0  0  0  0  0  0  0  0  0  0  0
   60.3890   -6.2164   -8.7934 C   0  0  0  0  0  0  0  0  0  0  0  0
   59.1785   -5.7306   -8.2954 O   0  0  0  0  0  0  0  0  0  0  0  0
 37 38  1  0  0  0
 38 21  1  0  0  0
 21 22  2  0  0  0
 22 23  1  0  0  0
 23 24  2  0  0  0
 24 25  1  0  0  0
 25 26  2  0  0  0
 26  1  1  0  0  0
  1  3  1  0  0  0
  3  4  2  0  0  0
  4  5  1  0  0  0
  5  6  2  0  0  0
  6  7  1  0  0  0
  7  8  1  0  0  0
  7  9  1  0  0  0
  9 10  2  0  0  0
  9 11  1  0  0  0
 11 12  1  0  0  0
 11 13  1  0  0  0
 13 16  1  0  0  0
 16 17  1  0  0  0
 17 18  1  0  0  0
 18 19  1  0  0  0
 19 20  1  0  0  0
 13 14  1  0  0  0
 14 15  2  0  0  0
 23 27  1  0  0  0
 27 28  2  0  0  0
 27 29  1  0  0  0
 29 31  1  0  0  0
 31 32  1  0  0  0
 32 33  1  0  0  0
 33 34  1  0  0  0
 34 35  1  0  0  0
 34 36  1  0  0  0
 26 21  1  0  0  0
 15  3  1  0  0  0
 36 31  1  0  0  0
 14  6  1  0  0  0
 20 16  1  0  0  0
  1  2  1  0  0  0
 29 30  1  0  0  0
M  END
> <minimizedAffinity>
-10.34018

> <CNNscore>
0.2461220622

> <CNNaffinity>
7.0900697708

> <CNN_VS>
1.7450225353

> <CNNaffinity_variance>
0.1093971953

$$$$
[H]c1nc(N([H])c2c([H])c([H])c(C(=O)N([H])C3([H])C([H])([H])N(C([H])([H])[H])C([H])([H])C3([H])[H])c([H])c2OC([H])([H])[H])nc2c1N(C([H])([H])[H])C(=O)[C@@]([H])(C([H])([H])[H])N2C1([H])C([H])([H])C([H])([H])C([H])([H])C1([H])[H]


 38 42  0  0  0  0  0  0  0  0999 V2000
   59.6302   -5.6567   -8.2314 N   0  0  0  0  0  0  0  0  0  0  0  0
   60.1100   -5.1351   -7.4269 H   0  0  0  0  0  0  0  0  0  0  0  0
   60.4303   -6.5238   -8.9895 C   0  0  0  0  0  0  0  0  0  0  0  0
   60.9987   -5.9848  -10.1182 N   0  0  0  0  0  0  0  0  0  0  0  0
   61.7853   -6.6483  -10.9503 C   0  0  0  0  0  0  0  0  0  0  0  0
   62.0512   -7.9700  -10.6632 C   0  0  0  0  0  0  0  0  0  0  0  0
   62.8869   -8.7668  -11.4891 N   0  0  0  0  0  0  0  0  0  0  0  0
   63.5159   -8.2184  -12.6975 C   0  0  0  0  0  0  0  0  0  0  0  0
   63.1077  -10.1172  -11.1119 C   0  0  0  0  0  0  0  0  0  0  0  0
   64.1434  -10.7285  -11.4505 O   0  0  0  0  0  0  0  0  0  0  0  0
   62.0573  -10.7812  -10.2957 C   0  0  0  0  0  0  0  0  0  0  0  0
   62.3917  -12.1997  -10.0780 C   0  0  0  0  0  0  0  0  0  0  0  0
   61.7621   -9.9490   -9.1963 N   0  0  0  0  0  0  0  0  0  0  0  0
   61.5093   -8.5715   -9.5422 C   0  0  0  0  0  0  0  0  0  0  0  0
   60.7156   -7.8017   -8.7545 N   0  0  0  0  0  0  0  0  0  0  0  0
   61.6903  -10.2966   -7.7953 C   0  0  0  0  0  0  0  0  0  0  0  0
   60.6737  -11.3549   -7.4735 C   0  0  0  0  0  0  0  0  0  0  0  0
   61.2954  -12.2340   -6.4097 C   0  0  0  0  0  0  0  0  0  0  0  0
   62.6547  -11.6863   -6.1349 C   0  0  0  0  0  0  0  0  0  0  0  0
   62.9832  -10.6291   -7.1421 C   0  0  0  0  0  0  0  0  0  0  0  0
   57.3875   -5.6381   -7.3093 C   0  0  0  0  0  0  0  0  0  0  0  0
   56.0398   -5.3732   -7.3818 C   0  0  0  0  0  0  0  0  0  0  0  0
   55.4516   -4.8230   -8.4918 C   0  0  0  0  0  0  0  0  0  0  0  0
   56.2993   -4.5475   -9.5433 C   0  0  0  0  0  0  0  0  0  0  0  0
   57.6745   -4.8101   -9.4884 C   0  0  0  0  0  0  0  0  0  0  0  0
   58.2601   -5.3617   -8.3742 C   0  0  0  0  0  0  0  0  0  0  0  0
   54.0223   -4.5386   -8.5827 C   0  0  0  0  0  0  0  0  0  0  0  0
   53.5781   -3.9661   -9.5991 O   0  0  0  0  0  0  0  0  0  0  0  0
   53.1516   -4.9058   -7.5353 N   0  0  0  0  0  0  0  0  0  0  0  0
   53.4132   -5.3833   -6.6520 H   0  0  0  0  0  0  0  0  0  0  0  0
   51.7361   -4.5982   -7.6786 C   0  0  0  0  0  0  0  0  0  0  0  0
   50.9599   -5.7021   -6.9849 C   0  0  0  0  0  0  0  0  0  0  0  0
   49.6652   -4.9909   -6.6501 C   0  0  0  0  0  0  0  0  0  0  0  0
   49.9808   -3.6026   -6.4982 N   0  0  0  0  0  0  0  0  0  0  0  0
   49.0859   -2.7245   -7.2244 C   0  0  0  0  0  0  0  0  0  0  0  0
   51.3337   -3.3839   -6.9064 C   0  0  0  0  0  0  0  0  0  0  0  0
   57.1352   -6.6447   -5.0975 C   0  0  0  0  0  0  0  0  0  0  0  0
   57.9382   -6.2016   -6.1502 O   0  0  0  0  0  0  0  0  0  0  0  0
 37 38  1  0  0  0
 38 21  1  0  0  0
 21 22  2  0  0  0
 22 23  1  0  0  0
 23 24  2  0  0  0
 24 25  1  0  0  0
 25 26  2  0  0  0
 26  1  1  0  0  0
  1  3  1  0  0  0
  3  4  2  0  0  0
  4  5  1  0  0  0
  5  6  2  0  0  0
  6  7  1  0  0  0
  7  8  1  0  0  0
  7  9  1  0  0  0
  9 10  2  0  0  0
  9 11  1  0  0  0
 11 12  1  0  0  0
 11 13  1  0  0  0
 13 16  1  0  0  0
 16 17  1  0  0  0
 17 18  1  0  0  0
 18 19  1  0  0  0
 19 20  1  0  0  0
 13 14  1  0  0  0
 14 15  2  0  0  0
 23 27  1  0  0  0
 27 28  2  0  0  0
 27 29  1  0  0  0
 29 31  1  0  0  0
 31 32  1  0  0  0
 32 33  1  0  0  0
 33 34  1  0  0  0
 34 35  1  0  0  0
 34 36  1  0  0  0
 26 21  1  0  0  0
 15  3  1  0  0  0
 36 31  1  0  0  0
 14  6  1  0  0  0
 20 16  1  0  0  0
  1  2  1  0  0  0
 29 30  1  0  0  0
M  END
> <minimizedAffinity>
-5.90533

> <CNNscore>
0.2211705148

> <CNNaffinity>
6.3463220596

> <CNN_VS>
1.4036192894

> <CNNaffinity_variance>
0.0919400230

$$$$
[H]c1nc(N([H])c2c([H])c([H])c(C(=O)N([H])C3([H])C([H])([H])N(C([H])([H])[H])C([H])([H])C3([H])[H])c([H])c2OC([H])([H])[H])nc2c1N(C([H])([H])[H])C(=O)[C@@]([H])(C([H])([H])[H])N2C1([H])C([H])([H])C([H])([H])C([H])([H])C1([H])[H]


 38 42  0  0  0  0  0  0  0  0999 V2000
   57.0651   -4.4292  -10.6618 N   0  0  0  0  0  0  0  0  0  0  0  0
   56.2777   -4.1026  -11.3121 H   0  0  0  0  0  0  0  0  0  0  0  0
   58.3373   -4.5763  -11.2332 C   0  0  0  0  0  0  0  0  0  0  0  0
   58.5810   -3.8272  -12.3588 N   0  0  0  0  0  0  0  0  0  0  0  0
   59.7224   -3.8319  -13.0287 C   0  0  0  0  0  0  0  0  0  0  0  0
   60.7342   -4.6443  -12.5637 C   0  0  0  0  0  0  0  0  0  0  0  0
   61.9976   -4.7169  -13.2071 N   0  0  0  0  0  0  0  0  0  0  0  0
   62.2925   -3.9230  -14.4069 C   0  0  0  0  0  0  0  0  0  0  0  0
   62.9810   -5.5782  -12.6540 C   0  0  0  0  0  0  0  0  0  0  0  0
   64.2012   -5.3665  -12.8186 O   0  0  0  0  0  0  0  0  0  0  0  0
   62.5044   -6.7469  -11.8681 C   0  0  0  0  0  0  0  0  0  0  0  0
   63.6404   -7.5890  -11.4539 C   0  0  0  0  0  0  0  0  0  0  0  0
   61.5813   -6.2847  -10.9074 N   0  0  0  0  0  0  0  0  0  0  0  0
   60.5519   -5.4233  -11.4359 C   0  0  0  0  0  0  0  0  0  0  0  0
   59.3431   -5.3444  -10.8230 N   0  0  0  0  0  0  0  0  0  0  0  0
   61.5443   -6.5558   -9.4883 C   0  0  0  0  0  0  0  0  0  0  0  0
   61.2065   -7.9777   -9.1404 C   0  0  0  0  0  0  0  0  0  0  0  0
   62.0717   -8.3435   -7.9535 C   0  0  0  0  0  0  0  0  0  0  0  0
   62.8990   -7.1447   -7.6346 C   0  0  0  0  0  0  0  0  0  0  0  0
   62.7350   -6.1200   -8.7132 C   0  0  0  0  0  0  0  0  0  0  0  0
   55.3481   -4.3217   -8.9529 C   0  0  0  0  0  0  0  0  0  0  0  0
   54.8867   -4.5163   -7.6718 C   0  0  0  0  0  0  0  0  0  0  0  0
   55.6669   -5.0449   -6.6757 C   0  0  0  0  0  0  0  0  0  0  0  0
   56.9559   -5.3741   -7.0366 C   0  0  0  0  0  0  0  0  0  0  0  0
   57.4441   -5.1835   -8.3361 C   0  0  0  0  0  0  0  0  0  0  0  0
   56.6590   -4.6532   -9.3316 C   0  0  0  0  0  0  0  0  0  0  0  0
   55.1904   -5.2548   -5.3115 C   0  0  0  0  0  0  0  0  0  0  0  0
   55.8943   -4.8721   -4.3542 O   0  0  0  0  0  0  0  0  0  0  0  0
   53.9493   -5.8825   -5.0756 N   0  0  0  0  0  0  0  0  0  0  0  0
   53.2888   -6.2365   -5.7934 H   0  0  0  0  0  0  0  0  0  0  0  0
   53.5232   -6.0661   -3.6959 C   0  0  0  0  0  0  0  0  0  0  0  0
   52.0100   -6.1784   -3.7001 C   0  0  0  0  0  0  0  0  0  0  0  0
   51.7661   -6.9631   -2.4278 C   0  0  0  0  0  0  0  0  0  0  0  0
   52.9302   -7.7665   -2.2052 N   0  0  0  0  0  0  0  0  0  0  0  0
   53.4351   -7.6878   -0.8494 C   0  0  0  0  0  0  0  0  0  0  0  0
   53.9451   -7.3865   -3.1380 C   0  0  0  0  0  0  0  0  0  0  0  0
   53.2421   -3.2793   -9.6216 C   0  0  0  0  0  0  0  0  0  0  0  0
   54.5084   -3.7774   -9.9342 O   0  0  0  0  0  0  0  0  0  0  0  0
 37 38  1  0  0  0
 38 21  1  0  0  0
 21 22  2  0  0  0
 22 23  1  0  0  0
 23 24  2  0  0  0
 24 25  1  0  0  0
 25 26  2  0  0  0
 26  1  1  0  0  0
  1  3  1  0  0  0
  3  4  2  0  0  0
  4  5  1  0  0  0
  5  6  2  0  0  0
  6  7  1  0  0  0
  7  8  1  0  0  0
  7  9  1  0  0  0
  9 10  2  0  0  0
  9 11  1  0  0  0
 11 12  1  0  0  0
 11 13  1  0  0  0
 13 16  1  0  0  0
 16 17  1  0  0  0
 17 18  1  0  0  0
 18 19  1  0  0  0
 19 20  1  0  0  0
 13 14  1  0  0  0
 14 15  2  0  0  0
 23 27  1  0  0  0
 27 28  2  0  0  0
 27 29  1  0  0  0
 29 31  1  0  0  0
 31 32  1  0  0  0
 32 33  1  0  0  0
 33 34  1  0  0  0
 34 35  1  0  0  0
 34 36  1  0  0  0
 26 21  1  0  0  0
 15  3  1  0  0  0
 36 31  1  0  0  0
 14  6  1  0  0  0
 20 16  1  0  0  0
  1  2  1  0  0  0
 29 30  1  0  0  0
M  END
> <minimizedAffinity>
-6.13581

> <CNNscore>
0.2041715384

> <CNNaffinity>
6.2171869278

> <CNN_VS>
1.2693725824

> <CNNaffinity_variance>
0.1110172719

$$$$
[H]c1nc(N([H])c2c([H])c([H])c(-n3c([H])nc([H])c3[H])c([H])c2OC([H])([H])[H])nc2c1C([H])([H])C([H])([H])c1c(C(=O)N([H])[H])nn(C([H])([H])[H])c1-2


 34 38  0  0  0  0  0  0  0  0999 V2000
   53.3668   -3.4199   -9.3229 C   0  0  0  0  0  0  0  0  0  0  0  0
   52.4399   -2.5043   -9.5205 N   0  0  0  0  0  0  0  0  0  0  0  0
   51.4085   -2.2521   -8.7279 C   0  0  0  0  0  0  0  0  0  0  0  0
   51.2846   -3.0395   -7.5524 C   0  0  0  0  0  0  0  0  0  0  0  0
   50.1631   -2.7721   -6.6522 C   0  0  0  0  0  0  0  0  0  0  0  0
   50.0403   -3.6463   -5.4946 C   0  0  0  0  0  0  0  0  0  0  0  0
   51.0815   -4.6461   -5.2732 C   0  0  0  0  0  0  0  0  0  0  0  0
   51.2757   -5.5910   -4.2438 C   0  0  0  0  0  0  0  0  0  0  0  0
   52.3793   -6.2444   -4.5581 N   0  0  0  0  0  0  0  0  0  0  0  0
   52.9155   -5.8208   -5.6794 N   0  0  0  0  0  0  0  0  0  0  0  0
   54.1067   -6.2714   -6.3520 C   0  0  0  0  0  0  0  0  0  0  0  0
   52.1203   -4.8293   -6.1332 C   0  0  0  0  0  0  0  0  0  0  0  0
   52.2302   -3.9874   -7.3333 C   0  0  0  0  0  0  0  0  0  0  0  0
   53.2682   -4.1940   -8.1930 N   0  0  0  0  0  0  0  0  0  0  0  0
   50.3753   -5.7308   -3.1135 C   0  0  0  0  0  0  0  0  0  0  0  0
   50.7213   -6.5365   -2.0070 N   0  0  0  0  0  0  0  0  0  0  0  0
   49.2540   -5.1468   -3.0647 O   0  0  0  0  0  0  0  0  0  0  0  0
   51.3181   -6.1507   -1.2636 H   0  0  0  0  0  0  0  0  0  0  0  0
   50.3816   -7.5155   -1.9318 H   0  0  0  0  0  0  0  0  0  0  0  0
   54.4410   -3.6651  -10.1710 N   0  0  0  0  0  0  0  0  0  0  0  0
   54.3130   -3.4094  -11.2147 H   0  0  0  0  0  0  0  0  0  0  0  0
   56.6301   -4.4261  -10.9220 C   0  0  0  0  0  0  0  0  0  0  0  0
   57.8731   -4.9524  -10.6920 C   0  0  0  0  0  0  0  0  0  0  0  0
   58.3118   -5.3066   -9.4377 C   0  0  0  0  0  0  0  0  0  0  0  0
   57.4246   -5.1013   -8.4143 C   0  0  0  0  0  0  0  0  0  0  0  0
   56.1463   -4.5625   -8.6338 C   0  0  0  0  0  0  0  0  0  0  0  0
   55.7108   -4.2114   -9.8759 C   0  0  0  0  0  0  0  0  0  0  0  0
   59.5944   -5.8528   -9.1784 N   0  0  0  0  0  0  0  0  0  0  0  0
   60.5525   -6.1070  -10.0885 C   0  0  0  0  0  0  0  0  0  0  0  0
   61.6664   -6.6341   -9.4852 C   0  0  0  0  0  0  0  0  0  0  0  0
   61.3711   -6.6997   -8.1735 N   0  0  0  0  0  0  0  0  0  0  0  0
   60.1055   -6.2217   -7.9916 C   0  0  0  0  0  0  0  0  0  0  0  0
   57.2010   -3.9236  -13.1995 C   0  0  0  0  0  0  0  0  0  0  0  0
   56.2190   -4.0802  -12.1952 O   0  0  0  0  0  0  0  0  0  0  0  0
 33 34  1  0  0  0
 34 22  1  0  0  0
 22 23  2  0  0  0
 23 24  1  0  0  0
 24 25  2  0  0  0
 25 26  1  0  0  0
 26 27  2  0  0  0
 27 20  1  0  0  0
 20  1  1  0  0  0
  1  2  2  0  0  0
  2  3  1  0  0  0
  3  4  2  0  0  0
  4  5  1  0  0  0
  5  6  1  0  0  0
  6  7  1  0  0  0
  7  8  1  0  0  0
  8  9  2  0  0  0
  9 10  1  0  0  0
 10 11  1  0  0  0
 10 12  1  0  0  0
 12 13  1  0  0  0
 13 14  2  0  0  0
  8 15  1  0  0  0
 15 16  1  0  0  0
 15 17  2  0  0  0
 24 28  1  0  0  0
 28 29  1  0  0  0
 29 30  2  0  0  0
 30 31  1  0  0  0
 31 32  2  0  0  0
 27 22  1  0  0  0
 14  1  1  0  0  0
 32 28  1  0  0  0
 13  4  1  0  0  0
 12  7  2  0  0  0
 20 21  1  0  0  0
 16 18  1  0  0  0
 16 19  1  0  0  0
M  END
> <minimizedAffinity>
-10.38939

> <CNNscore>
0.9639789462

> <CNNaffinity>
7.9631567001

> <CNN_VS>
7.6763153076

> <CNNaffinity_variance>
0.0270991530

$$$$
[H]c1nc(N([H])c2c([H])c([H])c(-n3c([H])nc([H])c3[H])c([H])c2OC([H])([H])[H])nc2c1C([H])([H])C([H])([H])c1c(C(=O)N([H])[H])nn(C([H])([H])[H])c1-2


 34 38  0  0  0  0  0  0  0  0999 V2000
   53.2144   -3.3455   -9.0506 C   0  0  0  0  0  0  0  0  0  0  0  0
   52.1734   -2.5378   -9.0709 N   0  0  0  0  0  0  0  0  0  0  0  0
   51.1976   -2.4974   -8.1754 C   0  0  0  0  0  0  0  0  0  0  0  0
   51.2751   -3.4084   -7.0885 C   0  0  0  0  0  0  0  0  0  0  0  0
   50.2183   -3.3751   -6.0776 C   0  0  0  0  0  0  0  0  0  0  0  0
   50.3053   -4.3697   -5.0181 C   0  0  0  0  0  0  0  0  0  0  0  0
   51.4713   -5.2487   -4.9928 C   0  0  0  0  0  0  0  0  0  0  0  0
   51.8682   -6.2605   -4.0934 C   0  0  0  0  0  0  0  0  0  0  0  0
   53.0062   -6.7358   -4.5652 N   0  0  0  0  0  0  0  0  0  0  0  0
   53.3835   -6.1379   -5.6718 N   0  0  0  0  0  0  0  0  0  0  0  0
   54.5515   -6.3662   -6.4830 C   0  0  0  0  0  0  0  0  0  0  0  0
   52.4403   -5.2131   -5.9479 C   0  0  0  0  0  0  0  0  0  0  0  0
   52.3403   -4.2477   -7.0520 C   0  0  0  0  0  0  0  0  0  0  0  0
   53.3112   -4.2355   -8.0094 N   0  0  0  0  0  0  0  0  0  0  0  0
   51.0986   -6.6247   -2.9174 C   0  0  0  0  0  0  0  0  0  0  0  0
   51.3941   -7.8003   -2.1937 N   0  0  0  0  0  0  0  0  0  0  0  0
   50.1403   -5.9178   -2.4896 O   0  0  0  0  0  0  0  0  0  0  0  0
   52.1427   -7.7889   -1.4886 H   0  0  0  0  0  0  0  0  0  0  0  0
   50.8659   -8.6789   -2.3628 H   0  0  0  0  0  0  0  0  0  0  0  0
   54.2266   -3.3679  -10.0036 N   0  0  0  0  0  0  0  0  0  0  0  0
   54.0359   -2.8547  -10.9370 H   0  0  0  0  0  0  0  0  0  0  0  0
   56.2185   -3.9553   -8.7297 C   0  0  0  0  0  0  0  0  0  0  0  0
   57.4579   -4.5262   -8.6160 C   0  0  0  0  0  0  0  0  0  0  0  0
   58.0889   -5.1521   -9.6653 C   0  0  0  0  0  0  0  0  0  0  0  0
   57.4004   -5.1742  -10.8494 C   0  0  0  0  0  0  0  0  0  0  0  0
   56.1286   -4.5932  -10.9821 C   0  0  0  0  0  0  0  0  0  0  0  0
   55.5027   -3.9729   -9.9433 C   0  0  0  0  0  0  0  0  0  0  0  0
   59.3714   -5.7493   -9.5684 N   0  0  0  0  0  0  0  0  0  0  0  0
   59.9829   -6.1478   -8.4379 C   0  0  0  0  0  0  0  0  0  0  0  0
   61.2154   -6.6827   -8.7162 C   0  0  0  0  0  0  0  0  0  0  0  0
   61.3508   -6.6041  -10.0532 N   0  0  0  0  0  0  0  0  0  0  0  0
   60.2228   -6.0337  -10.5685 C   0  0  0  0  0  0  0  0  0  0  0  0
   56.2714   -3.3521   -6.4061 C   0  0  0  0  0  0  0  0  0  0  0  0
   55.6110   -3.3333   -7.6554 O   0  0  0  0  0  0  0  0  0  0  0  0
 33 34  1  0  0  0
 34 22  1  0  0  0
 22 23  2  0  0  0
 23 24  1  0  0  0
 24 25  2  0  0  0
 25 26  1  0  0  0
 26 27  2  0  0  0
 27 20  1  0  0  0
 20  1  1  0  0  0
  1  2  2  0  0  0
  2  3  1  0  0  0
  3  4  2  0  0  0
  4  5  1  0  0  0
  5  6  1  0  0  0
  6  7  1  0  0  0
  7  8  1  0  0  0
  8  9  2  0  0  0
  9 10  1  0  0  0
 10 11  1  0  0  0
 10 12  1  0  0  0
 12 13  1  0  0  0
 13 14  2  0  0  0
  8 15  1  0  0  0
 15 16  1  0  0  0
 15 17  2  0  0  0
 24 28  1  0  0  0
 28 29  1  0  0  0
 29 30  2  0  0  0
 30 31  1  0  0  0
 31 32  2  0  0  0
 27 22  1  0  0  0
 14  1  1  0  0  0
 32 28  1  0  0  0
 13  4  1  0  0  0
 12  7  2  0  0  0
 20 21  1  0  0  0
 16 18  1  0  0  0
 16 19  1  0  0  0
M  END
> <minimizedAffinity>
-9.31067

> <CNNscore>
0.8720167279

> <CNNaffinity>
7.5523529053

> <CNN_VS>
6.5857782364

> <CNNaffinity_variance>
0.0586807504

$$$$
[H]c1nc(N([H])c2c([H])c([H])c(-n3c([H])nc([H])c3[H])c([H])c2OC([H])([H])[H])nc2c1C([H])([H])C([H])([H])c1c(C(=O)N([H])[H])nn(C([H])([H])[H])c1-2


 34 38  0  0  0  0  0  0  0  0999 V2000
   54.6834   -3.7135   -9.4952 C   0  0  0  0  0  0  0  0  0  0  0  0
   53.6192   -3.0323   -9.8694 N   0  0  0  0  0  0  0  0  0  0  0  0
   52.4751   -2.9434   -9.2070 C   0  0  0  0  0  0  0  0  0  0  0  0
   52.3804   -3.6463   -7.9765 C   0  0  0  0  0  0  0  0  0  0  0  0
   51.1333   -3.5533   -7.2176 C   0  0  0  0  0  0  0  0  0  0  0  0
   51.0592   -4.3420   -5.9962 C   0  0  0  0  0  0  0  0  0  0  0  0
   52.2489   -5.0792   -5.5793 C   0  0  0  0  0  0  0  0  0  0  0  0
   52.5120   -5.8797   -4.4477 C   0  0  0  0  0  0  0  0  0  0  0  0
   53.7531   -6.3074   -4.5898 N   0  0  0  0  0  0  0  0  0  0  0  0
   54.3162   -5.8677   -5.6916 N   0  0  0  0  0  0  0  0  0  0  0  0
   55.6423   -6.1070   -6.2002 C   0  0  0  0  0  0  0  0  0  0  0  0
   53.3940   -5.1045   -6.3146 C   0  0  0  0  0  0  0  0  0  0  0  0
   53.4668   -4.3533   -7.5761 C   0  0  0  0  0  0  0  0  0  0  0  0
   54.6158   -4.4016   -8.3088 N   0  0  0  0  0  0  0  0  0  0  0  0
   51.5362   -6.1190   -3.3997 C   0  0  0  0  0  0  0  0  0  0  0  0
   51.7941   -5.7300   -2.0672 N   0  0  0  0  0  0  0  0  0  0  0  0
   50.4241   -6.6789   -3.6249 O   0  0  0  0  0  0  0  0  0  0  0  0
   51.6135   -4.7603   -1.7764 H   0  0  0  0  0  0  0  0  0  0  0  0
   52.1644   -6.4099   -1.3743 H   0  0  0  0  0  0  0  0  0  0  0  0
   55.8740   -3.7908  -10.2091 N   0  0  0  0  0  0  0  0  0  0  0  0
   55.9259   -3.2437  -11.1414 H   0  0  0  0  0  0  0  0  0  0  0  0
   57.8544   -5.0031  -10.9468 C   0  0  0  0  0  0  0  0  0  0  0  0
   59.0139   -5.6893  -10.7035 C   0  0  0  0  0  0  0  0  0  0  0  0
   59.4862   -5.9279   -9.4342 C   0  0  0  0  0  0  0  0  0  0  0  0
   58.7222   -5.4343   -8.4098 C   0  0  0  0  0  0  0  0  0  0  0  0
   57.5305   -4.7285   -8.6429 C   0  0  0  0  0  0  0  0  0  0  0  0
   57.0620   -4.4918   -9.8999 C   0  0  0  0  0  0  0  0  0  0  0  0
   60.6840   -6.6359   -9.1609 N   0  0  0  0  0  0  0  0  0  0  0  0
   60.9544   -7.9089   -9.5033 C   0  0  0  0  0  0  0  0  0  0  0  0
   62.2085   -8.2689   -9.0787 C   0  0  0  0  0  0  0  0  0  0  0  0
   62.7084   -7.1816   -8.4625 N   0  0  0  0  0  0  0  0  0  0  0  0
   61.7741   -6.1878   -8.5154 C   0  0  0  0  0  0  0  0  0  0  0  0
   57.9159   -3.6659  -12.9403 C   0  0  0  0  0  0  0  0  0  0  0  0
   57.4066   -4.7798  -12.2351 O   0  0  0  0  0  0  0  0  0  0  0  0
 33 34  1  0  0  0
 34 22  1  0  0  0
 22 23  2  0  0  0
 23 24  1  0  0  0
 24 25  2  0  0  0
 25 26  1  0  0  0
 26 27  2  0  0  0
 27 20  1  0  0  0
 20  1  1  0  0  0
  1  2  2  0  0  0
  2  3  1  0  0  0
  3  4  2  0  0  0
  4  5  1  0  0  0
  5  6  1  0  0  0
  6  7  1  0  0  0
  7  8  1  0  0  0
  8  9  2  0  0  0
  9 10  1  0  0  0
 10 11  1  0  0  0
 10 12  1  0  0  0
 12 13  1  0  0  0
 13 14  2  0  0  0
  8 15  1  0  0  0
 15 16  1  0  0  0
 15 17  2  0  0  0
 24 28  1  0  0  0
 28 29  1  0  0  0
 29 30  2  0  0  0
 30 31  1  0  0  0
 31 32  2  0  0  0
 27 22  1  0  0  0
 14  1  1  0  0  0
 32 28  1  0  0  0
 13  4  1  0  0  0
 12  7  2  0  0  0
 20 21  1  0  0  0
 16 18  1  0  0  0
 16 19  1  0  0  0
M  END
> <minimizedAffinity>
-8.81409

> <CNNscore>
0.7967728972

> <CNNaffinity>
7.5883493423

> <CNN_VS>
6.0461912155

> <CNNaffinity_variance>
0.1211611852

$$$$
[H]c1nc(N([H])c2c([H])c([H])c(-n3c([H])nc([H])c3[H])c([H])c2OC([H])([H])[H])nc2c1C([H])([H])C([H])([H])c1c(C(=O)N([H])[H])nn(C([H])([H])[H])c1-2


 34 38  0  0  0  0  0  0  0  0999 V2000
   54.2147   -4.1167   -9.0194 C   0  0  0  0  0  0  0  0  0  0  0  0
   53.6180   -3.1139   -9.6317 N   0  0  0  0  0  0  0  0  0  0  0  0
   52.4946   -2.5229   -9.2516 C   0  0  0  0  0  0  0  0  0  0  0  0
   51.8696   -3.0118   -8.0737 C   0  0  0  0  0  0  0  0  0  0  0  0
   50.6359   -2.3676   -7.6235 C   0  0  0  0  0  0  0  0  0  0  0  0
   49.9967   -2.9438   -6.4492 C   0  0  0  0  0  0  0  0  0  0  0  0
   50.6738   -4.0428   -5.7662 C   0  0  0  0  0  0  0  0  0  0  0  0
   50.3495   -4.7699   -4.6015 C   0  0  0  0  0  0  0  0  0  0  0  0
   51.3141   -5.6590   -4.4516 N   0  0  0  0  0  0  0  0  0  0  0  0
   52.2240   -5.5816   -5.3953 N   0  0  0  0  0  0  0  0  0  0  0  0
   53.4170   -6.3664   -5.5832 C   0  0  0  0  0  0  0  0  0  0  0  0
   51.8389   -4.5829   -6.2172 C   0  0  0  0  0  0  0  0  0  0  0  0
   52.4703   -4.0443   -7.4306 C   0  0  0  0  0  0  0  0  0  0  0  0
   53.6291   -4.6067   -7.8781 N   0  0  0  0  0  0  0  0  0  0  0  0
   49.1635   -4.5081   -3.8062 C   0  0  0  0  0  0  0  0  0  0  0  0
   48.2413   -3.5095   -4.1876 N   0  0  0  0  0  0  0  0  0  0  0  0
   48.9015   -5.1518   -2.7488 O   0  0  0  0  0  0  0  0  0  0  0  0
   47.5165   -3.7258   -4.8844 H   0  0  0  0  0  0  0  0  0  0  0  0
   48.2837   -2.5571   -3.7744 H   0  0  0  0  0  0  0  0  0  0  0  0
   55.3950   -4.7201   -9.4389 N   0  0  0  0  0  0  0  0  0  0  0  0
   55.7673   -5.5422   -8.8417 H   0  0  0  0  0  0  0  0  0  0  0  0
   57.6030   -4.6011  -10.4616 C   0  0  0  0  0  0  0  0  0  0  0  0
   58.4371   -4.3261  -11.5121 C   0  0  0  0  0  0  0  0  0  0  0  0
   57.9817   -3.8584  -12.7225 C   0  0  0  0  0  0  0  0  0  0  0  0
   56.6272   -3.6795  -12.8226 C   0  0  0  0  0  0  0  0  0  0  0  0
   55.7585   -3.9569  -11.7545 C   0  0  0  0  0  0  0  0  0  0  0  0
   56.2087   -4.4202  -10.5552 C   0  0  0  0  0  0  0  0  0  0  0  0
   58.8284   -3.5677  -13.8222 N   0  0  0  0  0  0  0  0  0  0  0  0
   60.1738   -3.5487  -13.8104 C   0  0  0  0  0  0  0  0  0  0  0  0
   60.6648   -3.2284  -15.0509 C   0  0  0  0  0  0  0  0  0  0  0  0
   59.5841   -3.0490  -15.8331 N   0  0  0  0  0  0  0  0  0  0  0  0
   58.4658   -3.2572  -15.0784 C   0  0  0  0  0  0  0  0  0  0  0  0
   59.3170   -5.7757   -9.2583 C   0  0  0  0  0  0  0  0  0  0  0  0
   58.0924   -5.0703   -9.2574 O   0  0  0  0  0  0  0  0  0  0  0  0
 33 34  1  0  0  0
 34 22  1  0  0  0
 22 23  2  0  0  0
 23 24  1  0  0  0
 24 25  2  0  0  0
 25 26  1  0  0  0
 26 27  2  0  0  0
 27 20  1  0  0  0
 20  1  1  0  0  0
  1  2  2  0  0  0
  2  3  1  0  0  0
  3  4  2  0  0  0
  4  5  1  0  0  0
  5  6  1  0  0  0
  6  7  1  0  0  0
  7  8  1  0  0  0
  8  9  2  0  0  0
  9 10  1  0  0  0
 10 11  1  0  0  0
 10 12  1  0  0  0
 12 13  1  0  0  0
 13 14  2  0  0  0
  8 15  1  0  0  0
 15 16  1  0  0  0
 15 17  2  0  0  0
 24 28  1  0  0  0
 28 29  1  0  0  0
 29 30  2  0  0  0
 30 31  1  0  0  0
 31 32  2  0  0  0
 27 22  1  0  0  0
 14  1  1  0  0  0
 32 28  1  0  0  0
 13  4  1  0  0  0
 12  7  2  0  0  0
 20 21  1  0  0  0
 16 18  1  0  0  0
 16 19  1  0  0  0
M  END
> <minimizedAffinity>
-9.91004

> <CNNscore>
0.7223865986

> <CNNaffinity>
7.3444566727

> <CNN_VS>
5.3055372238

> <CNNaffinity_variance>
0.0584350340

$$$$
[H]c1nc(N([H])c2c([H])c([H])c(-n3c([H])nc([H])c3[H])c([H])c2OC([H])([H])[H])nc2c1C([H])([H])C([H])([H])c1c(C(=O)N([H])[H])nn(C([H])([H])[H])c1-2


 34 38  0  0  0  0  0  0  0  0999 V2000
   53.8781   -4.7810   -7.8722 C   0  0  0  0  0  0  0  0  0  0  0  0
   54.0315   -5.9017   -7.1961 N   0  0  0  0  0  0  0  0  0  0  0  0
   53.2182   -6.3672   -6.2593 C   0  0  0  0  0  0  0  0  0  0  0  0
   52.0708   -5.5895   -5.9499 C   0  0  0  0  0  0  0  0  0  0  0  0
   51.1484   -6.0876   -4.9297 C   0  0  0  0  0  0  0  0  0  0  0  0
   50.0220   -5.2262   -4.6002 C   0  0  0  0  0  0  0  0  0  0  0  0
   49.8493   -3.9951   -5.3666 C   0  0  0  0  0  0  0  0  0  0  0  0
   48.8573   -2.9928   -5.3270 C   0  0  0  0  0  0  0  0  0  0  0  0
   49.2080   -2.1027   -6.2371 N   0  0  0  0  0  0  0  0  0  0  0  0
   50.3194   -2.4253   -6.8576 N   0  0  0  0  0  0  0  0  0  0  0  0
   51.0217   -1.7240   -7.9013 C   0  0  0  0  0  0  0  0  0  0  0  0
   50.7275   -3.5972   -6.3273 C   0  0  0  0  0  0  0  0  0  0  0  0
   51.8973   -4.4322   -6.6362 C   0  0  0  0  0  0  0  0  0  0  0  0
   52.7761   -4.0118   -7.5904 N   0  0  0  0  0  0  0  0  0  0  0  0
   47.7224   -3.0337   -4.4224 C   0  0  0  0  0  0  0  0  0  0  0  0
   47.3694   -4.2275   -3.7565 N   0  0  0  0  0  0  0  0  0  0  0  0
   47.0051   -2.0177   -4.1896 O   0  0  0  0  0  0  0  0  0  0  0  0
   47.8528   -4.4867   -2.8866 H   0  0  0  0  0  0  0  0  0  0  0  0
   46.6272   -4.8497   -4.1326 H   0  0  0  0  0  0  0  0  0  0  0  0
   54.7470   -4.3140   -8.8520 N   0  0  0  0  0  0  0  0  0  0  0  0
   54.3779   -3.5362   -9.5077 H   0  0  0  0  0  0  0  0  0  0  0  0
   56.9552   -4.9825   -8.0694 C   0  0  0  0  0  0  0  0  0  0  0  0
   58.2514   -5.3663   -8.2868 C   0  0  0  0  0  0  0  0  0  0  0  0
   58.7848   -5.5096   -9.5462 C   0  0  0  0  0  0  0  0  0  0  0  0
   57.9364   -5.2434  -10.5883 C   0  0  0  0  0  0  0  0  0  0  0  0
   56.6044   -4.8487  -10.3818 C   0  0  0  0  0  0  0  0  0  0  0  0
   56.0752   -4.7066   -9.1347 C   0  0  0  0  0  0  0  0  0  0  0  0
   60.1238   -5.9058   -9.7926 N   0  0  0  0  0  0  0  0  0  0  0  0
   61.0060   -6.3495   -8.8785 C   0  0  0  0  0  0  0  0  0  0  0  0
   62.2093   -6.6430   -9.4688 C   0  0  0  0  0  0  0  0  0  0  0  0
   62.0479   -6.3682  -10.7766 N   0  0  0  0  0  0  0  0  0  0  0  0
   60.7734   -5.9186  -10.9690 C   0  0  0  0  0  0  0  0  0  0  0  0
   56.8329   -5.7927   -5.8124 C   0  0  0  0  0  0  0  0  0  0  0  0
   56.4490   -4.8476   -6.7905 O   0  0  0  0  0  0  0  0  0  0  0  0
 33 34  1  0  0  0
 34 22  1  0  0  0
 22 23  2  0  0  0
 23 24  1  0  0  0
 24 25  2  0  0  0
 25 26  1  0  0  0
 26 27  2  0  0  0
 27 20  1  0  0  0
 20  1  1  0  0  0
  1  2  2  0  0  0
  2  3  1  0  0  0
  3  4  2  0  0  0
  4  5  1  0  0  0
  5  6  1  0  0  0
  6  7  1  0  0  0
  7  8  1  0  0  0
  8  9  2  0  0  0
  9 10  1  0  0  0
 10 11  1  0  0  0
 10 12  1  0  0  0
 12 13  1  0  0  0
 13 14  2  0  0  0
  8 15  1  0  0  0
 15 16  1  0  0  0
 15 17  2  0  0  0
 24 28  1  0  0  0
 28 29  1  0  0  0
 29 30  2  0  0  0
 30 31  1  0  0  0
 31 32  2  0  0  0
 27 22  1  0  0  0
 14  1  1  0  0  0
 32 28  1  0  0  0
 13  4  1  0  0  0
 12  7  2  0  0  0
 20 21  1  0  0  0
 16 18  1  0  0  0
 16 19  1  0  0  0
M  END
> <minimizedAffinity>
-8.16995

> <CNNscore>
0.6842483282

> <CNNaffinity>
7.5184907913

> <CNN_VS>
5.1445145607

> <CNNaffinity_variance>
0.1885182858

$$$$
[H]c1nc(N([H])c2c([H])c([H])c(-n3c([H])nc([H])c3[H])c([H])c2OC([H])([H])[H])nc2c1C([H])([H])C([H])([H])c1c(C(=O)N([H])[H])nn(C([H])([H])[H])c1-2


 34 38  0  0  0  0  0  0  0  0999 V2000
   54.4879   -5.0268   -7.6951 C   0  0  0  0  0  0  0  0  0  0  0  0
   54.7031   -6.0263   -6.8637 N   0  0  0  0  0  0  0  0  0  0  0  0
   53.9070   -6.4060   -5.8749 C   0  0  0  0  0  0  0  0  0  0  0  0
   52.7065   -5.6703   -5.6882 C   0  0  0  0  0  0  0  0  0  0  0  0
   51.8024   -6.0776   -4.6129 C   0  0  0  0  0  0  0  0  0  0  0  0
   50.6171   -5.2550   -4.4182 C   0  0  0  0  0  0  0  0  0  0  0  0
   50.3768   -4.1608   -5.3551 C   0  0  0  0  0  0  0  0  0  0  0  0
   49.3210   -3.2317   -5.4668 C   0  0  0  0  0  0  0  0  0  0  0  0
   49.6275   -2.4598   -6.4933 N   0  0  0  0  0  0  0  0  0  0  0  0
   50.7674   -2.7931   -7.0537 N   0  0  0  0  0  0  0  0  0  0  0  0
   51.4391   -2.2033   -8.1830 C   0  0  0  0  0  0  0  0  0  0  0  0
   51.2425   -3.8469   -6.3574 C   0  0  0  0  0  0  0  0  0  0  0  0
   52.4690   -4.6375   -6.5352 C   0  0  0  0  0  0  0  0  0  0  0  0
   53.3337   -4.3005   -7.5343 N   0  0  0  0  0  0  0  0  0  0  0  0
   48.1769   -3.2182   -4.5732 C   0  0  0  0  0  0  0  0  0  0  0  0
   47.8834   -4.3309   -3.7552 N   0  0  0  0  0  0  0  0  0  0  0  0
   47.3987   -2.2245   -4.4843 O   0  0  0  0  0  0  0  0  0  0  0  0
   48.3677   -4.4423   -2.8549 H   0  0  0  0  0  0  0  0  0  0  0  0
   47.1840   -5.0407   -4.0495 H   0  0  0  0  0  0  0  0  0  0  0  0
   55.3401   -4.6481   -8.7264 N   0  0  0  0  0  0  0  0  0  0  0  0
   54.9341   -3.9918   -9.4851 H   0  0  0  0  0  0  0  0  0  0  0  0
   57.2164   -4.9384  -10.2530 C   0  0  0  0  0  0  0  0  0  0  0  0
   58.5190   -5.2639  -10.5216 C   0  0  0  0  0  0  0  0  0  0  0  0
   59.4028   -5.6655   -9.5476 C   0  0  0  0  0  0  0  0  0  0  0  0
   58.9022   -5.7237   -8.2737 C   0  0  0  0  0  0  0  0  0  0  0  0
   57.5687   -5.3932   -7.9820 C   0  0  0  0  0  0  0  0  0  0  0  0
   56.6926   -4.9952   -8.9461 C   0  0  0  0  0  0  0  0  0  0  0  0
   60.7549   -6.0067   -9.8048 N   0  0  0  0  0  0  0  0  0  0  0  0
   61.6782   -6.3547   -8.8898 C   0  0  0  0  0  0  0  0  0  0  0  0
   62.8821   -6.6190   -9.4925 C   0  0  0  0  0  0  0  0  0  0  0  0
   62.6787   -6.4246  -10.8089 N   0  0  0  0  0  0  0  0  0  0  0  0
   61.3789   -6.0510  -10.9942 C   0  0  0  0  0  0  0  0  0  0  0  0
   56.8544   -3.7075  -12.2825 C   0  0  0  0  0  0  0  0  0  0  0  0
   56.3529   -4.5380  -11.2549 O   0  0  0  0  0  0  0  0  0  0  0  0
 33 34  1  0  0  0
 34 22  1  0  0  0
 22 23  2  0  0  0
 23 24  1  0  0  0
 24 25  2  0  0  0
 25 26  1  0  0  0
 26 27  2  0  0  0
 27 20  1  0  0  0
 20  1  1  0  0  0
  1  2  2  0  0  0
  2  3  1  0  0  0
  3  4  2  0  0  0
  4  5  1  0  0  0
  5  6  1  0  0  0
  6  7  1  0  0  0
  7  8  1  0  0  0
  8  9  2  0  0  0
  9 10  1  0  0  0
 10 11  1  0  0  0
 10 12  1  0  0  0
 12 13  1  0  0  0
 13 14  2  0  0  0
  8 15  1  0  0  0
 15 16  1  0  0  0
 15 17  2  0  0  0
 24 28  1  0  0  0
 28 29  1  0  0  0
 29 30  2  0  0  0
 30 31  1  0  0  0
 31 32  2  0  0  0
 27 22  1  0  0  0
 14  1  1  0  0  0
 32 28  1  0  0  0
 13  4  1  0  0  0
 12  7  2  0  0  0
 20 21  1  0  0  0
 16 18  1  0  0  0
 16 19  1  0  0  0
M  END
> <minimizedAffinity>
-8.75210

> <CNNscore>
0.6264008880

> <CNNaffinity>
7.4832816124

> <CNN_VS>
4.6875343323

> <CNNaffinity_variance>
0.1258435398

$$$$
[H]c1nc(N([H])c2c([H])c([H])c(-n3c([H])nc([H])c3[H])c([H])c2OC([H])([H])[H])nc2c1C([H])([H])C([H])([H])c1c(C(=O)N([H])[H])nn(C([H])([H])[H])c1-2


 34 38  0  0  0  0  0  0  0  0999 V2000
   53.2927   -3.8160   -8.6061 C   0  0  0  0  0  0  0  0  0  0  0  0
   53.1854   -3.4294   -9.8613 N   0  0  0  0  0  0  0  0  0  0  0  0
   54.1331   -3.4998  -10.7847 C   0  0  0  0  0  0  0  0  0  0  0  0
   55.3852   -4.0421  -10.3907 C   0  0  0  0  0  0  0  0  0  0  0  0
   56.4444   -4.1448  -11.3944 C   0  0  0  0  0  0  0  0  0  0  0  0
   57.7297   -4.6460  -10.9292 C   0  0  0  0  0  0  0  0  0  0  0  0
   57.8347   -5.0892   -9.5417 C   0  0  0  0  0  0  0  0  0  0  0  0
   58.9009   -5.6568   -8.8128 C   0  0  0  0  0  0  0  0  0  0  0  0
   58.4386   -5.8522   -7.5915 N   0  0  0  0  0  0  0  0  0  0  0  0
   57.1893   -5.4709   -7.4570 N   0  0  0  0  0  0  0  0  0  0  0  0
   56.3378   -5.5178   -6.2962 C   0  0  0  0  0  0  0  0  0  0  0  0
   56.8026   -4.9958   -8.6594 C   0  0  0  0  0  0  0  0  0  0  0  0
   55.5134   -4.4449   -9.1016 C   0  0  0  0  0  0  0  0  0  0  0  0
   54.4941   -4.3436   -8.2015 N   0  0  0  0  0  0  0  0  0  0  0  0
   60.2048   -5.9256   -9.3919 C   0  0  0  0  0  0  0  0  0  0  0  0
   61.3213   -6.1932   -8.5702 N   0  0  0  0  0  0  0  0  0  0  0  0
   60.4022   -5.9334  -10.6417 O   0  0  0  0  0  0  0  0  0  0  0  0
   61.4740   -7.1457   -8.2140 H   0  0  0  0  0  0  0  0  0  0  0  0
   61.9925   -5.4409   -8.3191 H   0  0  0  0  0  0  0  0  0  0  0  0
   52.2817   -3.7317   -7.6552 N   0  0  0  0  0  0  0  0  0  0  0  0
   51.5124   -2.9884   -7.8187 H   0  0  0  0  0  0  0  0  0  0  0  0
   50.8663   -4.4042   -5.7898 C   0  0  0  0  0  0  0  0  0  0  0  0
   50.6326   -5.1133   -4.6420 C   0  0  0  0  0  0  0  0  0  0  0  0
   51.5686   -5.9486   -4.0786 C   0  0  0  0  0  0  0  0  0  0  0  0
   52.7665   -6.0346   -4.7376 C   0  0  0  0  0  0  0  0  0  0  0  0
   53.0216   -5.3138   -5.9157 C   0  0  0  0  0  0  0  0  0  0  0  0
   52.0951   -4.4862   -6.4745 C   0  0  0  0  0  0  0  0  0  0  0  0
   51.3465   -6.6913   -2.8913 N   0  0  0  0  0  0  0  0  0  0  0  0
   52.0355   -7.7739   -2.4865 C   0  0  0  0  0  0  0  0  0  0  0  0
   51.5497   -8.2381   -1.2902 C   0  0  0  0  0  0  0  0  0  0  0  0
   50.5385   -7.4114   -0.9645 N   0  0  0  0  0  0  0  0  0  0  0  0
   50.4186   -6.4692   -1.9449 C   0  0  0  0  0  0  0  0  0  0  0  0
   49.1061   -2.8064   -5.4517 C   0  0  0  0  0  0  0  0  0  0  0  0
   49.9042   -3.5727   -6.3310 O   0  0  0  0  0  0  0  0  0  0  0  0
 33 34  1  0  0  0
 34 22  1  0  0  0
 22 23  2  0  0  0
 23 24  1  0  0  0
 24 25  2  0  0  0
 25 26  1  0  0  0
 26 27  2  0  0  0
 27 20  1  0  0  0
 20  1  1  0  0  0
  1  2  2  0  0  0
  2  3  1  0  0  0
  3  4  2  0  0  0
  4  5  1  0  0  0
  5  6  1  0  0  0
  6  7  1  0  0  0
  7  8  1  0  0  0
  8  9  2  0  0  0
  9 10  1  0  0  0
 10 11  1  0  0  0
 10 12  1  0  0  0
 12 13  1  0  0  0
 13 14  2  0  0  0
  8 15  1  0  0  0
 15 16  1  0  0  0
 15 17  2  0  0  0
 24 28  1  0  0  0
 28 29  1  0  0  0
 29 30  2  0  0  0
 30 31  1  0  0  0
 31 32  2  0  0  0
 27 22  1  0  0  0
 14  1  1  0  0  0
 32 28  1  0  0  0
 13  4  1  0  0  0
 12  7  2  0  0  0
 20 21  1  0  0  0
 16 18  1  0  0  0
 16 19  1  0  0  0
M  END
> <minimizedAffinity>
-9.00144

> <CNNscore>
0.6251042485

> <CNNaffinity>
7.4163179398

> <CNN_VS>
4.6359720230

> <CNNaffinity_variance>
0.0785372779

$$$$
[H]c1nc(N([H])c2c([H])c([H])c(-n3c([H])nc([H])c3[H])c([H])c2OC([H])([H])[H])nc2c1C([H])([H])C([H])([H])c1c(C(=O)N([H])[H])nn(C([H])([H])[H])c1-2


 34 38  0  0  0  0  0  0  0  0999 V2000
   53.2469   -4.8812   -7.4201 C   0  0  0  0  0  0  0  0  0  0  0  0
   53.0694   -3.9066   -8.2891 N   0  0  0  0  0  0  0  0  0  0  0  0
   52.0607   -3.0475   -8.3052 C   0  0  0  0  0  0  0  0  0  0  0  0
   51.0741   -3.1847   -7.2928 C   0  0  0  0  0  0  0  0  0  0  0  0
   49.9573   -2.2402   -7.2786 C   0  0  0  0  0  0  0  0  0  0  0  0
   48.9376   -2.4595   -6.2630 C   0  0  0  0  0  0  0  0  0  0  0  0
   49.1510   -3.5300   -5.2929 C   0  0  0  0  0  0  0  0  0  0  0  0
   48.3942   -3.9585   -4.1820 C   0  0  0  0  0  0  0  0  0  0  0  0
   49.0558   -4.9789   -3.6675 N   0  0  0  0  0  0  0  0  0  0  0  0
   50.1569   -5.2524   -4.3285 N   0  0  0  0  0  0  0  0  0  0  0  0
   51.1392   -6.2776   -4.0865 C   0  0  0  0  0  0  0  0  0  0  0  0
   50.2280   -4.3609   -5.3392 C   0  0  0  0  0  0  0  0  0  0  0  0
   51.2408   -4.1833   -6.3897 C   0  0  0  0  0  0  0  0  0  0  0  0
   52.3058   -5.0339   -6.4318 N   0  0  0  0  0  0  0  0  0  0  0  0
   47.1490   -3.3302   -3.7791 C   0  0  0  0  0  0  0  0  0  0  0  0
   46.1471   -4.0690   -3.1130 N   0  0  0  0  0  0  0  0  0  0  0  0
   46.9038   -2.1089   -4.0012 O   0  0  0  0  0  0  0  0  0  0  0  0
   46.2076   -4.2056   -2.0955 H   0  0  0  0  0  0  0  0  0  0  0  0
   45.3479   -4.4779   -3.6360 H   0  0  0  0  0  0  0  0  0  0  0  0
   54.3157   -5.7705   -7.4245 N   0  0  0  0  0  0  0  0  0  0  0  0
   54.6617   -6.1201   -8.3884 H   0  0  0  0  0  0  0  0  0  0  0  0
   56.3475   -5.8382   -6.0819 C   0  0  0  0  0  0  0  0  0  0  0  0
   57.0954   -6.3217   -5.0419 C   0  0  0  0  0  0  0  0  0  0  0  0
   56.6345   -7.2877   -4.1785 C   0  0  0  0  0  0  0  0  0  0  0  0
   55.3666   -7.7478   -4.4185 C   0  0  0  0  0  0  0  0  0  0  0  0
   54.5869   -7.2621   -5.4809 C   0  0  0  0  0  0  0  0  0  0  0  0
   55.0427   -6.3052   -6.3366 C   0  0  0  0  0  0  0  0  0  0  0  0
   57.3927   -7.8015   -3.0961 N   0  0  0  0  0  0  0  0  0  0  0  0
   58.7105   -7.6240   -2.8894 C   0  0  0  0  0  0  0  0  0  0  0  0
   59.1116   -8.2625   -1.7431 C   0  0  0  0  0  0  0  0  0  0  0  0
   58.0036   -8.8419   -1.2445 N   0  0  0  0  0  0  0  0  0  0  0  0
   56.9574   -8.5575   -2.0739 C   0  0  0  0  0  0  0  0  0  0  0  0
   57.6528   -5.2704   -8.0156 C   0  0  0  0  0  0  0  0  0  0  0  0
   56.8399   -4.8665   -6.9324 O   0  0  0  0  0  0  0  0  0  0  0  0
 33 34  1  0  0  0
 34 22  1  0  0  0
 22 23  2  0  0  0
 23 24  1  0  0  0
 24 25  2  0  0  0
 25 26  1  0  0  0
 26 27  2  0  0  0
 27 20  1  0  0  0
 20  1  1  0  0  0
  1  2  2  0  0  0
  2  3  1  0  0  0
  3  4  2  0  0  0
  4  5  1  0  0  0
  5  6  1  0  0  0
  6  7  1  0  0  0
  7  8  1  0  0  0
  8  9  2  0  0  0
  9 10  1  0  0  0
 10 11  1  0  0  0
 10 12  1  0  0  0
 12 13  1  0  0  0
 13 14  2  0  0  0
  8 15  1  0  0  0
 15 16  1  0  0  0
 15 17  2  0  0  0
 24 28  1  0  0  0
 28 29  1  0  0  0
 29 30  2  0  0  0
 30 31  1  0  0  0
 31 32  2  0  0  0
 27 22  1  0  0  0
 14  1  1  0  0  0
 32 28  1  0  0  0
 13  4  1  0  0  0
 12  7  2  0  0  0
 20 21  1  0  0  0
 16 18  1  0  0  0
 16 19  1  0  0  0
M  END
> <minimizedAffinity>
-9.06369

> <CNNscore>
0.6191751957

> <CNNaffinity>
7.5341691971

> <CNN_VS>
4.6649708748

> <CNNaffinity_variance>
0.0862997845

$$$$
[H]c1nc(N([H])c2c([H])c([H])c(-n3c([H])nc([H])c3[H])c([H])c2OC([H])([H])[H])nc2c1C([H])([H])C([H])([H])c1c(C(=O)N([H])[H])nn(C([H])([H])[H])c1-2


 34 38  0  0  0  0  0  0  0  0999 V2000
   53.7308   -4.0919   -8.1173 C   0  0  0  0  0  0  0  0  0  0  0  0
   52.5066   -3.6064   -8.1617 N   0  0  0  0  0  0  0  0  0  0  0  0
   51.5411   -3.8386   -7.2844 C   0  0  0  0  0  0  0  0  0  0  0  0
   51.8484   -4.6906   -6.1904 C   0  0  0  0  0  0  0  0  0  0  0  0
   50.8050   -4.9521   -5.1991 C   0  0  0  0  0  0  0  0  0  0  0  0
   51.1453   -5.8818   -4.1318 C   0  0  0  0  0  0  0  0  0  0  0  0
   52.5094   -6.4010   -4.0796 C   0  0  0  0  0  0  0  0  0  0  0  0
   53.1551   -7.2611   -3.1667 C   0  0  0  0  0  0  0  0  0  0  0  0
   54.3893   -7.4009   -3.6147 N   0  0  0  0  0  0  0  0  0  0  0  0
   54.6063   -6.7228   -4.7181 N   0  0  0  0  0  0  0  0  0  0  0  0
   55.8070   -6.6174   -5.5065 C   0  0  0  0  0  0  0  0  0  0  0  0
   53.4482   -6.0979   -5.0172 C   0  0  0  0  0  0  0  0  0  0  0  0
   53.1044   -5.1998   -6.1291 C   0  0  0  0  0  0  0  0  0  0  0  0
   54.0517   -4.9185   -7.0688 N   0  0  0  0  0  0  0  0  0  0  0  0
   52.4950   -7.8240   -2.0026 C   0  0  0  0  0  0  0  0  0  0  0  0
   53.2387   -8.4597   -0.9847 N   0  0  0  0  0  0  0  0  0  0  0  0
   51.2406   -7.7734   -1.8449 O   0  0  0  0  0  0  0  0  0  0  0  0
   53.6791   -7.8938   -0.2475 H   0  0  0  0  0  0  0  0  0  0  0  0
   53.3483   -9.4927   -0.9688 H   0  0  0  0  0  0  0  0  0  0  0  0
   54.7273   -3.8325   -9.0516 N   0  0  0  0  0  0  0  0  0  0  0  0
   54.4931   -3.1279   -9.8390 H   0  0  0  0  0  0  0  0  0  0  0  0
   56.6266   -4.5388  -10.4041 C   0  0  0  0  0  0  0  0  0  0  0  0
   57.8911   -5.0450  -10.5443 C   0  0  0  0  0  0  0  0  0  0  0  0
   58.6701   -5.4114   -9.4719 C   0  0  0  0  0  0  0  0  0  0  0  0
   58.1042   -5.2403   -8.2361 C   0  0  0  0  0  0  0  0  0  0  0  0
   56.8086   -4.7225   -8.0757 C   0  0  0  0  0  0  0  0  0  0  0  0
   56.0362   -4.3592   -9.1373 C   0  0  0  0  0  0  0  0  0  0  0  0
   59.9812   -5.9372   -9.5956 N   0  0  0  0  0  0  0  0  0  0  0  0
   60.7800   -6.3347   -8.5882 C   0  0  0  0  0  0  0  0  0  0  0  0
   61.9804   -6.7898   -9.0723 C   0  0  0  0  0  0  0  0  0  0  0  0
   61.9031   -6.6628  -10.4102 N   0  0  0  0  0  0  0  0  0  0  0  0
   60.6810   -6.1421  -10.7244 C   0  0  0  0  0  0  0  0  0  0  0  0
   56.5385   -3.8543  -12.7039 C   0  0  0  0  0  0  0  0  0  0  0  0
   55.8689   -4.1797  -11.5026 O   0  0  0  0  0  0  0  0  0  0  0  0
 33 34  1  0  0  0
 34 22  1  0  0  0
 22 23  2  0  0  0
 23 24  1  0  0  0
 24 25  2  0  0  0
 25 26  1  0  0  0
 26 27  2  0  0  0
 27 20  1  0  0  0
 20  1  1  0  0  0
  1  2  2  0  0  0
  2  3  1  0  0  0
  3  4  2  0  0  0
  4  5  1  0  0  0
  5  6  1  0  0  0
  6  7  1  0  0  0
  7  8  1  0  0  0
  8  9  2  0  0  0
  9 10  1  0  0  0
 10 11  1  0  0  0
 10 12  1  0  0  0
 12 13  1  0  0  0
 13 14  2  0  0  0
  8 15  1  0  0  0
 15 16  1  0  0  0
 15 17  2  0  0  0
 24 28  1  0  0  0
 28 29  1  0  0  0
 29 30  2  0  0  0
 30 31  1  0  0  0
 31 32  2  0  0  0
 27 22  1  0  0  0
 14  1  1  0  0  0
 32 28  1  0  0  0
 13  4  1  0  0  0
 12  7  2  0  0  0
 20 21  1  0  0  0
 16 18  1  0  0  0
 16 19  1  0  0  0
M  END
> <minimizedAffinity>
-9.17949

> <CNNscore>
0.6148230433

> <CNNaffinity>
7.1813650131

> <CNN_VS>
4.4152688980

> <CNNaffinity_variance>
0.2036708593

$$$$
[H]c1nc(N([H])c2c([H])c([H])c(N3C([H])([H])C([H])([H])C4(OC([H])([H])C([H])([H])O4)C([H])([H])C3([H])[H])c([H])c2OC([H])([H])[H])nc2c1N(C([H])([H])[H])C(=O)[C@@]([H])(C([H])([H])[H])N2C1([H])C([H])([H])C([H])([H])C([H])([H])C1([H])[H]


 38 43  0  0  0  0  0  0  0  0999 V2000
   55.3217   -3.4180   -9.9570 N   0  0  0  0  0  0  0  0  0  0  0  0
   55.3286   -2.8008  -10.8227 H   0  0  0  0  0  0  0  0  0  0  0  0
   54.1315   -3.3883   -9.1937 C   0  0  0  0  0  0  0  0  0  0  0  0
   53.0893   -2.5944   -9.4035 N   0  0  0  0  0  0  0  0  0  0  0  0
   51.9850   -2.5637   -8.6991 C   0  0  0  0  0  0  0  0  0  0  0  0
   51.8623   -3.4218   -7.6357 C   0  0  0  0  0  0  0  0  0  0  0  0
   50.7207   -3.4942   -6.7960 N   0  0  0  0  0  0  0  0  0  0  0  0
   49.5737   -2.6128   -7.0328 C   0  0  0  0  0  0  0  0  0  0  0  0
   50.7252   -4.4311   -5.7362 C   0  0  0  0  0  0  0  0  0  0  0  0
   50.0143   -4.2583   -4.7322 O   0  0  0  0  0  0  0  0  0  0  0  0
   51.5880   -5.6209   -5.8383 C   0  0  0  0  0  0  0  0  0  0  0  0
   51.0076   -6.4879   -6.9567 C   0  0  0  0  0  0  0  0  0  0  0  0
   52.8918   -5.1925   -6.2876 N   0  0  0  0  0  0  0  0  0  0  0  0
   52.9262   -4.2639   -7.3852 C   0  0  0  0  0  0  0  0  0  0  0  0
   54.0364   -4.2651   -8.1274 N   0  0  0  0  0  0  0  0  0  0  0  0
   54.1130   -5.6660   -5.6729 C   0  0  0  0  0  0  0  0  0  0  0  0
   54.5048   -7.0349   -6.1846 C   0  0  0  0  0  0  0  0  0  0  0  0
   55.2790   -7.6308   -5.0531 C   0  0  0  0  0  0  0  0  0  0  0  0
   54.8034   -6.9753   -3.7877 C   0  0  0  0  0  0  0  0  0  0  0  0
   54.0479   -5.7344   -4.1857 C   0  0  0  0  0  0  0  0  0  0  0  0
   57.2524   -4.5971  -10.7784 C   0  0  0  0  0  0  0  0  0  0  0  0
   58.3974   -5.3388  -10.5988 C   0  0  0  0  0  0  0  0  0  0  0  0
   58.8337   -5.6980   -9.3497 C   0  0  0  0  0  0  0  0  0  0  0  0
   58.0986   -5.2991   -8.2711 C   0  0  0  0  0  0  0  0  0  0  0  0
   56.9287   -4.5410   -8.4586 C   0  0  0  0  0  0  0  0  0  0  0  0
   56.4655   -4.1661   -9.6868 C   0  0  0  0  0  0  0  0  0  0  0  0
   60.0233   -6.4674   -9.1680 N   0  0  0  0  0  0  0  0  0  0  0  0
   60.3023   -7.7254   -9.7785 C   0  0  0  0  0  0  0  0  0  0  0  0
   61.6302   -7.7003  -10.5481 C   0  0  0  0  0  0  0  0  0  0  0  0
   62.7353   -7.1750   -9.6924 C   0  0  0  0  0  0  0  0  0  0  0  0
   62.2415   -6.8954   -8.3072 C   0  0  0  0  0  0  0  0  0  0  0  0
   61.0698   -5.9397   -8.2785 C   0  0  0  0  0  0  0  0  0  0  0  0
   63.7386   -8.1323   -9.6057 O   0  0  0  0  0  0  0  0  0  0  0  0
   64.7613   -7.7589  -10.4419 C   0  0  0  0  0  0  0  0  0  0  0  0
   64.1269   -6.6277  -11.2477 C   0  0  0  0  0  0  0  0  0  0  0  0
   63.3123   -6.0410  -10.2542 O   0  0  0  0  0  0  0  0  0  0  0  0
   57.7935   -3.7910  -13.0081 C   0  0  0  0  0  0  0  0  0  0  0  0
   56.8395   -4.2505  -12.0621 O   0  0  0  0  0  0  0  0  0  0  0  0
 37 38  1  0  0  0
 38 21  1  0  0  0
 21 22  2  0  0  0
 22 23  1  0  0  0
 23 24  2  0  0  0
 24 25  1  0  0  0
 25 26  2  0  0  0
 26  1  1  0  0  0
  1  3  1  0  0  0
  3  4  2  0  0  0
  4  5  1  0  0  0
  5  6  2  0  0  0
  6  7  1  0  0  0
  7  8  1  0  0  0
  7  9  1  0  0  0
  9 10  2  0  0  0
  9 11  1  0  0  0
 11 12  1  0  0  0
 11 13  1  0  0  0
 13 16  1  0  0  0
 16 17  1  0  0  0
 17 18  1  0  0  0
 18 19  1  0  0  0
 19 20  1  0  0  0
 13 14  1  0  0  0
 14 15  2  0  0  0
 23 27  1  0  0  0
 27 28  1  0  0  0
 28 29  1  0  0  0
 29 30  1  0  0  0
 30 31  1  0  0  0
 31 32  1  0  0  0
 30 33  1  0  0  0
 33 34  1  0  0  0
 34 35  1  0  0  0
 35 36  1  0  0  0
 26 21  1  0  0  0
 15  3  1  0  0  0
 32 27  1  0  0  0
 14  6  1  0  0  0
 36 30  1  0  0  0
 20 16  1  0  0  0
  1  2  1  0  0  0
M  END
> <minimizedAffinity>
-10.38881

> <CNNscore>
0.9914461374

> <CNNaffinity>
8.2173690796

> <CNN_VS>
8.1470785141

> <CNNaffinity_variance>
0.0061432896

$$$$
[H]c1nc(N([H])c2c([H])c([H])c(N3C([H])([H])C([H])([H])C4(OC([H])([H])C([H])([H])O4)C([H])([H])C3([H])[H])c([H])c2OC([H])([H])[H])nc2c1N(C([H])([H])[H])C(=O)[C@@]([H])(C([H])([H])[H])N2C1([H])C([H])([H])C([H])([H])C([H])([H])C1([H])[H]


 38 43  0  0  0  0  0  0  0  0999 V2000
   55.1007   -3.0786   -9.7586 N   0  0  0  0  0  0  0  0  0  0  0  0
   55.1460   -2.2708  -10.4484 H   0  0  0  0  0  0  0  0  0  0  0  0
   53.9040   -3.1790   -9.0116 C   0  0  0  0  0  0  0  0  0  0  0  0
   52.8218   -2.4271   -9.1665 N   0  0  0  0  0  0  0  0  0  0  0  0
   51.7113   -2.5168   -8.4770 C   0  0  0  0  0  0  0  0  0  0  0  0
   51.6264   -3.4690   -7.4929 C   0  0  0  0  0  0  0  0  0  0  0  0
   50.4832   -3.6750   -6.6780 N   0  0  0  0  0  0  0  0  0  0  0  0
   49.2918   -2.8394   -6.8537 C   0  0  0  0  0  0  0  0  0  0  0  0
   50.5297   -4.6983   -5.7026 C   0  0  0  0  0  0  0  0  0  0  0  0
   49.8016   -4.6514   -4.6971 O   0  0  0  0  0  0  0  0  0  0  0  0
   51.4571   -5.8267   -5.8947 C   0  0  0  0  0  0  0  0  0  0  0  0
   50.9349   -6.6238   -7.0911 C   0  0  0  0  0  0  0  0  0  0  0  0
   52.7395   -5.2916   -6.2881 N   0  0  0  0  0  0  0  0  0  0  0  0
   52.7326   -4.2711   -7.3013 C   0  0  0  0  0  0  0  0  0  0  0  0
   53.8477   -4.1485   -8.0259 N   0  0  0  0  0  0  0  0  0  0  0  0
   53.9793   -5.7502   -5.6998 C   0  0  0  0  0  0  0  0  0  0  0  0
   54.4863   -7.0089   -6.3691 C   0  0  0  0  0  0  0  0  0  0  0  0
   55.2784   -7.6880   -5.2986 C   0  0  0  0  0  0  0  0  0  0  0  0
   54.7257   -7.2387   -3.9758 C   0  0  0  0  0  0  0  0  0  0  0  0
   53.8863   -6.0153   -4.2364 C   0  0  0  0  0  0  0  0  0  0  0  0
   56.7985   -4.1239   -8.4107 C   0  0  0  0  0  0  0  0  0  0  0  0
   57.8920   -4.9423   -8.2433 C   0  0  0  0  0  0  0  0  0  0  0  0
   58.4631   -5.6053   -9.2987 C   0  0  0  0  0  0  0  0  0  0  0  0
   57.9172   -5.4348  -10.5380 C   0  0  0  0  0  0  0  0  0  0  0  0
   56.7994   -4.5975  -10.7052 C   0  0  0  0  0  0  0  0  0  0  0  0
   56.2060   -3.9228   -9.6775 C   0  0  0  0  0  0  0  0  0  0  0  0
   59.5976   -6.4544   -9.1202 N   0  0  0  0  0  0  0  0  0  0  0  0
   59.8817   -7.6328   -9.8710 C   0  0  0  0  0  0  0  0  0  0  0  0
   61.2765   -7.5762  -10.5093 C   0  0  0  0  0  0  0  0  0  0  0  0
   62.3160   -7.2294   -9.4951 C   0  0  0  0  0  0  0  0  0  0  0  0
   61.7049   -7.1111   -8.1337 C   0  0  0  0  0  0  0  0  0  0  0  0
   60.5757   -6.1067   -8.0775 C   0  0  0  0  0  0  0  0  0  0  0  0
   63.2667   -8.2419   -9.4527 O   0  0  0  0  0  0  0  0  0  0  0  0
   64.3785   -7.8154  -10.1358 C   0  0  0  0  0  0  0  0  0  0  0  0
   63.8700   -6.5546  -10.8311 C   0  0  0  0  0  0  0  0  0  0  0  0
   62.9895   -6.0630   -9.8421 O   0  0  0  0  0  0  0  0  0  0  0  0
   56.5856   -3.8796   -6.0005 C   0  0  0  0  0  0  0  0  0  0  0  0
   56.2448   -3.4664   -7.3155 O   0  0  0  0  0  0  0  0  0  0  0  0
 37 38  1  0  0  0
 38 21  1  0  0  0
 21 22  2  0  0  0
 22 23  1  0  0  0
 23 24  2  0  0  0
 24 25  1  0  0  0
 25 26  2  0  0  0
 26  1  1  0  0  0
  1  3  1  0  0  0
  3  4  2  0  0  0
  4  5  1  0  0  0
  5  6  2  0  0  0
  6  7  1  0  0  0
  7  8  1  0  0  0
  7  9  1  0  0  0
  9 10  2  0  0  0
  9 11  1  0  0  0
 11 12  1  0  0  0
 11 13  1  0  0  0
 13 16  1  0  0  0
 16 17  1  0  0  0
 17 18  1  0  0  0
 18 19  1  0  0  0
 19 20  1  0  0  0
 13 14  1  0  0  0
 14 15  2  0  0  0
 23 27  1  0  0  0
 27 28  1  0  0  0
 28 29  1  0  0  0
 29 30  1  0  0  0
 30 31  1  0  0  0
 31 32  1  0  0  0
 30 33  1  0  0  0
 33 34  1  0  0  0
 34 35  1  0  0  0
 35 36  1  0  0  0
 26 21  1  0  0  0
 15  3  1  0  0  0
 32 27  1  0  0  0
 14  6  1  0  0  0
 36 30  1  0  0  0
 20 16  1  0  0  0
  1  2  1  0  0  0
M  END
> <minimizedAffinity>
-8.91988

> <CNNscore>
0.9811268449

> <CNNaffinity>
8.1746501923

> <CNN_VS>
8.0203685760

> <CNNaffinity_variance>
0.0113166543

$$$$
[H]c1nc(N([H])c2c([H])c([H])c(N3C([H])([H])C([H])([H])C4(OC([H])([H])C([H])([H])O4)C([H])([H])C3([H])[H])c([H])c2OC([H])([H])[H])nc2c1N(C([H])([H])[H])C(=O)[C@@]([H])(C([H])([H])[H])N2C1([H])C([H])([H])C([H])([H])C([H])([H])C1([H])[H]


 38 43  0  0  0  0  0  0  0  0999 V2000
   55.5246   -3.4853  -10.0170 N   0  0  0  0  0  0  0  0  0  0  0  0
   55.5284   -2.8557  -10.8737 H   0  0  0  0  0  0  0  0  0  0  0  0
   54.3382   -3.4645   -9.2475 C   0  0  0  0  0  0  0  0  0  0  0  0
   53.2856   -2.6843   -9.4569 N   0  0  0  0  0  0  0  0  0  0  0  0
   52.1848   -2.6620   -8.7469 C   0  0  0  0  0  0  0  0  0  0  0  0
   52.0778   -3.5144   -7.6772 C   0  0  0  0  0  0  0  0  0  0  0  0
   50.9416   -3.5947   -6.8310 N   0  0  0  0  0  0  0  0  0  0  0  0
   49.7831   -2.7285   -7.0674 C   0  0  0  0  0  0  0  0  0  0  0  0
   50.9628   -4.5245   -5.7651 C   0  0  0  0  0  0  0  0  0  0  0  0
   50.2552   -4.3534   -4.7585 O   0  0  0  0  0  0  0  0  0  0  0  0
   51.8390   -5.7046   -5.8640 C   0  0  0  0  0  0  0  0  0  0  0  0
   51.2630   -6.5858   -6.9735 C   0  0  0  0  0  0  0  0  0  0  0  0
   53.1353   -5.2639   -6.3231 N   0  0  0  0  0  0  0  0  0  0  0  0
   53.1529   -4.3422   -7.4269 C   0  0  0  0  0  0  0  0  0  0  0  0
   54.2591   -4.3353   -8.1750 N   0  0  0  0  0  0  0  0  0  0  0  0
   54.3652   -5.7189   -5.7118 C   0  0  0  0  0  0  0  0  0  0  0  0
   54.7117   -7.1307   -6.1314 C   0  0  0  0  0  0  0  0  0  0  0  0
   55.5088   -7.6591   -4.9825 C   0  0  0  0  0  0  0  0  0  0  0  0
   55.0876   -6.9009   -3.7557 C   0  0  0  0  0  0  0  0  0  0  0  0
   54.3460   -5.6756   -4.2224 C   0  0  0  0  0  0  0  0  0  0  0  0
   57.4690   -4.6247  -10.8616 C   0  0  0  0  0  0  0  0  0  0  0  0
   58.6150   -5.3686  -10.6980 C   0  0  0  0  0  0  0  0  0  0  0  0
   59.0392   -5.7740   -9.4589 C   0  0  0  0  0  0  0  0  0  0  0  0
   58.2906   -5.4197   -8.3740 C   0  0  0  0  0  0  0  0  0  0  0  0
   57.1197   -4.6591   -8.5451 C   0  0  0  0  0  0  0  0  0  0  0  0
   56.6685   -4.2389   -9.7630 C   0  0  0  0  0  0  0  0  0  0  0  0
   60.2298   -6.5454   -9.2937 N   0  0  0  0  0  0  0  0  0  0  0  0
   61.3616   -6.1720   -8.5110 C   0  0  0  0  0  0  0  0  0  0  0  0
   61.7139   -7.2475   -7.4740 C   0  0  0  0  0  0  0  0  0  0  0  0
   61.8270   -8.5919   -8.1139 C   0  0  0  0  0  0  0  0  0  0  0  0
   61.6373   -8.4878   -9.5951 C   0  0  0  0  0  0  0  0  0  0  0  0
   60.3241   -7.8436   -9.9795 C   0  0  0  0  0  0  0  0  0  0  0  0
   63.0973   -9.1031   -7.8783 O   0  0  0  0  0  0  0  0  0  0  0  0
   63.0042  -10.0405   -6.8798 C   0  0  0  0  0  0  0  0  0  0  0  0
   61.5880   -9.8173   -6.3542 C   0  0  0  0  0  0  0  0  0  0  0  0
   60.9243   -9.4922   -7.5579 O   0  0  0  0  0  0  0  0  0  0  0  0
   58.0412   -3.8028  -13.0777 C   0  0  0  0  0  0  0  0  0  0  0  0
   57.0689   -4.2305  -12.1355 O   0  0  0  0  0  0  0  0  0  0  0  0
 37 38  1  0  0  0
 38 21  1  0  0  0
 21 22  2  0  0  0
 22 23  1  0  0  0
 23 24  2  0  0  0
 24 25  1  0  0  0
 25 26  2  0  0  0
 26  1  1  0  0  0
  1  3  1  0  0  0
  3  4  2  0  0  0
  4  5  1  0  0  0
  5  6  2  0  0  0
  6  7  1  0  0  0
  7  8  1  0  0  0
  7  9  1  0  0  0
  9 10  2  0  0  0
  9 11  1  0  0  0
 11 12  1  0  0  0
 11 13  1  0  0  0
 13 16  1  0  0  0
 16 17  1  0  0  0
 17 18  1  0  0  0
 18 19  1  0  0  0
 19 20  1  0  0  0
 13 14  1  0  0  0
 14 15  2  0  0  0
 23 27  1  0  0  0
 27 28  1  0  0  0
 28 29  1  0  0  0
 29 30  1  0  0  0
 30 31  1  0  0  0
 31 32  1  0  0  0
 30 33  1  0  0  0
 33 34  1  0  0  0
 34 35  1  0  0  0
 35 36  1  0  0  0
 26 21  1  0  0  0
 15  3  1  0  0  0
 32 27  1  0  0  0
 14  6  1  0  0  0
 36 30  1  0  0  0
 20 16  1  0  0  0
  1  2  1  0  0  0
M  END
> <minimizedAffinity>
-10.25215

> <CNNscore>
0.9799176455

> <CNNaffinity>
8.1346740723

> <CNN_VS>
7.9713106155

> <CNNaffinity_variance>
0.0222874209

$$$$
[H]c1nc(N([H])c2c([H])c([H])c(N3C([H])([H])C([H])([H])C4(OC([H])([H])C([H])([H])O4)C([H])([H])C3([H])[H])c([H])c2OC([H])([H])[H])nc2c1N(C([H])([H])[H])C(=O)[C@@]([H])(C([H])([H])[H])N2C1([H])C([H])([H])C([H])([H])C([H])([H])C1([H])[H]


 38 43  0  0  0  0  0  0  0  0999 V2000
   56.2285   -5.0459   -9.2843 N   0  0  0  0  0  0  0  0  0  0  0  0
   56.6963   -5.8099   -8.7119 H   0  0  0  0  0  0  0  0  0  0  0  0
   54.9762   -4.5997   -8.8019 C   0  0  0  0  0  0  0  0  0  0  0  0
   54.2455   -3.6192   -9.3171 N   0  0  0  0  0  0  0  0  0  0  0  0
   53.0852   -3.2029   -8.8736 C   0  0  0  0  0  0  0  0  0  0  0  0
   52.5457   -3.8182   -7.7724 C   0  0  0  0  0  0  0  0  0  0  0  0
   51.2978   -3.4690   -7.1941 N   0  0  0  0  0  0  0  0  0  0  0  0
   50.4969   -2.3837   -7.7677 C   0  0  0  0  0  0  0  0  0  0  0  0
   50.8577   -4.1915   -6.0604 C   0  0  0  0  0  0  0  0  0  0  0  0
   50.0550   -3.6871   -5.2576 O   0  0  0  0  0  0  0  0  0  0  0  0
   51.3656   -5.5571   -5.8422 C   0  0  0  0  0  0  0  0  0  0  0  0
   50.7779   -6.4259   -6.9554 C   0  0  0  0  0  0  0  0  0  0  0  0
   52.7951   -5.5422   -6.0466 N   0  0  0  0  0  0  0  0  0  0  0  0
   53.2765   -4.8433   -7.2077 C   0  0  0  0  0  0  0  0  0  0  0  0
   54.4572   -5.2392   -7.6899 N   0  0  0  0  0  0  0  0  0  0  0  0
   53.7108   -6.1942   -5.1357 C   0  0  0  0  0  0  0  0  0  0  0  0
   53.0098   -6.6763   -3.8846 C   0  0  0  0  0  0  0  0  0  0  0  0
   54.0850   -6.6650   -2.8461 C   0  0  0  0  0  0  0  0  0  0  0  0
   55.1049   -5.6445   -3.2651 C   0  0  0  0  0  0  0  0  0  0  0  0
   54.8541   -5.3346   -4.7178 C   0  0  0  0  0  0  0  0  0  0  0  0
   58.2619   -4.9139  -10.5650 C   0  0  0  0  0  0  0  0  0  0  0  0
   58.9933   -4.5015  -11.6551 C   0  0  0  0  0  0  0  0  0  0  0  0
   58.4322   -3.7515  -12.6562 C   0  0  0  0  0  0  0  0  0  0  0  0
   57.1134   -3.4167  -12.5485 C   0  0  0  0  0  0  0  0  0  0  0  0
   56.3690   -3.8402  -11.4327 C   0  0  0  0  0  0  0  0  0  0  0  0
   56.8951   -4.5873  -10.4185 C   0  0  0  0  0  0  0  0  0  0  0  0
   59.1950   -3.3262  -13.7864 N   0  0  0  0  0  0  0  0  0  0  0  0
   60.5440   -2.8655  -13.7544 C   0  0  0  0  0  0  0  0  0  0  0  0
   61.4401   -3.6676  -14.7083 C   0  0  0  0  0  0  0  0  0  0  0  0
   60.8453   -3.7300  -16.0765 C   0  0  0  0  0  0  0  0  0  0  0  0
   59.5830   -2.9278  -16.1392 C   0  0  0  0  0  0  0  0  0  0  0  0
   58.5584   -3.3558  -15.1125 C   0  0  0  0  0  0  0  0  0  0  0  0
   61.7434   -3.1897  -16.9887 O   0  0  0  0  0  0  0  0  0  0  0  0
   62.3541   -4.2240  -17.6534 C   0  0  0  0  0  0  0  0  0  0  0  0
   61.9276   -5.4374  -16.8304 C   0  0  0  0  0  0  0  0  0  0  0  0
   60.6198   -5.0452  -16.4685 O   0  0  0  0  0  0  0  0  0  0  0  0
   60.2297   -6.0467   -9.6939 C   0  0  0  0  0  0  0  0  0  0  0  0
   58.8653   -5.6748   -9.5672 O   0  0  0  0  0  0  0  0  0  0  0  0
 37 38  1  0  0  0
 38 21  1  0  0  0
 21 22  2  0  0  0
 22 23  1  0  0  0
 23 24  2  0  0  0
 24 25  1  0  0  0
 25 26  2  0  0  0
 26  1  1  0  0  0
  1  3  1  0  0  0
  3  4  2  0  0  0
  4  5  1  0  0  0
  5  6  2  0  0  0
  6  7  1  0  0  0
  7  8  1  0  0  0
  7  9  1  0  0  0
  9 10  2  0  0  0
  9 11  1  0  0  0
 11 12  1  0  0  0
 11 13  1  0  0  0
 13 16  1  0  0  0
 16 17  1  0  0  0
 17 18  1  0  0  0
 18 19  1  0  0  0
 19 20  1  0  0  0
 13 14  1  0  0  0
 14 15  2  0  0  0
 23 27  1  0  0  0
 27 28  1  0  0  0
 28 29  1  0  0  0
 29 30  1  0  0  0
 30 31  1  0  0  0
 31 32  1  0  0  0
 30 33  1  0  0  0
 33 34  1  0  0  0
 34 35  1  0  0  0
 35 36  1  0  0  0
 26 21  1  0  0  0
 15  3  1  0  0  0
 32 27  1  0  0  0
 14  6  1  0  0  0
 36 30  1  0  0  0
 20 16  1  0  0  0
  1  2  1  0  0  0
M  END
> <minimizedAffinity>
-8.92990

> <CNNscore>
0.6384486556

> <CNNaffinity>
7.5024871826

> <CNN_VS>
4.7899527550

> <CNNaffinity_variance>
0.1992237717

$$$$
[H]c1nc(N([H])c2c([H])c([H])c(N3C([H])([H])C([H])([H])C4(OC([H])([H])C([H])([H])O4)C([H])([H])C3([H])[H])c([H])c2OC([H])([H])[H])nc2c1N(C([H])([H])[H])C(=O)[C@@]([H])(C([H])([H])[H])N2C1([H])C([H])([H])C([H])([H])C([H])([H])C1([H])[H]


 38 43  0  0  0  0  0  0  0  0999 V2000
   56.9393   -5.2502   -9.1288 N   0  0  0  0  0  0  0  0  0  0  0  0
   57.3293   -5.9697   -8.4502 H   0  0  0  0  0  0  0  0  0  0  0  0
   55.6518   -4.7529   -8.8203 C   0  0  0  0  0  0  0  0  0  0  0  0
   54.9642   -3.8706   -9.5340 N   0  0  0  0  0  0  0  0  0  0  0  0
   53.7715   -3.4075   -9.2520 C   0  0  0  0  0  0  0  0  0  0  0  0
   53.1456   -3.8573   -8.1171 C   0  0  0  0  0  0  0  0  0  0  0  0
   51.8549   -3.4414   -7.6991 N   0  0  0  0  0  0  0  0  0  0  0  0
   51.1018   -2.4652   -8.4918 C   0  0  0  0  0  0  0  0  0  0  0  0
   51.3255   -3.9909   -6.5080 C   0  0  0  0  0  0  0  0  0  0  0  0
   50.4603   -3.3820   -5.8569 O   0  0  0  0  0  0  0  0  0  0  0  0
   51.8154   -5.3014   -6.0466 C   0  0  0  0  0  0  0  0  0  0  0  0
   51.3200   -6.3352   -7.0591 C   0  0  0  0  0  0  0  0  0  0  0  0
   53.2567   -5.2988   -6.1366 N   0  0  0  0  0  0  0  0  0  0  0  0
   53.8294   -4.7762   -7.3478 C   0  0  0  0  0  0  0  0  0  0  0  0
   55.0455   -5.2247   -7.6694 N   0  0  0  0  0  0  0  0  0  0  0  0
   54.0966   -5.7944   -5.0679 C   0  0  0  0  0  0  0  0  0  0  0  0
   54.6713   -7.1562   -5.3912 C   0  0  0  0  0  0  0  0  0  0  0  0
   54.8860   -7.7807   -4.0501 C   0  0  0  0  0  0  0  0  0  0  0  0
   53.9131   -7.1463   -3.0971 C   0  0  0  0  0  0  0  0  0  0  0  0
   53.4001   -5.8915   -3.7541 C   0  0  0  0  0  0  0  0  0  0  0  0
   59.0748   -5.3281  -10.2359 C   0  0  0  0  0  0  0  0  0  0  0  0
   59.9233   -5.0198  -11.2744 C   0  0  0  0  0  0  0  0  0  0  0  0
   59.5071   -4.2737  -12.3466 C   0  0  0  0  0  0  0  0  0  0  0  0
   58.2144   -3.8358  -12.3639 C   0  0  0  0  0  0  0  0  0  0  0  0
   57.3500   -4.1530  -11.3005 C   0  0  0  0  0  0  0  0  0  0  0  0
   57.7307   -4.8929  -10.2183 C   0  0  0  0  0  0  0  0  0  0  0  0
   60.3910   -3.9567  -13.4228 N   0  0  0  0  0  0  0  0  0  0  0  0
   60.1931   -2.9241  -14.3859 C   0  0  0  0  0  0  0  0  0  0  0  0
   61.3887   -1.9629  -14.4407 C   0  0  0  0  0  0  0  0  0  0  0  0
   62.6710   -2.7115  -14.5985 C   0  0  0  0  0  0  0  0  0  0  0  0
   62.4108   -4.1795  -14.7327 C   0  0  0  0  0  0  0  0  0  0  0  0
   61.6216   -4.7487  -13.5750 C   0  0  0  0  0  0  0  0  0  0  0  0
   63.3105   -2.2811  -15.7545 O   0  0  0  0  0  0  0  0  0  0  0  0
   64.3268   -1.4325  -15.3920 C   0  0  0  0  0  0  0  0  0  0  0  0
   64.0325   -1.1839  -13.9144 C   0  0  0  0  0  0  0  0  0  0  0  0
   63.5383   -2.4537  -13.5422 O   0  0  0  0  0  0  0  0  0  0  0  0
   60.7784   -6.7626   -9.2590 C   0  0  0  0  0  0  0  0  0  0  0  0
   59.5325   -6.0883   -9.1631 O   0  0  0  0  0  0  0  0  0  0  0  0
 37 38  1  0  0  0
 38 21  1  0  0  0
 21 22  2  0  0  0
 22 23  1  0  0  0
 23 24  2  0  0  0
 24 25  1  0  0  0
 25 26  2  0  0  0
 26  1  1  0  0  0
  1  3  1  0  0  0
  3  4  2  0  0  0
  4  5  1  0  0  0
  5  6  2  0  0  0
  6  7  1  0  0  0
  7  8  1  0  0  0
  7  9  1  0  0  0
  9 10  2  0  0  0
  9 11  1  0  0  0
 11 12  1  0  0  0
 11 13  1  0  0  0
 13 16  1  0  0  0
 16 17  1  0  0  0
 17 18  1  0  0  0
 18 19  1  0  0  0
 19 20  1  0  0  0
 13 14  1  0  0  0
 14 15  2  0  0  0
 23 27  1  0  0  0
 27 28  1  0  0  0
 28 29  1  0  0  0
 29 30  1  0  0  0
 30 31  1  0  0  0
 31 32  1  0  0  0
 30 33  1  0  0  0
 33 34  1  0  0  0
 34 35  1  0  0  0
 35 36  1  0  0  0
 26 21  1  0  0  0
 15  3  1  0  0  0
 32 27  1  0  0  0
 14  6  1  0  0  0
 36 30  1  0  0  0
 20 16  1  0  0  0
  1  2  1  0  0  0
M  END
> <minimizedAffinity>
-7.41695

> <CNNscore>
0.5017415285

> <CNNaffinity>
7.1322808266

> <CNN_VS>
3.5785615444

> <CNNaffinity_variance>
0.3439954519

$$$$
[H]c1nc(N([H])c2c([H])c([H])c(N3C([H])([H])C([H])([H])C4(OC([H])([H])C([H])([H])O4)C([H])([H])C3([H])[H])c([H])c2OC([H])([H])[H])nc2c1N(C([H])([H])[H])C(=O)[C@@]([H])(C([H])([H])[H])N2C1([H])C([H])([H])C([H])([H])C([H])([H])C1([H])[H]


 38 43  0  0  0  0  0  0  0  0999 V2000
   54.7915   -3.9595   -7.4163 N   0  0  0  0  0  0  0  0  0  0  0  0
   54.2893   -3.0455   -7.2096 H   0  0  0  0  0  0  0  0  0  0  0  0
   54.8055   -4.9021   -6.3621 C   0  0  0  0  0  0  0  0  0  0  0  0
   55.8605   -5.5894   -5.9435 N   0  0  0  0  0  0  0  0  0  0  0  0
   55.8779   -6.4632   -4.9675 C   0  0  0  0  0  0  0  0  0  0  0  0
   54.7101   -6.7151   -4.2929 C   0  0  0  0  0  0  0  0  0  0  0  0
   54.5920   -7.6318   -3.2162 N   0  0  0  0  0  0  0  0  0  0  0  0
   55.7614   -8.3888   -2.7603 C   0  0  0  0  0  0  0  0  0  0  0  0
   53.3260   -7.7906   -2.6056 C   0  0  0  0  0  0  0  0  0  0  0  0
   53.0373   -8.8388   -2.0046 O   0  0  0  0  0  0  0  0  0  0  0  0
   52.3486   -6.6917   -2.6915 C   0  0  0  0  0  0  0  0  0  0  0  0
   52.9068   -5.5426   -1.8504 C   0  0  0  0  0  0  0  0  0  0  0  0
   52.3196   -6.2226   -4.0570 N   0  0  0  0  0  0  0  0  0  0  0  0
   53.5901   -6.0194   -4.6994 C   0  0  0  0  0  0  0  0  0  0  0  0
   53.6129   -5.1354   -5.7002 N   0  0  0  0  0  0  0  0  0  0  0  0
   51.0801   -5.9656   -4.7575 C   0  0  0  0  0  0  0  0  0  0  0  0
   51.1806   -6.3204   -6.2249 C   0  0  0  0  0  0  0  0  0  0  0  0
   50.1868   -5.4158   -6.8798 C   0  0  0  0  0  0  0  0  0  0  0  0
   50.0337   -4.2053   -6.0032 C   0  0  0  0  0  0  0  0  0  0  0  0
   50.6177   -4.5524   -4.6587 C   0  0  0  0  0  0  0  0  0  0  0  0
   54.5328   -3.9510   -9.8091 C   0  0  0  0  0  0  0  0  0  0  0  0
   55.0181   -4.0842  -11.0898 C   0  0  0  0  0  0  0  0  0  0  0  0
   56.3342   -4.3809  -11.3334 C   0  0  0  0  0  0  0  0  0  0  0  0
   57.1665   -4.5440  -10.2640 C   0  0  0  0  0  0  0  0  0  0  0  0
   56.6668   -4.4070   -8.9563 C   0  0  0  0  0  0  0  0  0  0  0  0
   55.3633   -4.1125   -8.6775 C   0  0  0  0  0  0  0  0  0  0  0  0
   56.8338   -4.5175  -12.6645 N   0  0  0  0  0  0  0  0  0  0  0  0
   56.4913   -5.5559  -13.5796 C   0  0  0  0  0  0  0  0  0  0  0  0
   55.9593   -4.9918  -14.9044 C   0  0  0  0  0  0  0  0  0  0  0  0
   56.8895   -3.9653  -15.4614 C   0  0  0  0  0  0  0  0  0  0  0  0
   58.1091   -3.8384  -14.6029 C   0  0  0  0  0  0  0  0  0  0  0  0
   57.7868   -3.5128  -13.1616 C   0  0  0  0  0  0  0  0  0  0  0  0
   57.2963   -4.3598  -16.7301 O   0  0  0  0  0  0  0  0  0  0  0  0
   56.5921   -3.6278  -17.6535 C   0  0  0  0  0  0  0  0  0  0  0  0
   55.5187   -2.9644  -16.7935 C   0  0  0  0  0  0  0  0  0  0  0  0
   56.2542   -2.7368  -15.6094 O   0  0  0  0  0  0  0  0  0  0  0  0
   52.8274   -2.3804   -9.0747 C   0  0  0  0  0  0  0  0  0  0  0  0
   53.1899   -3.6490   -9.5996 O   0  0  0  0  0  0  0  0  0  0  0  0
 37 38  1  0  0  0
 38 21  1  0  0  0
 21 22  2  0  0  0
 22 23  1  0  0  0
 23 24  2  0  0  0
 24 25  1  0  0  0
 25 26  2  0  0  0
 26  1  1  0  0  0
  1  3  1  0  0  0
  3  4  2  0  0  0
  4  5  1  0  0  0
  5  6  2  0  0  0
  6  7  1  0  0  0
  7  8  1  0  0  0
  7  9  1  0  0  0
  9 10  2  0  0  0
  9 11  1  0  0  0
 11 12  1  0  0  0
 11 13  1  0  0  0
 13 16  1  0  0  0
 16 17  1  0  0  0
 17 18  1  0  0  0
 18 19  1  0  0  0
 19 20  1  0  0  0
 13 14  1  0  0  0
 14 15  2  0  0  0
 23 27  1  0  0  0
 27 28  1  0  0  0
 28 29  1  0  0  0
 29 30  1  0  0  0
 30 31  1  0  0  0
 31 32  1  0  0  0
 30 33  1  0  0  0
 33 34  1  0  0  0
 34 35  1  0  0  0
 35 36  1  0  0  0
 26 21  1  0  0  0
 15  3  1  0  0  0
 32 27  1  0  0  0
 14  6  1  0  0  0
 36 30  1  0  0  0
 20 16  1  0  0  0
  1  2  1  0  0  0
M  END
> <minimizedAffinity>
-8.69586

> <CNNscore>
0.3690730333

> <CNNaffinity>
7.5818495750

> <CNN_VS>
2.7982561588

> <CNNaffinity_variance>
0.0891231075

$$$$
[H]c1nc(N([H])c2c([H])c([H])c(N3C([H])([H])C([H])([H])C4(OC([H])([H])C([H])([H])O4)C([H])([H])C3([H])[H])c([H])c2OC([H])([H])[H])nc2c1N(C([H])([H])[H])C(=O)[C@@]([H])(C([H])([H])[H])N2C1([H])C([H])([H])C([H])([H])C([H])([H])C1([H])[H]


 38 43  0  0  0  0  0  0  0  0999 V2000
   62.3832   -8.5024  -10.8794 N   0  0  0  0  0  0  0  0  0  0  0  0
   61.9523   -9.2532  -11.4966 H   0  0  0  0  0  0  0  0  0  0  0  0
   62.9214   -7.3855  -11.5597 C   0  0  0  0  0  0  0  0  0  0  0  0
   64.1975   -7.0222  -11.5763 N   0  0  0  0  0  0  0  0  0  0  0  0
   64.7002   -5.9886  -12.2051 C   0  0  0  0  0  0  0  0  0  0  0  0
   63.8533   -5.1841  -12.9248 C   0  0  0  0  0  0  0  0  0  0  0  0
   64.2671   -4.0391  -13.6536 N   0  0  0  0  0  0  0  0  0  0  0  0
   65.6783   -3.6429  -13.6660 C   0  0  0  0  0  0  0  0  0  0  0  0
   63.2871   -3.3012  -14.3578 C   0  0  0  0  0  0  0  0  0  0  0  0
   63.4649   -2.1009  -14.6241 O   0  0  0  0  0  0  0  0  0  0  0  0
   62.0460   -3.9772  -14.7738 C   0  0  0  0  0  0  0  0  0  0  0  0
   62.4390   -4.9908  -15.8496 C   0  0  0  0  0  0  0  0  0  0  0  0
   61.5537   -4.7417  -13.6518 N   0  0  0  0  0  0  0  0  0  0  0  0
   62.5175   -5.5295  -12.9316 C   0  0  0  0  0  0  0  0  0  0  0  0
   62.0431   -6.5925  -12.2771 N   0  0  0  0  0  0  0  0  0  0  0  0
   60.1611   -4.7255  -13.2597 C   0  0  0  0  0  0  0  0  0  0  0  0
   59.4508   -3.4879  -13.7626 C   0  0  0  0  0  0  0  0  0  0  0  0
   58.3514   -3.2797  -12.7713 C   0  0  0  0  0  0  0  0  0  0  0  0
   58.7903   -3.8998  -11.4752 C   0  0  0  0  0  0  0  0  0  0  0  0
   59.9523   -4.8065  -11.7864 C   0  0  0  0  0  0  0  0  0  0  0  0
   61.5448   -7.8695   -8.7140 C   0  0  0  0  0  0  0  0  0  0  0  0
   61.4682   -8.0065   -7.3470 C   0  0  0  0  0  0  0  0  0  0  0  0
   62.1845   -8.9654   -6.6785 C   0  0  0  0  0  0  0  0  0  0  0  0
   62.9877   -9.7943   -7.4070 C   0  0  0  0  0  0  0  0  0  0  0  0
   63.0634   -9.6513   -8.8043 C   0  0  0  0  0  0  0  0  0  0  0  0
   62.3647   -8.7084   -9.5017 C   0  0  0  0  0  0  0  0  0  0  0  0
   62.1014   -9.1044   -5.2594 N   0  0  0  0  0  0  0  0  0  0  0  0
   60.9198   -9.4062   -4.5205 C   0  0  0  0  0  0  0  0  0  0  0  0
   61.1081  -10.6419   -3.6296 C   0  0  0  0  0  0  0  0  0  0  0  0
   62.3392  -10.5173   -2.7940 C   0  0  0  0  0  0  0  0  0  0  0  0
   62.9926   -9.1885   -3.0137 C   0  0  0  0  0  0  0  0  0  0  0  0
   63.3269   -8.9263   -4.4651 C   0  0  0  0  0  0  0  0  0  0  0  0
   61.9902  -10.6078   -1.4522 O   0  0  0  0  0  0  0  0  0  0  0  0
   62.3128  -11.8663   -1.0088 C   0  0  0  0  0  0  0  0  0  0  0  0
   62.6239  -12.6007   -2.3109 C   0  0  0  0  0  0  0  0  0  0  0  0
   63.2275  -11.5572   -3.0470 O   0  0  0  0  0  0  0  0  0  0  0  0
   59.7366   -6.2437   -8.6738 C   0  0  0  0  0  0  0  0  0  0  0  0
   60.8025   -6.8840   -9.3593 O   0  0  0  0  0  0  0  0  0  0  0  0
 37 38  1  0  0  0
 38 21  1  0  0  0
 21 22  2  0  0  0
 22 23  1  0  0  0
 23 24  2  0  0  0
 24 25  1  0  0  0
 25 26  2  0  0  0
 26  1  1  0  0  0
  1  3  1  0  0  0
  3  4  2  0  0  0
  4  5  1  0  0  0
  5  6  2  0  0  0
  6  7  1  0  0  0
  7  8  1  0  0  0
  7  9  1  0  0  0
  9 10  2  0  0  0
  9 11  1  0  0  0
 11 12  1  0  0  0
 11 13  1  0  0  0
 13 16  1  0  0  0
 16 17  1  0  0  0
 17 18  1  0  0  0
 18 19  1  0  0  0
 19 20  1  0  0  0
 13 14  1  0  0  0
 14 15  2  0  0  0
 23 27  1  0  0  0
 27 28  1  0  0  0
 28 29  1  0  0  0
 29 30  1  0  0  0
 30 31  1  0  0  0
 31 32  1  0  0  0
 30 33  1  0  0  0
 33 34  1  0  0  0
 34 35  1  0  0  0
 35 36  1  0  0  0
 26 21  1  0  0  0
 15  3  1  0  0  0
 32 27  1  0  0  0
 14  6  1  0  0  0
 36 30  1  0  0  0
 20 16  1  0  0  0
  1  2  1  0  0  0
M  END
> <minimizedAffinity>
-0.64745

> <CNNscore>
0.3473820090

> <CNNaffinity>
5.4434614182

> <CNN_VS>
1.8909605742

> <CNNaffinity_variance>
0.3870306313

$$$$
[H]c1nc(N([H])c2c([H])c([H])c(N3C([H])([H])C([H])([H])C4(OC([H])([H])C([H])([H])O4)C([H])([H])C3([H])[H])c([H])c2OC([H])([H])[H])nc2c1N(C([H])([H])[H])C(=O)[C@@]([H])(C([H])([H])[H])N2C1([H])C([H])([H])C([H])([H])C([H])([H])C1([H])[H]


 38 43  0  0  0  0  0  0  0  0999 V2000
   61.5125   -9.4234   -9.7225 N   0  0  0  0  0  0  0  0  0  0  0  0
   61.0952  -10.2924  -10.1709 H   0  0  0  0  0  0  0  0  0  0  0  0
   61.8484   -8.3768  -10.6122 C   0  0  0  0  0  0  0  0  0  0  0  0
   61.0959   -7.3212  -10.8952 N   0  0  0  0  0  0  0  0  0  0  0  0
   61.4032   -6.3495  -11.7185 C   0  0  0  0  0  0  0  0  0  0  0  0
   62.6115   -6.3974  -12.3665 C   0  0  0  0  0  0  0  0  0  0  0  0
   63.0682   -5.4104  -13.2780 N   0  0  0  0  0  0  0  0  0  0  0  0
   62.2308   -4.2478  -13.5871 C   0  0  0  0  0  0  0  0  0  0  0  0
   64.3404   -5.5825  -13.8720 C   0  0  0  0  0  0  0  0  0  0  0  0
   64.6105   -5.0497  -14.9613 O   0  0  0  0  0  0  0  0  0  0  0  0
   65.3467   -6.4059  -13.1794 C   0  0  0  0  0  0  0  0  0  0  0  0
   65.7447   -5.6403  -11.9165 C   0  0  0  0  0  0  0  0  0  0  0  0
   64.7043   -7.6208  -12.7358 N   0  0  0  0  0  0  0  0  0  0  0  0
   63.4229   -7.4807  -12.0982 C   0  0  0  0  0  0  0  0  0  0  0  0
   63.0735   -8.4523  -11.2512 N   0  0  0  0  0  0  0  0  0  0  0  0
   65.3085   -8.9228  -12.9175 C   0  0  0  0  0  0  0  0  0  0  0  0
   64.3816   -9.8758  -13.6400 C   0  0  0  0  0  0  0  0  0  0  0  0
   64.8057  -11.2240  -13.1531 C   0  0  0  0  0  0  0  0  0  0  0  0
   65.4258  -11.0386  -11.7973 C   0  0  0  0  0  0  0  0  0  0  0  0
   65.7296   -9.5712  -11.6436 C   0  0  0  0  0  0  0  0  0  0  0  0
   62.0528   -8.2152   -7.7124 C   0  0  0  0  0  0  0  0  0  0  0  0
   62.2325   -8.1293   -6.3508 C   0  0  0  0  0  0  0  0  0  0  0  0
   62.0528   -9.2136   -5.5313 C   0  0  0  0  0  0  0  0  0  0  0  0
   61.6865  -10.3983   -6.1015 C   0  0  0  0  0  0  0  0  0  0  0  0
   61.5037  -10.4823   -7.4937 C   0  0  0  0  0  0  0  0  0  0  0  0
   61.6739   -9.4237   -8.3387 C   0  0  0  0  0  0  0  0  0  0  0  0
   62.2397   -9.1196   -4.1184 N   0  0  0  0  0  0  0  0  0  0  0  0
   62.6908  -10.1705   -3.2668 C   0  0  0  0  0  0  0  0  0  0  0  0
   63.9225   -9.7513   -2.4523 C   0  0  0  0  0  0  0  0  0  0  0  0
   63.6856   -8.4536   -1.7527 C   0  0  0  0  0  0  0  0  0  0  0  0
   62.2871   -7.9752   -1.9894 C   0  0  0  0  0  0  0  0  0  0  0  0
   61.9492   -7.8379   -3.4571 C   0  0  0  0  0  0  0  0  0  0  0  0
   63.8516   -8.6363   -0.3854 O   0  0  0  0  0  0  0  0  0  0  0  0
   65.0785   -8.1327   -0.0310 C   0  0  0  0  0  0  0  0  0  0  0  0
   65.7374   -7.8948   -1.3878 C   0  0  0  0  0  0  0  0  0  0  0  0
   64.6134   -7.4938   -2.1433 O   0  0  0  0  0  0  0  0  0  0  0  0
   63.3382   -6.2244   -8.2587 C   0  0  0  0  0  0  0  0  0  0  0  0
   62.2442   -7.0928   -8.5137 O   0  0  0  0  0  0  0  0  0  0  0  0
 37 38  1  0  0  0
 38 21  1  0  0  0
 21 22  2  0  0  0
 22 23  1  0  0  0
 23 24  2  0  0  0
 24 25  1  0  0  0
 25 26  2  0  0  0
 26  1  1  0  0  0
  1  3  1  0  0  0
  3  4  2  0  0  0
  4  5  1  0  0  0
  5  6  2  0  0  0
  6  7  1  0  0  0
  7  8  1  0  0  0
  7  9  1  0  0  0
  9 10  2  0  0  0
  9 11  1  0  0  0
 11 12  1  0  0  0
 11 13  1  0  0  0
 13 16  1  0  0  0
 16 17  1  0  0  0
 17 18  1  0  0  0
 18 19  1  0  0  0
 19 20  1  0  0  0
 13 14  1  0  0  0
 14 15  2  0  0  0
 23 27  1  0  0  0
 27 28  1  0  0  0
 28 29  1  0  0  0
 29 30  1  0  0  0
 30 31  1  0  0  0
 31 32  1  0  0  0
 30 33  1  0  0  0
 33 34  1  0  0  0
 34 35  1  0  0  0
 35 36  1  0  0  0
 26 21  1  0  0  0
 15  3  1  0  0  0
 32 27  1  0  0  0
 14  6  1  0  0  0
 36 30  1  0  0  0
 20 16  1  0  0  0
  1  2  1  0  0  0
M  END
> <minimizedAffinity>
-2.01432

> <CNNscore>
0.3114201427

> <CNNaffinity>
5.2701168060

> <CNN_VS>
1.6412205696

> <CNNaffinity_variance>
0.0674448162

$$$$
[H]c1nc(N([H])c2c([H])c([H])c(N3C([H])([H])C([H])([H])C4(OC([H])([H])C([H])([H])O4)C([H])([H])C3([H])[H])c([H])c2OC([H])([H])[H])nc2c1N(C([H])([H])[H])C(=O)[C@@]([H])(C([H])([H])[H])N2C1([H])C([H])([H])C([H])([H])C([H])([H])C1([H])[H]


 38 43  0  0  0  0  0  0  0  0999 V2000
   55.0553   -4.3936   -8.6442 N   0  0  0  0  0  0  0  0  0  0  0  0
   54.6528   -3.7874   -9.4193 H   0  0  0  0  0  0  0  0  0  0  0  0
   54.1758   -4.6844   -7.5755 C   0  0  0  0  0  0  0  0  0  0  0  0
   52.8517   -4.6049   -7.6107 N   0  0  0  0  0  0  0  0  0  0  0  0
   52.0334   -4.8735   -6.6234 C   0  0  0  0  0  0  0  0  0  0  0  0
   52.5637   -5.2783   -5.4246 C   0  0  0  0  0  0  0  0  0  0  0  0
   51.7917   -5.6037   -4.2794 N   0  0  0  0  0  0  0  0  0  0  0  0
   50.3295   -5.5120   -4.3251 C   0  0  0  0  0  0  0  0  0  0  0  0
   52.4693   -6.0131   -3.1071 C   0  0  0  0  0  0  0  0  0  0  0  0
   51.9436   -5.8790   -1.9896 O   0  0  0  0  0  0  0  0  0  0  0  0
   53.8135   -6.6037   -3.2284 C   0  0  0  0  0  0  0  0  0  0  0  0
   53.6364   -7.9569   -3.9190 C   0  0  0  0  0  0  0  0  0  0  0  0
   54.5850   -5.7817   -4.1309 N   0  0  0  0  0  0  0  0  0  0  0  0
   53.9382   -5.3730   -5.3486 C   0  0  0  0  0  0  0  0  0  0  0  0
   54.7395   -5.0902   -6.3788 N   0  0  0  0  0  0  0  0  0  0  0  0
   55.9439   -5.3808   -3.8375 C   0  0  0  0  0  0  0  0  0  0  0  0
   56.8872   -6.5637   -3.8227 C   0  0  0  0  0  0  0  0  0  0  0  0
   57.9762   -6.1401   -2.8902 C   0  0  0  0  0  0  0  0  0  0  0  0
   57.3908   -5.1315   -1.9430 C   0  0  0  0  0  0  0  0  0  0  0  0
   56.0899   -4.6623   -2.5402 C   0  0  0  0  0  0  0  0  0  0  0  0
   56.9391   -4.8521  -10.0701 C   0  0  0  0  0  0  0  0  0  0  0  0
   58.2360   -5.2580  -10.2865 C   0  0  0  0  0  0  0  0  0  0  0  0
   59.0487   -5.6510   -9.2547 C   0  0  0  0  0  0  0  0  0  0  0  0
   58.5382   -5.6314   -7.9891 C   0  0  0  0  0  0  0  0  0  0  0  0
   57.2120   -5.2159   -7.7718 C   0  0  0  0  0  0  0  0  0  0  0  0
   56.3757   -4.8184   -8.7748 C   0  0  0  0  0  0  0  0  0  0  0  0
   60.3946   -6.0708   -9.4839 N   0  0  0  0  0  0  0  0  0  0  0  0
   61.3024   -6.5361   -8.4876 C   0  0  0  0  0  0  0  0  0  0  0  0
   61.8666   -7.9204   -8.8364 C   0  0  0  0  0  0  0  0  0  0  0  0
   62.4160   -7.9405  -10.2247 C   0  0  0  0  0  0  0  0  0  0  0  0
   62.3245   -6.5823  -10.8472 C   0  0  0  0  0  0  0  0  0  0  0  0
   60.9165   -6.0305  -10.8589 C   0  0  0  0  0  0  0  0  0  0  0  0
   63.7567   -8.3026  -10.1788 O   0  0  0  0  0  0  0  0  0  0  0  0
   63.8592   -9.6177  -10.5590 C   0  0  0  0  0  0  0  0  0  0  0  0
   62.4016  -10.0726  -10.5556 C   0  0  0  0  0  0  0  0  0  0  0  0
   61.7716   -8.8921  -11.0080 O   0  0  0  0  0  0  0  0  0  0  0  0
   56.7435   -3.8753  -12.2886 C   0  0  0  0  0  0  0  0  0  0  0  0
   56.1426   -4.4596  -11.1425 O   0  0  0  0  0  0  0  0  0  0  0  0
 37 38  1  0  0  0
 38 21  1  0  0  0
 21 22  2  0  0  0
 22 23  1  0  0  0
 23 24  2  0  0  0
 24 25  1  0  0  0
 25 26  2  0  0  0
 26  1  1  0  0  0
  1  3  1  0  0  0
  3  4  2  0  0  0
  4  5  1  0  0  0
  5  6  2  0  0  0
  6  7  1  0  0  0
  7  8  1  0  0  0
  7  9  1  0  0  0
  9 10  2  0  0  0
  9 11  1  0  0  0
 11 12  1  0  0  0
 11 13  1  0  0  0
 13 16  1  0  0  0
 16 17  1  0  0  0
 17 18  1  0  0  0
 18 19  1  0  0  0
 19 20  1  0  0  0
 13 14  1  0  0  0
 14 15  2  0  0  0
 23 27  1  0  0  0
 27 28  1  0  0  0
 28 29  1  0  0  0
 29 30  1  0  0  0
 30 31  1  0  0  0
 31 32  1  0  0  0
 30 33  1  0  0  0
 33 34  1  0  0  0
 34 35  1  0  0  0
 35 36  1  0  0  0
 26 21  1  0  0  0
 15  3  1  0  0  0
 32 27  1  0  0  0
 14  6  1  0  0  0
 36 30  1  0  0  0
 20 16  1  0  0  0
  1  2  1  0  0  0
M  END
> <minimizedAffinity>
-7.58705

> <CNNscore>
0.2525901198

> <CNNaffinity>
6.9506988525

> <CNN_VS>
1.7556778193

> <CNNaffinity_variance>
0.1354589164

$$$$
