[H]c1c([H])c(C([H])([H])[H])c(C(=O)N([H])c2c([H])c([H])c(N3C([H])([H])C([H])([H])C([H])(C([H])([H])c4c([H])c([H])c(OC(F)(F)F)c([H])c4[H])C([H])([H])C3([H])[H])c([H])c2[H])c(C([H])([H])[H])c1[H]
     RDKit          3D

 64 67  0  0  0  0  0  0  0  0999 V2000
   -7.0215   -0.0876   -2.7069 C   0  0  0  0  0  0  0  0  0  0  0  0
   -7.6399    0.2394   -1.3981 C   0  0  0  0  0  0  0  0  0  0  0  0
   -9.0277    0.2486   -1.3102 C   0  0  0  0  0  0  0  0  0  0  0  0
   -9.6506    0.5262   -0.1221 C   0  0  0  0  0  0  0  0  0  0  0  0
   -8.8897    0.7961    0.9793 C   0  0  0  0  0  0  0  0  0  0  0  0
   -7.4849    0.7881    0.8904 C   0  0  0  0  0  0  0  0  0  0  0  0
   -6.6987    1.1409    2.1043 C   0  0  0  0  0  0  0  0  0  0  0  0
   -6.8324    0.5129   -0.2813 C   0  0  0  0  0  0  0  0  0  0  0  0
   -5.4071    0.5289   -0.4737 C   0  0  0  0  0  0  0  0  0  0  0  0
   -4.9759    0.9352   -1.6176 O   0  0  0  0  0  0  0  0  0  0  0  0
   -4.4144    0.1465    0.4396 N   0  0  0  0  0  0  0  0  0  0  0  0
   -3.0134    0.1644    0.2441 C   0  0  0  0  0  0  0  0  0  0  0  0
   -2.1952    0.2796    1.3765 C   0  0  0  0  0  0  0  0  0  0  0  0
   -0.8193    0.2845    1.2755 C   0  0  0  0  0  0  0  0  0  0  0  0
   -0.1804    0.1778    0.0716 C   0  0  0  0  0  0  0  0  0  0  0  0
   -0.9864    0.0631   -1.0503 C   0  0  0  0  0  0  0  0  0  0  0  0
   -2.3753    0.0572   -0.9532 C   0  0  0  0  0  0  0  0  0  0  0  0
    1.2156    0.1799   -0.1013 N   0  0  0  0  0  0  0  0  0  0  0  0
    1.7960    0.0111   -1.4416 C   0  0  0  0  0  0  0  0  0  0  0  0
    3.2598   -0.3671   -1.3203 C   0  0  0  0  0  0  0  0  0  0  0  0
    3.3342   -1.4758   -0.2952 C   0  0  0  0  0  0  0  0  0  0  0  0
    4.5973   -2.2575   -0.3566 C   0  0  0  0  0  0  0  0  0  0  0  0
    5.8368   -1.5277   -0.1476 C   0  0  0  0  0  0  0  0  0  0  0  0
    6.4795   -0.9313   -1.2058 C   0  0  0  0  0  0  0  0  0  0  0  0
    7.6619   -0.2494   -1.0003 C   0  0  0  0  0  0  0  0  0  0  0  0
    8.2260   -0.1464    0.2503 C   0  0  0  0  0  0  0  0  0  0  0  0
    9.4136    0.5453    0.4214 O   0  0  0  0  0  0  0  0  0  0  0  0
    9.3030    1.9464    0.7089 C   0  0  0  0  0  0  0  0  0  0  0  0
    8.6528    2.6197   -0.2985 F   0  0  0  0  0  0  0  0  0  0  0  0
    8.5245    2.0869    1.8451 F   0  0  0  0  0  0  0  0  0  0  0  0
   10.5391    2.4978    0.9690 F   0  0  0  0  0  0  0  0  0  0  0  0
    7.5928   -0.7386    1.3173 C   0  0  0  0  0  0  0  0  0  0  0  0
    6.3969   -1.4262    1.0979 C   0  0  0  0  0  0  0  0  0  0  0  0
    2.9769   -0.9352    1.0396 C   0  0  0  0  0  0  0  0  0  0  0  0
    2.1613    0.3431    0.9633 C   0  0  0  0  0  0  0  0  0  0  0  0
   -7.8344   -0.5622   -3.3494 H   0  0  0  0  0  0  0  0  0  0  0  0
   -6.2099   -0.8325   -2.6433 H   0  0  0  0  0  0  0  0  0  0  0  0
   -6.7569    0.8423   -3.2191 H   0  0  0  0  0  0  0  0  0  0  0  0
   -9.6580    0.0399   -2.1643 H   0  0  0  0  0  0  0  0  0  0  0  0
  -10.7241    0.5447   -0.0011 H   0  0  0  0  0  0  0  0  0  0  0  0
   -9.3520    1.0209    1.9403 H   0  0  0  0  0  0  0  0  0  0  0  0
   -5.8248    1.7748    1.8697 H   0  0  0  0  0  0  0  0  0  0  0  0
   -7.3786    1.8361    2.6995 H   0  0  0  0  0  0  0  0  0  0  0  0
   -6.5172    0.3060    2.7849 H   0  0  0  0  0  0  0  0  0  0  0  0
   -4.7146   -0.2340    1.3761 H   0  0  0  0  0  0  0  0  0  0  0  0
   -2.6651    0.3661    2.3499 H   0  0  0  0  0  0  0  0  0  0  0  0
   -0.2105    0.3750    2.1844 H   0  0  0  0  0  0  0  0  0  0  0  0
   -0.5448   -0.0247   -2.0327 H   0  0  0  0  0  0  0  0  0  0  0  0
   -2.9662   -0.0546   -1.8570 H   0  0  0  0  0  0  0  0  0  0  0  0
    1.2828   -0.9063   -1.8504 H   0  0  0  0  0  0  0  0  0  0  0  0
    1.6198    0.8836   -2.0820 H   0  0  0  0  0  0  0  0  0  0  0  0
    3.8759    0.5002   -1.0127 H   0  0  0  0  0  0  0  0  0  0  0  0
    3.5712   -0.7216   -2.3274 H   0  0  0  0  0  0  0  0  0  0  0  0
    2.4926   -2.1796   -0.5806 H   0  0  0  0  0  0  0  0  0  0  0  0
    4.4705   -3.1151    0.3716 H   0  0  0  0  0  0  0  0  0  0  0  0
    4.6805   -2.7973   -1.3466 H   0  0  0  0  0  0  0  0  0  0  0  0
    6.0525   -0.9969   -2.2157 H   0  0  0  0  0  0  0  0  0  0  0  0
    8.1378    0.2084   -1.8661 H   0  0  0  0  0  0  0  0  0  0  0  0
    8.0482   -0.6487    2.2919 H   0  0  0  0  0  0  0  0  0  0  0  0
    5.9522   -1.8747    1.9964 H   0  0  0  0  0  0  0  0  0  0  0  0
    2.3640   -1.6595    1.6539 H   0  0  0  0  0  0  0  0  0  0  0  0
    3.8844   -0.7513    1.6272 H   0  0  0  0  0  0  0  0  0  0  0  0
    1.7231    0.4838    1.9547 H   0  0  0  0  0  0  0  0  0  0  0  0
    2.8459    1.2007    0.6985 H   0  0  0  0  0  0  0  0  0  0  0  0
  1  2  1  0
  2  3  2  0
  3  4  1  0
  4  5  2  0
  5  6  1  0
  6  7  1  0
  6  8  2  0
  8  9  1  0
  9 10  2  0
  9 11  1  0
 11 12  1  0
 12 13  2  0
 13 14  1  0
 14 15  2  0
 15 16  1  0
 16 17  2  0
 15 18  1  0
 18 19  1  0
 19 20  1  0
 20 21  1  0
 21 22  1  0
 22 23  1  0
 23 24  2  0
 24 25  1  0
 25 26  2  0
 26 27  1  0
 27 28  1  0
 28 29  1  0
 28 30  1  0
 28 31  1  0
 26 32  1  0
 32 33  2  0
 21 34  1  0
 34 35  1  0
  8  2  1  0
 17 12  1  0
 35 18  1  0
 33 23  1  0
  1 36  1  0
  1 37  1  0
  1 38  1  0
  3 39  1  0
  4 40  1  0
  5 41  1  0
  7 42  1  0
  7 43  1  0
  7 44  1  0
 11 45  1  0
 13 46  1  0
 14 47  1  0
 16 48  1  0
 17 49  1  0
 19 50  1  0
 19 51  1  0
 20 52  1  0
 20 53  1  0
 21 54  1  0
 22 55  1  0
 22 56  1  0
 24 57  1  0
 25 58  1  0
 32 59  1  0
 33 60  1  0
 34 61  1  0
 34 62  1  0
 35 63  1  0
 35 64  1  0
M  END
$$$$
[H]OC([H])(C([H])([H])N1C(=O)C([H])([H])Oc2c([H])c([H])c([H])c([H])c21)C([H])([H])n1nc(-c2c([H])c([H])c(C(F)(F)F)c([H])c2[H])c2c1C([H])([H])C([H])([H])N(S(=O)(=O)C([H])([H])[H])C2([H])[H]
     RDKit          3D

 63 67  0  0  0  0  0  0  0  0999 V2000
   -5.5756   -2.9004    2.4635 C   0  0  0  0  0  0  0  0  0  0  0  0
   -4.8634   -3.4479    0.9372 S   0  0  0  0  0  0  0  0  0  0  0  0
   -5.9242   -3.2663   -0.1416 O   0  0  0  0  0  0  0  0  0  0  0  0
   -4.6200   -4.9555    0.9808 O   0  0  0  0  0  0  0  0  0  0  0  0
   -3.4754   -2.6364    0.4721 N   0  0  0  0  0  0  0  0  0  0  0  0
   -2.2923   -3.4101    0.5919 C   0  0  0  0  0  0  0  0  0  0  0  0
   -1.0536   -2.6223    1.0508 C   0  0  0  0  0  0  0  0  0  0  0  0
   -0.9850   -1.4100    0.2167 C   0  0  0  0  0  0  0  0  0  0  0  0
   -2.1484   -0.6874    0.1169 C   0  0  0  0  0  0  0  0  0  0  0  0
   -3.3653   -1.2427    0.8373 C   0  0  0  0  0  0  0  0  0  0  0  0
   -1.8545    0.3619   -0.6921 C   0  0  0  0  0  0  0  0  0  0  0  0
   -0.5515    0.2473   -1.0518 N   0  0  0  0  0  0  0  0  0  0  0  0
   -0.0018   -0.8484   -0.4959 N   0  0  0  0  0  0  0  0  0  0  0  0
    1.3613   -1.3207   -0.6342 C   0  0  0  0  0  0  0  0  0  0  0  0
    2.4423   -0.6501    0.0978 C   0  0  0  0  0  0  0  0  0  0  0  0
    2.4343   -0.5031    1.4164 O   0  0  0  0  0  0  0  0  0  0  0  0
    3.2000    0.3587   -0.7826 C   0  0  0  0  0  0  0  0  0  0  0  0
    4.5829    0.2701   -0.5236 N   0  0  0  0  0  0  0  0  0  0  0  0
    5.2762   -0.7607   -1.2887 C   0  0  0  0  0  0  0  0  0  0  0  0
    4.8649   -1.1534   -2.4094 O   0  0  0  0  0  0  0  0  0  0  0  0
    6.5104   -1.3728   -0.7166 C   0  0  0  0  0  0  0  0  0  0  0  0
    7.3494   -0.2422   -0.4029 O   0  0  0  0  0  0  0  0  0  0  0  0
    6.7657    0.7878    0.3726 C   0  0  0  0  0  0  0  0  0  0  0  0
    7.5555    1.5706    1.2057 C   0  0  0  0  0  0  0  0  0  0  0  0
    7.0021    2.5867    1.9612 C   0  0  0  0  0  0  0  0  0  0  0  0
    5.6370    2.8322    1.8828 C   0  0  0  0  0  0  0  0  0  0  0  0
    4.8508    2.0444    1.0516 C   0  0  0  0  0  0  0  0  0  0  0  0
    5.4135    1.0231    0.3024 C   0  0  0  0  0  0  0  0  0  0  0  0
   -2.8033    1.4186   -1.0527 C   0  0  0  0  0  0  0  0  0  0  0  0
   -2.8082    1.8975   -2.3688 C   0  0  0  0  0  0  0  0  0  0  0  0
   -3.6999    2.8555   -2.7755 C   0  0  0  0  0  0  0  0  0  0  0  0
   -4.6230    3.3778   -1.8830 C   0  0  0  0  0  0  0  0  0  0  0  0
   -4.6131    2.9025   -0.5820 C   0  0  0  0  0  0  0  0  0  0  0  0
   -3.7041    1.9269   -0.1787 C   0  0  0  0  0  0  0  0  0  0  0  0
   -5.5768    4.4041   -2.3512 C   0  0  0  0  0  0  0  0  0  0  0  0
   -6.8884    3.9602   -2.3264 F   0  0  0  0  0  0  0  0  0  0  0  0
   -5.2486    4.7314   -3.6678 F   0  0  0  0  0  0  0  0  0  0  0  0
   -5.4398    5.5497   -1.5886 F   0  0  0  0  0  0  0  0  0  0  0  0
   -6.6396   -3.2191    2.5640 H   0  0  0  0  0  0  0  0  0  0  0  0
   -5.0097   -3.4201    3.2664 H   0  0  0  0  0  0  0  0  0  0  0  0
   -5.4545   -1.8149    2.6180 H   0  0  0  0  0  0  0  0  0  0  0  0
   -2.4850   -4.2857    1.2407 H   0  0  0  0  0  0  0  0  0  0  0  0
   -2.0164   -3.8064   -0.4332 H   0  0  0  0  0  0  0  0  0  0  0  0
   -1.1938   -2.2671    2.0988 H   0  0  0  0  0  0  0  0  0  0  0  0
   -0.1984   -3.2866    0.9313 H   0  0  0  0  0  0  0  0  0  0  0  0
   -4.2348   -0.7201    0.4205 H   0  0  0  0  0  0  0  0  0  0  0  0
   -3.2811   -1.0634    1.9141 H   0  0  0  0  0  0  0  0  0  0  0  0
    1.6352   -1.2655   -1.7508 H   0  0  0  0  0  0  0  0  0  0  0  0
    1.3757   -2.4547   -0.4924 H   0  0  0  0  0  0  0  0  0  0  0  0
    3.2777   -1.5782    0.0421 H   0  0  0  0  0  0  0  0  0  0  0  0
    1.7069    0.0229    1.8331 H   0  0  0  0  0  0  0  0  0  0  0  0
    2.7148    1.3278   -0.6418 H   0  0  0  0  0  0  0  0  0  0  0  0
    2.9894    0.0728   -1.8201 H   0  0  0  0  0  0  0  0  0  0  0  0
    7.0210   -1.9728   -1.4500 H   0  0  0  0  0  0  0  0  0  0  0  0
    6.2387   -1.9313    0.2011 H   0  0  0  0  0  0  0  0  0  0  0  0
    8.6236    1.3617    1.2494 H   0  0  0  0  0  0  0  0  0  0  0  0
    7.6375    3.2044    2.6177 H   0  0  0  0  0  0  0  0  0  0  0  0
    5.1986    3.6222    2.4698 H   0  0  0  0  0  0  0  0  0  0  0  0
    3.8188    2.2008    0.9663 H   0  0  0  0  0  0  0  0  0  0  0  0
   -2.0922    1.4990   -3.0643 H   0  0  0  0  0  0  0  0  0  0  0  0
   -3.6925    3.2110   -3.8026 H   0  0  0  0  0  0  0  0  0  0  0  0
   -5.3266    3.2947    0.1255 H   0  0  0  0  0  0  0  0  0  0  0  0
   -3.7440    1.5922    0.8530 H   0  0  0  0  0  0  0  0  0  0  0  0
  1  2  1  0
  2  3  2  0
  2  4  2  0
  2  5  1  0
  5  6  1  0
  6  7  1  0
  7  8  1  0
  8  9  2  0
  9 10  1  0
  9 11  1  0
 11 12  2  0
 12 13  1  0
 13 14  1  0
 14 15  1  0
 15 16  1  0
 15 17  1  0
 17 18  1  0
 18 19  1  0
 19 20  2  0
 19 21  1  0
 21 22  1  0
 22 23  1  0
 23 24  2  0
 24 25  1  0
 25 26  2  0
 26 27  1  0
 27 28  2  0
 11 29  1  0
 29 30  2  0
 30 31  1  0
 31 32  2  0
 32 33  1  0
 33 34  2  0
 32 35  1  0
 35 36  1  0
 35 37  1  0
 35 38  1  0
 10  5  1  0
 28 18  1  0
 34 29  1  0
 13  8  1  0
 28 23  1  0
  1 39  1  0
  1 40  1  0
  1 41  1  0
  6 42  1  0
  6 43  1  0
  7 44  1  0
  7 45  1  0
 10 46  1  0
 10 47  1  0
 14 48  1  0
 14 49  1  0
 15 50  1  0
 16 51  1  0
 17 52  1  0
 17 53  1  0
 21 54  1  0
 21 55  1  0
 24 56  1  0
 25 57  1  0
 26 58  1  0
 27 59  1  0
 30 60  1  0
 31 61  1  0
 33 62  1  0
 34 63  1  0
M  END
$$$$
[H]c1nc2c([H])c([H])c(-c3c([H])c([H])c(C([H])([H])N4C([H])([H])C([H])([H])C([H])([H])C4([H])[H])c([H])c3[H])nn2c1-c1c(C([H])([H])[H])nn(C([H])([H])[H])c1[H]
     RDKit          3D

 52 56  0  0  0  0  0  0  0  0999 V2000
   -7.2772    0.2245    0.0276 C   0  0  0  0  0  0  0  0  0  0  0  0
   -5.9670    0.0631   -0.6512 C   0  0  0  0  0  0  0  0  0  0  0  0
   -5.8115   -0.3429   -1.9450 N   0  0  0  0  0  0  0  0  0  0  0  0
   -4.5534   -0.3958   -2.2763 N   0  0  0  0  0  0  0  0  0  0  0  0
   -3.9687   -0.7801   -3.5584 C   0  0  0  0  0  0  0  0  0  0  0  0
   -3.8560   -0.0119   -1.1638 C   0  0  0  0  0  0  0  0  0  0  0  0
   -4.7178    0.2814   -0.1307 C   0  0  0  0  0  0  0  0  0  0  0  0
   -4.3569    0.7299    1.2272 C   0  0  0  0  0  0  0  0  0  0  0  0
   -5.2009    1.0237    2.2573 C   0  0  0  0  0  0  0  0  0  0  0  0
   -4.4039    1.3913    3.3056 N   0  0  0  0  0  0  0  0  0  0  0  0
   -3.1236    1.3201    2.9165 C   0  0  0  0  0  0  0  0  0  0  0  0
   -1.9217    1.5821    3.5814 C   0  0  0  0  0  0  0  0  0  0  0  0
   -0.7602    1.4088    2.8876 C   0  0  0  0  0  0  0  0  0  0  0  0
   -0.7151    0.9926    1.5777 C   0  0  0  0  0  0  0  0  0  0  0  0
   -1.9090    0.7614    1.0079 N   0  0  0  0  0  0  0  0  0  0  0  0
   -3.0635    0.9135    1.6346 N   0  0  0  0  0  0  0  0  0  0  0  0
    0.5408    0.8058    0.8292 C   0  0  0  0  0  0  0  0  0  0  0  0
    1.7805    1.0315    1.3752 C   0  0  0  0  0  0  0  0  0  0  0  0
    2.9476    0.8390    0.6209 C   0  0  0  0  0  0  0  0  0  0  0  0
    2.9148    0.4190   -0.6905 C   0  0  0  0  0  0  0  0  0  0  0  0
    4.1288    0.2090   -1.5066 C   0  0  0  0  0  0  0  0  0  0  0  0
    4.4986   -1.1460   -1.7308 N   0  0  0  0  0  0  0  0  0  0  0  0
    4.7650   -1.8091   -0.4980 C   0  0  0  0  0  0  0  0  0  0  0  0
    6.2318   -1.6109   -0.1912 C   0  0  0  0  0  0  0  0  0  0  0  0
    6.8529   -1.3264   -1.5175 C   0  0  0  0  0  0  0  0  0  0  0  0
    5.7347   -1.1441   -2.4900 C   0  0  0  0  0  0  0  0  0  0  0  0
    1.6643    0.1945   -1.2311 C   0  0  0  0  0  0  0  0  0  0  0  0
    0.5187    0.3846   -0.4872 C   0  0  0  0  0  0  0  0  0  0  0  0
   -7.3995   -0.4737    0.8715 H   0  0  0  0  0  0  0  0  0  0  0  0
   -8.0771   -0.0867   -0.7022 H   0  0  0  0  0  0  0  0  0  0  0  0
   -7.4838    1.2776    0.3198 H   0  0  0  0  0  0  0  0  0  0  0  0
   -4.0179   -1.8991   -3.6569 H   0  0  0  0  0  0  0  0  0  0  0  0
   -4.4873   -0.2795   -4.3841 H   0  0  0  0  0  0  0  0  0  0  0  0
   -2.9072   -0.5179   -3.5735 H   0  0  0  0  0  0  0  0  0  0  0  0
   -2.7977    0.0345   -1.1576 H   0  0  0  0  0  0  0  0  0  0  0  0
   -6.2906    0.9928    2.3016 H   0  0  0  0  0  0  0  0  0  0  0  0
   -1.9945    1.9039    4.5993 H   0  0  0  0  0  0  0  0  0  0  0  0
    0.1750    1.6167    3.4175 H   0  0  0  0  0  0  0  0  0  0  0  0
    1.8562    1.3647    2.4090 H   0  0  0  0  0  0  0  0  0  0  0  0
    3.9256    1.0242    1.0741 H   0  0  0  0  0  0  0  0  0  0  0  0
    3.9466    0.6829   -2.4947 H   0  0  0  0  0  0  0  0  0  0  0  0
    5.0125    0.7595   -1.0846 H   0  0  0  0  0  0  0  0  0  0  0  0
    4.6225   -2.9285   -0.5732 H   0  0  0  0  0  0  0  0  0  0  0  0
    4.1172   -1.5119    0.3440 H   0  0  0  0  0  0  0  0  0  0  0  0
    6.3498   -0.7268    0.4671 H   0  0  0  0  0  0  0  0  0  0  0  0
    6.6941   -2.5188    0.2438 H   0  0  0  0  0  0  0  0  0  0  0  0
    7.5083   -2.1818   -1.8496 H   0  0  0  0  0  0  0  0  0  0  0  0
    7.5308   -0.4418   -1.4580 H   0  0  0  0  0  0  0  0  0  0  0  0
    5.8972   -0.2055   -3.0443 H   0  0  0  0  0  0  0  0  0  0  0  0
    5.6682   -1.9591   -3.2490 H   0  0  0  0  0  0  0  0  0  0  0  0
    1.6310   -0.1387   -2.2706 H   0  0  0  0  0  0  0  0  0  0  0  0
   -0.4515    0.2045   -0.9253 H   0  0  0  0  0  0  0  0  0  0  0  0
  1  2  1  0
  2  3  2  0
  3  4  1  0
  4  5  1  0
  4  6  1  0
  6  7  2  0
  7  8  1  0
  8  9  2  0
  9 10  1  0
 10 11  2  0
 11 12  1  0
 12 13  2  0
 13 14  1  0
 14 15  2  0
 15 16  1  0
 14 17  1  0
 17 18  2  0
 18 19  1  0
 19 20  2  0
 20 21  1  0
 21 22  1  0
 22 23  1  0
 23 24  1  0
 24 25  1  0
 25 26  1  0
 20 27  1  0
 27 28  2  0
  7  2  1  0
 16  8  1  0
 28 17  1  0
 16 11  1  0
 26 22  1  0
  1 29  1  0
  1 30  1  0
  1 31  1  0
  5 32  1  0
  5 33  1  0
  5 34  1  0
  6 35  1  0
  9 36  1  0
 12 37  1  0
 13 38  1  0
 18 39  1  0
 19 40  1  0
 21 41  1  0
 21 42  1  0
 23 43  1  0
 23 44  1  0
 24 45  1  0
 24 46  1  0
 25 47  1  0
 25 48  1  0
 26 49  1  0
 26 50  1  0
 27 51  1  0
 28 52  1  0
M  END
$$$$
[H]c1c([H])c([H])c(C([H])([H])C([H])([H])N([H])S(=O)(=O)c2c([H])c([H])c3c([H])c([H])c([H])c([H])c3c2[H])c(-c2c([H])c([H])c(F)c([H])c2OC([H])([H])[H])c1[H]
     RDKit          3D

 53 56  0  0  0  0  0  0  0  0999 V2000
   -3.0179    0.8173    2.9459 C   0  0  0  0  0  0  0  0  0  0  0  0
   -2.8237    0.0140    1.8113 O   0  0  0  0  0  0  0  0  0  0  0  0
   -3.6479    0.1737    0.7182 C   0  0  0  0  0  0  0  0  0  0  0  0
   -4.6630    1.0932    0.6902 C   0  0  0  0  0  0  0  0  0  0  0  0
   -5.4721    1.2330   -0.4166 C   0  0  0  0  0  0  0  0  0  0  0  0
   -6.4742    2.1511   -0.4285 F   0  0  0  0  0  0  0  0  0  0  0  0
   -5.2237    0.4136   -1.4943 C   0  0  0  0  0  0  0  0  0  0  0  0
   -4.1933   -0.5398   -1.5005 C   0  0  0  0  0  0  0  0  0  0  0  0
   -3.4090   -0.6521   -0.3888 C   0  0  0  0  0  0  0  0  0  0  0  0
   -2.3593   -1.6370   -0.2811 C   0  0  0  0  0  0  0  0  0  0  0  0
   -2.5237   -2.5064    0.8229 C   0  0  0  0  0  0  0  0  0  0  0  0
   -1.6708   -3.5640    1.0528 C   0  0  0  0  0  0  0  0  0  0  0  0
   -0.6211   -3.7880    0.1827 C   0  0  0  0  0  0  0  0  0  0  0  0
   -0.4495   -2.9557   -0.8865 C   0  0  0  0  0  0  0  0  0  0  0  0
   -1.3256   -1.8558   -1.1341 C   0  0  0  0  0  0  0  0  0  0  0  0
   -1.0077   -0.9761   -2.2535 C   0  0  0  0  0  0  0  0  0  0  0  0
   -0.1196    0.1840   -2.0072 C   0  0  0  0  0  0  0  0  0  0  0  0
   -0.5389    1.1142   -1.0266 N   0  0  0  0  0  0  0  0  0  0  0  0
    0.5758    2.4336   -0.8551 S   0  0  0  0  0  0  0  0  0  0  0  0
    0.0303    3.4018    0.1614 O   0  0  0  0  0  0  0  0  0  0  0  0
    0.7096    3.1899   -2.1488 O   0  0  0  0  0  0  0  0  0  0  0  0
    2.1065    1.7843   -0.3414 C   0  0  0  0  0  0  0  0  0  0  0  0
    2.3583    1.5942    0.9987 C   0  0  0  0  0  0  0  0  0  0  0  0
    3.5573    1.0969    1.4870 C   0  0  0  0  0  0  0  0  0  0  0  0
    4.5569    0.7742    0.5749 C   0  0  0  0  0  0  0  0  0  0  0  0
    5.7870    0.2767    0.9994 C   0  0  0  0  0  0  0  0  0  0  0  0
    6.7914   -0.0431    0.1210 C   0  0  0  0  0  0  0  0  0  0  0  0
    6.5579    0.1404   -1.2229 C   0  0  0  0  0  0  0  0  0  0  0  0
    5.3567    0.6283   -1.6737 C   0  0  0  0  0  0  0  0  0  0  0  0
    4.3485    0.9483   -0.7755 C   0  0  0  0  0  0  0  0  0  0  0  0
    3.1227    1.4520   -1.2173 C   0  0  0  0  0  0  0  0  0  0  0  0
   -3.9397    0.5042    3.4638 H   0  0  0  0  0  0  0  0  0  0  0  0
   -3.0904    1.8883    2.6254 H   0  0  0  0  0  0  0  0  0  0  0  0
   -2.1867    0.7015    3.6861 H   0  0  0  0  0  0  0  0  0  0  0  0
   -4.8567    1.7440    1.5528 H   0  0  0  0  0  0  0  0  0  0  0  0
   -5.8361    0.4970   -2.3746 H   0  0  0  0  0  0  0  0  0  0  0  0
   -4.0776   -1.1636   -2.3821 H   0  0  0  0  0  0  0  0  0  0  0  0
   -3.3265   -2.3719    1.5269 H   0  0  0  0  0  0  0  0  0  0  0  0
   -1.7833   -4.2380    1.8924 H   0  0  0  0  0  0  0  0  0  0  0  0
    0.0458   -4.6112    0.3562 H   0  0  0  0  0  0  0  0  0  0  0  0
    0.3619   -3.1029   -1.5876 H   0  0  0  0  0  0  0  0  0  0  0  0
   -1.9180   -0.5969   -2.7439 H   0  0  0  0  0  0  0  0  0  0  0  0
   -0.5200   -1.5928   -3.0999 H   0  0  0  0  0  0  0  0  0  0  0  0
    0.9242   -0.1471   -1.7087 H   0  0  0  0  0  0  0  0  0  0  0  0
    0.0709    0.6653   -3.0113 H   0  0  0  0  0  0  0  0  0  0  0  0
   -0.6746    0.6614   -0.0756 H   0  0  0  0  0  0  0  0  0  0  0  0
    1.5844    1.8441    1.7382 H   0  0  0  0  0  0  0  0  0  0  0  0
    3.7268    0.9597    2.5370 H   0  0  0  0  0  0  0  0  0  0  0  0
    5.9553    0.1362    2.0730 H   0  0  0  0  0  0  0  0  0  0  0  0
    7.7511   -0.4296    0.4287 H   0  0  0  0  0  0  0  0  0  0  0  0
    7.3400   -0.1061   -1.9279 H   0  0  0  0  0  0  0  0  0  0  0  0
    5.1557    0.7805   -2.7304 H   0  0  0  0  0  0  0  0  0  0  0  0
    2.9753    1.5814   -2.2823 H   0  0  0  0  0  0  0  0  0  0  0  0
  1  2  1  0
  2  3  1  0
  3  4  2  0
  4  5  1  0
  5  6  1  0
  5  7  2  0
  7  8  1  0
  8  9  2  0
  9 10  1  0
 10 11  2  0
 11 12  1  0
 12 13  2  0
 13 14  1  0
 14 15  2  0
 15 16  1  0
 16 17  1  0
 17 18  1  0
 18 19  1  0
 19 20  2  0
 19 21  2  0
 19 22  1  0
 22 23  2  0
 23 24  1  0
 24 25  2  0
 25 26  1  0
 26 27  2  0
 27 28  1  0
 28 29  2  0
 29 30  1  0
 30 31  2  0
  9  3  1  0
 15 10  1  0
 31 22  1  0
 30 25  1  0
  1 32  1  0
  1 33  1  0
  1 34  1  0
  4 35  1  0
  7 36  1  0
  8 37  1  0
 11 38  1  0
 12 39  1  0
 13 40  1  0
 14 41  1  0
 16 42  1  0
 16 43  1  0
 17 44  1  0
 17 45  1  0
 18 46  1  0
 23 47  1  0
 24 48  1  0
 26 49  1  0
 27 50  1  0
 28 51  1  0
 29 52  1  0
 31 53  1  0
M  END
$$$$
[H]c1c([H])c([H])c([C@@]([H])(C(=O)N([H])C([H])([H])C2([H])C([H])([H])C([H])([H])N(C([H])([H])[H])C([H])([H])C2([H])[H])N([H])c2c([H])c(-c3c([H])c([H])c4nc(C([H])([H])[H])n(C([H])([H])c5c([H])c([H])c(F)c([H])c5F)c4c3[H])c([H])c(C([H])([H])[H])c2[H])c([H])c1[H]
     RDKit          3D

 84 89  0  0  0  0  0  0  0  0999 V2000
    9.1636    3.2323    0.9379 C   0  0  0  0  0  0  0  0  0  0  0  0
    7.6741    3.0081    0.8222 C   0  0  0  0  0  0  0  0  0  0  0  0
    6.7236    3.7143    1.4577 N   0  0  0  0  0  0  0  0  0  0  0  0
    5.4928    3.2421    1.1266 C   0  0  0  0  0  0  0  0  0  0  0  0
    4.2048    3.5864    1.4766 C   0  0  0  0  0  0  0  0  0  0  0  0
    3.1216    2.8803    0.9434 C   0  0  0  0  0  0  0  0  0  0  0  0
    3.3066    1.8365    0.0664 C   0  0  0  0  0  0  0  0  0  0  0  0
    4.5997    1.5064   -0.2726 C   0  0  0  0  0  0  0  0  0  0  0  0
    5.6998    2.1976    0.2477 C   0  0  0  0  0  0  0  0  0  0  0  0
    7.0390    2.0853    0.0863 N   0  0  0  0  0  0  0  0  0  0  0  0
    7.6557    1.1298   -0.7851 C   0  0  0  0  0  0  0  0  0  0  0  0
    8.0475   -0.1572   -0.2234 C   0  0  0  0  0  0  0  0  0  0  0  0
    8.6876   -1.0308   -1.1146 C   0  0  0  0  0  0  0  0  0  0  0  0
    9.1117   -2.2669   -0.7414 C   0  0  0  0  0  0  0  0  0  0  0  0
    8.9128   -2.6973    0.5646 C   0  0  0  0  0  0  0  0  0  0  0  0
    9.3457   -3.9320    0.9029 F   0  0  0  0  0  0  0  0  0  0  0  0
    8.2798   -1.8295    1.4407 C   0  0  0  0  0  0  0  0  0  0  0  0
    7.8579   -0.5915    1.0572 C   0  0  0  0  0  0  0  0  0  0  0  0
    7.2549    0.1756    1.9830 F   0  0  0  0  0  0  0  0  0  0  0  0
    2.1327    1.1177   -0.4787 C   0  0  0  0  0  0  0  0  0  0  0  0
    2.1424    0.5493   -1.7380 C   0  0  0  0  0  0  0  0  0  0  0  0
    1.0648   -0.1169   -2.2757 C   0  0  0  0  0  0  0  0  0  0  0  0
    1.0928   -0.7324   -3.6372 C   0  0  0  0  0  0  0  0  0  0  0  0
   -0.0916   -0.2083   -1.4811 C   0  0  0  0  0  0  0  0  0  0  0  0
   -0.1633    0.3342   -0.2238 C   0  0  0  0  0  0  0  0  0  0  0  0
   -1.3133    0.2401    0.5662 N   0  0  0  0  0  0  0  0  0  0  0  0
   -2.5449   -0.4159    0.2511 C   0  0  2  0  0  0  0  0  0  0  0  0
   -3.5721   -0.2273    1.3087 C   0  0  0  0  0  0  0  0  0  0  0  0
   -3.2206   -0.1249    2.4955 O   0  0  0  0  0  0  0  0  0  0  0  0
   -4.9497   -0.1597    0.9753 N   0  0  0  0  0  0  0  0  0  0  0  0
   -5.9596    0.0209    1.9878 C   0  0  0  0  0  0  0  0  0  0  0  0
   -7.3032    0.0983    1.3445 C   0  0  0  0  0  0  0  0  0  0  0  0
   -7.7101   -1.1028    0.5524 C   0  0  0  0  0  0  0  0  0  0  0  0
   -8.4788   -0.7432   -0.6973 C   0  0  0  0  0  0  0  0  0  0  0  0
   -9.3970    0.3412   -0.5197 N   0  0  0  0  0  0  0  0  0  0  0  0
   -9.8501    0.7519   -1.8439 C   0  0  0  0  0  0  0  0  0  0  0  0
   -8.8665    1.4981    0.1384 C   0  0  0  0  0  0  0  0  0  0  0  0
   -7.3800    1.3209    0.4153 C   0  0  0  0  0  0  0  0  0  0  0  0
   -2.3604   -1.8910   -0.0147 C   0  0  0  0  0  0  0  0  0  0  0  0
   -3.1369   -2.5896   -0.9181 C   0  0  0  0  0  0  0  0  0  0  0  0
   -2.9461   -3.9348   -1.1633 C   0  0  0  0  0  0  0  0  0  0  0  0
   -1.9585   -4.6181   -0.4990 C   0  0  0  0  0  0  0  0  0  0  0  0
   -1.1706   -3.9483    0.4056 C   0  0  0  0  0  0  0  0  0  0  0  0
   -1.3781   -2.6040    0.6366 C   0  0  0  0  0  0  0  0  0  0  0  0
    0.9770    0.9998    0.2585 C   0  0  0  0  0  0  0  0  0  0  0  0
    9.5528    2.7932    1.8665 H   0  0  0  0  0  0  0  0  0  0  0  0
    9.2949    4.3376    1.0062 H   0  0  0  0  0  0  0  0  0  0  0  0
    9.6945    2.9015    0.0234 H   0  0  0  0  0  0  0  0  0  0  0  0
    4.0310    4.4112    2.1699 H   0  0  0  0  0  0  0  0  0  0  0  0
    2.1283    3.1619    1.2270 H   0  0  0  0  0  0  0  0  0  0  0  0
    4.7554    0.6892   -0.9590 H   0  0  0  0  0  0  0  0  0  0  0  0
    8.5610    1.5801   -1.2629 H   0  0  0  0  0  0  0  0  0  0  0  0
    6.9767    0.9176   -1.6524 H   0  0  0  0  0  0  0  0  0  0  0  0
    8.8633   -0.7207   -2.1586 H   0  0  0  0  0  0  0  0  0  0  0  0
    9.6035   -2.9058   -1.4711 H   0  0  0  0  0  0  0  0  0  0  0  0
    8.1502   -2.2209    2.4479 H   0  0  0  0  0  0  0  0  0  0  0  0
    3.0477    0.6427   -2.3107 H   0  0  0  0  0  0  0  0  0  0  0  0
    0.6150   -1.7295   -3.5374 H   0  0  0  0  0  0  0  0  0  0  0  0
    0.6898   -0.1018   -4.4250 H   0  0  0  0  0  0  0  0  0  0  0  0
    2.1703   -0.9462   -3.8988 H   0  0  0  0  0  0  0  0  0  0  0  0
   -0.9305   -0.7238   -1.9168 H   0  0  0  0  0  0  0  0  0  0  0  0
   -1.2838    0.7096    1.5222 H   0  0  0  0  0  0  0  0  0  0  0  0
   -2.9804   -0.0002   -0.6944 H   0  0  0  0  0  0  0  0  0  0  0  0
   -5.2448   -0.2438   -0.0416 H   0  0  0  0  0  0  0  0  0  0  0  0
   -5.9843   -0.8150    2.7188 H   0  0  0  0  0  0  0  0  0  0  0  0
   -5.7616    0.9800    2.5310 H   0  0  0  0  0  0  0  0  0  0  0  0
   -8.0738    0.2856    2.1398 H   0  0  0  0  0  0  0  0  0  0  0  0
   -8.4036   -1.7264    1.1965 H   0  0  0  0  0  0  0  0  0  0  0  0
   -6.8403   -1.7144    0.3040 H   0  0  0  0  0  0  0  0  0  0  0  0
   -7.8156   -0.5581   -1.5679 H   0  0  0  0  0  0  0  0  0  0  0  0
   -9.1004   -1.6527   -0.9496 H   0  0  0  0  0  0  0  0  0  0  0  0
  -10.0356   -0.1357   -2.4715 H   0  0  0  0  0  0  0  0  0  0  0  0
  -10.7508    1.4141   -1.7591 H   0  0  0  0  0  0  0  0  0  0  0  0
   -9.0126    1.3363   -2.3267 H   0  0  0  0  0  0  0  0  0  0  0  0
   -9.0758    2.4465   -0.4125 H   0  0  0  0  0  0  0  0  0  0  0  0
   -9.3412    1.5490    1.1622 H   0  0  0  0  0  0  0  0  0  0  0  0
   -6.8086    1.1610   -0.5104 H   0  0  0  0  0  0  0  0  0  0  0  0
   -6.9935    2.2019    0.9495 H   0  0  0  0  0  0  0  0  0  0  0  0
   -3.9023   -2.0244   -1.4234 H   0  0  0  0  0  0  0  0  0  0  0  0
   -3.5760   -4.4505   -1.8807 H   0  0  0  0  0  0  0  0  0  0  0  0
   -1.8245   -5.6747   -0.7053 H   0  0  0  0  0  0  0  0  0  0  0  0
   -0.3878   -4.4728    0.9360 H   0  0  0  0  0  0  0  0  0  0  0  0
   -0.7602   -2.0666    1.3484 H   0  0  0  0  0  0  0  0  0  0  0  0
    0.9168    1.4200    1.2360 H   0  0  0  0  0  0  0  0  0  0  0  0
  1  2  1  0
  2  3  2  0
  3  4  1  0
  4  5  2  0
  5  6  1  0
  6  7  2  0
  7  8  1  0
  8  9  2  0
  9 10  1  0
 10 11  1  0
 11 12  1  0
 12 13  2  0
 13 14  1  0
 14 15  2  0
 15 16  1  0
 15 17  1  0
 17 18  2  0
 18 19  1  0
  7 20  1  0
 20 21  2  0
 21 22  1  0
 22 23  1  0
 22 24  2  0
 24 25  1  0
 25 26  1  0
 26 27  1  0
 27 28  1  0
 28 29  2  0
 28 30  1  0
 30 31  1  0
 31 32  1  0
 32 33  1  0
 33 34  1  0
 34 35  1  0
 35 36  1  0
 35 37  1  0
 37 38  1  0
 27 39  1  0
 39 40  2  0
 40 41  1  0
 41 42  2  0
 42 43  1  0
 43 44  2  0
 25 45  2  0
 10  2  1  0
 18 12  1  0
 45 20  1  0
  9  4  1  0
 38 32  1  0
 44 39  1  0
  1 46  1  0
  1 47  1  0
  1 48  1  0
  5 49  1  0
  6 50  1  0
  8 51  1  0
 11 52  1  0
 11 53  1  0
 13 54  1  0
 14 55  1  0
 17 56  1  0
 21 57  1  0
 23 58  1  0
 23 59  1  0
 23 60  1  0
 24 61  1  0
 26 62  1  0
 27 63  1  6
 30 64  1  0
 31 65  1  0
 31 66  1  0
 32 67  1  0
 33 68  1  0
 33 69  1  0
 34 70  1  0
 34 71  1  0
 36 72  1  0
 36 73  1  0
 36 74  1  0
 37 75  1  0
 37 76  1  0
 38 77  1  0
 38 78  1  0
 40 79  1  0
 41 80  1  0
 42 81  1  0
 43 82  1  0
 44 83  1  0
 45 84  1  0
M  END
$$$$
[H]c1nc2c(-c3c([H])c([H])c([H])c4c([H])c([H])c([H])c([H])c34)c([H])nn2c([H])c1N([H])C(=O)c1c([H])c([H])c(OC2([H])C([H])([H])C([H])([H])N(C([H])([H])C([H])([H])N([H])C([H])([H])[H])C([H])([H])C2([H])[H])c([H])c1[H]
     RDKit          3D

 71 76  0  0  0  0  0  0  0  0999 V2000
   11.0669    0.9798    1.7610 C   0  0  0  0  0  0  0  0  0  0  0  0
   10.2882   -0.0803    2.3775 N   0  0  0  0  0  0  0  0  0  0  0  0
    8.9106   -0.0602    1.8781 C   0  0  0  0  0  0  0  0  0  0  0  0
    8.8698   -0.4524    0.4183 C   0  0  0  0  0  0  0  0  0  0  0  0
    7.5311   -0.4425   -0.1114 N   0  0  0  0  0  0  0  0  0  0  0  0
    6.9387    0.8345   -0.2035 C   0  0  0  0  0  0  0  0  0  0  0  0
    6.0527    1.1291   -1.3470 C   0  0  0  0  0  0  0  0  0  0  0  0
    5.5907   -0.0020   -2.1903 C   0  0  0  0  0  0  0  0  0  0  0  0
    5.9197   -1.3581   -1.5821 C   0  0  0  0  0  0  0  0  0  0  0  0
    7.4269   -1.2863   -1.2757 C   0  0  0  0  0  0  0  0  0  0  0  0
    4.3291    0.1012   -2.7346 O   0  0  0  0  0  0  0  0  0  0  0  0
    3.0839   -0.0015   -2.2598 C   0  0  0  0  0  0  0  0  0  0  0  0
    2.0072    0.1065   -3.1159 C   0  0  0  0  0  0  0  0  0  0  0  0
    0.6921    0.0017   -2.6552 C   0  0  0  0  0  0  0  0  0  0  0  0
    0.4396   -0.2109   -1.3345 C   0  0  0  0  0  0  0  0  0  0  0  0
    1.5009   -0.3176   -0.4811 C   0  0  0  0  0  0  0  0  0  0  0  0
    2.8036   -0.2142   -0.9367 C   0  0  0  0  0  0  0  0  0  0  0  0
   -0.9288   -0.3442   -0.7784 C   0  0  0  0  0  0  0  0  0  0  0  0
   -1.0141   -0.9348    0.3127 O   0  0  0  0  0  0  0  0  0  0  0  0
   -2.0280    0.1623   -1.4483 N   0  0  0  0  0  0  0  0  0  0  0  0
   -3.3843    0.0931   -1.0333 C   0  0  0  0  0  0  0  0  0  0  0  0
   -3.8316   -0.4753    0.1307 C   0  0  0  0  0  0  0  0  0  0  0  0
   -5.1603   -0.5234    0.4501 N   0  0  0  0  0  0  0  0  0  0  0  0
   -6.0805   -0.0096   -0.3740 C   0  0  0  0  0  0  0  0  0  0  0  0
   -7.4685    0.0487   -0.2684 C   0  0  0  0  0  0  0  0  0  0  0  0
   -7.8746    0.6782   -1.4089 C   0  0  0  0  0  0  0  0  0  0  0  0
   -6.7814    0.9662   -2.1331 N   0  0  0  0  0  0  0  0  0  0  0  0
   -5.6711    0.5559   -1.5227 N   0  0  0  0  0  0  0  0  0  0  0  0
   -4.3797    0.6223   -1.8702 C   0  0  0  0  0  0  0  0  0  0  0  0
   -8.2925   -0.5019    0.8044 C   0  0  0  0  0  0  0  0  0  0  0  0
   -8.0820   -1.8412    1.1681 C   0  0  0  0  0  0  0  0  0  0  0  0
   -8.8192   -2.4582    2.1334 C   0  0  0  0  0  0  0  0  0  0  0  0
   -9.8036   -1.7493    2.7766 C   0  0  0  0  0  0  0  0  0  0  0  0
  -10.0417   -0.4334    2.4506 C   0  0  0  0  0  0  0  0  0  0  0  0
  -11.0200    0.2656    3.1045 C   0  0  0  0  0  0  0  0  0  0  0  0
  -11.2921    1.5897    2.8220 C   0  0  0  0  0  0  0  0  0  0  0  0
  -10.5277    2.1899    1.8396 C   0  0  0  0  0  0  0  0  0  0  0  0
   -9.5364    1.5088    1.1653 C   0  0  0  0  0  0  0  0  0  0  0  0
   -9.2766    0.1898    1.4563 C   0  0  0  0  0  0  0  0  0  0  0  0
   10.3883    1.7394    1.2841 H   0  0  0  0  0  0  0  0  0  0  0  0
   11.7322    0.5659    0.9738 H   0  0  0  0  0  0  0  0  0  0  0  0
   11.6858    1.4647    2.5193 H   0  0  0  0  0  0  0  0  0  0  0  0
   10.2476    0.0408    3.4209 H   0  0  0  0  0  0  0  0  0  0  0  0
    8.3361   -0.7553    2.5083 H   0  0  0  0  0  0  0  0  0  0  0  0
    8.5833    1.0064    1.9719 H   0  0  0  0  0  0  0  0  0  0  0  0
    9.1967   -1.5323    0.3926 H   0  0  0  0  0  0  0  0  0  0  0  0
    9.5787    0.1737   -0.1565 H   0  0  0  0  0  0  0  0  0  0  0  0
    6.3839    0.9970    0.7751 H   0  0  0  0  0  0  0  0  0  0  0  0
    7.7090    1.6700   -0.1544 H   0  0  0  0  0  0  0  0  0  0  0  0
    5.1135    1.6244   -0.9432 H   0  0  0  0  0  0  0  0  0  0  0  0
    6.4896    1.9635   -1.9859 H   0  0  0  0  0  0  0  0  0  0  0  0
    6.2945    0.0166   -3.1086 H   0  0  0  0  0  0  0  0  0  0  0  0
    5.4120   -1.5882   -0.6558 H   0  0  0  0  0  0  0  0  0  0  0  0
    5.8110   -2.1456   -2.3628 H   0  0  0  0  0  0  0  0  0  0  0  0
    7.8282   -2.2765   -1.0591 H   0  0  0  0  0  0  0  0  0  0  0  0
    7.9066   -0.7943   -2.1395 H   0  0  0  0  0  0  0  0  0  0  0  0
    2.1053    0.2733   -4.1796 H   0  0  0  0  0  0  0  0  0  0  0  0
   -0.1424    0.0867   -3.3469 H   0  0  0  0  0  0  0  0  0  0  0  0
    1.3129   -0.4865    0.5791 H   0  0  0  0  0  0  0  0  0  0  0  0
    3.5696   -0.2958   -0.1790 H   0  0  0  0  0  0  0  0  0  0  0  0
   -1.8176    0.6593   -2.3793 H   0  0  0  0  0  0  0  0  0  0  0  0
   -3.1711   -0.9012    0.8374 H   0  0  0  0  0  0  0  0  0  0  0  0
   -8.8994    0.9174   -1.7029 H   0  0  0  0  0  0  0  0  0  0  0  0
   -4.0518    1.0730   -2.7882 H   0  0  0  0  0  0  0  0  0  0  0  0
   -7.3047   -2.3918    0.6574 H   0  0  0  0  0  0  0  0  0  0  0  0
   -8.6687   -3.4919    2.4264 H   0  0  0  0  0  0  0  0  0  0  0  0
  -10.4220   -2.1890    3.5513 H   0  0  0  0  0  0  0  0  0  0  0  0
  -11.6067   -0.2390    3.8776 H   0  0  0  0  0  0  0  0  0  0  0  0
  -12.0783    2.1128    3.3660 H   0  0  0  0  0  0  0  0  0  0  0  0
  -10.7102    3.2172    1.5940 H   0  0  0  0  0  0  0  0  0  0  0  0
   -8.9692    2.0252    0.4224 H   0  0  0  0  0  0  0  0  0  0  0  0
  1  2  1  0
  2  3  1  0
  3  4  1  0
  4  5  1  0
  5  6  1  0
  6  7  1  0
  7  8  1  0
  8  9  1  0
  9 10  1  0
  8 11  1  0
 11 12  1  0
 12 13  2  0
 13 14  1  0
 14 15  2  0
 15 16  1  0
 16 17  2  0
 15 18  1  0
 18 19  2  0
 18 20  1  0
 20 21  1  0
 21 22  1  0
 22 23  2  0
 23 24  1  0
 24 25  2  0
 25 26  1  0
 26 27  2  0
 27 28  1  0
 28 29  1  0
 25 30  1  0
 30 31  2  0
 31 32  1  0
 32 33  2  0
 33 34  1  0
 34 35  2  0
 35 36  1  0
 36 37  2  0
 37 38  1  0
 38 39  2  0
 10  5  1  0
 17 12  1  0
 29 21  2  0
 39 30  1  0
 28 24  1  0
 39 34  1  0
  1 40  1  0
  1 41  1  0
  1 42  1  0
  2 43  1  0
  3 44  1  0
  3 45  1  0
  4 46  1  0
  4 47  1  0
  6 48  1  0
  6 49  1  0
  7 50  1  0
  7 51  1  0
  8 52  1  0
  9 53  1  0
  9 54  1  0
 10 55  1  0
 10 56  1  0
 13 57  1  0
 14 58  1  0
 16 59  1  0
 17 60  1  0
 20 61  1  0
 22 62  1  0
 26 63  1  0
 29 64  1  0
 31 65  1  0
 32 66  1  0
 33 67  1  0
 35 68  1  0
 36 69  1  0
 37 70  1  0
 38 71  1  0
M  END
$$$$
[H]c1c([H])c(C([H])([H])N(c2c([H])c([H])c3c([H])c([H])c(=O)n(C(=O)[O-])c3c2[H])C([H])([H])[H])c([H])c([H])c1C([H])([H])[H]
     RDKit          3D

 41 43  0  0  0  0  0  0  0  0999 V2000
    0.8700   -1.4548    2.1491 C   0  0  0  0  0  0  0  0  0  0  0  0
    0.1947   -1.1960    0.8714 N   0  0  0  0  0  0  0  0  0  0  0  0
    0.8735   -1.6282   -0.3057 C   0  0  0  0  0  0  0  0  0  0  0  0
    2.2084   -0.9704   -0.4867 C   0  0  0  0  0  0  0  0  0  0  0  0
    3.3890   -1.5586   -0.1052 C   0  0  0  0  0  0  0  0  0  0  0  0
    4.6157   -0.9480   -0.2714 C   0  0  0  0  0  0  0  0  0  0  0  0
    4.6025    0.3084   -0.8514 C   0  0  0  0  0  0  0  0  0  0  0  0
    5.9073    1.0023   -1.0485 C   0  0  0  0  0  0  0  0  0  0  0  0
    3.4381    0.9241   -1.2441 C   0  0  0  0  0  0  0  0  0  0  0  0
    2.2196    0.2807   -1.0620 C   0  0  0  0  0  0  0  0  0  0  0  0
   -1.0681   -0.5401    0.9239 C   0  0  0  0  0  0  0  0  0  0  0  0
   -1.6154   -0.1784    2.1303 C   0  0  0  0  0  0  0  0  0  0  0  0
   -2.8250    0.4538    2.2307 C   0  0  0  0  0  0  0  0  0  0  0  0
   -3.5485    0.7536    1.0879 C   0  0  0  0  0  0  0  0  0  0  0  0
   -4.7700    1.3938    1.2152 C   0  0  0  0  0  0  0  0  0  0  0  0
   -5.4379    1.6643    0.0634 C   0  0  0  0  0  0  0  0  0  0  0  0
   -4.9359    1.3249   -1.1598 C   0  0  0  0  0  0  0  0  0  0  0  0
   -5.5695    1.5824   -2.2384 O   0  0  0  0  0  0  0  0  0  0  0  0
   -3.7195    0.6869   -1.2943 N   0  0  0  0  0  0  0  0  0  0  0  0
   -3.2594    0.3653   -2.5756 C   0  0  0  0  0  0  0  0  0  0  0  0
   -4.1006    0.7295   -3.6668 O   0  0  0  0  0  0  0  0  0  0  0  0
   -2.2225   -0.1923   -2.8995 O   0  0  0  0  0  0  0  0  0  0  0  0
   -3.0246    0.4017   -0.1546 C   0  0  0  0  0  0  0  0  0  0  0  0
   -1.8037   -0.2344   -0.2230 C   0  0  0  0  0  0  0  0  0  0  0  0
    1.7929   -2.0179    2.0430 H   0  0  0  0  0  0  0  0  0  0  0  0
    0.1025   -2.0246    2.7531 H   0  0  0  0  0  0  0  0  0  0  0  0
    1.0695   -0.4641    2.5868 H   0  0  0  0  0  0  0  0  0  0  0  0
    0.3097   -1.6161   -1.2358 H   0  0  0  0  0  0  0  0  0  0  0  0
    1.1314   -2.7179   -0.1238 H   0  0  0  0  0  0  0  0  0  0  0  0
    3.3871   -2.5391    0.3439 H   0  0  0  0  0  0  0  0  0  0  0  0
    5.5139   -1.4426    0.0406 H   0  0  0  0  0  0  0  0  0  0  0  0
    6.0916    1.7623   -0.2668 H   0  0  0  0  0  0  0  0  0  0  0  0
    5.9117    1.5001   -2.0229 H   0  0  0  0  0  0  0  0  0  0  0  0
    6.7394    0.2472   -1.0626 H   0  0  0  0  0  0  0  0  0  0  0  0
    3.4469    1.9174   -1.7008 H   0  0  0  0  0  0  0  0  0  0  0  0
    1.3247    0.7878   -1.3795 H   0  0  0  0  0  0  0  0  0  0  0  0
   -1.0812   -0.3943    3.0543 H   0  0  0  0  0  0  0  0  0  0  0  0
   -3.2582    0.7396    3.1771 H   0  0  0  0  0  0  0  0  0  0  0  0
   -5.1288    1.6439    2.2062 H   0  0  0  0  0  0  0  0  0  0  0  0
   -6.4039    2.1679    0.1232 H   0  0  0  0  0  0  0  0  0  0  0  0
   -1.3673   -0.5201   -1.1574 H   0  0  0  0  0  0  0  0  0  0  0  0
  1  2  1  0
  2  3  1  0
  3  4  1  0
  4  5  2  0
  5  6  1  0
  6  7  2  0
  7  8  1  0
  7  9  1  0
  9 10  2  0
  2 11  1  0
 11 12  2  0
 12 13  1  0
 13 14  2  0
 14 15  1  0
 15 16  2  0
 16 17  1  0
 17 18  2  0
 17 19  1  0
 19 20  1  0
 20 21  1  0
 20 22  2  0
 19 23  1  0
 23 24  2  0
 10  4  1  0
 24 11  1  0
 23 14  1  0
  1 25  1  0
  1 26  1  0
  1 27  1  0
  3 28  1  0
  3 29  1  0
  5 30  1  0
  6 31  1  0
  8 32  1  0
  8 33  1  0
  8 34  1  0
  9 35  1  0
 10 36  1  0
 12 37  1  0
 13 38  1  0
 15 39  1  0
 16 40  1  0
 24 41  1  0
M  CHG  1  21  -1
M  END
$$$$
[H]c1nc(N([H])C(=S)N([H])N([H])C(=O)c2c([H])c([H])c(F)c(S(=O)(=O)C([H])([H])[H])c2[H])c([H])c([H])c1[H]
     RDKit          3D

 37 38  0  0  0  0  0  0  0  0999 V2000
    6.1911    1.0446    0.2074 C   0  0  0  0  0  0  0  0  0  0  0  0
    5.7701   -0.6797    0.1756 S   0  0  0  0  0  0  0  0  0  0  0  0
    6.5044   -1.2974   -0.9945 O   0  0  0  0  0  0  0  0  0  0  0  0
    6.2621   -1.3454    1.4407 O   0  0  0  0  0  0  0  0  0  0  0  0
    4.0538   -0.9477   -0.0385 C   0  0  0  0  0  0  0  0  0  0  0  0
    3.2229    0.1520   -0.1243 C   0  0  0  0  0  0  0  0  0  0  0  0
    1.8417   -0.0129   -0.2960 C   0  0  0  0  0  0  0  0  0  0  0  0
    1.3874   -1.3107   -0.3700 C   0  0  0  0  0  0  0  0  0  0  0  0
    2.2296   -2.4075   -0.2820 C   0  0  0  0  0  0  0  0  0  0  0  0
    3.5846   -2.2370   -0.1137 C   0  0  0  0  0  0  0  0  0  0  0  0
    4.4660   -3.2499   -0.0194 F   0  0  0  0  0  0  0  0  0  0  0  0
    0.9671    1.1477   -0.3689 C   0  0  0  0  0  0  0  0  0  0  0  0
    1.2919    2.2519    0.1612 O   0  0  0  0  0  0  0  0  0  0  0  0
   -0.2696    1.0251   -1.0503 N   0  0  0  0  0  0  0  0  0  0  0  0
   -1.1271    2.1137   -1.1330 N   0  0  0  0  0  0  0  0  0  0  0  0
   -2.5243    1.9129   -0.8262 C   0  0  0  0  0  0  0  0  0  0  0  0
   -3.4571    3.2150   -0.9516 S   0  0  0  0  0  0  0  0  0  0  0  0
   -2.9463    0.6358   -0.4610 N   0  0  0  0  0  0  0  0  0  0  0  0
   -4.2314    0.1895   -0.1196 C   0  0  0  0  0  0  0  0  0  0  0  0
   -5.3401    0.9766   -0.0416 C   0  0  0  0  0  0  0  0  0  0  0  0
   -6.5702    0.3903    0.2960 C   0  0  0  0  0  0  0  0  0  0  0  0
   -6.6261   -0.9694    0.5408 C   0  0  0  0  0  0  0  0  0  0  0  0
   -5.4929   -1.7479    0.4567 C   0  0  0  0  0  0  0  0  0  0  0  0
   -4.3542   -1.1574    0.1359 N   0  0  0  0  0  0  0  0  0  0  0  0
    5.4797    1.6334   -0.4099 H   0  0  0  0  0  0  0  0  0  0  0  0
    7.1939    1.2163   -0.2997 H   0  0  0  0  0  0  0  0  0  0  0  0
    6.2447    1.4056    1.2637 H   0  0  0  0  0  0  0  0  0  0  0  0
    3.5550    1.1727   -0.0698 H   0  0  0  0  0  0  0  0  0  0  0  0
    0.3046   -1.4503   -0.5028 H   0  0  0  0  0  0  0  0  0  0  0  0
    1.8302   -3.4293   -0.3462 H   0  0  0  0  0  0  0  0  0  0  0  0
   -0.5175    0.1184   -1.4942 H   0  0  0  0  0  0  0  0  0  0  0  0
   -0.8048    3.0571   -1.4029 H   0  0  0  0  0  0  0  0  0  0  0  0
   -2.1766   -0.1496   -0.4226 H   0  0  0  0  0  0  0  0  0  0  0  0
   -5.3844    2.0250   -0.2077 H   0  0  0  0  0  0  0  0  0  0  0  0
   -7.4631    0.9988    0.3599 H   0  0  0  0  0  0  0  0  0  0  0  0
   -7.5525   -1.4660    0.8024 H   0  0  0  0  0  0  0  0  0  0  0  0
   -5.5426   -2.8242    0.6505 H   0  0  0  0  0  0  0  0  0  0  0  0
  1  2  1  0
  2  3  2  0
  2  4  2  0
  2  5  1  0
  5  6  2  0
  6  7  1  0
  7  8  2  0
  8  9  1  0
  9 10  2  0
 10 11  1  0
  7 12  1  0
 12 13  2  0
 12 14  1  0
 14 15  1  0
 15 16  1  0
 16 17  2  0
 16 18  1  0
 18 19  1  0
 19 20  2  0
 20 21  1  0
 21 22  2  0
 22 23  1  0
 23 24  2  0
 10  5  1  0
 24 19  1  0
  1 25  1  0
  1 26  1  0
  1 27  1  0
  6 28  1  0
  8 29  1  0
  9 30  1  0
 14 31  1  0
 15 32  1  0
 18 33  1  0
 20 34  1  0
 21 35  1  0
 22 36  1  0
 23 37  1  0
M  END
$$$$
[H]c1nc2c([H])c(OC([H])([H])C([H])([H])C([H])([H])N3C([H])([H])C([H])([H])C([H])([H])C([H])([H])C3([H])[H])c(OC([H])([H])[H])c([H])c2c(Oc2c([H])c([H])c(N([H])C(=O)c3c(-c4c([H])c([H])c([H])c([H])c4[H])c([H])nn3C([H])([H])[H])c([H])c2F)c1[H]
     RDKit          3D

 81 86  0  0  0  0  0  0  0  0999 V2000
   -5.3507   -1.8292   -3.4108 C   0  0  0  0  0  0  0  0  0  0  0  0
   -5.5174   -0.9982   -2.3486 O   0  0  0  0  0  0  0  0  0  0  0  0
   -4.6426   -0.2732   -1.5934 C   0  0  0  0  0  0  0  0  0  0  0  0
   -3.2920   -0.1938   -1.7639 C   0  0  0  0  0  0  0  0  0  0  0  0
   -2.4670    0.5834   -0.9273 C   0  0  0  0  0  0  0  0  0  0  0  0
   -1.1147    0.6203   -1.0746 C   0  0  0  0  0  0  0  0  0  0  0  0
   -0.4959   -0.1097   -2.1057 O   0  0  0  0  0  0  0  0  0  0  0  0
    0.8855   -0.2860   -2.0374 C   0  0  0  0  0  0  0  0  0  0  0  0
    1.7787    0.2378   -2.8759 C   0  0  0  0  0  0  0  0  0  0  0  0
    3.1523   -0.0084   -2.7095 C   0  0  0  0  0  0  0  0  0  0  0  0
    3.6211   -0.7944   -1.6840 C   0  0  0  0  0  0  0  0  0  0  0  0
    4.9747   -1.0867   -1.4169 N   0  0  0  0  0  0  0  0  0  0  0  0
    6.1286   -0.3885   -1.7738 C   0  0  0  0  0  0  0  0  0  0  0  0
    5.9896    0.6836   -2.4114 O   0  0  0  0  0  0  0  0  0  0  0  0
    7.4843   -0.8163   -1.4523 C   0  0  0  0  0  0  0  0  0  0  0  0
    8.5821    0.0126   -1.4306 C   0  0  0  0  0  0  0  0  0  0  0  0
    9.7148   -0.7349   -1.0966 C   0  0  0  0  0  0  0  0  0  0  0  0
    9.2958   -1.9761   -0.9291 N   0  0  0  0  0  0  0  0  0  0  0  0
    7.9683   -2.0440   -1.1380 N   0  0  0  0  0  0  0  0  0  0  0  0
    7.2597   -3.2864   -1.0404 C   0  0  0  0  0  0  0  0  0  0  0  0
    8.7349    1.4434   -1.7121 C   0  0  0  0  0  0  0  0  0  0  0  0
    8.6342    1.9915   -2.9625 C   0  0  0  0  0  0  0  0  0  0  0  0
    8.8220    3.3509   -3.1431 C   0  0  0  0  0  0  0  0  0  0  0  0
    9.1167    4.2095   -2.0782 C   0  0  0  0  0  0  0  0  0  0  0  0
    9.2158    3.6651   -0.8315 C   0  0  0  0  0  0  0  0  0  0  0  0
    9.0284    2.3007   -0.6442 C   0  0  0  0  0  0  0  0  0  0  0  0
    2.6481   -1.3345   -0.8143 C   0  0  0  0  0  0  0  0  0  0  0  0
    1.3171   -1.0919   -0.9816 C   0  0  0  0  0  0  0  0  0  0  0  0
    0.3966   -1.6255   -0.1618 F   0  0  0  0  0  0  0  0  0  0  0  0
   -0.2861    1.3633   -0.2137 C   0  0  0  0  0  0  0  0  0  0  0  0
   -0.9044    2.0595    0.7975 C   0  0  0  0  0  0  0  0  0  0  0  0
   -2.2478    2.0063    0.9260 N   0  0  0  0  0  0  0  0  0  0  0  0
   -3.0315    1.3016    0.1099 C   0  0  0  0  0  0  0  0  0  0  0  0
   -4.3857    1.2376    0.2992 C   0  0  0  0  0  0  0  0  0  0  0  0
   -5.2035    0.4784   -0.5102 C   0  0  0  0  0  0  0  0  0  0  0  0
   -6.4872    0.3965   -0.3300 O   0  0  0  0  0  0  0  0  0  0  0  0
   -7.7334    0.4248    0.0091 C   0  0  0  0  0  0  0  0  0  0  0  0
   -8.2804   -0.2373    1.2258 C   0  0  0  0  0  0  0  0  0  0  0  0
   -7.7838    0.0881    2.5611 C   0  0  0  0  0  0  0  0  0  0  0  0
   -6.4074   -0.1689    2.8707 N   0  0  0  0  0  0  0  0  0  0  0  0
   -6.0639   -1.5545    2.8810 C   0  0  0  0  0  0  0  0  0  0  0  0
   -4.5430   -1.7041    2.8698 C   0  0  0  0  0  0  0  0  0  0  0  0
   -3.8932   -0.7226    3.7780 C   0  0  0  0  0  0  0  0  0  0  0  0
   -4.8378   -0.0794    4.7366 C   0  0  0  0  0  0  0  0  0  0  0  0
   -6.0962    0.4492    4.1254 C   0  0  0  0  0  0  0  0  0  0  0  0
   -4.6203   -2.6568   -3.1728 H   0  0  0  0  0  0  0  0  0  0  0  0
   -6.3115   -2.4314   -3.5966 H   0  0  0  0  0  0  0  0  0  0  0  0
   -5.0455   -1.3668   -4.3767 H   0  0  0  0  0  0  0  0  0  0  0  0
   -2.8339   -0.7518   -2.5776 H   0  0  0  0  0  0  0  0  0  0  0  0
    1.4712    0.8735   -3.7197 H   0  0  0  0  0  0  0  0  0  0  0  0
    3.8621    0.4290   -3.4083 H   0  0  0  0  0  0  0  0  0  0  0  0
    5.1044   -1.9823   -0.8311 H   0  0  0  0  0  0  0  0  0  0  0  0
   10.7237   -0.3806   -1.0014 H   0  0  0  0  0  0  0  0  0  0  0  0
    6.7580   -3.4240   -0.0627 H   0  0  0  0  0  0  0  0  0  0  0  0
    6.5448   -3.4192   -1.8931 H   0  0  0  0  0  0  0  0  0  0  0  0
    8.0198   -4.1219   -1.1609 H   0  0  0  0  0  0  0  0  0  0  0  0
    8.4177    1.3148   -3.7756 H   0  0  0  0  0  0  0  0  0  0  0  0
    8.7381    3.7631   -4.1345 H   0  0  0  0  0  0  0  0  0  0  0  0
    9.2610    5.2676   -2.2409 H   0  0  0  0  0  0  0  0  0  0  0  0
    9.4420    4.3032    0.0204 H   0  0  0  0  0  0  0  0  0  0  0  0
    9.1011    1.8496    0.3260 H   0  0  0  0  0  0  0  0  0  0  0  0
    2.9834   -1.9682    0.0206 H   0  0  0  0  0  0  0  0  0  0  0  0
    0.7774    1.3743   -0.3718 H   0  0  0  0  0  0  0  0  0  0  0  0
   -0.3227    2.6459    1.4851 H   0  0  0  0  0  0  0  0  0  0  0  0
   -4.7954    1.8217    1.1285 H   0  0  0  0  0  0  0  0  0  0  0  0
   -8.0632    1.5495    0.0667 H   0  0  0  0  0  0  0  0  0  0  0  0
   -8.4835    0.1040   -0.8258 H   0  0  0  0  0  0  0  0  0  0  0  0
   -8.3146   -1.3671    1.0891 H   0  0  0  0  0  0  0  0  0  0  0  0
   -9.4049    0.0024    1.2416 H   0  0  0  0  0  0  0  0  0  0  0  0
   -8.3686   -0.5522    3.2972 H   0  0  0  0  0  0  0  0  0  0  0  0
   -8.0537    1.1286    2.8755 H   0  0  0  0  0  0  0  0  0  0  0  0
   -6.4323   -2.0344    3.7886 H   0  0  0  0  0  0  0  0  0  0  0  0
   -6.4822   -2.0084    1.9502 H   0  0  0  0  0  0  0  0  0  0  0  0
   -4.1998   -1.5140    1.8282 H   0  0  0  0  0  0  0  0  0  0  0  0
   -4.2862   -2.7756    3.0783 H   0  0  0  0  0  0  0  0  0  0  0  0
   -3.4502    0.1003    3.1385 H   0  0  0  0  0  0  0  0  0  0  0  0
   -3.0712   -1.1642    4.3689 H   0  0  0  0  0  0  0  0  0  0  0  0
   -4.2900    0.8160    5.1520 H   0  0  0  0  0  0  0  0  0  0  0  0
   -5.0345   -0.7277    5.6260 H   0  0  0  0  0  0  0  0  0  0  0  0
   -6.0812    1.5787    4.0340 H   0  0  0  0  0  0  0  0  0  0  0  0
   -6.9429    0.1650    4.8245 H   0  0  0  0  0  0  0  0  0  0  0  0
  1  2  1  0
  2  3  1  0
  3  4  2  0
  4  5  1  0
  5  6  2  0
  6  7  1  0
  7  8  1  0
  8  9  2  0
  9 10  1  0
 10 11  2  0
 11 12  1  0
 12 13  1  0
 13 14  2  0
 13 15  1  0
 15 16  2  0
 16 17  1  0
 17 18  2  0
 18 19  1  0
 19 20  1  0
 16 21  1  0
 21 22  2  0
 22 23  1  0
 23 24  2  0
 24 25  1  0
 25 26  2  0
 11 27  1  0
 27 28  2  0
 28 29  1  0
  6 30  1  0
 30 31  2  0
 31 32  1  0
 32 33  2  0
 33 34  1  0
 34 35  2  0
 35 36  1  0
 36 37  1  0
 37 38  1  0
 38 39  1  0
 39 40  1  0
 40 41  1  0
 41 42  1  0
 42 43  1  0
 43 44  1  0
 44 45  1  0
 35  3  1  0
 45 40  1  0
 33  5  1  0
 28  8  1  0
 19 15  1  0
 26 21  1  0
  1 46  1  0
  1 47  1  0
  1 48  1  0
  4 49  1  0
  9 50  1  0
 10 51  1  0
 12 52  1  0
 17 53  1  0
 20 54  1  0
 20 55  1  0
 20 56  1  0
 22 57  1  0
 23 58  1  0
 24 59  1  0
 25 60  1  0
 26 61  1  0
 27 62  1  0
 30 63  1  0
 31 64  1  0
 34 65  1  0
 37 66  1  0
 37 67  1  0
 38 68  1  0
 38 69  1  0
 39 70  1  0
 39 71  1  0
 41 72  1  0
 41 73  1  0
 42 74  1  0
 42 75  1  0
 43 76  1  0
 43 77  1  0
 44 78  1  0
 44 79  1  0
 45 80  1  0
 45 81  1  0
M  END
$$$$
[H]c1nc(-c2sc3c(c2C([H])([H])c2c([H])c([H])c([H])c([H])c2[H])C([H])([H])C([H])([H])N(C(=O)c2c([H])c([H])nc(C([H])([H])[H])c2[H])C3([H])[H])c([H])c([H])c1[H]
     RDKit          3D

 54 58  0  0  0  0  0  0  0  0999 V2000
    7.1629    0.9270    0.2477 C   0  0  0  0  0  0  0  0  0  0  0  0
    6.5670   -0.4195    0.2994 C   0  0  0  0  0  0  0  0  0  0  0  0
    5.1754   -0.5229    0.2791 C   0  0  0  0  0  0  0  0  0  0  0  0
    4.6196   -1.7676    0.3257 C   0  0  0  0  0  0  0  0  0  0  0  0
    5.5174   -2.8344    0.3907 C   0  0  0  0  0  0  0  0  0  0  0  0
    6.8690   -2.6887    0.4083 C   0  0  0  0  0  0  0  0  0  0  0  0
    7.3919   -1.4710    0.3620 N   0  0  0  0  0  0  0  0  0  0  0  0
    3.2058   -2.0039    0.3007 C   0  0  0  0  0  0  0  0  0  0  0  0
    2.9214   -3.3004    0.3692 O   0  0  0  0  0  0  0  0  0  0  0  0
    2.0932   -1.1922    0.2214 N   0  0  0  0  0  0  0  0  0  0  0  0
    0.7684   -1.8993    0.2211 C   0  0  0  0  0  0  0  0  0  0  0  0
    0.0719   -1.3504   -1.0170 C   0  0  0  0  0  0  0  0  0  0  0  0
   -0.3640    0.0516   -0.5707 C   0  0  0  0  0  0  0  0  0  0  0  0
    0.6417    0.7652   -0.0157 C   0  0  0  0  0  0  0  0  0  0  0  0
    2.0525    0.2164    0.1375 C   0  0  0  0  0  0  0  0  0  0  0  0
   -0.0855    2.2566    0.3664 S   0  0  0  0  0  0  0  0  0  0  0  0
   -1.6795    1.9379   -0.1968 C   0  0  0  0  0  0  0  0  0  0  0  0
   -1.5854    0.6565   -0.6714 C   0  0  0  0  0  0  0  0  0  0  0  0
   -2.7826   -0.0689   -1.2703 C   0  0  0  0  0  0  0  0  0  0  0  0
   -3.4960   -0.8729   -0.2952 C   0  0  0  0  0  0  0  0  0  0  0  0
   -4.7802   -1.2782   -0.6355 C   0  0  0  0  0  0  0  0  0  0  0  0
   -5.5620   -2.0249    0.2097 C   0  0  0  0  0  0  0  0  0  0  0  0
   -5.0263   -2.3715    1.4362 C   0  0  0  0  0  0  0  0  0  0  0  0
   -3.7616   -1.9819    1.7918 C   0  0  0  0  0  0  0  0  0  0  0  0
   -2.9975   -1.2245    0.9091 C   0  0  0  0  0  0  0  0  0  0  0  0
   -2.8371    2.8497   -0.1555 C   0  0  0  0  0  0  0  0  0  0  0  0
   -2.6172    4.1082    0.3488 C   0  0  0  0  0  0  0  0  0  0  0  0
   -3.6090    5.0597    0.4567 C   0  0  0  0  0  0  0  0  0  0  0  0
   -4.8818    4.7247    0.0359 C   0  0  0  0  0  0  0  0  0  0  0  0
   -5.0735    3.4601   -0.4640 C   0  0  0  0  0  0  0  0  0  0  0  0
   -4.0663    2.5403   -0.5565 N   0  0  0  0  0  0  0  0  0  0  0  0
    6.4638    1.5944   -0.2892 H   0  0  0  0  0  0  0  0  0  0  0  0
    8.1617    0.9473   -0.2363 H   0  0  0  0  0  0  0  0  0  0  0  0
    7.2732    1.2818    1.3019 H   0  0  0  0  0  0  0  0  0  0  0  0
    4.5869    0.3700    0.2307 H   0  0  0  0  0  0  0  0  0  0  0  0
    5.1402   -3.8439    0.4300 H   0  0  0  0  0  0  0  0  0  0  0  0
    7.5209   -3.5745    0.4606 H   0  0  0  0  0  0  0  0  0  0  0  0
    0.3014   -1.5446    1.1607 H   0  0  0  0  0  0  0  0  0  0  0  0
    0.9012   -2.9851    0.1579 H   0  0  0  0  0  0  0  0  0  0  0  0
   -0.7798   -1.9824   -1.2402 H   0  0  0  0  0  0  0  0  0  0  0  0
    0.8190   -1.2506   -1.8135 H   0  0  0  0  0  0  0  0  0  0  0  0
    2.5628    0.5593   -0.8047 H   0  0  0  0  0  0  0  0  0  0  0  0
    2.4813    0.7496    1.0108 H   0  0  0  0  0  0  0  0  0  0  0  0
   -3.3789    0.5908   -1.9135 H   0  0  0  0  0  0  0  0  0  0  0  0
   -2.3653   -0.8269   -2.0260 H   0  0  0  0  0  0  0  0  0  0  0  0
   -5.2131   -1.0098   -1.5999 H   0  0  0  0  0  0  0  0  0  0  0  0
   -6.5667   -2.3235   -0.0947 H   0  0  0  0  0  0  0  0  0  0  0  0
   -5.6132   -2.9634    2.1365 H   0  0  0  0  0  0  0  0  0  0  0  0
   -3.3434   -2.2632    2.7714 H   0  0  0  0  0  0  0  0  0  0  0  0
   -2.0143   -0.9281    1.2342 H   0  0  0  0  0  0  0  0  0  0  0  0
   -1.6142    4.4110    0.6942 H   0  0  0  0  0  0  0  0  0  0  0  0
   -3.3982    6.0488    0.8615 H   0  0  0  0  0  0  0  0  0  0  0  0
   -5.7014    5.4484    0.1027 H   0  0  0  0  0  0  0  0  0  0  0  0
   -6.0767    3.2137   -0.7888 H   0  0  0  0  0  0  0  0  0  0  0  0
  1  2  1  0
  2  3  2  0
  3  4  1  0
  4  5  2  0
  5  6  1  0
  6  7  2  0
  4  8  1  0
  8  9  2  0
  8 10  1  0
 10 11  1  0
 11 12  1  0
 12 13  1  0
 13 14  2  0
 14 15  1  0
 14 16  1  0
 16 17  1  0
 17 18  2  0
 18 19  1  0
 19 20  1  0
 20 21  2  0
 21 22  1  0
 22 23  2  0
 23 24  1  0
 24 25  2  0
 17 26  1  0
 26 27  2  0
 27 28  1  0
 28 29  2  0
 29 30  1  0
 30 31  2  0
  7  2  1  0
 15 10  1  0
 25 20  1  0
 31 26  1  0
 18 13  1  0
  1 32  1  0
  1 33  1  0
  1 34  1  0
  3 35  1  0
  5 36  1  0
  6 37  1  0
 11 38  1  0
 11 39  1  0
 12 40  1  0
 12 41  1  0
 15 42  1  0
 15 43  1  0
 19 44  1  0
 19 45  1  0
 21 46  1  0
 22 47  1  0
 23 48  1  0
 24 49  1  0
 25 50  1  0
 27 51  1  0
 28 52  1  0
 29 53  1  0
 30 54  1  0
M  END
$$$$
[H]c1nc(C(F)(F)C([H])([H])[H])c([H])c(C(=O)N([H])c2c([H])nc(C([H])([H])[H])c(-c3c([H])nc(N4C([H])([H])C([H])([H])OC([H])([H])C4([H])[H])n3[H])c2[H])c1[H]
     RDKit          3D

 53 56  0  0  0  0  0  0  0  0999 V2000
    2.1190   -0.1796    2.8936 C   0  0  0  0  0  0  0  0  0  0  0  0
    0.9905    0.1477    1.9910 C   0  0  0  0  0  0  0  0  0  0  0  0
   -0.1842    0.5023    2.6480 N   0  0  0  0  0  0  0  0  0  0  0  0
   -1.3282    0.7257    2.0429 C   0  0  0  0  0  0  0  0  0  0  0  0
   -1.4697    0.6202    0.6486 C   0  0  0  0  0  0  0  0  0  0  0  0
   -2.7682    0.7842    0.1580 N   0  0  0  0  0  0  0  0  0  0  0  0
   -3.3103    1.3244   -0.9922 C   0  0  0  0  0  0  0  0  0  0  0  0
   -2.6697    1.8150   -1.9089 O   0  0  0  0  0  0  0  0  0  0  0  0
   -4.7874    1.2932   -1.0971 C   0  0  0  0  0  0  0  0  0  0  0  0
   -5.5243    2.4354   -1.0530 C   0  0  0  0  0  0  0  0  0  0  0  0
   -6.9275    2.3972   -1.0765 C   0  0  0  0  0  0  0  0  0  0  0  0
   -7.5623    1.2195   -1.1448 N   0  0  0  0  0  0  0  0  0  0  0  0
   -6.8492    0.0708   -1.1954 C   0  0  0  0  0  0  0  0  0  0  0  0
   -5.4707    0.0769   -1.1697 C   0  0  0  0  0  0  0  0  0  0  0  0
   -7.5357   -1.2439   -1.2479 C   0  0  0  0  0  0  0  0  0  0  0  0
   -8.1794   -1.4989    0.1010 C   0  0  0  0  0  0  0  0  0  0  0  0
   -8.5382   -1.1546   -2.2059 F   0  0  0  0  0  0  0  0  0  0  0  0
   -6.6194   -2.2432   -1.5514 F   0  0  0  0  0  0  0  0  0  0  0  0
   -0.3239    0.2773   -0.0099 C   0  0  0  0  0  0  0  0  0  0  0  0
    0.9056    0.0408    0.6446 C   0  0  0  0  0  0  0  0  0  0  0  0
    2.1004   -0.2156   -0.1705 C   0  0  0  0  0  0  0  0  0  0  0  0
    2.0496   -0.8787   -1.3716 C   0  0  0  0  0  0  0  0  0  0  0  0
    3.3266   -1.0279   -1.7632 N   0  0  0  0  0  0  0  0  0  0  0  0
    4.1345   -0.4974   -0.8790 C   0  0  0  0  0  0  0  0  0  0  0  0
    3.3664    0.0320    0.1487 N   0  0  0  0  0  0  0  0  0  0  0  0
    5.5431   -0.4584   -0.8753 N   0  0  0  0  0  0  0  0  0  0  0  0
    6.3124   -1.4573   -0.2071 C   0  0  0  0  0  0  0  0  0  0  0  0
    7.7641   -1.5289   -0.6019 C   0  0  0  0  0  0  0  0  0  0  0  0
    8.2386   -0.4599   -1.3050 O   0  0  0  0  0  0  0  0  0  0  0  0
    7.6064    0.7473   -0.9354 C   0  0  0  0  0  0  0  0  0  0  0  0
    6.2074    0.6247   -1.5511 C   0  0  0  0  0  0  0  0  0  0  0  0
    2.9585   -0.6299    2.4004 H   0  0  0  0  0  0  0  0  0  0  0  0
    1.7055   -1.1084    3.5182 H   0  0  0  0  0  0  0  0  0  0  0  0
    2.3504    0.6203    3.6492 H   0  0  0  0  0  0  0  0  0  0  0  0
   -2.2310    1.0140    2.6142 H   0  0  0  0  0  0  0  0  0  0  0  0
   -3.5453    0.3666    0.8344 H   0  0  0  0  0  0  0  0  0  0  0  0
   -5.0893    3.4101   -0.9825 H   0  0  0  0  0  0  0  0  0  0  0  0
   -7.5201    3.3256   -1.0430 H   0  0  0  0  0  0  0  0  0  0  0  0
   -4.9281   -0.8608   -1.2209 H   0  0  0  0  0  0  0  0  0  0  0  0
   -8.8075   -2.4208   -0.0626 H   0  0  0  0  0  0  0  0  0  0  0  0
   -7.4163   -1.6900    0.8696 H   0  0  0  0  0  0  0  0  0  0  0  0
   -8.7923   -0.6203    0.3344 H   0  0  0  0  0  0  0  0  0  0  0  0
   -0.3781    0.1851   -1.0690 H   0  0  0  0  0  0  0  0  0  0  0  0
    1.2220   -1.2330   -1.9429 H   0  0  0  0  0  0  0  0  0  0  0  0
    3.8094    0.5530    0.9592 H   0  0  0  0  0  0  0  0  0  0  0  0
    6.2436   -1.2303    0.8958 H   0  0  0  0  0  0  0  0  0  0  0  0
    5.8951   -2.4880   -0.2909 H   0  0  0  0  0  0  0  0  0  0  0  0
    8.3743   -1.6121    0.3501 H   0  0  0  0  0  0  0  0  0  0  0  0
    8.0252   -2.4355   -1.1742 H   0  0  0  0  0  0  0  0  0  0  0  0
    7.4192    0.8226    0.1605 H   0  0  0  0  0  0  0  0  0  0  0  0
    8.1066    1.6260   -1.3096 H   0  0  0  0  0  0  0  0  0  0  0  0
    5.7286    1.6229   -1.3444 H   0  0  0  0  0  0  0  0  0  0  0  0
    6.2532    0.4927   -2.6391 H   0  0  0  0  0  0  0  0  0  0  0  0
  1  2  1  0
  2  3  2  0
  3  4  1  0
  4  5  2  0
  5  6  1  0
  6  7  1  0
  7  8  2  0
  7  9  1  0
  9 10  2  0
 10 11  1  0
 11 12  2  0
 12 13  1  0
 13 14  2  0
 13 15  1  0
 15 16  1  0
 15 17  1  0
 15 18  1  0
  5 19  1  0
 19 20  2  0
 20 21  1  0
 21 22  2  0
 22 23  1  0
 23 24  2  0
 24 25  1  0
 24 26  1  0
 26 27  1  0
 27 28  1  0
 28 29  1  0
 29 30  1  0
 30 31  1  0
 20  2  1  0
 25 21  1  0
 31 26  1  0
 14  9  1  0
  1 32  1  0
  1 33  1  0
  1 34  1  0
  4 35  1  0
  6 36  1  0
 10 37  1  0
 11 38  1  0
 14 39  1  0
 16 40  1  0
 16 41  1  0
 16 42  1  0
 19 43  1  0
 22 44  1  0
 25 45  1  0
 27 46  1  0
 27 47  1  0
 28 48  1  0
 28 49  1  0
 30 50  1  0
 30 51  1  0
 31 52  1  0
 31 53  1  0
M  END
$$$$
[H]c1c([H])c([H])c(C(=O)N([H])[C@@]2([H])C([H])([H])N([H])C([H])([H])[C@]2([H])C(=O)N2C([H])([H])C([H])([H])C([H])(OC(=O)c3nn([H])c(C([H])([H])[H])c3Cl)C([H])([H])C2([H])[H])c([H])c1[H]
     RDKit          3D

 58 61  0  0  0  0  0  0  0  0999 V2000
    9.7329    2.1872   -0.6089 C   0  0  0  0  0  0  0  0  0  0  0  0
    8.3068    1.7538   -0.4969 C   0  0  0  0  0  0  0  0  0  0  0  0
    7.4315    2.0090    0.4893 N   0  0  0  0  0  0  0  0  0  0  0  0
    6.2558    1.4573    0.2408 N   0  0  0  0  0  0  0  0  0  0  0  0
    6.2947    0.8011   -0.9368 C   0  0  0  0  0  0  0  0  0  0  0  0
    5.2159    0.0626   -1.5747 C   0  0  0  0  0  0  0  0  0  0  0  0
    5.3600   -0.5086   -2.6657 O   0  0  0  0  0  0  0  0  0  0  0  0
    3.9937    0.0006   -0.9369 O   0  0  0  0  0  0  0  0  0  0  0  0
    2.8661   -0.6956   -1.4720 C   0  0  0  0  0  0  0  0  0  0  0  0
    1.7468    0.3103   -1.5219 C   0  0  0  0  0  0  0  0  0  0  0  0
    0.3857   -0.3194   -1.7614 C   0  0  0  0  0  0  0  0  0  0  0  0
    0.1917   -1.5284   -1.0202 N   0  0  0  0  0  0  0  0  0  0  0  0
    1.2966   -2.4683   -0.8875 C   0  0  0  0  0  0  0  0  0  0  0  0
    2.4987   -1.7230   -0.3951 C   0  0  0  0  0  0  0  0  0  0  0  0
   -1.0494   -1.8356   -0.4120 C   0  0  0  0  0  0  0  0  0  0  0  0
   -1.1431   -2.9280    0.2488 O   0  0  0  0  0  0  0  0  0  0  0  0
   -2.1972   -0.9218   -0.5401 C   0  0  1  0  0  0  0  0  0  0  0  0
   -2.6825   -0.9141   -1.9586 C   0  0  0  0  0  0  0  0  0  0  0  0
   -3.9107   -1.6854   -2.0225 N   0  0  0  0  0  0  0  0  0  0  0  0
   -3.9514   -2.4609   -0.7975 C   0  0  0  0  0  0  0  0  0  0  0  0
   -3.3642   -1.5120    0.2197 C   0  0  2  0  0  0  0  0  0  0  0  0
   -4.2990   -0.4555    0.5978 N   0  0  0  0  0  0  0  0  0  0  0  0
   -4.6066   -0.1851    1.9499 C   0  0  0  0  0  0  0  0  0  0  0  0
   -4.0496   -0.8862    2.8476 O   0  0  0  0  0  0  0  0  0  0  0  0
   -5.5238    0.8493    2.3696 C   0  0  0  0  0  0  0  0  0  0  0  0
   -5.7856    1.0809    3.6957 C   0  0  0  0  0  0  0  0  0  0  0  0
   -6.6499    2.0554    4.1232 C   0  0  0  0  0  0  0  0  0  0  0  0
   -7.3020    2.8572    3.1905 C   0  0  0  0  0  0  0  0  0  0  0  0
   -7.0464    2.6330    1.8594 C   0  0  0  0  0  0  0  0  0  0  0  0
   -6.1622    1.6350    1.4430 C   0  0  0  0  0  0  0  0  0  0  0  0
    7.5829    0.9801   -1.4127 C   0  0  0  0  0  0  0  0  0  0  0  0
    8.2470    0.3686   -2.8952 Cl  0  0  0  0  0  0  0  0  0  0  0  0
   10.3915    1.5809    0.0454 H   0  0  0  0  0  0  0  0  0  0  0  0
   10.0271    2.0244   -1.6636 H   0  0  0  0  0  0  0  0  0  0  0  0
    9.7825    3.2726   -0.3955 H   0  0  0  0  0  0  0  0  0  0  0  0
    7.6335    2.5664    1.3447 H   0  0  0  0  0  0  0  0  0  0  0  0
    3.0805   -1.1672   -2.4317 H   0  0  0  0  0  0  0  0  0  0  0  0
    1.6895    0.7677   -0.4913 H   0  0  0  0  0  0  0  0  0  0  0  0
    1.9438    1.1394   -2.2035 H   0  0  0  0  0  0  0  0  0  0  0  0
   -0.4298    0.4066   -1.4778 H   0  0  0  0  0  0  0  0  0  0  0  0
    0.3033   -0.4683   -2.8574 H   0  0  0  0  0  0  0  0  0  0  0  0
    1.0350   -3.3129   -0.2216 H   0  0  0  0  0  0  0  0  0  0  0  0
    1.5274   -2.8418   -1.9139 H   0  0  0  0  0  0  0  0  0  0  0  0
    3.3457   -2.3740   -0.1581 H   0  0  0  0  0  0  0  0  0  0  0  0
    2.2145   -1.1359    0.4947 H   0  0  0  0  0  0  0  0  0  0  0  0
   -1.9562    0.1064   -0.1725 H   0  0  0  0  0  0  0  0  0  0  0  0
   -2.8354    0.1228   -2.3625 H   0  0  0  0  0  0  0  0  0  0  0  0
   -1.8984   -1.3791   -2.6083 H   0  0  0  0  0  0  0  0  0  0  0  0
   -3.8073   -2.3905   -2.8028 H   0  0  0  0  0  0  0  0  0  0  0  0
   -3.3101   -3.3527   -0.8419 H   0  0  0  0  0  0  0  0  0  0  0  0
   -4.9774   -2.7780   -0.5356 H   0  0  0  0  0  0  0  0  0  0  0  0
   -2.9840   -2.0350    1.1304 H   0  0  0  0  0  0  0  0  0  0  0  0
   -4.7395    0.1005   -0.1565 H   0  0  0  0  0  0  0  0  0  0  0  0
   -5.3086    0.4887    4.4666 H   0  0  0  0  0  0  0  0  0  0  0  0
   -6.8545    2.2367    5.1643 H   0  0  0  0  0  0  0  0  0  0  0  0
   -7.9789    3.6181    3.5562 H   0  0  0  0  0  0  0  0  0  0  0  0
   -7.5468    3.2496    1.1215 H   0  0  0  0  0  0  0  0  0  0  0  0
   -6.0310    1.5411    0.3703 H   0  0  0  0  0  0  0  0  0  0  0  0
  1  2  1  0
  2  3  1  0
  3  4  1  0
  4  5  2  0
  5  6  1  0
  6  7  2  0
  6  8  1  0
  8  9  1  0
  9 10  1  0
 10 11  1  0
 11 12  1  0
 12 13  1  0
 13 14  1  0
 12 15  1  0
 15 16  2  0
 15 17  1  0
 17 18  1  0
 18 19  1  0
 19 20  1  0
 20 21  1  0
 21 22  1  0
 22 23  1  0
 23 24  2  0
 23 25  1  0
 25 26  2  0
 26 27  1  0
 27 28  2  0
 28 29  1  0
 29 30  2  0
  5 31  1  0
 31 32  1  0
 31  2  2  0
 14  9  1  0
 21 17  1  0
 30 25  1  0
  1 33  1  0
  1 34  1  0
  1 35  1  0
  3 36  1  0
  9 37  1  0
 10 38  1  0
 10 39  1  0
 11 40  1  0
 11 41  1  0
 13 42  1  0
 13 43  1  0
 14 44  1  0
 14 45  1  0
 17 46  1  1
 18 47  1  0
 18 48  1  0
 19 49  1  0
 20 50  1  0
 20 51  1  0
 21 52  1  1
 22 53  1  0
 26 54  1  0
 27 55  1  0
 28 56  1  0
 29 57  1  0
 30 58  1  0
M  END
$$$$
[H]/C(=C(\[H])C([H])([H])c1nn([H])c2c1C([H])([H])C([H])([H])C(C(=O)OC([H])([H])C([H])([H])[H])(c1c([H])c([H])c(-c3nc([H])c([H])c([H])n3)c([H])c1[H])C2([H])[H])C([H])([H])OC([H])([H])c1c([H])c([H])c([H])c([H])c1[H]
     RDKit          3D

 70 74  0  0  0  0  0  0  0  0999 V2000
   -6.5178    0.0614   -4.6692 C   0  0  0  0  0  0  0  0  0  0  0  0
   -5.7575    1.2807   -4.1779 C   0  0  0  0  0  0  0  0  0  0  0  0
   -4.6499    0.7965   -3.4314 O   0  0  0  0  0  0  0  0  0  0  0  0
   -3.7494    1.6475   -2.8432 C   0  0  0  0  0  0  0  0  0  0  0  0
   -3.9747    2.8924   -3.0120 O   0  0  0  0  0  0  0  0  0  0  0  0
   -2.5653    1.2666   -2.0505 C   0  0  0  0  0  0  0  0  0  0  0  0
   -1.7456    2.4980   -1.8053 C   0  0  0  0  0  0  0  0  0  0  0  0
   -0.2901    2.3419   -1.6894 C   0  0  0  0  0  0  0  0  0  0  0  0
    0.2419    0.9768   -1.8381 C   0  0  0  0  0  0  0  0  0  0  0  0
   -0.4732   -0.0219   -2.4188 C   0  0  0  0  0  0  0  0  0  0  0  0
   -1.8270    0.2567   -2.9204 C   0  0  0  0  0  0  0  0  0  0  0  0
    0.2635   -1.1214   -2.4082 N   0  0  0  0  0  0  0  0  0  0  0  0
    1.4026   -0.8455   -1.8462 N   0  0  0  0  0  0  0  0  0  0  0  0
    1.4361    0.4444   -1.4758 C   0  0  0  0  0  0  0  0  0  0  0  0
    2.6255    1.0342   -0.8017 C   0  0  0  0  0  0  0  0  0  0  0  0
    2.4727    1.2211    0.6189 C   0  0  0  0  0  0  0  0  0  0  0  0
    3.1649    0.6644    1.5783 C   0  0  0  0  0  0  0  0  0  0  0  0
    4.2705   -0.2897    1.4977 C   0  0  0  0  0  0  0  0  0  0  0  0
    4.7032   -0.7126    0.2941 O   0  0  0  0  0  0  0  0  0  0  0  0
    5.7452   -1.6180    0.4208 C   0  0  0  0  0  0  0  0  0  0  0  0
    6.9305   -1.0700    1.1160 C   0  0  0  0  0  0  0  0  0  0  0  0
    7.1537   -1.4374    2.4293 C   0  0  0  0  0  0  0  0  0  0  0  0
    8.2357   -0.9653    3.1373 C   0  0  0  0  0  0  0  0  0  0  0  0
    9.0980   -0.1070    2.4909 C   0  0  0  0  0  0  0  0  0  0  0  0
    8.8799    0.2671    1.1699 C   0  0  0  0  0  0  0  0  0  0  0  0
    7.7960   -0.2078    0.4655 C   0  0  0  0  0  0  0  0  0  0  0  0
   -3.0233    0.5936   -0.8061 C   0  0  0  0  0  0  0  0  0  0  0  0
   -2.4920    0.9655    0.4367 C   0  0  0  0  0  0  0  0  0  0  0  0
   -2.8732    0.3689    1.6175 C   0  0  0  0  0  0  0  0  0  0  0  0
   -3.8011   -0.6282    1.6307 C   0  0  0  0  0  0  0  0  0  0  0  0
   -4.3513   -1.0289    0.4371 C   0  0  0  0  0  0  0  0  0  0  0  0
   -3.9571   -0.4156   -0.7629 C   0  0  0  0  0  0  0  0  0  0  0  0
   -4.1767   -1.2333    2.9102 C   0  0  0  0  0  0  0  0  0  0  0  0
   -5.0901   -2.2191    2.9689 N   0  0  0  0  0  0  0  0  0  0  0  0
   -5.4613   -2.7984    4.1232 C   0  0  0  0  0  0  0  0  0  0  0  0
   -4.9061   -2.3939    5.3181 C   0  0  0  0  0  0  0  0  0  0  0  0
   -3.9655   -1.3785    5.2563 C   0  0  0  0  0  0  0  0  0  0  0  0
   -3.6327   -0.8355    4.0726 N   0  0  0  0  0  0  0  0  0  0  0  0
   -7.6106    0.2120   -4.6729 H   0  0  0  0  0  0  0  0  0  0  0  0
   -6.1965   -0.2111   -5.7156 H   0  0  0  0  0  0  0  0  0  0  0  0
   -6.3129   -0.8077   -4.0175 H   0  0  0  0  0  0  0  0  0  0  0  0
   -6.3772    1.8870   -3.4742 H   0  0  0  0  0  0  0  0  0  0  0  0
   -5.4248    1.8843   -5.0499 H   0  0  0  0  0  0  0  0  0  0  0  0
   -2.2214    3.0520   -0.9707 H   0  0  0  0  0  0  0  0  0  0  0  0
   -1.9265    3.1900   -2.6928 H   0  0  0  0  0  0  0  0  0  0  0  0
    0.2857    2.9603   -2.4448 H   0  0  0  0  0  0  0  0  0  0  0  0
    0.0575    2.7483   -0.7112 H   0  0  0  0  0  0  0  0  0  0  0  0
   -1.7993    0.6262   -3.9668 H   0  0  0  0  0  0  0  0  0  0  0  0
   -2.4696   -0.6515   -2.9357 H   0  0  0  0  0  0  0  0  0  0  0  0
   -0.0193   -2.0512   -2.7854 H   0  0  0  0  0  0  0  0  0  0  0  0
    3.5057    0.4894   -1.1145 H   0  0  0  0  0  0  0  0  0  0  0  0
    2.7976    2.0877   -1.2374 H   0  0  0  0  0  0  0  0  0  0  0  0
    1.6645    1.9279    0.9537 H   0  0  0  0  0  0  0  0  0  0  0  0
    2.8326    0.9918    2.6112 H   0  0  0  0  0  0  0  0  0  0  0  0
    5.1587    0.2531    1.9761 H   0  0  0  0  0  0  0  0  0  0  0  0
    4.0867   -1.1301    2.2282 H   0  0  0  0  0  0  0  0  0  0  0  0
    6.0332   -1.9906   -0.6009 H   0  0  0  0  0  0  0  0  0  0  0  0
    5.4077   -2.5560    0.9522 H   0  0  0  0  0  0  0  0  0  0  0  0
    6.4616   -2.1114    2.9099 H   0  0  0  0  0  0  0  0  0  0  0  0
    8.3651   -1.2857    4.1676 H   0  0  0  0  0  0  0  0  0  0  0  0
    9.9407    0.2590    3.0463 H   0  0  0  0  0  0  0  0  0  0  0  0
    9.5693    0.9439    0.6771 H   0  0  0  0  0  0  0  0  0  0  0  0
    7.6186    0.0717   -0.5463 H   0  0  0  0  0  0  0  0  0  0  0  0
   -1.7589    1.7443    0.4596 H   0  0  0  0  0  0  0  0  0  0  0  0
   -2.4378    0.6840    2.5711 H   0  0  0  0  0  0  0  0  0  0  0  0
   -5.0956   -1.8234    0.4152 H   0  0  0  0  0  0  0  0  0  0  0  0
   -4.3984   -0.7582   -1.6895 H   0  0  0  0  0  0  0  0  0  0  0  0
   -6.1958   -3.5896    4.1609 H   0  0  0  0  0  0  0  0  0  0  0  0
   -5.1703   -2.8266    6.2695 H   0  0  0  0  0  0  0  0  0  0  0  0
   -3.5093   -1.0392    6.1947 H   0  0  0  0  0  0  0  0  0  0  0  0
  1  2  1  0
  2  3  1  0
  3  4  1  0
  4  5  2  0
  4  6  1  0
  6  7  1  0
  7  8  1  0
  8  9  1  0
  9 10  2  0
 10 11  1  0
 10 12  1  0
 12 13  1  0
 13 14  2  0
 14 15  1  0
 15 16  1  0
 16 17  2  0
 17 18  1  0
 18 19  1  0
 19 20  1  0
 20 21  1  0
 21 22  2  0
 22 23  1  0
 23 24  2  0
 24 25  1  0
 25 26  2  0
  6 27  1  0
 27 28  2  0
 28 29  1  0
 29 30  2  0
 30 31  1  0
 31 32  2  0
 30 33  1  0
 33 34  2  0
 34 35  1  0
 35 36  2  0
 36 37  1  0
 37 38  2  0
 11  6  1  0
 26 21  1  0
 32 27  1  0
 38 33  1  0
 14  9  1  0
  1 39  1  0
  1 40  1  0
  1 41  1  0
  2 42  1  0
  2 43  1  0
  7 44  1  0
  7 45  1  0
  8 46  1  0
  8 47  1  0
 11 48  1  0
 11 49  1  0
 12 50  1  0
 15 51  1  0
 15 52  1  0
 16 53  1  0
 17 54  1  0
 18 55  1  0
 18 56  1  0
 20 57  1  0
 20 58  1  0
 22 59  1  0
 23 60  1  0
 24 61  1  0
 25 62  1  0
 26 63  1  0
 28 64  1  0
 29 65  1  0
 31 66  1  0
 32 67  1  0
 35 68  1  0
 36 69  1  0
 37 70  1  0
M  END
$$$$
[H]OC([H])([H])c1c([H])c([H])c([H])c(C(=O)N([H])[C@]([H])(C(=O)N([H])[C@]([H])(C(=O)N([H])C([H])([H])c2c([H])c([H])c([H])c([H])c2[H])C([H])([H])C([H])([H])C(=O)N([H])[H])C([H])([H])C([H])([H])c2c([H])c([H])c([H])c([H])c2[H])c1[H]
     RDKit          3D

 73 75  0  0  0  0  0  0  0  0999 V2000
   -6.0183    1.6814   -3.8113 O   0  0  0  0  0  0  0  0  0  0  0  0
   -6.5184    2.9441   -3.5383 C   0  0  0  0  0  0  0  0  0  0  0  0
   -6.0078    3.4425   -2.2303 C   0  0  0  0  0  0  0  0  0  0  0  0
   -6.4513    4.7054   -1.8280 C   0  0  0  0  0  0  0  0  0  0  0  0
   -5.9885    5.1900   -0.6256 C   0  0  0  0  0  0  0  0  0  0  0  0
   -5.1202    4.4194    0.1185 C   0  0  0  0  0  0  0  0  0  0  0  0
   -4.6791    3.1725   -0.2733 C   0  0  0  0  0  0  0  0  0  0  0  0
   -5.1385    2.6948   -1.4637 C   0  0  0  0  0  0  0  0  0  0  0  0
   -3.7473    2.4425    0.5912 C   0  0  0  0  0  0  0  0  0  0  0  0
   -3.2743    3.0536    1.6078 O   0  0  0  0  0  0  0  0  0  0  0  0
   -3.3608    1.1308    0.3564 N   0  0  0  0  0  0  0  0  0  0  0  0
   -2.3859    0.5030    1.3347 C   0  0  1  0  0  0  0  0  0  0  0  0
   -3.1474   -0.6461    1.8429 C   0  0  0  0  0  0  0  0  0  0  0  0
   -2.6420   -1.5357    2.8504 C   0  0  0  0  0  0  0  0  0  0  0  0
   -1.4391   -2.3460    2.6457 C   0  0  0  0  0  0  0  0  0  0  0  0
   -0.2295   -2.1184    3.2613 C   0  0  0  0  0  0  0  0  0  0  0  0
    0.9009   -2.9012    3.0604 C   0  0  0  0  0  0  0  0  0  0  0  0
    0.8333   -3.9749    2.1984 C   0  0  0  0  0  0  0  0  0  0  0  0
   -0.3707   -4.2173    1.5728 C   0  0  0  0  0  0  0  0  0  0  0  0
   -1.4833   -3.4494    1.7687 C   0  0  0  0  0  0  0  0  0  0  0  0
   -1.2181    0.1106    0.5171 C   0  0  0  0  0  0  0  0  0  0  0  0
   -1.4426   -0.5505   -0.5259 O   0  0  0  0  0  0  0  0  0  0  0  0
    0.1165    0.4464    0.8286 N   0  0  0  0  0  0  0  0  0  0  0  0
    1.2048    0.0132   -0.0655 C   0  0  1  0  0  0  0  0  0  0  0  0
    1.4320    1.1639   -1.0617 C   0  0  0  0  0  0  0  0  0  0  0  0
    2.5321    0.8104   -2.0035 C   0  0  0  0  0  0  0  0  0  0  0  0
    2.6616    1.9265   -3.0010 C   0  0  0  0  0  0  0  0  0  0  0  0
    3.6318    1.8325   -4.0010 N   0  0  0  0  0  0  0  0  0  0  0  0
    1.8874    2.9180   -2.9061 O   0  0  0  0  0  0  0  0  0  0  0  0
    2.3626   -0.2218    0.7588 C   0  0  0  0  0  0  0  0  0  0  0  0
    2.4102    0.2521    1.9568 O   0  0  0  0  0  0  0  0  0  0  0  0
    3.5078   -0.9693    0.3559 N   0  0  0  0  0  0  0  0  0  0  0  0
    4.5983   -1.1219    1.2874 C   0  0  0  0  0  0  0  0  0  0  0  0
    5.6686   -1.9378    0.6851 C   0  0  0  0  0  0  0  0  0  0  0  0
    6.4472   -2.7464    1.5113 C   0  0  0  0  0  0  0  0  0  0  0  0
    7.4407   -3.4807    0.9265 C   0  0  0  0  0  0  0  0  0  0  0  0
    7.6647   -3.4253   -0.4277 C   0  0  0  0  0  0  0  0  0  0  0  0
    6.8985   -2.6320   -1.2286 C   0  0  0  0  0  0  0  0  0  0  0  0
    5.8853   -1.8751   -0.6697 C   0  0  0  0  0  0  0  0  0  0  0  0
   -6.6469    0.9992   -3.4799 H   0  0  0  0  0  0  0  0  0  0  0  0
   -6.1950    3.6596   -4.3342 H   0  0  0  0  0  0  0  0  0  0  0  0
   -7.6206    2.9038   -3.5320 H   0  0  0  0  0  0  0  0  0  0  0  0
   -7.1319    5.2862   -2.4354 H   0  0  0  0  0  0  0  0  0  0  0  0
   -6.3199    6.1774   -0.2841 H   0  0  0  0  0  0  0  0  0  0  0  0
   -4.7747    4.8441    1.0733 H   0  0  0  0  0  0  0  0  0  0  0  0
   -4.7982    1.7152   -1.7833 H   0  0  0  0  0  0  0  0  0  0  0  0
   -3.6624    0.5299   -0.4146 H   0  0  0  0  0  0  0  0  0  0  0  0
   -2.0860    1.2758    2.0414 H   0  0  0  0  0  0  0  0  0  0  0  0
   -3.5320   -1.2813    0.9349 H   0  0  0  0  0  0  0  0  0  0  0  0
   -4.1907   -0.2388    2.1811 H   0  0  0  0  0  0  0  0  0  0  0  0
   -2.4226   -0.9816    3.8490 H   0  0  0  0  0  0  0  0  0  0  0  0
   -3.4714   -2.2395    3.2125 H   0  0  0  0  0  0  0  0  0  0  0  0
   -0.1748   -1.2616    3.9509 H   0  0  0  0  0  0  0  0  0  0  0  0
    1.8295   -2.6482    3.5977 H   0  0  0  0  0  0  0  0  0  0  0  0
    1.7112   -4.5946    2.0329 H   0  0  0  0  0  0  0  0  0  0  0  0
   -0.4294   -5.0649    0.8879 H   0  0  0  0  0  0  0  0  0  0  0  0
   -2.4216   -3.6557    1.2682 H   0  0  0  0  0  0  0  0  0  0  0  0
    0.3639    0.9855    1.6572 H   0  0  0  0  0  0  0  0  0  0  0  0
    0.8151   -0.7973   -0.6756 H   0  0  0  0  0  0  0  0  0  0  0  0
    1.6242    2.1168   -0.5438 H   0  0  0  0  0  0  0  0  0  0  0  0
    0.4946    1.2271   -1.6945 H   0  0  0  0  0  0  0  0  0  0  0  0
    3.5260    0.7774   -1.4646 H   0  0  0  0  0  0  0  0  0  0  0  0
    2.3407   -0.1593   -2.4899 H   0  0  0  0  0  0  0  0  0  0  0  0
    3.6960    2.5871   -4.7453 H   0  0  0  0  0  0  0  0  0  0  0  0
    4.2880    1.0331   -4.0248 H   0  0  0  0  0  0  0  0  0  0  0  0
    3.4704   -1.3813   -0.6016 H   0  0  0  0  0  0  0  0  0  0  0  0
    4.9773   -0.1440    1.6620 H   0  0  0  0  0  0  0  0  0  0  0  0
    4.2499   -1.7017    2.1973 H   0  0  0  0  0  0  0  0  0  0  0  0
    6.2294   -2.7529    2.5647 H   0  0  0  0  0  0  0  0  0  0  0  0
    8.0524   -4.1089    1.5643 H   0  0  0  0  0  0  0  0  0  0  0  0
    8.4443   -4.0024   -0.8908 H   0  0  0  0  0  0  0  0  0  0  0  0
    7.0475   -2.5624   -2.3086 H   0  0  0  0  0  0  0  0  0  0  0  0
    5.2967   -1.2456   -1.3477 H   0  0  0  0  0  0  0  0  0  0  0  0
  1  2  1  0
  2  3  1  0
  3  4  2  0
  4  5  1  0
  5  6  2  0
  6  7  1  0
  7  8  2  0
  7  9  1  0
  9 10  2  0
  9 11  1  0
 11 12  1  0
 12 13  1  0
 13 14  1  0
 14 15  1  0
 15 16  2  0
 16 17  1  0
 17 18  2  0
 18 19  1  0
 19 20  2  0
 12 21  1  0
 21 22  2  0
 21 23  1  0
 23 24  1  0
 24 25  1  0
 25 26  1  0
 26 27  1  0
 27 28  1  0
 27 29  2  0
 24 30  1  0
 30 31  2  0
 30 32  1  0
 32 33  1  0
 33 34  1  0
 34 35  2  0
 35 36  1  0
 36 37  2  0
 37 38  1  0
 38 39  2  0
  8  3  1  0
 20 15  1  0
 39 34  1  0
  1 40  1  0
  2 41  1  0
  2 42  1  0
  4 43  1  0
  5 44  1  0
  6 45  1  0
  8 46  1  0
 11 47  1  0
 12 48  1  1
 13 49  1  0
 13 50  1  0
 14 51  1  0
 14 52  1  0
 16 53  1  0
 17 54  1  0
 18 55  1  0
 19 56  1  0
 20 57  1  0
 23 58  1  0
 24 59  1  6
 25 60  1  0
 25 61  1  0
 26 62  1  0
 26 63  1  0
 28 64  1  0
 28 65  1  0
 32 66  1  0
 33 67  1  0
 33 68  1  0
 35 69  1  0
 36 70  1  0
 37 71  1  0
 38 72  1  0
 39 73  1  0
M  END
$$$$
[H]OC(=O)C([H])([H])[C@@]([H])(C(=O)N([H])[C@@]([H])(C(=O)N([H])[C@]([H])(C(=O)N([H])[C@]([H])(C(=O)N([H])[C@]([H])(C(=O)N1C([H])([H])C([H])([H])C([H])([H])C1([H])[H])C([H])([H])C([H])(C([H])([H])[H])C([H])([H])[H])C([H])([H])c1c([H])c([H])c([H])c([H])c1[H])C([H])([H])C(=O)N([H])[H])C([H])([H])[H])N([H])C(=O)[C@@]([H])(N([H])C(=O)C([H])([H])[H])C([H])(C([H])([H])[H])C([H])([H])[H]
     RDKit          3D

111112  0  0  0  0  0  0  0  0999 V2000
   -7.2960    1.6001    4.5565 C   0  0  0  0  0  0  0  0  0  0  0  0
   -6.8005    1.9290    3.1199 C   0  0  0  0  0  0  0  0  0  0  0  0
   -5.3754    2.3824    3.3377 C   0  0  0  0  0  0  0  0  0  0  0  0
   -6.9776    0.6873    2.3630 C   0  0  0  0  0  0  0  0  0  0  0  0
   -6.6533    0.5799    0.9381 C   0  0  2  0  0  0  0  0  0  0  0  0
   -5.2334    0.8658    0.7244 N   0  0  0  0  0  0  0  0  0  0  0  0
   -4.3055   -0.1370    0.3879 C   0  0  0  0  0  0  0  0  0  0  0  0
   -4.8311   -1.3166    0.3013 O   0  0  0  0  0  0  0  0  0  0  0  0
   -2.8867   -0.0693    0.1306 C   0  0  2  0  0  0  0  0  0  0  0  0
   -2.4902    0.6052   -1.1944 C   0  0  0  0  0  0  0  0  0  0  0  0
   -2.9040    1.9917   -1.3299 C   0  0  0  0  0  0  0  0  0  0  0  0
   -2.0784    2.9599   -0.7428 C   0  0  0  0  0  0  0  0  0  0  0  0
   -2.3786    4.2963   -0.8603 C   0  0  0  0  0  0  0  0  0  0  0  0
   -3.4882    4.7395   -1.5504 C   0  0  0  0  0  0  0  0  0  0  0  0
   -4.2830    3.7638   -2.1189 C   0  0  0  0  0  0  0  0  0  0  0  0
   -4.0010    2.4259   -2.0128 C   0  0  0  0  0  0  0  0  0  0  0  0
   -2.3125   -1.4448   -0.0017 N   0  0  0  0  0  0  0  0  0  0  0  0
   -0.9969   -1.7329    0.4254 C   0  0  0  0  0  0  0  0  0  0  0  0
   -0.3173   -0.7996    0.9251 O   0  0  0  0  0  0  0  0  0  0  0  0
   -0.4605   -3.1328    0.2622 C   0  0  2  0  0  0  0  0  0  0  0  0
   -1.2176   -4.0718    1.1265 C   0  0  0  0  0  0  0  0  0  0  0  0
   -0.7309   -5.4477    0.9820 C   0  0  0  0  0  0  0  0  0  0  0  0
    0.1041   -5.8305   -0.0765 N   0  0  0  0  0  0  0  0  0  0  0  0
   -1.0818   -6.2957    1.8369 O   0  0  0  0  0  0  0  0  0  0  0  0
    0.9500   -3.1456    0.6504 N   0  0  0  0  0  0  0  0  0  0  0  0
    1.9722   -2.9722   -0.2964 C   0  0  0  0  0  0  0  0  0  0  0  0
    1.6676   -2.7970   -1.4985 O   0  0  0  0  0  0  0  0  0  0  0  0
    3.3906   -2.9872    0.1110 C   0  0  1  0  0  0  0  0  0  0  0  0
    3.8495   -4.3975    0.4513 C   0  0  0  0  0  0  0  0  0  0  0  0
    4.2504   -2.5130   -0.9809 N   0  0  0  0  0  0  0  0  0  0  0  0
    5.1496   -1.4695   -0.7254 C   0  0  0  0  0  0  0  0  0  0  0  0
    5.1791   -0.9981    0.5005 O   0  0  0  0  0  0  0  0  0  0  0  0
    6.0436   -0.8714   -1.6903 C   0  0  2  0  0  0  0  0  0  0  0  0
    6.0365   -1.4437   -3.0394 C   0  0  0  0  0  0  0  0  0  0  0  0
    4.7339   -1.3011   -3.7221 C   0  0  0  0  0  0  0  0  0  0  0  0
    3.7261   -0.5301   -3.2339 O   0  0  0  0  0  0  0  0  0  0  0  0
    4.5919   -1.9408   -4.8082 O   0  0  0  0  0  0  0  0  0  0  0  0
    7.3590   -0.6234   -1.1010 N   0  0  0  0  0  0  0  0  0  0  0  0
    7.8642    0.6895   -0.9747 C   0  0  0  0  0  0  0  0  0  0  0  0
    7.0698    1.6059   -1.4259 O   0  0  0  0  0  0  0  0  0  0  0  0
    9.1584    1.0540   -0.4028 C   0  0  1  0  0  0  0  0  0  0  0  0
    9.3353    2.5109   -0.6355 N   0  0  0  0  0  0  0  0  0  0  0  0
   10.4196    2.9242   -1.4058 C   0  0  0  0  0  0  0  0  0  0  0  0
   10.6658    4.3755   -1.6860 C   0  0  0  0  0  0  0  0  0  0  0  0
   11.2458    2.0853   -1.9047 O   0  0  0  0  0  0  0  0  0  0  0  0
    9.2359    0.8108    1.0895 C   0  0  0  0  0  0  0  0  0  0  0  0
   10.6110    1.2504    1.6091 C   0  0  0  0  0  0  0  0  0  0  0  0
    9.1602   -0.6697    1.3799 C   0  0  0  0  0  0  0  0  0  0  0  0
   -7.5017    1.3200    0.0181 C   0  0  0  0  0  0  0  0  0  0  0  0
   -7.1907    2.4490   -0.3648 O   0  0  0  0  0  0  0  0  0  0  0  0
   -8.7398    0.7758   -0.4938 N   0  0  0  0  0  0  0  0  0  0  0  0
   -9.3198   -0.4915   -0.2164 C   0  0  0  0  0  0  0  0  0  0  0  0
  -10.7585   -0.3663   -0.6480 C   0  0  0  0  0  0  0  0  0  0  0  0
  -10.7442    0.7184   -1.7090 C   0  0  0  0  0  0  0  0  0  0  0  0
   -9.5508    1.5352   -1.4030 C   0  0  0  0  0  0  0  0  0  0  0  0
   -8.1204    0.8620    4.4806 H   0  0  0  0  0  0  0  0  0  0  0  0
   -7.7217    2.5094    5.0077 H   0  0  0  0  0  0  0  0  0  0  0  0
   -6.4527    1.2370    5.1740 H   0  0  0  0  0  0  0  0  0  0  0  0
   -7.4557    2.7709    2.8066 H   0  0  0  0  0  0  0  0  0  0  0  0
   -5.0992    3.2453    2.6652 H   0  0  0  0  0  0  0  0  0  0  0  0
   -5.2307    2.7716    4.3847 H   0  0  0  0  0  0  0  0  0  0  0  0
   -4.6184    1.6114    3.1979 H   0  0  0  0  0  0  0  0  0  0  0  0
   -6.4708   -0.1352    2.9637 H   0  0  0  0  0  0  0  0  0  0  0  0
   -8.0748    0.3932    2.4894 H   0  0  0  0  0  0  0  0  0  0  0  0
   -6.7605   -0.5188    0.6364 H   0  0  0  0  0  0  0  0  0  0  0  0
   -4.9234    1.8463    0.8264 H   0  0  0  0  0  0  0  0  0  0  0  0
   -2.2458    0.4315    0.8726 H   0  0  0  0  0  0  0  0  0  0  0  0
   -3.0697    0.0238   -1.9750 H   0  0  0  0  0  0  0  0  0  0  0  0
   -1.4196    0.4652   -1.3948 H   0  0  0  0  0  0  0  0  0  0  0  0
   -1.1831    2.6432   -0.1841 H   0  0  0  0  0  0  0  0  0  0  0  0
   -1.7170    5.0348   -0.3893 H   0  0  0  0  0  0  0  0  0  0  0  0
   -3.7120    5.7934   -1.6339 H   0  0  0  0  0  0  0  0  0  0  0  0
   -5.1504    4.1335   -2.6607 H   0  0  0  0  0  0  0  0  0  0  0  0
   -4.6659    1.7220   -2.4816 H   0  0  0  0  0  0  0  0  0  0  0  0
   -2.8812   -2.2115   -0.4139 H   0  0  0  0  0  0  0  0  0  0  0  0
   -0.5102   -3.4263   -0.7929 H   0  0  0  0  0  0  0  0  0  0  0  0
   -2.3162   -4.1117    0.8383 H   0  0  0  0  0  0  0  0  0  0  0  0
   -1.1607   -3.8084    2.2129 H   0  0  0  0  0  0  0  0  0  0  0  0
    1.1287   -5.9858    0.0896 H   0  0  0  0  0  0  0  0  0  0  0  0
   -0.2614   -5.9774   -1.0685 H   0  0  0  0  0  0  0  0  0  0  0  0
    1.1866   -3.2873    1.6457 H   0  0  0  0  0  0  0  0  0  0  0  0
    3.6051   -2.3647    0.9916 H   0  0  0  0  0  0  0  0  0  0  0  0
    3.4847   -5.1137   -0.3068 H   0  0  0  0  0  0  0  0  0  0  0  0
    3.5573   -4.6973    1.4792 H   0  0  0  0  0  0  0  0  0  0  0  0
    4.9586   -4.4058    0.4125 H   0  0  0  0  0  0  0  0  0  0  0  0
    4.1621   -2.9797   -1.8739 H   0  0  0  0  0  0  0  0  0  0  0  0
    5.6600    0.2438   -1.8719 H   0  0  0  0  0  0  0  0  0  0  0  0
    6.7834   -0.8651   -3.6593 H   0  0  0  0  0  0  0  0  0  0  0  0
    6.3456   -2.5269   -2.9986 H   0  0  0  0  0  0  0  0  0  0  0  0
    3.7435    0.1399   -2.4882 H   0  0  0  0  0  0  0  0  0  0  0  0
    7.8824   -1.4423   -0.8071 H   0  0  0  0  0  0  0  0  0  0  0  0
    9.9964    0.4997   -0.8653 H   0  0  0  0  0  0  0  0  0  0  0  0
    8.6472    3.1389   -0.2142 H   0  0  0  0  0  0  0  0  0  0  0  0
   10.8981    4.9423   -0.7558 H   0  0  0  0  0  0  0  0  0  0  0  0
    9.7911    4.8598   -2.1473 H   0  0  0  0  0  0  0  0  0  0  0  0
   11.5497    4.5019   -2.3479 H   0  0  0  0  0  0  0  0  0  0  0  0
    8.4581    1.3778    1.5907 H   0  0  0  0  0  0  0  0  0  0  0  0
   10.7662    2.3224    1.3656 H   0  0  0  0  0  0  0  0  0  0  0  0
   10.5913    1.1434    2.7014 H   0  0  0  0  0  0  0  0  0  0  0  0
   11.3793    0.5801    1.1850 H   0  0  0  0  0  0  0  0  0  0  0  0
    9.6563   -0.8609    2.3773 H   0  0  0  0  0  0  0  0  0  0  0  0
    9.7553   -1.2262    0.6201 H   0  0  0  0  0  0  0  0  0  0  0  0
    8.1351   -1.0421    1.4843 H   0  0  0  0  0  0  0  0  0  0  0  0
   -9.2448   -0.8227    0.8455 H   0  0  0  0  0  0  0  0  0  0  0  0
   -8.8563   -1.2721   -0.8867 H   0  0  0  0  0  0  0  0  0  0  0  0
  -11.1619   -1.3319   -1.0538 H   0  0  0  0  0  0  0  0  0  0  0  0
  -11.3463   -0.0069    0.2237 H   0  0  0  0  0  0  0  0  0  0  0  0
  -11.6589    1.3649   -1.5786 H   0  0  0  0  0  0  0  0  0  0  0  0
  -10.6764    0.2933   -2.7258 H   0  0  0  0  0  0  0  0  0  0  0  0
   -8.9804    1.8696   -2.2992 H   0  0  0  0  0  0  0  0  0  0  0  0
   -9.8402    2.5134   -0.8987 H   0  0  0  0  0  0  0  0  0  0  0  0
  1  2  1  0
  2  3  1  0
  2  4  1  0
  4  5  1  0
  5  6  1  0
  6  7  1  0
  7  8  2  0
  7  9  1  0
  9 10  1  0
 10 11  1  0
 11 12  2  0
 12 13  1  0
 13 14  2  0
 14 15  1  0
 15 16  2  0
  9 17  1  0
 17 18  1  0
 18 19  2  0
 18 20  1  0
 20 21  1  0
 21 22  1  0
 22 23  1  0
 22 24  2  0
 20 25  1  0
 25 26  1  0
 26 27  2  0
 26 28  1  0
 28 29  1  0
 28 30  1  0
 30 31  1  0
 31 32  2  0
 31 33  1  0
 33 34  1  0
 34 35  1  0
 35 36  1  0
 35 37  2  0
 33 38  1  0
 38 39  1  0
 39 40  2  0
 39 41  1  0
 41 42  1  0
 42 43  1  0
 43 44  1  0
 43 45  2  0
 41 46  1  0
 46 47  1  0
 46 48  1  0
  5 49  1  0
 49 50  2  0
 49 51  1  0
 51 52  1  0
 52 53  1  0
 53 54  1  0
 54 55  1  0
 16 11  1  0
 55 51  1  0
  1 56  1  0
  1 57  1  0
  1 58  1  0
  2 59  1  0
  3 60  1  0
  3 61  1  0
  3 62  1  0
  4 63  1  0
  4 64  1  0
  5 65  1  6
  6 66  1  0
  9 67  1  1
 10 68  1  0
 10 69  1  0
 12 70  1  0
 13 71  1  0
 14 72  1  0
 15 73  1  0
 16 74  1  0
 17 75  1  0
 20 76  1  6
 21 77  1  0
 21 78  1  0
 23 79  1  0
 23 80  1  0
 25 81  1  0
 28 82  1  1
 29 83  1  0
 29 84  1  0
 29 85  1  0
 30 86  1  0
 33 87  1  6
 34 88  1  0
 34 89  1  0
 36 90  1  0
 38 91  1  0
 41 92  1  6
 42 93  1  0
 44 94  1  0
 44 95  1  0
 44 96  1  0
 46 97  1  0
 47 98  1  0
 47 99  1  0
 47100  1  0
 48101  1  0
 48102  1  0
 48103  1  0
 52104  1  0
 52105  1  0
 53106  1  0
 53107  1  0
 54108  1  0
 54109  1  0
 55110  1  0
 55111  1  0
M  END
$$$$
[H]O[C@]1([H])C([H])([H])C2=C([H])C([H])([H])[C@@]3([H])[C@]4([H])C([H])([H])C([H])=C(C5=NN([H])N=NN=C5C([H])([H])[H])[C@@]4(C([H])([H])[H])C([H])([H])C([H])([H])[C@]3([H])[C@@]2(C([H])([H])[H])C([H])([H])C1([H])[H]
     RDKit          3D

 59 63  0  0  0  0  0  0  0  0999 V2000
    1.5485    1.6771    0.7755 C   0  0  0  0  0  0  0  0  0  0  0  0
    1.6507    0.3105    0.1268 C   0  0  2  0  0  0  0  0  0  0  0  0
    1.0893    0.2825   -1.2522 C   0  0  0  0  0  0  0  0  0  0  0  0
   -0.3325   -0.0716   -1.4137 C   0  0  0  0  0  0  0  0  0  0  0  0
   -1.1523   -0.4042   -0.2298 C   0  0  1  0  0  0  0  0  0  0  0  0
   -0.4765   -0.2186    1.1117 C   0  0  1  0  0  0  0  0  0  0  0  0
   -1.2584   -0.9983    2.1434 C   0  0  0  0  0  0  0  0  0  0  0  0
   -2.6467   -0.4600    2.1303 C   0  0  0  0  0  0  0  0  0  0  0  0
   -3.2012    0.0869    1.0629 C   0  0  0  0  0  0  0  0  0  0  0  0
   -4.5989    0.5859    1.1873 C   0  0  0  0  0  0  0  0  0  0  0  0
   -5.3999    0.0850    0.0004 C   0  0  1  0  0  0  0  0  0  0  0  0
   -5.6384    1.0940   -0.9307 O   0  0  0  0  0  0  0  0  0  0  0  0
   -4.6510   -1.0207   -0.6936 C   0  0  0  0  0  0  0  0  0  0  0  0
   -3.3840   -0.4755   -1.2752 C   0  0  0  0  0  0  0  0  0  0  0  0
   -2.5275    0.2378   -0.2498 C   0  0  2  0  0  0  0  0  0  0  0  0
   -2.4443    1.6930   -0.6731 C   0  0  0  0  0  0  0  0  0  0  0  0
    0.9028   -0.7431    0.9030 C   0  0  2  0  0  0  0  0  0  0  0  0
    1.7502   -0.9067    2.0797 C   0  0  0  0  0  0  0  0  0  0  0  0
    3.1133   -0.8211    1.4010 C   0  0  0  0  0  0  0  0  0  0  0  0
    3.0477   -0.1336    0.2985 C   0  0  0  0  0  0  0  0  0  0  0  0
    4.0897    0.1597   -0.6578 C   0  0  0  0  0  0  0  0  0  0  0  0
    3.7391    0.9863   -1.6414 N   0  0  0  0  0  0  0  0  0  0  0  0
    4.5456    1.4422   -2.6894 N   0  0  0  0  0  0  0  0  0  0  0  0
    5.9325    1.7908   -2.5506 N   0  0  0  0  0  0  0  0  0  0  0  0
    6.7656    1.1140   -1.8280 N   0  0  0  0  0  0  0  0  0  0  0  0
    6.5104   -0.0278   -1.0800 N   0  0  0  0  0  0  0  0  0  0  0  0
    5.3785   -0.4708   -0.5645 C   0  0  0  0  0  0  0  0  0  0  0  0
    5.4628   -1.7972    0.0771 C   0  0  0  0  0  0  0  0  0  0  0  0
    0.8683    2.3582    0.2217 H   0  0  0  0  0  0  0  0  0  0  0  0
    2.5545    2.1913    0.7580 H   0  0  0  0  0  0  0  0  0  0  0  0
    1.2811    1.6188    1.8495 H   0  0  0  0  0  0  0  0  0  0  0  0
    1.2703    1.2748   -1.7213 H   0  0  0  0  0  0  0  0  0  0  0  0
    1.7066   -0.4477   -1.8539 H   0  0  0  0  0  0  0  0  0  0  0  0
   -0.8612    0.7968   -1.9214 H   0  0  0  0  0  0  0  0  0  0  0  0
   -0.4143   -0.8727   -2.2135 H   0  0  0  0  0  0  0  0  0  0  0  0
   -1.3679   -1.5168   -0.2803 H   0  0  0  0  0  0  0  0  0  0  0  0
   -0.5438    0.8392    1.3746 H   0  0  0  0  0  0  0  0  0  0  0  0
   -0.8111   -0.7479    3.1374 H   0  0  0  0  0  0  0  0  0  0  0  0
   -1.2245   -2.0901    1.9734 H   0  0  0  0  0  0  0  0  0  0  0  0
   -3.2053   -0.5409    3.0774 H   0  0  0  0  0  0  0  0  0  0  0  0
   -4.6572    1.6901    1.1778 H   0  0  0  0  0  0  0  0  0  0  0  0
   -5.0827    0.2498    2.1200 H   0  0  0  0  0  0  0  0  0  0  0  0
   -6.4091   -0.2633    0.3456 H   0  0  0  0  0  0  0  0  0  0  0  0
   -6.3730    0.7360   -1.5223 H   0  0  0  0  0  0  0  0  0  0  0  0
   -4.4825   -1.8983   -0.0370 H   0  0  0  0  0  0  0  0  0  0  0  0
   -5.2787   -1.3785   -1.5331 H   0  0  0  0  0  0  0  0  0  0  0  0
   -3.6647    0.1884   -2.1234 H   0  0  0  0  0  0  0  0  0  0  0  0
   -2.8186   -1.3458   -1.7190 H   0  0  0  0  0  0  0  0  0  0  0  0
   -2.6946    1.8068   -1.7494 H   0  0  0  0  0  0  0  0  0  0  0  0
   -1.4299    2.0924   -0.4518 H   0  0  0  0  0  0  0  0  0  0  0  0
   -3.1501    2.3283   -0.0977 H   0  0  0  0  0  0  0  0  0  0  0  0
    0.8772   -1.6612    0.3023 H   0  0  0  0  0  0  0  0  0  0  0  0
    1.6607   -0.1606    2.8677 H   0  0  0  0  0  0  0  0  0  0  0  0
    1.5923   -1.9126    2.5191 H   0  0  0  0  0  0  0  0  0  0  0  0
    3.9268   -1.2991    1.9201 H   0  0  0  0  0  0  0  0  0  0  0  0
    4.1512    1.5681   -3.6395 H   0  0  0  0  0  0  0  0  0  0  0  0
    4.5729   -2.4250   -0.0165 H   0  0  0  0  0  0  0  0  0  0  0  0
    6.2202   -2.3625   -0.5943 H   0  0  0  0  0  0  0  0  0  0  0  0
    5.9721   -1.8123    1.0514 H   0  0  0  0  0  0  0  0  0  0  0  0
  2  1  1  1
  2  3  1  0
  3  4  1  0
  4  5  1  0
  5  6  1  0
  6  7  1  0
  7  8  1  0
  8  9  2  0
  9 10  1  0
 10 11  1  0
 11 12  1  0
 11 13  1  0
 13 14  1  0
 14 15  1  0
 15 16  1  6
  6 17  1  0
 17 18  1  0
 18 19  1  0
 19 20  2  0
 20 21  1  0
 21 22  2  0
 22 23  1  0
 23 24  1  0
 24 25  2  0
 25 26  1  0
 26 27  2  0
 27 28  1  0
 17  2  1  0
 27 21  1  0
 20  2  1  0
 15  5  1  0
 15  9  1  0
  1 29  1  0
  1 30  1  0
  1 31  1  0
  3 32  1  0
  3 33  1  0
  4 34  1  0
  4 35  1  0
  5 36  1  6
  6 37  1  1
  7 38  1  0
  7 39  1  0
  8 40  1  0
 10 41  1  0
 10 42  1  0
 11 43  1  1
 12 44  1  0
 13 45  1  0
 13 46  1  0
 14 47  1  0
 14 48  1  0
 16 49  1  0
 16 50  1  0
 16 51  1  0
 17 52  1  6
 18 53  1  0
 18 54  1  0
 19 55  1  0
 23 56  1  0
 28 57  1  0
 28 58  1  0
 28 59  1  0
M  END
$$$$
[H]N=C(N([H])[H])N([H])C([H])([H])C([H])([H])C([H])([H])C([H])([H])[C@@]([H])(C(=O)c1nc2c(Br)c([H])c([H])c([H])c2s1)N([H])C(=O)[C@@]([H])(N([H])C(=O)[C@]([H])(N(C([H])([H])[H])C([H])([H])[H])C([H])([H])C([H])([H])C([H])([H])N=C(N([H])[H])N([H])[H])C([H])([H])C(=O)O[H]
     RDKit          3D

 82 83  0  0  0  0  0  0  0  0999 V2000
    3.5769    1.6003    0.3762 C   0  0  0  0  0  0  0  0  0  0  0  0
    4.5569    0.6132    0.6076 N   0  0  0  0  0  0  0  0  0  0  0  0
    5.1240    0.6286    1.9370 C   0  0  0  0  0  0  0  0  0  0  0  0
    4.5168   -0.6095   -0.0390 C   0  0  2  0  0  0  0  0  0  0  0  0
    4.7332   -0.5734   -1.5190 C   0  0  0  0  0  0  0  0  0  0  0  0
    6.0352   -0.0988   -2.0044 C   0  0  0  0  0  0  0  0  0  0  0  0
    6.4735    1.2987   -1.7883 C   0  0  0  0  0  0  0  0  0  0  0  0
    5.6827    2.3032   -2.4623 N   0  0  0  0  0  0  0  0  0  0  0  0
    6.1406    3.4954   -2.6045 C   0  0  0  0  0  0  0  0  0  0  0  0
    7.4282    3.8185   -2.0953 N   0  0  0  0  0  0  0  0  0  0  0  0
    5.3857    4.5051   -3.2629 N   0  0  0  0  0  0  0  0  0  0  0  0
    3.3864   -1.5225    0.2803 C   0  0  0  0  0  0  0  0  0  0  0  0
    3.2828   -2.5953   -0.3681 O   0  0  0  0  0  0  0  0  0  0  0  0
    2.4169   -1.2671    1.2679 N   0  0  0  0  0  0  0  0  0  0  0  0
    1.3256   -2.1175    1.6045 C   0  0  1  0  0  0  0  0  0  0  0  0
    1.2332   -2.2858    3.0818 C   0  0  0  0  0  0  0  0  0  0  0  0
    2.4286   -2.8784    3.7047 C   0  0  0  0  0  0  0  0  0  0  0  0
    3.5114   -3.2371    2.9311 O   0  0  0  0  0  0  0  0  0  0  0  0
    2.4590   -3.0567    4.9436 O   0  0  0  0  0  0  0  0  0  0  0  0
    0.0612   -1.5165    1.0456 C   0  0  0  0  0  0  0  0  0  0  0  0
    0.1746   -0.4625    0.4079 O   0  0  0  0  0  0  0  0  0  0  0  0
   -1.1432   -2.1650    1.2719 N   0  0  0  0  0  0  0  0  0  0  0  0
   -2.4802   -1.7814    0.8617 C   0  0  1  0  0  0  0  0  0  0  0  0
   -2.6086   -0.2986    0.5579 C   0  0  0  0  0  0  0  0  0  0  0  0
   -2.3502    0.5623    1.7603 C   0  0  0  0  0  0  0  0  0  0  0  0
   -2.4389    2.0153    1.3677 C   0  0  0  0  0  0  0  0  0  0  0  0
   -3.7994    2.3108    0.8408 C   0  0  0  0  0  0  0  0  0  0  0  0
   -3.9338    3.7195    0.4623 N   0  0  0  0  0  0  0  0  0  0  0  0
   -5.1918    4.1007   -0.0527 C   0  0  0  0  0  0  0  0  0  0  0  0
   -5.9277    3.2549   -0.9149 N   0  0  0  0  0  0  0  0  0  0  0  0
   -5.6810    5.2402    0.2669 N   0  0  0  0  0  0  0  0  0  0  0  0
   -2.9075   -2.6591   -0.1962 C   0  0  0  0  0  0  0  0  0  0  0  0
   -2.1062   -3.4923   -0.7100 O   0  0  0  0  0  0  0  0  0  0  0  0
   -4.2765   -2.6421   -0.7289 C   0  0  0  0  0  0  0  0  0  0  0  0
   -4.7716   -3.3883   -1.7086 N   0  0  0  0  0  0  0  0  0  0  0  0
   -6.0215   -3.2672   -2.0520 C   0  0  0  0  0  0  0  0  0  0  0  0
   -6.6819   -3.9941   -3.0722 C   0  0  0  0  0  0  0  0  0  0  0  0
   -5.7845   -5.2958   -4.1137 Br  0  0  0  0  0  0  0  0  0  0  0  0
   -7.9977   -3.7540   -3.3135 C   0  0  0  0  0  0  0  0  0  0  0  0
   -8.7755   -2.8408   -2.6377 C   0  0  0  0  0  0  0  0  0  0  0  0
   -8.1390   -2.1340   -1.6478 C   0  0  0  0  0  0  0  0  0  0  0  0
   -6.7818   -2.3531   -1.3685 C   0  0  0  0  0  0  0  0  0  0  0  0
   -5.6374   -1.7235   -0.2673 S   0  0  0  0  0  0  0  0  0  0  0  0
    3.0893    1.8723    1.3504 H   0  0  0  0  0  0  0  0  0  0  0  0
    2.7752    1.3444   -0.3186 H   0  0  0  0  0  0  0  0  0  0  0  0
    4.0565    2.5498    0.0447 H   0  0  0  0  0  0  0  0  0  0  0  0
    6.0084    1.3250    2.0001 H   0  0  0  0  0  0  0  0  0  0  0  0
    4.4016    0.9881    2.6902 H   0  0  0  0  0  0  0  0  0  0  0  0
    5.5078   -0.3686    2.2281 H   0  0  0  0  0  0  0  0  0  0  0  0
    5.4282   -1.2156    0.3696 H   0  0  0  0  0  0  0  0  0  0  0  0
    3.8788    0.0092   -1.9680 H   0  0  0  0  0  0  0  0  0  0  0  0
    4.5512   -1.6293   -1.8782 H   0  0  0  0  0  0  0  0  0  0  0  0
    6.8627   -0.8295   -1.7437 H   0  0  0  0  0  0  0  0  0  0  0  0
    5.9959   -0.2194   -3.1485 H   0  0  0  0  0  0  0  0  0  0  0  0
    7.5254    1.4572   -2.1895 H   0  0  0  0  0  0  0  0  0  0  0  0
    6.5253    1.6001   -0.7161 H   0  0  0  0  0  0  0  0  0  0  0  0
    8.2823    3.8835   -2.6942 H   0  0  0  0  0  0  0  0  0  0  0  0
    7.5900    4.0129   -1.0677 H   0  0  0  0  0  0  0  0  0  0  0  0
    4.3878    4.6722   -3.0088 H   0  0  0  0  0  0  0  0  0  0  0  0
    5.8671    5.0625   -3.9999 H   0  0  0  0  0  0  0  0  0  0  0  0
    2.5137   -0.3629    1.8111 H   0  0  0  0  0  0  0  0  0  0  0  0
    1.4404   -3.0803    1.0659 H   0  0  0  0  0  0  0  0  0  0  0  0
    1.1508   -1.2443    3.5159 H   0  0  0  0  0  0  0  0  0  0  0  0
    0.2933   -2.7792    3.4115 H   0  0  0  0  0  0  0  0  0  0  0  0
    3.7358   -4.1895    2.7225 H   0  0  0  0  0  0  0  0  0  0  0  0
   -1.0587   -3.0907    1.8384 H   0  0  0  0  0  0  0  0  0  0  0  0
   -3.1717   -1.8678    1.7861 H   0  0  0  0  0  0  0  0  0  0  0  0
   -2.0459   -0.0549   -0.3361 H   0  0  0  0  0  0  0  0  0  0  0  0
   -3.6960   -0.1485    0.3130 H   0  0  0  0  0  0  0  0  0  0  0  0
   -1.5209    0.2927    2.3987 H   0  0  0  0  0  0  0  0  0  0  0  0
   -3.2632    0.4336    2.4653 H   0  0  0  0  0  0  0  0  0  0  0  0
   -1.6319    2.1822    0.6194 H   0  0  0  0  0  0  0  0  0  0  0  0
   -2.2092    2.6915    2.2105 H   0  0  0  0  0  0  0  0  0  0  0  0
   -4.0647    1.7532   -0.0870 H   0  0  0  0  0  0  0  0  0  0  0  0
   -4.5413    2.1122    1.6326 H   0  0  0  0  0  0  0  0  0  0  0  0
   -3.1326    4.3808    0.5770 H   0  0  0  0  0  0  0  0  0  0  0  0
   -5.9913    3.3490   -1.9406 H   0  0  0  0  0  0  0  0  0  0  0  0
   -6.4542    2.4631   -0.4723 H   0  0  0  0  0  0  0  0  0  0  0  0
   -6.6014    5.5637   -0.0867 H   0  0  0  0  0  0  0  0  0  0  0  0
   -8.5355   -4.3074   -4.1033 H   0  0  0  0  0  0  0  0  0  0  0  0
   -9.8038   -2.6675   -2.8417 H   0  0  0  0  0  0  0  0  0  0  0  0
   -8.6429   -1.4001   -1.0591 H   0  0  0  0  0  0  0  0  0  0  0  0
  1  2  1  0
  2  3  1  0
  2  4  1  0
  4  5  1  0
  5  6  1  0
  6  7  1  0
  7  8  1  0
  8  9  2  3
  9 10  1  0
  9 11  1  0
  4 12  1  0
 12 13  2  0
 12 14  1  0
 14 15  1  0
 15 16  1  0
 16 17  1  0
 17 18  1  0
 17 19  2  0
 15 20  1  0
 20 21  2  0
 20 22  1  0
 22 23  1  0
 23 24  1  0
 24 25  1  0
 25 26  1  0
 26 27  1  0
 27 28  1  0
 28 29  1  0
 29 30  1  0
 29 31  2  3
 23 32  1  0
 32 33  2  0
 32 34  1  0
 34 35  2  0
 35 36  1  0
 36 37  2  0
 37 38  1  0
 37 39  1  0
 39 40  2  0
 40 41  1  0
 41 42  2  0
 42 43  1  0
 43 34  1  0
 42 36  1  0
  1 44  1  0
  1 45  1  0
  1 46  1  0
  3 47  1  0
  3 48  1  0
  3 49  1  0
  4 50  1  1
  5 51  1  0
  5 52  1  0
  6 53  1  0
  6 54  1  0
  7 55  1  0
  7 56  1  0
 10 57  1  0
 10 58  1  0
 11 59  1  0
 11 60  1  0
 14 61  1  0
 15 62  1  6
 16 63  1  0
 16 64  1  0
 18 65  1  0
 22 66  1  0
 23 67  1  1
 24 68  1  0
 24 69  1  0
 25 70  1  0
 25 71  1  0
 26 72  1  0
 26 73  1  0
 27 74  1  0
 27 75  1  0
 28 76  1  0
 30 77  1  0
 30 78  1  0
 31 79  1  0
 39 80  1  0
 40 81  1  0
 41 82  1  0
M  END
$$$$
[H]c1nc(-c2c([H])c([H])c(F)c(OC([H])([H])C([H])(C([H])([H])[H])C([H])([H])[H])c2[H])c(C2([H])C([H])([H])N(c3nc4c([H])c(F)c([H])c([H])c4c([H])c3[H])C2([H])[H])nc1[H]
     RDKit          3D

 57 61  0  0  0  0  0  0  0  0999 V2000
   -6.9775    1.7979   -0.3267 C   0  0  0  0  0  0  0  0  0  0  0  0
   -5.7590    1.8739   -1.2552 C   0  0  0  0  0  0  0  0  0  0  0  0
   -5.2858    3.2867   -1.3137 C   0  0  0  0  0  0  0  0  0  0  0  0
   -4.7370    0.9211   -0.6946 C   0  0  0  0  0  0  0  0  0  0  0  0
   -4.3459    1.2399    0.6052 O   0  0  0  0  0  0  0  0  0  0  0  0
   -3.3938    0.4093    1.2215 C   0  0  0  0  0  0  0  0  0  0  0  0
   -2.8537   -0.6851    0.5825 C   0  0  0  0  0  0  0  0  0  0  0  0
   -1.9072   -1.4972    1.2174 C   0  0  0  0  0  0  0  0  0  0  0  0
   -1.4923   -1.2294    2.4884 C   0  0  0  0  0  0  0  0  0  0  0  0
   -2.0234   -0.1218    3.1653 C   0  0  0  0  0  0  0  0  0  0  0  0
   -2.9503    0.6503    2.5054 C   0  0  0  0  0  0  0  0  0  0  0  0
   -3.4892    1.7369    3.1315 F   0  0  0  0  0  0  0  0  0  0  0  0
   -1.4143   -2.6470    0.4966 C   0  0  0  0  0  0  0  0  0  0  0  0
   -2.3122   -3.5341   -0.0377 N   0  0  0  0  0  0  0  0  0  0  0  0
   -1.9350   -4.6023   -0.7487 C   0  0  0  0  0  0  0  0  0  0  0  0
   -0.5972   -4.8521   -0.9731 C   0  0  0  0  0  0  0  0  0  0  0  0
    0.2721   -3.9926   -0.4560 N   0  0  0  0  0  0  0  0  0  0  0  0
   -0.0801   -2.9035    0.2672 C   0  0  0  0  0  0  0  0  0  0  0  0
    0.9996   -2.0302    0.7649 C   0  0  0  0  0  0  0  0  0  0  0  0
    2.3357   -2.4273    0.1193 C   0  0  0  0  0  0  0  0  0  0  0  0
    2.6592   -1.0212   -0.0108 N   0  0  0  0  0  0  0  0  0  0  0  0
    1.2474   -0.7533    0.0271 C   0  0  0  0  0  0  0  0  0  0  0  0
    3.9108   -0.3415   -0.1196 C   0  0  0  0  0  0  0  0  0  0  0  0
    5.1112   -1.0196   -0.0603 C   0  0  0  0  0  0  0  0  0  0  0  0
    6.3340   -0.3681   -0.1677 C   0  0  0  0  0  0  0  0  0  0  0  0
    6.3504    0.9946   -0.3388 C   0  0  0  0  0  0  0  0  0  0  0  0
    7.5521    1.6942   -0.4533 C   0  0  0  0  0  0  0  0  0  0  0  0
    7.5693    3.0491   -0.6243 C   0  0  0  0  0  0  0  0  0  0  0  0
    6.3601    3.7028   -0.6801 C   0  0  0  0  0  0  0  0  0  0  0  0
    6.3397    5.0679   -0.8519 F   0  0  0  0  0  0  0  0  0  0  0  0
    5.1745    3.0272   -0.5692 C   0  0  0  0  0  0  0  0  0  0  0  0
    5.1482    1.6641   -0.3970 C   0  0  0  0  0  0  0  0  0  0  0  0
    3.9659    0.9890   -0.2872 N   0  0  0  0  0  0  0  0  0  0  0  0
   -6.6878    1.8713    0.7302 H   0  0  0  0  0  0  0  0  0  0  0  0
   -7.4480    0.8080   -0.5455 H   0  0  0  0  0  0  0  0  0  0  0  0
   -7.6843    2.5750   -0.6624 H   0  0  0  0  0  0  0  0  0  0  0  0
   -6.1221    1.5788   -2.2449 H   0  0  0  0  0  0  0  0  0  0  0  0
   -6.1993    3.9280   -1.4866 H   0  0  0  0  0  0  0  0  0  0  0  0
   -4.8096    3.6585   -0.4034 H   0  0  0  0  0  0  0  0  0  0  0  0
   -4.6520    3.4330   -2.2237 H   0  0  0  0  0  0  0  0  0  0  0  0
   -3.8500    0.9718   -1.3854 H   0  0  0  0  0  0  0  0  0  0  0  0
   -5.1251   -0.1097   -0.7652 H   0  0  0  0  0  0  0  0  0  0  0  0
   -3.1843   -0.9075   -0.4430 H   0  0  0  0  0  0  0  0  0  0  0  0
   -0.7842   -1.8167    3.0557 H   0  0  0  0  0  0  0  0  0  0  0  0
   -1.6979    0.0997    4.1789 H   0  0  0  0  0  0  0  0  0  0  0  0
   -2.6894   -5.2870   -1.1587 H   0  0  0  0  0  0  0  0  0  0  0  0
   -0.3208   -5.7230   -1.5508 H   0  0  0  0  0  0  0  0  0  0  0  0
    1.1315   -1.9846    1.8676 H   0  0  0  0  0  0  0  0  0  0  0  0
    2.1764   -2.8375   -0.9132 H   0  0  0  0  0  0  0  0  0  0  0  0
    2.9778   -3.0309    0.7564 H   0  0  0  0  0  0  0  0  0  0  0  0
    0.7188   -0.7791   -0.9556 H   0  0  0  0  0  0  0  0  0  0  0  0
    0.9650    0.1777    0.5666 H   0  0  0  0  0  0  0  0  0  0  0  0
    5.0983   -2.0974    0.0748 H   0  0  0  0  0  0  0  0  0  0  0  0
    7.2294   -0.9427   -0.1137 H   0  0  0  0  0  0  0  0  0  0  0  0
    8.4861    1.1623   -0.4071 H   0  0  0  0  0  0  0  0  0  0  0  0
    8.4750    3.6074   -0.7134 H   0  0  0  0  0  0  0  0  0  0  0  0
    4.2200    3.5662   -0.6173 H   0  0  0  0  0  0  0  0  0  0  0  0
  1  2  1  0
  2  3  1  0
  2  4  1  0
  4  5  1  0
  5  6  1  0
  6  7  2  0
  7  8  1  0
  8  9  2  0
  9 10  1  0
 10 11  2  0
 11 12  1  0
  8 13  1  0
 13 14  2  0
 14 15  1  0
 15 16  2  0
 16 17  1  0
 17 18  2  0
 18 19  1  0
 19 20  1  0
 20 21  1  0
 21 22  1  0
 21 23  1  0
 23 24  2  0
 24 25  1  0
 25 26  2  0
 26 27  1  0
 27 28  2  0
 28 29  1  0
 29 30  1  0
 29 31  2  0
 31 32  1  0
 32 33  2  0
 11  6  1  0
 18 13  1  0
 22 19  1  0
 33 23  1  0
 32 26  1  0
  1 34  1  0
  1 35  1  0
  1 36  1  0
  2 37  1  0
  3 38  1  0
  3 39  1  0
  3 40  1  0
  4 41  1  0
  4 42  1  0
  7 43  1  0
  9 44  1  0
 10 45  1  0
 15 46  1  0
 16 47  1  0
 19 48  1  0
 20 49  1  0
 20 50  1  0
 22 51  1  0
 22 52  1  0
 24 53  1  0
 25 54  1  0
 27 55  1  0
 28 56  1  0
 31 57  1  0
M  END
$$$$
[H]OC([H])([H])C([H])([H])N([H])c1nc(N([H])c2c([H])c([H])c(C([H])=C3C([H])([H])C([H])([H])N([H])C([H])([H])C3([H])[H])c(C(F)(F)F)c2[H])nc([H])c1[H]
     RDKit          3D

 50 52  0  0  0  0  0  0  0  0999 V2000
   -2.9800   -2.6029   -2.0323 F   0  0  0  0  0  0  0  0  0  0  0  0
   -1.9404   -2.9557   -1.2258 C   0  0  0  0  0  0  0  0  0  0  0  0
   -0.9602   -3.4737   -2.0735 F   0  0  0  0  0  0  0  0  0  0  0  0
   -2.2023   -3.8873   -0.2778 F   0  0  0  0  0  0  0  0  0  0  0  0
   -1.3365   -1.7439   -0.5550 C   0  0  0  0  0  0  0  0  0  0  0  0
   -0.0216   -1.4372   -0.7449 C   0  0  0  0  0  0  0  0  0  0  0  0
    0.6332   -0.3319   -0.1710 C   0  0  0  0  0  0  0  0  0  0  0  0
    1.9886   -0.1129   -0.4552 N   0  0  0  0  0  0  0  0  0  0  0  0
    2.8770    0.6449    0.3129 C   0  0  0  0  0  0  0  0  0  0  0  0
    2.5979    1.2839    1.4534 N   0  0  0  0  0  0  0  0  0  0  0  0
    3.4410    2.0013    2.1855 C   0  0  0  0  0  0  0  0  0  0  0  0
    4.7398    2.1196    1.7563 C   0  0  0  0  0  0  0  0  0  0  0  0
    5.1043    1.4746    0.5664 C   0  0  0  0  0  0  0  0  0  0  0  0
    6.4486    1.6168    0.1329 N   0  0  0  0  0  0  0  0  0  0  0  0
    6.9098    0.9603   -1.0533 C   0  0  0  0  0  0  0  0  0  0  0  0
    6.9183   -0.5439   -0.9702 C   0  0  0  0  0  0  0  0  0  0  0  0
    7.7534   -0.9736    0.0689 O   0  0  0  0  0  0  0  0  0  0  0  0
    4.1862    0.7767   -0.0999 N   0  0  0  0  0  0  0  0  0  0  0  0
   -0.1467    0.4512    0.6174 C   0  0  0  0  0  0  0  0  0  0  0  0
   -1.5062    0.1520    0.8275 C   0  0  0  0  0  0  0  0  0  0  0  0
   -2.1061   -0.9368    0.2491 C   0  0  0  0  0  0  0  0  0  0  0  0
   -3.4982   -1.2061    0.5294 C   0  0  0  0  0  0  0  0  0  0  0  0
   -4.4942   -0.3731    0.5254 C   0  0  0  0  0  0  0  0  0  0  0  0
   -5.8812   -0.8680    0.8527 C   0  0  0  0  0  0  0  0  0  0  0  0
   -6.6492   -0.7658   -0.4628 C   0  0  0  0  0  0  0  0  0  0  0  0
   -6.5083    0.5450   -1.0494 N   0  0  0  0  0  0  0  0  0  0  0  0
   -5.8862    1.4747   -0.1430 C   0  0  0  0  0  0  0  0  0  0  0  0
   -4.4411    1.0748    0.2019 C   0  0  0  0  0  0  0  0  0  0  0  0
    0.5787   -2.0799   -1.3806 H   0  0  0  0  0  0  0  0  0  0  0  0
    2.3674   -0.5674   -1.3406 H   0  0  0  0  0  0  0  0  0  0  0  0
    3.1436    2.4947    3.1045 H   0  0  0  0  0  0  0  0  0  0  0  0
    5.4774    2.6788    2.2893 H   0  0  0  0  0  0  0  0  0  0  0  0
    7.1197    2.2121    0.6897 H   0  0  0  0  0  0  0  0  0  0  0  0
    7.9773    1.2580   -1.2663 H   0  0  0  0  0  0  0  0  0  0  0  0
    6.3324    1.2508   -1.9702 H   0  0  0  0  0  0  0  0  0  0  0  0
    7.3780   -0.9618   -1.9049 H   0  0  0  0  0  0  0  0  0  0  0  0
    5.9213   -0.9574   -0.7970 H   0  0  0  0  0  0  0  0  0  0  0  0
    8.5572   -0.3919    0.0776 H   0  0  0  0  0  0  0  0  0  0  0  0
    0.2531    1.3291    1.0870 H   0  0  0  0  0  0  0  0  0  0  0  0
   -2.0240    0.8414    1.4774 H   0  0  0  0  0  0  0  0  0  0  0  0
   -3.7203   -2.2570    0.7789 H   0  0  0  0  0  0  0  0  0  0  0  0
   -6.3548   -0.2728    1.6326 H   0  0  0  0  0  0  0  0  0  0  0  0
   -5.8709   -1.9318    1.1515 H   0  0  0  0  0  0  0  0  0  0  0  0
   -6.1959   -1.5057   -1.1504 H   0  0  0  0  0  0  0  0  0  0  0  0
   -7.7148   -1.0465   -0.3205 H   0  0  0  0  0  0  0  0  0  0  0  0
   -5.9659    0.5478   -1.9377 H   0  0  0  0  0  0  0  0  0  0  0  0
   -5.8172    2.4659   -0.6349 H   0  0  0  0  0  0  0  0  0  0  0  0
   -6.4840    1.5946    0.7680 H   0  0  0  0  0  0  0  0  0  0  0  0
   -4.1605    1.7269    1.0261 H   0  0  0  0  0  0  0  0  0  0  0  0
   -3.8373    1.2092   -0.7301 H   0  0  0  0  0  0  0  0  0  0  0  0
  1  2  1  0
  2  3  1  0
  2  4  1  0
  2  5  1  0
  5  6  2  0
  6  7  1  0
  7  8  1  0
  8  9  1  0
  9 10  2  0
 10 11  1  0
 11 12  2  0
 12 13  1  0
 13 14  1  0
 14 15  1  0
 15 16  1  0
 16 17  1  0
 13 18  2  0
  7 19  2  0
 19 20  1  0
 20 21  2  0
 21 22  1  0
 22 23  2  3
 23 24  1  0
 24 25  1  0
 25 26  1  0
 26 27  1  0
 27 28  1  0
 21  5  1  0
 28 23  1  0
 18  9  1  0
  6 29  1  0
  8 30  1  0
 11 31  1  0
 12 32  1  0
 14 33  1  0
 15 34  1  0
 15 35  1  0
 16 36  1  0
 16 37  1  0
 17 38  1  0
 19 39  1  0
 20 40  1  0
 22 41  1  0
 24 42  1  0
 24 43  1  0
 25 44  1  0
 25 45  1  0
 26 46  1  0
 27 47  1  0
 27 48  1  0
 28 49  1  0
 28 50  1  0
M  END
$$$$
[H]OC([H])([H])[C@]12C([H])([H])C(=O)C([H])=C([H])C1([H])C([H])=C([H])C([H])([H])[C@]2([H])[C@]([H])(C([H])([H])[H])C([H])([H])C(=O)N1C([H])([H])C([H])([H])C([H])([H])C12C([H])([H])C2([H])[H]
     RDKit          3D

 54 57  0  0  0  0  0  0  0  0999 V2000
   -0.1605    1.4789    1.6341 C   0  0  0  0  0  0  0  0  0  0  0  0
   -0.4399    0.0913    1.1479 C   0  0  2  0  0  0  0  0  0  0  0  0
    0.8952   -0.6228    1.1186 C   0  0  0  0  0  0  0  0  0  0  0  0
    1.8740    0.0253    0.2076 C   0  0  0  0  0  0  0  0  0  0  0  0
    1.5892    1.0531   -0.4698 O   0  0  0  0  0  0  0  0  0  0  0  0
    3.1885   -0.4889    0.0568 N   0  0  0  0  0  0  0  0  0  0  0  0
    3.6756   -1.6596    0.7609 C   0  0  0  0  0  0  0  0  0  0  0  0
    5.1903   -1.4648    0.8013 C   0  0  0  0  0  0  0  0  0  0  0  0
    5.4120   -0.9199   -0.6158 C   0  0  0  0  0  0  0  0  0  0  0  0
    4.2470    0.0034   -0.7674 C   0  0  0  0  0  0  0  0  0  0  0  0
    4.5635    1.4519   -0.8493 C   0  0  0  0  0  0  0  0  0  0  0  0
    4.0232    0.6663   -2.0640 C   0  0  0  0  0  0  0  0  0  0  0  0
   -1.2483   -0.0868   -0.0618 C   0  0  1  0  0  0  0  0  0  0  0  0
   -1.3929   -1.5675   -0.4263 C   0  0  0  0  0  0  0  0  0  0  0  0
   -2.3539   -2.2284    0.4728 C   0  0  0  0  0  0  0  0  0  0  0  0
   -3.2585   -1.6183    1.2056 C   0  0  0  0  0  0  0  0  0  0  0  0
   -3.3858   -0.1362    1.1805 C   0  0  0  0  0  0  0  0  0  0  0  0
   -4.8080    0.2678    1.2748 C   0  0  0  0  0  0  0  0  0  0  0  0
   -5.4759    0.6066    0.2050 C   0  0  0  0  0  0  0  0  0  0  0  0
   -4.8367    0.5953   -1.0921 C   0  0  0  0  0  0  0  0  0  0  0  0
   -5.4219    1.0647   -2.0898 O   0  0  0  0  0  0  0  0  0  0  0  0
   -3.4515    0.0149   -1.2566 C   0  0  0  0  0  0  0  0  0  0  0  0
   -2.6933    0.4208   -0.0049 C   0  0  2  0  0  0  0  0  0  0  0  0
   -2.6819    1.9430   -0.0714 C   0  0  0  0  0  0  0  0  0  0  0  0
   -2.0183    2.2610   -1.2800 O   0  0  0  0  0  0  0  0  0  0  0  0
   -0.0672    2.2479    0.8652 H   0  0  0  0  0  0  0  0  0  0  0  0
    0.8367    1.5119    2.1959 H   0  0  0  0  0  0  0  0  0  0  0  0
   -0.8662    1.8024    2.4570 H   0  0  0  0  0  0  0  0  0  0  0  0
   -1.0211   -0.4009    1.9975 H   0  0  0  0  0  0  0  0  0  0  0  0
    0.8492   -1.7023    1.0506 H   0  0  0  0  0  0  0  0  0  0  0  0
    1.3265   -0.4251    2.1513 H   0  0  0  0  0  0  0  0  0  0  0  0
    3.4453   -2.5317    0.0980 H   0  0  0  0  0  0  0  0  0  0  0  0
    3.2558   -1.7659    1.7690 H   0  0  0  0  0  0  0  0  0  0  0  0
    5.7330   -2.3907    0.9818 H   0  0  0  0  0  0  0  0  0  0  0  0
    5.4178   -0.6480    1.4941 H   0  0  0  0  0  0  0  0  0  0  0  0
    5.3181   -1.7788   -1.3374 H   0  0  0  0  0  0  0  0  0  0  0  0
    6.3827   -0.4262   -0.7137 H   0  0  0  0  0  0  0  0  0  0  0  0
    3.8774    2.2139   -0.4351 H   0  0  0  0  0  0  0  0  0  0  0  0
    5.6246    1.7590   -0.8853 H   0  0  0  0  0  0  0  0  0  0  0  0
    3.0395    0.9350   -2.4580 H   0  0  0  0  0  0  0  0  0  0  0  0
    4.7840    0.5216   -2.8765 H   0  0  0  0  0  0  0  0  0  0  0  0
   -0.7789    0.3997   -0.9295 H   0  0  0  0  0  0  0  0  0  0  0  0
   -0.4220   -2.0978   -0.4441 H   0  0  0  0  0  0  0  0  0  0  0  0
   -1.7619   -1.6068   -1.4588 H   0  0  0  0  0  0  0  0  0  0  0  0
   -2.3154   -3.3162    0.5394 H   0  0  0  0  0  0  0  0  0  0  0  0
   -3.9359   -2.2179    1.8514 H   0  0  0  0  0  0  0  0  0  0  0  0
   -2.9229    0.2023    2.1497 H   0  0  0  0  0  0  0  0  0  0  0  0
   -5.2944    0.2757    2.2724 H   0  0  0  0  0  0  0  0  0  0  0  0
   -6.5042    0.8949    0.2874 H   0  0  0  0  0  0  0  0  0  0  0  0
   -3.0249    0.4652   -2.1620 H   0  0  0  0  0  0  0  0  0  0  0  0
   -3.6214   -1.0397   -1.4027 H   0  0  0  0  0  0  0  0  0  0  0  0
   -2.3726    2.4706    0.7966 H   0  0  0  0  0  0  0  0  0  0  0  0
   -3.7302    2.3190   -0.2940 H   0  0  0  0  0  0  0  0  0  0  0  0
   -2.2824    3.1773   -1.5621 H   0  0  0  0  0  0  0  0  0  0  0  0
  1  2  1  0
  2  3  1  0
  3  4  1  0
  4  5  2  0
  4  6  1  0
  6  7  1  0
  7  8  1  0
  8  9  1  0
  9 10  1  0
 10 11  1  0
 11 12  1  0
  2 13  1  0
 13 14  1  0
 14 15  1  0
 15 16  2  0
 16 17  1  0
 17 18  1  0
 18 19  2  0
 19 20  1  0
 20 21  2  0
 20 22  1  0
 22 23  1  0
 23 24  1  1
 24 25  1  0
 10  6  1  0
 12 10  1  0
 23 13  1  0
 23 17  1  0
  1 26  1  0
  1 27  1  0
  1 28  1  0
  2 29  1  1
  3 30  1  0
  3 31  1  0
  7 32  1  0
  7 33  1  0
  8 34  1  0
  8 35  1  0
  9 36  1  0
  9 37  1  0
 11 38  1  0
 11 39  1  0
 12 40  1  0
 12 41  1  0
 13 42  1  6
 14 43  1  0
 14 44  1  0
 15 45  1  0
 16 46  1  0
 17 47  1  0
 18 48  1  0
 19 49  1  0
 22 50  1  0
 22 51  1  0
 24 52  1  0
 24 53  1  0
 25 54  1  0
M  END
$$$$
[H]c1c([H])c([H])c(-c2c(N([H])c3c([H])c([H])c([H])c(N4C([H])([H])C([H])([H])OC([H])([H])C4([H])[H])c3[H])nn([H])c2-c2c([H])c([H])c3c(c2[H])C([H])([H])C([H])([H])N([H])C3=O)c([H])c1[H]
     RDKit          3D

 62 67  0  0  0  0  0  0  0  0999 V2000
    7.4030    0.9016    2.5359 O   0  0  0  0  0  0  0  0  0  0  0  0
    6.9482    1.3147    1.4301 C   0  0  0  0  0  0  0  0  0  0  0  0
    7.7366    1.9945    0.4733 N   0  0  0  0  0  0  0  0  0  0  0  0
    7.0945    2.8395   -0.5012 C   0  0  0  0  0  0  0  0  0  0  0  0
    5.8581    2.2401   -1.0862 C   0  0  0  0  0  0  0  0  0  0  0  0
    5.0277    1.5215   -0.0727 C   0  0  0  0  0  0  0  0  0  0  0  0
    3.6914    1.2682   -0.3018 C   0  0  0  0  0  0  0  0  0  0  0  0
    2.8795    0.6100    0.5959 C   0  0  0  0  0  0  0  0  0  0  0  0
    3.3924    0.1668    1.7952 C   0  0  0  0  0  0  0  0  0  0  0  0
    4.7256    0.4133    2.0367 C   0  0  0  0  0  0  0  0  0  0  0  0
    5.5408    1.0765    1.1304 C   0  0  0  0  0  0  0  0  0  0  0  0
    1.4729    0.3732    0.3056 C   0  0  0  0  0  0  0  0  0  0  0  0
    0.4617    1.2543    0.3934 N   0  0  0  0  0  0  0  0  0  0  0  0
   -0.6785    0.6558    0.0476 N   0  0  0  0  0  0  0  0  0  0  0  0
   -0.4757   -0.6238   -0.2782 C   0  0  0  0  0  0  0  0  0  0  0  0
   -1.3999   -1.5979   -0.7236 N   0  0  0  0  0  0  0  0  0  0  0  0
   -2.7857   -1.4440   -0.8706 C   0  0  0  0  0  0  0  0  0  0  0  0
   -3.4666   -2.3385   -1.6980 C   0  0  0  0  0  0  0  0  0  0  0  0
   -4.8265   -2.2904   -1.8935 C   0  0  0  0  0  0  0  0  0  0  0  0
   -5.5555   -1.3213   -1.2489 C   0  0  0  0  0  0  0  0  0  0  0  0
   -4.9388   -0.3990   -0.4102 C   0  0  0  0  0  0  0  0  0  0  0  0
   -3.5590   -0.4957   -0.2503 C   0  0  0  0  0  0  0  0  0  0  0  0
   -5.7354    0.5918    0.2306 N   0  0  0  0  0  0  0  0  0  0  0  0
   -5.3408    1.1823    1.4767 C   0  0  0  0  0  0  0  0  0  0  0  0
   -5.6422    2.6581    1.4466 C   0  0  0  0  0  0  0  0  0  0  0  0
   -6.9951    2.7909    1.1268 O   0  0  0  0  0  0  0  0  0  0  0  0
   -7.1758    2.4805   -0.2211 C   0  0  0  0  0  0  0  0  0  0  0  0
   -6.9654    1.0042   -0.3977 C   0  0  0  0  0  0  0  0  0  0  0  0
    0.9045   -0.8099   -0.1135 C   0  0  0  0  0  0  0  0  0  0  0  0
    1.5460   -2.0912   -0.3633 C   0  0  0  0  0  0  0  0  0  0  0  0
    1.2302   -3.2060    0.3662 C   0  0  0  0  0  0  0  0  0  0  0  0
    1.8485   -4.4048    0.1105 C   0  0  0  0  0  0  0  0  0  0  0  0
    2.7906   -4.4600   -0.8937 C   0  0  0  0  0  0  0  0  0  0  0  0
    3.1390   -3.3613   -1.6530 C   0  0  0  0  0  0  0  0  0  0  0  0
    2.4886   -2.1812   -1.3558 C   0  0  0  0  0  0  0  0  0  0  0  0
    8.7719    1.8510    0.5167 H   0  0  0  0  0  0  0  0  0  0  0  0
    6.9197    3.8464   -0.0347 H   0  0  0  0  0  0  0  0  0  0  0  0
    7.7987    3.0316   -1.3634 H   0  0  0  0  0  0  0  0  0  0  0  0
    5.2642    3.0951   -1.5229 H   0  0  0  0  0  0  0  0  0  0  0  0
    6.1524    1.5328   -1.8797 H   0  0  0  0  0  0  0  0  0  0  0  0
    3.3113    1.6327   -1.2654 H   0  0  0  0  0  0  0  0  0  0  0  0
    2.7785   -0.3580    2.5306 H   0  0  0  0  0  0  0  0  0  0  0  0
    5.1521    0.0715    2.9790 H   0  0  0  0  0  0  0  0  0  0  0  0
    0.5191    2.2578    0.6823 H   0  0  0  0  0  0  0  0  0  0  0  0
   -1.0223   -2.5699   -0.9789 H   0  0  0  0  0  0  0  0  0  0  0  0
   -2.9214   -3.1214   -2.2275 H   0  0  0  0  0  0  0  0  0  0  0  0
   -5.3418   -2.9918   -2.5393 H   0  0  0  0  0  0  0  0  0  0  0  0
   -6.6496   -1.2545   -1.3757 H   0  0  0  0  0  0  0  0  0  0  0  0
   -3.0985    0.2234    0.4022 H   0  0  0  0  0  0  0  0  0  0  0  0
   -5.9358    0.7307    2.3404 H   0  0  0  0  0  0  0  0  0  0  0  0
   -4.2810    1.0101    1.7544 H   0  0  0  0  0  0  0  0  0  0  0  0
   -5.4829    3.1219    2.4440 H   0  0  0  0  0  0  0  0  0  0  0  0
   -5.0358    3.1162    0.6461 H   0  0  0  0  0  0  0  0  0  0  0  0
   -8.2231    2.7645   -0.4758 H   0  0  0  0  0  0  0  0  0  0  0  0
   -6.5097    3.1043   -0.8538 H   0  0  0  0  0  0  0  0  0  0  0  0
   -7.0317    0.6994   -1.4658 H   0  0  0  0  0  0  0  0  0  0  0  0
   -7.8144    0.4978    0.1410 H   0  0  0  0  0  0  0  0  0  0  0  0
    0.4898   -3.1376    1.1471 H   0  0  0  0  0  0  0  0  0  0  0  0
    1.6001   -5.3127    0.6947 H   0  0  0  0  0  0  0  0  0  0  0  0
    3.2833   -5.4207   -1.0956 H   0  0  0  0  0  0  0  0  0  0  0  0
    3.8942   -3.4223   -2.4522 H   0  0  0  0  0  0  0  0  0  0  0  0
    2.7740   -1.3108   -1.9684 H   0  0  0  0  0  0  0  0  0  0  0  0
  1  2  2  0
  2  3  1  0
  3  4  1  0
  4  5  1  0
  5  6  1  0
  6  7  2  0
  7  8  1  0
  8  9  2  0
  9 10  1  0
 10 11  2  0
  8 12  1  0
 12 13  1  0
 13 14  1  0
 14 15  2  0
 15 16  1  0
 16 17  1  0
 17 18  2  0
 18 19  1  0
 19 20  2  0
 20 21  1  0
 21 22  2  0
 21 23  1  0
 23 24  1  0
 24 25  1  0
 25 26  1  0
 26 27  1  0
 27 28  1  0
 15 29  1  0
 29 30  1  0
 30 31  2  0
 31 32  1  0
 32 33  2  0
 33 34  1  0
 34 35  2  0
 11  2  1  0
 29 12  2  0
 35 30  1  0
 11  6  1  0
 22 17  1  0
 28 23  1  0
  3 36  1  0
  4 37  1  0
  4 38  1  0
  5 39  1  0
  5 40  1  0
  7 41  1  0
  9 42  1  0
 10 43  1  0
 13 44  1  0
 16 45  1  0
 18 46  1  0
 19 47  1  0
 20 48  1  0
 22 49  1  0
 24 50  1  0
 24 51  1  0
 25 52  1  0
 25 53  1  0
 27 54  1  0
 27 55  1  0
 28 56  1  0
 28 57  1  0
 31 58  1  0
 32 59  1  0
 33 60  1  0
 34 61  1  0
 35 62  1  0
M  END
$$$$
[H]N=C(N([H])[H])N([H])C([H])([H])C([H])([H])C([H])([H])[C@]([H])(C([H])=O)N([H])C(=O)c1noc(C([H])([H])C([H])(C(=O)N2C([H])([H])C([H])([H])C([H])([H])[C@@]2([H])C(=O)N([H])C([H])([H])c2c([H])c([H])c([H])c([H])c2[H])C([H])([H])[H])c1[H]
     RDKit          3D

 73 75  0  0  0  0  0  0  0  0999 V2000
   -1.2520    1.1471   -2.2941 C   0  0  0  0  0  0  0  0  0  0  0  0
   -1.5735    1.7724   -0.9851 C   0  0  0  0  0  0  0  0  0  0  0  0
   -0.6176    2.9559   -0.7996 C   0  0  0  0  0  0  0  0  0  0  0  0
    0.7855    2.4975   -0.7518 C   0  0  0  0  0  0  0  0  0  0  0  0
    1.2633    1.2104   -0.6796 C   0  0  0  0  0  0  0  0  0  0  0  0
    2.6385    1.2940   -0.6586 C   0  0  0  0  0  0  0  0  0  0  0  0
    2.9095    2.6208   -0.7209 N   0  0  0  0  0  0  0  0  0  0  0  0
    1.8254    3.3123   -0.7736 O   0  0  0  0  0  0  0  0  0  0  0  0
    3.6260    0.2317   -0.5554 C   0  0  0  0  0  0  0  0  0  0  0  0
    3.2449   -0.9360   -0.3947 O   0  0  0  0  0  0  0  0  0  0  0  0
    4.9862    0.5254   -0.6335 N   0  0  0  0  0  0  0  0  0  0  0  0
    6.0032   -0.5801   -0.5039 C   0  0  2  0  0  0  0  0  0  0  0  0
    7.0162   -0.0141    0.4108 C   0  0  0  0  0  0  0  0  0  0  0  0
    8.1657   -0.7870    0.8888 C   0  0  0  0  0  0  0  0  0  0  0  0
    9.0388   -1.3496   -0.1885 C   0  0  0  0  0  0  0  0  0  0  0  0
   10.1915   -1.9823    0.4655 N   0  0  0  0  0  0  0  0  0  0  0  0
    9.9989   -3.1345    1.2414 C   0  0  0  0  0  0  0  0  0  0  0  0
    9.0355   -4.0969    0.8799 N   0  0  0  0  0  0  0  0  0  0  0  0
   10.7046   -3.3266    2.2980 N   0  0  0  0  0  0  0  0  0  0  0  0
    6.4795   -0.7622   -1.9217 C   0  0  0  0  0  0  0  0  0  0  0  0
    5.9951   -0.0027   -2.7728 O   0  0  0  0  0  0  0  0  0  0  0  0
   -2.9408    2.1948   -0.7509 C   0  0  0  0  0  0  0  0  0  0  0  0
   -3.1132    3.3896   -0.3193 O   0  0  0  0  0  0  0  0  0  0  0  0
   -4.1344    1.4310   -0.9395 N   0  0  0  0  0  0  0  0  0  0  0  0
   -4.3081    0.0882   -1.4461 C   0  0  0  0  0  0  0  0  0  0  0  0
   -5.5318    0.2484   -2.3324 C   0  0  0  0  0  0  0  0  0  0  0  0
   -6.2676    1.4504   -1.8173 C   0  0  0  0  0  0  0  0  0  0  0  0
   -5.4723    1.8962   -0.6237 C   0  0  1  0  0  0  0  0  0  0  0  0
   -6.0555    1.3511    0.5905 C   0  0  0  0  0  0  0  0  0  0  0  0
   -7.2810    1.6528    0.8197 O   0  0  0  0  0  0  0  0  0  0  0  0
   -5.4366    0.5207    1.5583 N   0  0  0  0  0  0  0  0  0  0  0  0
   -6.1349    0.0322    2.7241 C   0  0  0  0  0  0  0  0  0  0  0  0
   -7.0596   -1.0593    2.3426 C   0  0  0  0  0  0  0  0  0  0  0  0
   -7.8177   -1.6475    3.3604 C   0  0  0  0  0  0  0  0  0  0  0  0
   -8.7128   -2.6705    3.0782 C   0  0  0  0  0  0  0  0  0  0  0  0
   -8.8732   -3.1289    1.7773 C   0  0  0  0  0  0  0  0  0  0  0  0
   -8.1371   -2.5650    0.7631 C   0  0  0  0  0  0  0  0  0  0  0  0
   -7.2521   -1.5459    1.0772 C   0  0  0  0  0  0  0  0  0  0  0  0
   -1.0184    0.0461   -2.2327 H   0  0  0  0  0  0  0  0  0  0  0  0
   -2.0430    1.3163   -3.0707 H   0  0  0  0  0  0  0  0  0  0  0  0
   -0.3487    1.6253   -2.7235 H   0  0  0  0  0  0  0  0  0  0  0  0
   -1.3034    1.0126   -0.1982 H   0  0  0  0  0  0  0  0  0  0  0  0
   -0.7259    3.6686   -1.6667 H   0  0  0  0  0  0  0  0  0  0  0  0
   -0.8983    3.5610    0.1027 H   0  0  0  0  0  0  0  0  0  0  0  0
    0.7314    0.2765   -0.6421 H   0  0  0  0  0  0  0  0  0  0  0  0
    5.3215    1.4971   -0.7754 H   0  0  0  0  0  0  0  0  0  0  0  0
    5.5110   -1.5004   -0.1705 H   0  0  0  0  0  0  0  0  0  0  0  0
    6.4401    0.3654    1.3155 H   0  0  0  0  0  0  0  0  0  0  0  0
    7.4424    0.9333   -0.0687 H   0  0  0  0  0  0  0  0  0  0  0  0
    7.8537   -1.6017    1.6169 H   0  0  0  0  0  0  0  0  0  0  0  0
    8.7883   -0.0803    1.5400 H   0  0  0  0  0  0  0  0  0  0  0  0
    8.4378   -2.2161   -0.6221 H   0  0  0  0  0  0  0  0  0  0  0  0
    9.3796   -0.6394   -0.9250 H   0  0  0  0  0  0  0  0  0  0  0  0
   11.1262   -1.5212    0.3114 H   0  0  0  0  0  0  0  0  0  0  0  0
    9.2796   -4.9234    0.2974 H   0  0  0  0  0  0  0  0  0  0  0  0
    8.0483   -3.9986    1.1915 H   0  0  0  0  0  0  0  0  0  0  0  0
   11.4417   -2.6583    2.6338 H   0  0  0  0  0  0  0  0  0  0  0  0
    7.1884   -1.4874   -2.2327 H   0  0  0  0  0  0  0  0  0  0  0  0
   -4.5853   -0.6408   -0.6767 H   0  0  0  0  0  0  0  0  0  0  0  0
   -3.4419   -0.2932   -2.0283 H   0  0  0  0  0  0  0  0  0  0  0  0
   -5.2920    0.3541   -3.3919 H   0  0  0  0  0  0  0  0  0  0  0  0
   -6.2098   -0.6394   -2.2344 H   0  0  0  0  0  0  0  0  0  0  0  0
   -7.3241    1.2254   -1.5614 H   0  0  0  0  0  0  0  0  0  0  0  0
   -6.1991    2.2742   -2.5722 H   0  0  0  0  0  0  0  0  0  0  0  0
   -5.4744    3.0264   -0.5430 H   0  0  0  0  0  0  0  0  0  0  0  0
   -4.4404    0.2571    1.4406 H   0  0  0  0  0  0  0  0  0  0  0  0
   -5.4122   -0.3900    3.4680 H   0  0  0  0  0  0  0  0  0  0  0  0
   -6.7140    0.8554    3.2232 H   0  0  0  0  0  0  0  0  0  0  0  0
   -7.6941   -1.2942    4.3787 H   0  0  0  0  0  0  0  0  0  0  0  0
   -9.2980   -3.1203    3.8801 H   0  0  0  0  0  0  0  0  0  0  0  0
   -9.5639   -3.9248    1.5363 H   0  0  0  0  0  0  0  0  0  0  0  0
   -8.2484   -2.9189   -0.2798 H   0  0  0  0  0  0  0  0  0  0  0  0
   -6.6915   -1.1320    0.2673 H   0  0  0  0  0  0  0  0  0  0  0  0
  1  2  1  0
  2  3  1  0
  3  4  1  0
  4  5  2  0
  5  6  1  0
  6  7  2  0
  7  8  1  0
  6  9  1  0
  9 10  2  0
  9 11  1  0
 11 12  1  0
 12 13  1  0
 13 14  1  0
 14 15  1  0
 15 16  1  0
 16 17  1  0
 17 18  1  0
 17 19  2  3
 12 20  1  0
 20 21  2  0
  2 22  1  0
 22 23  2  0
 22 24  1  0
 24 25  1  0
 25 26  1  0
 26 27  1  0
 27 28  1  0
 28 29  1  0
 29 30  2  0
 29 31  1  0
 31 32  1  0
 32 33  1  0
 33 34  2  0
 34 35  1  0
 35 36  2  0
 36 37  1  0
 37 38  2  0
  8  4  1  0
 28 24  1  0
 38 33  1  0
  1 39  1  0
  1 40  1  0
  1 41  1  0
  2 42  1  0
  3 43  1  0
  3 44  1  0
  5 45  1  0
 11 46  1  0
 12 47  1  1
 13 48  1  0
 13 49  1  0
 14 50  1  0
 14 51  1  0
 15 52  1  0
 15 53  1  0
 16 54  1  0
 18 55  1  0
 18 56  1  0
 19 57  1  0
 20 58  1  0
 25 59  1  0
 25 60  1  0
 26 61  1  0
 26 62  1  0
 27 63  1  0
 27 64  1  0
 28 65  1  1
 31 66  1  0
 32 67  1  0
 32 68  1  0
 34 69  1  0
 35 70  1  0
 36 71  1  0
 37 72  1  0
 38 73  1  0
M  END
$$$$
[H]c1nc([H])c(C(=O)OC2([H])C([H])([H])C3([H])N(C([H])([H])[H])C([H])(C([H])([H])C3([H])[H])C2([H])[H])c([H])c1[H]
     RDKit          3D

 36 38  0  0  0  0  0  0  0  0999 V2000
   -4.1099   -1.4740   -0.6172 C   0  0  0  0  0  0  0  0  0  0  0  0
   -2.7196   -1.1016   -0.4830 N   0  0  0  0  0  0  0  0  0  0  0  0
   -2.3631   -0.7914    0.8854 C   0  0  0  0  0  0  0  0  0  0  0  0
   -2.9775    0.5637    1.1325 C   0  0  0  0  0  0  0  0  0  0  0  0
   -2.8531    1.2361   -0.1997 C   0  0  0  0  0  0  0  0  0  0  0  0
   -2.4318    0.1489   -1.1508 C   0  0  0  0  0  0  0  0  0  0  0  0
   -0.9122    0.1595   -1.3763 C   0  0  0  0  0  0  0  0  0  0  0  0
   -0.2666    0.2498   -0.0303 C   0  0  0  0  0  0  0  0  0  0  0  0
   -0.8671   -0.6804    0.9844 C   0  0  0  0  0  0  0  0  0  0  0  0
    1.1131    0.0018   -0.0362 O   0  0  0  0  0  0  0  0  0  0  0  0
    2.0858    0.8890    0.3517 C   0  0  0  0  0  0  0  0  0  0  0  0
    1.7540    2.0071    0.7439 O   0  0  0  0  0  0  0  0  0  0  0  0
    3.4911    0.5176    0.3018 C   0  0  0  0  0  0  0  0  0  0  0  0
    3.8902   -0.7252   -0.1322 C   0  0  0  0  0  0  0  0  0  0  0  0
    5.2359   -1.0278   -0.1603 C   0  0  0  0  0  0  0  0  0  0  0  0
    6.1215   -0.0508    0.2554 C   0  0  0  0  0  0  0  0  0  0  0  0
    5.7184    1.1508    0.6739 N   0  0  0  0  0  0  0  0  0  0  0  0
    4.4188    1.4402    0.7001 C   0  0  0  0  0  0  0  0  0  0  0  0
   -4.1487   -2.4788   -1.0579 H   0  0  0  0  0  0  0  0  0  0  0  0
   -4.5672   -0.7759   -1.3626 H   0  0  0  0  0  0  0  0  0  0  0  0
   -4.6887   -1.3597    0.3148 H   0  0  0  0  0  0  0  0  0  0  0  0
   -2.6980   -1.5663    1.5836 H   0  0  0  0  0  0  0  0  0  0  0  0
   -2.4210    1.0964    1.9371 H   0  0  0  0  0  0  0  0  0  0  0  0
   -4.0362    0.4299    1.4275 H   0  0  0  0  0  0  0  0  0  0  0  0
   -3.8744    1.5857   -0.5104 H   0  0  0  0  0  0  0  0  0  0  0  0
   -2.2031    2.1103   -0.2028 H   0  0  0  0  0  0  0  0  0  0  0  0
   -2.8973    0.2242   -2.1463 H   0  0  0  0  0  0  0  0  0  0  0  0
   -0.7223    1.0520   -1.9833 H   0  0  0  0  0  0  0  0  0  0  0  0
   -0.6920   -0.7939   -1.8975 H   0  0  0  0  0  0  0  0  0  0  0  0
   -0.4122    1.2920    0.3454 H   0  0  0  0  0  0  0  0  0  0  0  0
   -0.4462   -1.6991    0.7719 H   0  0  0  0  0  0  0  0  0  0  0  0
   -0.5571   -0.3399    1.9933 H   0  0  0  0  0  0  0  0  0  0  0  0
    3.1477   -1.4723   -0.4541 H   0  0  0  0  0  0  0  0  0  0  0  0
    5.5741   -2.0078   -0.5011 H   0  0  0  0  0  0  0  0  0  0  0  0
    7.1769   -0.2541    0.2459 H   0  0  0  0  0  0  0  0  0  0  0  0
    4.1377    2.4439    1.0531 H   0  0  0  0  0  0  0  0  0  0  0  0
  1  2  1  0
  2  3  1  0
  3  4  1  0
  4  5  1  0
  5  6  1  0
  6  7  1  0
  7  8  1  0
  8  9  1  0
  8 10  1  0
 10 11  1  0
 11 12  2  0
 11 13  1  0
 13 14  2  0
 14 15  1  0
 15 16  2  0
 16 17  1  0
 17 18  2  0
  6  2  1  0
 18 13  1  0
  9  3  1  0
  1 19  1  0
  1 20  1  0
  1 21  1  0
  3 22  1  0
  4 23  1  0
  4 24  1  0
  5 25  1  0
  5 26  1  0
  6 27  1  0
  7 28  1  0
  7 29  1  0
  8 30  1  0
  9 31  1  0
  9 32  1  0
 14 33  1  0
 15 34  1  0
 16 35  1  0
 18 36  1  0
M  END
$$$$
[H]OC(=O)C([H])([H])C([H])(C(=O)C([H])([H])SC([H])([H])c1c([H])c([H])c([H])n2nc(C(C([H])([H])[H])(C([H])([H])[H])C([H])([H])[H])nc12)N([H])C(=O)[C@@]([H])(C([H])([H])C(=O)OC1([H])C([H])([H])C([H])([H])C([H])([H])C([H])([H])C1([H])[H])C([H])(C([H])([H])[H])C([H])([H])[H]
     RDKit          3D

 82 84  0  0  0  0  0  0  0  0999 V2000
   -5.0782   -0.2114   -4.2795 C   0  0  0  0  0  0  0  0  0  0  0  0
   -3.6202    0.1238   -3.8877 C   0  0  0  0  0  0  0  0  0  0  0  0
   -2.7728   -0.8731   -4.5557 C   0  0  0  0  0  0  0  0  0  0  0  0
   -3.5882    0.1893   -2.3920 C   0  0  2  0  0  0  0  0  0  0  0  0
   -4.5490    1.2596   -1.9551 C   0  0  0  0  0  0  0  0  0  0  0  0
   -4.7128    1.3998   -0.5080 C   0  0  0  0  0  0  0  0  0  0  0  0
   -4.0606    2.1138    0.2298 O   0  0  0  0  0  0  0  0  0  0  0  0
   -5.7376    0.6135    0.0423 O   0  0  0  0  0  0  0  0  0  0  0  0
   -6.1012    0.5568    1.3821 C   0  0  0  0  0  0  0  0  0  0  0  0
   -6.0880   -0.9231    1.7681 C   0  0  0  0  0  0  0  0  0  0  0  0
   -6.6881   -1.1757    3.1062 C   0  0  0  0  0  0  0  0  0  0  0  0
   -7.3069    0.0753    3.6687 C   0  0  0  0  0  0  0  0  0  0  0  0
   -8.2723    0.6654    2.6746 C   0  0  0  0  0  0  0  0  0  0  0  0
   -7.5668    1.0353    1.4182 C   0  0  0  0  0  0  0  0  0  0  0  0
   -2.2851    0.3770   -1.7944 C   0  0  0  0  0  0  0  0  0  0  0  0
   -1.9749    1.5766   -1.4527 O   0  0  0  0  0  0  0  0  0  0  0  0
   -1.2878   -0.5646   -1.5257 N   0  0  0  0  0  0  0  0  0  0  0  0
    0.0110   -0.2623   -0.8927 C   0  0  0  0  0  0  0  0  0  0  0  0
    1.1175   -0.7697   -1.7726 C   0  0  0  0  0  0  0  0  0  0  0  0
    1.1535   -0.1355   -3.1024 C   0  0  0  0  0  0  0  0  0  0  0  0
    1.6373    1.1686   -3.2205 O   0  0  0  0  0  0  0  0  0  0  0  0
    0.7497   -0.7775   -4.1016 O   0  0  0  0  0  0  0  0  0  0  0  0
    0.0574   -0.8385    0.4619 C   0  0  0  0  0  0  0  0  0  0  0  0
   -0.4659   -1.9626    0.6152 O   0  0  0  0  0  0  0  0  0  0  0  0
    0.6356   -0.2445    1.6603 C   0  0  0  0  0  0  0  0  0  0  0  0
    1.5132    1.2873    1.4608 S   0  0  0  0  0  0  0  0  0  0  0  0
    3.1866    1.1748    0.8609 C   0  0  0  0  0  0  0  0  0  0  0  0
    4.0467    0.6158    1.9701 C   0  0  0  0  0  0  0  0  0  0  0  0
    3.5062    0.3989    3.1959 C   0  0  0  0  0  0  0  0  0  0  0  0
    4.3285   -0.0764    4.2073 C   0  0  0  0  0  0  0  0  0  0  0  0
    5.6560   -0.3100    3.9398 C   0  0  0  0  0  0  0  0  0  0  0  0
    6.1612   -0.0824    2.7074 N   0  0  0  0  0  0  0  0  0  0  0  0
    7.3581   -0.2263    2.2111 N   0  0  0  0  0  0  0  0  0  0  0  0
    7.3787    0.1342    0.8978 C   0  0  0  0  0  0  0  0  0  0  0  0
    6.1304    0.5090    0.6056 N   0  0  0  0  0  0  0  0  0  0  0  0
    5.3635    0.3786    1.7234 C   0  0  0  0  0  0  0  0  0  0  0  0
    8.6161    0.0726    0.0693 C   0  0  0  0  0  0  0  0  0  0  0  0
    8.3058    0.3657   -1.3680 C   0  0  0  0  0  0  0  0  0  0  0  0
    9.2317   -1.3175    0.2033 C   0  0  0  0  0  0  0  0  0  0  0  0
    9.5813    1.0955    0.6315 C   0  0  0  0  0  0  0  0  0  0  0  0
   -5.4669   -0.8267   -3.4185 H   0  0  0  0  0  0  0  0  0  0  0  0
   -5.0831   -0.9242   -5.1337 H   0  0  0  0  0  0  0  0  0  0  0  0
   -5.6749    0.6826   -4.4495 H   0  0  0  0  0  0  0  0  0  0  0  0
   -3.4389    1.1283   -4.3014 H   0  0  0  0  0  0  0  0  0  0  0  0
   -1.9195   -0.3807   -5.1029 H   0  0  0  0  0  0  0  0  0  0  0  0
   -3.3544   -1.3384   -5.4099 H   0  0  0  0  0  0  0  0  0  0  0  0
   -2.4424   -1.7367   -3.9438 H   0  0  0  0  0  0  0  0  0  0  0  0
   -4.0082   -0.7738   -2.0049 H   0  0  0  0  0  0  0  0  0  0  0  0
   -5.5482    1.1444   -2.4333 H   0  0  0  0  0  0  0  0  0  0  0  0
   -4.1928    2.2822   -2.3150 H   0  0  0  0  0  0  0  0  0  0  0  0
   -5.5112    1.1795    2.0584 H   0  0  0  0  0  0  0  0  0  0  0  0
   -6.7048   -1.4145    0.9610 H   0  0  0  0  0  0  0  0  0  0  0  0
   -5.0259   -1.2518    1.6728 H   0  0  0  0  0  0  0  0  0  0  0  0
   -5.9013   -1.5371    3.8000 H   0  0  0  0  0  0  0  0  0  0  0  0
   -7.4937   -1.9386    3.0044 H   0  0  0  0  0  0  0  0  0  0  0  0
   -7.9170   -0.2229    4.5616 H   0  0  0  0  0  0  0  0  0  0  0  0
   -6.5462    0.8225    3.9200 H   0  0  0  0  0  0  0  0  0  0  0  0
   -9.0765   -0.0790    2.4295 H   0  0  0  0  0  0  0  0  0  0  0  0
   -8.7628    1.5485    3.1010 H   0  0  0  0  0  0  0  0  0  0  0  0
   -8.0596    0.5801    0.5222 H   0  0  0  0  0  0  0  0  0  0  0  0
   -7.5584    2.1397    1.2264 H   0  0  0  0  0  0  0  0  0  0  0  0
   -1.4471   -1.5562   -1.7808 H   0  0  0  0  0  0  0  0  0  0  0  0
    0.0604    0.8413   -0.8284 H   0  0  0  0  0  0  0  0  0  0  0  0
    0.8598   -1.8748   -1.9749 H   0  0  0  0  0  0  0  0  0  0  0  0
    2.1006   -0.8452   -1.3017 H   0  0  0  0  0  0  0  0  0  0  0  0
    1.5517    1.6152   -4.1186 H   0  0  0  0  0  0  0  0  0  0  0  0
    1.2596   -1.0158    2.2214 H   0  0  0  0  0  0  0  0  0  0  0  0
   -0.2104   -0.0583    2.3878 H   0  0  0  0  0  0  0  0  0  0  0  0
    3.6025    2.1621    0.5603 H   0  0  0  0  0  0  0  0  0  0  0  0
    3.3224    0.4779    0.0324 H   0  0  0  0  0  0  0  0  0  0  0  0
    2.4511    0.6023    3.3936 H   0  0  0  0  0  0  0  0  0  0  0  0
    3.8996   -0.2491    5.1871 H   0  0  0  0  0  0  0  0  0  0  0  0
    6.3227   -0.6779    4.6937 H   0  0  0  0  0  0  0  0  0  0  0  0
    7.6548   -0.4259   -1.8012 H   0  0  0  0  0  0  0  0  0  0  0  0
    9.2578    0.3531   -1.9317 H   0  0  0  0  0  0  0  0  0  0  0  0
    7.8250    1.3576   -1.4475 H   0  0  0  0  0  0  0  0  0  0  0  0
   10.3189   -1.2478    0.4156 H   0  0  0  0  0  0  0  0  0  0  0  0
    9.0689   -1.9309   -0.7023 H   0  0  0  0  0  0  0  0  0  0  0  0
    8.7864   -1.8598    1.0475 H   0  0  0  0  0  0  0  0  0  0  0  0
    9.2974    2.0896    0.2333 H   0  0  0  0  0  0  0  0  0  0  0  0
    9.5107    1.1080    1.7274 H   0  0  0  0  0  0  0  0  0  0  0  0
   10.6247    0.8399    0.3396 H   0  0  0  0  0  0  0  0  0  0  0  0
  1  2  1  0
  2  3  1  0
  2  4  1  0
  4  5  1  0
  5  6  1  0
  6  7  2  0
  6  8  1  0
  8  9  1  0
  9 10  1  0
 10 11  1  0
 11 12  1  0
 12 13  1  0
 13 14  1  0
  4 15  1  0
 15 16  2  0
 15 17  1  0
 17 18  1  0
 18 19  1  0
 19 20  1  0
 20 21  1  0
 20 22  2  0
 18 23  1  0
 23 24  2  0
 23 25  1  0
 25 26  1  0
 26 27  1  0
 27 28  1  0
 28 29  2  0
 29 30  1  0
 30 31  2  0
 31 32  1  0
 32 33  1  0
 33 34  2  0
 34 35  1  0
 35 36  2  0
 34 37  1  0
 37 38  1  0
 37 39  1  0
 37 40  1  0
 14  9  1  0
 36 28  1  0
 36 32  1  0
  1 41  1  0
  1 42  1  0
  1 43  1  0
  2 44  1  0
  3 45  1  0
  3 46  1  0
  3 47  1  0
  4 48  1  1
  5 49  1  0
  5 50  1  0
  9 51  1  0
 10 52  1  0
 10 53  1  0
 11 54  1  0
 11 55  1  0
 12 56  1  0
 12 57  1  0
 13 58  1  0
 13 59  1  0
 14 60  1  0
 14 61  1  0
 17 62  1  0
 18 63  1  0
 19 64  1  0
 19 65  1  0
 21 66  1  0
 25 67  1  0
 25 68  1  0
 27 69  1  0
 27 70  1  0
 29 71  1  0
 30 72  1  0
 31 73  1  0
 38 74  1  0
 38 75  1  0
 38 76  1  0
 39 77  1  0
 39 78  1  0
 39 79  1  0
 40 80  1  0
 40 81  1  0
 40 82  1  0
M  END
$$$$
[H]c1nc(N([H])C([H])([H])c2c([H])c(C([H])([H])[H])c(C([H])([H])[H])c(C([H])([H])[H])c2[H])nc(-c2nc3c([H])c([H])c([H])c([H])c3nc2N2C([H])([H])C([H])([H])C([H])([H])C([H])([H])C2([H])[H])c1[H]
     RDKit          3D

 63 67  0  0  0  0  0  0  0  0999 V2000
   -7.4132    1.6914    0.0280 C   0  0  0  0  0  0  0  0  0  0  0  0
   -6.4129    0.6138    0.0513 C   0  0  0  0  0  0  0  0  0  0  0  0
   -5.0584    0.9467   -0.0232 C   0  0  0  0  0  0  0  0  0  0  0  0
   -4.1097   -0.0291   -0.0040 C   0  0  0  0  0  0  0  0  0  0  0  0
   -2.6726    0.2256   -0.0828 C   0  0  0  0  0  0  0  0  0  0  0  0
   -2.2648    1.4947   -0.5629 N   0  0  0  0  0  0  0  0  0  0  0  0
   -0.8666    1.8212   -0.6482 C   0  0  0  0  0  0  0  0  0  0  0  0
   -0.4888    3.0274   -1.1047 N   0  0  0  0  0  0  0  0  0  0  0  0
    0.7887    3.3706   -1.2015 C   0  0  0  0  0  0  0  0  0  0  0  0
    1.7542    2.4275   -0.8092 C   0  0  0  0  0  0  0  0  0  0  0  0
    1.4064    1.2156   -0.3516 C   0  0  0  0  0  0  0  0  0  0  0  0
    0.0623    0.9653   -0.2914 N   0  0  0  0  0  0  0  0  0  0  0  0
    2.2991    0.1778    0.1431 C   0  0  0  0  0  0  0  0  0  0  0  0
    1.6575   -0.9493    0.6533 N   0  0  0  0  0  0  0  0  0  0  0  0
    2.3242   -1.9807    1.1487 C   0  0  0  0  0  0  0  0  0  0  0  0
    1.6515   -3.0936    1.6546 C   0  0  0  0  0  0  0  0  0  0  0  0
    2.3420   -4.1636    2.1710 C   0  0  0  0  0  0  0  0  0  0  0  0
    3.7195   -4.1965    2.2173 C   0  0  0  0  0  0  0  0  0  0  0  0
    4.3874   -3.1072    1.7223 C   0  0  0  0  0  0  0  0  0  0  0  0
    3.7008   -2.0227    1.1992 C   0  0  0  0  0  0  0  0  0  0  0  0
    4.3344   -0.9642    0.7179 N   0  0  0  0  0  0  0  0  0  0  0  0
    3.6313    0.1279    0.1912 C   0  0  0  0  0  0  0  0  0  0  0  0
    4.4723    1.1079   -0.3917 N   0  0  0  0  0  0  0  0  0  0  0  0
    4.7442    1.1169   -1.8264 C   0  0  0  0  0  0  0  0  0  0  0  0
    6.2687    0.9953   -2.0289 C   0  0  0  0  0  0  0  0  0  0  0  0
    6.9376    2.1066   -1.2481 C   0  0  0  0  0  0  0  0  0  0  0  0
    6.6671    1.8653    0.2181 C   0  0  0  0  0  0  0  0  0  0  0  0
    5.1728    2.0791    0.4723 C   0  0  0  0  0  0  0  0  0  0  0  0
   -4.4815   -1.3825    0.0913 C   0  0  0  0  0  0  0  0  0  0  0  0
   -5.8196   -1.7053    0.1645 C   0  0  0  0  0  0  0  0  0  0  0  0
   -6.2873   -3.1231    0.2673 C   0  0  0  0  0  0  0  0  0  0  0  0
   -6.7756   -0.7072    0.1441 C   0  0  0  0  0  0  0  0  0  0  0  0
   -8.2143   -1.0524    0.2218 C   0  0  0  0  0  0  0  0  0  0  0  0
   -6.9080    2.6706    0.1206 H   0  0  0  0  0  0  0  0  0  0  0  0
   -7.9994    1.7327   -0.9161 H   0  0  0  0  0  0  0  0  0  0  0  0
   -8.0987    1.5942    0.8968 H   0  0  0  0  0  0  0  0  0  0  0  0
   -4.7423    1.9775   -0.0934 H   0  0  0  0  0  0  0  0  0  0  0  0
   -2.1703   -0.0522    0.8939 H   0  0  0  0  0  0  0  0  0  0  0  0
   -2.2484   -0.5437   -0.7962 H   0  0  0  0  0  0  0  0  0  0  0  0
   -2.9273    2.2232   -0.8686 H   0  0  0  0  0  0  0  0  0  0  0  0
    1.1107    4.3581   -1.5749 H   0  0  0  0  0  0  0  0  0  0  0  0
    2.7551    2.7786   -0.8745 H   0  0  0  0  0  0  0  0  0  0  0  0
    0.5699   -3.0676    1.6182 H   0  0  0  0  0  0  0  0  0  0  0  0
    1.7446   -5.0034    2.5509 H   0  0  0  0  0  0  0  0  0  0  0  0
    4.1915   -5.0641    2.6339 H   0  0  0  0  0  0  0  0  0  0  0  0
    5.4904   -3.0964    1.7420 H   0  0  0  0  0  0  0  0  0  0  0  0
    4.4617    2.0517   -2.3237 H   0  0  0  0  0  0  0  0  0  0  0  0
    4.3132    0.1989   -2.2513 H   0  0  0  0  0  0  0  0  0  0  0  0
    6.4925    1.1097   -3.0892 H   0  0  0  0  0  0  0  0  0  0  0  0
    6.5770    0.0033   -1.6740 H   0  0  0  0  0  0  0  0  0  0  0  0
    8.0316    2.0029   -1.4088 H   0  0  0  0  0  0  0  0  0  0  0  0
    6.5513    3.0638   -1.6088 H   0  0  0  0  0  0  0  0  0  0  0  0
    7.2081    2.5556    0.8738 H   0  0  0  0  0  0  0  0  0  0  0  0
    6.9401    0.8000    0.4179 H   0  0  0  0  0  0  0  0  0  0  0  0
    4.9409    3.1186    0.1751 H   0  0  0  0  0  0  0  0  0  0  0  0
    4.9181    1.8919    1.5136 H   0  0  0  0  0  0  0  0  0  0  0  0
   -3.7362   -2.1663    0.1075 H   0  0  0  0  0  0  0  0  0  0  0  0
   -5.3914   -3.7733    0.3373 H   0  0  0  0  0  0  0  0  0  0  0  0
   -6.9303   -3.4053   -0.5966 H   0  0  0  0  0  0  0  0  0  0  0  0
   -6.8727   -3.2963    1.1923 H   0  0  0  0  0  0  0  0  0  0  0  0
   -8.4148   -1.7264   -0.6623 H   0  0  0  0  0  0  0  0  0  0  0  0
   -8.4527   -1.6618    1.1346 H   0  0  0  0  0  0  0  0  0  0  0  0
   -8.8612   -0.1734    0.2310 H   0  0  0  0  0  0  0  0  0  0  0  0
  1  2  1  0
  2  3  2  0
  3  4  1  0
  4  5  1  0
  5  6  1  0
  6  7  1  0
  7  8  2  0
  8  9  1  0
  9 10  2  0
 10 11  1  0
 11 12  2  0
 11 13  1  0
 13 14  2  0
 14 15  1  0
 15 16  2  0
 16 17  1  0
 17 18  2  0
 18 19  1  0
 19 20  2  0
 20 21  1  0
 21 22  2  0
 22 23  1  0
 23 24  1  0
 24 25  1  0
 25 26  1  0
 26 27  1  0
 27 28  1  0
  4 29  2  0
 29 30  1  0
 30 31  1  0
 30 32  2  0
 32 33  1  0
 32  2  1  0
 12  7  1  0
 22 13  1  0
 28 23  1  0
 20 15  1  0
  1 34  1  0
  1 35  1  0
  1 36  1  0
  3 37  1  0
  5 38  1  0
  5 39  1  0
  6 40  1  0
  9 41  1  0
 10 42  1  0
 16 43  1  0
 17 44  1  0
 18 45  1  0
 19 46  1  0
 24 47  1  0
 24 48  1  0
 25 49  1  0
 25 50  1  0
 26 51  1  0
 26 52  1  0
 27 53  1  0
 27 54  1  0
 28 55  1  0
 28 56  1  0
 29 57  1  0
 31 58  1  0
 31 59  1  0
 31 60  1  0
 33 61  1  0
 33 62  1  0
 33 63  1  0
M  END
$$$$
[H]OC(=O)C([H])([H])C([H])([H])C([H])([H])Oc1c([H])c([H])c([H])c(OC([H])([H])C(=O)N2C([H])([H])C([H])([H])C([H])(C(=O)N3C([H])([H])[C@@]([H])(O[H])[C@]([H])(c4c([H])c([H])c([H])c([H])c4[H])C3([H])[H])C([H])([H])C2([H])[H])c1[H]
     RDKit          3D

 71 74  0  0  0  0  0  0  0  0999 V2000
   11.1788   -0.6656   -2.1617 O   0  0  0  0  0  0  0  0  0  0  0  0
   10.0595   -0.0720   -2.6911 C   0  0  0  0  0  0  0  0  0  0  0  0
    9.8566   -0.0507   -3.9291 O   0  0  0  0  0  0  0  0  0  0  0  0
    9.0444    0.5685   -1.8196 C   0  0  0  0  0  0  0  0  0  0  0  0
    9.3969    0.4801   -0.3702 C   0  0  0  0  0  0  0  0  0  0  0  0
    8.2807    1.1704    0.4102 C   0  0  0  0  0  0  0  0  0  0  0  0
    7.0899    0.4673    0.1103 O   0  0  0  0  0  0  0  0  0  0  0  0
    5.8829    0.8575    0.6742 C   0  0  0  0  0  0  0  0  0  0  0  0
    5.8461    1.9356    1.5294 C   0  0  0  0  0  0  0  0  0  0  0  0
    4.6137    2.2607    2.0477 C   0  0  0  0  0  0  0  0  0  0  0  0
    3.4794    1.5473    1.7288 C   0  0  0  0  0  0  0  0  0  0  0  0
    3.5583    0.4769    0.8708 C   0  0  0  0  0  0  0  0  0  0  0  0
    2.4448   -0.2555    0.5330 O   0  0  0  0  0  0  0  0  0  0  0  0
    2.4042   -1.3417   -0.3128 C   0  0  0  0  0  0  0  0  0  0  0  0
    1.0502   -1.8893   -0.4482 C   0  0  0  0  0  0  0  0  0  0  0  0
    0.9756   -2.9075   -1.2435 O   0  0  0  0  0  0  0  0  0  0  0  0
   -0.1441   -1.4648    0.1564 N   0  0  0  0  0  0  0  0  0  0  0  0
   -1.3499   -2.2277   -0.1864 C   0  0  0  0  0  0  0  0  0  0  0  0
   -2.3788   -2.1394    0.9291 C   0  0  0  0  0  0  0  0  0  0  0  0
   -2.6797   -0.6834    1.0994 C   0  0  0  0  0  0  0  0  0  0  0  0
   -1.4787   -0.0029    1.6629 C   0  0  0  0  0  0  0  0  0  0  0  0
   -0.1655   -0.3572    1.0486 C   0  0  0  0  0  0  0  0  0  0  0  0
   -3.0675    0.0244   -0.1306 C   0  0  0  0  0  0  0  0  0  0  0  0
   -2.3484    0.9275   -0.6375 O   0  0  0  0  0  0  0  0  0  0  0  0
   -4.2822   -0.3070   -0.7774 N   0  0  0  0  0  0  0  0  0  0  0  0
   -4.7493    0.3326   -1.9997 C   0  0  0  0  0  0  0  0  0  0  0  0
   -6.1405   -0.1696   -2.2290 C   0  0  1  0  0  0  0  0  0  0  0  0
   -6.0480   -1.1692   -3.2047 O   0  0  0  0  0  0  0  0  0  0  0  0
   -6.5352   -0.7973   -0.9263 C   0  0  1  0  0  0  0  0  0  0  0  0
   -5.2415   -1.3003   -0.3630 C   0  0  0  0  0  0  0  0  0  0  0  0
   -7.2438    0.1782   -0.0829 C   0  0  0  0  0  0  0  0  0  0  0  0
   -8.5667   -0.1083    0.2474 C   0  0  0  0  0  0  0  0  0  0  0  0
   -9.2945    0.7581    1.0346 C   0  0  0  0  0  0  0  0  0  0  0  0
   -8.7564    1.9317    1.5252 C   0  0  0  0  0  0  0  0  0  0  0  0
   -7.4550    2.2288    1.2093 C   0  0  0  0  0  0  0  0  0  0  0  0
   -6.7373    1.3452    0.4157 C   0  0  0  0  0  0  0  0  0  0  0  0
    4.7721    0.1279    0.3375 C   0  0  0  0  0  0  0  0  0  0  0  0
   11.5515   -0.3572   -1.2761 H   0  0  0  0  0  0  0  0  0  0  0  0
    8.9029    1.6451   -2.0732 H   0  0  0  0  0  0  0  0  0  0  0  0
    8.0795    0.0690   -2.0056 H   0  0  0  0  0  0  0  0  0  0  0  0
   10.3816    0.9170   -0.1572 H   0  0  0  0  0  0  0  0  0  0  0  0
    9.3639   -0.5949   -0.0571 H   0  0  0  0  0  0  0  0  0  0  0  0
    8.5212    1.1336    1.4932 H   0  0  0  0  0  0  0  0  0  0  0  0
    8.1684    2.2307    0.1291 H   0  0  0  0  0  0  0  0  0  0  0  0
    6.7422    2.4869    1.7717 H   0  0  0  0  0  0  0  0  0  0  0  0
    4.5426    3.1102    2.7303 H   0  0  0  0  0  0  0  0  0  0  0  0
    2.5129    1.8490    2.1723 H   0  0  0  0  0  0  0  0  0  0  0  0
    3.0894   -2.1735   -0.0145 H   0  0  0  0  0  0  0  0  0  0  0  0
    2.7117   -0.9938   -1.3425 H   0  0  0  0  0  0  0  0  0  0  0  0
   -1.7923   -1.7033   -1.0595 H   0  0  0  0  0  0  0  0  0  0  0  0
   -1.1183   -3.2532   -0.4816 H   0  0  0  0  0  0  0  0  0  0  0  0
   -1.9379   -2.4783    1.9029 H   0  0  0  0  0  0  0  0  0  0  0  0
   -3.2497   -2.7257    0.6449 H   0  0  0  0  0  0  0  0  0  0  0  0
   -3.4893   -0.6193    1.8866 H   0  0  0  0  0  0  0  0  0  0  0  0
   -1.4791   -0.1762    2.7788 H   0  0  0  0  0  0  0  0  0  0  0  0
   -1.6701    1.1071    1.5808 H   0  0  0  0  0  0  0  0  0  0  0  0
    0.5375   -0.5900    1.9035 H   0  0  0  0  0  0  0  0  0  0  0  0
    0.1969    0.5418    0.4983 H   0  0  0  0  0  0  0  0  0  0  0  0
   -4.6870    1.4568   -1.9279 H   0  0  0  0  0  0  0  0  0  0  0  0
   -4.0646    0.0535   -2.8544 H   0  0  0  0  0  0  0  0  0  0  0  0
   -6.8427    0.6348   -2.5453 H   0  0  0  0  0  0  0  0  0  0  0  0
   -6.2073   -2.0710   -2.8409 H   0  0  0  0  0  0  0  0  0  0  0  0
   -7.2222   -1.6740   -1.1662 H   0  0  0  0  0  0  0  0  0  0  0  0
   -4.9862   -2.2377   -0.9046 H   0  0  0  0  0  0  0  0  0  0  0  0
   -5.2675   -1.4403    0.7350 H   0  0  0  0  0  0  0  0  0  0  0  0
   -9.0344   -0.9976   -0.1020 H   0  0  0  0  0  0  0  0  0  0  0  0
  -10.3285    0.5239    1.2866 H   0  0  0  0  0  0  0  0  0  0  0  0
   -9.3312    2.6041    2.1397 H   0  0  0  0  0  0  0  0  0  0  0  0
   -6.9749    3.1287    1.5602 H   0  0  0  0  0  0  0  0  0  0  0  0
   -5.7316    1.6017    0.1882 H   0  0  0  0  0  0  0  0  0  0  0  0
    4.8412   -0.7173   -0.3419 H   0  0  0  0  0  0  0  0  0  0  0  0
  1  2  1  0
  2  3  2  0
  2  4  1  0
  4  5  1  0
  5  6  1  0
  6  7  1  0
  7  8  1  0
  8  9  2  0
  9 10  1  0
 10 11  2  0
 11 12  1  0
 12 13  1  0
 13 14  1  0
 14 15  1  0
 15 16  2  0
 15 17  1  0
 17 18  1  0
 18 19  1  0
 19 20  1  0
 20 21  1  0
 21 22  1  0
 20 23  1  0
 23 24  2  0
 23 25  1  0
 25 26  1  0
 26 27  1  0
 27 28  1  0
 27 29  1  0
 29 30  1  0
 29 31  1  0
 31 32  2  0
 32 33  1  0
 33 34  2  0
 34 35  1  0
 35 36  2  0
 12 37  2  0
 37  8  1  0
 22 17  1  0
 30 25  1  0
 36 31  1  0
  1 38  1  0
  4 39  1  0
  4 40  1  0
  5 41  1  0
  5 42  1  0
  6 43  1  0
  6 44  1  0
  9 45  1  0
 10 46  1  0
 11 47  1  0
 14 48  1  0
 14 49  1  0
 18 50  1  0
 18 51  1  0
 19 52  1  0
 19 53  1  0
 20 54  1  0
 21 55  1  0
 21 56  1  0
 22 57  1  0
 22 58  1  0
 26 59  1  0
 26 60  1  0
 27 61  1  6
 28 62  1  0
 29 63  1  6
 30 64  1  0
 30 65  1  0
 32 66  1  0
 33 67  1  0
 34 68  1  0
 35 69  1  0
 36 70  1  0
 37 71  1  0
M  END
$$$$
[H]c1c([H])c([H])c(N(C(=O)OC([H])([H])[H])C([H])([H])[H])c(-c2c([H])c([H])c3c(N([H])C(=O)C([H])([H])Oc4c([H])c([H])c(Cl)c([H])c4[H])c([H])c([H])c([H])c3c2[H])c1[H]
     RDKit          3D

 57 60  0  0  0  0  0  0  0  0999 V2000
   -2.4282    0.1640    3.2658 C   0  0  0  0  0  0  0  0  0  0  0  0
   -3.2096    0.1837    2.0728 O   0  0  0  0  0  0  0  0  0  0  0  0
   -4.0297   -0.8348    1.6921 C   0  0  0  0  0  0  0  0  0  0  0  0
   -4.0653   -1.8467    2.4802 O   0  0  0  0  0  0  0  0  0  0  0  0
   -4.8274   -0.8921    0.5484 N   0  0  0  0  0  0  0  0  0  0  0  0
   -5.6926   -2.0190    0.3171 C   0  0  0  0  0  0  0  0  0  0  0  0
   -4.8537    0.1615   -0.4161 C   0  0  0  0  0  0  0  0  0  0  0  0
   -6.0460    0.8533   -0.6088 C   0  0  0  0  0  0  0  0  0  0  0  0
   -6.1576    1.8668   -1.5070 C   0  0  0  0  0  0  0  0  0  0  0  0
   -5.0643    2.2439   -2.2693 C   0  0  0  0  0  0  0  0  0  0  0  0
   -3.9121    1.5608   -2.0688 C   0  0  0  0  0  0  0  0  0  0  0  0
   -3.7659    0.5041   -1.1436 C   0  0  0  0  0  0  0  0  0  0  0  0
   -2.4504   -0.1335   -1.0385 C   0  0  0  0  0  0  0  0  0  0  0  0
   -1.3354    0.7015   -1.0053 C   0  0  0  0  0  0  0  0  0  0  0  0
   -0.0364    0.1995   -0.9315 C   0  0  0  0  0  0  0  0  0  0  0  0
    0.2080   -1.1451   -0.8882 C   0  0  0  0  0  0  0  0  0  0  0  0
    1.5355   -1.6212   -0.8251 C   0  0  0  0  0  0  0  0  0  0  0  0
    2.5871   -0.7105   -0.7007 N   0  0  0  0  0  0  0  0  0  0  0  0
    3.5981    0.1260   -0.5921 C   0  0  0  0  0  0  0  0  0  0  0  0
    4.8399   -0.1910   -0.8399 O   0  0  0  0  0  0  0  0  0  0  0  0
    3.4481    1.5809   -0.1584 C   0  0  0  0  0  0  0  0  0  0  0  0
    4.6697    2.1642   -0.0421 O   0  0  0  0  0  0  0  0  0  0  0  0
    5.7145    1.9263    0.7922 C   0  0  0  0  0  0  0  0  0  0  0  0
    5.7248    0.9873    1.7848 C   0  0  0  0  0  0  0  0  0  0  0  0
    6.8387    0.8274    2.5733 C   0  0  0  0  0  0  0  0  0  0  0  0
    7.9509    1.6158    2.3630 C   0  0  0  0  0  0  0  0  0  0  0  0
    9.3632    1.3991    3.3692 Cl  0  0  0  0  0  0  0  0  0  0  0  0
    7.9475    2.5529    1.3762 C   0  0  0  0  0  0  0  0  0  0  0  0
    6.8478    2.7306    0.5764 C   0  0  0  0  0  0  0  0  0  0  0  0
    1.6581   -2.9946   -0.7984 C   0  0  0  0  0  0  0  0  0  0  0  0
    0.5649   -3.8582   -0.8304 C   0  0  0  0  0  0  0  0  0  0  0  0
   -0.6840   -3.3278   -0.8913 C   0  0  0  0  0  0  0  0  0  0  0  0
   -0.8886   -1.9622   -0.9213 C   0  0  0  0  0  0  0  0  0  0  0  0
   -2.2033   -1.4680   -0.9960 C   0  0  0  0  0  0  0  0  0  0  0  0
   -2.6380    1.0434    3.9232 H   0  0  0  0  0  0  0  0  0  0  0  0
   -2.6036   -0.7528    3.8632 H   0  0  0  0  0  0  0  0  0  0  0  0
   -1.3751    0.2767    2.9201 H   0  0  0  0  0  0  0  0  0  0  0  0
   -6.4872   -1.7476   -0.4065 H   0  0  0  0  0  0  0  0  0  0  0  0
   -5.1257   -2.8992   -0.0684 H   0  0  0  0  0  0  0  0  0  0  0  0
   -6.2190   -2.2887    1.2800 H   0  0  0  0  0  0  0  0  0  0  0  0
   -6.9115    0.5678   -0.0185 H   0  0  0  0  0  0  0  0  0  0  0  0
   -7.0746    2.4331   -1.6796 H   0  0  0  0  0  0  0  0  0  0  0  0
   -5.1112    3.0434   -2.9947 H   0  0  0  0  0  0  0  0  0  0  0  0
   -3.0211    1.8272   -2.6487 H   0  0  0  0  0  0  0  0  0  0  0  0
   -1.4754    1.7713   -1.0370 H   0  0  0  0  0  0  0  0  0  0  0  0
    0.8068    0.8607   -0.9219 H   0  0  0  0  0  0  0  0  0  0  0  0
    3.3761   -1.5804   -1.4072 H   0  0  0  0  0  0  0  0  0  0  0  0
    2.9306    1.5004    0.8416 H   0  0  0  0  0  0  0  0  0  0  0  0
    2.8329    2.1171   -0.8976 H   0  0  0  0  0  0  0  0  0  0  0  0
    4.8630    0.3613    1.9731 H   0  0  0  0  0  0  0  0  0  0  0  0
    6.8176    0.0694    3.3610 H   0  0  0  0  0  0  0  0  0  0  0  0
    8.8472    3.1599    1.2363 H   0  0  0  0  0  0  0  0  0  0  0  0
    6.8503    3.4748   -0.2052 H   0  0  0  0  0  0  0  0  0  0  0  0
    2.6514   -3.4639   -0.7366 H   0  0  0  0  0  0  0  0  0  0  0  0
    0.7314   -4.9171   -0.8068 H   0  0  0  0  0  0  0  0  0  0  0  0
   -1.5355   -3.9928   -0.9124 H   0  0  0  0  0  0  0  0  0  0  0  0
   -2.9756   -2.2092   -1.0260 H   0  0  0  0  0  0  0  0  0  0  0  0
  1  2  1  0
  2  3  1  0
  3  4  2  0
  3  5  1  0
  5  6  1  0
  5  7  1  0
  7  8  2  0
  8  9  1  0
  9 10  2  0
 10 11  1  0
 11 12  2  0
 12 13  1  0
 13 14  2  0
 14 15  1  0
 15 16  2  0
 16 17  1  0
 17 18  1  0
 18 19  1  0
 19 20  2  0
 19 21  1  0
 21 22  1  0
 22 23  1  0
 23 24  2  0
 24 25  1  0
 25 26  2  0
 26 27  1  0
 26 28  1  0
 28 29  2  0
 17 30  2  0
 30 31  1  0
 31 32  2  0
 32 33  1  0
 33 34  2  0
 12  7  1  0
 34 13  1  0
 33 16  1  0
 29 23  1  0
  1 35  1  0
  1 36  1  0
  1 37  1  0
  6 38  1  0
  6 39  1  0
  6 40  1  0
  8 41  1  0
  9 42  1  0
 10 43  1  0
 11 44  1  0
 14 45  1  0
 15 46  1  0
 18 47  1  0
 21 48  1  0
 21 49  1  0
 24 50  1  0
 25 51  1  0
 28 52  1  0
 29 53  1  0
 30 54  1  0
 31 55  1  0
 32 56  1  0
 34 57  1  0
M  END
$$$$
[H]c1c(C2([H])C([H])([H])N(C3(C#N)C([H])([H])C([H])([H])C3([H])[H])C2([H])[H])c([H])c2c(C([H])([H])[H])nn([H])c2c1[H]
     RDKit          3D

 38 41  0  0  0  0  0  0  0  0999 V2000
    4.2486    2.3907   -0.2155 C   0  0  0  0  0  0  0  0  0  0  0  0
    4.3330    0.9319    0.1120 C   0  0  0  0  0  0  0  0  0  0  0  0
    5.4324    0.1818    0.3364 N   0  0  0  0  0  0  0  0  0  0  0  0
    5.0993   -1.0676    0.5964 N   0  0  0  0  0  0  0  0  0  0  0  0
    3.7440   -1.2175    0.5588 C   0  0  0  0  0  0  0  0  0  0  0  0
    2.9104   -2.2950    0.7560 C   0  0  0  0  0  0  0  0  0  0  0  0
    1.5524   -2.1063    0.6437 C   0  0  0  0  0  0  0  0  0  0  0  0
    1.0518   -0.8624    0.3402 C   0  0  0  0  0  0  0  0  0  0  0  0
    1.9082    0.1989    0.1481 C   0  0  0  0  0  0  0  0  0  0  0  0
    3.2775    0.0565    0.2511 C   0  0  0  0  0  0  0  0  0  0  0  0
   -0.4184   -0.7125    0.2320 C   0  0  0  0  0  0  0  0  0  0  0  0
   -0.9898    0.5406    0.7862 C   0  0  0  0  0  0  0  0  0  0  0  0
   -1.7718    0.7101   -0.3779 N   0  0  0  0  0  0  0  0  0  0  0  0
   -0.8812   -0.1443   -1.1010 C   0  0  0  0  0  0  0  0  0  0  0  0
   -3.1492    0.4022   -0.3928 C   0  0  0  0  0  0  0  0  0  0  0  0
   -4.0231    1.2437    0.5400 C   0  0  0  0  0  0  0  0  0  0  0  0
   -4.8813    0.0050    0.7171 C   0  0  0  0  0  0  0  0  0  0  0  0
   -3.5952   -0.7877    0.4299 C   0  0  0  0  0  0  0  0  0  0  0  0
   -3.7641    0.3575   -1.7164 C   0  0  0  0  0  0  0  0  0  0  0  0
   -4.2383    0.3203   -2.7829 N   0  0  0  0  0  0  0  0  0  0  0  0
    3.5188    2.8903    0.4573 H   0  0  0  0  0  0  0  0  0  0  0  0
    3.9604    2.5724   -1.2704 H   0  0  0  0  0  0  0  0  0  0  0  0
    5.2721    2.7936   -0.0896 H   0  0  0  0  0  0  0  0  0  0  0  0
    5.7302   -1.8945    0.8123 H   0  0  0  0  0  0  0  0  0  0  0  0
    3.2903   -3.2751    0.9935 H   0  0  0  0  0  0  0  0  0  0  0  0
    0.8861   -2.9691    0.8018 H   0  0  0  0  0  0  0  0  0  0  0  0
    1.5367    1.1878   -0.0923 H   0  0  0  0  0  0  0  0  0  0  0  0
   -0.9681   -1.6101    0.5526 H   0  0  0  0  0  0  0  0  0  0  0  0
   -1.5144    0.4591    1.7583 H   0  0  0  0  0  0  0  0  0  0  0  0
   -0.2632    1.3993    0.8902 H   0  0  0  0  0  0  0  0  0  0  0  0
   -1.3527   -0.8910   -1.7700 H   0  0  0  0  0  0  0  0  0  0  0  0
   -0.0624    0.4415   -1.5411 H   0  0  0  0  0  0  0  0  0  0  0  0
   -4.5397    2.0835    0.0303 H   0  0  0  0  0  0  0  0  0  0  0  0
   -3.4598    1.5082    1.4529 H   0  0  0  0  0  0  0  0  0  0  0  0
   -5.6498   -0.0835   -0.0789 H   0  0  0  0  0  0  0  0  0  0  0  0
   -5.2811   -0.1470    1.7397 H   0  0  0  0  0  0  0  0  0  0  0  0
   -3.0869   -0.9168    1.4071 H   0  0  0  0  0  0  0  0  0  0  0  0
   -3.8617   -1.6948   -0.1167 H   0  0  0  0  0  0  0  0  0  0  0  0
  1  2  1  0
  2  3  2  0
  3  4  1  0
  4  5  1  0
  5  6  2  0
  6  7  1  0
  7  8  2  0
  8  9  1  0
  9 10  2  0
  8 11  1  0
 11 12  1  0
 12 13  1  0
 13 14  1  0
 13 15  1  0
 15 16  1  0
 16 17  1  0
 17 18  1  0
 15 19  1  0
 19 20  3  0
 10  2  1  0
 14 11  1  0
 18 15  1  0
 10  5  1  0
  1 21  1  0
  1 22  1  0
  1 23  1  0
  4 24  1  0
  6 25  1  0
  7 26  1  0
  9 27  1  0
 11 28  1  0
 12 29  1  0
 12 30  1  0
 14 31  1  0
 14 32  1  0
 16 33  1  0
 16 34  1  0
 17 35  1  0
 17 36  1  0
 18 37  1  0
 18 38  1  0
M  END
$$$$
[H]c1nc(-c2nc(N3C([H])([H])C([H])([H])C([H])(N(C([H])([H])[H])C([H])([H])[H])C([H])([H])C3([H])[H])nc([H])c2Cl)c([H])nc1-c1nnc(C(F)(F)F)o1
     RDKit          3D

 49 52  0  0  0  0  0  0  0  0999 V2000
   -6.1258    0.1126    2.2715 C   0  0  0  0  0  0  0  0  0  0  0  0
   -5.9741    0.0628    0.8023 N   0  0  0  0  0  0  0  0  0  0  0  0
   -7.1052   -0.6749    0.3080 C   0  0  0  0  0  0  0  0  0  0  0  0
   -4.7103   -0.5664    0.4336 C   0  0  0  0  0  0  0  0  0  0  0  0
   -4.5209   -0.4648   -1.0395 C   0  0  0  0  0  0  0  0  0  0  0  0
   -3.4389    0.5132   -1.4436 C   0  0  0  0  0  0  0  0  0  0  0  0
   -2.2070    0.3140   -0.6777 N   0  0  0  0  0  0  0  0  0  0  0  0
   -2.2772   -0.3962    0.5535 C   0  0  0  0  0  0  0  0  0  0  0  0
   -3.5739    0.0039    1.2572 C   0  0  0  0  0  0  0  0  0  0  0  0
   -0.9923    0.8226   -1.1996 C   0  0  0  0  0  0  0  0  0  0  0  0
   -1.0392    1.7054   -2.2532 N   0  0  0  0  0  0  0  0  0  0  0  0
    0.0736    2.2005   -2.7722 C   0  0  0  0  0  0  0  0  0  0  0  0
    1.2999    1.8670   -2.2983 C   0  0  0  0  0  0  0  0  0  0  0  0
    2.7898    2.4912   -2.9623 Cl  0  0  0  0  0  0  0  0  0  0  0  0
    1.3513    0.9773   -1.2325 C   0  0  0  0  0  0  0  0  0  0  0  0
    0.2096    0.4936   -0.7267 N   0  0  0  0  0  0  0  0  0  0  0  0
    2.6394    0.5871   -0.7026 C   0  0  0  0  0  0  0  0  0  0  0  0
    2.7448   -0.3070    0.3398 C   0  0  0  0  0  0  0  0  0  0  0  0
    3.9954   -0.6206    0.7607 N   0  0  0  0  0  0  0  0  0  0  0  0
    5.0944   -0.1085    0.2056 C   0  0  0  0  0  0  0  0  0  0  0  0
    5.0063    0.7783   -0.8313 C   0  0  0  0  0  0  0  0  0  0  0  0
    3.7643    1.0927   -1.2488 N   0  0  0  0  0  0  0  0  0  0  0  0
    6.3937   -0.5189    0.7206 C   0  0  0  0  0  0  0  0  0  0  0  0
    6.6529   -1.3809    1.7265 N   0  0  0  0  0  0  0  0  0  0  0  0
    7.9590   -1.5117    1.9208 N   0  0  0  0  0  0  0  0  0  0  0  0
    8.5460   -0.7094    1.0109 C   0  0  0  0  0  0  0  0  0  0  0  0
    7.5981   -0.1342    0.3100 O   0  0  0  0  0  0  0  0  0  0  0  0
   10.0078   -0.5466    0.8800 C   0  0  0  0  0  0  0  0  0  0  0  0
   10.5386    0.1488    1.9108 F   0  0  0  0  0  0  0  0  0  0  0  0
   10.3459   -0.0471   -0.3706 F   0  0  0  0  0  0  0  0  0  0  0  0
   10.6178   -1.8230    0.9251 F   0  0  0  0  0  0  0  0  0  0  0  0
   -5.6594    1.0243    2.6896 H   0  0  0  0  0  0  0  0  0  0  0  0
   -7.2333    0.2186    2.4506 H   0  0  0  0  0  0  0  0  0  0  0  0
   -5.6883   -0.7686    2.7475 H   0  0  0  0  0  0  0  0  0  0  0  0
   -6.9931   -1.1113   -0.6885 H   0  0  0  0  0  0  0  0  0  0  0  0
   -7.9579    0.0266    0.3373 H   0  0  0  0  0  0  0  0  0  0  0  0
   -7.3888   -1.5485    0.9795 H   0  0  0  0  0  0  0  0  0  0  0  0
   -4.8083   -1.6207    0.7182 H   0  0  0  0  0  0  0  0  0  0  0  0
   -4.1991   -1.4605   -1.4903 H   0  0  0  0  0  0  0  0  0  0  0  0
   -5.4362   -0.1432   -1.5397 H   0  0  0  0  0  0  0  0  0  0  0  0
   -3.8394    1.5211   -1.3232 H   0  0  0  0  0  0  0  0  0  0  0  0
   -3.2426    0.3038   -2.5065 H   0  0  0  0  0  0  0  0  0  0  0  0
   -1.4027   -0.2278    1.2334 H   0  0  0  0  0  0  0  0  0  0  0  0
   -2.3893   -1.4779    0.3572 H   0  0  0  0  0  0  0  0  0  0  0  0
   -3.6211    1.1201    1.3086 H   0  0  0  0  0  0  0  0  0  0  0  0
   -3.5593   -0.4272    2.2669 H   0  0  0  0  0  0  0  0  0  0  0  0
    0.0216    2.8889   -3.6191 H   0  0  0  0  0  0  0  0  0  0  0  0
    1.8619   -0.7257    0.7984 H   0  0  0  0  0  0  0  0  0  0  0  0
    5.8718    1.2141   -1.2980 H   0  0  0  0  0  0  0  0  0  0  0  0
  1  2  1  0
  2  3  1  0
  2  4  1  0
  4  5  1  0
  5  6  1  0
  6  7  1  0
  7  8  1  0
  8  9  1  0
  7 10  1  0
 10 11  2  0
 11 12  1  0
 12 13  2  0
 13 14  1  0
 13 15  1  0
 15 16  2  0
 15 17  1  0
 17 18  2  0
 18 19  1  0
 19 20  2  0
 20 21  1  0
 21 22  2  0
 20 23  1  0
 23 24  2  0
 24 25  1  0
 25 26  2  0
 26 27  1  0
 26 28  1  0
 28 29  1  0
 28 30  1  0
 28 31  1  0
  9  4  1  0
 16 10  1  0
 22 17  1  0
 27 23  1  0
  1 32  1  0
  1 33  1  0
  1 34  1  0
  3 35  1  0
  3 36  1  0
  3 37  1  0
  4 38  1  0
  5 39  1  0
  5 40  1  0
  6 41  1  0
  6 42  1  0
  8 43  1  0
  8 44  1  0
  9 45  1  0
  9 46  1  0
 12 47  1  0
 18 48  1  0
 21 49  1  0
M  END
$$$$
[H]c1c([H])c([H])c(C([H])([H])[C@]2([H])C(=O)N([H])[C@]([H])(c3c([H])c([H])c([H])c([H])c3[H])C([H])([H])SSC([H])([H])C([H])([H])C(=O)N([H])[C@]([H])(C([H])([H])c3c([H])c([H])c(F)c([H])c3[H])C(=O)N([H])[C@@]([H])(C([H])([H])C([H])(C([H])([H])[H])C([H])([H])[H])S(=O)(=O)C([H])([H])[C@]([H])(C3([H])C([H])([H])C([H])([H])C([H])([H])C([H])([H])C3([H])[H])C(=O)N2[H])c([H])c1[H]
     RDKit          3D

112116  0  0  0  0  0  0  0  0999 V2000
    4.6323    3.7075    2.8174 C   0  0  0  0  0  0  0  0  0  0  0  0
    3.5632    2.6677    2.5355 C   0  0  0  0  0  0  0  0  0  0  0  0
    3.8514    1.5009    3.4675 C   0  0  0  0  0  0  0  0  0  0  0  0
    3.5978    2.2434    1.0845 C   0  0  0  0  0  0  0  0  0  0  0  0
    2.5386    1.2131    0.7715 C   0  0  2  0  0  0  0  0  0  0  0  0
    2.6974    0.9023   -0.6451 N   0  0  0  0  0  0  0  0  0  0  0  0
    3.0282   -0.3394   -1.1949 C   0  0  0  0  0  0  0  0  0  0  0  0
    2.2738   -0.7643   -2.1394 O   0  0  0  0  0  0  0  0  0  0  0  0
    4.1567   -1.2124   -0.8015 C   0  0  1  0  0  0  0  0  0  0  0  0
    5.4932   -0.5975   -1.2409 C   0  0  0  0  0  0  0  0  0  0  0  0
    6.6274   -1.4653   -0.8525 C   0  0  0  0  0  0  0  0  0  0  0  0
    6.9928   -2.4471   -1.7751 C   0  0  0  0  0  0  0  0  0  0  0  0
    8.0388   -3.2734   -1.4677 C   0  0  0  0  0  0  0  0  0  0  0  0
    8.7093   -3.1311   -0.2723 C   0  0  0  0  0  0  0  0  0  0  0  0
    9.7320   -3.9602   -0.0037 F   0  0  0  0  0  0  0  0  0  0  0  0
    8.3395   -2.1484    0.6450 C   0  0  0  0  0  0  0  0  0  0  0  0
    7.2878   -1.3146    0.3402 C   0  0  0  0  0  0  0  0  0  0  0  0
    4.1878   -1.5597    0.5883 N   0  0  0  0  0  0  0  0  0  0  0  0
    3.6102   -2.7390    1.1244 C   0  0  0  0  0  0  0  0  0  0  0  0
    3.3755   -2.8173    2.3533 O   0  0  0  0  0  0  0  0  0  0  0  0
    3.2722   -3.8957    0.2624 C   0  0  0  0  0  0  0  0  0  0  0  0
    2.3604   -4.8406    0.9924 C   0  0  0  0  0  0  0  0  0  0  0  0
    0.7880   -4.9622    0.0994 S   0  0  0  0  0  0  0  0  0  0  0  0
   -0.3093   -3.1825    0.3439 S   0  0  0  0  0  0  0  0  0  0  0  0
   -1.1806   -2.6610   -1.1355 C   0  0  0  0  0  0  0  0  0  0  0  0
   -2.6530   -2.3877   -0.8043 C   0  0  2  0  0  0  0  0  0  0  0  0
   -2.8818   -2.5213    0.6184 N   0  0  0  0  0  0  0  0  0  0  0  0
   -3.6874   -1.6659    1.4097 C   0  0  0  0  0  0  0  0  0  0  0  0
   -4.1739   -2.1270    2.5032 O   0  0  0  0  0  0  0  0  0  0  0  0
   -4.0174   -0.2547    1.0663 C   0  0  1  0  0  0  0  0  0  0  0  0
   -5.4685   -0.0422    1.5297 C   0  0  0  0  0  0  0  0  0  0  0  0
   -5.9673    1.2943    1.2721 C   0  0  0  0  0  0  0  0  0  0  0  0
   -5.8280    2.2886    2.2082 C   0  0  0  0  0  0  0  0  0  0  0  0
   -6.2814    3.5730    2.0159 C   0  0  0  0  0  0  0  0  0  0  0  0
   -6.9026    3.9030    0.8494 C   0  0  0  0  0  0  0  0  0  0  0  0
   -7.0626    2.9327   -0.1174 C   0  0  0  0  0  0  0  0  0  0  0  0
   -6.5948    1.6273    0.0937 C   0  0  0  0  0  0  0  0  0  0  0  0
   -3.2284    0.6831    1.8412 N   0  0  0  0  0  0  0  0  0  0  0  0
   -2.3773    1.6865    1.3075 C   0  0  0  0  0  0  0  0  0  0  0  0
   -2.1938    2.7956    1.9265 O   0  0  0  0  0  0  0  0  0  0  0  0
   -1.6324    1.5755    0.0275 C   0  0  2  0  0  0  0  0  0  0  0  0
   -0.2814    0.9759    0.1439 C   0  0  0  0  0  0  0  0  0  0  0  0
    0.8969    1.8918    1.0606 S   0  0  0  0  0  0  0  0  0  0  0  0
    0.9810    3.3300    0.7174 O   0  0  0  0  0  0  0  0  0  0  0  0
    0.5430    1.7677    2.5152 O   0  0  0  0  0  0  0  0  0  0  0  0
   -1.6881    2.8730   -0.7347 C   0  0  0  0  0  0  0  0  0  0  0  0
   -3.1702    3.1569   -1.0149 C   0  0  0  0  0  0  0  0  0  0  0  0
   -3.3405    4.0861   -2.1743 C   0  0  0  0  0  0  0  0  0  0  0  0
   -2.1505    5.0102   -2.2384 C   0  0  0  0  0  0  0  0  0  0  0  0
   -0.9477    4.1899   -2.6496 C   0  0  0  0  0  0  0  0  0  0  0  0
   -0.9862    2.8031   -2.0428 C   0  0  0  0  0  0  0  0  0  0  0  0
   -3.4254   -3.5063   -1.4501 C   0  0  0  0  0  0  0  0  0  0  0  0
   -4.2076   -3.3025   -2.5671 C   0  0  0  0  0  0  0  0  0  0  0  0
   -4.9178   -4.3423   -3.1584 C   0  0  0  0  0  0  0  0  0  0  0  0
   -4.8568   -5.6243   -2.6338 C   0  0  0  0  0  0  0  0  0  0  0  0
   -4.0775   -5.8359   -1.5179 C   0  0  0  0  0  0  0  0  0  0  0  0
   -3.3795   -4.7979   -0.9425 C   0  0  0  0  0  0  0  0  0  0  0  0
    4.2997    4.7243    2.5561 H   0  0  0  0  0  0  0  0  0  0  0  0
    5.5199    3.4480    2.1999 H   0  0  0  0  0  0  0  0  0  0  0  0
    4.9634    3.6675    3.8726 H   0  0  0  0  0  0  0  0  0  0  0  0
    2.5990    3.0876    2.8195 H   0  0  0  0  0  0  0  0  0  0  0  0
    4.8609    1.1096    3.2127 H   0  0  0  0  0  0  0  0  0  0  0  0
    3.9101    1.8799    4.5057 H   0  0  0  0  0  0  0  0  0  0  0  0
    3.0794    0.7139    3.3982 H   0  0  0  0  0  0  0  0  0  0  0  0
    3.3281    3.1549    0.4978 H   0  0  0  0  0  0  0  0  0  0  0  0
    4.5799    1.8385    0.8007 H   0  0  0  0  0  0  0  0  0  0  0  0
    2.6683    0.3739    1.4410 H   0  0  0  0  0  0  0  0  0  0  0  0
    2.5340    1.7363   -1.2881 H   0  0  0  0  0  0  0  0  0  0  0  0
    4.1087   -2.1760   -1.3539 H   0  0  0  0  0  0  0  0  0  0  0  0
    5.4826   -0.4855   -2.3627 H   0  0  0  0  0  0  0  0  0  0  0  0
    5.6251    0.4105   -0.8183 H   0  0  0  0  0  0  0  0  0  0  0  0
    6.4557   -2.5546   -2.7229 H   0  0  0  0  0  0  0  0  0  0  0  0
    8.3198   -4.0410   -2.1959 H   0  0  0  0  0  0  0  0  0  0  0  0
    8.9057   -2.0905    1.5615 H   0  0  0  0  0  0  0  0  0  0  0  0
    7.0137   -0.5584    1.0544 H   0  0  0  0  0  0  0  0  0  0  0  0
    4.6704   -0.9018    1.2679 H   0  0  0  0  0  0  0  0  0  0  0  0
    4.2564   -4.4073    0.0547 H   0  0  0  0  0  0  0  0  0  0  0  0
    2.7914   -3.5789   -0.6784 H   0  0  0  0  0  0  0  0  0  0  0  0
    2.1975   -4.5214    2.0592 H   0  0  0  0  0  0  0  0  0  0  0  0
    2.8050   -5.8702    1.0521 H   0  0  0  0  0  0  0  0  0  0  0  0
   -1.0707   -3.4480   -1.9071 H   0  0  0  0  0  0  0  0  0  0  0  0
   -0.7225   -1.7374   -1.5964 H   0  0  0  0  0  0  0  0  0  0  0  0
   -2.9899   -1.4406   -1.2328 H   0  0  0  0  0  0  0  0  0  0  0  0
   -2.4107   -3.3186    1.0978 H   0  0  0  0  0  0  0  0  0  0  0  0
   -3.9291   -0.1151   -0.0173 H   0  0  0  0  0  0  0  0  0  0  0  0
   -5.4463   -0.3136    2.6259 H   0  0  0  0  0  0  0  0  0  0  0  0
   -6.0882   -0.8575    1.0612 H   0  0  0  0  0  0  0  0  0  0  0  0
   -5.3408    2.0679    3.1472 H   0  0  0  0  0  0  0  0  0  0  0  0
   -6.1602    4.3500    2.7750 H   0  0  0  0  0  0  0  0  0  0  0  0
   -7.2765    4.9275    0.6685 H   0  0  0  0  0  0  0  0  0  0  0  0
   -7.5590    3.2230   -1.0328 H   0  0  0  0  0  0  0  0  0  0  0  0
   -6.7270    0.8714   -0.6769 H   0  0  0  0  0  0  0  0  0  0  0  0
   -3.3076    0.5969    2.8787 H   0  0  0  0  0  0  0  0  0  0  0  0
   -2.2404    0.8505   -0.5942 H   0  0  0  0  0  0  0  0  0  0  0  0
    0.0690    0.6988   -0.8644 H   0  0  0  0  0  0  0  0  0  0  0  0
   -0.4189   -0.0066    0.6849 H   0  0  0  0  0  0  0  0  0  0  0  0
   -1.2744    3.7395   -0.1524 H   0  0  0  0  0  0  0  0  0  0  0  0
   -3.7346    2.2423   -1.2145 H   0  0  0  0  0  0  0  0  0  0  0  0
   -3.6165    3.6469   -0.1146 H   0  0  0  0  0  0  0  0  0  0  0  0
   -3.5116    3.5588   -3.1350 H   0  0  0  0  0  0  0  0  0  0  0  0
   -4.2395    4.7040   -1.9995 H   0  0  0  0  0  0  0  0  0  0  0  0
   -2.3322    5.8355   -2.9635 H   0  0  0  0  0  0  0  0  0  0  0  0
   -1.9668    5.3835   -1.2101 H   0  0  0  0  0  0  0  0  0  0  0  0
    0.0052    4.6705   -2.3561 H   0  0  0  0  0  0  0  0  0  0  0  0
   -0.9420    4.1340   -3.7585 H   0  0  0  0  0  0  0  0  0  0  0  0
    0.0556    2.4479   -1.9847 H   0  0  0  0  0  0  0  0  0  0  0  0
   -1.5082    2.0809   -2.7332 H   0  0  0  0  0  0  0  0  0  0  0  0
   -4.2567   -2.2960   -2.9810 H   0  0  0  0  0  0  0  0  0  0  0  0
   -5.5306   -4.1855   -4.0326 H   0  0  0  0  0  0  0  0  0  0  0  0
   -5.4092   -6.4309   -3.0943 H   0  0  0  0  0  0  0  0  0  0  0  0
   -4.0355   -6.8369   -1.1154 H   0  0  0  0  0  0  0  0  0  0  0  0
   -2.7647   -4.9616   -0.0636 H   0  0  0  0  0  0  0  0  0  0  0  0
  1  2  1  0
  2  3  1  0
  2  4  1  0
  4  5  1  0
  5  6  1  0
  6  7  1  0
  7  8  2  0
  7  9  1  0
  9 10  1  0
 10 11  1  0
 11 12  2  0
 12 13  1  0
 13 14  2  0
 14 15  1  0
 14 16  1  0
 16 17  2  0
  9 18  1  0
 18 19  1  0
 19 20  2  0
 19 21  1  0
 21 22  1  0
 22 23  1  0
 23 24  1  0
 24 25  1  0
 25 26  1  0
 26 27  1  0
 27 28  1  0
 28 29  2  0
 28 30  1  0
 30 31  1  0
 31 32  1  0
 32 33  2  0
 33 34  1  0
 34 35  2  0
 35 36  1  0
 36 37  2  0
 30 38  1  0
 38 39  1  0
 39 40  2  0
 39 41  1  0
 41 42  1  0
 42 43  1  0
 43 44  2  0
 43 45  2  0
 41 46  1  0
 46 47  1  0
 47 48  1  0
 48 49  1  0
 49 50  1  0
 50 51  1  0
 26 52  1  0
 52 53  2  0
 53 54  1  0
 54 55  2  0
 55 56  1  0
 56 57  2  0
 43  5  1  0
 51 46  1  0
 57 52  1  0
 17 11  1  0
 37 32  1  0
  1 58  1  0
  1 59  1  0
  1 60  1  0
  2 61  1  0
  3 62  1  0
  3 63  1  0
  3 64  1  0
  4 65  1  0
  4 66  1  0
  5 67  1  1
  6 68  1  0
  9 69  1  6
 10 70  1  0
 10 71  1  0
 12 72  1  0
 13 73  1  0
 16 74  1  0
 17 75  1  0
 18 76  1  0
 21 77  1  0
 21 78  1  0
 22 79  1  0
 22 80  1  0
 25 81  1  0
 25 82  1  0
 26 83  1  6
 27 84  1  0
 30 85  1  6
 31 86  1  0
 31 87  1  0
 33 88  1  0
 34 89  1  0
 35 90  1  0
 36 91  1  0
 37 92  1  0
 38 93  1  0
 41 94  1  6
 42 95  1  0
 42 96  1  0
 46 97  1  0
 47 98  1  0
 47 99  1  0
 48100  1  0
 48101  1  0
 49102  1  0
 49103  1  0
 50104  1  0
 50105  1  0
 51106  1  0
 51107  1  0
 53108  1  0
 54109  1  0
 55110  1  0
 56111  1  0
 57112  1  0
M  END
$$$$
[H]c1nc2c([H])c([H])c([H])c(N=C3N=C(N([H])[H])SC3([H])[H])c2c([H])c1[H]
     RDKit          3D

 27 29  0  0  0  0  0  0  0  0999 V2000
    2.6347   -0.8525   -2.1962 C   0  0  0  0  0  0  0  0  0  0  0  0
    4.2008   -0.2414   -1.4296 S   0  0  0  0  0  0  0  0  0  0  0  0
    3.5232   -0.1268    0.2188 C   0  0  0  0  0  0  0  0  0  0  0  0
    4.2855    0.0007    1.3857 N   0  0  0  0  0  0  0  0  0  0  0  0
    2.2875   -0.1828    0.1036 N   0  0  0  0  0  0  0  0  0  0  0  0
    1.7039   -0.3096   -1.1437 C   0  0  0  0  0  0  0  0  0  0  0  0
    0.4527    0.0134   -1.3890 N   0  0  0  0  0  0  0  0  0  0  0  0
   -0.3912    0.5188   -0.3808 C   0  0  0  0  0  0  0  0  0  0  0  0
    0.0041    1.5893    0.4230 C   0  0  0  0  0  0  0  0  0  0  0  0
   -0.8116    2.0941    1.4133 C   0  0  0  0  0  0  0  0  0  0  0  0
   -2.0653    1.5438    1.6410 C   0  0  0  0  0  0  0  0  0  0  0  0
   -2.4916    0.4757    0.8584 C   0  0  0  0  0  0  0  0  0  0  0  0
   -3.7156   -0.0656    1.0767 N   0  0  0  0  0  0  0  0  0  0  0  0
   -4.1850   -1.0988    0.3545 C   0  0  0  0  0  0  0  0  0  0  0  0
   -3.3701   -1.6050   -0.6367 C   0  0  0  0  0  0  0  0  0  0  0  0
   -2.1217   -1.0635   -0.8698 C   0  0  0  0  0  0  0  0  0  0  0  0
   -1.6433    0.0022   -0.1213 C   0  0  0  0  0  0  0  0  0  0  0  0
    2.5489   -0.3254   -3.1426 H   0  0  0  0  0  0  0  0  0  0  0  0
    2.6127   -1.9386   -2.2386 H   0  0  0  0  0  0  0  0  0  0  0  0
    4.9238    0.8025    1.5551 H   0  0  0  0  0  0  0  0  0  0  0  0
    4.2213   -0.7288    2.1226 H   0  0  0  0  0  0  0  0  0  0  0  0
    0.9723    2.0494    0.2815 H   0  0  0  0  0  0  0  0  0  0  0  0
   -0.4872    2.9292    2.0307 H   0  0  0  0  0  0  0  0  0  0  0  0
   -2.7195    1.9151    2.4025 H   0  0  0  0  0  0  0  0  0  0  0  0
   -5.1786   -1.5204    0.5491 H   0  0  0  0  0  0  0  0  0  0  0  0
   -3.7303   -2.4311   -1.2234 H   0  0  0  0  0  0  0  0  0  0  0  0
   -1.4603   -1.4440   -1.6446 H   0  0  0  0  0  0  0  0  0  0  0  0
  1  2  1  0
  2  3  1  0
  3  4  1  0
  3  5  2  0
  5  6  1  0
  6  7  2  3
  7  8  1  0
  8  9  2  0
  9 10  1  0
 10 11  2  0
 11 12  1  0
 12 13  2  0
 13 14  1  0
 14 15  2  0
 15 16  1  0
 16 17  2  0
  6  1  1  0
 17  8  1  0
 17 12  1  0
  1 18  1  0
  1 19  1  0
  4 20  1  0
  4 21  1  0
  9 22  1  0
 10 23  1  0
 11 24  1  0
 14 25  1  0
 15 26  1  0
 16 27  1  0
M  END
$$$$
[H]OC(=O)c1c([H])c([H])c(C(=O)OC([H])([H])c2c([H])c([H])c(C([H])([H])O[C@@]3([H])OC(=O)[C@@]4([H])N(C(=O)[C@@]([H])(C([H])([H])O[H])[C@@]([H])(O[H])[C@@]3([H])O[H])C([H])([H])[C@@]([H])(O[H])C4([H])[H])c([H])c2[H])c([H])c1[H]
     RDKit          3D

 69 72  0  0  0  0  0  0  0  0999 V2000
   -3.5465   -3.0079   -2.0092 O   0  0  0  0  0  0  0  0  0  0  0  0
   -2.5829   -2.1444   -1.4185 C   0  0  0  0  0  0  0  0  0  0  0  0
   -2.8602   -2.1838    0.0513 C   0  0  1  0  0  0  0  0  0  0  0  0
   -2.0448   -1.3908    0.9644 C   0  0  1  0  0  0  0  0  0  0  0  0
   -1.3639   -2.2225    1.8997 O   0  0  0  0  0  0  0  0  0  0  0  0
   -1.0933   -0.3733    0.4240 C   0  0  1  0  0  0  0  0  0  0  0  0
   -0.4748   -0.7490   -0.7552 O   0  0  0  0  0  0  0  0  0  0  0  0
   -1.6365    1.0421    0.4007 C   0  0  2  0  0  0  0  0  0  0  0  0
   -2.7637    1.1634    1.2637 O   0  0  0  0  0  0  0  0  0  0  0  0
   -4.0578    1.3433    0.9249 C   0  0  0  0  0  0  0  0  0  0  0  0
   -4.7334    2.2659    1.4404 O   0  0  0  0  0  0  0  0  0  0  0  0
   -4.7213    0.4574   -0.0647 C   0  0  2  0  0  0  0  0  0  0  0  0
   -6.1327    0.9814   -0.3865 C   0  0  0  0  0  0  0  0  0  0  0  0
   -7.0752    0.1637    0.4476 C   0  0  2  0  0  0  0  0  0  0  0  0
   -7.9964    0.9759    1.0931 O   0  0  0  0  0  0  0  0  0  0  0  0
   -6.1409   -0.5372    1.4141 C   0  0  0  0  0  0  0  0  0  0  0  0
   -5.0118   -0.8437    0.5179 N   0  0  0  0  0  0  0  0  0  0  0  0
   -4.3304   -2.0490    0.2321 C   0  0  0  0  0  0  0  0  0  0  0  0
   -5.1029   -3.0733    0.1333 O   0  0  0  0  0  0  0  0  0  0  0  0
   -1.8961    1.4990   -0.8654 O   0  0  0  0  0  0  0  0  0  0  0  0
   -1.3288    2.6569   -1.2713 C   0  0  0  0  0  0  0  0  0  0  0  0
    0.1479    2.7219   -1.3110 C   0  0  0  0  0  0  0  0  0  0  0  0
    0.8708    2.1789   -2.3813 C   0  0  0  0  0  0  0  0  0  0  0  0
    2.2448    2.2412   -2.4424 C   0  0  0  0  0  0  0  0  0  0  0  0
    2.9895    2.8504   -1.4379 C   0  0  0  0  0  0  0  0  0  0  0  0
    4.4719    2.9204   -1.5124 C   0  0  0  0  0  0  0  0  0  0  0  0
    5.1217    1.7196   -1.2179 O   0  0  0  0  0  0  0  0  0  0  0  0
    5.0597    1.0104   -0.0469 C   0  0  0  0  0  0  0  0  0  0  0  0
    4.3557    1.4555    0.8796 O   0  0  0  0  0  0  0  0  0  0  0  0
    5.7894   -0.2503    0.1569 C   0  0  0  0  0  0  0  0  0  0  0  0
    5.6985   -0.9297    1.3511 C   0  0  0  0  0  0  0  0  0  0  0  0
    6.3705   -2.1161    1.5763 C   0  0  0  0  0  0  0  0  0  0  0  0
    7.1670   -2.6666    0.5958 C   0  0  0  0  0  0  0  0  0  0  0  0
    7.2600   -1.9874   -0.6026 C   0  0  0  0  0  0  0  0  0  0  0  0
    6.5857   -0.8016   -0.8217 C   0  0  0  0  0  0  0  0  0  0  0  0
    7.8906   -3.9293    0.8160 C   0  0  0  0  0  0  0  0  0  0  0  0
    7.7976   -4.6025    2.0042 O   0  0  0  0  0  0  0  0  0  0  0  0
    8.6071   -4.4006   -0.1009 O   0  0  0  0  0  0  0  0  0  0  0  0
    2.2836    3.3857   -0.3840 C   0  0  0  0  0  0  0  0  0  0  0  0
    0.8989    3.3217   -0.3248 C   0  0  0  0  0  0  0  0  0  0  0  0
   -4.3499   -2.4749   -2.2505 H   0  0  0  0  0  0  0  0  0  0  0  0
   -2.6910   -1.1999   -1.9253 H   0  0  0  0  0  0  0  0  0  0  0  0
   -1.6228   -2.7007   -1.6416 H   0  0  0  0  0  0  0  0  0  0  0  0
   -2.6602   -3.2825    0.2982 H   0  0  0  0  0  0  0  0  0  0  0  0
   -2.7407   -0.8284    1.6595 H   0  0  0  0  0  0  0  0  0  0  0  0
   -1.9823   -2.6687    2.5000 H   0  0  0  0  0  0  0  0  0  0  0  0
   -0.2347   -0.3200    1.1671 H   0  0  0  0  0  0  0  0  0  0  0  0
    0.3065   -1.3295   -0.6073 H   0  0  0  0  0  0  0  0  0  0  0  0
   -0.9168    1.7880    0.8544 H   0  0  0  0  0  0  0  0  0  0  0  0
   -4.1964    0.4192   -1.0135 H   0  0  0  0  0  0  0  0  0  0  0  0
   -6.3501    0.9032   -1.4687 H   0  0  0  0  0  0  0  0  0  0  0  0
   -6.1440    2.0453   -0.1056 H   0  0  0  0  0  0  0  0  0  0  0  0
   -7.5884   -0.5749   -0.1966 H   0  0  0  0  0  0  0  0  0  0  0  0
   -7.8315    1.9363    0.8586 H   0  0  0  0  0  0  0  0  0  0  0  0
   -5.8604    0.1646    2.1971 H   0  0  0  0  0  0  0  0  0  0  0  0
   -6.6371   -1.4569    1.7652 H   0  0  0  0  0  0  0  0  0  0  0  0
   -1.7286    2.8519   -2.3163 H   0  0  0  0  0  0  0  0  0  0  0  0
   -1.7200    3.5645   -0.7112 H   0  0  0  0  0  0  0  0  0  0  0  0
    0.2612    1.7085   -3.1527 H   0  0  0  0  0  0  0  0  0  0  0  0
    2.7763    1.8155   -3.2774 H   0  0  0  0  0  0  0  0  0  0  0  0
    4.8091    3.2852   -2.5157 H   0  0  0  0  0  0  0  0  0  0  0  0
    4.7706    3.7451   -0.8076 H   0  0  0  0  0  0  0  0  0  0  0  0
    5.0736   -0.4989    2.1212 H   0  0  0  0  0  0  0  0  0  0  0  0
    6.2769   -2.6194    2.5199 H   0  0  0  0  0  0  0  0  0  0  0  0
    7.8816   -2.4048   -1.3859 H   0  0  0  0  0  0  0  0  0  0  0  0
    6.6987   -0.3177   -1.7806 H   0  0  0  0  0  0  0  0  0  0  0  0
    8.4800   -5.2667    2.2938 H   0  0  0  0  0  0  0  0  0  0  0  0
    2.8481    3.8651    0.4027 H   0  0  0  0  0  0  0  0  0  0  0  0
    0.3556    3.7556    0.5148 H   0  0  0  0  0  0  0  0  0  0  0  0
  1  2  1  0
  2  3  1  0
  3  4  1  0
  4  5  1  0
  4  6  1  0
  6  7  1  0
  6  8  1  0
  8  9  1  0
  9 10  1  0
 10 11  2  0
 10 12  1  0
 12 13  1  0
 13 14  1  0
 14 15  1  0
 14 16  1  0
 16 17  1  0
 17 18  1  0
 18 19  2  0
  8 20  1  0
 20 21  1  0
 21 22  1  0
 22 23  2  0
 23 24  1  0
 24 25  2  0
 25 26  1  0
 26 27  1  0
 27 28  1  0
 28 29  2  0
 28 30  1  0
 30 31  2  0
 31 32  1  0
 32 33  2  0
 33 34  1  0
 34 35  2  0
 33 36  1  0
 36 37  1  0
 36 38  2  0
 25 39  1  0
 39 40  2  0
 18  3  1  0
 40 22  1  0
 17 12  1  0
 35 30  1  0
  1 41  1  0
  2 42  1  0
  2 43  1  0
  3 44  1  1
  4 45  1  1
  5 46  1  0
  6 47  1  1
  7 48  1  0
  8 49  1  1
 12 50  1  6
 13 51  1  0
 13 52  1  0
 14 53  1  6
 15 54  1  0
 16 55  1  0
 16 56  1  0
 21 57  1  0
 21 58  1  0
 23 59  1  0
 24 60  1  0
 26 61  1  0
 26 62  1  0
 31 63  1  0
 32 64  1  0
 34 65  1  0
 35 66  1  0
 37 67  1  0
 39 68  1  0
 40 69  1  0
M  END
$$$$
[H]OC(=O)C([H])([H])OC(=O)N([H])[C@@]([H])(C(=O)N(C(=O)N([H])C([H])([H])c1c([H])c([H])c([H])c([H])c1[H])C([H])([H])C(=O)N([H])[C@]([H])(C(=O)N1C([H])([H])C([H])([H])C([H])([H])[C@@]1([H])C(=O)OC([H])([H])C([H])([H])[H])C([H])([H])c1c([H])c([H])c([H])c([H])c1[H])C([H])(C([H])([H])[H])C([H])([H])[H]
     RDKit          3D

 92 94  0  0  0  0  0  0  0  0999 V2000
    4.7769   -0.4128    5.7281 C   0  0  0  0  0  0  0  0  0  0  0  0
    6.0729   -0.1938    4.9761 C   0  0  0  0  0  0  0  0  0  0  0  0
    5.9554   -0.4645    3.5924 O   0  0  0  0  0  0  0  0  0  0  0  0
    5.0399    0.2576    2.8136 C   0  0  0  0  0  0  0  0  0  0  0  0
    4.3600    1.1262    3.4058 O   0  0  0  0  0  0  0  0  0  0  0  0
    4.8911   -0.0083    1.3425 C   0  0  2  0  0  0  0  0  0  0  0  0
    6.1161    0.4352    0.5739 C   0  0  0  0  0  0  0  0  0  0  0  0
    5.7473    1.6978   -0.1344 C   0  0  0  0  0  0  0  0  0  0  0  0
    4.5211    2.1700    0.6519 C   0  0  0  0  0  0  0  0  0  0  0  0
    3.8435    0.8817    0.8705 N   0  0  0  0  0  0  0  0  0  0  0  0
    2.4718    0.6361    0.6288 C   0  0  0  0  0  0  0  0  0  0  0  0
    1.7384    1.6056    0.2801 O   0  0  0  0  0  0  0  0  0  0  0  0
    1.7938   -0.6818    0.7498 C   0  0  2  0  0  0  0  0  0  0  0  0
    2.1325   -1.6021   -0.3681 C   0  0  0  0  0  0  0  0  0  0  0  0
    1.7898   -1.0275   -1.7251 C   0  0  0  0  0  0  0  0  0  0  0  0
    0.5694   -1.2268   -2.3173 C   0  0  0  0  0  0  0  0  0  0  0  0
    0.3184   -0.6754   -3.5589 C   0  0  0  0  0  0  0  0  0  0  0  0
    1.2279    0.0719   -4.2517 C   0  0  0  0  0  0  0  0  0  0  0  0
    2.4611    0.2587   -3.6270 C   0  0  0  0  0  0  0  0  0  0  0  0
    2.7376   -0.2736   -2.4003 C   0  0  0  0  0  0  0  0  0  0  0  0
    0.3584   -0.5624    0.9062 N   0  0  0  0  0  0  0  0  0  0  0  0
   -0.2281   -0.6386    2.2249 C   0  0  0  0  0  0  0  0  0  0  0  0
    0.6178   -0.8117    3.1710 O   0  0  0  0  0  0  0  0  0  0  0  0
   -1.6302   -0.5318    2.5585 C   0  0  0  0  0  0  0  0  0  0  0  0
   -2.5333   -0.4138    1.3681 N   0  0  0  0  0  0  0  0  0  0  0  0
   -3.0939   -1.6350    0.9829 C   0  0  0  0  0  0  0  0  0  0  0  0
   -2.8002   -2.6447    1.7440 O   0  0  0  0  0  0  0  0  0  0  0  0
   -3.9344   -1.9731   -0.0905 N   0  0  0  0  0  0  0  0  0  0  0  0
   -4.4143   -3.3223   -0.2377 C   0  0  0  0  0  0  0  0  0  0  0  0
   -3.4860   -4.3237   -0.6989 C   0  0  0  0  0  0  0  0  0  0  0  0
   -3.7405   -5.6565   -0.4641 C   0  0  0  0  0  0  0  0  0  0  0  0
   -2.8999   -6.6653   -0.8718 C   0  0  0  0  0  0  0  0  0  0  0  0
   -1.7524   -6.3625   -1.5427 C   0  0  0  0  0  0  0  0  0  0  0  0
   -1.4623   -5.0361   -1.7982 C   0  0  0  0  0  0  0  0  0  0  0  0
   -2.3301   -4.0297   -1.3751 C   0  0  0  0  0  0  0  0  0  0  0  0
   -2.6375    0.8692    0.8474 C   0  0  0  0  0  0  0  0  0  0  0  0
   -1.8852    1.7596    1.4360 O   0  0  0  0  0  0  0  0  0  0  0  0
   -3.4412    1.4197   -0.2534 C   0  0  1  0  0  0  0  0  0  0  0  0
   -4.9183    1.5516    0.0921 C   0  0  0  0  0  0  0  0  0  0  0  0
   -5.1199    2.4823    1.2860 C   0  0  0  0  0  0  0  0  0  0  0  0
   -5.7363    1.9728   -1.0827 C   0  0  0  0  0  0  0  0  0  0  0  0
   -2.9597    2.7845   -0.5914 N   0  0  0  0  0  0  0  0  0  0  0  0
   -2.2447    2.9875   -1.7958 C   0  0  0  0  0  0  0  0  0  0  0  0
   -2.0196    2.0259   -2.5594 O   0  0  0  0  0  0  0  0  0  0  0  0
   -1.7784    4.2240   -2.1647 O   0  0  0  0  0  0  0  0  0  0  0  0
   -1.0569    4.5463   -3.3170 C   0  0  0  0  0  0  0  0  0  0  0  0
   -0.7944    6.0032   -3.3165 C   0  0  0  0  0  0  0  0  0  0  0  0
   -1.2701    6.7565   -2.2539 O   0  0  0  0  0  0  0  0  0  0  0  0
   -0.1605    6.5082   -4.2596 O   0  0  0  0  0  0  0  0  0  0  0  0
    4.3457    0.5936    6.0013 H   0  0  0  0  0  0  0  0  0  0  0  0
    4.0156   -0.9683    5.1476 H   0  0  0  0  0  0  0  0  0  0  0  0
    4.9704   -0.9197    6.6919 H   0  0  0  0  0  0  0  0  0  0  0  0
    6.8202   -0.9084    5.3988 H   0  0  0  0  0  0  0  0  0  0  0  0
    6.4517    0.8227    5.1578 H   0  0  0  0  0  0  0  0  0  0  0  0
    4.6753   -1.0596    1.1519 H   0  0  0  0  0  0  0  0  0  0  0  0
    6.4567   -0.3785   -0.1288 H   0  0  0  0  0  0  0  0  0  0  0  0
    6.9066    0.6697    1.3095 H   0  0  0  0  0  0  0  0  0  0  0  0
    6.5094    2.4892   -0.1149 H   0  0  0  0  0  0  0  0  0  0  0  0
    5.4367    1.5074   -1.2021 H   0  0  0  0  0  0  0  0  0  0  0  0
    4.8057    2.6772    1.5793 H   0  0  0  0  0  0  0  0  0  0  0  0
    3.8813    2.8035    0.0090 H   0  0  0  0  0  0  0  0  0  0  0  0
    2.2013   -1.1237    1.7044 H   0  0  0  0  0  0  0  0  0  0  0  0
    3.1667   -1.9311   -0.3680 H   0  0  0  0  0  0  0  0  0  0  0  0
    1.4244   -2.4840   -0.2854 H   0  0  0  0  0  0  0  0  0  0  0  0
   -0.1790   -1.8076   -1.8226 H   0  0  0  0  0  0  0  0  0  0  0  0
   -0.6591   -0.8313   -4.0429 H   0  0  0  0  0  0  0  0  0  0  0  0
    1.0539    0.5181   -5.2289 H   0  0  0  0  0  0  0  0  0  0  0  0
    3.1872    0.8607   -4.1894 H   0  0  0  0  0  0  0  0  0  0  0  0
    3.7208   -0.1047   -1.9544 H   0  0  0  0  0  0  0  0  0  0  0  0
   -0.2383   -0.4176    0.0814 H   0  0  0  0  0  0  0  0  0  0  0  0
   -1.7955    0.3758    3.1667 H   0  0  0  0  0  0  0  0  0  0  0  0
   -1.9796   -1.3843    3.2061 H   0  0  0  0  0  0  0  0  0  0  0  0
   -4.2302   -1.2871   -0.8050 H   0  0  0  0  0  0  0  0  0  0  0  0
   -5.2912   -3.3098   -0.9563 H   0  0  0  0  0  0  0  0  0  0  0  0
   -4.9100   -3.6592    0.7271 H   0  0  0  0  0  0  0  0  0  0  0  0
   -4.6563   -5.9531    0.0714 H   0  0  0  0  0  0  0  0  0  0  0  0
   -3.1655   -7.7050   -0.6517 H   0  0  0  0  0  0  0  0  0  0  0  0
   -1.0679   -7.1332   -1.8764 H   0  0  0  0  0  0  0  0  0  0  0  0
   -0.5775   -4.7358   -2.3216 H   0  0  0  0  0  0  0  0  0  0  0  0
   -2.1287   -2.9865   -1.5692 H   0  0  0  0  0  0  0  0  0  0  0  0
   -3.3336    0.8208   -1.1518 H   0  0  0  0  0  0  0  0  0  0  0  0
   -5.2688    0.5663    0.4300 H   0  0  0  0  0  0  0  0  0  0  0  0
   -4.1591    2.6844    1.7952 H   0  0  0  0  0  0  0  0  0  0  0  0
   -5.7881    2.0396    2.0524 H   0  0  0  0  0  0  0  0  0  0  0  0
   -5.6465    3.4156    0.9484 H   0  0  0  0  0  0  0  0  0  0  0  0
   -6.7282    1.4766   -1.0104 H   0  0  0  0  0  0  0  0  0  0  0  0
   -5.2398    1.5803   -2.0115 H   0  0  0  0  0  0  0  0  0  0  0  0
   -5.8225    3.0743   -1.1866 H   0  0  0  0  0  0  0  0  0  0  0  0
   -3.1323    3.5999    0.0284 H   0  0  0  0  0  0  0  0  0  0  0  0
   -0.1337    3.9367   -3.4343 H   0  0  0  0  0  0  0  0  0  0  0  0
   -1.6826    4.3084   -4.1992 H   0  0  0  0  0  0  0  0  0  0  0  0
   -1.4281    6.4099   -1.3215 H   0  0  0  0  0  0  0  0  0  0  0  0
  1  2  1  0
  2  3  1  0
  3  4  1  0
  4  5  2  0
  4  6  1  0
  6  7  1  0
  7  8  1  0
  8  9  1  0
  9 10  1  0
 10 11  1  0
 11 12  2  0
 11 13  1  0
 13 14  1  0
 14 15  1  0
 15 16  2  0
 16 17  1  0
 17 18  2  0
 18 19  1  0
 19 20  2  0
 13 21  1  0
 21 22  1  0
 22 23  2  0
 22 24  1  0
 24 25  1  0
 25 26  1  0
 26 27  2  0
 26 28  1  0
 28 29  1  0
 29 30  1  0
 30 31  2  0
 31 32  1  0
 32 33  2  0
 33 34  1  0
 34 35  2  0
 25 36  1  0
 36 37  2  0
 36 38  1  0
 38 39  1  0
 39 40  1  0
 39 41  1  0
 38 42  1  0
 42 43  1  0
 43 44  2  0
 43 45  1  0
 45 46  1  0
 46 47  1  0
 47 48  1  0
 47 49  2  0
 10  6  1  0
 20 15  1  0
 35 30  1  0
  1 50  1  0
  1 51  1  0
  1 52  1  0
  2 53  1  0
  2 54  1  0
  6 55  1  1
  7 56  1  0
  7 57  1  0
  8 58  1  0
  8 59  1  0
  9 60  1  0
  9 61  1  0
 13 62  1  1
 14 63  1  0
 14 64  1  0
 16 65  1  0
 17 66  1  0
 18 67  1  0
 19 68  1  0
 20 69  1  0
 21 70  1  0
 24 71  1  0
 24 72  1  0
 28 73  1  0
 29 74  1  0
 29 75  1  0
 31 76  1  0
 32 77  1  0
 33 78  1  0
 34 79  1  0
 35 80  1  0
 38 81  1  6
 39 82  1  0
 40 83  1  0
 40 84  1  0
 40 85  1  0
 41 86  1  0
 41 87  1  0
 41 88  1  0
 42 89  1  0
 46 90  1  0
 46 91  1  0
 48 92  1  0
M  END
$$$$
[H]N=C(c1c([H])c([H])c(OC(=O)c2oc3c([H])c([H])c(C(=N[H])N([H])[H])c([H])c3c2C([H])([H])[H])c([H])c1[H])N([H])[H]
     RDKit          3D

 41 43  0  0  0  0  0  0  0  0999 V2000
    7.7670    0.4241    0.5126 N   0  0  0  0  0  0  0  0  0  0  0  0
    6.6090    0.6214   -0.2519 C   0  0  0  0  0  0  0  0  0  0  0  0
    6.6785    1.1176   -1.4233 N   0  0  0  0  0  0  0  0  0  0  0  0
    5.3157    0.2593    0.2897 C   0  0  0  0  0  0  0  0  0  0  0  0
    5.1951   -0.2813    1.5541 C   0  0  0  0  0  0  0  0  0  0  0  0
    3.9603   -0.6261    2.0691 C   0  0  0  0  0  0  0  0  0  0  0  0
    2.8150   -0.4381    1.3302 C   0  0  0  0  0  0  0  0  0  0  0  0
    1.5584   -0.6821    1.5981 O   0  0  0  0  0  0  0  0  0  0  0  0
    0.7947   -0.3409    0.5886 C   0  0  0  0  0  0  0  0  0  0  0  0
   -0.6447   -0.4778    0.5540 C   0  0  0  0  0  0  0  0  0  0  0  0
   -1.2791   -0.9524    1.5309 O   0  0  0  0  0  0  0  0  0  0  0  0
   -1.4157   -0.0995   -0.5462 O   0  0  0  0  0  0  0  0  0  0  0  0
   -2.8167   -0.2558   -0.5247 C   0  0  0  0  0  0  0  0  0  0  0  0
   -3.5249    0.8107   -0.0422 C   0  0  0  0  0  0  0  0  0  0  0  0
   -4.8886    0.7605    0.0207 C   0  0  0  0  0  0  0  0  0  0  0  0
   -5.5471   -0.3701   -0.4046 C   0  0  0  0  0  0  0  0  0  0  0  0
   -4.8220   -1.4359   -0.8879 C   0  0  0  0  0  0  0  0  0  0  0  0
   -3.4353   -1.3857   -0.9522 C   0  0  0  0  0  0  0  0  0  0  0  0
   -7.0261   -0.4363   -0.3413 C   0  0  0  0  0  0  0  0  0  0  0  0
   -7.7443    0.6631    0.1555 N   0  0  0  0  0  0  0  0  0  0  0  0
   -7.5975   -1.5012   -0.7449 N   0  0  0  0  0  0  0  0  0  0  0  0
    1.6061    0.1570   -0.3998 C   0  0  0  0  0  0  0  0  0  0  0  0
    1.2082    0.6706   -1.7302 C   0  0  0  0  0  0  0  0  0  0  0  0
    2.9058    0.0952    0.0757 C   0  0  0  0  0  0  0  0  0  0  0  0
    4.1359    0.4331   -0.4238 C   0  0  0  0  0  0  0  0  0  0  0  0
    8.5361    1.1166    0.4713 H   0  0  0  0  0  0  0  0  0  0  0  0
    7.8664   -0.4048    1.1197 H   0  0  0  0  0  0  0  0  0  0  0  0
    7.6093    1.3761   -1.8080 H   0  0  0  0  0  0  0  0  0  0  0  0
    6.0943   -0.4275    2.1310 H   0  0  0  0  0  0  0  0  0  0  0  0
    3.9371   -1.0440    3.0643 H   0  0  0  0  0  0  0  0  0  0  0  0
   -3.0323    1.7228    0.3033 H   0  0  0  0  0  0  0  0  0  0  0  0
   -5.4904    1.5946    0.4010 H   0  0  0  0  0  0  0  0  0  0  0  0
   -5.3286   -2.3201   -1.2210 H   0  0  0  0  0  0  0  0  0  0  0  0
   -2.8471   -2.2149   -1.3297 H   0  0  0  0  0  0  0  0  0  0  0  0
   -8.3942    0.6077    0.9605 H   0  0  0  0  0  0  0  0  0  0  0  0
   -7.6431    1.6171   -0.2900 H   0  0  0  0  0  0  0  0  0  0  0  0
   -8.6196   -1.6136   -0.7286 H   0  0  0  0  0  0  0  0  0  0  0  0
    0.6431    1.6189   -1.6711 H   0  0  0  0  0  0  0  0  0  0  0  0
    2.1038    0.8453   -2.3555 H   0  0  0  0  0  0  0  0  0  0  0  0
    0.5646   -0.0499   -2.2718 H   0  0  0  0  0  0  0  0  0  0  0  0
    4.1932    0.8464   -1.3995 H   0  0  0  0  0  0  0  0  0  0  0  0
  1  2  1  0
  2  3  2  3
  2  4  1  0
  4  5  2  0
  5  6  1  0
  6  7  2  0
  7  8  1  0
  8  9  1  0
  9 10  1  0
 10 11  2  0
 10 12  1  0
 12 13  1  0
 13 14  2  0
 14 15  1  0
 15 16  2  0
 16 17  1  0
 17 18  2  0
 16 19  1  0
 19 20  1  0
 19 21  2  3
  9 22  2  0
 22 23  1  0
 22 24  1  0
 24 25  2  0
 25  4  1  0
 24  7  1  0
 18 13  1  0
  1 26  1  0
  1 27  1  0
  3 28  1  0
  5 29  1  0
  6 30  1  0
 14 31  1  0
 15 32  1  0
 17 33  1  0
 18 34  1  0
 20 35  1  0
 20 36  1  0
 21 37  1  0
 23 38  1  0
 23 39  1  0
 23 40  1  0
 25 41  1  0
M  END
$$$$
[H]OC1([H])C([H])([H])C([H])([H])N(C([H])([H])C([H])([H])N(C2([H])C([H])([H])C([H])([H])C([H])([H])C2([H])[H])S(=O)(=O)c2c([H])c([H])c3c(c2[H])OC([H])(C([H])([H])[H])C(=O)N3[H])C([H])([H])C([H])([H])C1([H])[H]
     RDKit          3D

 64 67  0  0  0  0  0  0  0  0999 V2000
   -6.5899    3.2990   -1.4231 C   0  0  0  0  0  0  0  0  0  0  0  0
   -6.2852    1.8430   -1.5659 C   0  0  0  0  0  0  0  0  0  0  0  0
   -6.6871    1.0232   -0.3751 C   0  0  0  0  0  0  0  0  0  0  0  0
   -7.7493    0.4197   -0.2410 O   0  0  0  0  0  0  0  0  0  0  0  0
   -5.6863    0.9799    0.6769 N   0  0  0  0  0  0  0  0  0  0  0  0
   -4.3426    1.2611    0.3218 C   0  0  0  0  0  0  0  0  0  0  0  0
   -3.3682    1.2151    1.3036 C   0  0  0  0  0  0  0  0  0  0  0  0
   -2.0456    1.4717    1.0441 C   0  0  0  0  0  0  0  0  0  0  0  0
   -1.6083    1.7877   -0.2000 C   0  0  0  0  0  0  0  0  0  0  0  0
   -2.5880    1.8335   -1.1994 C   0  0  0  0  0  0  0  0  0  0  0  0
   -3.9222    1.5775   -0.9620 C   0  0  0  0  0  0  0  0  0  0  0  0
   -4.9117    1.6075   -1.9268 O   0  0  0  0  0  0  0  0  0  0  0  0
    0.0786    2.0997   -0.5995 S   0  0  0  0  0  0  0  0  0  0  0  0
    0.1261    3.2953   -1.5115 O   0  0  0  0  0  0  0  0  0  0  0  0
    0.7174    2.6090    0.6894 O   0  0  0  0  0  0  0  0  0  0  0  0
    0.8756    0.7430   -1.1125 N   0  0  0  0  0  0  0  0  0  0  0  0
    0.9359   -0.3006   -0.1444 C   0  0  0  0  0  0  0  0  0  0  0  0
    2.1331   -0.2631    0.7816 C   0  0  0  0  0  0  0  0  0  0  0  0
    2.0864   -1.2990    1.7189 N   0  0  0  0  0  0  0  0  0  0  0  0
    3.1297   -1.4123    2.6757 C   0  0  0  0  0  0  0  0  0  0  0  0
    2.6549   -2.1086    3.9108 C   0  0  0  0  0  0  0  0  0  0  0  0
    2.3297   -3.5473    3.7772 C   0  0  0  0  0  0  0  0  0  0  0  0
    2.6820   -4.2103    2.4926 C   0  0  0  0  0  0  0  0  0  0  0  0
    4.0552   -4.2741    2.2781 O   0  0  0  0  0  0  0  0  0  0  0  0
    1.9486   -3.6950    1.2871 C   0  0  0  0  0  0  0  0  0  0  0  0
    1.2174   -2.3871    1.6063 C   0  0  0  0  0  0  0  0  0  0  0  0
    1.8664    0.7026   -2.0576 C   0  0  0  0  0  0  0  0  0  0  0  0
    1.2499    1.0708   -3.4294 C   0  0  0  0  0  0  0  0  0  0  0  0
    2.5293    0.8715   -4.2655 C   0  0  0  0  0  0  0  0  0  0  0  0
    3.5432    1.6572   -3.4540 C   0  0  0  0  0  0  0  0  0  0  0  0
    3.0838    1.5188   -2.0197 C   0  0  0  0  0  0  0  0  0  0  0  0
   -5.8955    3.9516   -1.9614 H   0  0  0  0  0  0  0  0  0  0  0  0
   -6.6706    3.5637   -0.3443 H   0  0  0  0  0  0  0  0  0  0  0  0
   -7.6237    3.4485   -1.8571 H   0  0  0  0  0  0  0  0  0  0  0  0
   -6.8537    1.3651   -2.4183 H   0  0  0  0  0  0  0  0  0  0  0  0
   -5.9802    0.7562    1.6453 H   0  0  0  0  0  0  0  0  0  0  0  0
   -3.7148    0.9497    2.3122 H   0  0  0  0  0  0  0  0  0  0  0  0
   -1.3226    1.4264    1.8493 H   0  0  0  0  0  0  0  0  0  0  0  0
   -2.2494    2.0908   -2.2169 H   0  0  0  0  0  0  0  0  0  0  0  0
    1.0327   -1.2785   -0.7196 H   0  0  0  0  0  0  0  0  0  0  0  0
    0.0032   -0.3756    0.4617 H   0  0  0  0  0  0  0  0  0  0  0  0
    3.0929   -0.4057    0.1815 H   0  0  0  0  0  0  0  0  0  0  0  0
    2.2459    0.7476    1.2421 H   0  0  0  0  0  0  0  0  0  0  0  0
    3.3727   -0.3564    3.0051 H   0  0  0  0  0  0  0  0  0  0  0  0
    4.0822   -1.8132    2.3040 H   0  0  0  0  0  0  0  0  0  0  0  0
    3.3652   -1.8865    4.7625 H   0  0  0  0  0  0  0  0  0  0  0  0
    1.7145   -1.5668    4.2318 H   0  0  0  0  0  0  0  0  0  0  0  0
    1.2746   -3.7741    4.0521 H   0  0  0  0  0  0  0  0  0  0  0  0
    2.9387   -4.0814    4.5717 H   0  0  0  0  0  0  0  0  0  0  0  0
    2.3570   -5.2891    2.6007 H   0  0  0  0  0  0  0  0  0  0  0  0
    4.5073   -4.9093    2.8953 H   0  0  0  0  0  0  0  0  0  0  0  0
    2.6150   -3.4783    0.4269 H   0  0  0  0  0  0  0  0  0  0  0  0
    1.1794   -4.3916    0.9007 H   0  0  0  0  0  0  0  0  0  0  0  0
    0.6549   -2.5225    2.5767 H   0  0  0  0  0  0  0  0  0  0  0  0
    0.4474   -2.2600    0.8431 H   0  0  0  0  0  0  0  0  0  0  0  0
    2.2312   -0.3753   -2.2564 H   0  0  0  0  0  0  0  0  0  0  0  0
    1.0904    2.1484   -3.4228 H   0  0  0  0  0  0  0  0  0  0  0  0
    0.4433    0.4233   -3.7254 H   0  0  0  0  0  0  0  0  0  0  0  0
    2.4441    1.2546   -5.2766 H   0  0  0  0  0  0  0  0  0  0  0  0
    2.7455   -0.2035   -4.2679 H   0  0  0  0  0  0  0  0  0  0  0  0
    3.5767    2.7223   -3.7800 H   0  0  0  0  0  0  0  0  0  0  0  0
    4.5186    1.1548   -3.5746 H   0  0  0  0  0  0  0  0  0  0  0  0
    3.9497    1.0162   -1.4834 H   0  0  0  0  0  0  0  0  0  0  0  0
    2.9687    2.5590   -1.6344 H   0  0  0  0  0  0  0  0  0  0  0  0
  1  2  1  0
  2  3  1  0
  3  4  2  0
  3  5  1  0
  5  6  1  0
  6  7  2  0
  7  8  1  0
  8  9  2  0
  9 10  1  0
 10 11  2  0
 11 12  1  0
  9 13  1  0
 13 14  2  0
 13 15  2  0
 13 16  1  0
 16 17  1  0
 17 18  1  0
 18 19  1  0
 19 20  1  0
 20 21  1  0
 21 22  1  0
 22 23  1  0
 23 24  1  0
 23 25  1  0
 25 26  1  0
 16 27  1  0
 27 28  1  0
 28 29  1  0
 29 30  1  0
 30 31  1  0
 12  2  1  0
 26 19  1  0
 31 27  1  0
 11  6  1  0
  1 32  1  0
  1 33  1  0
  1 34  1  0
  2 35  1  0
  5 36  1  0
  7 37  1  0
  8 38  1  0
 10 39  1  0
 17 40  1  0
 17 41  1  0
 18 42  1  0
 18 43  1  0
 20 44  1  0
 20 45  1  0
 21 46  1  0
 21 47  1  0
 22 48  1  0
 22 49  1  0
 23 50  1  0
 24 51  1  0
 25 52  1  0
 25 53  1  0
 26 54  1  0
 26 55  1  0
 27 56  1  0
 28 57  1  0
 28 58  1  0
 29 59  1  0
 29 60  1  0
 30 61  1  0
 30 62  1  0
 31 63  1  0
 31 64  1  0
M  END
$$$$
[H]OC(=O)[C@@]([H])(N([H])C(=O)[C@@]([H])(N([H])C(=O)[C@]([H])(N([H])C(=O)[C@@]([H])(N([H])C(=O)[C@@]([H])(N([H])C(=O)[C@]([H])(N([H])C(=O)C([H])([H])[H])C([H])(C([H])([H])[H])C([H])([H])[H])C([H])([H])c1c([H])c([H])c(O[H])c([H])c1[H])C([H])([H])c1c([H])nc([H])n1[H])C([H])([H])c1c([H])c([H])c([H])c2c([H])c([H])c([H])c([H])c12)C([H])(C([H])([H])[H])C([H])([H])[H])C([H])([H])C([H])([H])C([H])([H])N([H])[H]
     RDKit          3D

122125  0  0  0  0  0  0  0  0999 V2000
   -7.5938    2.8202   -0.6030 C   0  0  0  0  0  0  0  0  0  0  0  0
   -6.9336    3.7432    0.3816 C   0  0  0  0  0  0  0  0  0  0  0  0
   -7.6286    3.7898    1.7135 C   0  0  0  0  0  0  0  0  0  0  0  0
   -5.4580    3.3721    0.5201 C   0  0  1  0  0  0  0  0  0  0  0  0
   -4.8294    4.2636    1.4758 N   0  0  0  0  0  0  0  0  0  0  0  0
   -3.7607    5.1138    1.0921 C   0  0  0  0  0  0  0  0  0  0  0  0
   -3.0616    6.0531    1.9890 C   0  0  0  0  0  0  0  0  0  0  0  0
   -3.3435    5.0930   -0.1182 O   0  0  0  0  0  0  0  0  0  0  0  0
   -5.3631    1.9407    0.8988 C   0  0  0  0  0  0  0  0  0  0  0  0
   -5.5738    1.5797    2.0828 O   0  0  0  0  0  0  0  0  0  0  0  0
   -5.0281    0.9342   -0.0533 N   0  0  0  0  0  0  0  0  0  0  0  0
   -4.9274   -0.4728    0.2369 C   0  0  1  0  0  0  0  0  0  0  0  0
   -5.1456   -1.3077   -0.9583 C   0  0  0  0  0  0  0  0  0  0  0  0
   -6.4341   -1.1751   -1.6399 C   0  0  0  0  0  0  0  0  0  0  0  0
   -6.5596   -0.2725   -2.6780 C   0  0  0  0  0  0  0  0  0  0  0  0
   -7.7717   -0.1213   -3.3441 C   0  0  0  0  0  0  0  0  0  0  0  0
   -8.8875   -0.8525   -3.0061 C   0  0  0  0  0  0  0  0  0  0  0  0
  -10.0841   -0.6790   -3.6902 O   0  0  0  0  0  0  0  0  0  0  0  0
   -8.7435   -1.7481   -1.9679 C   0  0  0  0  0  0  0  0  0  0  0  0
   -7.5506   -1.9126   -1.2953 C   0  0  0  0  0  0  0  0  0  0  0  0
   -3.5240   -0.7077    0.7667 C   0  0  0  0  0  0  0  0  0  0  0  0
   -2.7910    0.2711    0.9870 O   0  0  0  0  0  0  0  0  0  0  0  0
   -3.0487   -2.0177    1.0084 N   0  0  0  0  0  0  0  0  0  0  0  0
   -1.7513   -2.3210    1.5276 C   0  0  1  0  0  0  0  0  0  0  0  0
   -1.6088   -3.6368    2.1819 C   0  0  0  0  0  0  0  0  0  0  0  0
   -2.4644   -3.8751    3.3441 C   0  0  0  0  0  0  0  0  0  0  0  0
   -2.5063   -5.0353    4.0957 C   0  0  0  0  0  0  0  0  0  0  0  0
   -3.4140   -4.8848    5.0880 N   0  0  0  0  0  0  0  0  0  0  0  0
   -3.9201   -3.6415    4.9390 C   0  0  0  0  0  0  0  0  0  0  0  0
   -3.3463   -3.0265    3.8825 N   0  0  0  0  0  0  0  0  0  0  0  0
   -0.7007   -2.2203    0.4363 C   0  0  0  0  0  0  0  0  0  0  0  0
   -1.0781   -1.8749   -0.6914 O   0  0  0  0  0  0  0  0  0  0  0  0
    0.6217   -2.5083    0.7361 N   0  0  0  0  0  0  0  0  0  0  0  0
    1.7506   -2.4245   -0.2378 C   0  0  2  0  0  0  0  0  0  0  0  0
    1.9273   -3.7772   -0.8030 C   0  0  0  0  0  0  0  0  0  0  0  0
    2.9606   -4.0541   -1.7719 C   0  0  0  0  0  0  0  0  0  0  0  0
    2.7340   -3.7351   -3.1232 C   0  0  0  0  0  0  0  0  0  0  0  0
    3.6980   -3.9108   -4.0966 C   0  0  0  0  0  0  0  0  0  0  0  0
    4.9263   -4.4110   -3.7724 C   0  0  0  0  0  0  0  0  0  0  0  0
    5.1962   -4.7370   -2.4814 C   0  0  0  0  0  0  0  0  0  0  0  0
    6.4419   -5.2769   -2.2025 C   0  0  0  0  0  0  0  0  0  0  0  0
    6.7203   -5.6513   -0.9058 C   0  0  0  0  0  0  0  0  0  0  0  0
    5.7443   -5.4752    0.0813 C   0  0  0  0  0  0  0  0  0  0  0  0
    4.5213   -4.9330   -0.2420 C   0  0  0  0  0  0  0  0  0  0  0  0
    4.2316   -4.5595   -1.5143 C   0  0  0  0  0  0  0  0  0  0  0  0
    2.7502   -1.5967    0.3251 C   0  0  0  0  0  0  0  0  0  0  0  0
    2.5332   -1.1206    1.5155 O   0  0  0  0  0  0  0  0  0  0  0  0
    3.9733   -1.1857   -0.2251 N   0  0  0  0  0  0  0  0  0  0  0  0
    4.8913   -0.2666    0.4725 C   0  0  1  0  0  0  0  0  0  0  0  0
    6.1733   -0.9457    0.7586 C   0  0  0  0  0  0  0  0  0  0  0  0
    7.2050   -0.0455    1.4323 C   0  0  0  0  0  0  0  0  0  0  0  0
    5.9485   -2.0431    1.8071 C   0  0  0  0  0  0  0  0  0  0  0  0
    4.9988    1.0060   -0.2569 C   0  0  0  0  0  0  0  0  0  0  0  0
    4.4408    1.0387   -1.4087 O   0  0  0  0  0  0  0  0  0  0  0  0
    5.6311    2.1762    0.1609 N   0  0  0  0  0  0  0  0  0  0  0  0
    5.6498    3.4205   -0.7233 C   0  0  1  0  0  0  0  0  0  0  0  0
    4.9467    4.4482    0.0752 C   0  0  0  0  0  0  0  0  0  0  0  0
    4.6220    5.7986   -0.2743 C   0  0  0  0  0  0  0  0  0  0  0  0
    5.5477    6.8907   -0.5805 C   0  0  0  0  0  0  0  0  0  0  0  0
    6.3759    6.8374   -1.7132 N   0  0  0  0  0  0  0  0  0  0  0  0
    7.0891    3.7090   -0.9074 C   0  0  0  0  0  0  0  0  0  0  0  0
    7.6707    3.9704   -2.1204 O   0  0  0  0  0  0  0  0  0  0  0  0
    7.8666    3.7099    0.1071 O   0  0  0  0  0  0  0  0  0  0  0  0
   -8.7000    2.9694   -0.6268 H   0  0  0  0  0  0  0  0  0  0  0  0
   -7.4570    1.7485   -0.2972 H   0  0  0  0  0  0  0  0  0  0  0  0
   -7.1668    2.9639   -1.6142 H   0  0  0  0  0  0  0  0  0  0  0  0
   -6.9351    4.7804   -0.0537 H   0  0  0  0  0  0  0  0  0  0  0  0
   -8.6856    4.1337    1.5303 H   0  0  0  0  0  0  0  0  0  0  0  0
   -7.1946    4.5547    2.3893 H   0  0  0  0  0  0  0  0  0  0  0  0
   -7.7282    2.7942    2.1822 H   0  0  0  0  0  0  0  0  0  0  0  0
   -4.9892    3.5175   -0.4593 H   0  0  0  0  0  0  0  0  0  0  0  0
   -5.1724    4.2737    2.4480 H   0  0  0  0  0  0  0  0  0  0  0  0
   -3.1004    5.7763    3.0571 H   0  0  0  0  0  0  0  0  0  0  0  0
   -1.9637    6.0498    1.7211 H   0  0  0  0  0  0  0  0  0  0  0  0
   -3.4072    7.0902    1.7955 H   0  0  0  0  0  0  0  0  0  0  0  0
   -4.8454    1.3009   -1.0389 H   0  0  0  0  0  0  0  0  0  0  0  0
   -5.6156   -0.6541    1.1013 H   0  0  0  0  0  0  0  0  0  0  0  0
   -4.3062   -1.2105   -1.7052 H   0  0  0  0  0  0  0  0  0  0  0  0
   -5.0655   -2.4038   -0.6567 H   0  0  0  0  0  0  0  0  0  0  0  0
   -5.7250    0.3463   -3.0185 H   0  0  0  0  0  0  0  0  0  0  0  0
   -7.8792    0.5961   -4.1715 H   0  0  0  0  0  0  0  0  0  0  0  0
  -10.7304    0.0196   -3.3328 H   0  0  0  0  0  0  0  0  0  0  0  0
   -9.6039   -2.3390   -1.6769 H   0  0  0  0  0  0  0  0  0  0  0  0
   -7.4431   -2.6226   -0.4779 H   0  0  0  0  0  0  0  0  0  0  0  0
   -3.7123   -2.8197    0.7870 H   0  0  0  0  0  0  0  0  0  0  0  0
   -1.4556   -1.4733    2.2308 H   0  0  0  0  0  0  0  0  0  0  0  0
   -0.5524   -3.8527    2.5101 H   0  0  0  0  0  0  0  0  0  0  0  0
   -1.7932   -4.4339    1.3987 H   0  0  0  0  0  0  0  0  0  0  0  0
   -1.8894   -5.9036    3.8843 H   0  0  0  0  0  0  0  0  0  0  0  0
   -4.6870   -3.2111    5.5927 H   0  0  0  0  0  0  0  0  0  0  0  0
   -3.5796   -2.0614    3.5778 H   0  0  0  0  0  0  0  0  0  0  0  0
    0.9558   -2.8109    1.6820 H   0  0  0  0  0  0  0  0  0  0  0  0
    1.2004   -1.7987   -1.0855 H   0  0  0  0  0  0  0  0  0  0  0  0
    0.9380   -3.9811   -1.3547 H   0  0  0  0  0  0  0  0  0  0  0  0
    1.8509   -4.5817   -0.0041 H   0  0  0  0  0  0  0  0  0  0  0  0
    1.7838   -3.3350   -3.4499 H   0  0  0  0  0  0  0  0  0  0  0  0
    3.4957   -3.6549   -5.1283 H   0  0  0  0  0  0  0  0  0  0  0  0
    5.6995   -4.5549   -4.5379 H   0  0  0  0  0  0  0  0  0  0  0  0
    7.1930   -5.4114   -2.9648 H   0  0  0  0  0  0  0  0  0  0  0  0
    7.6820   -6.0779   -0.6419 H   0  0  0  0  0  0  0  0  0  0  0  0
    6.0231   -5.7892    1.0775 H   0  0  0  0  0  0  0  0  0  0  0  0
    3.7988   -4.8088    0.5264 H   0  0  0  0  0  0  0  0  0  0  0  0
    4.3002   -1.4971   -1.1612 H   0  0  0  0  0  0  0  0  0  0  0  0
    4.3814   -0.0189    1.4483 H   0  0  0  0  0  0  0  0  0  0  0  0
    6.6148   -1.3684   -0.1333 H   0  0  0  0  0  0  0  0  0  0  0  0
    7.6968    0.5948    0.6872 H   0  0  0  0  0  0  0  0  0  0  0  0
    7.9913   -0.7504    1.8181 H   0  0  0  0  0  0  0  0  0  0  0  0
    6.8210    0.4656    2.3219 H   0  0  0  0  0  0  0  0  0  0  0  0
    5.8760   -1.5101    2.7854 H   0  0  0  0  0  0  0  0  0  0  0  0
    6.7995   -2.7581    1.8168 H   0  0  0  0  0  0  0  0  0  0  0  0
    4.9840   -2.5433    1.6725 H   0  0  0  0  0  0  0  0  0  0  0  0
    6.0990    2.2994    1.0520 H   0  0  0  0  0  0  0  0  0  0  0  0
    5.1637    3.2131   -1.6695 H   0  0  0  0  0  0  0  0  0  0  0  0
    5.4525    4.5006    1.1281 H   0  0  0  0  0  0  0  0  0  0  0  0
    3.9553    3.9299    0.4377 H   0  0  0  0  0  0  0  0  0  0  0  0
    3.9032    6.2280    0.5500 H   0  0  0  0  0  0  0  0  0  0  0  0
    3.8555    5.8151   -1.1697 H   0  0  0  0  0  0  0  0  0  0  0  0
    6.1568    7.1949    0.3406 H   0  0  0  0  0  0  0  0  0  0  0  0
    4.8962    7.8319   -0.7099 H   0  0  0  0  0  0  0  0  0  0  0  0
    7.3871    6.9633   -1.5735 H   0  0  0  0  0  0  0  0  0  0  0  0
    5.9877    7.3892   -2.5116 H   0  0  0  0  0  0  0  0  0  0  0  0
    7.4856    3.3568   -2.9003 H   0  0  0  0  0  0  0  0  0  0  0  0
  1  2  1  0
  2  3  1  0
  2  4  1  0
  4  5  1  0
  5  6  1  0
  6  7  1  0
  6  8  2  0
  4  9  1  0
  9 10  2  0
  9 11  1  0
 11 12  1  0
 12 13  1  0
 13 14  1  0
 14 15  2  0
 15 16  1  0
 16 17  2  0
 17 18  1  0
 17 19  1  0
 19 20  2  0
 12 21  1  0
 21 22  2  0
 21 23  1  0
 23 24  1  0
 24 25  1  0
 25 26  1  0
 26 27  2  0
 27 28  1  0
 28 29  2  0
 29 30  1  0
 24 31  1  0
 31 32  2  0
 31 33  1  0
 33 34  1  0
 34 35  1  0
 35 36  1  0
 36 37  2  0
 37 38  1  0
 38 39  2  0
 39 40  1  0
 40 41  2  0
 41 42  1  0
 42 43  2  0
 43 44  1  0
 44 45  2  0
 34 46  1  0
 46 47  2  0
 46 48  1  0
 48 49  1  0
 49 50  1  0
 50 51  1  0
 50 52  1  0
 49 53  1  0
 53 54  2  0
 53 55  1  0
 55 56  1  0
 56 57  1  0
 57 58  1  0
 58 59  1  0
 59 60  1  0
 56 61  1  0
 61 62  1  0
 61 63  2  0
 20 14  1  0
 30 26  1  0
 45 36  1  0
 45 40  1  0
  1 64  1  0
  1 65  1  0
  1 66  1  0
  2 67  1  0
  3 68  1  0
  3 69  1  0
  3 70  1  0
  4 71  1  6
  5 72  1  0
  7 73  1  0
  7 74  1  0
  7 75  1  0
 11 76  1  0
 12 77  1  1
 13 78  1  0
 13 79  1  0
 15 80  1  0
 16 81  1  0
 18 82  1  0
 19 83  1  0
 20 84  1  0
 23 85  1  0
 24 86  1  1
 25 87  1  0
 25 88  1  0
 27 89  1  0
 29 90  1  0
 30 91  1  0
 33 92  1  0
 34 93  1  6
 35 94  1  0
 35 95  1  0
 37 96  1  0
 38 97  1  0
 39 98  1  0
 41 99  1  0
 42100  1  0
 43101  1  0
 44102  1  0
 48103  1  0
 49104  1  1
 50105  1  0
 51106  1  0
 51107  1  0
 51108  1  0
 52109  1  0
 52110  1  0
 52111  1  0
 55112  1  0
 56113  1  6
 57114  1  0
 57115  1  0
 58116  1  0
 58117  1  0
 59118  1  0
 59119  1  0
 60120  1  0
 60121  1  0
 62122  1  0
M  END
$$$$
[H]C#CC([H])([H])OC(=O)[C@]1([H])C([H])([H])C([H])([H])C([H])([H])C([H])([H])[C@]1([H])N([H])C(=O)c1c([H])c([H])c(-c2c([H])c([H])c(C(C#N)(C([H])([H])[H])C([H])([H])[H])c(C#N)c2[H])c([H])c1[H]
     RDKit          3D

 61 63  0  0  0  0  0  0  0  0999 V2000
    8.2018   -0.7317    0.4067 C   0  0  0  0  0  0  0  0  0  0  0  0
    7.5390    0.1638   -0.6210 C   0  0  0  0  0  0  0  0  0  0  0  0
    8.2755    1.4719   -0.7888 C   0  0  0  0  0  0  0  0  0  0  0  0
    7.7431   -0.5435   -1.9126 C   0  0  0  0  0  0  0  0  0  0  0  0
    7.9284   -1.1049   -2.9291 N   0  0  0  0  0  0  0  0  0  0  0  0
    6.0957    0.3102   -0.4027 C   0  0  0  0  0  0  0  0  0  0  0  0
    5.1808   -0.0685   -1.3600 C   0  0  0  0  0  0  0  0  0  0  0  0
    3.8282    0.0450   -1.2124 C   0  0  0  0  0  0  0  0  0  0  0  0
    3.3104    0.5676   -0.0449 C   0  0  0  0  0  0  0  0  0  0  0  0
    4.1813    0.9571    0.9331 C   0  0  0  0  0  0  0  0  0  0  0  0
    5.5555    0.8303    0.7589 C   0  0  0  0  0  0  0  0  0  0  0  0
    6.3994    1.2417    1.8277 C   0  0  0  0  0  0  0  0  0  0  0  0
    7.0563    1.5788    2.6977 N   0  0  0  0  0  0  0  0  0  0  0  0
    1.8702    0.6541    0.1475 C   0  0  0  0  0  0  0  0  0  0  0  0
    0.9900    0.8443   -0.9101 C   0  0  0  0  0  0  0  0  0  0  0  0
   -0.3877    0.9187   -0.6687 C   0  0  0  0  0  0  0  0  0  0  0  0
   -0.8951    0.8092    0.5877 C   0  0  0  0  0  0  0  0  0  0  0  0
   -0.0099    0.6209    1.6347 C   0  0  0  0  0  0  0  0  0  0  0  0
    1.3377    0.5467    1.4012 C   0  0  0  0  0  0  0  0  0  0  0  0
   -2.3502    0.8596    0.9093 C   0  0  0  0  0  0  0  0  0  0  0  0
   -2.6644    1.8615    1.5941 O   0  0  0  0  0  0  0  0  0  0  0  0
   -3.1265   -0.1386    0.4495 N   0  0  0  0  0  0  0  0  0  0  0  0
   -3.9210   -1.1598   -0.0208 C   0  0  1  0  0  0  0  0  0  0  0  0
   -4.5484   -2.0513    1.0725 C   0  0  0  0  0  0  0  0  0  0  0  0
   -4.6836   -3.4338    0.4596 C   0  0  0  0  0  0  0  0  0  0  0  0
   -5.4173   -3.3056   -0.8377 C   0  0  0  0  0  0  0  0  0  0  0  0
   -6.0466   -1.9621   -1.0605 C   0  0  0  0  0  0  0  0  0  0  0  0
   -5.0416   -0.8311   -0.9672 C   0  0  1  0  0  0  0  0  0  0  0  0
   -5.7537    0.4102   -0.7120 C   0  0  0  0  0  0  0  0  0  0  0  0
   -5.7456    1.3260   -1.6170 O   0  0  0  0  0  0  0  0  0  0  0  0
   -6.4700    0.7508    0.4226 O   0  0  0  0  0  0  0  0  0  0  0  0
   -7.1316    1.9937    0.5563 C   0  0  0  0  0  0  0  0  0  0  0  0
   -6.1790    3.0955    0.4190 C   0  0  0  0  0  0  0  0  0  0  0  0
   -5.4014    4.0092    0.2864 C   0  0  0  0  0  0  0  0  0  0  0  0
    7.4961   -1.3101    1.0219 H   0  0  0  0  0  0  0  0  0  0  0  0
    8.9134   -0.1008    0.9917 H   0  0  0  0  0  0  0  0  0  0  0  0
    8.8700   -1.5016   -0.0784 H   0  0  0  0  0  0  0  0  0  0  0  0
    8.0671    1.8245   -1.8432 H   0  0  0  0  0  0  0  0  0  0  0  0
    9.3544    1.2416   -0.7724 H   0  0  0  0  0  0  0  0  0  0  0  0
    7.9877    2.2551   -0.0921 H   0  0  0  0  0  0  0  0  0  0  0  0
    5.5344   -0.4867   -2.3129 H   0  0  0  0  0  0  0  0  0  0  0  0
    3.1777   -0.2768   -2.0096 H   0  0  0  0  0  0  0  0  0  0  0  0
    3.7544    1.3683    1.8401 H   0  0  0  0  0  0  0  0  0  0  0  0
    1.3762    0.9372   -1.9057 H   0  0  0  0  0  0  0  0  0  0  0  0
   -1.0590    1.0687   -1.5169 H   0  0  0  0  0  0  0  0  0  0  0  0
   -0.4155    0.5339    2.6292 H   0  0  0  0  0  0  0  0  0  0  0  0
    2.0395    0.3955    2.2184 H   0  0  0  0  0  0  0  0  0  0  0  0
   -4.2271    0.3976    1.0634 H   0  0  0  0  0  0  0  0  0  0  0  0
   -3.2293   -1.9157   -0.5574 H   0  0  0  0  0  0  0  0  0  0  0  0
   -3.8641   -2.1323    1.9295 H   0  0  0  0  0  0  0  0  0  0  0  0
   -5.5044   -1.6422    1.4046 H   0  0  0  0  0  0  0  0  0  0  0  0
   -5.1198   -4.1488    1.1772 H   0  0  0  0  0  0  0  0  0  0  0  0
   -3.6354   -3.7661    0.1986 H   0  0  0  0  0  0  0  0  0  0  0  0
   -6.2464   -4.0603   -0.8170 H   0  0  0  0  0  0  0  0  0  0  0  0
   -4.7944   -3.5795   -1.7254 H   0  0  0  0  0  0  0  0  0  0  0  0
   -6.4745   -1.9472   -2.0802 H   0  0  0  0  0  0  0  0  0  0  0  0
   -6.9098   -1.7808   -0.3808 H   0  0  0  0  0  0  0  0  0  0  0  0
   -4.5753   -0.7758   -1.9884 H   0  0  0  0  0  0  0  0  0  0  0  0
   -7.5928    2.0259    1.5661 H   0  0  0  0  0  0  0  0  0  0  0  0
   -7.9363    2.0352   -0.1898 H   0  0  0  0  0  0  0  0  0  0  0  0
   -4.7064    4.8052    0.1670 H   0  0  0  0  0  0  0  0  0  0  0  0
  1  2  1  0
  2  3  1  0
  2  4  1  0
  4  5  3  0
  2  6  1  0
  6  7  2  0
  7  8  1  0
  8  9  2  0
  9 10  1  0
 10 11  2  0
 11 12  1  0
 12 13  3  0
  9 14  1  0
 14 15  2  0
 15 16  1  0
 16 17  2  0
 17 18  1  0
 18 19  2  0
 17 20  1  0
 20 21  2  0
 20 22  1  0
 22 23  1  0
 23 24  1  0
 24 25  1  0
 25 26  1  0
 26 27  1  0
 27 28  1  0
 28 29  1  0
 29 30  2  0
 29 31  1  0
 31 32  1  0
 32 33  1  0
 33 34  3  0
 11  6  1  0
 19 14  1  0
 28 23  1  0
  1 35  1  0
  1 36  1  0
  1 37  1  0
  3 38  1  0
  3 39  1  0
  3 40  1  0
  7 41  1  0
  8 42  1  0
 10 43  1  0
 15 44  1  0
 16 45  1  0
 18 46  1  0
 19 47  1  0
 22 48  1  0
 23 49  1  6
 24 50  1  0
 24 51  1  0
 25 52  1  0
 25 53  1  0
 26 54  1  0
 26 55  1  0
 27 56  1  0
 27 57  1  0
 28 58  1  6
 32 59  1  0
 32 60  1  0
 34 61  1  0
M  END
$$$$
[H]c1c([H])c(F)c(Oc2c([H])c([H])c(-c3nsc(N([H])[H])c3C#N)c([H])c2[H])c(Cl)c1[H]
     RDKit          3D

 32 34  0  0  0  0  0  0  0  0999 V2000
    6.0739   -1.4606   -0.7814 N   0  0  0  0  0  0  0  0  0  0  0  0
    5.1508   -0.5661   -0.1188 C   0  0  0  0  0  0  0  0  0  0  0  0
    5.4616    0.5725    1.1044 S   0  0  0  0  0  0  0  0  0  0  0  0
    3.9117    1.1724    1.3111 N   0  0  0  0  0  0  0  0  0  0  0  0
    3.1730    0.4932    0.4402 C   0  0  0  0  0  0  0  0  0  0  0  0
    1.7194    0.7753    0.3450 C   0  0  0  0  0  0  0  0  0  0  0  0
    0.7653   -0.2115    0.3109 C   0  0  0  0  0  0  0  0  0  0  0  0
   -0.5889    0.0712    0.2159 C   0  0  0  0  0  0  0  0  0  0  0  0
   -1.0087    1.3819    0.1526 C   0  0  0  0  0  0  0  0  0  0  0  0
   -2.3751    1.6960    0.0559 O   0  0  0  0  0  0  0  0  0  0  0  0
   -3.2792    0.6500    0.0265 C   0  0  0  0  0  0  0  0  0  0  0  0
   -3.6250    0.1240   -1.2191 C   0  0  0  0  0  0  0  0  0  0  0  0
   -3.0741    0.6451   -2.3417 F   0  0  0  0  0  0  0  0  0  0  0  0
   -4.5257   -0.9166   -1.2318 C   0  0  0  0  0  0  0  0  0  0  0  0
   -5.0625   -1.4175   -0.0700 C   0  0  0  0  0  0  0  0  0  0  0  0
   -4.7197   -0.8966    1.1592 C   0  0  0  0  0  0  0  0  0  0  0  0
   -3.8127    0.1542    1.2021 C   0  0  0  0  0  0  0  0  0  0  0  0
   -3.3430    0.8540    2.7512 Cl  0  0  0  0  0  0  0  0  0  0  0  0
   -0.0647    2.3854    0.1857 C   0  0  0  0  0  0  0  0  0  0  0  0
    1.2762    2.0778    0.2805 C   0  0  0  0  0  0  0  0  0  0  0  0
    3.7990   -0.4299   -0.3275 C   0  0  0  0  0  0  0  0  0  0  0  0
    3.1237   -1.2586   -1.3437 C   0  0  0  0  0  0  0  0  0  0  0  0
    2.6067   -1.9080   -2.1604 N   0  0  0  0  0  0  0  0  0  0  0  0
    5.6770   -2.3167   -1.1875 H   0  0  0  0  0  0  0  0  0  0  0  0
    7.0748   -1.1737   -0.7999 H   0  0  0  0  0  0  0  0  0  0  0  0
    1.0692   -1.2434    0.3637 H   0  0  0  0  0  0  0  0  0  0  0  0
   -1.3452   -0.6994    0.1884 H   0  0  0  0  0  0  0  0  0  0  0  0
   -4.7840   -1.3144   -2.2118 H   0  0  0  0  0  0  0  0  0  0  0  0
   -5.7677   -2.2340   -0.0978 H   0  0  0  0  0  0  0  0  0  0  0  0
   -5.1285   -1.2725    2.0988 H   0  0  0  0  0  0  0  0  0  0  0  0
   -0.4041    3.4034    0.1358 H   0  0  0  0  0  0  0  0  0  0  0  0
    2.0267    2.8632    0.3072 H   0  0  0  0  0  0  0  0  0  0  0  0
  1  2  1  0
  2  3  1  0
  3  4  1  0
  4  5  2  0
  5  6  1  0
  6  7  2  0
  7  8  1  0
  8  9  2  0
  9 10  1  0
 10 11  1  0
 11 12  2  0
 12 13  1  0
 12 14  1  0
 14 15  2  0
 15 16  1  0
 16 17  2  0
 17 18  1  0
  9 19  1  0
 19 20  2  0
  5 21  1  0
 21 22  1  0
 22 23  3  0
 21  2  2  0
 20  6  1  0
 17 11  1  0
  1 24  1  0
  1 25  1  0
  7 26  1  0
  8 27  1  0
 14 28  1  0
 15 29  1  0
 16 30  1  0
 19 31  1  0
 20 32  1  0
M  END
$$$$
[H]N=C(N([H])[H])N([H])C([H])([H])C([H])([H])C([H])([H])[C@@]1([H])C(=O)N([H])[C@@]([H])(C([H])([H])c2c([H])c([H])c([H])c([H])c2[H])C(=O)N([H])[C@@]([H])(C([H])([H])C([H])([H])C([H])([H])C([H])([H])N([H])[H])C(=O)N([H])[C@]([H])(C([H])(C([H])([H])[H])C([H])([H])[H])C(=O)N([H])[C@@]([H])(C([H])([H])C(=O)N([H])[H])C(=O)N([H])[C@]([H])(C([H])([H])c2c([H])c([H])c([H])c([H])c2[H])C(=O)N1[H]
     RDKit          3D

114116  0  0  0  0  0  0  0  0999 V2000
    4.8952    3.4193   -0.7012 C   0  0  0  0  0  0  0  0  0  0  0  0
    3.4471    3.8362   -0.5600 C   0  0  0  0  0  0  0  0  0  0  0  0
    3.1133    4.2366    0.8369 C   0  0  0  0  0  0  0  0  0  0  0  0
    2.4949    3.0121   -1.3179 C   0  0  1  0  0  0  0  0  0  0  0  0
    2.3187    1.6337   -1.1224 N   0  0  0  0  0  0  0  0  0  0  0  0
    2.8758    0.5778   -0.3981 C   0  0  0  0  0  0  0  0  0  0  0  0
    3.5958   -0.2978   -1.0517 O   0  0  0  0  0  0  0  0  0  0  0  0
    2.8474    0.1785    1.0092 C   0  0  2  0  0  0  0  0  0  0  0  0
    4.1504    0.4912    1.7044 C   0  0  0  0  0  0  0  0  0  0  0  0
    5.3668   -0.1768    1.1571 C   0  0  0  0  0  0  0  0  0  0  0  0
    6.5289    0.2879    2.0563 C   0  0  0  0  0  0  0  0  0  0  0  0
    7.8367   -0.3245    1.6227 C   0  0  0  0  0  0  0  0  0  0  0  0
    8.1820    0.0281    0.2647 N   0  0  0  0  0  0  0  0  0  0  0  0
    2.5165   -1.2411    1.2122 N   0  0  0  0  0  0  0  0  0  0  0  0
    1.9291   -2.1952    0.4232 C   0  0  0  0  0  0  0  0  0  0  0  0
    2.6826   -3.1987    0.1172 O   0  0  0  0  0  0  0  0  0  0  0  0
    0.5728   -2.3035   -0.1516 C   0  0  2  0  0  0  0  0  0  0  0  0
    0.5307   -2.4120   -1.6376 C   0  0  0  0  0  0  0  0  0  0  0  0
    1.1783   -3.5412   -2.2795 C   0  0  0  0  0  0  0  0  0  0  0  0
    0.5799   -4.7880   -2.4056 C   0  0  0  0  0  0  0  0  0  0  0  0
    1.2277   -5.7933   -3.0589 C   0  0  0  0  0  0  0  0  0  0  0  0
    2.4782   -5.6331   -3.6152 C   0  0  0  0  0  0  0  0  0  0  0  0
    3.0926   -4.4100   -3.5054 C   0  0  0  0  0  0  0  0  0  0  0  0
    2.4280   -3.4054   -2.8443 C   0  0  0  0  0  0  0  0  0  0  0  0
   -0.2704   -1.1697    0.1941 N   0  0  0  0  0  0  0  0  0  0  0  0
   -1.1793   -1.0041    1.2055 C   0  0  0  0  0  0  0  0  0  0  0  0
   -0.8950   -0.1868    2.1634 O   0  0  0  0  0  0  0  0  0  0  0  0
   -2.5308   -1.6303    1.4297 C   0  0  2  0  0  0  0  0  0  0  0  0
   -2.9596   -2.5095    0.3379 C   0  0  0  0  0  0  0  0  0  0  0  0
   -4.2680   -3.1752    0.5094 C   0  0  0  0  0  0  0  0  0  0  0  0
   -4.4730   -4.1827    1.5498 C   0  0  0  0  0  0  0  0  0  0  0  0
   -4.3727   -3.8363    2.9263 N   0  0  0  0  0  0  0  0  0  0  0  0
   -4.4747   -4.8731    3.9424 C   0  0  0  0  0  0  0  0  0  0  0  0
   -3.3027   -5.2918    4.5704 N   0  0  0  0  0  0  0  0  0  0  0  0
   -5.6115   -5.3468    4.2110 N   0  0  0  0  0  0  0  0  0  0  0  0
   -3.5088   -0.5693    1.6729 N   0  0  0  0  0  0  0  0  0  0  0  0
   -3.6328    0.6768    1.0457 C   0  0  0  0  0  0  0  0  0  0  0  0
   -3.7776    1.6809    1.8353 O   0  0  0  0  0  0  0  0  0  0  0  0
   -3.6322    1.0333   -0.3711 C   0  0  1  0  0  0  0  0  0  0  0  0
   -5.1303    1.2343   -0.7143 C   0  0  0  0  0  0  0  0  0  0  0  0
   -5.3735    1.6027   -2.0982 C   0  0  0  0  0  0  0  0  0  0  0  0
   -5.5643    0.5976   -3.0258 C   0  0  0  0  0  0  0  0  0  0  0  0
   -5.8182    0.8504   -4.3688 C   0  0  0  0  0  0  0  0  0  0  0  0
   -5.8730    2.1703   -4.7456 C   0  0  0  0  0  0  0  0  0  0  0  0
   -5.6855    3.1897   -3.8369 C   0  0  0  0  0  0  0  0  0  0  0  0
   -5.4351    2.9085   -2.5099 C   0  0  0  0  0  0  0  0  0  0  0  0
   -2.8571    2.1258   -0.8205 N   0  0  0  0  0  0  0  0  0  0  0  0
   -2.0138    3.0747   -0.2636 C   0  0  0  0  0  0  0  0  0  0  0  0
   -2.4714    4.2960   -0.1832 O   0  0  0  0  0  0  0  0  0  0  0  0
   -0.6404    3.0013    0.2793 C   0  0  2  0  0  0  0  0  0  0  0  0
   -0.5914    3.4118    1.7150 C   0  0  0  0  0  0  0  0  0  0  0  0
   -1.0301    4.7367    2.0910 C   0  0  0  0  0  0  0  0  0  0  0  0
   -0.2712    5.9398    2.0859 N   0  0  0  0  0  0  0  0  0  0  0  0
   -2.2424    4.8967    2.4862 O   0  0  0  0  0  0  0  0  0  0  0  0
    0.2150    3.9524   -0.4652 N   0  0  0  0  0  0  0  0  0  0  0  0
    1.1693    3.7132   -1.4333 C   0  0  0  0  0  0  0  0  0  0  0  0
    0.8528    4.1767   -2.6164 O   0  0  0  0  0  0  0  0  0  0  0  0
    5.2026    3.7128   -1.7501 H   0  0  0  0  0  0  0  0  0  0  0  0
    5.5432    3.8863    0.0496 H   0  0  0  0  0  0  0  0  0  0  0  0
    4.9432    2.3151   -0.7076 H   0  0  0  0  0  0  0  0  0  0  0  0
    3.4227    4.8524   -1.1067 H   0  0  0  0  0  0  0  0  0  0  0  0
    2.3837    5.0666    0.9132 H   0  0  0  0  0  0  0  0  0  0  0  0
    4.0431    4.5934    1.3222 H   0  0  0  0  0  0  0  0  0  0  0  0
    2.7359    3.4172    1.4785 H   0  0  0  0  0  0  0  0  0  0  0  0
    2.9392    3.1755   -2.4012 H   0  0  0  0  0  0  0  0  0  0  0  0
    1.5022    1.2639   -1.7586 H   0  0  0  0  0  0  0  0  0  0  0  0
    2.0645    0.6842    1.6185 H   0  0  0  0  0  0  0  0  0  0  0  0
    4.2517    1.5874    1.7731 H   0  0  0  0  0  0  0  0  0  0  0  0
    4.0033    0.1686    2.7798 H   0  0  0  0  0  0  0  0  0  0  0  0
    5.2829   -1.2730    1.2879 H   0  0  0  0  0  0  0  0  0  0  0  0
    5.6055    0.0225    0.1110 H   0  0  0  0  0  0  0  0  0  0  0  0
    6.3143    0.0558    3.1170 H   0  0  0  0  0  0  0  0  0  0  0  0
    6.6451    1.3922    1.9971 H   0  0  0  0  0  0  0  0  0  0  0  0
    8.6309   -0.0368    2.3363 H   0  0  0  0  0  0  0  0  0  0  0  0
    7.6825   -1.4427    1.6299 H   0  0  0  0  0  0  0  0  0  0  0  0
    9.1684   -0.2647    0.0831 H   0  0  0  0  0  0  0  0  0  0  0  0
    8.0659    1.0354    0.0687 H   0  0  0  0  0  0  0  0  0  0  0  0
    2.8196   -1.5501    2.2016 H   0  0  0  0  0  0  0  0  0  0  0  0
    0.0856   -3.2661    0.2169 H   0  0  0  0  0  0  0  0  0  0  0  0
   -0.5425   -2.4159   -1.9714 H   0  0  0  0  0  0  0  0  0  0  0  0
    0.9924   -1.4749   -2.0340 H   0  0  0  0  0  0  0  0  0  0  0  0
   -0.3794   -4.9379   -1.9887 H   0  0  0  0  0  0  0  0  0  0  0  0
    0.7786   -6.7931   -3.1752 H   0  0  0  0  0  0  0  0  0  0  0  0
    2.9952   -6.4467   -4.1401 H   0  0  0  0  0  0  0  0  0  0  0  0
    4.0806   -4.2331   -3.9278 H   0  0  0  0  0  0  0  0  0  0  0  0
    2.9706   -2.4502   -2.7954 H   0  0  0  0  0  0  0  0  0  0  0  0
   -0.1283   -0.3292   -0.4588 H   0  0  0  0  0  0  0  0  0  0  0  0
   -2.3448   -2.2534    2.3361 H   0  0  0  0  0  0  0  0  0  0  0  0
   -2.2186   -3.3702    0.2221 H   0  0  0  0  0  0  0  0  0  0  0  0
   -2.9428   -2.0700   -0.6881 H   0  0  0  0  0  0  0  0  0  0  0  0
   -5.1239   -2.4276    0.5058 H   0  0  0  0  0  0  0  0  0  0  0  0
   -4.4642   -3.7094   -0.4902 H   0  0  0  0  0  0  0  0  0  0  0  0
   -5.5085   -4.6766    1.4450 H   0  0  0  0  0  0  0  0  0  0  0  0
   -3.8172   -5.1183    1.3547 H   0  0  0  0  0  0  0  0  0  0  0  0
   -4.2505   -2.9035    3.3572 H   0  0  0  0  0  0  0  0  0  0  0  0
   -2.4662   -5.6389    4.0368 H   0  0  0  0  0  0  0  0  0  0  0  0
   -3.1844   -5.2851    5.6223 H   0  0  0  0  0  0  0  0  0  0  0  0
   -5.8100   -6.0822    4.9092 H   0  0  0  0  0  0  0  0  0  0  0  0
   -4.2060   -0.8295    2.4510 H   0  0  0  0  0  0  0  0  0  0  0  0
   -3.3673    0.1470   -0.9927 H   0  0  0  0  0  0  0  0  0  0  0  0
   -5.6960    0.3611   -0.3569 H   0  0  0  0  0  0  0  0  0  0  0  0
   -5.4205    2.1158   -0.0651 H   0  0  0  0  0  0  0  0  0  0  0  0
   -5.5263   -0.4592   -2.7554 H   0  0  0  0  0  0  0  0  0  0  0  0
   -5.9676    0.0571   -5.0868 H   0  0  0  0  0  0  0  0  0  0  0  0
   -6.0643    2.4422   -5.7638 H   0  0  0  0  0  0  0  0  0  0  0  0
   -5.7290    4.2471   -4.1389 H   0  0  0  0  0  0  0  0  0  0  0  0
   -5.2910    3.7501   -1.8260 H   0  0  0  0  0  0  0  0  0  0  0  0
   -2.9735    2.2611   -1.9123 H   0  0  0  0  0  0  0  0  0  0  0  0
   -0.2259    1.9664    0.1459 H   0  0  0  0  0  0  0  0  0  0  0  0
    0.4429    3.2819    2.1477 H   0  0  0  0  0  0  0  0  0  0  0  0
   -1.1803    2.6370    2.2997 H   0  0  0  0  0  0  0  0  0  0  0  0
   -0.5286    6.6780    1.3939 H   0  0  0  0  0  0  0  0  0  0  0  0
    0.5264    6.1403    2.7253 H   0  0  0  0  0  0  0  0  0  0  0  0
    0.0152    4.9495   -0.1979 H   0  0  0  0  0  0  0  0  0  0  0  0
  1  2  1  0
  2  3  1  0
  2  4  1  0
  4  5  1  0
  5  6  1  0
  6  7  2  0
  6  8  1  0
  8  9  1  0
  9 10  1  0
 10 11  1  0
 11 12  1  0
 12 13  1  0
  8 14  1  0
 14 15  1  0
 15 16  2  0
 15 17  1  0
 17 18  1  0
 18 19  1  0
 19 20  2  0
 20 21  1  0
 21 22  2  0
 22 23  1  0
 23 24  2  0
 17 25  1  0
 25 26  1  0
 26 27  2  0
 26 28  1  0
 28 29  1  0
 29 30  1  0
 30 31  1  0
 31 32  1  0
 32 33  1  0
 33 34  1  0
 33 35  2  3
 28 36  1  0
 36 37  1  0
 37 38  2  0
 37 39  1  0
 39 40  1  0
 40 41  1  0
 41 42  2  0
 42 43  1  0
 43 44  2  0
 44 45  1  0
 45 46  2  0
 39 47  1  0
 47 48  1  0
 48 49  2  0
 48 50  1  0
 50 51  1  0
 51 52  1  0
 52 53  1  0
 52 54  2  0
 50 55  1  0
 55 56  1  0
 56 57  2  0
 56  4  1  0
 24 19  1  0
 46 41  1  0
  1 58  1  0
  1 59  1  0
  1 60  1  0
  2 61  1  0
  3 62  1  0
  3 63  1  0
  3 64  1  0
  4 65  1  6
  5 66  1  0
  8 67  1  1
  9 68  1  0
  9 69  1  0
 10 70  1  0
 10 71  1  0
 11 72  1  0
 11 73  1  0
 12 74  1  0
 12 75  1  0
 13 76  1  0
 13 77  1  0
 14 78  1  0
 17 79  1  1
 18 80  1  0
 18 81  1  0
 20 82  1  0
 21 83  1  0
 22 84  1  0
 23 85  1  0
 24 86  1  0
 25 87  1  0
 28 88  1  1
 29 89  1  0
 29 90  1  0
 30 91  1  0
 30 92  1  0
 31 93  1  0
 31 94  1  0
 32 95  1  0
 34 96  1  0
 34 97  1  0
 35 98  1  0
 36 99  1  0
 39100  1  6
 40101  1  0
 40102  1  0
 42103  1  0
 43104  1  0
 44105  1  0
 45106  1  0
 46107  1  0
 47108  1  0
 50109  1  1
 51110  1  0
 51111  1  0
 53112  1  0
 53113  1  0
 55114  1  0
M  END
$$$$
[H]Oc1c([H])c([H])c(C#CC([H])([H])C([H])([H])C([H])([H])C([H])([H])C([H])([H])C([H])([H])C([H])([H])C([H])([H])[H])c([H])c1-c1c([H])c([H])c(O[H])c(C(c2c([H])c([H])c([H])c([H])c2[H])(C([H])([H])[H])C([H])([H])[H])c1[H]
     RDKit          3D

 69 71  0  0  0  0  0  0  0  0999 V2000
   10.1095    1.3091    0.0688 C   0  0  0  0  0  0  0  0  0  0  0  0
    9.1004    0.9950   -1.0190 C   0  0  0  0  0  0  0  0  0  0  0  0
    8.0149    0.1660   -0.4064 C   0  0  0  0  0  0  0  0  0  0  0  0
    6.9347   -0.2233   -1.3791 C   0  0  0  0  0  0  0  0  0  0  0  0
    6.2465    0.9756   -1.9799 C   0  0  0  0  0  0  0  0  0  0  0  0
    5.5896    1.8447   -0.9583 C   0  0  0  0  0  0  0  0  0  0  0  0
    4.5331    1.1330   -0.1603 C   0  0  0  0  0  0  0  0  0  0  0  0
    3.4193    0.6009   -1.0162 C   0  0  0  0  0  0  0  0  0  0  0  0
    2.4331   -0.0757   -0.1741 C   0  0  0  0  0  0  0  0  0  0  0  0
    1.6329   -0.6397    0.5344 C   0  0  0  0  0  0  0  0  0  0  0  0
    0.7024   -1.3206    1.3854 C   0  0  0  0  0  0  0  0  0  0  0  0
    1.0964   -2.3187    2.2566 C   0  0  0  0  0  0  0  0  0  0  0  0
    0.2287   -2.9802    3.0749 C   0  0  0  0  0  0  0  0  0  0  0  0
   -1.1277   -2.6210    3.0204 C   0  0  0  0  0  0  0  0  0  0  0  0
   -1.9741   -3.3017    3.8456 O   0  0  0  0  0  0  0  0  0  0  0  0
   -1.5618   -1.6498    2.1849 C   0  0  0  0  0  0  0  0  0  0  0  0
   -0.6291   -1.0000    1.3633 C   0  0  0  0  0  0  0  0  0  0  0  0
   -2.9345   -1.1983    2.0919 C   0  0  0  0  0  0  0  0  0  0  0  0
   -3.6497   -0.7875    3.1849 C   0  0  0  0  0  0  0  0  0  0  0  0
   -4.9749   -0.3594    3.0613 C   0  0  0  0  0  0  0  0  0  0  0  0
   -5.5610   -0.3565    1.8018 C   0  0  0  0  0  0  0  0  0  0  0  0
   -6.8710    0.0623    1.6541 O   0  0  0  0  0  0  0  0  0  0  0  0
   -4.8667   -0.7628    0.6915 C   0  0  0  0  0  0  0  0  0  0  0  0
   -3.5445   -1.1869    0.8352 C   0  0  0  0  0  0  0  0  0  0  0  0
   -5.5392   -0.7367   -0.6251 C   0  0  0  0  0  0  0  0  0  0  0  0
   -6.6334   -1.7725   -0.7262 C   0  0  0  0  0  0  0  0  0  0  0  0
   -4.4942   -1.1502   -1.6743 C   0  0  0  0  0  0  0  0  0  0  0  0
   -5.9788    0.6071   -0.9984 C   0  0  0  0  0  0  0  0  0  0  0  0
   -5.0397    1.6118   -1.0805 C   0  0  0  0  0  0  0  0  0  0  0  0
   -5.4244    2.8865   -1.4369 C   0  0  0  0  0  0  0  0  0  0  0  0
   -6.7423    3.1902   -1.7180 C   0  0  0  0  0  0  0  0  0  0  0  0
   -7.6493    2.1625   -1.6255 C   0  0  0  0  0  0  0  0  0  0  0  0
   -7.2873    0.9000   -1.2755 C   0  0  0  0  0  0  0  0  0  0  0  0
    9.6692    1.1109    1.0858 H   0  0  0  0  0  0  0  0  0  0  0  0
   10.3873    2.3721    0.0666 H   0  0  0  0  0  0  0  0  0  0  0  0
   11.0387    0.7132   -0.0417 H   0  0  0  0  0  0  0  0  0  0  0  0
    9.6659    0.4333   -1.8082 H   0  0  0  0  0  0  0  0  0  0  0  0
    8.7342    1.9631   -1.4108 H   0  0  0  0  0  0  0  0  0  0  0  0
    8.4768   -0.7427    0.0293 H   0  0  0  0  0  0  0  0  0  0  0  0
    7.5922    0.7418    0.4426 H   0  0  0  0  0  0  0  0  0  0  0  0
    7.4269   -0.7693   -2.2176 H   0  0  0  0  0  0  0  0  0  0  0  0
    6.2561   -0.9159   -0.8834 H   0  0  0  0  0  0  0  0  0  0  0  0
    7.0251    1.5933   -2.4882 H   0  0  0  0  0  0  0  0  0  0  0  0
    5.5189    0.6977   -2.7450 H   0  0  0  0  0  0  0  0  0  0  0  0
    5.0616    2.6623   -1.5247 H   0  0  0  0  0  0  0  0  0  0  0  0
    6.2923    2.3712   -0.2846 H   0  0  0  0  0  0  0  0  0  0  0  0
    4.9180    0.3275    0.4685 H   0  0  0  0  0  0  0  0  0  0  0  0
    4.0799    1.8933    0.5251 H   0  0  0  0  0  0  0  0  0  0  0  0
    3.8122   -0.1436   -1.7507 H   0  0  0  0  0  0  0  0  0  0  0  0
    2.8959    1.3752   -1.5931 H   0  0  0  0  0  0  0  0  0  0  0  0
    2.1617   -2.5531    2.2538 H   0  0  0  0  0  0  0  0  0  0  0  0
    0.5599   -3.7622    3.7529 H   0  0  0  0  0  0  0  0  0  0  0  0
   -2.9475   -3.1475    3.8744 H   0  0  0  0  0  0  0  0  0  0  0  0
   -0.9515   -0.2323    0.6974 H   0  0  0  0  0  0  0  0  0  0  0  0
   -3.1903   -0.7881    4.1703 H   0  0  0  0  0  0  0  0  0  0  0  0
   -5.5331   -0.0395    3.9096 H   0  0  0  0  0  0  0  0  0  0  0  0
   -7.4543    0.3758    2.4080 H   0  0  0  0  0  0  0  0  0  0  0  0
   -2.9779   -1.5081   -0.0029 H   0  0  0  0  0  0  0  0  0  0  0  0
   -6.1337   -2.7669   -0.6379 H   0  0  0  0  0  0  0  0  0  0  0  0
   -7.0481   -1.7385   -1.7546 H   0  0  0  0  0  0  0  0  0  0  0  0
   -7.4583   -1.6311   -0.0348 H   0  0  0  0  0  0  0  0  0  0  0  0
   -4.2006   -2.2038   -1.4954 H   0  0  0  0  0  0  0  0  0  0  0  0
   -5.0336   -1.1248   -2.6439 H   0  0  0  0  0  0  0  0  0  0  0  0
   -3.6661   -0.4458   -1.7274 H   0  0  0  0  0  0  0  0  0  0  0  0
   -3.9839    1.4683   -0.8784 H   0  0  0  0  0  0  0  0  0  0  0  0
   -4.7199    3.7026   -1.5130 H   0  0  0  0  0  0  0  0  0  0  0  0
   -7.0783    4.1774   -2.0001 H   0  0  0  0  0  0  0  0  0  0  0  0
   -8.6867    2.3831   -1.8424 H   0  0  0  0  0  0  0  0  0  0  0  0
   -8.0670    0.1481   -1.2263 H   0  0  0  0  0  0  0  0  0  0  0  0
  1  2  1  0
  2  3  1  0
  3  4  1  0
  4  5  1  0
  5  6  1  0
  6  7  1  0
  7  8  1  0
  8  9  1  0
  9 10  3  0
 10 11  1  0
 11 12  2  0
 12 13  1  0
 13 14  2  0
 14 15  1  0
 14 16  1  0
 16 17  2  0
 16 18  1  0
 18 19  2  0
 19 20  1  0
 20 21  2  0
 21 22  1  0
 21 23  1  0
 23 24  2  0
 23 25  1  0
 25 26  1  0
 25 27  1  0
 25 28  1  0
 28 29  2  0
 29 30  1  0
 30 31  2  0
 31 32  1  0
 32 33  2  0
 17 11  1  0
 24 18  1  0
 33 28  1  0
  1 34  1  0
  1 35  1  0
  1 36  1  0
  2 37  1  0
  2 38  1  0
  3 39  1  0
  3 40  1  0
  4 41  1  0
  4 42  1  0
  5 43  1  0
  5 44  1  0
  6 45  1  0
  6 46  1  0
  7 47  1  0
  7 48  1  0
  8 49  1  0
  8 50  1  0
 12 51  1  0
 13 52  1  0
 15 53  1  0
 17 54  1  0
 19 55  1  0
 20 56  1  0
 22 57  1  0
 24 58  1  0
 26 59  1  0
 26 60  1  0
 26 61  1  0
 27 62  1  0
 27 63  1  0
 27 64  1  0
 29 65  1  0
 30 66  1  0
 31 67  1  0
 32 68  1  0
 33 69  1  0
M  END
$$$$
[H]c1c([H])c(C(=O)N([H])C([H])([H])[H])c([H])c(-c2c([H])c3c([H])nc(N([H])c4c([H])c([H])c(Cl)c([H])c4OC([H])([H])[H])nc3n([C@@]3([H])C([H])([H])C([H])([H])[C@]([H])(N(C([H])([H])[H])C([H])([H])[H])C3([H])[H])c2=O)c1[H]
     RDKit          3D

 70 74  0  0  0  0  0  0  0  0999 V2000
    9.2278   -1.9331    1.7415 C   0  0  0  0  0  0  0  0  0  0  0  0
    8.4042   -1.1566    0.8379 N   0  0  0  0  0  0  0  0  0  0  0  0
    6.9911   -1.2795    0.8424 C   0  0  0  0  0  0  0  0  0  0  0  0
    6.4769   -2.0887    1.6623 O   0  0  0  0  0  0  0  0  0  0  0  0
    6.1417   -0.5127   -0.0549 C   0  0  0  0  0  0  0  0  0  0  0  0
    6.6500    0.3642   -0.9649 C   0  0  0  0  0  0  0  0  0  0  0  0
    5.7801    1.0606   -1.7908 C   0  0  0  0  0  0  0  0  0  0  0  0
    4.3982    0.9004   -1.7288 C   0  0  0  0  0  0  0  0  0  0  0  0
    3.8941    0.0117   -0.8052 C   0  0  0  0  0  0  0  0  0  0  0  0
    4.7778   -0.6734    0.0094 C   0  0  0  0  0  0  0  0  0  0  0  0
    2.4516   -0.1936   -0.6978 C   0  0  0  0  0  0  0  0  0  0  0  0
    1.9778   -1.4836   -0.6224 C   0  0  0  0  0  0  0  0  0  0  0  0
    0.6228   -1.6619   -0.5234 C   0  0  0  0  0  0  0  0  0  0  0  0
    0.1230   -2.9682   -0.4539 C   0  0  0  0  0  0  0  0  0  0  0  0
   -1.1852   -3.0943   -0.3677 N   0  0  0  0  0  0  0  0  0  0  0  0
   -2.0440   -2.0761   -0.3429 C   0  0  0  0  0  0  0  0  0  0  0  0
   -3.4423   -2.1524   -0.2519 N   0  0  0  0  0  0  0  0  0  0  0  0
   -4.2198   -3.3146   -0.1667 C   0  0  0  0  0  0  0  0  0  0  0  0
   -3.7088   -4.5805   -0.1395 C   0  0  0  0  0  0  0  0  0  0  0  0
   -4.5332   -5.7051   -0.0507 C   0  0  0  0  0  0  0  0  0  0  0  0
   -5.8828   -5.5444    0.0109 C   0  0  0  0  0  0  0  0  0  0  0  0
   -6.9038   -6.9574    0.1224 Cl  0  0  0  0  0  0  0  0  0  0  0  0
   -6.4266   -4.2767   -0.0146 C   0  0  0  0  0  0  0  0  0  0  0  0
   -5.6193   -3.1809   -0.1013 C   0  0  0  0  0  0  0  0  0  0  0  0
   -6.1564   -1.9228   -0.1269 O   0  0  0  0  0  0  0  0  0  0  0  0
   -7.5404   -1.6735   -0.0674 C   0  0  0  0  0  0  0  0  0  0  0  0
   -1.5542   -0.7932   -0.4108 N   0  0  0  0  0  0  0  0  0  0  0  0
   -0.2429   -0.5849   -0.4993 C   0  0  0  0  0  0  0  0  0  0  0  0
    0.2769    0.6786   -0.5763 N   0  0  0  0  0  0  0  0  0  0  0  0
   -0.5876    1.8108   -0.5526 C   0  0  1  0  0  0  0  0  0  0  0  0
   -1.9401    1.6720    0.0228 C   0  0  0  0  0  0  0  0  0  0  0  0
   -2.4053    3.1527    0.2135 C   0  0  0  0  0  0  0  0  0  0  0  0
   -1.1952    3.6902    0.8953 C   0  0  1  0  0  0  0  0  0  0  0  0
   -0.0157    2.9976    0.2315 C   0  0  0  0  0  0  0  0  0  0  0  0
   -1.0897    5.1209    0.9076 N   0  0  0  0  0  0  0  0  0  0  0  0
   -2.2143    5.6922    1.6678 C   0  0  0  0  0  0  0  0  0  0  0  0
   -1.1695    5.7184   -0.4090 C   0  0  0  0  0  0  0  0  0  0  0  0
    1.6214    0.8956   -0.6768 C   0  0  0  0  0  0  0  0  0  0  0  0
    2.0928    2.0771   -0.7507 O   0  0  0  0  0  0  0  0  0  0  0  0
    9.5999   -1.3304    2.6055 H   0  0  0  0  0  0  0  0  0  0  0  0
   10.1169   -2.2680    1.1823 H   0  0  0  0  0  0  0  0  0  0  0  0
    8.6494   -2.8070    2.1491 H   0  0  0  0  0  0  0  0  0  0  0  0
    8.9215   -0.5115    0.1956 H   0  0  0  0  0  0  0  0  0  0  0  0
    7.7231    0.5352   -1.0640 H   0  0  0  0  0  0  0  0  0  0  0  0
    6.1833    1.7615   -2.5185 H   0  0  0  0  0  0  0  0  0  0  0  0
    3.7925    1.4781   -2.4077 H   0  0  0  0  0  0  0  0  0  0  0  0
    4.3848   -1.3760    0.7391 H   0  0  0  0  0  0  0  0  0  0  0  0
    2.6317   -2.3522   -0.6381 H   0  0  0  0  0  0  0  0  0  0  0  0
    0.8310   -3.7887   -0.4745 H   0  0  0  0  0  0  0  0  0  0  0  0
   -4.0088   -1.2344   -0.2436 H   0  0  0  0  0  0  0  0  0  0  0  0
   -2.6436   -4.7843   -0.1830 H   0  0  0  0  0  0  0  0  0  0  0  0
   -4.0824   -6.6839   -0.0325 H   0  0  0  0  0  0  0  0  0  0  0  0
   -7.4988   -4.1456    0.0338 H   0  0  0  0  0  0  0  0  0  0  0  0
   -7.9725   -2.2929    0.7343 H   0  0  0  0  0  0  0  0  0  0  0  0
   -7.7346   -0.6110    0.1976 H   0  0  0  0  0  0  0  0  0  0  0  0
   -8.0421   -1.9666   -1.0165 H   0  0  0  0  0  0  0  0  0  0  0  0
   -0.7146    2.1526   -1.6228 H   0  0  0  0  0  0  0  0  0  0  0  0
   -2.7364    1.2907   -0.6483 H   0  0  0  0  0  0  0  0  0  0  0  0
   -1.9130    1.1928    0.9993 H   0  0  0  0  0  0  0  0  0  0  0  0
   -3.3032    3.0805    0.8635 H   0  0  0  0  0  0  0  0  0  0  0  0
   -2.5926    3.5353   -0.7857 H   0  0  0  0  0  0  0  0  0  0  0  0
   -1.2820    3.3829    1.9804 H   0  0  0  0  0  0  0  0  0  0  0  0
    0.4444    3.7258   -0.4722 H   0  0  0  0  0  0  0  0  0  0  0  0
    0.6436    2.6794    1.0600 H   0  0  0  0  0  0  0  0  0  0  0  0
   -2.0694    6.7807    1.7753 H   0  0  0  0  0  0  0  0  0  0  0  0
   -2.3048    5.1642    2.6331 H   0  0  0  0  0  0  0  0  0  0  0  0
   -3.1732    5.5527    1.1268 H   0  0  0  0  0  0  0  0  0  0  0  0
   -2.2318    6.0459   -0.6075 H   0  0  0  0  0  0  0  0  0  0  0  0
   -0.8574    5.0757   -1.2298 H   0  0  0  0  0  0  0  0  0  0  0  0
   -0.5918    6.6842   -0.3488 H   0  0  0  0  0  0  0  0  0  0  0  0
  1  2  1  0
  2  3  1  0
  3  4  2  0
  3  5  1  0
  5  6  2  0
  6  7  1  0
  7  8  2  0
  8  9  1  0
  9 10  2  0
  9 11  1  0
 11 12  2  0
 12 13  1  0
 13 14  2  0
 14 15  1  0
 15 16  2  0
 16 17  1  0
 17 18  1  0
 18 19  2  0
 19 20  1  0
 20 21  2  0
 21 22  1  0
 21 23  1  0
 23 24  2  0
 24 25  1  0
 25 26  1  0
 16 27  1  0
 27 28  2  0
 28 29  1  0
 29 30  1  0
 30 31  1  0
 31 32  1  0
 32 33  1  0
 33 34  1  0
 33 35  1  0
 35 36  1  0
 35 37  1  0
 29 38  1  0
 38 39  2  0
 10  5  1  0
 38 11  1  0
 28 13  1  0
 34 30  1  0
 24 18  1  0
  1 40  1  0
  1 41  1  0
  1 42  1  0
  2 43  1  0
  6 44  1  0
  7 45  1  0
  8 46  1  0
 10 47  1  0
 12 48  1  0
 14 49  1  0
 17 50  1  0
 19 51  1  0
 20 52  1  0
 23 53  1  0
 26 54  1  0
 26 55  1  0
 26 56  1  0
 30 57  1  6
 31 58  1  0
 31 59  1  0
 32 60  1  0
 32 61  1  0
 33 62  1  1
 34 63  1  0
 34 64  1  0
 36 65  1  0
 36 66  1  0
 36 67  1  0
 37 68  1  0
 37 69  1  0
 37 70  1  0
M  END
$$$$
[H]N=C(c1c([H])c([H])c([H])c(N([H])C(=O)[C@]2([H])N(C(=O)[C@@]([H])(N([H])C(=O)[C@@]([H])(N([H])[H])C([H])([H])c3c([H])c([H])c(O[H])c([H])c3[H])C([H])([H])c3c([H])c([H])c([H])c([H])c3[H])C([H])([H])C([H])([H])C2([H])[H])c1[H])N([H])[H]
     RDKit          3D

 74 77  0  0  0  0  0  0  0  0999 V2000
   -5.4173    0.9637   -0.2000 N   0  0  0  0  0  0  0  0  0  0  0  0
   -3.9905    1.1363   -0.2473 C   0  0  1  0  0  0  0  0  0  0  0  0
   -3.4785    1.9105    0.9475 C   0  0  0  0  0  0  0  0  0  0  0  0
   -4.0539    3.2775    1.0286 C   0  0  0  0  0  0  0  0  0  0  0  0
   -3.3959    4.3117    0.4415 C   0  0  0  0  0  0  0  0  0  0  0  0
   -3.9189    5.5825    0.5016 C   0  0  0  0  0  0  0  0  0  0  0  0
   -5.1176    5.7929    1.1643 C   0  0  0  0  0  0  0  0  0  0  0  0
   -5.6814    7.0596    1.2482 O   0  0  0  0  0  0  0  0  0  0  0  0
   -5.7804    4.7590    1.7542 C   0  0  0  0  0  0  0  0  0  0  0  0
   -5.2523    3.4967    1.6896 C   0  0  0  0  0  0  0  0  0  0  0  0
   -3.3480   -0.2110   -0.3219 C   0  0  0  0  0  0  0  0  0  0  0  0
   -4.0525   -1.2199   -0.2797 O   0  0  0  0  0  0  0  0  0  0  0  0
   -1.9725   -0.2425   -0.4369 N   0  0  0  0  0  0  0  0  0  0  0  0
   -1.1493   -1.5208   -0.5281 C   0  0  1  0  0  0  0  0  0  0  0  0
   -0.8430   -1.7137   -1.9241 C   0  0  0  0  0  0  0  0  0  0  0  0
   -0.1069   -2.8395   -2.4776 C   0  0  0  0  0  0  0  0  0  0  0  0
    1.1955   -2.7959   -2.9012 C   0  0  0  0  0  0  0  0  0  0  0  0
    1.8199   -3.8969   -3.4121 C   0  0  0  0  0  0  0  0  0  0  0  0
    1.1514   -5.1086   -3.5205 C   0  0  0  0  0  0  0  0  0  0  0  0
   -0.1538   -5.1482   -3.0948 C   0  0  0  0  0  0  0  0  0  0  0  0
   -0.7904   -4.0618   -2.5842 C   0  0  0  0  0  0  0  0  0  0  0  0
   -0.3558   -1.5174    0.6395 C   0  0  0  0  0  0  0  0  0  0  0  0
   -0.7619   -0.5312    1.4909 O   0  0  0  0  0  0  0  0  0  0  0  0
    0.7137   -2.1874    1.2290 N   0  0  0  0  0  0  0  0  0  0  0  0
    1.1052   -1.8837    2.6421 C   0  0  0  0  0  0  0  0  0  0  0  0
    1.0790   -3.3302    3.1631 C   0  0  0  0  0  0  0  0  0  0  0  0
    1.9630   -3.9628    2.0683 C   0  0  0  0  0  0  0  0  0  0  0  0
    1.7035   -3.1478    0.8440 C   0  0  2  0  0  0  0  0  0  0  0  0
    2.9534   -2.4269    0.3591 C   0  0  0  0  0  0  0  0  0  0  0  0
    3.9203   -3.1506    0.0607 O   0  0  0  0  0  0  0  0  0  0  0  0
    2.9805   -1.0469    0.2639 N   0  0  0  0  0  0  0  0  0  0  0  0
    4.0064   -0.1719   -0.1483 C   0  0  0  0  0  0  0  0  0  0  0  0
    5.2977   -0.5169   -0.4287 C   0  0  0  0  0  0  0  0  0  0  0  0
    6.2120    0.4029   -0.8393 C   0  0  0  0  0  0  0  0  0  0  0  0
    5.8869    1.7470   -0.9979 C   0  0  0  0  0  0  0  0  0  0  0  0
    4.5858    2.0898   -0.7142 C   0  0  0  0  0  0  0  0  0  0  0  0
    3.6645    1.1730   -0.3016 C   0  0  0  0  0  0  0  0  0  0  0  0
    4.2106    3.5074   -0.8807 C   0  0  0  0  0  0  0  0  0  0  0  0
    2.8527    3.8789   -0.5901 N   0  0  0  0  0  0  0  0  0  0  0  0
    5.0098    4.4169   -1.2669 N   0  0  0  0  0  0  0  0  0  0  0  0
   -5.7440    0.7763   -1.1933 H   0  0  0  0  0  0  0  0  0  0  0  0
   -5.6506    0.1134    0.3475 H   0  0  0  0  0  0  0  0  0  0  0  0
   -3.6776    1.7526   -1.1403 H   0  0  0  0  0  0  0  0  0  0  0  0
   -3.7848    1.4112    1.8992 H   0  0  0  0  0  0  0  0  0  0  0  0
   -2.3743    1.9416    0.9455 H   0  0  0  0  0  0  0  0  0  0  0  0
   -2.4432    4.1221   -0.0765 H   0  0  0  0  0  0  0  0  0  0  0  0
   -3.4222    6.4337    0.0467 H   0  0  0  0  0  0  0  0  0  0  0  0
   -6.3273    7.4024    0.5421 H   0  0  0  0  0  0  0  0  0  0  0  0
   -6.7257    4.9542    2.2720 H   0  0  0  0  0  0  0  0  0  0  0  0
   -5.7840    2.6883    2.1615 H   0  0  0  0  0  0  0  0  0  0  0  0
   -1.3896    0.6026   -0.4732 H   0  0  0  0  0  0  0  0  0  0  0  0
   -2.0119   -2.2897   -0.3069 H   0  0  0  0  0  0  0  0  0  0  0  0
   -0.3967   -0.7906   -2.4303 H   0  0  0  0  0  0  0  0  0  0  0  0
   -1.8651   -1.7426   -2.4803 H   0  0  0  0  0  0  0  0  0  0  0  0
    1.7610   -1.8442   -2.8298 H   0  0  0  0  0  0  0  0  0  0  0  0
    2.8660   -3.8776   -3.7590 H   0  0  0  0  0  0  0  0  0  0  0  0
    1.6243   -5.9808   -3.9173 H   0  0  0  0  0  0  0  0  0  0  0  0
   -0.6852   -6.1104   -3.1849 H   0  0  0  0  0  0  0  0  0  0  0  0
   -1.8363   -4.1193   -2.2525 H   0  0  0  0  0  0  0  0  0  0  0  0
    2.1391   -1.5250    2.6053 H   0  0  0  0  0  0  0  0  0  0  0  0
    0.3749   -1.2636    3.1461 H   0  0  0  0  0  0  0  0  0  0  0  0
    0.0422   -3.6818    3.1054 H   0  0  0  0  0  0  0  0  0  0  0  0
    1.5309   -3.4295    4.1565 H   0  0  0  0  0  0  0  0  0  0  0  0
    2.9995   -3.8419    2.4503 H   0  0  0  0  0  0  0  0  0  0  0  0
    1.6915   -5.0068    1.9723 H   0  0  0  0  0  0  0  0  0  0  0  0
    1.4224   -3.8129    0.0046 H   0  0  0  0  0  0  0  0  0  0  0  0
    2.0668   -0.5569    0.5449 H   0  0  0  0  0  0  0  0  0  0  0  0
    5.5964   -1.5756   -0.3111 H   0  0  0  0  0  0  0  0  0  0  0  0
    7.2253    0.0861   -1.0516 H   0  0  0  0  0  0  0  0  0  0  0  0
    6.6508    2.4273   -1.3254 H   0  0  0  0  0  0  0  0  0  0  0  0
    2.6648    1.5499   -0.1059 H   0  0  0  0  0  0  0  0  0  0  0  0
    2.4227    3.5573    0.3097 H   0  0  0  0  0  0  0  0  0  0  0  0
    2.3414    4.4513   -1.2732 H   0  0  0  0  0  0  0  0  0  0  0  0
    6.0072    4.3053   -1.5143 H   0  0  0  0  0  0  0  0  0  0  0  0
  1  2  1  0
  2  3  1  0
  3  4  1  0
  4  5  2  0
  5  6  1  0
  6  7  2  0
  7  8  1  0
  7  9  1  0
  9 10  2  0
  2 11  1  0
 11 12  2  0
 11 13  1  0
 13 14  1  0
 14 15  1  0
 15 16  1  0
 16 17  2  0
 17 18  1  0
 18 19  2  0
 19 20  1  0
 20 21  2  0
 14 22  1  0
 22 23  2  0
 22 24  1  0
 24 25  1  0
 25 26  1  0
 26 27  1  0
 27 28  1  0
 28 29  1  0
 29 30  2  0
 29 31  1  0
 31 32  1  0
 32 33  2  0
 33 34  1  0
 34 35  2  0
 35 36  1  0
 36 37  2  0
 36 38  1  0
 38 39  1  0
 38 40  2  3
 10  4  1  0
 21 16  1  0
 28 24  1  0
 37 32  1  0
  1 41  1  0
  1 42  1  0
  2 43  1  6
  3 44  1  0
  3 45  1  0
  5 46  1  0
  6 47  1  0
  8 48  1  0
  9 49  1  0
 10 50  1  0
 13 51  1  0
 14 52  1  1
 15 53  1  0
 15 54  1  0
 17 55  1  0
 18 56  1  0
 19 57  1  0
 20 58  1  0
 21 59  1  0
 25 60  1  0
 25 61  1  0
 26 62  1  0
 26 63  1  0
 27 64  1  0
 27 65  1  0
 28 66  1  6
 31 67  1  0
 33 68  1  0
 34 69  1  0
 35 70  1  0
 37 71  1  0
 39 72  1  0
 39 73  1  0
 40 74  1  0
M  END
$$$$
[H]c1nc2nc(N([H])[H])nc(N([H])[H])c2c(C([H])([H])[H])c1C([H])([H])N(c1c([H])c(OC([H])([H])[H])c(OC([H])([H])[H])c(OC([H])([H])[H])c1[H])C([H])([H])[H]
     RDKit          3D

 52 54  0  0  0  0  0  0  0  0999 V2000
   -1.4286   -2.7686    1.6622 C   0  0  0  0  0  0  0  0  0  0  0  0
   -2.4324   -1.7996    1.8116 O   0  0  0  0  0  0  0  0  0  0  0  0
   -2.5117   -0.6585    1.0147 C   0  0  0  0  0  0  0  0  0  0  0  0
   -1.5859   -0.4037    0.0067 C   0  0  0  0  0  0  0  0  0  0  0  0
   -1.6655    0.7233   -0.7789 C   0  0  0  0  0  0  0  0  0  0  0  0
   -2.7066    1.5887   -0.5199 C   0  0  0  0  0  0  0  0  0  0  0  0
   -3.6364    1.3640    0.4693 C   0  0  0  0  0  0  0  0  0  0  0  0
   -4.6806    2.2250    0.7350 O   0  0  0  0  0  0  0  0  0  0  0  0
   -4.9924    3.4124    0.0899 C   0  0  0  0  0  0  0  0  0  0  0  0
   -3.5430    0.2154    1.2588 C   0  0  0  0  0  0  0  0  0  0  0  0
   -4.4818   -0.0273    2.2683 O   0  0  0  0  0  0  0  0  0  0  0  0
   -5.6767   -0.7526    1.9956 C   0  0  0  0  0  0  0  0  0  0  0  0
   -0.6873    0.9277   -1.7825 N   0  0  0  0  0  0  0  0  0  0  0  0
   -0.8494    2.0709   -2.6496 C   0  0  0  0  0  0  0  0  0  0  0  0
    0.4457    0.0682   -1.9389 C   0  0  0  0  0  0  0  0  0  0  0  0
    1.4924    0.2093   -0.9089 C   0  0  0  0  0  0  0  0  0  0  0  0
    1.4304    1.1149    0.1224 C   0  0  0  0  0  0  0  0  0  0  0  0
    2.3991    1.2287    1.0436 N   0  0  0  0  0  0  0  0  0  0  0  0
    3.4782    0.4344    0.9687 C   0  0  0  0  0  0  0  0  0  0  0  0
    4.4707    0.5187    1.8751 N   0  0  0  0  0  0  0  0  0  0  0  0
    5.5795   -0.2203    1.8914 C   0  0  0  0  0  0  0  0  0  0  0  0
    6.5896   -0.0662    2.8922 N   0  0  0  0  0  0  0  0  0  0  0  0
    5.7124   -1.1286    0.9132 N   0  0  0  0  0  0  0  0  0  0  0  0
    4.7512   -1.2780   -0.0458 C   0  0  0  0  0  0  0  0  0  0  0  0
    4.9784   -2.2576   -1.0261 N   0  0  0  0  0  0  0  0  0  0  0  0
    3.6196   -0.5176   -0.0554 C   0  0  0  0  0  0  0  0  0  0  0  0
    2.6121   -0.6326   -1.0098 C   0  0  0  0  0  0  0  0  0  0  0  0
    2.7611   -1.6089   -2.0857 C   0  0  0  0  0  0  0  0  0  0  0  0
   -1.4699   -3.1221    0.6020 H   0  0  0  0  0  0  0  0  0  0  0  0
   -1.6470   -3.6256    2.3251 H   0  0  0  0  0  0  0  0  0  0  0  0
   -0.4337   -2.3195    1.8555 H   0  0  0  0  0  0  0  0  0  0  0  0
   -0.7884   -1.1258   -0.1466 H   0  0  0  0  0  0  0  0  0  0  0  0
   -2.7545    2.4693   -1.1475 H   0  0  0  0  0  0  0  0  0  0  0  0
   -5.1524    4.2667    0.7941 H   0  0  0  0  0  0  0  0  0  0  0  0
   -4.2118    3.7495   -0.6124 H   0  0  0  0  0  0  0  0  0  0  0  0
   -5.9674    3.3289   -0.4683 H   0  0  0  0  0  0  0  0  0  0  0  0
   -6.5665   -0.2706    2.4527 H   0  0  0  0  0  0  0  0  0  0  0  0
   -5.8002   -0.8940    0.8859 H   0  0  0  0  0  0  0  0  0  0  0  0
   -5.6192   -1.7688    2.4331 H   0  0  0  0  0  0  0  0  0  0  0  0
   -1.8865    2.1434   -3.0617 H   0  0  0  0  0  0  0  0  0  0  0  0
   -0.5791    3.0189   -2.1347 H   0  0  0  0  0  0  0  0  0  0  0  0
   -0.1828    1.9369   -3.5246 H   0  0  0  0  0  0  0  0  0  0  0  0
    0.9017    0.2822   -2.9263 H   0  0  0  0  0  0  0  0  0  0  0  0
    0.0911   -1.0106   -2.0041 H   0  0  0  0  0  0  0  0  0  0  0  0
    0.5708    1.7667    0.1750 H   0  0  0  0  0  0  0  0  0  0  0  0
    7.5728    0.0867    2.5939 H   0  0  0  0  0  0  0  0  0  0  0  0
    6.3874   -0.0997    3.9104 H   0  0  0  0  0  0  0  0  0  0  0  0
    5.4920   -2.0591   -1.9131 H   0  0  0  0  0  0  0  0  0  0  0  0
    4.6398   -3.2310   -0.8641 H   0  0  0  0  0  0  0  0  0  0  0  0
    3.5138   -1.3660   -2.8671 H   0  0  0  0  0  0  0  0  0  0  0  0
    1.8244   -1.4734   -2.7355 H   0  0  0  0  0  0  0  0  0  0  0  0
    2.6235   -2.6645   -1.8389 H   0  0  0  0  0  0  0  0  0  0  0  0
  1  2  1  0
  2  3  1  0
  3  4  2  0
  4  5  1  0
  5  6  2  0
  6  7  1  0
  7  8  1  0
  8  9  1  0
  7 10  2  0
 10 11  1  0
 11 12  1  0
  5 13  1  0
 13 14  1  0
 13 15  1  0
 15 16  1  0
 16 17  2  0
 17 18  1  0
 18 19  2  0
 19 20  1  0
 20 21  2  0
 21 22  1  0
 21 23  1  0
 23 24  2  0
 24 25  1  0
 24 26  1  0
 26 27  2  0
 27 28  1  0
 10  3  1  0
 27 16  1  0
 26 19  1  0
  1 29  1  0
  1 30  1  0
  1 31  1  0
  4 32  1  0
  6 33  1  0
  9 34  1  0
  9 35  1  0
  9 36  1  0
 12 37  1  0
 12 38  1  0
 12 39  1  0
 14 40  1  0
 14 41  1  0
 14 42  1  0
 15 43  1  0
 15 44  1  0
 17 45  1  0
 22 46  1  0
 22 47  1  0
 25 48  1  0
 25 49  1  0
 28 50  1  0
 28 51  1  0
 28 52  1  0
M  END
$$$$
[H]c1c(OC([H])([H])[H])c(OC([H])([H])[H])c(OC([H])([H])C([H])([H])[H])c([H])c1C1=C(c2c([H])n([H])c3c([H])c([H])c([H])c([H])c23)C(=O)N([H])C1=O
     RDKit          3D

 49 52  0  0  0  0  0  0  0  0999 V2000
   -4.3704    3.4169   -1.3483 C   0  0  0  0  0  0  0  0  0  0  0  0
   -3.2993    2.5834   -0.7303 C   0  0  0  0  0  0  0  0  0  0  0  0
   -3.5075    1.1892   -0.9392 O   0  0  0  0  0  0  0  0  0  0  0  0
   -2.5557    0.3432   -0.3947 C   0  0  0  0  0  0  0  0  0  0  0  0
   -1.4489    0.7616    0.3183 C   0  0  0  0  0  0  0  0  0  0  0  0
   -0.5305   -0.1380    0.8388 C   0  0  0  0  0  0  0  0  0  0  0  0
   -0.7208   -1.4580    0.6463 C   0  0  0  0  0  0  0  0  0  0  0  0
   -1.8337   -1.9329   -0.0744 C   0  0  0  0  0  0  0  0  0  0  0  0
   -2.0362   -3.2766   -0.2770 O   0  0  0  0  0  0  0  0  0  0  0  0
   -1.1659   -4.2531    0.2100 C   0  0  0  0  0  0  0  0  0  0  0  0
   -2.7226   -1.0118   -0.5760 C   0  0  0  0  0  0  0  0  0  0  0  0
   -3.8307   -1.4985   -1.2945 O   0  0  0  0  0  0  0  0  0  0  0  0
   -5.0539   -1.8143   -0.6593 C   0  0  0  0  0  0  0  0  0  0  0  0
    0.5770    0.3872    1.6235 C   0  0  0  0  0  0  0  0  0  0  0  0
    1.8710    0.2942    1.4475 C   0  0  0  0  0  0  0  0  0  0  0  0
    2.4846    1.0368    2.5866 C   0  0  0  0  0  0  0  0  0  0  0  0
    3.7439    1.1245    2.6969 O   0  0  0  0  0  0  0  0  0  0  0  0
    1.4793    1.5557    3.4151 N   0  0  0  0  0  0  0  0  0  0  0  0
    0.2543    1.1704    2.8462 C   0  0  0  0  0  0  0  0  0  0  0  0
   -0.9227    1.4314    3.2790 O   0  0  0  0  0  0  0  0  0  0  0  0
    2.6428   -0.3699    0.4015 C   0  0  0  0  0  0  0  0  0  0  0  0
    2.7039   -1.6561   -0.0378 C   0  0  0  0  0  0  0  0  0  0  0  0
    3.5585   -1.7838   -1.0729 N   0  0  0  0  0  0  0  0  0  0  0  0
    4.0921   -0.5831   -1.3529 C   0  0  0  0  0  0  0  0  0  0  0  0
    5.0002   -0.2032   -2.3135 C   0  0  0  0  0  0  0  0  0  0  0  0
    5.3763    1.1190   -2.3856 C   0  0  0  0  0  0  0  0  0  0  0  0
    4.8310    2.0069   -1.4968 C   0  0  0  0  0  0  0  0  0  0  0  0
    3.9142    1.6286   -0.5251 C   0  0  0  0  0  0  0  0  0  0  0  0
    3.5339    0.3163   -0.4440 C   0  0  0  0  0  0  0  0  0  0  0  0
   -5.2110    2.7924   -1.7099 H   0  0  0  0  0  0  0  0  0  0  0  0
   -3.9929    4.0791   -2.1694 H   0  0  0  0  0  0  0  0  0  0  0  0
   -4.7789    4.0938   -0.5715 H   0  0  0  0  0  0  0  0  0  0  0  0
   -2.3239    2.8053   -1.2530 H   0  0  0  0  0  0  0  0  0  0  0  0
   -3.2081    2.7731    0.3483 H   0  0  0  0  0  0  0  0  0  0  0  0
   -1.3408    1.8424    0.4475 H   0  0  0  0  0  0  0  0  0  0  0  0
   -0.0651   -2.2080    1.0435 H   0  0  0  0  0  0  0  0  0  0  0  0
   -0.8277   -4.0888    1.2513 H   0  0  0  0  0  0  0  0  0  0  0  0
   -0.2804   -4.4041   -0.4615 H   0  0  0  0  0  0  0  0  0  0  0  0
   -1.6883   -5.2535    0.1998 H   0  0  0  0  0  0  0  0  0  0  0  0
   -5.5150   -2.7325   -1.0812 H   0  0  0  0  0  0  0  0  0  0  0  0
   -5.7521   -0.9586   -0.6970 H   0  0  0  0  0  0  0  0  0  0  0  0
   -4.8236   -2.0533    0.4083 H   0  0  0  0  0  0  0  0  0  0  0  0
    1.6471    2.1166    4.2805 H   0  0  0  0  0  0  0  0  0  0  0  0
    2.1736   -2.5019    0.3558 H   0  0  0  0  0  0  0  0  0  0  0  0
    3.7707   -2.6818   -1.5779 H   0  0  0  0  0  0  0  0  0  0  0  0
    5.4347   -0.8917   -3.0162 H   0  0  0  0  0  0  0  0  0  0  0  0
    6.0983    1.4756   -3.1333 H   0  0  0  0  0  0  0  0  0  0  0  0
    5.1269    3.0608   -1.5505 H   0  0  0  0  0  0  0  0  0  0  0  0
    3.4921    2.3490    0.1569 H   0  0  0  0  0  0  0  0  0  0  0  0
  1  2  1  0
  2  3  1  0
  3  4  1  0
  4  5  2  0
  5  6  1  0
  6  7  2  0
  7  8  1  0
  8  9  1  0
  9 10  1  0
  8 11  2  0
 11 12  1  0
 12 13  1  0
  6 14  1  0
 14 15  2  0
 15 16  1  0
 16 17  2  0
 16 18  1  0
 18 19  1  0
 19 20  2  0
 15 21  1  0
 21 22  2  0
 22 23  1  0
 23 24  1  0
 24 25  2  0
 25 26  1  0
 26 27  2  0
 27 28  1  0
 28 29  2  0
 11  4  1  0
 19 14  1  0
 29 21  1  0
 29 24  1  0
  1 30  1  0
  1 31  1  0
  1 32  1  0
  2 33  1  0
  2 34  1  0
  5 35  1  0
  7 36  1  0
 10 37  1  0
 10 38  1  0
 10 39  1  0
 13 40  1  0
 13 41  1  0
 13 42  1  0
 18 43  1  0
 22 44  1  0
 23 45  1  0
 25 46  1  0
 26 47  1  0
 27 48  1  0
 28 49  1  0
M  END
$$$$
[H]c1nc([H])c(C2([H])N([H])C([H])([H])C([H])([H])N(c3nc([H])c(-c4c([H])c([H])c(C([H])(C([H])([H])[H])C([H])([H])[H])c([H])c4[H])c([H])c3[H])C2([H])[H])c([H])c1[H]
     RDKit          3D

 53 56  0  0  0  0  0  0  0  0999 V2000
    7.4084    1.9200   -0.4979 C   0  0  0  0  0  0  0  0  0  0  0  0
    7.1082    0.4671   -0.2356 C   0  0  0  0  0  0  0  0  0  0  0  0
    7.6863    0.0903    1.1153 C   0  0  0  0  0  0  0  0  0  0  0  0
    5.6423    0.2675   -0.2152 C   0  0  0  0  0  0  0  0  0  0  0  0
    4.8588    0.9718    0.6617 C   0  0  0  0  0  0  0  0  0  0  0  0
    3.4961    0.7712    0.6636 C   0  0  0  0  0  0  0  0  0  0  0  0
    2.8961   -0.1230   -0.1969 C   0  0  0  0  0  0  0  0  0  0  0  0
    3.6886   -0.8231   -1.0710 C   0  0  0  0  0  0  0  0  0  0  0  0
    5.0707   -0.6412   -1.0958 C   0  0  0  0  0  0  0  0  0  0  0  0
    1.4545   -0.3133   -0.1720 C   0  0  0  0  0  0  0  0  0  0  0  0
    0.7990   -0.6442   -1.3350 C   0  0  0  0  0  0  0  0  0  0  0  0
   -0.5636   -0.8151   -1.2670 C   0  0  0  0  0  0  0  0  0  0  0  0
   -1.2258   -0.6548   -0.0642 C   0  0  0  0  0  0  0  0  0  0  0  0
   -0.5400   -0.3334    1.0337 N   0  0  0  0  0  0  0  0  0  0  0  0
    0.7826   -0.1546    1.0295 C   0  0  0  0  0  0  0  0  0  0  0  0
   -2.6309   -0.8245    0.0377 N   0  0  0  0  0  0  0  0  0  0  0  0
   -3.3116   -0.6558    1.2797 C   0  0  0  0  0  0  0  0  0  0  0  0
   -4.5392   -1.4772    1.4641 C   0  0  0  0  0  0  0  0  0  0  0  0
   -5.2179   -1.8908    0.2878 N   0  0  0  0  0  0  0  0  0  0  0  0
   -4.8422   -1.2201   -0.9305 C   0  0  0  0  0  0  0  0  0  0  0  0
   -3.3712   -1.1775   -1.1578 C   0  0  0  0  0  0  0  0  0  0  0  0
   -5.5146    0.0890   -0.9979 C   0  0  0  0  0  0  0  0  0  0  0  0
   -6.8774    0.1675   -0.6883 C   0  0  0  0  0  0  0  0  0  0  0  0
   -7.5245    1.3699   -0.7418 C   0  0  0  0  0  0  0  0  0  0  0  0
   -6.8863    2.5256   -1.0918 C   0  0  0  0  0  0  0  0  0  0  0  0
   -5.5736    2.4482   -1.3897 N   0  0  0  0  0  0  0  0  0  0  0  0
   -4.9142    1.2626   -1.3420 C   0  0  0  0  0  0  0  0  0  0  0  0
    6.9145    2.5162    0.2860 H   0  0  0  0  0  0  0  0  0  0  0  0
    8.4999    2.0565   -0.3592 H   0  0  0  0  0  0  0  0  0  0  0  0
    7.0771    2.1806   -1.5260 H   0  0  0  0  0  0  0  0  0  0  0  0
    7.5750   -0.1770   -0.9952 H   0  0  0  0  0  0  0  0  0  0  0  0
    7.3722    0.8478    1.8823 H   0  0  0  0  0  0  0  0  0  0  0  0
    7.3682   -0.9200    1.4188 H   0  0  0  0  0  0  0  0  0  0  0  0
    8.7882    0.1317    1.0721 H   0  0  0  0  0  0  0  0  0  0  0  0
    5.3033    1.6758    1.3438 H   0  0  0  0  0  0  0  0  0  0  0  0
    2.8984    1.3232    1.3484 H   0  0  0  0  0  0  0  0  0  0  0  0
    3.2752   -1.5290   -1.7597 H   0  0  0  0  0  0  0  0  0  0  0  0
    5.7232   -1.1657   -1.7601 H   0  0  0  0  0  0  0  0  0  0  0  0
    1.2978   -0.7760   -2.2941 H   0  0  0  0  0  0  0  0  0  0  0  0
   -1.1350   -1.0735   -2.1365 H   0  0  0  0  0  0  0  0  0  0  0  0
    1.3601    0.1056    1.9048 H   0  0  0  0  0  0  0  0  0  0  0  0
   -2.5633   -0.8041    2.1065 H   0  0  0  0  0  0  0  0  0  0  0  0
   -3.6139    0.4246    1.3969 H   0  0  0  0  0  0  0  0  0  0  0  0
   -4.2156   -2.4188    2.0004 H   0  0  0  0  0  0  0  0  0  0  0  0
   -5.2607   -1.0050    2.1683 H   0  0  0  0  0  0  0  0  0  0  0  0
   -5.3550   -2.9134    0.1850 H   0  0  0  0  0  0  0  0  0  0  0  0
   -5.2818   -1.8406   -1.7672 H   0  0  0  0  0  0  0  0  0  0  0  0
   -2.9672   -2.1881   -1.4622 H   0  0  0  0  0  0  0  0  0  0  0  0
   -3.1550   -0.5329   -2.0286 H   0  0  0  0  0  0  0  0  0  0  0  0
   -7.4205   -0.7435   -0.4028 H   0  0  0  0  0  0  0  0  0  0  0  0
   -8.5875    1.4305   -0.5002 H   0  0  0  0  0  0  0  0  0  0  0  0
   -7.3753    3.5015   -1.1437 H   0  0  0  0  0  0  0  0  0  0  0  0
   -3.8809    1.2917   -1.5900 H   0  0  0  0  0  0  0  0  0  0  0  0
  1  2  1  0
  2  3  1  0
  2  4  1  0
  4  5  2  0
  5  6  1  0
  6  7  2  0
  7  8  1  0
  8  9  2  0
  7 10  1  0
 10 11  2  0
 11 12  1  0
 12 13  2  0
 13 14  1  0
 14 15  2  0
 13 16  1  0
 16 17  1  0
 17 18  1  0
 18 19  1  0
 19 20  1  0
 20 21  1  0
 20 22  1  0
 22 23  2  0
 23 24  1  0
 24 25  2  0
 25 26  1  0
 26 27  2  0
  9  4  1  0
 15 10  1  0
 21 16  1  0
 27 22  1  0
  1 28  1  0
  1 29  1  0
  1 30  1  0
  2 31  1  0
  3 32  1  0
  3 33  1  0
  3 34  1  0
  5 35  1  0
  6 36  1  0
  8 37  1  0
  9 38  1  0
 11 39  1  0
 12 40  1  0
 15 41  1  0
 17 42  1  0
 17 43  1  0
 18 44  1  0
 18 45  1  0
 19 46  1  0
 20 47  1  0
 21 48  1  0
 21 49  1  0
 23 50  1  0
 24 51  1  0
 25 52  1  0
 27 53  1  0
M  END
$$$$
[H]c1nc(Cl)c(F)c([H])c1N1C([H])([H])C2([H])C([H])([H])N([H])C([H])([H])C([H])(C1([H])[H])C2([H])[H]
     RDKit          3D

 32 34  0  0  0  0  0  0  0  0999 V2000
    4.6239   -1.1442    1.9596 F   0  0  0  0  0  0  0  0  0  0  0  0
    3.9477   -0.5743    0.9332 C   0  0  0  0  0  0  0  0  0  0  0  0
    2.5772   -0.7200    0.8569 C   0  0  0  0  0  0  0  0  0  0  0  0
    1.8411   -0.1547   -0.1755 C   0  0  0  0  0  0  0  0  0  0  0  0
    2.5853    0.5572   -1.1088 C   0  0  0  0  0  0  0  0  0  0  0  0
    3.9210    0.6883   -1.0177 N   0  0  0  0  0  0  0  0  0  0  0  0
    4.6405    0.1432   -0.0201 C   0  0  0  0  0  0  0  0  0  0  0  0
    6.3868    0.3406    0.0590 Cl  0  0  0  0  0  0  0  0  0  0  0  0
    0.4245   -0.2939   -0.2719 N   0  0  0  0  0  0  0  0  0  0  0  0
   -0.2368   -1.0537    0.7534 C   0  0  0  0  0  0  0  0  0  0  0  0
   -1.7212   -0.9828    0.7226 C   0  0  0  0  0  0  0  0  0  0  0  0
   -2.1890    0.2073    1.4911 C   0  0  0  0  0  0  0  0  0  0  0  0
   -2.7490    1.2535    0.7294 N   0  0  0  0  0  0  0  0  0  0  0  0
   -2.1865    1.5264   -0.5342 C   0  0  0  0  0  0  0  0  0  0  0  0
   -1.7150    0.3448   -1.3115 C   0  0  0  0  0  0  0  0  0  0  0  0
   -2.2893   -0.9003   -0.6723 C   0  0  0  0  0  0  0  0  0  0  0  0
   -0.2278    0.3368   -1.3867 C   0  0  0  0  0  0  0  0  0  0  0  0
    2.0180   -1.2891    1.6109 H   0  0  0  0  0  0  0  0  0  0  0  0
    2.0276    1.0144   -1.9356 H   0  0  0  0  0  0  0  0  0  0  0  0
    0.0979   -0.6117    1.7368 H   0  0  0  0  0  0  0  0  0  0  0  0
    0.1551   -2.1015    0.6952 H   0  0  0  0  0  0  0  0  0  0  0  0
   -2.1091   -1.9517    1.1553 H   0  0  0  0  0  0  0  0  0  0  0  0
   -2.9816   -0.1588    2.2084 H   0  0  0  0  0  0  0  0  0  0  0  0
   -1.3742    0.5818    2.1768 H   0  0  0  0  0  0  0  0  0  0  0  0
   -3.7383    1.4648    0.8656 H   0  0  0  0  0  0  0  0  0  0  0  0
   -2.9791    2.0370   -1.1589 H   0  0  0  0  0  0  0  0  0  0  0  0
   -1.3730    2.3053   -0.4577 H   0  0  0  0  0  0  0  0  0  0  0  0
   -2.1004    0.3468   -2.3703 H   0  0  0  0  0  0  0  0  0  0  0  0
   -3.3900   -0.7242   -0.5579 H   0  0  0  0  0  0  0  0  0  0  0  0
   -2.1583   -1.8029   -1.2656 H   0  0  0  0  0  0  0  0  0  0  0  0
    0.1649   -0.1004   -2.3317 H   0  0  0  0  0  0  0  0  0  0  0  0
    0.1071    1.4157   -1.3778 H   0  0  0  0  0  0  0  0  0  0  0  0
  1  2  1  0
  2  3  2  0
  3  4  1  0
  4  5  2  0
  5  6  1  0
  6  7  2  0
  7  8  1  0
  4  9  1  0
  9 10  1  0
 10 11  1  0
 11 12  1  0
 12 13  1  0
 13 14  1  0
 14 15  1  0
 15 16  1  0
 15 17  1  0
  7  2  1  0
 17  9  1  0
 16 11  1  0
  3 18  1  0
  5 19  1  0
 10 20  1  0
 10 21  1  0
 11 22  1  0
 12 23  1  0
 12 24  1  0
 13 25  1  0
 14 26  1  0
 14 27  1  0
 15 28  1  0
 16 29  1  0
 16 30  1  0
 17 31  1  0
 17 32  1  0
M  END
$$$$
[H]Oc1c([H])c(N2C([H])([H])C([H])([H])OC([H])([H])C2([H])[H])c([H])c(C(F)(F)P(=O)(O[H])O[H])c1C([H])([H])N([H])C(=O)c1c([H])c([H])c(-c2c([H])c([H])c([H])c([H])c2[H])c([H])c1[H]
     RDKit          3D

 61 64  0  0  0  0  0  0  0  0999 V2000
   -4.2400   -3.1403   -3.2764 O   0  0  0  0  0  0  0  0  0  0  0  0
   -2.7711   -2.3538   -2.8882 P   0  0  0  0  0  0  0  0  0  0  0  0
   -2.1801   -3.0586   -1.4913 O   0  0  0  0  0  0  0  0  0  0  0  0
   -1.8210   -2.6303   -4.0235 O   0  0  0  0  0  0  0  0  0  0  0  0
   -3.0333   -0.5639   -2.7627 C   0  0  0  0  0  0  0  0  0  0  0  0
   -4.3288   -0.3360   -3.1988 F   0  0  0  0  0  0  0  0  0  0  0  0
   -2.2564    0.0263   -3.7177 F   0  0  0  0  0  0  0  0  0  0  0  0
   -2.8919   -0.0895   -1.4130 C   0  0  0  0  0  0  0  0  0  0  0  0
   -4.0696    0.2003   -0.7364 C   0  0  0  0  0  0  0  0  0  0  0  0
   -4.1501    0.5711    0.5769 C   0  0  0  0  0  0  0  0  0  0  0  0
   -3.0034    0.6701    1.2932 C   0  0  0  0  0  0  0  0  0  0  0  0
   -1.7921    0.3936    0.6674 C   0  0  0  0  0  0  0  0  0  0  0  0
   -0.6642    0.5165    1.4637 O   0  0  0  0  0  0  0  0  0  0  0  0
   -1.7013    0.0193   -0.6616 C   0  0  0  0  0  0  0  0  0  0  0  0
   -0.4894   -0.1834   -1.3951 C   0  0  0  0  0  0  0  0  0  0  0  0
    0.7900   -0.1344   -0.7876 N   0  0  0  0  0  0  0  0  0  0  0  0
    1.9606   -0.3245   -1.5838 C   0  0  0  0  0  0  0  0  0  0  0  0
    1.8049   -0.5302   -2.8070 O   0  0  0  0  0  0  0  0  0  0  0  0
    3.3102   -0.2907   -1.0458 C   0  0  0  0  0  0  0  0  0  0  0  0
    4.3868   -0.4657   -1.9039 C   0  0  0  0  0  0  0  0  0  0  0  0
    5.6858   -0.4453   -1.4616 C   0  0  0  0  0  0  0  0  0  0  0  0
    5.9516   -0.2466   -0.1307 C   0  0  0  0  0  0  0  0  0  0  0  0
    4.8918   -0.0718    0.7303 C   0  0  0  0  0  0  0  0  0  0  0  0
    3.5797   -0.0920    0.2865 C   0  0  0  0  0  0  0  0  0  0  0  0
    7.3029   -0.2180    0.3793 C   0  0  0  0  0  0  0  0  0  0  0  0
    7.6143    0.5523    1.4535 C   0  0  0  0  0  0  0  0  0  0  0  0
    8.9005    0.5777    1.9366 C   0  0  0  0  0  0  0  0  0  0  0  0
    9.8944   -0.1787    1.3377 C   0  0  0  0  0  0  0  0  0  0  0  0
    9.5825   -0.9706    0.2361 C   0  0  0  0  0  0  0  0  0  0  0  0
    8.2744   -0.9733   -0.2262 C   0  0  0  0  0  0  0  0  0  0  0  0
   -5.3867    0.8479    1.2184 N   0  0  0  0  0  0  0  0  0  0  0  0
   -6.6662    0.5617    0.6300 C   0  0  0  0  0  0  0  0  0  0  0  0
   -7.3108    1.9038    0.3324 C   0  0  0  0  0  0  0  0  0  0  0  0
   -7.0579    2.8106    1.3620 O   0  0  0  0  0  0  0  0  0  0  0  0
   -6.7912    2.1780    2.5803 C   0  0  0  0  0  0  0  0  0  0  0  0
   -5.4477    1.4695    2.5500 C   0  0  0  0  0  0  0  0  0  0  0  0
   -4.8635   -3.0232   -2.4941 H   0  0  0  0  0  0  0  0  0  0  0  0
   -2.4918   -3.9942   -1.4496 H   0  0  0  0  0  0  0  0  0  0  0  0
   -5.0379    0.1467   -1.2522 H   0  0  0  0  0  0  0  0  0  0  0  0
   -3.0290    0.9561    2.3270 H   0  0  0  0  0  0  0  0  0  0  0  0
   -0.7431    0.7870    2.4185 H   0  0  0  0  0  0  0  0  0  0  0  0
   -0.5359   -0.9366   -2.2218 H   0  0  0  0  0  0  0  0  0  0  0  0
   -0.4306    0.7626   -2.0952 H   0  0  0  0  0  0  0  0  0  0  0  0
    0.9573    0.0238    0.1987 H   0  0  0  0  0  0  0  0  0  0  0  0
    4.1819   -0.6222   -2.9516 H   0  0  0  0  0  0  0  0  0  0  0  0
    6.5163   -0.5822   -2.1357 H   0  0  0  0  0  0  0  0  0  0  0  0
    5.0873    0.0853    1.7791 H   0  0  0  0  0  0  0  0  0  0  0  0
    2.7922    0.0486    0.9945 H   0  0  0  0  0  0  0  0  0  0  0  0
    6.8659    1.1519    1.9422 H   0  0  0  0  0  0  0  0  0  0  0  0
    9.1301    1.1941    2.7895 H   0  0  0  0  0  0  0  0  0  0  0  0
   10.9126   -0.1536    1.7264 H   0  0  0  0  0  0  0  0  0  0  0  0
   10.3247   -1.5714   -0.2561 H   0  0  0  0  0  0  0  0  0  0  0  0
    8.0533   -1.6027   -1.0922 H   0  0  0  0  0  0  0  0  0  0  0  0
   -7.2761    0.0910    1.4400 H   0  0  0  0  0  0  0  0  0  0  0  0
   -6.6809   -0.1345   -0.1980 H   0  0  0  0  0  0  0  0  0  0  0  0
   -8.3930    1.8052    0.1085 H   0  0  0  0  0  0  0  0  0  0  0  0
   -6.8278    2.3011   -0.5834 H   0  0  0  0  0  0  0  0  0  0  0  0
   -6.7153    2.9839    3.3355 H   0  0  0  0  0  0  0  0  0  0  0  0
   -7.5949    1.4872    2.8899 H   0  0  0  0  0  0  0  0  0  0  0  0
   -5.4659    0.6429    3.2858 H   0  0  0  0  0  0  0  0  0  0  0  0
   -4.6133    2.1518    2.7381 H   0  0  0  0  0  0  0  0  0  0  0  0
  1  2  1  0
  2  3  1  0
  2  4  2  0
  2  5  1  0
  5  6  1  0
  5  7  1  0
  5  8  1  0
  8  9  2  0
  9 10  1  0
 10 11  2  0
 11 12  1  0
 12 13  1  0
 12 14  2  0
 14 15  1  0
 15 16  1  0
 16 17  1  0
 17 18  2  0
 17 19  1  0
 19 20  2  0
 20 21  1  0
 21 22  2  0
 22 23  1  0
 23 24  2  0
 22 25  1  0
 25 26  2  0
 26 27  1  0
 27 28  2  0
 28 29  1  0
 29 30  2  0
 10 31  1  0
 31 32  1  0
 32 33  1  0
 33 34  1  0
 34 35  1  0
 35 36  1  0
 14  8  1  0
 24 19  1  0
 30 25  1  0
 36 31  1  0
  1 37  1  0
  3 38  1  0
  9 39  1  0
 11 40  1  0
 13 41  1  0
 15 42  1  0
 15 43  1  0
 16 44  1  0
 20 45  1  0
 21 46  1  0
 23 47  1  0
 24 48  1  0
 26 49  1  0
 27 50  1  0
 28 51  1  0
 29 52  1  0
 30 53  1  0
 32 54  1  0
 32 55  1  0
 33 56  1  0
 33 57  1  0
 35 58  1  0
 35 59  1  0
 36 60  1  0
 36 61  1  0
M  END
$$$$
[H]c1c([H])c([H])c(C([H])([H])Oc2c([H])c([H])c(-c3c(C(=O)N([H])[H])c([H])c4nc(N([H])C([H])([H])[H])nc([H])c4c3[H])c([H])c2[H])c([H])c1[H]
     RDKit          3D

 49 52  0  0  0  0  0  0  0  0999 V2000
    7.9466    0.7991    1.4480 C   0  0  0  0  0  0  0  0  0  0  0  0
    7.1493   -0.1232    2.2177 N   0  0  0  0  0  0  0  0  0  0  0  0
    5.8100   -0.3779    1.8548 C   0  0  0  0  0  0  0  0  0  0  0  0
    5.0127   -1.2282    2.5325 N   0  0  0  0  0  0  0  0  0  0  0  0
    3.7442   -1.4321    2.1410 C   0  0  0  0  0  0  0  0  0  0  0  0
    3.2019   -0.7960    1.0484 C   0  0  0  0  0  0  0  0  0  0  0  0
    1.9079   -0.9757    0.6148 C   0  0  0  0  0  0  0  0  0  0  0  0
    1.4047   -0.2996   -0.5081 C   0  0  0  0  0  0  0  0  0  0  0  0
    0.0090   -0.5015   -0.8352 C   0  0  0  0  0  0  0  0  0  0  0  0
   -0.9609    0.4896   -0.7658 C   0  0  0  0  0  0  0  0  0  0  0  0
   -2.2885    0.2868   -1.0749 C   0  0  0  0  0  0  0  0  0  0  0  0
   -2.7269   -0.9457   -1.4791 C   0  0  0  0  0  0  0  0  0  0  0  0
   -4.0065   -1.2772   -1.8110 O   0  0  0  0  0  0  0  0  0  0  0  0
   -5.1467   -0.4892   -1.8169 C   0  0  0  0  0  0  0  0  0  0  0  0
   -5.4685    0.0365   -0.4887 C   0  0  0  0  0  0  0  0  0  0  0  0
   -6.2354    1.1474   -0.3070 C   0  0  0  0  0  0  0  0  0  0  0  0
   -6.5370    1.6226    0.9679 C   0  0  0  0  0  0  0  0  0  0  0  0
   -6.0495    0.9558    2.0842 C   0  0  0  0  0  0  0  0  0  0  0  0
   -5.2684   -0.1752    1.9155 C   0  0  0  0  0  0  0  0  0  0  0  0
   -4.9853   -0.6238    0.6426 C   0  0  0  0  0  0  0  0  0  0  0  0
   -1.7745   -1.9533   -1.5565 C   0  0  0  0  0  0  0  0  0  0  0  0
   -0.4499   -1.7603   -1.2505 C   0  0  0  0  0  0  0  0  0  0  0  0
    2.2023    0.5548   -1.1966 C   0  0  0  0  0  0  0  0  0  0  0  0
    3.5237    0.7268   -0.7362 C   0  0  0  0  0  0  0  0  0  0  0  0
    4.0260    0.0736    0.3598 C   0  0  0  0  0  0  0  0  0  0  0  0
    5.2900    0.2458    0.7896 N   0  0  0  0  0  0  0  0  0  0  0  0
    1.8567    1.2559   -2.4063 C   0  0  0  0  0  0  0  0  0  0  0  0
    0.7283    1.0277   -3.2261 N   0  0  0  0  0  0  0  0  0  0  0  0
    2.6248    2.1917   -2.8281 O   0  0  0  0  0  0  0  0  0  0  0  0
    9.0061    0.5852    1.6446 H   0  0  0  0  0  0  0  0  0  0  0  0
    7.6622    0.7601    0.3949 H   0  0  0  0  0  0  0  0  0  0  0  0
    7.7830    1.8632    1.7791 H   0  0  0  0  0  0  0  0  0  0  0  0
    7.5409   -0.6106    3.0425 H   0  0  0  0  0  0  0  0  0  0  0  0
    3.1364   -2.1163    2.7035 H   0  0  0  0  0  0  0  0  0  0  0  0
    1.2777   -1.6456    1.1488 H   0  0  0  0  0  0  0  0  0  0  0  0
   -0.5863    1.4704   -0.4391 H   0  0  0  0  0  0  0  0  0  0  0  0
   -2.9822    1.0959   -1.0051 H   0  0  0  0  0  0  0  0  0  0  0  0
   -5.9982   -1.1607   -2.1170 H   0  0  0  0  0  0  0  0  0  0  0  0
   -5.0790    0.3026   -2.5900 H   0  0  0  0  0  0  0  0  0  0  0  0
   -6.6117    1.6618   -1.1791 H   0  0  0  0  0  0  0  0  0  0  0  0
   -7.1497    2.5080    1.0426 H   0  0  0  0  0  0  0  0  0  0  0  0
   -6.2706    1.3057    3.0643 H   0  0  0  0  0  0  0  0  0  0  0  0
   -4.8929   -0.6878    2.8080 H   0  0  0  0  0  0  0  0  0  0  0  0
   -4.3724   -1.5098    0.5562 H   0  0  0  0  0  0  0  0  0  0  0  0
   -2.0821   -2.9576   -1.8765 H   0  0  0  0  0  0  0  0  0  0  0  0
    0.3071   -2.5339   -1.3050 H   0  0  0  0  0  0  0  0  0  0  0  0
    4.1802    1.3893   -1.2477 H   0  0  0  0  0  0  0  0  0  0  0  0
    0.0247    1.7539   -3.4844 H   0  0  0  0  0  0  0  0  0  0  0  0
    0.5672    0.0708   -3.6123 H   0  0  0  0  0  0  0  0  0  0  0  0
  1  2  1  0
  2  3  1  0
  3  4  2  0
  4  5  1  0
  5  6  2  0
  6  7  1  0
  7  8  2  0
  8  9  1  0
  9 10  2  0
 10 11  1  0
 11 12  2  0
 12 13  1  0
 13 14  1  0
 14 15  1  0
 15 16  2  0
 16 17  1  0
 17 18  2  0
 18 19  1  0
 19 20  2  0
 12 21  1  0
 21 22  2  0
  8 23  1  0
 23 24  2  0
 24 25  1  0
 25 26  2  0
 23 27  1  0
 27 28  1  0
 27 29  2  0
 26  3  1  0
 25  6  1  0
 22  9  1  0
 20 15  1  0
  1 30  1  0
  1 31  1  0
  1 32  1  0
  2 33  1  0
  5 34  1  0
  7 35  1  0
 10 36  1  0
 11 37  1  0
 14 38  1  0
 14 39  1  0
 16 40  1  0
 17 41  1  0
 18 42  1  0
 19 43  1  0
 20 44  1  0
 21 45  1  0
 22 46  1  0
 24 47  1  0
 28 48  1  0
 28 49  1  0
M  END
$$$$
[H]OC(=O)[C@@](c1c([H])c([H])c(OC([H])([H])[H])c([H])c1[H])(c1c([H])c([H])c2c(c1[H])Oc1c([H])c(OC(F)(F)F)c([H])c([H])c1N2C([H])([H])c1c(F)c([H])c([H])c([H])c1F)C([H])([H])[H]
     RDKit          3D

 63 67  0  0  0  0  0  0  0  0999 V2000
    7.5057   -1.4757   -2.3833 C   0  0  0  0  0  0  0  0  0  0  0  0
    7.4059   -1.3014   -0.9735 O   0  0  0  0  0  0  0  0  0  0  0  0
    6.3011   -0.6539   -0.4263 C   0  0  0  0  0  0  0  0  0  0  0  0
    5.3092   -0.1853   -1.2606 C   0  0  0  0  0  0  0  0  0  0  0  0
    4.1991    0.4600   -0.7743 C   0  0  0  0  0  0  0  0  0  0  0  0
    4.0749    0.6429    0.5825 C   0  0  0  0  0  0  0  0  0  0  0  0
    5.0681    0.1727    1.4020 C   0  0  0  0  0  0  0  0  0  0  0  0
    6.2013   -0.4837    0.9339 C   0  0  0  0  0  0  0  0  0  0  0  0
    2.9226    1.3326    1.1930 C   0  0  2  0  0  0  0  0  0  0  0  0
    3.0724    2.8118    0.8592 C   0  0  0  0  0  0  0  0  0  0  0  0
    2.9196    1.1649    2.6611 C   0  0  0  0  0  0  0  0  0  0  0  0
    2.7737   -0.1091    3.1874 O   0  0  0  0  0  0  0  0  0  0  0  0
    3.0473    2.1743    3.4361 O   0  0  0  0  0  0  0  0  0  0  0  0
    1.6266    0.8044    0.6941 C   0  0  0  0  0  0  0  0  0  0  0  0
    1.2739   -0.5043    0.7446 C   0  0  0  0  0  0  0  0  0  0  0  0
    0.0694   -0.9977    0.2872 C   0  0  0  0  0  0  0  0  0  0  0  0
   -0.8493   -0.1261   -0.2601 C   0  0  0  0  0  0  0  0  0  0  0  0
   -2.1110   -0.6352   -0.7437 N   0  0  0  0  0  0  0  0  0  0  0  0
   -2.4719   -1.9992   -0.6785 C   0  0  0  0  0  0  0  0  0  0  0  0
   -3.0555   -2.4888    0.5890 C   0  0  0  0  0  0  0  0  0  0  0  0
   -3.3265   -3.8669    0.5953 C   0  0  0  0  0  0  0  0  0  0  0  0
   -3.0331   -4.6477   -0.4892 F   0  0  0  0  0  0  0  0  0  0  0  0
   -3.8923   -4.5144    1.6653 C   0  0  0  0  0  0  0  0  0  0  0  0
   -4.2038   -3.7717    2.7755 C   0  0  0  0  0  0  0  0  0  0  0  0
   -3.9437   -2.4253    2.7797 C   0  0  0  0  0  0  0  0  0  0  0  0
   -3.3661   -1.7630    1.6863 C   0  0  0  0  0  0  0  0  0  0  0  0
   -3.1582   -0.4299    1.7314 F   0  0  0  0  0  0  0  0  0  0  0  0
   -3.0304    0.3241   -1.3062 C   0  0  0  0  0  0  0  0  0  0  0  0
   -4.2591   -0.0670   -1.7894 C   0  0  0  0  0  0  0  0  0  0  0  0
   -5.1036    0.9114   -2.3196 C   0  0  0  0  0  0  0  0  0  0  0  0
   -4.7215    2.2312   -2.3590 C   0  0  0  0  0  0  0  0  0  0  0  0
   -5.5873    3.1620   -2.8914 O   0  0  0  0  0  0  0  0  0  0  0  0
   -6.5542    3.8739   -2.1813 C   0  0  0  0  0  0  0  0  0  0  0  0
   -7.2088    4.7033   -3.0843 F   0  0  0  0  0  0  0  0  0  0  0  0
   -7.5123    3.0852   -1.6026 F   0  0  0  0  0  0  0  0  0  0  0  0
   -6.0219    4.6970   -1.2113 F   0  0  0  0  0  0  0  0  0  0  0  0
   -3.5028    2.6359   -1.8816 C   0  0  0  0  0  0  0  0  0  0  0  0
   -2.6474    1.6672   -1.3481 C   0  0  0  0  0  0  0  0  0  0  0  0
   -1.4194    2.1001   -0.8687 O   0  0  0  0  0  0  0  0  0  0  0  0
   -0.5180    1.2068   -0.3242 C   0  0  0  0  0  0  0  0  0  0  0  0
    0.7178    1.6818    0.1505 C   0  0  0  0  0  0  0  0  0  0  0  0
    6.7251   -2.1405   -2.7762 H   0  0  0  0  0  0  0  0  0  0  0  0
    7.3931   -0.4912   -2.9118 H   0  0  0  0  0  0  0  0  0  0  0  0
    8.4796   -1.9149   -2.6552 H   0  0  0  0  0  0  0  0  0  0  0  0
    5.3922   -0.3232   -2.3572 H   0  0  0  0  0  0  0  0  0  0  0  0
    3.4076    0.8353   -1.4295 H   0  0  0  0  0  0  0  0  0  0  0  0
    5.0484    0.2855    2.4980 H   0  0  0  0  0  0  0  0  0  0  0  0
    6.9776   -0.8474    1.6240 H   0  0  0  0  0  0  0  0  0  0  0  0
    4.1041    3.1575    1.1005 H   0  0  0  0  0  0  0  0  0  0  0  0
    2.3415    3.4436    1.4020 H   0  0  0  0  0  0  0  0  0  0  0  0
    2.9122    2.9300   -0.2379 H   0  0  0  0  0  0  0  0  0  0  0  0
    2.9388   -0.2407    4.1945 H   0  0  0  0  0  0  0  0  0  0  0  0
    1.9680   -1.2200    1.1635 H   0  0  0  0  0  0  0  0  0  0  0  0
   -0.1375   -2.0822    0.3756 H   0  0  0  0  0  0  0  0  0  0  0  0
   -3.1489   -2.2734   -1.5424 H   0  0  0  0  0  0  0  0  0  0  0  0
   -1.5445   -2.6708   -0.7934 H   0  0  0  0  0  0  0  0  0  0  0  0
   -4.0951   -5.5869    1.6503 H   0  0  0  0  0  0  0  0  0  0  0  0
   -4.6494   -4.2854    3.6172 H   0  0  0  0  0  0  0  0  0  0  0  0
   -4.1920   -1.8517    3.6567 H   0  0  0  0  0  0  0  0  0  0  0  0
   -4.5832   -1.0971   -1.7590 H   0  0  0  0  0  0  0  0  0  0  0  0
   -6.0591    0.5524   -2.6874 H   0  0  0  0  0  0  0  0  0  0  0  0
   -3.1820    3.6844   -1.9050 H   0  0  0  0  0  0  0  0  0  0  0  0
    0.9131    2.7398    0.0704 H   0  0  0  0  0  0  0  0  0  0  0  0
  1  2  1  0
  2  3  1  0
  3  4  2  0
  4  5  1  0
  5  6  2  0
  6  7  1  0
  7  8  2  0
  6  9  1  0
  9 10  1  0
  9 11  1  1
 11 12  1  0
 11 13  2  0
  9 14  1  0
 14 15  2  0
 15 16  1  0
 16 17  2  0
 17 18  1  0
 18 19  1  0
 19 20  1  0
 20 21  2  0
 21 22  1  0
 21 23  1  0
 23 24  2  0
 24 25  1  0
 25 26  2  0
 26 27  1  0
 18 28  1  0
 28 29  2  0
 29 30  1  0
 30 31  2  0
 31 32  1  0
 32 33  1  0
 33 34  1  0
 33 35  1  0
 33 36  1  0
 31 37  1  0
 37 38  2  0
 38 39  1  0
 39 40  1  0
 40 41  2  0
  8  3  1  0
 41 14  1  0
 40 17  1  0
 26 20  1  0
 38 28  1  0
  1 42  1  0
  1 43  1  0
  1 44  1  0
  4 45  1  0
  5 46  1  0
  7 47  1  0
  8 48  1  0
 10 49  1  0
 10 50  1  0
 10 51  1  0
 12 52  1  0
 15 53  1  0
 16 54  1  0
 19 55  1  0
 19 56  1  0
 23 57  1  0
 24 58  1  0
 25 59  1  0
 29 60  1  0
 30 61  1  0
 37 62  1  0
 41 63  1  0
M  END
$$$$
[H]c1nc(N2C([H])([H])C([H])([H])c3nc(N4C([H])([H])C([H])([H])N([H])C([H])([H])C4([H])[H])nc(N([H])c4c([H])c(S(=O)(=O)N([H])C([H])([H])[H])c([H])c([H])c4Cl)c3C([H])([H])C2([H])[H])c(C(F)(F)F)c([H])c1[H]
     RDKit          3D

 68 72  0  0  0  0  0  0  0  0999 V2000
    5.9176    1.5186   -1.2590 C   0  0  0  0  0  0  0  0  0  0  0  0
    6.7887    1.2358   -0.1430 N   0  0  0  0  0  0  0  0  0  0  0  0
    5.8903    0.9058    1.3076 S   0  0  0  0  0  0  0  0  0  0  0  0
    5.0952    2.0747    1.7395 O   0  0  0  0  0  0  0  0  0  0  0  0
    6.9150    0.5823    2.3731 O   0  0  0  0  0  0  0  0  0  0  0  0
    4.8814   -0.5072    1.0825 C   0  0  0  0  0  0  0  0  0  0  0  0
    5.3798   -1.7516    1.3624 C   0  0  0  0  0  0  0  0  0  0  0  0
    4.6041   -2.8709    1.1884 C   0  0  0  0  0  0  0  0  0  0  0  0
    3.3167   -2.7269    0.7289 C   0  0  0  0  0  0  0  0  0  0  0  0
    2.3844   -4.1665    0.5299 Cl  0  0  0  0  0  0  0  0  0  0  0  0
    2.7462   -1.4815    0.4241 C   0  0  0  0  0  0  0  0  0  0  0  0
    1.4314   -1.4672   -0.0605 N   0  0  0  0  0  0  0  0  0  0  0  0
    0.5854   -0.3687   -0.3274 C   0  0  0  0  0  0  0  0  0  0  0  0
    0.9398    0.9036    0.0340 N   0  0  0  0  0  0  0  0  0  0  0  0
    0.1720    1.9821   -0.1039 C   0  0  0  0  0  0  0  0  0  0  0  0
   -1.0655    1.7710   -0.6537 N   0  0  0  0  0  0  0  0  0  0  0  0
   -1.4622    0.5661   -1.0222 C   0  0  0  0  0  0  0  0  0  0  0  0
   -2.8464    0.4438   -1.5710 C   0  0  0  0  0  0  0  0  0  0  0  0
   -3.6145   -0.3570   -0.5421 C   0  0  0  0  0  0  0  0  0  0  0  0
   -3.3505   -1.7442   -0.4752 N   0  0  0  0  0  0  0  0  0  0  0  0
   -2.1385   -2.5002   -0.4977 C   0  0  0  0  0  0  0  0  0  0  0  0
   -1.0123   -1.9437   -1.3132 C   0  0  0  0  0  0  0  0  0  0  0  0
   -0.6490   -0.5759   -0.8785 C   0  0  0  0  0  0  0  0  0  0  0  0
   -4.4928   -2.5763   -0.3098 C   0  0  0  0  0  0  0  0  0  0  0  0
   -4.6698   -2.9403    1.0021 N   0  0  0  0  0  0  0  0  0  0  0  0
   -5.6637   -3.6946    1.3969 C   0  0  0  0  0  0  0  0  0  0  0  0
   -6.5600   -4.1342    0.4505 C   0  0  0  0  0  0  0  0  0  0  0  0
   -6.4253   -3.7979   -0.8704 C   0  0  0  0  0  0  0  0  0  0  0  0
   -5.3607   -2.9969   -1.2573 C   0  0  0  0  0  0  0  0  0  0  0  0
   -5.2040   -2.6436   -2.6641 C   0  0  0  0  0  0  0  0  0  0  0  0
   -3.9749   -3.0119   -3.1860 F   0  0  0  0  0  0  0  0  0  0  0  0
   -5.6136   -1.3929   -2.9485 F   0  0  0  0  0  0  0  0  0  0  0  0
   -6.1217   -3.4741   -3.3828 F   0  0  0  0  0  0  0  0  0  0  0  0
    0.5672    3.2797    0.2918 N   0  0  0  0  0  0  0  0  0  0  0  0
    1.8302    3.4613    0.9405 C   0  0  0  0  0  0  0  0  0  0  0  0
    1.7194    4.6322    1.8970 C   0  0  0  0  0  0  0  0  0  0  0  0
    0.3828    4.7725    2.3928 N   0  0  0  0  0  0  0  0  0  0  0  0
   -0.5899    5.1078    1.3923 C   0  0  0  0  0  0  0  0  0  0  0  0
   -0.2788    4.4159    0.0590 C   0  0  0  0  0  0  0  0  0  0  0  0
    3.5740   -0.4085    0.6197 C   0  0  0  0  0  0  0  0  0  0  0  0
    6.5589    1.6665   -2.1429 H   0  0  0  0  0  0  0  0  0  0  0  0
    5.2173    0.6775   -1.4336 H   0  0  0  0  0  0  0  0  0  0  0  0
    5.2999    2.3994   -1.0019 H   0  0  0  0  0  0  0  0  0  0  0  0
    7.4642    0.4817   -0.3518 H   0  0  0  0  0  0  0  0  0  0  0  0
    6.4138   -1.8438    1.7295 H   0  0  0  0  0  0  0  0  0  0  0  0
    5.0425   -3.8308    1.4230 H   0  0  0  0  0  0  0  0  0  0  0  0
    1.0072   -2.4157   -0.2263 H   0  0  0  0  0  0  0  0  0  0  0  0
   -2.7579   -0.0997   -2.5323 H   0  0  0  0  0  0  0  0  0  0  0  0
   -3.2788    1.4351   -1.6573 H   0  0  0  0  0  0  0  0  0  0  0  0
   -3.3137    0.1494    0.4600 H   0  0  0  0  0  0  0  0  0  0  0  0
   -4.6910   -0.0833   -0.6527 H   0  0  0  0  0  0  0  0  0  0  0  0
   -1.8241   -2.6106    0.5742 H   0  0  0  0  0  0  0  0  0  0  0  0
   -2.3141   -3.5375   -0.8542 H   0  0  0  0  0  0  0  0  0  0  0  0
   -0.2078   -2.6180   -1.3885 H   0  0  0  0  0  0  0  0  0  0  0  0
   -1.4443   -1.8813   -2.3782 H   0  0  0  0  0  0  0  0  0  0  0  0
   -5.7823   -3.9724    2.4606 H   0  0  0  0  0  0  0  0  0  0  0  0
   -7.3934   -4.7630    0.7625 H   0  0  0  0  0  0  0  0  0  0  0  0
   -7.1230   -4.1330   -1.6319 H   0  0  0  0  0  0  0  0  0  0  0  0
    2.6772    3.6307    0.2603 H   0  0  0  0  0  0  0  0  0  0  0  0
    2.0301    2.5356    1.5545 H   0  0  0  0  0  0  0  0  0  0  0  0
    2.3927    4.4274    2.7643 H   0  0  0  0  0  0  0  0  0  0  0  0
    2.0491    5.5309    1.3361 H   0  0  0  0  0  0  0  0  0  0  0  0
    0.0891    3.8610    2.8242 H   0  0  0  0  0  0  0  0  0  0  0  0
   -1.6151    4.7991    1.7477 H   0  0  0  0  0  0  0  0  0  0  0  0
   -0.6650    6.1895    1.1937 H   0  0  0  0  0  0  0  0  0  0  0  0
    0.1736    5.1664   -0.6159 H   0  0  0  0  0  0  0  0  0  0  0  0
   -1.2647    4.1452   -0.3760 H   0  0  0  0  0  0  0  0  0  0  0  0
    3.2321    0.5729    0.4059 H   0  0  0  0  0  0  0  0  0  0  0  0
  1  2  1  0
  2  3  1  0
  3  4  2  0
  3  5  2  0
  3  6  1  0
  6  7  2  0
  7  8  1  0
  8  9  2  0
  9 10  1  0
  9 11  1  0
 11 12  1  0
 12 13  1  0
 13 14  2  0
 14 15  1  0
 15 16  2  0
 16 17  1  0
 17 18  1  0
 18 19  1  0
 19 20  1  0
 20 21  1  0
 21 22  1  0
 22 23  1  0
 20 24  1  0
 24 25  2  0
 25 26  1  0
 26 27  2  0
 27 28  1  0
 28 29  2  0
 29 30  1  0
 30 31  1  0
 30 32  1  0
 30 33  1  0
 15 34  1  0
 34 35  1  0
 35 36  1  0
 36 37  1  0
 37 38  1  0
 38 39  1  0
 11 40  2  0
 40  6  1  0
 23 13  1  0
 29 24  1  0
 39 34  1  0
 23 17  2  0
  1 41  1  0
  1 42  1  0
  1 43  1  0
  2 44  1  0
  7 45  1  0
  8 46  1  0
 12 47  1  0
 18 48  1  0
 18 49  1  0
 19 50  1  0
 19 51  1  0
 21 52  1  0
 21 53  1  0
 22 54  1  0
 22 55  1  0
 26 56  1  0
 27 57  1  0
 28 58  1  0
 35 59  1  0
 35 60  1  0
 36 61  1  0
 36 62  1  0
 37 63  1  0
 38 64  1  0
 38 65  1  0
 39 66  1  0
 39 67  1  0
 40 68  1  0
M  END
$$$$
[H]c1nc(Cl)c([H])c([H])c1C1([H])C([H])([H])C2([H])N([H])C1([H])C([H])([H])C2([H])[H]
     RDKit          3D

 27 29  0  0  0  0  0  0  0  0999 V2000
    5.6758    0.8831    0.6925 Cl  0  0  0  0  0  0  0  0  0  0  0  0
    3.9284    0.7936    0.5502 C   0  0  0  0  0  0  0  0  0  0  0  0
    3.3682   -0.3421    0.0489 C   0  0  0  0  0  0  0  0  0  0  0  0
    1.9797   -0.4088   -0.0624 C   0  0  0  0  0  0  0  0  0  0  0  0
    1.1786    0.6415    0.3216 C   0  0  0  0  0  0  0  0  0  0  0  0
    1.8046    1.7602    0.8199 C   0  0  0  0  0  0  0  0  0  0  0  0
    3.1501    1.8475    0.9370 N   0  0  0  0  0  0  0  0  0  0  0  0
   -0.2843    0.5958    0.2146 C   0  0  0  0  0  0  0  0  0  0  0  0
   -0.7539    0.3074   -1.2126 C   0  0  0  0  0  0  0  0  0  0  0  0
   -1.6567   -0.8927   -1.0415 C   0  0  0  0  0  0  0  0  0  0  0  0
   -2.8937   -0.4617   -0.3307 C   0  0  0  0  0  0  0  0  0  0  0  0
   -2.4018   -0.2047    1.1022 C   0  0  0  0  0  0  0  0  0  0  0  0
   -0.9243   -0.5017    1.0105 C   0  0  0  0  0  0  0  0  0  0  0  0
   -0.9470   -1.6023    0.0387 N   0  0  0  0  0  0  0  0  0  0  0  0
    3.9997   -1.1590   -0.2492 H   0  0  0  0  0  0  0  0  0  0  0  0
    1.5788   -1.3076   -0.4566 H   0  0  0  0  0  0  0  0  0  0  0  0
    1.2479    2.6363    1.1469 H   0  0  0  0  0  0  0  0  0  0  0  0
   -0.7424    1.5560    0.5785 H   0  0  0  0  0  0  0  0  0  0  0  0
   -1.3094    1.1920   -1.5708 H   0  0  0  0  0  0  0  0  0  0  0  0
    0.1394    0.0893   -1.8248 H   0  0  0  0  0  0  0  0  0  0  0  0
   -1.7910   -1.4927   -1.9267 H   0  0  0  0  0  0  0  0  0  0  0  0
   -3.6114   -1.3074   -0.3475 H   0  0  0  0  0  0  0  0  0  0  0  0
   -3.2916    0.4499   -0.7888 H   0  0  0  0  0  0  0  0  0  0  0  0
   -2.9334   -0.8445    1.8126 H   0  0  0  0  0  0  0  0  0  0  0  0
   -2.5174    0.8731    1.2946 H   0  0  0  0  0  0  0  0  0  0  0  0
   -0.4460   -0.7545    1.9421 H   0  0  0  0  0  0  0  0  0  0  0  0
   -1.5468   -2.3461    0.4567 H   0  0  0  0  0  0  0  0  0  0  0  0
  1  2  1  0
  2  3  2  0
  3  4  1  0
  4  5  2  0
  5  6  1  0
  6  7  2  0
  5  8  1  0
  8  9  1  0
  9 10  1  0
 10 11  1  0
 11 12  1  0
 12 13  1  0
 13 14  1  0
  7  2  1  0
 13  8  1  0
 14 10  1  0
  3 15  1  0
  4 16  1  0
  6 17  1  0
  8 18  1  0
  9 19  1  0
  9 20  1  0
 10 21  1  0
 11 22  1  0
 11 23  1  0
 12 24  1  0
 12 25  1  0
 13 26  1  0
 14 27  1  0
M  END
$$$$
[H]Oc1c([H])c([H])c([H])c([H])c1-c1nc2c([H])c(C(=O)N3C([H])([H])C([H])([H])c4c([H])c(OC([H])([H])[H])c(OC([H])([H])[H])c([H])c4C([H])([H])C3([H])[H])c([H])c([H])c2n1C([H])([H])[H]
     RDKit          3D

 61 65  0  0  0  0  0  0  0  0999 V2000
   -8.4133   -1.9902    0.6407 C   0  0  0  0  0  0  0  0  0  0  0  0
   -8.0218   -0.9124   -0.1926 O   0  0  0  0  0  0  0  0  0  0  0  0
   -6.7229   -0.4265   -0.0994 C   0  0  0  0  0  0  0  0  0  0  0  0
   -5.8088   -0.9637    0.7795 C   0  0  0  0  0  0  0  0  0  0  0  0
   -4.5217   -0.4860    0.8755 C   0  0  0  0  0  0  0  0  0  0  0  0
   -3.7500   -1.2372    1.8923 C   0  0  0  0  0  0  0  0  0  0  0  0
   -2.4931   -1.7431    1.3068 C   0  0  0  0  0  0  0  0  0  0  0  0
   -1.5581   -0.6110    1.0426 N   0  0  0  0  0  0  0  0  0  0  0  0
   -1.9143    0.7551    1.1354 C   0  0  0  0  0  0  0  0  0  0  0  0
   -2.8082    1.2373    0.0016 C   0  0  0  0  0  0  0  0  0  0  0  0
   -4.1326    0.5593    0.0714 C   0  0  0  0  0  0  0  0  0  0  0  0
   -5.0294    1.1032   -0.8065 C   0  0  0  0  0  0  0  0  0  0  0  0
   -6.3276    0.6290   -0.9104 C   0  0  0  0  0  0  0  0  0  0  0  0
   -7.2457    1.1714   -1.7958 O   0  0  0  0  0  0  0  0  0  0  0  0
   -6.8467    2.2445   -2.6216 C   0  0  0  0  0  0  0  0  0  0  0  0
   -0.2815   -1.1031    0.7559 C   0  0  0  0  0  0  0  0  0  0  0  0
   -0.1184   -2.4090    0.8432 O   0  0  0  0  0  0  0  0  0  0  0  0
    0.9290   -0.4178    0.3728 C   0  0  0  0  0  0  0  0  0  0  0  0
    1.0438    0.8576   -0.1126 C   0  0  0  0  0  0  0  0  0  0  0  0
    2.2463    1.4795   -0.3810 C   0  0  0  0  0  0  0  0  0  0  0  0
    3.4059    0.7792   -0.1508 C   0  0  0  0  0  0  0  0  0  0  0  0
    4.7398    1.0776   -0.3001 N   0  0  0  0  0  0  0  0  0  0  0  0
    5.1465    2.3700   -0.8291 C   0  0  0  0  0  0  0  0  0  0  0  0
    5.5026    0.0691    0.0597 C   0  0  0  0  0  0  0  0  0  0  0  0
    4.6385   -0.9151    0.4529 N   0  0  0  0  0  0  0  0  0  0  0  0
    3.3642   -0.5050    0.3333 C   0  0  0  0  0  0  0  0  0  0  0  0
    2.1523   -1.0988    0.5925 C   0  0  0  0  0  0  0  0  0  0  0  0
    6.9638   -0.0973    0.0527 C   0  0  0  0  0  0  0  0  0  0  0  0
    7.8722    0.8983   -0.0812 C   0  0  0  0  0  0  0  0  0  0  0  0
    9.2432    0.5996   -0.1122 C   0  0  0  0  0  0  0  0  0  0  0  0
    9.6871   -0.6989   -0.0070 C   0  0  0  0  0  0  0  0  0  0  0  0
    8.7757   -1.7236    0.1308 C   0  0  0  0  0  0  0  0  0  0  0  0
    7.4554   -1.4131    0.1579 C   0  0  0  0  0  0  0  0  0  0  0  0
    6.5332   -2.4355    0.2957 O   0  0  0  0  0  0  0  0  0  0  0  0
   -7.7911   -2.8694    0.3755 H   0  0  0  0  0  0  0  0  0  0  0  0
   -9.4883   -2.1998    0.5372 H   0  0  0  0  0  0  0  0  0  0  0  0
   -8.1706   -1.7556    1.7149 H   0  0  0  0  0  0  0  0  0  0  0  0
   -6.1486   -1.8013    1.4123 H   0  0  0  0  0  0  0  0  0  0  0  0
   -4.4069   -2.1366    2.1755 H   0  0  0  0  0  0  0  0  0  0  0  0
   -3.6366   -0.6138    2.8115 H   0  0  0  0  0  0  0  0  0  0  0  0
   -1.9669   -2.4943    1.9372 H   0  0  0  0  0  0  0  0  0  0  0  0
   -2.6752   -2.1991    0.3265 H   0  0  0  0  0  0  0  0  0  0  0  0
   -2.5871    0.8285    2.0708 H   0  0  0  0  0  0  0  0  0  0  0  0
   -1.1195    1.4567    1.3008 H   0  0  0  0  0  0  0  0  0  0  0  0
   -2.3094    1.0873   -0.9713 H   0  0  0  0  0  0  0  0  0  0  0  0
   -2.9730    2.3140    0.1466 H   0  0  0  0  0  0  0  0  0  0  0  0
   -4.7690    1.9407   -1.4723 H   0  0  0  0  0  0  0  0  0  0  0  0
   -6.3614    3.0637   -2.0756 H   0  0  0  0  0  0  0  0  0  0  0  0
   -6.0806    1.8382   -3.3238 H   0  0  0  0  0  0  0  0  0  0  0  0
   -7.7358    2.6354   -3.1859 H   0  0  0  0  0  0  0  0  0  0  0  0
    0.1779    1.4252   -0.3556 H   0  0  0  0  0  0  0  0  0  0  0  0
    2.3140    2.4856   -0.7611 H   0  0  0  0  0  0  0  0  0  0  0  0
    5.5237    2.9655    0.0209 H   0  0  0  0  0  0  0  0  0  0  0  0
    5.8883    2.3168   -1.6306 H   0  0  0  0  0  0  0  0  0  0  0  0
    4.2398    2.9516   -1.1850 H   0  0  0  0  0  0  0  0  0  0  0  0
    2.1467   -2.1113    0.9760 H   0  0  0  0  0  0  0  0  0  0  0  0
    7.5745    1.9224   -0.1449 H   0  0  0  0  0  0  0  0  0  0  0  0
    9.9382    1.4056   -0.2196 H   0  0  0  0  0  0  0  0  0  0  0  0
   10.7458   -0.9474   -0.0292 H   0  0  0  0  0  0  0  0  0  0  0  0
    9.0991   -2.7705    0.2169 H   0  0  0  0  0  0  0  0  0  0  0  0
    6.8669   -3.3819    0.3722 H   0  0  0  0  0  0  0  0  0  0  0  0
  1  2  1  0
  2  3  1  0
  3  4  2  0
  4  5  1  0
  5  6  1  0
  6  7  1  0
  7  8  1  0
  8  9  1  0
  9 10  1  0
 10 11  1  0
 11 12  1  0
 12 13  2  0
 13 14  1  0
 14 15  1  0
  8 16  1  0
 16 17  2  0
 16 18  1  0
 18 19  2  0
 19 20  1  0
 20 21  2  0
 21 22  1  0
 22 23  1  0
 22 24  1  0
 24 25  2  0
 25 26  1  0
 26 27  2  0
 24 28  1  0
 28 29  2  0
 29 30  1  0
 30 31  2  0
 31 32  1  0
 32 33  2  0
 33 34  1  0
 13  3  1  0
 27 18  1  0
 33 28  1  0
 11  5  2  0
 26 21  1  0
  1 35  1  0
  1 36  1  0
  1 37  1  0
  4 38  1  0
  6 39  1  0
  6 40  1  0
  7 41  1  0
  7 42  1  0
  9 43  1  0
  9 44  1  0
 10 45  1  0
 10 46  1  0
 12 47  1  0
 15 48  1  0
 15 49  1  0
 15 50  1  0
 19 51  1  0
 20 52  1  0
 23 53  1  0
 23 54  1  0
 23 55  1  0
 27 56  1  0
 29 57  1  0
 30 58  1  0
 31 59  1  0
 32 60  1  0
 34 61  1  0
M  END
$$$$
[H]c1c([H])c([H])c(C(=O)N([H])c2c([H])c([H])c([H])c(C(=O)N3C([H])([H])C([H])([H])C([H])(N([H])S(=O)(=O)c4c([H])c([H])c5c([H])c([H])c([H])c([H])c5c4[H])C([H])([H])C3([H])[H])c2[H])c(OC([H])([H])[H])c1[H]
     RDKit          3D

 68 72  0  0  0  0  0  0  0  0999 V2000
   -6.9699   -3.5077    0.7507 C   0  0  0  0  0  0  0  0  0  0  0  0
   -6.9308   -2.1366    0.5094 O   0  0  0  0  0  0  0  0  0  0  0  0
   -8.0111   -1.2874    0.5172 C   0  0  0  0  0  0  0  0  0  0  0  0
   -9.2879   -1.8147    0.7901 C   0  0  0  0  0  0  0  0  0  0  0  0
  -10.4070   -1.0314    0.8147 C   0  0  0  0  0  0  0  0  0  0  0  0
  -10.2695    0.3150    0.5632 C   0  0  0  0  0  0  0  0  0  0  0  0
   -9.0249    0.8258    0.2978 C   0  0  0  0  0  0  0  0  0  0  0  0
   -7.8523    0.0498    0.2643 C   0  0  0  0  0  0  0  0  0  0  0  0
   -6.6025    0.7000   -0.0223 C   0  0  0  0  0  0  0  0  0  0  0  0
   -6.6568    1.9620   -0.2348 O   0  0  0  0  0  0  0  0  0  0  0  0
   -5.3374    0.1191   -0.0961 N   0  0  0  0  0  0  0  0  0  0  0  0
   -4.1341    0.8519   -0.4030 C   0  0  0  0  0  0  0  0  0  0  0  0
   -4.0777    1.9622   -1.1804 C   0  0  0  0  0  0  0  0  0  0  0  0
   -2.8812    2.5979   -1.3732 C   0  0  0  0  0  0  0  0  0  0  0  0
   -1.6873    2.1425   -0.7914 C   0  0  0  0  0  0  0  0  0  0  0  0
   -1.7116    1.0278   -0.0028 C   0  0  0  0  0  0  0  0  0  0  0  0
   -2.9541    0.4057    0.1696 C   0  0  0  0  0  0  0  0  0  0  0  0
   -0.5607    0.5119    0.7042 C   0  0  0  0  0  0  0  0  0  0  0  0
   -0.7821   -0.7293    1.1304 O   0  0  0  0  0  0  0  0  0  0  0  0
    0.6719    1.0571    1.0031 N   0  0  0  0  0  0  0  0  0  0  0  0
    1.1745    2.3515    0.7516 C   0  0  0  0  0  0  0  0  0  0  0  0
    2.2293    2.3322   -0.3489 C   0  0  0  0  0  0  0  0  0  0  0  0
    3.1062    1.1018   -0.2072 C   0  0  0  0  0  0  0  0  0  0  0  0
    3.0381    0.4461    1.1309 C   0  0  0  0  0  0  0  0  0  0  0  0
    1.6651    0.1523    1.6517 C   0  0  0  0  0  0  0  0  0  0  0  0
    2.8669    0.1975   -1.3139 N   0  0  0  0  0  0  0  0  0  0  0  0
    4.2472    0.0251   -2.3071 S   0  0  0  0  0  0  0  0  0  0  0  0
    3.9048   -0.7927   -3.5001 O   0  0  0  0  0  0  0  0  0  0  0  0
    4.6208    1.4183   -2.7947 O   0  0  0  0  0  0  0  0  0  0  0  0
    5.5994   -0.6505   -1.4328 C   0  0  0  0  0  0  0  0  0  0  0  0
    5.7760   -2.0321   -1.3243 C   0  0  0  0  0  0  0  0  0  0  0  0
    6.8522   -2.5451   -0.6297 C   0  0  0  0  0  0  0  0  0  0  0  0
    7.7879   -1.7325   -0.0203 C   0  0  0  0  0  0  0  0  0  0  0  0
    8.8700   -2.2503    0.6791 C   0  0  0  0  0  0  0  0  0  0  0  0
    9.7979   -1.4313    1.2842 C   0  0  0  0  0  0  0  0  0  0  0  0
    9.6312   -0.0657    1.1818 C   0  0  0  0  0  0  0  0  0  0  0  0
    8.5499    0.4284    0.4829 C   0  0  0  0  0  0  0  0  0  0  0  0
    7.6160   -0.3688   -0.1259 C   0  0  0  0  0  0  0  0  0  0  0  0
    6.5233    0.1497   -0.8314 C   0  0  0  0  0  0  0  0  0  0  0  0
   -7.8436   -3.9684    0.2534 H   0  0  0  0  0  0  0  0  0  0  0  0
   -6.9708   -3.7008    1.8429 H   0  0  0  0  0  0  0  0  0  0  0  0
   -6.0055   -3.9676    0.3815 H   0  0  0  0  0  0  0  0  0  0  0  0
   -9.3919   -2.8594    0.9845 H   0  0  0  0  0  0  0  0  0  0  0  0
  -11.3958   -1.4040    1.0202 H   0  0  0  0  0  0  0  0  0  0  0  0
  -11.1419    0.9880    0.5720 H   0  0  0  0  0  0  0  0  0  0  0  0
   -8.9177    1.8750    0.1016 H   0  0  0  0  0  0  0  0  0  0  0  0
   -5.1606   -0.9109    0.0612 H   0  0  0  0  0  0  0  0  0  0  0  0
   -4.9316    2.3632   -1.6740 H   0  0  0  0  0  0  0  0  0  0  0  0
   -2.8347    3.4910   -1.9970 H   0  0  0  0  0  0  0  0  0  0  0  0
   -0.7900    2.6814   -1.0286 H   0  0  0  0  0  0  0  0  0  0  0  0
   -3.0163   -0.4780    0.7889 H   0  0  0  0  0  0  0  0  0  0  0  0
    0.4659    3.1338    0.5898 H   0  0  0  0  0  0  0  0  0  0  0  0
    1.7426    2.6398    1.7233 H   0  0  0  0  0  0  0  0  0  0  0  0
    1.7674    2.3345   -1.3529 H   0  0  0  0  0  0  0  0  0  0  0  0
    2.8029    3.2744   -0.2507 H   0  0  0  0  0  0  0  0  0  0  0  0
    4.1683    1.4782   -0.3029 H   0  0  0  0  0  0  0  0  0  0  0  0
    3.5537   -0.5454    1.0226 H   0  0  0  0  0  0  0  0  0  0  0  0
    3.6439    1.0467    1.8457 H   0  0  0  0  0  0  0  0  0  0  0  0
    1.3535   -0.9022    1.5736 H   0  0  0  0  0  0  0  0  0  0  0  0
    1.6330    0.4331    2.7219 H   0  0  0  0  0  0  0  0  0  0  0  0
    1.9992    0.3813   -1.8229 H   0  0  0  0  0  0  0  0  0  0  0  0
    5.0359   -2.6478   -1.8059 H   0  0  0  0  0  0  0  0  0  0  0  0
    6.9852   -3.6085   -0.5483 H   0  0  0  0  0  0  0  0  0  0  0  0
    8.9817   -3.3225    0.7476 H   0  0  0  0  0  0  0  0  0  0  0  0
   10.6285   -1.8674    1.8213 H   0  0  0  0  0  0  0  0  0  0  0  0
   10.3681    0.5633    1.6622 H   0  0  0  0  0  0  0  0  0  0  0  0
    8.4180    1.5118    0.4020 H   0  0  0  0  0  0  0  0  0  0  0  0
    6.4623    1.2318   -0.8707 H   0  0  0  0  0  0  0  0  0  0  0  0
  1  2  1  0
  2  3  1  0
  3  4  2  0
  4  5  1  0
  5  6  2  0
  6  7  1  0
  7  8  2  0
  8  9  1  0
  9 10  2  0
  9 11  1  0
 11 12  1  0
 12 13  2  0
 13 14  1  0
 14 15  2  0
 15 16  1  0
 16 17  2  0
 16 18  1  0
 18 19  2  0
 18 20  1  0
 20 21  1  0
 21 22  1  0
 22 23  1  0
 23 24  1  0
 24 25  1  0
 23 26  1  0
 26 27  1  0
 27 28  2  0
 27 29  2  0
 27 30  1  0
 30 31  2  0
 31 32  1  0
 32 33  2  0
 33 34  1  0
 34 35  2  0
 35 36  1  0
 36 37  2  0
 37 38  1  0
 38 39  2  0
  8  3  1  0
 17 12  1  0
 25 20  1  0
 39 30  1  0
 38 33  1  0
  1 40  1  0
  1 41  1  0
  1 42  1  0
  4 43  1  0
  5 44  1  0
  6 45  1  0
  7 46  1  0
 11 47  1  0
 13 48  1  0
 14 49  1  0
 15 50  1  0
 17 51  1  0
 21 52  1  0
 21 53  1  0
 22 54  1  0
 22 55  1  0
 23 56  1  0
 24 57  1  0
 24 58  1  0
 25 59  1  0
 25 60  1  0
 26 61  1  0
 31 62  1  0
 32 63  1  0
 34 64  1  0
 35 65  1  0
 36 66  1  0
 37 67  1  0
 39 68  1  0
M  END
$$$$
[H]OC(=O)c1c([H])c([H])c(C(=O)OC2([H])C([H])([H])C2([H])[H])c([H])c1OC([H])([H])c1c([H])c([H])c(C#N)c(OC([H])([H])C([H])([H])C([H])([H])C([H])([H])C([H])([H])C2([H])C([H])([H])C2([H])[H])c1[H]
     RDKit          3D

 63 66  0  0  0  0  0  0  0  0999 V2000
   -0.3024   -2.6874   -1.7268 O   0  0  0  0  0  0  0  0  0  0  0  0
   -1.5098   -3.3551   -1.6496 C   0  0  0  0  0  0  0  0  0  0  0  0
   -1.5076   -4.5505   -2.0396 O   0  0  0  0  0  0  0  0  0  0  0  0
   -2.7425   -2.7567   -1.1538 C   0  0  0  0  0  0  0  0  0  0  0  0
   -3.9013   -3.5435   -1.1278 C   0  0  0  0  0  0  0  0  0  0  0  0
   -5.1073   -3.0542   -0.6743 C   0  0  0  0  0  0  0  0  0  0  0  0
   -5.2308   -1.7583   -0.2218 C   0  0  0  0  0  0  0  0  0  0  0  0
   -4.0891   -0.9902   -0.2498 C   0  0  0  0  0  0  0  0  0  0  0  0
   -2.8596   -1.4660   -0.7046 C   0  0  0  0  0  0  0  0  0  0  0  0
   -1.7339   -0.6395   -0.7095 O   0  0  0  0  0  0  0  0  0  0  0  0
   -1.9081    0.6763   -0.2383 C   0  0  0  0  0  0  0  0  0  0  0  0
   -0.6765    1.4931   -0.2719 C   0  0  0  0  0  0  0  0  0  0  0  0
   -0.6837    2.8141    0.1476 C   0  0  0  0  0  0  0  0  0  0  0  0
    0.4902    3.5199    0.0928 C   0  0  0  0  0  0  0  0  0  0  0  0
    1.6788    3.0067   -0.3510 C   0  0  0  0  0  0  0  0  0  0  0  0
    2.8622    3.8145   -0.3757 C   0  0  0  0  0  0  0  0  0  0  0  0
    3.7925    4.4718   -0.3874 N   0  0  0  0  0  0  0  0  0  0  0  0
    1.6950    1.6919   -0.7705 C   0  0  0  0  0  0  0  0  0  0  0  0
    2.8851    1.1424   -1.2261 O   0  0  0  0  0  0  0  0  0  0  0  0
    2.8578   -0.2127   -1.6481 C   0  0  0  0  0  0  0  0  0  0  0  0
    4.2504   -0.6130   -2.1041 C   0  0  0  0  0  0  0  0  0  0  0  0
    5.2539   -0.4741   -1.0063 C   0  0  0  0  0  0  0  0  0  0  0  0
    4.9224   -1.3392    0.1930 C   0  0  0  0  0  0  0  0  0  0  0  0
    5.9733   -1.1561    1.2690 C   0  0  0  0  0  0  0  0  0  0  0  0
    5.9834    0.3074    1.6734 C   0  0  0  0  0  0  0  0  0  0  0  0
    6.9597    0.7297    2.7407 C   0  0  0  0  0  0  0  0  0  0  0  0
    7.1583    1.1326    1.2974 C   0  0  0  0  0  0  0  0  0  0  0  0
    0.5114    0.9615   -0.7212 C   0  0  0  0  0  0  0  0  0  0  0  0
   -6.5059   -1.2407    0.2576 C   0  0  0  0  0  0  0  0  0  0  0  0
   -7.4959   -2.0123    0.2473 O   0  0  0  0  0  0  0  0  0  0  0  0
   -6.6936    0.0331    0.7187 O   0  0  0  0  0  0  0  0  0  0  0  0
   -7.8911    0.5732    1.1865 C   0  0  0  0  0  0  0  0  0  0  0  0
   -8.2924    1.9757    0.9372 C   0  0  0  0  0  0  0  0  0  0  0  0
   -7.9492    1.5275    2.3105 C   0  0  0  0  0  0  0  0  0  0  0  0
   -0.0310   -2.3464   -2.6566 H   0  0  0  0  0  0  0  0  0  0  0  0
   -3.8286   -4.5610   -1.4771 H   0  0  0  0  0  0  0  0  0  0  0  0
   -6.0079   -3.6739   -0.6567 H   0  0  0  0  0  0  0  0  0  0  0  0
   -4.1779    0.0259    0.1030 H   0  0  0  0  0  0  0  0  0  0  0  0
   -2.2884    0.7047    0.8129 H   0  0  0  0  0  0  0  0  0  0  0  0
   -2.6775    1.2278   -0.8429 H   0  0  0  0  0  0  0  0  0  0  0  0
   -1.6094    3.2257    0.4969 H   0  0  0  0  0  0  0  0  0  0  0  0
    0.4753    4.5581    0.4246 H   0  0  0  0  0  0  0  0  0  0  0  0
    2.1308   -0.2854   -2.4754 H   0  0  0  0  0  0  0  0  0  0  0  0
    2.5179   -0.8974   -0.8294 H   0  0  0  0  0  0  0  0  0  0  0  0
    4.5284    0.0775   -2.9155 H   0  0  0  0  0  0  0  0  0  0  0  0
    4.2122   -1.6397   -2.5190 H   0  0  0  0  0  0  0  0  0  0  0  0
    6.2491   -0.7319   -1.3910 H   0  0  0  0  0  0  0  0  0  0  0  0
    5.2832    0.5874   -0.6880 H   0  0  0  0  0  0  0  0  0  0  0  0
    4.9248   -2.4161   -0.0691 H   0  0  0  0  0  0  0  0  0  0  0  0
    3.9411   -1.0284    0.6221 H   0  0  0  0  0  0  0  0  0  0  0  0
    6.9656   -1.4995    0.9187 H   0  0  0  0  0  0  0  0  0  0  0  0
    5.6833   -1.7456    2.1625 H   0  0  0  0  0  0  0  0  0  0  0  0
    4.9956    0.7774    1.6825 H   0  0  0  0  0  0  0  0  0  0  0  0
    7.6516   -0.0380    3.1738 H   0  0  0  0  0  0  0  0  0  0  0  0
    6.6833    1.5403    3.4518 H   0  0  0  0  0  0  0  0  0  0  0  0
    8.0384    0.6434    0.8096 H   0  0  0  0  0  0  0  0  0  0  0  0
    7.0363    2.1967    1.0511 H   0  0  0  0  0  0  0  0  0  0  0  0
    0.5819   -0.0561   -1.0595 H   0  0  0  0  0  0  0  0  0  0  0  0
   -8.7448   -0.1647    1.1540 H   0  0  0  0  0  0  0  0  0  0  0  0
   -7.6301    2.6722    0.3707 H   0  0  0  0  0  0  0  0  0  0  0  0
   -9.3674    2.2132    0.7763 H   0  0  0  0  0  0  0  0  0  0  0  0
   -8.7563    1.4328    3.0831 H   0  0  0  0  0  0  0  0  0  0  0  0
   -6.9731    1.7828    2.7732 H   0  0  0  0  0  0  0  0  0  0  0  0
  1  2  1  0
  2  3  2  0
  2  4  1  0
  4  5  2  0
  5  6  1  0
  6  7  2  0
  7  8  1  0
  8  9  2  0
  9 10  1  0
 10 11  1  0
 11 12  1  0
 12 13  2  0
 13 14  1  0
 14 15  2  0
 15 16  1  0
 16 17  3  0
 15 18  1  0
 18 19  1  0
 19 20  1  0
 20 21  1  0
 21 22  1  0
 22 23  1  0
 23 24  1  0
 24 25  1  0
 25 26  1  0
 26 27  1  0
 18 28  2  0
  7 29  1  0
 29 30  2  0
 29 31  1  0
 31 32  1  0
 32 33  1  0
 33 34  1  0
  9  4  1  0
 28 12  1  0
 34 32  1  0
 27 25  1  0
  1 35  1  0
  5 36  1  0
  6 37  1  0
  8 38  1  0
 11 39  1  0
 11 40  1  0
 13 41  1  0
 14 42  1  0
 20 43  1  0
 20 44  1  0
 21 45  1  0
 21 46  1  0
 22 47  1  0
 22 48  1  0
 23 49  1  0
 23 50  1  0
 24 51  1  0
 24 52  1  0
 25 53  1  0
 26 54  1  0
 26 55  1  0
 27 56  1  0
 27 57  1  0
 28 58  1  0
 32 59  1  0
 33 60  1  0
 33 61  1  0
 34 62  1  0
 34 63  1  0
M  END
$$$$
[H]c1c([H])c([H])c(-n2c([H])nc3c([H])c(C([H])([H])C([H])([H])[H])c([H])c([H])c3c2=O)c([H])c1[H]
     RDKit          3D

 33 35  0  0  0  0  0  0  0  0999 V2000
    5.2254    1.3790   -0.4471 C   0  0  0  0  0  0  0  0  0  0  0  0
    4.8292   -0.0988   -0.5237 C   0  0  0  0  0  0  0  0  0  0  0  0
    3.3816   -0.1540   -0.1805 C   0  0  0  0  0  0  0  0  0  0  0  0
    2.9445   -0.3121    1.1123 C   0  0  0  0  0  0  0  0  0  0  0  0
    1.6175   -0.3678    1.4691 C   0  0  0  0  0  0  0  0  0  0  0  0
    0.6553   -0.2614    0.4946 C   0  0  0  0  0  0  0  0  0  0  0  0
    1.0633   -0.1022   -0.8095 C   0  0  0  0  0  0  0  0  0  0  0  0
    2.4131   -0.0473   -1.1588 C   0  0  0  0  0  0  0  0  0  0  0  0
    0.1251    0.0048   -1.7875 N   0  0  0  0  0  0  0  0  0  0  0  0
   -1.1941   -0.0394   -1.5263 C   0  0  0  0  0  0  0  0  0  0  0  0
   -1.5572   -0.1960   -0.2404 N   0  0  0  0  0  0  0  0  0  0  0  0
   -2.9654   -0.2430    0.0373 C   0  0  0  0  0  0  0  0  0  0  0  0
   -3.6065   -1.3950    0.3769 C   0  0  0  0  0  0  0  0  0  0  0  0
   -4.9472   -1.3750    0.6290 C   0  0  0  0  0  0  0  0  0  0  0  0
   -5.6394   -0.1945    0.5385 C   0  0  0  0  0  0  0  0  0  0  0  0
   -5.0016    0.9698    0.1972 C   0  0  0  0  0  0  0  0  0  0  0  0
   -3.6546    0.9349   -0.0533 C   0  0  0  0  0  0  0  0  0  0  0  0
   -0.6923   -0.3066    0.7619 C   0  0  0  0  0  0  0  0  0  0  0  0
   -1.0295   -0.4541    1.9732 O   0  0  0  0  0  0  0  0  0  0  0  0
    5.2008    1.6350    0.6320 H   0  0  0  0  0  0  0  0  0  0  0  0
    6.1736    1.5790   -0.9429 H   0  0  0  0  0  0  0  0  0  0  0  0
    4.3574    1.9342   -0.9084 H   0  0  0  0  0  0  0  0  0  0  0  0
    4.9625   -0.4043   -1.5900 H   0  0  0  0  0  0  0  0  0  0  0  0
    5.4390   -0.7142    0.1702 H   0  0  0  0  0  0  0  0  0  0  0  0
    3.7287   -0.3952    1.8762 H   0  0  0  0  0  0  0  0  0  0  0  0
    1.3032   -0.4927    2.4935 H   0  0  0  0  0  0  0  0  0  0  0  0
    2.7149    0.0770   -2.1779 H   0  0  0  0  0  0  0  0  0  0  0  0
   -1.9515    0.0443   -2.2933 H   0  0  0  0  0  0  0  0  0  0  0  0
   -3.0270   -2.3143    0.4397 H   0  0  0  0  0  0  0  0  0  0  0  0
   -5.4686   -2.3032    0.9036 H   0  0  0  0  0  0  0  0  0  0  0  0
   -6.7181   -0.1493    0.7359 H   0  0  0  0  0  0  0  0  0  0  0  0
   -5.5207    1.8995    0.1210 H   0  0  0  0  0  0  0  0  0  0  0  0
   -3.1614    1.8629   -0.3225 H   0  0  0  0  0  0  0  0  0  0  0  0
  1  2  1  0
  2  3  1  0
  3  4  2  0
  4  5  1  0
  5  6  2  0
  6  7  1  0
  7  8  2  0
  7  9  1  0
  9 10  2  0
 10 11  1  0
 11 12  1  0
 12 13  2  0
 13 14  1  0
 14 15  2  0
 15 16  1  0
 16 17  2  0
 11 18  1  0
 18 19  2  0
  8  3  1  0
 17 12  1  0
 18  6  1  0
  1 20  1  0
  1 21  1  0
  1 22  1  0
  2 23  1  0
  2 24  1  0
  4 25  1  0
  5 26  1  0
  8 27  1  0
 10 28  1  0
 13 29  1  0
 14 30  1  0
 15 31  1  0
 16 32  1  0
 17 33  1  0
M  END
$$$$
[H]c1c([H])c([H])c(SC([H])([H])[C@@]([H])(N([H])c2c([H])c([H])c(S(=O)(=O)N([H])C(=O)c3c([H])c([H])c(N4C([H])([H])C([H])([H])N(C([H])([H])c5c([H])c([H])c([H])c([H])c5-c5c([H])c([H])c(Cl)c([H])c5[H])C([H])([H])C4([H])[H])c([H])c3[H])c([H])c2S(=O)(=O)C(F)(F)F)C([H])([H])C([H])([H])N2C([H])([H])C([H])([H])OC([H])([H])C2([H])[H])c([H])c1[H]
     RDKit          3D

110116  0  0  0  0  0  0  0  0999 V2000
   -2.6771    2.2082    2.1271 F   0  0  0  0  0  0  0  0  0  0  0  0
   -3.5194    1.1351    2.4006 C   0  0  0  0  0  0  0  0  0  0  0  0
   -4.7944    1.5259    2.6535 F   0  0  0  0  0  0  0  0  0  0  0  0
   -3.0320    0.6421    3.6341 F   0  0  0  0  0  0  0  0  0  0  0  0
   -3.3018   -0.1077    1.1791 S   0  0  0  0  0  0  0  0  0  0  0  0
   -1.8395   -0.5418    1.2664 O   0  0  0  0  0  0  0  0  0  0  0  0
   -4.0683   -1.3789    1.5525 O   0  0  0  0  0  0  0  0  0  0  0  0
   -3.6375    0.3989   -0.4481 C   0  0  0  0  0  0  0  0  0  0  0  0
   -2.5334    0.5876   -1.2934 C   0  0  0  0  0  0  0  0  0  0  0  0
   -2.6925    1.0152   -2.5832 C   0  0  0  0  0  0  0  0  0  0  0  0
   -3.9330    1.2693   -3.0866 C   0  0  0  0  0  0  0  0  0  0  0  0
   -5.0298    1.0845   -2.2598 C   0  0  0  0  0  0  0  0  0  0  0  0
   -4.9045    0.6553   -0.9503 C   0  0  0  0  0  0  0  0  0  0  0  0
   -6.0479    0.4078   -0.1566 N   0  0  0  0  0  0  0  0  0  0  0  0
   -7.3731    0.8186   -0.5055 C   0  0  1  0  0  0  0  0  0  0  0  0
   -8.3913    0.0868    0.3642 C   0  0  0  0  0  0  0  0  0  0  0  0
   -8.3150   -1.4251    0.1290 C   0  0  0  0  0  0  0  0  0  0  0  0
   -8.5797   -1.7930   -1.2231 N   0  0  0  0  0  0  0  0  0  0  0  0
   -8.4801   -3.2321   -1.4322 C   0  0  0  0  0  0  0  0  0  0  0  0
   -9.7173   -3.8939   -0.9058 C   0  0  0  0  0  0  0  0  0  0  0  0
  -10.8042   -3.4669   -1.6656 O   0  0  0  0  0  0  0  0  0  0  0  0
  -11.0019   -2.1172   -1.4198 C   0  0  0  0  0  0  0  0  0  0  0  0
   -9.7937   -1.2727   -1.7867 C   0  0  0  0  0  0  0  0  0  0  0  0
   -7.6480    2.2714   -0.6379 C   0  0  0  0  0  0  0  0  0  0  0  0
   -7.4061    3.3272    0.7594 S   0  0  0  0  0  0  0  0  0  0  0  0
   -8.5933    3.2515    2.0616 C   0  0  0  0  0  0  0  0  0  0  0  0
   -9.7725    4.0112    1.9433 C   0  0  0  0  0  0  0  0  0  0  0  0
  -10.7287    4.0384    2.9339 C   0  0  0  0  0  0  0  0  0  0  0  0
  -10.5752    3.3185    4.0985 C   0  0  0  0  0  0  0  0  0  0  0  0
   -9.4243    2.5767    4.2172 C   0  0  0  0  0  0  0  0  0  0  0  0
   -8.4472    2.5343    3.2289 C   0  0  0  0  0  0  0  0  0  0  0  0
   -1.2427    1.2205   -3.5804 S   0  0  0  0  0  0  0  0  0  0  0  0
   -1.2796    0.1836   -4.6424 O   0  0  0  0  0  0  0  0  0  0  0  0
   -1.2228    2.6285   -4.1109 O   0  0  0  0  0  0  0  0  0  0  0  0
    0.1200    0.9766   -2.5623 N   0  0  0  0  0  0  0  0  0  0  0  0
    1.0085   -0.1151   -2.7815 C   0  0  0  0  0  0  0  0  0  0  0  0
    0.7578   -0.8735   -3.7470 O   0  0  0  0  0  0  0  0  0  0  0  0
    2.1725   -0.3734   -1.9307 C   0  0  0  0  0  0  0  0  0  0  0  0
    2.9004   -1.5382   -2.1230 C   0  0  0  0  0  0  0  0  0  0  0  0
    4.0007   -1.8334   -1.3170 C   0  0  0  0  0  0  0  0  0  0  0  0
    4.4177   -1.0039   -0.3074 C   0  0  0  0  0  0  0  0  0  0  0  0
    3.6964    0.1625   -0.1095 C   0  0  0  0  0  0  0  0  0  0  0  0
    2.5902    0.4534   -0.9242 C   0  0  0  0  0  0  0  0  0  0  0  0
    5.5262   -1.2820    0.5329 N   0  0  0  0  0  0  0  0  0  0  0  0
    5.9722   -0.3893    1.5959 C   0  0  0  0  0  0  0  0  0  0  0  0
    7.4748   -0.6472    1.7820 C   0  0  0  0  0  0  0  0  0  0  0  0
    8.0870   -0.9088    0.5337 N   0  0  0  0  0  0  0  0  0  0  0  0
    9.3925   -0.4322    0.3626 C   0  0  0  0  0  0  0  0  0  0  0  0
   10.4891   -1.0917    1.0937 C   0  0  0  0  0  0  0  0  0  0  0  0
   10.2375   -2.2301    1.8154 C   0  0  0  0  0  0  0  0  0  0  0  0
   11.2592   -2.8980    2.4517 C   0  0  0  0  0  0  0  0  0  0  0  0
   12.5335   -2.4281    2.3657 C   0  0  0  0  0  0  0  0  0  0  0  0
   12.7905   -1.2889    1.6425 C   0  0  0  0  0  0  0  0  0  0  0  0
   11.7685   -0.5835    0.9819 C   0  0  0  0  0  0  0  0  0  0  0  0
   12.1165    0.6378    0.2616 C   0  0  0  0  0  0  0  0  0  0  0  0
   11.6448    1.8431    0.6976 C   0  0  0  0  0  0  0  0  0  0  0  0
   11.9807    2.9924   -0.0250 C   0  0  0  0  0  0  0  0  0  0  0  0
   12.7698    2.9262   -1.1548 C   0  0  0  0  0  0  0  0  0  0  0  0
   13.1464    4.4075   -2.0008 Cl  0  0  0  0  0  0  0  0  0  0  0  0
   13.2436    1.6900   -1.5869 C   0  0  0  0  0  0  0  0  0  0  0  0
   12.9039    0.5692   -0.8638 C   0  0  0  0  0  0  0  0  0  0  0  0
    7.6428   -2.0347   -0.1971 C   0  0  0  0  0  0  0  0  0  0  0  0
    6.3135   -2.4960    0.4028 C   0  0  0  0  0  0  0  0  0  0  0  0
   -1.5253    0.3858   -0.8934 H   0  0  0  0  0  0  0  0  0  0  0  0
   -4.0795    1.6070   -4.1145 H   0  0  0  0  0  0  0  0  0  0  0  0
   -6.0157    1.2613   -2.7083 H   0  0  0  0  0  0  0  0  0  0  0  0
   -5.9213   -0.1306    0.7367 H   0  0  0  0  0  0  0  0  0  0  0  0
   -7.5699    0.3799   -1.5455 H   0  0  0  0  0  0  0  0  0  0  0  0
   -9.3916    0.4850    0.3420 H   0  0  0  0  0  0  0  0  0  0  0  0
   -8.0060    0.2093    1.4278 H   0  0  0  0  0  0  0  0  0  0  0  0
   -8.9112   -1.9325    0.8961 H   0  0  0  0  0  0  0  0  0  0  0  0
   -7.2437   -1.6808    0.3657 H   0  0  0  0  0  0  0  0  0  0  0  0
   -7.6056   -3.5905   -0.8910 H   0  0  0  0  0  0  0  0  0  0  0  0
   -8.3782   -3.3701   -2.5422 H   0  0  0  0  0  0  0  0  0  0  0  0
   -9.8206   -3.5767    0.1575 H   0  0  0  0  0  0  0  0  0  0  0  0
   -9.6796   -5.0025   -0.9907 H   0  0  0  0  0  0  0  0  0  0  0  0
  -11.8348   -1.7837   -2.1045 H   0  0  0  0  0  0  0  0  0  0  0  0
  -11.3639   -1.9114   -0.3963 H   0  0  0  0  0  0  0  0  0  0  0  0
   -9.9507   -0.2504   -1.4151 H   0  0  0  0  0  0  0  0  0  0  0  0
   -9.6913   -1.2094   -2.8963 H   0  0  0  0  0  0  0  0  0  0  0  0
   -8.7885    2.3479   -0.8855 H   0  0  0  0  0  0  0  0  0  0  0  0
   -7.2195    2.7138   -1.5840 H   0  0  0  0  0  0  0  0  0  0  0  0
   -9.8868    4.5765    1.0271 H   0  0  0  0  0  0  0  0  0  0  0  0
  -11.6346    4.6269    2.8272 H   0  0  0  0  0  0  0  0  0  0  0  0
  -11.3085    3.3228    4.8917 H   0  0  0  0  0  0  0  0  0  0  0  0
   -9.3151    2.0127    5.1480 H   0  0  0  0  0  0  0  0  0  0  0  0
   -7.5604    1.9389    3.3616 H   0  0  0  0  0  0  0  0  0  0  0  0
    0.3417    1.6111   -1.7557 H   0  0  0  0  0  0  0  0  0  0  0  0
    2.5899   -2.2149   -2.9175 H   0  0  0  0  0  0  0  0  0  0  0  0
    4.5224   -2.7434   -1.5126 H   0  0  0  0  0  0  0  0  0  0  0  0
    3.9599    0.8529    0.6551 H   0  0  0  0  0  0  0  0  0  0  0  0
    2.0337    1.3800   -0.7555 H   0  0  0  0  0  0  0  0  0  0  0  0
    5.8067    0.6450    1.2983 H   0  0  0  0  0  0  0  0  0  0  0  0
    5.4369   -0.6708    2.5150 H   0  0  0  0  0  0  0  0  0  0  0  0
    7.6160   -1.3207    2.6135 H   0  0  0  0  0  0  0  0  0  0  0  0
    7.8799    0.3535    2.1334 H   0  0  0  0  0  0  0  0  0  0  0  0
    9.3610    0.6748    0.6227 H   0  0  0  0  0  0  0  0  0  0  0  0
    9.6897   -0.4213   -0.7142 H   0  0  0  0  0  0  0  0  0  0  0  0
    9.2221   -2.6610    1.8848 H   0  0  0  0  0  0  0  0  0  0  0  0
   11.0445   -3.7968    3.0239 H   0  0  0  0  0  0  0  0  0  0  0  0
   13.4013   -2.8994    2.8422 H   0  0  0  0  0  0  0  0  0  0  0  0
   13.7844   -0.8745    1.5423 H   0  0  0  0  0  0  0  0  0  0  0  0
   11.0339    1.9967    1.5711 H   0  0  0  0  0  0  0  0  0  0  0  0
   11.6015    3.9613    0.3219 H   0  0  0  0  0  0  0  0  0  0  0  0
   13.8749    1.6227   -2.4827 H   0  0  0  0  0  0  0  0  0  0  0  0
   13.2738   -0.3841   -1.1953 H   0  0  0  0  0  0  0  0  0  0  0  0
    7.3531   -1.6825   -1.2330 H   0  0  0  0  0  0  0  0  0  0  0  0
    8.3570   -2.8555   -0.3491 H   0  0  0  0  0  0  0  0  0  0  0  0
    6.5214   -2.8746    1.4477 H   0  0  0  0  0  0  0  0  0  0  0  0
    5.8475   -3.3069   -0.1380 H   0  0  0  0  0  0  0  0  0  0  0  0
  1  2  1  0
  2  3  1  0
  2  4  1  0
  2  5  1  0
  5  6  2  0
  5  7  2  0
  5  8  1  0
  8  9  2  0
  9 10  1  0
 10 11  2  0
 11 12  1  0
 12 13  2  0
 13 14  1  0
 14 15  1  0
 15 16  1  0
 16 17  1  0
 17 18  1  0
 18 19  1  0
 19 20  1  0
 20 21  1  0
 21 22  1  0
 22 23  1  0
 15 24  1  0
 24 25  1  0
 25 26  1  0
 26 27  2  0
 27 28  1  0
 28 29  2  0
 29 30  1  0
 30 31  2  0
 10 32  1  0
 32 33  2  0
 32 34  2  0
 32 35  1  0
 35 36  1  0
 36 37  2  0
 36 38  1  0
 38 39  2  0
 39 40  1  0
 40 41  2  0
 41 42  1  0
 42 43  2  0
 41 44  1  0
 44 45  1  0
 45 46  1  0
 46 47  1  0
 47 48  1  0
 48 49  1  0
 49 50  2  0
 50 51  1  0
 51 52  2  0
 52 53  1  0
 53 54  2  0
 54 55  1  0
 55 56  2  0
 56 57  1  0
 57 58  2  0
 58 59  1  0
 58 60  1  0
 60 61  2  0
 47 62  1  0
 62 63  1  0
 13  8  1  0
 23 18  1  0
 31 26  1  0
 43 38  1  0
 63 44  1  0
 54 49  1  0
 61 55  1  0
  9 64  1  0
 11 65  1  0
 12 66  1  0
 14 67  1  0
 15 68  1  6
 16 69  1  0
 16 70  1  0
 17 71  1  0
 17 72  1  0
 19 73  1  0
 19 74  1  0
 20 75  1  0
 20 76  1  0
 22 77  1  0
 22 78  1  0
 23 79  1  0
 23 80  1  0
 24 81  1  0
 24 82  1  0
 27 83  1  0
 28 84  1  0
 29 85  1  0
 30 86  1  0
 31 87  1  0
 35 88  1  0
 39 89  1  0
 40 90  1  0
 42 91  1  0
 43 92  1  0
 45 93  1  0
 45 94  1  0
 46 95  1  0
 46 96  1  0
 48 97  1  0
 48 98  1  0
 50 99  1  0
 51100  1  0
 52101  1  0
 53102  1  0
 56103  1  0
 57104  1  0
 60105  1  0
 61106  1  0
 62107  1  0
 62108  1  0
 63109  1  0
 63110  1  0
M  END
$$$$
[H]c1nc(N2C([H])([H])N(C3([H])C([H])([H])C([H])([H])N([H])C([H])([H])C3([H])[H])C([H])([H])C2([H])[H])c([H])c([H])c1-c1c([H])nc2c(-c3c([H])c([H])c([H])c4c([H])c([H])c([H])c([H])c34)c([H])nn2c1[H]
     RDKit          3D

 65 71  0  0  0  0  0  0  0  0999 V2000
   -4.6678    0.6225   -0.6816 C   0  0  0  0  0  0  0  0  0  0  0  0
   -5.5792    0.6772    0.4713 N   0  0  0  0  0  0  0  0  0  0  0  0
   -5.6508    2.0691    0.7854 C   0  0  0  0  0  0  0  0  0  0  0  0
   -4.3178    2.6390    0.3456 C   0  0  0  0  0  0  0  0  0  0  0  0
   -3.6040    1.4920   -0.2263 N   0  0  0  0  0  0  0  0  0  0  0  0
   -2.2208    1.2736   -0.3171 C   0  0  0  0  0  0  0  0  0  0  0  0
   -1.7389    0.1025   -0.8646 C   0  0  0  0  0  0  0  0  0  0  0  0
   -0.3721   -0.1487   -0.9744 C   0  0  0  0  0  0  0  0  0  0  0  0
    0.5364    0.8065   -0.5198 C   0  0  0  0  0  0  0  0  0  0  0  0
    0.0137    1.9581    0.0182 C   0  0  0  0  0  0  0  0  0  0  0  0
   -1.2993    2.1578    0.1043 N   0  0  0  0  0  0  0  0  0  0  0  0
    1.9611    0.5541   -0.6284 C   0  0  0  0  0  0  0  0  0  0  0  0
    2.9000    1.0403    0.2568 C   0  0  0  0  0  0  0  0  0  0  0  0
    4.2002    0.7366    0.0491 N   0  0  0  0  0  0  0  0  0  0  0  0
    4.6172   -0.0241   -0.9910 C   0  0  0  0  0  0  0  0  0  0  0  0
    5.8539   -0.4495   -1.3898 C   0  0  0  0  0  0  0  0  0  0  0  0
    5.6442   -1.2060   -2.5389 C   0  0  0  0  0  0  0  0  0  0  0  0
    4.3415   -1.2323   -2.8147 N   0  0  0  0  0  0  0  0  0  0  0  0
    3.7201   -0.5111   -1.8694 N   0  0  0  0  0  0  0  0  0  0  0  0
    2.4264   -0.2147   -1.6709 C   0  0  0  0  0  0  0  0  0  0  0  0
    7.1559   -0.1954   -0.7831 C   0  0  0  0  0  0  0  0  0  0  0  0
    8.0675    0.6498   -1.4009 C   0  0  0  0  0  0  0  0  0  0  0  0
    9.3059    0.9130   -0.8608 C   0  0  0  0  0  0  0  0  0  0  0  0
    9.6368    0.3126    0.3286 C   0  0  0  0  0  0  0  0  0  0  0  0
    8.7661   -0.5361    0.9832 C   0  0  0  0  0  0  0  0  0  0  0  0
    9.1491   -1.1081    2.1663 C   0  0  0  0  0  0  0  0  0  0  0  0
    8.2837   -1.9518    2.8164 C   0  0  0  0  0  0  0  0  0  0  0  0
    7.0257   -2.2246    2.2764 C   0  0  0  0  0  0  0  0  0  0  0  0
    6.6714   -1.6345    1.0863 C   0  0  0  0  0  0  0  0  0  0  0  0
    7.5170   -0.7828    0.4099 C   0  0  0  0  0  0  0  0  0  0  0  0
   -6.8320    0.1362   -0.0100 C   0  0  0  0  0  0  0  0  0  0  0  0
   -6.5774   -1.3061   -0.4174 C   0  0  0  0  0  0  0  0  0  0  0  0
   -7.8604   -2.1181   -0.2178 C   0  0  0  0  0  0  0  0  0  0  0  0
   -9.0405   -1.3361   -0.5079 N   0  0  0  0  0  0  0  0  0  0  0  0
   -9.2200   -0.2095    0.3518 C   0  0  0  0  0  0  0  0  0  0  0  0
   -7.9127    0.1256    1.0432 C   0  0  0  0  0  0  0  0  0  0  0  0
   -5.1686    1.0722   -1.5611 H   0  0  0  0  0  0  0  0  0  0  0  0
   -4.3764   -0.4197   -0.8099 H   0  0  0  0  0  0  0  0  0  0  0  0
   -6.5070    2.5893    0.3117 H   0  0  0  0  0  0  0  0  0  0  0  0
   -5.6690    2.1588    1.9055 H   0  0  0  0  0  0  0  0  0  0  0  0
   -3.7153    3.0360    1.1588 H   0  0  0  0  0  0  0  0  0  0  0  0
   -4.4443    3.3759   -0.4794 H   0  0  0  0  0  0  0  0  0  0  0  0
   -2.3964   -0.6711   -1.2313 H   0  0  0  0  0  0  0  0  0  0  0  0
   -0.0176   -1.0647   -1.4016 H   0  0  0  0  0  0  0  0  0  0  0  0
    0.7437    2.7005    0.3717 H   0  0  0  0  0  0  0  0  0  0  0  0
    2.5921    1.6428    1.0850 H   0  0  0  0  0  0  0  0  0  0  0  0
    6.4568   -1.6758   -3.0791 H   0  0  0  0  0  0  0  0  0  0  0  0
    1.7051   -0.6183   -2.3965 H   0  0  0  0  0  0  0  0  0  0  0  0
    7.8169    1.1239   -2.3335 H   0  0  0  0  0  0  0  0  0  0  0  0
   10.0035    1.5787   -1.3627 H   0  0  0  0  0  0  0  0  0  0  0  0
   10.5963    0.4994    0.7704 H   0  0  0  0  0  0  0  0  0  0  0  0
   10.1075   -0.9074    2.5884 H   0  0  0  0  0  0  0  0  0  0  0  0
    8.5161   -2.4378    3.7518 H   0  0  0  0  0  0  0  0  0  0  0  0
    6.3523   -2.8902    2.7957 H   0  0  0  0  0  0  0  0  0  0  0  0
    5.6847   -1.8482    0.6646 H   0  0  0  0  0  0  0  0  0  0  0  0
   -7.2159    0.7063   -0.8759 H   0  0  0  0  0  0  0  0  0  0  0  0
   -6.2235   -1.3749   -1.4645 H   0  0  0  0  0  0  0  0  0  0  0  0
   -5.8084   -1.7990    0.2145 H   0  0  0  0  0  0  0  0  0  0  0  0
   -7.7959   -2.9555   -0.9535 H   0  0  0  0  0  0  0  0  0  0  0  0
   -7.8547   -2.5717    0.7779 H   0  0  0  0  0  0  0  0  0  0  0  0
   -9.0280   -1.0974   -1.5223 H   0  0  0  0  0  0  0  0  0  0  0  0
   -9.4396    0.6785   -0.3101 H   0  0  0  0  0  0  0  0  0  0  0  0
  -10.0471   -0.3420    1.0846 H   0  0  0  0  0  0  0  0  0  0  0  0
   -7.7451   -0.6553    1.8124 H   0  0  0  0  0  0  0  0  0  0  0  0
   -8.0225    1.0899    1.5560 H   0  0  0  0  0  0  0  0  0  0  0  0
  1  2  1  0
  2  3  1  0
  3  4  1  0
  4  5  1  0
  5  6  1  0
  6  7  2  0
  7  8  1  0
  8  9  2  0
  9 10  1  0
 10 11  2  0
  9 12  1  0
 12 13  1  0
 13 14  2  0
 14 15  1  0
 15 16  2  0
 16 17  1  0
 17 18  2  0
 18 19  1  0
 19 20  1  0
 16 21  1  0
 21 22  2  0
 22 23  1  0
 23 24  2  0
 24 25  1  0
 25 26  2  0
 26 27  1  0
 27 28  2  0
 28 29  1  0
 29 30  2  0
  2 31  1  0
 31 32  1  0
 32 33  1  0
 33 34  1  0
 34 35  1  0
 35 36  1  0
  5  1  1  0
 11  6  1  0
 20 12  2  0
 30 21  1  0
 36 31  1  0
 19 15  1  0
 30 25  1  0
  1 37  1  0
  1 38  1  0
  3 39  1  0
  3 40  1  0
  4 41  1  0
  4 42  1  0
  7 43  1  0
  8 44  1  0
 10 45  1  0
 13 46  1  0
 17 47  1  0
 20 48  1  0
 22 49  1  0
 23 50  1  0
 24 51  1  0
 26 52  1  0
 27 53  1  0
 28 54  1  0
 29 55  1  0
 31 56  1  0
 32 57  1  0
 32 58  1  0
 33 59  1  0
 33 60  1  0
 34 61  1  0
 35 62  1  0
 35 63  1  0
 36 64  1  0
 36 65  1  0
M  END
$$$$
[H]C1=C(C#Cc2c([H])nc([H])c([H])c2[H])C([H])([H])C([H])([H])C([H])(c2c([H])nc(F)c([H])c2[H])C1([H])[H]
     RDKit          3D

 36 38  0  0  0  0  0  0  0  0999 V2000
   -7.7526    0.6032    0.0040 F   0  0  0  0  0  0  0  0  0  0  0  0
   -6.4130    0.3691   -0.1137 C   0  0  0  0  0  0  0  0  0  0  0  0
   -5.5026    1.3031    0.3300 C   0  0  0  0  0  0  0  0  0  0  0  0
   -4.1572    1.0770    0.2161 C   0  0  0  0  0  0  0  0  0  0  0  0
   -3.7033   -0.0865   -0.3432 C   0  0  0  0  0  0  0  0  0  0  0  0
   -4.6254   -1.0112   -0.7823 C   0  0  0  0  0  0  0  0  0  0  0  0
   -5.9354   -0.7609   -0.6570 N   0  0  0  0  0  0  0  0  0  0  0  0
   -2.2528   -0.3735   -0.4867 C   0  0  0  0  0  0  0  0  0  0  0  0
   -1.6420   -0.4581    0.9160 C   0  0  0  0  0  0  0  0  0  0  0  0
   -0.2715   -1.0784    0.7381 C   0  0  0  0  0  0  0  0  0  0  0  0
    0.5087   -0.1417   -0.1414 C   0  0  0  0  0  0  0  0  0  0  0  0
   -0.0807    0.6709   -0.9995 C   0  0  0  0  0  0  0  0  0  0  0  0
   -1.5325    0.7580   -1.1959 C   0  0  0  0  0  0  0  0  0  0  0  0
    1.9518   -0.1727   -0.0020 C   0  0  0  0  0  0  0  0  0  0  0  0
    3.1548   -0.2182    0.1203 C   0  0  0  0  0  0  0  0  0  0  0  0
    4.5803   -0.2906    0.2813 C   0  0  0  0  0  0  0  0  0  0  0  0
    5.3195    0.8737    0.2856 C   0  0  0  0  0  0  0  0  0  0  0  0
    6.7019    0.7785    0.4434 C   0  0  0  0  0  0  0  0  0  0  0  0
    7.3458   -0.4299    0.5938 C   0  0  0  0  0  0  0  0  0  0  0  0
    6.5936   -1.5460    0.5849 N   0  0  0  0  0  0  0  0  0  0  0  0
    5.2616   -1.4830    0.4347 C   0  0  0  0  0  0  0  0  0  0  0  0
   -5.9066    2.2263    0.7739 H   0  0  0  0  0  0  0  0  0  0  0  0
   -3.4763    1.8301    0.5741 H   0  0  0  0  0  0  0  0  0  0  0  0
   -4.2717   -1.9329   -1.2254 H   0  0  0  0  0  0  0  0  0  0  0  0
   -2.0996   -1.3480   -0.9542 H   0  0  0  0  0  0  0  0  0  0  0  0
   -1.4513    0.6040    1.2422 H   0  0  0  0  0  0  0  0  0  0  0  0
   -2.2688   -1.0128    1.6115 H   0  0  0  0  0  0  0  0  0  0  0  0
    0.2441   -1.2160    1.7098 H   0  0  0  0  0  0  0  0  0  0  0  0
   -0.3914   -2.0407    0.1931 H   0  0  0  0  0  0  0  0  0  0  0  0
    0.5620    1.3109   -1.5923 H   0  0  0  0  0  0  0  0  0  0  0  0
   -1.8705    1.7020   -0.6776 H   0  0  0  0  0  0  0  0  0  0  0  0
   -1.8437    0.8717   -2.2466 H   0  0  0  0  0  0  0  0  0  0  0  0
    4.8310    1.8364    0.1685 H   0  0  0  0  0  0  0  0  0  0  0  0
    7.2993    1.6773    0.4496 H   0  0  0  0  0  0  0  0  0  0  0  0
    8.4312   -0.4993    0.7174 H   0  0  0  0  0  0  0  0  0  0  0  0
    4.6630   -2.3919    0.4291 H   0  0  0  0  0  0  0  0  0  0  0  0
  1  2  1  0
  2  3  2  0
  3  4  1  0
  4  5  2  0
  5  6  1  0
  6  7  2  0
  5  8  1  0
  8  9  1  0
  9 10  1  0
 10 11  1  0
 11 12  2  0
 12 13  1  0
 11 14  1  0
 14 15  3  0
 15 16  1  0
 16 17  2  0
 17 18  1  0
 18 19  2  0
 19 20  1  0
 20 21  2  0
  7  2  1  0
 13  8  1  0
 21 16  1  0
  3 22  1  0
  4 23  1  0
  6 24  1  0
  8 25  1  0
  9 26  1  0
  9 27  1  0
 10 28  1  0
 10 29  1  0
 12 30  1  0
 13 31  1  0
 13 32  1  0
 17 33  1  0
 18 34  1  0
 19 35  1  0
 21 36  1  0
M  END
$$$$
[H]c1nn(-c2c([H])c([H])c([H])c(OC(F)(F)F)c2[H])c([H])c1C(=O)N([H])C([H])([H])C([H])([H])c1c([H])c([H])c([H])c(OC([H])([H])C(=O)OC([H])([H])[H])c1[H]
     RDKit          3D

 53 55  0  0  0  0  0  0  0  0999 V2000
   -7.5100   -2.0756    2.0969 C   0  0  0  0  0  0  0  0  0  0  0  0
   -7.0135   -1.7156    0.8405 O   0  0  0  0  0  0  0  0  0  0  0  0
   -7.8572   -1.5426   -0.2181 C   0  0  0  0  0  0  0  0  0  0  0  0
   -9.0979   -1.7215   -0.0117 O   0  0  0  0  0  0  0  0  0  0  0  0
   -7.3701   -1.1642   -1.5661 C   0  0  0  0  0  0  0  0  0  0  0  0
   -6.0026   -0.9179   -1.5898 O   0  0  0  0  0  0  0  0  0  0  0  0
   -5.3727    0.0944   -0.9165 C   0  0  0  0  0  0  0  0  0  0  0  0
   -6.0231    1.0238   -0.1467 C   0  0  0  0  0  0  0  0  0  0  0  0
   -5.3533    2.0448    0.5331 C   0  0  0  0  0  0  0  0  0  0  0  0
   -3.9826    2.1360    0.4355 C   0  0  0  0  0  0  0  0  0  0  0  0
   -3.3147    1.2133   -0.3325 C   0  0  0  0  0  0  0  0  0  0  0  0
   -1.8254    1.2727   -0.4652 C   0  0  0  0  0  0  0  0  0  0  0  0
   -1.2756    0.4199    0.6468 C   0  0  0  0  0  0  0  0  0  0  0  0
    0.1638    0.4068    0.5998 N   0  0  0  0  0  0  0  0  0  0  0  0
    0.9270    1.5778    0.7517 C   0  0  0  0  0  0  0  0  0  0  0  0
    0.3778    2.6788    0.9395 O   0  0  0  0  0  0  0  0  0  0  0  0
    2.4014    1.4810    0.6847 C   0  0  0  0  0  0  0  0  0  0  0  0
    3.3131    2.5084    0.8096 C   0  0  0  0  0  0  0  0  0  0  0  0
    4.5400    1.9483    0.6804 N   0  0  0  0  0  0  0  0  0  0  0  0
    4.4637    0.6605    0.4861 N   0  0  0  0  0  0  0  0  0  0  0  0
    3.1463    0.3393    0.4836 C   0  0  0  0  0  0  0  0  0  0  0  0
    5.5350   -0.2778    0.3046 C   0  0  0  0  0  0  0  0  0  0  0  0
    5.3459   -1.5954    0.6230 C   0  0  0  0  0  0  0  0  0  0  0  0
    6.3733   -2.4951    0.4489 C   0  0  0  0  0  0  0  0  0  0  0  0
    7.5962   -2.0843   -0.0444 C   0  0  0  0  0  0  0  0  0  0  0  0
    7.7834   -0.7522   -0.3651 C   0  0  0  0  0  0  0  0  0  0  0  0
    9.0297   -0.3564   -0.8635 O   0  0  0  0  0  0  0  0  0  0  0  0
    9.9868    0.0505    0.1192 C   0  0  0  0  0  0  0  0  0  0  0  0
   10.1862   -1.0266    0.9479 F   0  0  0  0  0  0  0  0  0  0  0  0
   11.1407    0.5110   -0.4569 F   0  0  0  0  0  0  0  0  0  0  0  0
    9.3543    1.0579    0.8490 F   0  0  0  0  0  0  0  0  0  0  0  0
    6.7445    0.1392   -0.1855 C   0  0  0  0  0  0  0  0  0  0  0  0
   -3.9775    0.2160   -0.9949 C   0  0  0  0  0  0  0  0  0  0  0  0
   -6.8632   -2.8474    2.5669 H   0  0  0  0  0  0  0  0  0  0  0  0
   -7.4976   -1.1768    2.7511 H   0  0  0  0  0  0  0  0  0  0  0  0
   -8.5723   -2.4349    1.9937 H   0  0  0  0  0  0  0  0  0  0  0  0
   -7.6536   -1.9623   -2.3175 H   0  0  0  0  0  0  0  0  0  0  0  0
   -7.9563   -0.2621   -1.9226 H   0  0  0  0  0  0  0  0  0  0  0  0
   -7.1106    0.9592   -0.0874 H   0  0  0  0  0  0  0  0  0  0  0  0
   -5.9237    2.7341    1.1154 H   0  0  0  0  0  0  0  0  0  0  0  0
   -3.4090    2.9059    0.9399 H   0  0  0  0  0  0  0  0  0  0  0  0
   -1.5760    0.7823   -1.4460 H   0  0  0  0  0  0  0  0  0  0  0  0
   -1.5284    2.3203   -0.4527 H   0  0  0  0  0  0  0  0  0  0  0  0
   -1.6509   -0.6121    0.4678 H   0  0  0  0  0  0  0  0  0  0  0  0
   -1.6459    0.7949    1.6493 H   0  0  0  0  0  0  0  0  0  0  0  0
    0.6456   -0.5388    0.4428 H   0  0  0  0  0  0  0  0  0  0  0  0
    3.0674    3.5563    0.9786 H   0  0  0  0  0  0  0  0  0  0  0  0
    2.7216   -0.6494    0.3474 H   0  0  0  0  0  0  0  0  0  0  0  0
    4.3816   -1.9631    1.0205 H   0  0  0  0  0  0  0  0  0  0  0  0
    6.2333   -3.5529    0.7006 H   0  0  0  0  0  0  0  0  0  0  0  0
    8.4039   -2.8102   -0.1777 H   0  0  0  0  0  0  0  0  0  0  0  0
    6.9268    1.1964   -0.4514 H   0  0  0  0  0  0  0  0  0  0  0  0
   -3.4255   -0.4949   -1.5912 H   0  0  0  0  0  0  0  0  0  0  0  0
  1  2  1  0
  2  3  1  0
  3  4  2  0
  3  5  1  0
  5  6  1  0
  6  7  1  0
  7  8  2  0
  8  9  1  0
  9 10  2  0
 10 11  1  0
 11 12  1  0
 12 13  1  0
 13 14  1  0
 14 15  1  0
 15 16  2  0
 15 17  1  0
 17 18  1  0
 18 19  2  0
 19 20  1  0
 20 21  1  0
 20 22  1  0
 22 23  2  0
 23 24  1  0
 24 25  2  0
 25 26  1  0
 26 27  1  0
 27 28  1  0
 28 29  1  0
 28 30  1  0
 28 31  1  0
 26 32  2  0
 11 33  2  0
 33  7  1  0
 21 17  2  0
 32 22  1  0
  1 34  1  0
  1 35  1  0
  1 36  1  0
  5 37  1  0
  5 38  1  0
  8 39  1  0
  9 40  1  0
 10 41  1  0
 12 42  1  0
 12 43  1  0
 13 44  1  0
 13 45  1  0
 14 46  1  0
 18 47  1  0
 21 48  1  0
 23 49  1  0
 24 50  1  0
 25 51  1  0
 32 52  1  0
 33 53  1  0
M  END
$$$$
[H]c1nc(OC([H])([H])[C@@]2([H])O[C@]([H])(N3[C@@]([H])(C([H])([H])[H])C([H])([H])C([H])([H])S3(=O)=O)[C@@]2([H])C([H])([H])OC(=O)C([H])([H])[H])c([H])c([H])c1[H]
     RDKit          3D

 47 49  0  0  0  0  0  0  0  0999 V2000
   -0.5094    5.6369   -1.5461 C   0  0  0  0  0  0  0  0  0  0  0  0
   -0.9820    4.3774   -0.9013 C   0  0  0  0  0  0  0  0  0  0  0  0
   -2.0756    3.8884   -1.2406 O   0  0  0  0  0  0  0  0  0  0  0  0
   -0.1993    3.7804    0.0565 O   0  0  0  0  0  0  0  0  0  0  0  0
   -0.4991    2.5906    0.7527 C   0  0  0  0  0  0  0  0  0  0  0  0
   -0.5831    1.4602   -0.1957 C   0  0  2  0  0  0  0  0  0  0  0  0
   -0.9004    0.0939    0.4481 C   0  0  1  0  0  0  0  0  0  0  0  0
   -2.2229   -0.2868    0.1226 N   0  0  0  0  0  0  0  0  0  0  0  0
   -2.4089   -1.4737   -0.6303 C   0  0  1  0  0  0  0  0  0  0  0  0
   -1.6108   -1.6313   -1.8691 C   0  0  0  0  0  0  0  0  0  0  0  0
   -2.2045   -2.6570    0.2798 C   0  0  0  0  0  0  0  0  0  0  0  0
   -3.2357   -2.4482    1.3970 C   0  0  0  0  0  0  0  0  0  0  0  0
   -3.0547   -0.6711    1.6140 S   0  0  0  0  0  0  0  0  0  0  0  0
   -2.1828   -0.4664    2.7935 O   0  0  0  0  0  0  0  0  0  0  0  0
   -4.3697    0.0000    1.6969 O   0  0  0  0  0  0  0  0  0  0  0  0
    0.1431   -0.3920   -0.3440 O   0  0  0  0  0  0  0  0  0  0  0  0
    0.7127    0.8345   -0.6494 C   0  0  2  0  0  0  0  0  0  0  0  0
    1.9600    1.2357    0.0498 C   0  0  0  0  0  0  0  0  0  0  0  0
    3.0331    0.4136   -0.1917 O   0  0  0  0  0  0  0  0  0  0  0  0
    3.2954   -0.8822    0.0542 C   0  0  0  0  0  0  0  0  0  0  0  0
    4.5523   -1.3719   -0.3726 C   0  0  0  0  0  0  0  0  0  0  0  0
    4.8808   -2.6832   -0.1489 C   0  0  0  0  0  0  0  0  0  0  0  0
    3.9639   -3.4951    0.4935 C   0  0  0  0  0  0  0  0  0  0  0  0
    2.7387   -3.0004    0.9046 C   0  0  0  0  0  0  0  0  0  0  0  0
    2.4669   -1.7249    0.6657 N   0  0  0  0  0  0  0  0  0  0  0  0
   -1.3543    6.2325   -1.9367 H   0  0  0  0  0  0  0  0  0  0  0  0
    0.1871    5.4430   -2.3701 H   0  0  0  0  0  0  0  0  0  0  0  0
    0.0507    6.2426   -0.7808 H   0  0  0  0  0  0  0  0  0  0  0  0
    0.2147    2.4548    1.5807 H   0  0  0  0  0  0  0  0  0  0  0  0
   -1.4761    2.8026    1.2655 H   0  0  0  0  0  0  0  0  0  0  0  0
   -1.2236    1.6614   -1.0781 H   0  0  0  0  0  0  0  0  0  0  0  0
   -0.6014    0.0957    1.5034 H   0  0  0  0  0  0  0  0  0  0  0  0
   -3.5016   -1.4972   -0.9206 H   0  0  0  0  0  0  0  0  0  0  0  0
   -1.3970   -0.6964   -2.4139 H   0  0  0  0  0  0  0  0  0  0  0  0
   -0.7001   -2.2596   -1.7018 H   0  0  0  0  0  0  0  0  0  0  0  0
   -2.2213   -2.2517   -2.5913 H   0  0  0  0  0  0  0  0  0  0  0  0
   -2.5305   -3.5593   -0.2772 H   0  0  0  0  0  0  0  0  0  0  0  0
   -1.1993   -2.7423    0.6865 H   0  0  0  0  0  0  0  0  0  0  0  0
   -2.9826   -2.9989    2.3033 H   0  0  0  0  0  0  0  0  0  0  0  0
   -4.2442   -2.6954    1.0395 H   0  0  0  0  0  0  0  0  0  0  0  0
    0.8818    0.9593   -1.7719 H   0  0  0  0  0  0  0  0  0  0  0  0
    1.7905    1.3510    1.1653 H   0  0  0  0  0  0  0  0  0  0  0  0
    2.2543    2.2857   -0.2582 H   0  0  0  0  0  0  0  0  0  0  0  0
    5.2309   -0.6994   -0.8683 H   0  0  0  0  0  0  0  0  0  0  0  0
    5.8490   -3.0319   -0.4857 H   0  0  0  0  0  0  0  0  0  0  0  0
    4.2203   -4.5428    0.6749 H   0  0  0  0  0  0  0  0  0  0  0  0
    2.0450   -3.6811    1.4095 H   0  0  0  0  0  0  0  0  0  0  0  0
  1  2  1  0
  2  3  2  0
  2  4  1  0
  4  5  1  0
  5  6  1  0
  6  7  1  0
  7  8  1  0
  8  9  1  0
  9 10  1  0
  9 11  1  0
 11 12  1  0
 12 13  1  0
 13 14  2  0
 13 15  2  0
  7 16  1  0
 16 17  1  0
 17 18  1  0
 18 19  1  0
 19 20  1  0
 20 21  2  0
 21 22  1  0
 22 23  2  0
 23 24  1  0
 24 25  2  0
 17  6  1  0
 25 20  1  0
 13  8  1  0
  1 26  1  0
  1 27  1  0
  1 28  1  0
  5 29  1  0
  5 30  1  0
  6 31  1  6
  7 32  1  1
  9 33  1  6
 10 34  1  0
 10 35  1  0
 10 36  1  0
 11 37  1  0
 11 38  1  0
 12 39  1  0
 12 40  1  0
 17 41  1  6
 18 42  1  0
 18 43  1  0
 21 44  1  0
 22 45  1  0
 23 46  1  0
 24 47  1  0
M  END
$$$$
[H]c1sc(N([H])C(=O)C([H])([H])c2c([H])c(C([H])([H])[H])c([H])c(C(F)(F)F)c2[H])nc1-c1c([H])c([H])c2c(c1[H])OC([H])([H])O2
     RDKit          3D

 44 47  0  0  0  0  0  0  0  0999 V2000
   -5.6339   -1.0919   -2.5653 C   0  0  0  0  0  0  0  0  0  0  0  0
   -4.9400   -0.7223   -1.3338 C   0  0  0  0  0  0  0  0  0  0  0  0
   -3.5876   -0.9712   -1.0991 C   0  0  0  0  0  0  0  0  0  0  0  0
   -3.0450   -0.5214    0.0613 C   0  0  0  0  0  0  0  0  0  0  0  0
   -1.5942   -0.8150    0.3253 C   0  0  0  0  0  0  0  0  0  0  0  0
   -1.3675   -0.7285    1.8262 C   0  0  0  0  0  0  0  0  0  0  0  0
   -2.1250   -1.4383    2.5357 O   0  0  0  0  0  0  0  0  0  0  0  0
   -0.4212    0.0915    2.4155 N   0  0  0  0  0  0  0  0  0  0  0  0
    0.7392    0.7281    1.8302 C   0  0  0  0  0  0  0  0  0  0  0  0
    1.7474    0.2828    1.1245 N   0  0  0  0  0  0  0  0  0  0  0  0
    2.5791    1.0593    0.5637 C   0  0  0  0  0  0  0  0  0  0  0  0
    2.3446    2.4398    0.7376 C   0  0  0  0  0  0  0  0  0  0  0  0
    0.9558    2.4202    1.7049 S   0  0  0  0  0  0  0  0  0  0  0  0
    3.8699    0.6695   -0.0891 C   0  0  0  0  0  0  0  0  0  0  0  0
    4.5282    1.5150   -0.9417 C   0  0  0  0  0  0  0  0  0  0  0  0
    5.7936    1.2199   -1.3956 C   0  0  0  0  0  0  0  0  0  0  0  0
    6.4398    0.0296   -0.9861 C   0  0  0  0  0  0  0  0  0  0  0  0
    7.6820   -0.5251   -1.2537 O   0  0  0  0  0  0  0  0  0  0  0  0
    7.6596   -1.8774   -0.8588 C   0  0  0  0  0  0  0  0  0  0  0  0
    6.6560   -1.9395    0.1202 O   0  0  0  0  0  0  0  0  0  0  0  0
    5.7938   -0.8197   -0.1450 C   0  0  0  0  0  0  0  0  0  0  0  0
    4.5309   -0.5011    0.2902 C   0  0  0  0  0  0  0  0  0  0  0  0
   -3.7594    0.1721    1.0238 C   0  0  0  0  0  0  0  0  0  0  0  0
   -5.1158    0.4231    0.7998 C   0  0  0  0  0  0  0  0  0  0  0  0
   -5.7174   -0.0252   -0.3933 C   0  0  0  0  0  0  0  0  0  0  0  0
   -5.8820    1.1428    1.8427 C   0  0  0  0  0  0  0  0  0  0  0  0
   -5.5781    2.4734    1.8290 F   0  0  0  0  0  0  0  0  0  0  0  0
   -7.2497    0.9035    1.8046 F   0  0  0  0  0  0  0  0  0  0  0  0
   -5.4488    0.6245    3.0881 F   0  0  0  0  0  0  0  0  0  0  0  0
   -6.5208   -0.4420   -2.7591 H   0  0  0  0  0  0  0  0  0  0  0  0
   -6.0032   -2.1477   -2.5838 H   0  0  0  0  0  0  0  0  0  0  0  0
   -4.9543   -1.0094   -3.4685 H   0  0  0  0  0  0  0  0  0  0  0  0
   -3.0618   -1.5069   -1.8865 H   0  0  0  0  0  0  0  0  0  0  0  0
   -1.2270   -1.7399   -0.0644 H   0  0  0  0  0  0  0  0  0  0  0  0
   -1.0319    0.0288   -0.1200 H   0  0  0  0  0  0  0  0  0  0  0  0
   -0.3885    0.1332    3.4846 H   0  0  0  0  0  0  0  0  0  0  0  0
    2.9583    3.2690    0.3107 H   0  0  0  0  0  0  0  0  0  0  0  0
    4.0338    2.4297   -1.2550 H   0  0  0  0  0  0  0  0  0  0  0  0
    6.3144    1.8683   -2.0699 H   0  0  0  0  0  0  0  0  0  0  0  0
    8.6556   -2.1754   -0.4415 H   0  0  0  0  0  0  0  0  0  0  0  0
    7.3811   -2.4876   -1.7406 H   0  0  0  0  0  0  0  0  0  0  0  0
    4.0417   -1.1687    0.9738 H   0  0  0  0  0  0  0  0  0  0  0  0
   -3.3013    0.5361    1.9110 H   0  0  0  0  0  0  0  0  0  0  0  0
   -6.7505    0.1938   -0.5157 H   0  0  0  0  0  0  0  0  0  0  0  0
  1  2  1  0
  2  3  2  0
  3  4  1  0
  4  5  1  0
  5  6  1  0
  6  7  2  0
  6  8  1  0
  8  9  1  0
  9 10  2  0
 10 11  1  0
 11 12  2  0
 12 13  1  0
 11 14  1  0
 14 15  2  0
 15 16  1  0
 16 17  2  0
 17 18  1  0
 18 19  1  0
 19 20  1  0
 20 21  1  0
 21 22  2  0
  4 23  2  0
 23 24  1  0
 24 25  2  0
 24 26  1  0
 26 27  1  0
 26 28  1  0
 26 29  1  0
 25  2  1  0
 13  9  1  0
 22 14  1  0
 21 17  1  0
  1 30  1  0
  1 31  1  0
  1 32  1  0
  3 33  1  0
  5 34  1  0
  5 35  1  0
  8 36  1  0
 12 37  1  0
 15 38  1  0
 16 39  1  0
 19 40  1  0
 19 41  1  0
 22 42  1  0
 23 43  1  0
 25 44  1  0
M  END
$$$$
[H]Cl.[H]c1nc([H])n([H])c1C(C([H])([H])[H])(C([H])([H])[H])C([H])([H])C([H])([H])C([H])([H])C(=O)N(c1c([H])c([H])c2nsnc2c1[H])C([H])([H])[H]
     RDKit          3D

 47 48  0  0  0  0  0  0  0  0999 V2000
    0.6866    0.0000    0.0000 Cl  0  0  0  0  0  0  0  0  0  0  0  0
    2.1704   -1.2405   -1.8785 C   0  0  0  0  0  0  0  0  0  0  0  0
    2.4867   -0.4332   -0.7233 N   0  0  0  0  0  0  0  0  0  0  0  0
    1.4332    0.2173   -0.0581 C   0  0  0  0  0  0  0  0  0  0  0  0
    1.6378    0.9424    0.9407 O   0  0  0  0  0  0  0  0  0  0  0  0
   -0.0121    0.0735   -0.5159 C   0  0  0  0  0  0  0  0  0  0  0  0
   -0.8275    0.9914    0.3166 C   0  0  0  0  0  0  0  0  0  0  0  0
   -2.2541    1.0433   -0.0218 C   0  0  0  0  0  0  0  0  0  0  0  0
   -3.0999   -0.1676    0.0877 C   0  0  0  0  0  0  0  0  0  0  0  0
   -3.0601   -0.6843    1.5296 C   0  0  0  0  0  0  0  0  0  0  0  0
   -2.7880   -1.2886   -0.8363 C   0  0  0  0  0  0  0  0  0  0  0  0
   -4.5171    0.3024   -0.1630 C   0  0  0  0  0  0  0  0  0  0  0  0
   -5.3868   -0.0559   -1.1225 C   0  0  0  0  0  0  0  0  0  0  0  0
   -6.5307    0.6746   -0.9097 N   0  0  0  0  0  0  0  0  0  0  0  0
   -6.3671    1.4616    0.1533 C   0  0  0  0  0  0  0  0  0  0  0  0
   -5.1171    1.2369    0.6244 N   0  0  0  0  0  0  0  0  0  0  0  0
    3.8060   -0.2576   -0.2292 C   0  0  0  0  0  0  0  0  0  0  0  0
    4.0553   -0.5192    1.1012 C   0  0  0  0  0  0  0  0  0  0  0  0
    5.3267   -0.3545    1.6081 C   0  0  0  0  0  0  0  0  0  0  0  0
    6.3905    0.0783    0.7979 C   0  0  0  0  0  0  0  0  0  0  0  0
    7.6439    0.2552    1.2363 N   0  0  0  0  0  0  0  0  0  0  0  0
    8.4772    0.7685   -0.1265 S   0  0  0  0  0  0  0  0  0  0  0  0
    7.2080    0.7452   -1.2233 N   0  0  0  0  0  0  0  0  0  0  0  0
    6.1623    0.3362   -0.4969 C   0  0  0  0  0  0  0  0  0  0  0  0
    4.8551    0.1615   -0.9938 C   0  0  0  0  0  0  0  0  0  0  0  0
   -0.6866    0.0000    0.0000 H   0  0  0  0  0  0  0  0  0  0  0  0
    1.7330   -0.5998   -2.6738 H   0  0  0  0  0  0  0  0  0  0  0  0
    1.3721   -1.9526   -1.5843 H   0  0  0  0  0  0  0  0  0  0  0  0
    3.0296   -1.8304   -2.2214 H   0  0  0  0  0  0  0  0  0  0  0  0
   -0.0693    0.3245   -1.5733 H   0  0  0  0  0  0  0  0  0  0  0  0
   -0.2951   -0.9836   -0.2965 H   0  0  0  0  0  0  0  0  0  0  0  0
   -0.6467    0.8025    1.4182 H   0  0  0  0  0  0  0  0  0  0  0  0
   -0.3658    2.0234    0.1884 H   0  0  0  0  0  0  0  0  0  0  0  0
   -2.4083    1.4754   -1.0568 H   0  0  0  0  0  0  0  0  0  0  0  0
   -2.7467    1.8281    0.6419 H   0  0  0  0  0  0  0  0  0  0  0  0
   -2.0820   -0.4831    1.9893 H   0  0  0  0  0  0  0  0  0  0  0  0
   -3.8974   -0.2588    2.1349 H   0  0  0  0  0  0  0  0  0  0  0  0
   -3.2202   -1.7791    1.5369 H   0  0  0  0  0  0  0  0  0  0  0  0
   -2.1926   -1.0296   -1.7289 H   0  0  0  0  0  0  0  0  0  0  0  0
   -3.7560   -1.7292   -1.2037 H   0  0  0  0  0  0  0  0  0  0  0  0
   -2.3183   -2.1313   -0.2477 H   0  0  0  0  0  0  0  0  0  0  0  0
   -5.2671   -0.7592   -1.9241 H   0  0  0  0  0  0  0  0  0  0  0  0
   -7.1320    2.1408    0.5248 H   0  0  0  0  0  0  0  0  0  0  0  0
   -4.7322    1.7190    1.4433 H   0  0  0  0  0  0  0  0  0  0  0  0
    3.2167   -0.8523    1.7155 H   0  0  0  0  0  0  0  0  0  0  0  0
    5.4550   -0.5730    2.6603 H   0  0  0  0  0  0  0  0  0  0  0  0
    4.6308    0.3619   -2.0371 H   0  0  0  0  0  0  0  0  0  0  0  0
  2  3  1  0
  3  4  1  0
  4  5  2  0
  4  6  1  0
  6  7  1  0
  7  8  1  0
  8  9  1  0
  9 10  1  0
  9 11  1  0
  9 12  1  0
 12 13  2  0
 13 14  1  0
 14 15  2  0
 15 16  1  0
  3 17  1  0
 17 18  1  0
 18 19  2  0
 19 20  1  0
 20 21  2  0
 21 22  1  0
 22 23  1  0
 23 24  2  0
 24 25  1  0
 16 12  1  0
 25 17  2  0
 24 20  1  0
  1 26  1  0
  2 27  1  0
  2 28  1  0
  2 29  1  0
  6 30  1  0
  6 31  1  0
  7 32  1  0
  7 33  1  0
  8 34  1  0
  8 35  1  0
 10 36  1  0
 10 37  1  0
 10 38  1  0
 11 39  1  0
 11 40  1  0
 11 41  1  0
 13 42  1  0
 15 43  1  0
 16 44  1  0
 18 45  1  0
 19 46  1  0
 25 47  1  0
M  END
$$$$
[H]N=C(c1c([H])c([H])c(OC([H])([H])c2c([H])c([H])c([H])c(C(=N[H])N([H])[H])c2[H])c(C(=N[H])N([H])[H])c1[H])N([H])[H]
     RDKit          3D

 41 42  0  0  0  0  0  0  0  0999 V2000
   -4.7220    1.7351    0.9926 N   0  0  0  0  0  0  0  0  0  0  0  0
   -4.3239    0.5000    1.5736 C   0  0  0  0  0  0  0  0  0  0  0  0
   -4.9315   -0.0045    2.4812 N   0  0  0  0  0  0  0  0  0  0  0  0
   -3.1117   -0.1401    1.0344 C   0  0  0  0  0  0  0  0  0  0  0  0
   -2.4320    0.4353    0.0011 C   0  0  0  0  0  0  0  0  0  0  0  0
   -1.2735   -0.2069   -0.4568 C   0  0  0  0  0  0  0  0  0  0  0  0
   -0.7998   -1.3683    0.0789 C   0  0  0  0  0  0  0  0  0  0  0  0
    0.3154   -1.9710   -0.3703 O   0  0  0  0  0  0  0  0  0  0  0  0
    1.2104   -1.6510   -1.3696 C   0  0  0  0  0  0  0  0  0  0  0  0
    1.8589   -0.3535   -1.0786 C   0  0  0  0  0  0  0  0  0  0  0  0
    1.9276    0.0770    0.2432 C   0  0  0  0  0  0  0  0  0  0  0  0
    2.5208    1.2865    0.5317 C   0  0  0  0  0  0  0  0  0  0  0  0
    3.0420    2.0625   -0.4636 C   0  0  0  0  0  0  0  0  0  0  0  0
    2.9938    1.6644   -1.8013 C   0  0  0  0  0  0  0  0  0  0  0  0
    2.3940    0.4535   -2.0505 C   0  0  0  0  0  0  0  0  0  0  0  0
    3.5568    2.5201   -2.8281 C   0  0  0  0  0  0  0  0  0  0  0  0
    4.1322    3.7599   -2.4400 N   0  0  0  0  0  0  0  0  0  0  0  0
    3.5725    2.2327   -4.0851 N   0  0  0  0  0  0  0  0  0  0  0  0
   -1.5020   -1.9493    1.1369 C   0  0  0  0  0  0  0  0  0  0  0  0
   -2.6457   -1.3294    1.5995 C   0  0  0  0  0  0  0  0  0  0  0  0
   -1.0616   -3.1842    1.7515 C   0  0  0  0  0  0  0  0  0  0  0  0
    0.1013   -3.8053    1.2227 N   0  0  0  0  0  0  0  0  0  0  0  0
   -1.6921   -3.7059    2.7231 N   0  0  0  0  0  0  0  0  0  0  0  0
   -4.9646    2.5180    1.6344 H   0  0  0  0  0  0  0  0  0  0  0  0
   -4.7803    1.8922   -0.0453 H   0  0  0  0  0  0  0  0  0  0  0  0
   -5.6788    0.0508    3.0914 H   0  0  0  0  0  0  0  0  0  0  0  0
   -2.7717    1.3591   -0.4575 H   0  0  0  0  0  0  0  0  0  0  0  0
   -0.7716    0.2904   -1.2865 H   0  0  0  0  0  0  0  0  0  0  0  0
    0.7252   -1.5567   -2.3821 H   0  0  0  0  0  0  0  0  0  0  0  0
    2.0462   -2.3818   -1.4874 H   0  0  0  0  0  0  0  0  0  0  0  0
    1.5262   -0.5260    1.0390 H   0  0  0  0  0  0  0  0  0  0  0  0
    2.5690    1.6213    1.5591 H   0  0  0  0  0  0  0  0  0  0  0  0
    3.4990    3.0064   -0.1818 H   0  0  0  0  0  0  0  0  0  0  0  0
    2.3408    0.1107   -3.0866 H   0  0  0  0  0  0  0  0  0  0  0  0
    4.7348    3.7882   -1.5908 H   0  0  0  0  0  0  0  0  0  0  0  0
    3.9137    4.5984   -3.0443 H   0  0  0  0  0  0  0  0  0  0  0  0
    3.1684    1.3411   -4.4392 H   0  0  0  0  0  0  0  0  0  0  0  0
   -3.2533   -1.7139    2.4206 H   0  0  0  0  0  0  0  0  0  0  0  0
    1.0045   -3.6919    1.7180 H   0  0  0  0  0  0  0  0  0  0  0  0
    0.0937   -4.3787    0.3525 H   0  0  0  0  0  0  0  0  0  0  0  0
   -2.5314   -3.3854    3.1959 H   0  0  0  0  0  0  0  0  0  0  0  0
  1  2  1  0
  2  3  2  3
  2  4  1  0
  4  5  2  0
  5  6  1  0
  6  7  2  0
  7  8  1  0
  8  9  1  0
  9 10  1  0
 10 11  2  0
 11 12  1  0
 12 13  2  0
 13 14  1  0
 14 15  2  0
 14 16  1  0
 16 17  1  0
 16 18  2  3
  7 19  1  0
 19 20  2  0
 19 21  1  0
 21 22  1  0
 21 23  2  3
 20  4  1  0
 15 10  1  0
  1 24  1  0
  1 25  1  0
  3 26  1  0
  5 27  1  0
  6 28  1  0
  9 29  1  0
  9 30  1  0
 11 31  1  0
 12 32  1  0
 13 33  1  0
 15 34  1  0
 17 35  1  0
 17 36  1  0
 18 37  1  0
 20 38  1  0
 22 39  1  0
 22 40  1  0
 23 41  1  0
M  END
$$$$
[H]OC(=O)[C@@]([H])(C([H])([H])C(=O)N([H])C1([H])c2c([H])c([H])c([H])c([H])c2C([H])([H])C([H])([H])C([H])([H])C1([H])[H])C([H])([H])C([H])([H])C([H])([H])C([H])([H])N([H])C(=O)C([H])([H])[C@]([H])(S[H])C([H])([H])C([H])([H])c1c([H])c([H])c([H])c([H])c1[H]
     RDKit          3D

 77 79  0  0  0  0  0  0  0  0999 V2000
   -1.1951   -1.2269   -1.4940 O   0  0  0  0  0  0  0  0  0  0  0  0
   -1.5277   -0.1094   -2.2387 C   0  0  0  0  0  0  0  0  0  0  0  0
   -1.9646   -0.2683   -3.4027 O   0  0  0  0  0  0  0  0  0  0  0  0
   -1.3526    1.2591   -1.6229 C   0  0  2  0  0  0  0  0  0  0  0  0
    0.1607    1.4182   -1.3105 C   0  0  0  0  0  0  0  0  0  0  0  0
    0.3709    2.7545   -0.7247 C   0  0  0  0  0  0  0  0  0  0  0  0
    1.7593    3.0518   -0.3276 C   0  0  0  0  0  0  0  0  0  0  0  0
    2.8229    3.0331   -1.3333 C   0  0  0  0  0  0  0  0  0  0  0  0
    3.0652    1.7733   -1.9361 N   0  0  0  0  0  0  0  0  0  0  0  0
    3.5070    0.6192   -1.1865 C   0  0  0  0  0  0  0  0  0  0  0  0
    3.6782    0.7622    0.0257 O   0  0  0  0  0  0  0  0  0  0  0  0
    3.7033   -0.6040   -1.9608 C   0  0  0  0  0  0  0  0  0  0  0  0
    4.2540   -1.7856   -1.2699 C   0  0  2  0  0  0  0  0  0  0  0  0
    3.2712   -2.3545    0.1508 S   0  0  0  0  0  0  0  0  0  0  0  0
    5.7124   -1.8561   -1.0457 C   0  0  0  0  0  0  0  0  0  0  0  0
    6.3519   -0.7863   -0.2392 C   0  0  0  0  0  0  0  0  0  0  0  0
    7.8399   -1.0606   -0.1250 C   0  0  0  0  0  0  0  0  0  0  0  0
    8.7389   -0.5823   -1.0401 C   0  0  0  0  0  0  0  0  0  0  0  0
   10.0735   -0.8558   -0.8975 C   0  0  0  0  0  0  0  0  0  0  0  0
   10.5041   -1.6134    0.1703 C   0  0  0  0  0  0  0  0  0  0  0  0
    9.6170   -2.1064    1.1059 C   0  0  0  0  0  0  0  0  0  0  0  0
    8.2826   -1.8198    0.9431 C   0  0  0  0  0  0  0  0  0  0  0  0
   -2.0735    1.2481   -0.3022 C   0  0  0  0  0  0  0  0  0  0  0  0
   -3.5272    0.9392   -0.5084 C   0  0  0  0  0  0  0  0  0  0  0  0
   -3.9899    0.8073   -1.6681 O   0  0  0  0  0  0  0  0  0  0  0  0
   -4.4140    0.7875    0.5891 N   0  0  0  0  0  0  0  0  0  0  0  0
   -5.8002    0.4939    0.3662 C   0  0  0  0  0  0  0  0  0  0  0  0
   -6.6319    1.5017    1.1240 C   0  0  0  0  0  0  0  0  0  0  0  0
   -6.5365    1.1494    2.5931 C   0  0  0  0  0  0  0  0  0  0  0  0
   -7.9125    0.7123    3.0495 C   0  0  0  0  0  0  0  0  0  0  0  0
   -8.3976   -0.3884    2.1310 C   0  0  0  0  0  0  0  0  0  0  0  0
   -7.2933   -1.2318    1.6374 C   0  0  0  0  0  0  0  0  0  0  0  0
   -7.4644   -2.5391    2.0129 C   0  0  0  0  0  0  0  0  0  0  0  0
   -6.5259   -3.4679    1.6397 C   0  0  0  0  0  0  0  0  0  0  0  0
   -5.4153   -3.1393    0.9006 C   0  0  0  0  0  0  0  0  0  0  0  0
   -5.2581   -1.7991    0.5264 C   0  0  0  0  0  0  0  0  0  0  0  0
   -6.1920   -0.8696    0.8969 C   0  0  0  0  0  0  0  0  0  0  0  0
   -1.5258   -1.3985   -0.5536 H   0  0  0  0  0  0  0  0  0  0  0  0
   -1.7047    2.0001   -2.3256 H   0  0  0  0  0  0  0  0  0  0  0  0
    0.6942    1.2512   -2.2849 H   0  0  0  0  0  0  0  0  0  0  0  0
    0.4123    0.5790   -0.6463 H   0  0  0  0  0  0  0  0  0  0  0  0
   -0.2592    2.8458    0.1997 H   0  0  0  0  0  0  0  0  0  0  0  0
    0.0651    3.5844   -1.4489 H   0  0  0  0  0  0  0  0  0  0  0  0
    1.9917    2.3593    0.5502 H   0  0  0  0  0  0  0  0  0  0  0  0
    1.7174    4.0732    0.2121 H   0  0  0  0  0  0  0  0  0  0  0  0
    2.5841    3.8250   -2.0983 H   0  0  0  0  0  0  0  0  0  0  0  0
    3.7599    3.4433   -0.8302 H   0  0  0  0  0  0  0  0  0  0  0  0
    2.9118    1.7079   -2.9808 H   0  0  0  0  0  0  0  0  0  0  0  0
    2.7210   -0.8454   -2.4406 H   0  0  0  0  0  0  0  0  0  0  0  0
    4.3757   -0.3681   -2.8203 H   0  0  0  0  0  0  0  0  0  0  0  0
    4.0617   -2.6477   -2.0379 H   0  0  0  0  0  0  0  0  0  0  0  0
    3.5069   -1.4985    1.2334 H   0  0  0  0  0  0  0  0  0  0  0  0
    6.2161   -1.9526   -2.0571 H   0  0  0  0  0  0  0  0  0  0  0  0
    5.9945   -2.8354   -0.5493 H   0  0  0  0  0  0  0  0  0  0  0  0
    6.3320    0.1912   -0.7993 H   0  0  0  0  0  0  0  0  0  0  0  0
    6.0097   -0.7046    0.7872 H   0  0  0  0  0  0  0  0  0  0  0  0
    8.3392    0.0077   -1.8599 H   0  0  0  0  0  0  0  0  0  0  0  0
   10.7611   -0.4670   -1.6331 H   0  0  0  0  0  0  0  0  0  0  0  0
   11.5626   -1.8448    0.3061 H   0  0  0  0  0  0  0  0  0  0  0  0
    9.9856   -2.7073    1.9457 H   0  0  0  0  0  0  0  0  0  0  0  0
    7.5700   -2.2069    1.6823 H   0  0  0  0  0  0  0  0  0  0  0  0
   -2.0914    2.2555    0.1992 H   0  0  0  0  0  0  0  0  0  0  0  0
   -1.5681    0.5571    0.3736 H   0  0  0  0  0  0  0  0  0  0  0  0
   -4.0090    0.9000    1.5616 H   0  0  0  0  0  0  0  0  0  0  0  0
   -6.0016    0.4962   -0.7269 H   0  0  0  0  0  0  0  0  0  0  0  0
   -7.6721    1.4339    0.7454 H   0  0  0  0  0  0  0  0  0  0  0  0
   -6.3095    2.5437    0.9199 H   0  0  0  0  0  0  0  0  0  0  0  0
   -6.1667    1.9987    3.1671 H   0  0  0  0  0  0  0  0  0  0  0  0
   -5.8646    0.2729    2.7748 H   0  0  0  0  0  0  0  0  0  0  0  0
   -7.8707    0.3948    4.1155 H   0  0  0  0  0  0  0  0  0  0  0  0
   -8.5741    1.5948    2.9397 H   0  0  0  0  0  0  0  0  0  0  0  0
   -9.0836   -1.0136    2.7369 H   0  0  0  0  0  0  0  0  0  0  0  0
   -9.0247    0.0162    1.2990 H   0  0  0  0  0  0  0  0  0  0  0  0
   -8.3400   -2.8574    2.6081 H   0  0  0  0  0  0  0  0  0  0  0  0
   -6.6976   -4.5084    1.9584 H   0  0  0  0  0  0  0  0  0  0  0  0
   -4.6725   -3.8645    0.6036 H   0  0  0  0  0  0  0  0  0  0  0  0
   -4.3773   -1.5566   -0.0555 H   0  0  0  0  0  0  0  0  0  0  0  0
  1  2  1  0
  2  3  2  0
  2  4  1  0
  4  5  1  0
  5  6  1  0
  6  7  1  0
  7  8  1  0
  8  9  1  0
  9 10  1  0
 10 11  2  0
 10 12  1  0
 12 13  1  0
 13 14  1  0
 13 15  1  0
 15 16  1  0
 16 17  1  0
 17 18  2  0
 18 19  1  0
 19 20  2  0
 20 21  1  0
 21 22  2  0
  4 23  1  0
 23 24  1  0
 24 25  2  0
 24 26  1  0
 26 27  1  0
 27 28  1  0
 28 29  1  0
 29 30  1  0
 30 31  1  0
 31 32  1  0
 32 33  2  0
 33 34  1  0
 34 35  2  0
 35 36  1  0
 36 37  2  0
 22 17  1  0
 37 27  1  0
 37 32  1  0
  1 38  1  0
  4 39  1  6
  5 40  1  0
  5 41  1  0
  6 42  1  0
  6 43  1  0
  7 44  1  0
  7 45  1  0
  8 46  1  0
  8 47  1  0
  9 48  1  0
 12 49  1  0
 12 50  1  0
 13 51  1  6
 14 52  1  0
 15 53  1  0
 15 54  1  0
 16 55  1  0
 16 56  1  0
 18 57  1  0
 19 58  1  0
 20 59  1  0
 21 60  1  0
 22 61  1  0
 23 62  1  0
 23 63  1  0
 26 64  1  0
 27 65  1  0
 28 66  1  0
 28 67  1  0
 29 68  1  0
 29 69  1  0
 30 70  1  0
 30 71  1  0
 31 72  1  0
 31 73  1  0
 33 74  1  0
 34 75  1  0
 35 76  1  0
 36 77  1  0
M  END
$$$$
[H]c1nc(-c2c([H])c([H])c([H])c(S(=O)(=O)N([H])C(=O)[C@@]([H])(N([H])[H])C([H])([H])C([H])(C([H])([H])[H])C([H])([H])[H])c2[H])n([H])c1[H]
     RDKit          3D

 43 44  0  0  0  0  0  0  0  0999 V2000
    4.7218   -0.9287    1.4903 C   0  0  0  0  0  0  0  0  0  0  0  0
    4.7758    0.5174    1.1092 C   0  0  0  0  0  0  0  0  0  0  0  0
    6.0443    0.8850    0.4309 C   0  0  0  0  0  0  0  0  0  0  0  0
    3.5231    1.0055    0.4432 C   0  0  0  0  0  0  0  0  0  0  0  0
    3.1813    0.2763   -0.8056 C   0  0  2  0  0  0  0  0  0  0  0  0
    4.1693    0.3322   -1.8236 N   0  0  0  0  0  0  0  0  0  0  0  0
    1.8078    0.5909   -1.3044 C   0  0  0  0  0  0  0  0  0  0  0  0
    1.5915    0.7656   -2.5559 O   0  0  0  0  0  0  0  0  0  0  0  0
    0.6832    0.7084   -0.4558 N   0  0  0  0  0  0  0  0  0  0  0  0
   -0.8918    1.0423   -1.0639 S   0  0  0  0  0  0  0  0  0  0  0  0
   -1.3179    2.4390   -0.7023 O   0  0  0  0  0  0  0  0  0  0  0  0
   -0.8827    0.9512   -2.5518 O   0  0  0  0  0  0  0  0  0  0  0  0
   -1.9969   -0.1355   -0.3666 C   0  0  0  0  0  0  0  0  0  0  0  0
   -1.5533   -1.4288   -0.1142 C   0  0  0  0  0  0  0  0  0  0  0  0
   -2.4255   -2.3556    0.3933 C   0  0  0  0  0  0  0  0  0  0  0  0
   -3.7401   -2.0257    0.6561 C   0  0  0  0  0  0  0  0  0  0  0  0
   -4.1795   -0.7506    0.4062 C   0  0  0  0  0  0  0  0  0  0  0  0
   -3.2997    0.1852   -0.1032 C   0  0  0  0  0  0  0  0  0  0  0  0
   -5.5803   -0.4148    0.6546 C   0  0  0  0  0  0  0  0  0  0  0  0
   -6.4991   -1.2614    1.1407 N   0  0  0  0  0  0  0  0  0  0  0  0
   -7.6996   -0.6996    1.2577 C   0  0  0  0  0  0  0  0  0  0  0  0
   -7.5225    0.6094    0.8080 C   0  0  0  0  0  0  0  0  0  0  0  0
   -6.2307    0.7383    0.4550 N   0  0  0  0  0  0  0  0  0  0  0  0
    3.7204   -1.3913    1.3509 H   0  0  0  0  0  0  0  0  0  0  0  0
    5.0041   -1.1366    2.5409 H   0  0  0  0  0  0  0  0  0  0  0  0
    5.4607   -1.5102    0.8592 H   0  0  0  0  0  0  0  0  0  0  0  0
    4.7939    1.0768    2.1000 H   0  0  0  0  0  0  0  0  0  0  0  0
    5.9648    1.8109   -0.1801 H   0  0  0  0  0  0  0  0  0  0  0  0
    6.4202    0.0469   -0.1996 H   0  0  0  0  0  0  0  0  0  0  0  0
    6.8923    1.1205    1.1410 H   0  0  0  0  0  0  0  0  0  0  0  0
    3.6098    2.0971    0.2834 H   0  0  0  0  0  0  0  0  0  0  0  0
    2.7131    0.8837    1.2237 H   0  0  0  0  0  0  0  0  0  0  0  0
    3.0869   -0.8184   -0.4954 H   0  0  0  0  0  0  0  0  0  0  0  0
    4.0381   -0.3045   -2.6318 H   0  0  0  0  0  0  0  0  0  0  0  0
    4.2591    1.3013   -2.1840 H   0  0  0  0  0  0  0  0  0  0  0  0
    0.8013    0.5992    0.5657 H   0  0  0  0  0  0  0  0  0  0  0  0
   -0.5210   -1.6385   -0.3382 H   0  0  0  0  0  0  0  0  0  0  0  0
   -2.1174   -3.3629    0.6092 H   0  0  0  0  0  0  0  0  0  0  0  0
   -4.4238   -2.7724    1.0643 H   0  0  0  0  0  0  0  0  0  0  0  0
   -3.6360    1.2078   -0.3046 H   0  0  0  0  0  0  0  0  0  0  0  0
   -8.6089   -1.1532    1.6134 H   0  0  0  0  0  0  0  0  0  0  0  0
   -8.3355    1.2999    0.7831 H   0  0  0  0  0  0  0  0  0  0  0  0
   -5.8006    1.5979    0.0859 H   0  0  0  0  0  0  0  0  0  0  0  0
  1  2  1  0
  2  3  1  0
  2  4  1  0
  4  5  1  0
  5  6  1  0
  5  7  1  0
  7  8  2  0
  7  9  1  0
  9 10  1  0
 10 11  2  0
 10 12  2  0
 10 13  1  0
 13 14  2  0
 14 15  1  0
 15 16  2  0
 16 17  1  0
 17 18  2  0
 17 19  1  0
 19 20  2  0
 20 21  1  0
 21 22  2  0
 22 23  1  0
 18 13  1  0
 23 19  1  0
  1 24  1  0
  1 25  1  0
  1 26  1  0
  2 27  1  0
  3 28  1  0
  3 29  1  0
  3 30  1  0
  4 31  1  0
  4 32  1  0
  5 33  1  1
  6 34  1  0
  6 35  1  0
  9 36  1  0
 14 37  1  0
 15 38  1  0
 16 39  1  0
 18 40  1  0
 21 41  1  0
 22 42  1  0
 23 43  1  0
M  END
$$$$
[H]c1nc(-c2nc3c([H])c(Oc4c([H])c([H])c(S(=O)(=O)C([H])([H])[H])c([H])c4[H])c(N4C([H])([H])C([H])([H])C([H])(C(=O)OC(C([H])([H])[H])(C([H])([H])[H])C([H])([H])[H])C([H])([H])C4([H])[H])c([H])c3n2[H])c([H])c(F)c1[H]
     RDKit          3D

 71 75  0  0  0  0  0  0  0  0999 V2000
    7.6012   -0.5086   -0.8568 C   0  0  0  0  0  0  0  0  0  0  0  0
    7.1226   -0.0675    0.5093 C   0  0  0  0  0  0  0  0  0  0  0  0
    7.6592   -1.0210    1.5385 C   0  0  0  0  0  0  0  0  0  0  0  0
    7.7232    1.2992    0.7792 C   0  0  0  0  0  0  0  0  0  0  0  0
    5.7278    0.0724    0.5554 O   0  0  0  0  0  0  0  0  0  0  0  0
    4.8246   -0.9441    0.3104 C   0  0  0  0  0  0  0  0  0  0  0  0
    5.2918   -2.0765    0.0255 O   0  0  0  0  0  0  0  0  0  0  0  0
    3.3429   -0.6893    0.3856 C   0  0  0  0  0  0  0  0  0  0  0  0
    2.9370    0.3742   -0.6131 C   0  0  0  0  0  0  0  0  0  0  0  0
    1.6756    1.0312   -0.1139 C   0  0  0  0  0  0  0  0  0  0  0  0
    0.9022    0.1475    0.7360 N   0  0  0  0  0  0  0  0  0  0  0  0
    1.5084   -0.2481    1.9950 C   0  0  0  0  0  0  0  0  0  0  0  0
    3.0029   -0.2295    1.7912 C   0  0  0  0  0  0  0  0  0  0  0  0
   -0.3794   -0.3318    0.4018 C   0  0  0  0  0  0  0  0  0  0  0  0
   -0.5521   -1.6952    0.3011 C   0  0  0  0  0  0  0  0  0  0  0  0
   -1.7991   -2.1880   -0.0253 C   0  0  0  0  0  0  0  0  0  0  0  0
   -2.2148   -3.4561   -0.1814 N   0  0  0  0  0  0  0  0  0  0  0  0
   -3.5205   -3.3910   -0.4982 C   0  0  0  0  0  0  0  0  0  0  0  0
   -3.9083   -2.1189   -0.5385 N   0  0  0  0  0  0  0  0  0  0  0  0
   -2.8473   -1.3251   -0.2448 C   0  0  0  0  0  0  0  0  0  0  0  0
   -2.6403    0.0216   -0.1364 C   0  0  0  0  0  0  0  0  0  0  0  0
   -1.4111    0.5568    0.1874 C   0  0  0  0  0  0  0  0  0  0  0  0
   -1.1571    1.8923    0.3069 O   0  0  0  0  0  0  0  0  0  0  0  0
   -2.0996    2.8940    0.1192 C   0  0  0  0  0  0  0  0  0  0  0  0
   -2.2986    3.4543   -1.1277 C   0  0  0  0  0  0  0  0  0  0  0  0
   -3.2358    4.4510   -1.3164 C   0  0  0  0  0  0  0  0  0  0  0  0
   -4.0147    4.9366   -0.2867 C   0  0  0  0  0  0  0  0  0  0  0  0
   -3.8144    4.3757    0.9578 C   0  0  0  0  0  0  0  0  0  0  0  0
   -2.8783    3.3790    1.1504 C   0  0  0  0  0  0  0  0  0  0  0  0
   -5.2019    6.2004   -0.5302 S   0  0  0  0  0  0  0  0  0  0  0  0
   -6.7498    5.4444   -0.9437 C   0  0  0  0  0  0  0  0  0  0  0  0
   -5.3093    7.1207    0.6273 O   0  0  0  0  0  0  0  0  0  0  0  0
   -4.7966    7.0400   -1.7339 O   0  0  0  0  0  0  0  0  0  0  0  0
   -4.3718   -4.5555   -0.7565 C   0  0  0  0  0  0  0  0  0  0  0  0
   -3.8715   -5.8314   -0.6888 C   0  0  0  0  0  0  0  0  0  0  0  0
   -4.6303   -6.9650   -0.9231 C   0  0  0  0  0  0  0  0  0  0  0  0
   -4.1301   -8.2188   -0.8545 F   0  0  0  0  0  0  0  0  0  0  0  0
   -5.9601   -6.7639   -1.2400 C   0  0  0  0  0  0  0  0  0  0  0  0
   -6.4552   -5.4674   -1.3055 C   0  0  0  0  0  0  0  0  0  0  0  0
   -5.6622   -4.4043   -1.0658 N   0  0  0  0  0  0  0  0  0  0  0  0
    6.7245   -0.4990   -1.5676 H   0  0  0  0  0  0  0  0  0  0  0  0
    8.0246   -1.5188   -0.8294 H   0  0  0  0  0  0  0  0  0  0  0  0
    8.3424    0.1687   -1.2873 H   0  0  0  0  0  0  0  0  0  0  0  0
    7.8038   -2.0547    1.1108 H   0  0  0  0  0  0  0  0  0  0  0  0
    8.6972   -0.6756    1.7885 H   0  0  0  0  0  0  0  0  0  0  0  0
    7.1002   -1.0295    2.4800 H   0  0  0  0  0  0  0  0  0  0  0  0
    7.5865    1.9707   -0.0925 H   0  0  0  0  0  0  0  0  0  0  0  0
    8.7637    1.2393    1.1334 H   0  0  0  0  0  0  0  0  0  0  0  0
    7.1291    1.7352    1.6171 H   0  0  0  0  0  0  0  0  0  0  0  0
    2.8335   -1.6216    0.1047 H   0  0  0  0  0  0  0  0  0  0  0  0
    2.7052   -0.0885   -1.6083 H   0  0  0  0  0  0  0  0  0  0  0  0
    3.7380    1.1090   -0.7975 H   0  0  0  0  0  0  0  0  0  0  0  0
    1.9976    1.8828    0.5388 H   0  0  0  0  0  0  0  0  0  0  0  0
    1.0758    1.4318   -0.9332 H   0  0  0  0  0  0  0  0  0  0  0  0
    1.2354    0.4973    2.7861 H   0  0  0  0  0  0  0  0  0  0  0  0
    1.1730   -1.2648    2.3139 H   0  0  0  0  0  0  0  0  0  0  0  0
    3.5322   -0.9060    2.4877 H   0  0  0  0  0  0  0  0  0  0  0  0
    3.3444    0.8182    1.8942 H   0  0  0  0  0  0  0  0  0  0  0  0
    0.2549   -2.4027    0.4682 H   0  0  0  0  0  0  0  0  0  0  0  0
   -1.6393   -4.3432   -0.0786 H   0  0  0  0  0  0  0  0  0  0  0  0
   -3.4915    0.6986   -0.3156 H   0  0  0  0  0  0  0  0  0  0  0  0
   -1.6824    3.0726   -1.9509 H   0  0  0  0  0  0  0  0  0  0  0  0
   -3.3877    4.8899   -2.3071 H   0  0  0  0  0  0  0  0  0  0  0  0
   -4.4181    4.7461    1.7765 H   0  0  0  0  0  0  0  0  0  0  0  0
   -2.7170    2.9361    2.1220 H   0  0  0  0  0  0  0  0  0  0  0  0
   -7.3881    6.2467   -1.3963 H   0  0  0  0  0  0  0  0  0  0  0  0
   -7.2248    4.9519   -0.0960 H   0  0  0  0  0  0  0  0  0  0  0  0
   -6.5634    4.7193   -1.7577 H   0  0  0  0  0  0  0  0  0  0  0  0
   -2.8303   -5.9598   -0.4395 H   0  0  0  0  0  0  0  0  0  0  0  0
   -6.6222   -7.5965   -1.4377 H   0  0  0  0  0  0  0  0  0  0  0  0
   -7.5065   -5.3480   -1.5577 H   0  0  0  0  0  0  0  0  0  0  0  0
  1  2  1  0
  2  3  1  0
  2  4  1  0
  2  5  1  0
  5  6  1  0
  6  7  2  0
  6  8  1  0
  8  9  1  0
  9 10  1  0
 10 11  1  0
 11 12  1  0
 12 13  1  0
 11 14  1  0
 14 15  2  0
 15 16  1  0
 16 17  1  0
 17 18  1  0
 18 19  2  0
 19 20  1  0
 20 21  1  0
 21 22  2  0
 22 23  1  0
 23 24  1  0
 24 25  2  0
 25 26  1  0
 26 27  2  0
 27 28  1  0
 28 29  2  0
 27 30  1  0
 30 31  1  0
 30 32  2  0
 30 33  2  0
 18 34  1  0
 34 35  2  0
 35 36  1  0
 36 37  1  0
 36 38  2  0
 38 39  1  0
 39 40  2  0
 13  8  1  0
 22 14  1  0
 29 24  1  0
 40 34  1  0
 20 16  2  0
  1 41  1  0
  1 42  1  0
  1 43  1  0
  3 44  1  0
  3 45  1  0
  3 46  1  0
  4 47  1  0
  4 48  1  0
  4 49  1  0
  8 50  1  0
  9 51  1  0
  9 52  1  0
 10 53  1  0
 10 54  1  0
 12 55  1  0
 12 56  1  0
 13 57  1  0
 13 58  1  0
 15 59  1  0
 17 60  1  0
 21 61  1  0
 25 62  1  0
 26 63  1  0
 28 64  1  0
 29 65  1  0
 31 66  1  0
 31 67  1  0
 31 68  1  0
 35 69  1  0
 38 70  1  0
 39 71  1  0
M  END
$$$$
[H]OC([H])([H])C([H])([H])Oc1c(-c2c([H])nc([H])nc2[H])c([H])c2nc(N([H])C(=O)N([H])C([H])([H])C([H])([H])[H])sc2c1[H]
     RDKit          3D

 42 44  0  0  0  0  0  0  0  0999 V2000
    6.7769    2.3786    0.2966 C   0  0  0  0  0  0  0  0  0  0  0  0
    7.0680    0.9558    0.7109 C   0  0  0  0  0  0  0  0  0  0  0  0
    6.1878    0.0521    0.0346 N   0  0  0  0  0  0  0  0  0  0  0  0
    4.7981    0.1490    0.1931 C   0  0  0  0  0  0  0  0  0  0  0  0
    4.3561    1.0724    0.9619 O   0  0  0  0  0  0  0  0  0  0  0  0
    3.8810   -0.7167   -0.4504 N   0  0  0  0  0  0  0  0  0  0  0  0
    2.4908   -0.5469   -0.2332 C   0  0  0  0  0  0  0  0  0  0  0  0
    1.5126   -1.2542   -0.7458 N   0  0  0  0  0  0  0  0  0  0  0  0
    0.2690   -0.9715   -0.4463 C   0  0  0  0  0  0  0  0  0  0  0  0
   -0.8693   -1.6409   -0.9191 C   0  0  0  0  0  0  0  0  0  0  0  0
   -2.1252   -1.2861   -0.5611 C   0  0  0  0  0  0  0  0  0  0  0  0
   -3.2752   -2.0094   -1.0815 C   0  0  0  0  0  0  0  0  0  0  0  0
   -3.2765   -3.3742   -1.0737 C   0  0  0  0  0  0  0  0  0  0  0  0
   -4.3683   -4.0423   -1.5725 N   0  0  0  0  0  0  0  0  0  0  0  0
   -5.4152   -3.3454   -2.0590 C   0  0  0  0  0  0  0  0  0  0  0  0
   -5.4379   -2.0000   -2.0778 N   0  0  0  0  0  0  0  0  0  0  0  0
   -4.3467   -1.3302   -1.5793 C   0  0  0  0  0  0  0  0  0  0  0  0
   -2.3701   -0.2116    0.3177 C   0  0  0  0  0  0  0  0  0  0  0  0
   -3.6328    0.1188    0.6597 O   0  0  0  0  0  0  0  0  0  0  0  0
   -4.1861    1.0842    1.4531 C   0  0  0  0  0  0  0  0  0  0  0  0
   -3.9822    2.5105    1.0733 C   0  0  0  0  0  0  0  0  0  0  0  0
   -4.6465    3.3062    2.0401 O   0  0  0  0  0  0  0  0  0  0  0  0
   -1.2506    0.4368    0.7752 C   0  0  0  0  0  0  0  0  0  0  0  0
    0.0492    0.0709    0.4054 C   0  0  0  0  0  0  0  0  0  0  0  0
    1.6409    0.5926    0.7330 S   0  0  0  0  0  0  0  0  0  0  0  0
    6.1090    2.8773    1.0296 H   0  0  0  0  0  0  0  0  0  0  0  0
    6.3654    2.4366   -0.7160 H   0  0  0  0  0  0  0  0  0  0  0  0
    7.7410    2.9366    0.2842 H   0  0  0  0  0  0  0  0  0  0  0  0
    8.1156    0.6992    0.4550 H   0  0  0  0  0  0  0  0  0  0  0  0
    6.9595    0.8159    1.8237 H   0  0  0  0  0  0  0  0  0  0  0  0
    6.5625   -0.7050   -0.5965 H   0  0  0  0  0  0  0  0  0  0  0  0
    4.2201   -1.4585   -1.0671 H   0  0  0  0  0  0  0  0  0  0  0  0
   -0.7691   -2.4906   -1.6085 H   0  0  0  0  0  0  0  0  0  0  0  0
   -2.4702   -3.9899   -0.6985 H   0  0  0  0  0  0  0  0  0  0  0  0
   -6.2908   -3.8795   -2.4590 H   0  0  0  0  0  0  0  0  0  0  0  0
   -4.4264   -0.2529   -1.6255 H   0  0  0  0  0  0  0  0  0  0  0  0
   -5.2876    0.9514    1.6145 H   0  0  0  0  0  0  0  0  0  0  0  0
   -3.7729    0.9906    2.5106 H   0  0  0  0  0  0  0  0  0  0  0  0
   -4.4001    2.7573    0.0714 H   0  0  0  0  0  0  0  0  0  0  0  0
   -2.9423    2.8383    1.1139 H   0  0  0  0  0  0  0  0  0  0  0  0
   -4.2545    4.2081    2.0188 H   0  0  0  0  0  0  0  0  0  0  0  0
   -1.3072    1.2666    1.4632 H   0  0  0  0  0  0  0  0  0  0  0  0
  1  2  1  0
  2  3  1  0
  3  4  1  0
  4  5  2  0
  4  6  1  0
  6  7  1  0
  7  8  2  0
  8  9  1  0
  9 10  2  0
 10 11  1  0
 11 12  1  0
 12 13  2  0
 13 14  1  0
 14 15  2  0
 15 16  1  0
 16 17  2  0
 11 18  2  0
 18 19  1  0
 19 20  1  0
 20 21  1  0
 21 22  1  0
 18 23  1  0
 23 24  2  0
 24 25  1  0
 25  7  1  0
 24  9  1  0
 17 12  1  0
  1 26  1  0
  1 27  1  0
  1 28  1  0
  2 29  1  0
  2 30  1  0
  3 31  1  0
  6 32  1  0
 10 33  1  0
 13 34  1  0
 15 35  1  0
 17 36  1  0
 20 37  1  0
 20 38  1  0
 21 39  1  0
 21 40  1  0
 22 41  1  0
 23 42  1  0
M  END
$$$$
[H]c1c([H])c([H])c(C([H])(c2c([H])c([H])c(Br)c([H])c2[H])N([H])C(=S)c2c([H])c([H])c(S(=O)(=O)N([H])[H])c3c([H])c([H])c(Cl)c([H])c23)c([H])c1[H]
     RDKit          3D

 50 53  0  0  0  0  0  0  0  0999 V2000
    5.8016    2.6852   -0.0912 N   0  0  0  0  0  0  0  0  0  0  0  0
    4.1494    3.0938    0.1806 S   0  0  0  0  0  0  0  0  0  0  0  0
    3.8798    4.3708   -0.5522 O   0  0  0  0  0  0  0  0  0  0  0  0
    3.9363    3.3737    1.6415 O   0  0  0  0  0  0  0  0  0  0  0  0
    3.0556    1.8305   -0.3864 C   0  0  0  0  0  0  0  0  0  0  0  0
    2.1327    2.0971   -1.3885 C   0  0  0  0  0  0  0  0  0  0  0  0
    1.2821    1.1095   -1.8404 C   0  0  0  0  0  0  0  0  0  0  0  0
    1.2943   -0.1693   -1.3392 C   0  0  0  0  0  0  0  0  0  0  0  0
    0.3615   -1.1490   -1.8883 C   0  0  0  0  0  0  0  0  0  0  0  0
    0.7977   -1.9081   -3.3044 S   0  0  0  0  0  0  0  0  0  0  0  0
   -0.8754   -1.5178   -1.3382 N   0  0  0  0  0  0  0  0  0  0  0  0
   -1.4745   -0.9981   -0.1283 C   0  0  0  0  0  0  0  0  0  0  0  0
   -2.7048   -1.8019    0.1702 C   0  0  0  0  0  0  0  0  0  0  0  0
   -2.6782   -3.1711    0.0270 C   0  0  0  0  0  0  0  0  0  0  0  0
   -3.8230   -3.9274    0.3093 C   0  0  0  0  0  0  0  0  0  0  0  0
   -4.9871   -3.3235    0.7317 C   0  0  0  0  0  0  0  0  0  0  0  0
   -6.5727   -4.3017    1.1295 Br  0  0  0  0  0  0  0  0  0  0  0  0
   -5.0114   -1.9403    0.8757 C   0  0  0  0  0  0  0  0  0  0  0  0
   -3.8609   -1.1917    0.5909 C   0  0  0  0  0  0  0  0  0  0  0  0
   -1.8656    0.4367   -0.2424 C   0  0  0  0  0  0  0  0  0  0  0  0
   -2.5277    0.9400   -1.3298 C   0  0  0  0  0  0  0  0  0  0  0  0
   -2.8695    2.2618   -1.3842 C   0  0  0  0  0  0  0  0  0  0  0  0
   -2.5666    3.1503   -0.3529 C   0  0  0  0  0  0  0  0  0  0  0  0
   -1.9010    2.6359    0.7361 C   0  0  0  0  0  0  0  0  0  0  0  0
   -1.5467    1.3001    0.8091 C   0  0  0  0  0  0  0  0  0  0  0  0
    2.2079   -0.4448   -0.3429 C   0  0  0  0  0  0  0  0  0  0  0  0
    2.2402   -1.7230    0.1736 C   0  0  0  0  0  0  0  0  0  0  0  0
    3.1627   -1.9765    1.1675 C   0  0  0  0  0  0  0  0  0  0  0  0
    3.2386   -3.5879    1.8528 Cl  0  0  0  0  0  0  0  0  0  0  0  0
    4.0253   -1.0211    1.6445 C   0  0  0  0  0  0  0  0  0  0  0  0
    3.9849    0.2526    1.1214 C   0  0  0  0  0  0  0  0  0  0  0  0
    3.0754    0.5514    0.1223 C   0  0  0  0  0  0  0  0  0  0  0  0
    6.3599    2.6381    0.7670 H   0  0  0  0  0  0  0  0  0  0  0  0
    5.8449    1.8272   -0.6904 H   0  0  0  0  0  0  0  0  0  0  0  0
    2.1176    3.0886   -1.7824 H   0  0  0  0  0  0  0  0  0  0  0  0
    0.5851    1.3855   -2.6259 H   0  0  0  0  0  0  0  0  0  0  0  0
   -1.4273   -2.2597   -1.8745 H   0  0  0  0  0  0  0  0  0  0  0  0
   -0.7744   -1.1531    0.7052 H   0  0  0  0  0  0  0  0  0  0  0  0
   -1.7678   -3.6395   -0.3030 H   0  0  0  0  0  0  0  0  0  0  0  0
   -3.8189   -5.0014    0.2022 H   0  0  0  0  0  0  0  0  0  0  0  0
   -5.9053   -1.4438    1.2033 H   0  0  0  0  0  0  0  0  0  0  0  0
   -3.8598   -0.1246    0.6994 H   0  0  0  0  0  0  0  0  0  0  0  0
   -2.7769    0.2890   -2.1401 H   0  0  0  0  0  0  0  0  0  0  0  0
   -3.3969    2.7082   -2.2285 H   0  0  0  0  0  0  0  0  0  0  0  0
   -2.8469    4.2080   -0.4103 H   0  0  0  0  0  0  0  0  0  0  0  0
   -1.6578    3.3301    1.5550 H   0  0  0  0  0  0  0  0  0  0  0  0
   -1.0228    0.9089    1.6728 H   0  0  0  0  0  0  0  0  0  0  0  0
    1.5770   -2.5028   -0.1758 H   0  0  0  0  0  0  0  0  0  0  0  0
    4.7485   -1.2196    2.4239 H   0  0  0  0  0  0  0  0  0  0  0  0
    4.6612    1.0245    1.4915 H   0  0  0  0  0  0  0  0  0  0  0  0
  1  2  1  0
  2  3  2  0
  2  4  2  0
  2  5  1  0
  5  6  2  0
  6  7  1  0
  7  8  2  0
  8  9  1  0
  9 10  2  0
  9 11  1  0
 11 12  1  0
 12 13  1  0
 13 14  2  0
 14 15  1  0
 15 16  2  0
 16 17  1  0
 16 18  1  0
 18 19  2  0
 12 20  1  0
 20 21  2  0
 21 22  1  0
 22 23  2  0
 23 24  1  0
 24 25  2  0
  8 26  1  0
 26 27  2  0
 27 28  1  0
 28 29  1  0
 28 30  2  0
 30 31  1  0
 31 32  2  0
 32  5  1  0
 19 13  1  0
 25 20  1  0
 32 26  1  0
  1 33  1  0
  1 34  1  0
  6 35  1  0
  7 36  1  0
 11 37  1  0
 12 38  1  0
 14 39  1  0
 15 40  1  0
 18 41  1  0
 19 42  1  0
 21 43  1  0
 22 44  1  0
 23 45  1  0
 24 46  1  0
 25 47  1  0
 27 48  1  0
 30 49  1  0
 31 50  1  0
M  END
$$$$
[H]OC([H])([H])C(n1nc([H])c2c1-c1nc(-c3nc([H])nn3C([H])(C([H])([H])[H])C([H])([H])[H])sc1C([H])([H])C([H])([H])C2([H])[H])(C([H])([H])[H])C([H])([H])[H]
     RDKit          3D

 50 53  0  0  0  0  0  0  0  0999 V2000
    4.7773    0.8543   -0.1977 C   0  0  0  0  0  0  0  0  0  0  0  0
    4.3106   -0.2931   -1.0430 C   0  0  0  0  0  0  0  0  0  0  0  0
    5.5764   -0.9694   -1.5919 C   0  0  0  0  0  0  0  0  0  0  0  0
    3.6105   -1.2987   -0.2934 N   0  0  0  0  0  0  0  0  0  0  0  0
    4.0851   -2.4666    0.1684 N   0  0  0  0  0  0  0  0  0  0  0  0
    3.1283   -3.1273    0.8187 C   0  0  0  0  0  0  0  0  0  0  0  0
    2.0445   -2.3619    0.7615 N   0  0  0  0  0  0  0  0  0  0  0  0
    2.3447   -1.2494    0.0826 C   0  0  0  0  0  0  0  0  0  0  0  0
    1.3481   -0.1834   -0.1599 C   0  0  0  0  0  0  0  0  0  0  0  0
    0.0936   -0.1137    0.2019 N   0  0  0  0  0  0  0  0  0  0  0  0
   -0.6403    0.9009   -0.0959 C   0  0  0  0  0  0  0  0  0  0  0  0
   -0.0202    1.9108   -0.8195 C   0  0  0  0  0  0  0  0  0  0  0  0
   -0.5989    3.2189   -1.2862 C   0  0  0  0  0  0  0  0  0  0  0  0
   -1.0475    3.8990    0.0165 C   0  0  0  0  0  0  0  0  0  0  0  0
   -2.4179    3.5705    0.4369 C   0  0  0  0  0  0  0  0  0  0  0  0
   -2.7863    2.1470    0.5357 C   0  0  0  0  0  0  0  0  0  0  0  0
   -4.0731    1.7249    0.9047 C   0  0  0  0  0  0  0  0  0  0  0  0
   -4.0454    0.4262    0.8795 N   0  0  0  0  0  0  0  0  0  0  0  0
   -2.8467   -0.0986    0.5236 N   0  0  0  0  0  0  0  0  0  0  0  0
   -2.0738    0.9775    0.3138 C   0  0  0  0  0  0  0  0  0  0  0  0
   -2.5054   -1.4837    0.3930 C   0  0  0  0  0  0  0  0  0  0  0  0
   -1.8273   -2.1374    1.5590 C   0  0  0  0  0  0  0  0  0  0  0  0
   -2.0903   -1.9621   -0.9693 C   0  0  0  0  0  0  0  0  0  0  0  0
   -3.9183   -2.1639    0.4883 C   0  0  0  0  0  0  0  0  0  0  0  0
   -4.5139   -1.8778    1.6791 O   0  0  0  0  0  0  0  0  0  0  0  0
    1.5574    1.3091   -1.0067 S   0  0  0  0  0  0  0  0  0  0  0  0
    5.8382    0.7311    0.1016 H   0  0  0  0  0  0  0  0  0  0  0  0
    4.2041    0.9341    0.7502 H   0  0  0  0  0  0  0  0  0  0  0  0
    4.7299    1.7818   -0.7976 H   0  0  0  0  0  0  0  0  0  0  0  0
    3.7592    0.0500   -1.9529 H   0  0  0  0  0  0  0  0  0  0  0  0
    5.9228   -0.4632   -2.5116 H   0  0  0  0  0  0  0  0  0  0  0  0
    5.3724   -2.0273   -1.8568 H   0  0  0  0  0  0  0  0  0  0  0  0
    6.3981   -0.9471   -0.8689 H   0  0  0  0  0  0  0  0  0  0  0  0
    3.1498   -4.0932    1.3185 H   0  0  0  0  0  0  0  0  0  0  0  0
   -1.5058    3.0072   -1.8689 H   0  0  0  0  0  0  0  0  0  0  0  0
    0.1747    3.7844   -1.8040 H   0  0  0  0  0  0  0  0  0  0  0  0
   -0.9648    4.9946   -0.1250 H   0  0  0  0  0  0  0  0  0  0  0  0
   -0.3466    3.6415    0.8416 H   0  0  0  0  0  0  0  0  0  0  0  0
   -2.5493    4.0075    1.4774 H   0  0  0  0  0  0  0  0  0  0  0  0
   -3.1946    4.1320   -0.1763 H   0  0  0  0  0  0  0  0  0  0  0  0
   -4.8835    2.3801    1.1492 H   0  0  0  0  0  0  0  0  0  0  0  0
   -0.9282   -2.7561    1.2569 H   0  0  0  0  0  0  0  0  0  0  0  0
   -1.5518   -1.4048    2.3764 H   0  0  0  0  0  0  0  0  0  0  0  0
   -2.4231   -2.8882    2.1207 H   0  0  0  0  0  0  0  0  0  0  0  0
   -1.9941   -1.1246   -1.7229 H   0  0  0  0  0  0  0  0  0  0  0  0
   -1.1549   -2.5996   -0.9493 H   0  0  0  0  0  0  0  0  0  0  0  0
   -2.7973   -2.6478   -1.4847 H   0  0  0  0  0  0  0  0  0  0  0  0
   -4.5221   -1.8559   -0.3829 H   0  0  0  0  0  0  0  0  0  0  0  0
   -3.7880   -3.2644    0.4172 H   0  0  0  0  0  0  0  0  0  0  0  0
   -4.4163   -2.5243    2.3923 H   0  0  0  0  0  0  0  0  0  0  0  0
  1  2  1  0
  2  3  1  0
  2  4  1  0
  4  5  1  0
  5  6  2  0
  6  7  1  0
  7  8  2  0
  8  9  1  0
  9 10  2  0
 10 11  1  0
 11 12  2  0
 12 13  1  0
 13 14  1  0
 14 15  1  0
 15 16  1  0
 16 17  1  0
 17 18  2  0
 18 19  1  0
 19 20  1  0
 19 21  1  0
 21 22  1  0
 21 23  1  0
 21 24  1  0
 24 25  1  0
 12 26  1  0
  8  4  1  0
 26  9  1  0
 11 20  1  0
 20 16  2  0
  1 27  1  0
  1 28  1  0
  1 29  1  0
  2 30  1  0
  3 31  1  0
  3 32  1  0
  3 33  1  0
  6 34  1  0
 13 35  1  0
 13 36  1  0
 14 37  1  0
 14 38  1  0
 15 39  1  0
 15 40  1  0
 17 41  1  0
 22 42  1  0
 22 43  1  0
 22 44  1  0
 23 45  1  0
 23 46  1  0
 23 47  1  0
 24 48  1  0
 24 49  1  0
 25 50  1  0
M  END
$$$$
[H]c1nc([H])c(-c2c([H])c([H])c([H])c(N([H])C(=O)c3c([H])c([H])c(N([H])c4nc([H])c(Cl)c(N([H])C5([H])C([H])([H])C([H])([H])C([H])([H])C([H])([H])C5([H])[H])n4)c(OC([H])([H])[H])c3[H])c2[H])c([H])c1[H]
     RDKit          3D

 67 71  0  0  0  0  0  0  0  0999 V2000
    0.3782   -1.7060    2.8538 C   0  0  0  0  0  0  0  0  0  0  0  0
    0.9941   -1.0804    1.7463 O   0  0  0  0  0  0  0  0  0  0  0  0
    0.2286   -0.5772    0.7051 C   0  0  0  0  0  0  0  0  0  0  0  0
   -1.1374   -0.6731    0.7232 C   0  0  0  0  0  0  0  0  0  0  0  0
   -1.9102   -0.1689   -0.3209 C   0  0  0  0  0  0  0  0  0  0  0  0
   -1.2353    0.4196   -1.3516 C   0  0  0  0  0  0  0  0  0  0  0  0
    0.1627    0.5215   -1.3776 C   0  0  0  0  0  0  0  0  0  0  0  0
    0.9254    0.0284   -0.3554 C   0  0  0  0  0  0  0  0  0  0  0  0
    2.3310    0.0937   -0.2995 N   0  0  0  0  0  0  0  0  0  0  0  0
    3.2263    0.6299   -1.2370 C   0  0  0  0  0  0  0  0  0  0  0  0
    2.9082    1.1915   -2.3913 N   0  0  0  0  0  0  0  0  0  0  0  0
    3.7260    1.7066   -3.2949 C   0  0  0  0  0  0  0  0  0  0  0  0
    5.0816    1.6644   -3.0219 C   0  0  0  0  0  0  0  0  0  0  0  0
    6.2362    2.3283   -4.1714 Cl  0  0  0  0  0  0  0  0  0  0  0  0
    5.4839    1.0922   -1.8347 C   0  0  0  0  0  0  0  0  0  0  0  0
    6.8790    1.0547   -1.5515 N   0  0  0  0  0  0  0  0  0  0  0  0
    7.4838    0.5052   -0.3843 C   0  0  0  0  0  0  0  0  0  0  0  0
    7.1913   -0.9743   -0.3104 C   0  0  0  0  0  0  0  0  0  0  0  0
    8.1794   -1.6241    0.6550 C   0  0  0  0  0  0  0  0  0  0  0  0
    8.7135   -0.5859    1.6260 C   0  0  0  0  0  0  0  0  0  0  0  0
    7.6183    0.3691    2.0746 C   0  0  0  0  0  0  0  0  0  0  0  0
    7.1061    1.2068    0.9048 C   0  0  0  0  0  0  0  0  0  0  0  0
    4.5771    0.5972   -0.9833 N   0  0  0  0  0  0  0  0  0  0  0  0
   -3.3811   -0.2871   -0.2574 C   0  0  0  0  0  0  0  0  0  0  0  0
   -3.8805   -0.6337    0.8273 O   0  0  0  0  0  0  0  0  0  0  0  0
   -4.1744   -0.0183   -1.3781 N   0  0  0  0  0  0  0  0  0  0  0  0
   -5.5894   -0.0768   -1.4746 C   0  0  0  0  0  0  0  0  0  0  0  0
   -6.1871   -0.1353   -2.7414 C   0  0  0  0  0  0  0  0  0  0  0  0
   -7.5497   -0.1708   -2.8444 C   0  0  0  0  0  0  0  0  0  0  0  0
   -8.3699   -0.1507   -1.7218 C   0  0  0  0  0  0  0  0  0  0  0  0
   -7.8132   -0.0935   -0.4696 C   0  0  0  0  0  0  0  0  0  0  0  0
   -6.4137   -0.0576   -0.3882 C   0  0  0  0  0  0  0  0  0  0  0  0
   -8.6316   -0.0707    0.7285 C   0  0  0  0  0  0  0  0  0  0  0  0
   -9.8626    0.5343    0.6775 C   0  0  0  0  0  0  0  0  0  0  0  0
  -10.6396    0.5568    1.8146 C   0  0  0  0  0  0  0  0  0  0  0  0
  -10.1940   -0.0130    2.9750 C   0  0  0  0  0  0  0  0  0  0  0  0
   -8.9880   -0.5998    3.0054 N   0  0  0  0  0  0  0  0  0  0  0  0
   -8.2159   -0.6325    1.9092 C   0  0  0  0  0  0  0  0  0  0  0  0
   -0.3357   -2.4856    2.4661 H   0  0  0  0  0  0  0  0  0  0  0  0
    1.1533   -2.2248    3.4682 H   0  0  0  0  0  0  0  0  0  0  0  0
   -0.1902   -0.9938    3.4751 H   0  0  0  0  0  0  0  0  0  0  0  0
   -1.6650   -1.1462    1.5534 H   0  0  0  0  0  0  0  0  0  0  0  0
   -1.8061    0.8344   -2.1942 H   0  0  0  0  0  0  0  0  0  0  0  0
    0.5761    1.0058   -2.2411 H   0  0  0  0  0  0  0  0  0  0  0  0
    2.8013   -0.3189    0.5749 H   0  0  0  0  0  0  0  0  0  0  0  0
    3.3871    2.1572   -4.2328 H   0  0  0  0  0  0  0  0  0  0  0  0
    7.5201    1.4723   -2.2727 H   0  0  0  0  0  0  0  0  0  0  0  0
    8.5932    0.5912   -0.4624 H   0  0  0  0  0  0  0  0  0  0  0  0
    6.1600   -1.1390    0.0084 H   0  0  0  0  0  0  0  0  0  0  0  0
    7.3255   -1.3908   -1.3290 H   0  0  0  0  0  0  0  0  0  0  0  0
    9.0086   -2.0456    0.0759 H   0  0  0  0  0  0  0  0  0  0  0  0
    7.6427   -2.4042    1.2032 H   0  0  0  0  0  0  0  0  0  0  0  0
    9.0525   -1.1127    2.5365 H   0  0  0  0  0  0  0  0  0  0  0  0
    9.5716   -0.0319    1.2256 H   0  0  0  0  0  0  0  0  0  0  0  0
    6.8174   -0.1801    2.5824 H   0  0  0  0  0  0  0  0  0  0  0  0
    8.0998    1.0374    2.8331 H   0  0  0  0  0  0  0  0  0  0  0  0
    7.6431    2.1768    0.9417 H   0  0  0  0  0  0  0  0  0  0  0  0
    6.0335    1.3899    1.0069 H   0  0  0  0  0  0  0  0  0  0  0  0
   -3.6798    0.2688   -2.2885 H   0  0  0  0  0  0  0  0  0  0  0  0
   -5.5399   -0.1516   -3.6180 H   0  0  0  0  0  0  0  0  0  0  0  0
   -8.0182   -0.2169   -3.8365 H   0  0  0  0  0  0  0  0  0  0  0  0
   -9.4487   -0.1808   -1.8556 H   0  0  0  0  0  0  0  0  0  0  0  0
   -6.0373    0.0002    0.6118 H   0  0  0  0  0  0  0  0  0  0  0  0
  -10.2509    0.9987   -0.2288 H   0  0  0  0  0  0  0  0  0  0  0  0
  -11.6235    1.0376    1.7837 H   0  0  0  0  0  0  0  0  0  0  0  0
  -10.8163    0.0071    3.8792 H   0  0  0  0  0  0  0  0  0  0  0  0
   -7.2315   -1.1253    1.9797 H   0  0  0  0  0  0  0  0  0  0  0  0
  1  2  1  0
  2  3  1  0
  3  4  2  0
  4  5  1  0
  5  6  2  0
  6  7  1  0
  7  8  2  0
  8  9  1  0
  9 10  1  0
 10 11  2  0
 11 12  1  0
 12 13  2  0
 13 14  1  0
 13 15  1  0
 15 16  1  0
 16 17  1  0
 17 18  1  0
 18 19  1  0
 19 20  1  0
 20 21  1  0
 21 22  1  0
 15 23  2  0
  5 24  1  0
 24 25  2  0
 24 26  1  0
 26 27  1  0
 27 28  2  0
 28 29  1  0
 29 30  2  0
 30 31  1  0
 31 32  2  0
 31 33  1  0
 33 34  2  0
 34 35  1  0
 35 36  2  0
 36 37  1  0
 37 38  2  0
  8  3  1  0
 23 10  1  0
 32 27  1  0
 38 33  1  0
 22 17  1  0
  1 39  1  0
  1 40  1  0
  1 41  1  0
  4 42  1  0
  6 43  1  0
  7 44  1  0
  9 45  1  0
 12 46  1  0
 16 47  1  0
 17 48  1  0
 18 49  1  0
 18 50  1  0
 19 51  1  0
 19 52  1  0
 20 53  1  0
 20 54  1  0
 21 55  1  0
 21 56  1  0
 22 57  1  0
 22 58  1  0
 26 59  1  0
 28 60  1  0
 29 61  1  0
 30 62  1  0
 32 63  1  0
 34 64  1  0
 35 65  1  0
 36 66  1  0
 38 67  1  0
M  END
$$$$
[H]Cl.[H]Oc1c([H])c([H])c(OC(=O)c2c([H])c([H])c(C([H])([H])N([H])S(=O)(=O)C([H])([H])c3c([H])c([H])c([H])c([H])c3[H])c([H])c2[H])c([H])c1[H]
     RDKit          3D

 49 50  0  0  0  0  0  0  0  0999 V2000
    0.6866    0.0000    0.0000 Cl  0  0  0  0  0  0  0  0  0  0  0  0
    9.2912    0.2117    2.3446 O   0  0  0  0  0  0  0  0  0  0  0  0
    7.9885    0.0913    1.8783 C   0  0  0  0  0  0  0  0  0  0  0  0
    7.7176   -0.3473    0.5971 C   0  0  0  0  0  0  0  0  0  0  0  0
    6.4217   -0.4707    0.1233 C   0  0  0  0  0  0  0  0  0  0  0  0
    5.3458   -0.1551    0.9267 C   0  0  0  0  0  0  0  0  0  0  0  0
    4.0273   -0.2736    0.4646 O   0  0  0  0  0  0  0  0  0  0  0  0
    3.3484    0.7384   -0.1602 C   0  0  0  0  0  0  0  0  0  0  0  0
    3.9294    1.8399   -0.3349 O   0  0  0  0  0  0  0  0  0  0  0  0
    1.9660    0.5967   -0.6385 C   0  0  0  0  0  0  0  0  0  0  0  0
    1.2804   -0.5885   -0.4739 C   0  0  0  0  0  0  0  0  0  0  0  0
   -0.0229   -0.7557   -0.9127 C   0  0  0  0  0  0  0  0  0  0  0  0
   -0.6809    0.2689   -1.5339 C   0  0  0  0  0  0  0  0  0  0  0  0
   -2.0770    0.1847   -2.0381 C   0  0  0  0  0  0  0  0  0  0  0  0
   -2.6770   -1.0886   -1.8090 N   0  0  0  0  0  0  0  0  0  0  0  0
   -4.2820   -1.0659   -2.4293 S   0  0  0  0  0  0  0  0  0  0  0  0
   -4.9229   -2.4110   -2.2549 O   0  0  0  0  0  0  0  0  0  0  0  0
   -4.2451   -0.6714   -3.8922 O   0  0  0  0  0  0  0  0  0  0  0  0
   -5.2887    0.1398   -1.6072 C   0  0  0  0  0  0  0  0  0  0  0  0
   -5.4316   -0.1012   -0.1607 C   0  0  0  0  0  0  0  0  0  0  0  0
   -4.5663    0.4652    0.7265 C   0  0  0  0  0  0  0  0  0  0  0  0
   -4.6967    0.2368    2.1004 C   0  0  0  0  0  0  0  0  0  0  0  0
   -5.7115   -0.5698    2.5641 C   0  0  0  0  0  0  0  0  0  0  0  0
   -6.6035   -1.1554    1.6693 C   0  0  0  0  0  0  0  0  0  0  0  0
   -6.4428   -0.9068    0.3211 C   0  0  0  0  0  0  0  0  0  0  0  0
   -0.0112    1.4612   -1.7072 C   0  0  0  0  0  0  0  0  0  0  0  0
    1.3058    1.6317   -1.2643 C   0  0  0  0  0  0  0  0  0  0  0  0
    5.6164    0.2831    2.2068 C   0  0  0  0  0  0  0  0  0  0  0  0
    6.9075    0.4038    2.6725 C   0  0  0  0  0  0  0  0  0  0  0  0
   -0.6866    0.0000    0.0000 H   0  0  0  0  0  0  0  0  0  0  0  0
    9.8364    1.0570    2.2521 H   0  0  0  0  0  0  0  0  0  0  0  0
    8.5612   -0.6017   -0.0528 H   0  0  0  0  0  0  0  0  0  0  0  0
    6.2406   -0.8183   -0.8890 H   0  0  0  0  0  0  0  0  0  0  0  0
    1.8251   -1.4002    0.0272 H   0  0  0  0  0  0  0  0  0  0  0  0
   -0.5414   -1.6879   -0.7753 H   0  0  0  0  0  0  0  0  0  0  0  0
   -2.0225    0.3170   -3.1619 H   0  0  0  0  0  0  0  0  0  0  0  0
   -2.6470    1.0463   -1.6718 H   0  0  0  0  0  0  0  0  0  0  0  0
   -2.7443   -1.2713   -0.7836 H   0  0  0  0  0  0  0  0  0  0  0  0
   -4.8483    1.1414   -1.8137 H   0  0  0  0  0  0  0  0  0  0  0  0
   -6.2966    0.1555   -2.0529 H   0  0  0  0  0  0  0  0  0  0  0  0
   -3.7455    1.1108    0.4518 H   0  0  0  0  0  0  0  0  0  0  0  0
   -4.0092    0.6877    2.7945 H   0  0  0  0  0  0  0  0  0  0  0  0
   -5.7777   -0.7209    3.6333 H   0  0  0  0  0  0  0  0  0  0  0  0
   -7.3748   -1.7744    2.0857 H   0  0  0  0  0  0  0  0  0  0  0  0
   -7.1638   -1.3839   -0.3613 H   0  0  0  0  0  0  0  0  0  0  0  0
   -0.5085    2.2931   -2.1974 H   0  0  0  0  0  0  0  0  0  0  0  0
    1.8249    2.5704   -1.4039 H   0  0  0  0  0  0  0  0  0  0  0  0
    4.7870    0.5337    2.8470 H   0  0  0  0  0  0  0  0  0  0  0  0
    7.1185    0.7536    3.6939 H   0  0  0  0  0  0  0  0  0  0  0  0
  2  3  1  0
  3  4  2  0
  4  5  1  0
  5  6  2  0
  6  7  1  0
  7  8  1  0
  8  9  2  0
  8 10  1  0
 10 11  2  0
 11 12  1  0
 12 13  2  0
 13 14  1  0
 14 15  1  0
 15 16  1  0
 16 17  2  0
 16 18  2  0
 16 19  1  0
 19 20  1  0
 20 21  2  0
 21 22  1  0
 22 23  2  0
 23 24  1  0
 24 25  2  0
 13 26  1  0
 26 27  2  0
  6 28  1  0
 28 29  2  0
 29  3  1  0
 27 10  1  0
 25 20  1  0
  1 30  1  0
  2 31  1  0
  4 32  1  0
  5 33  1  0
 11 34  1  0
 12 35  1  0
 14 36  1  0
 14 37  1  0
 15 38  1  0
 19 39  1  0
 19 40  1  0
 21 41  1  0
 22 42  1  0
 23 43  1  0
 24 44  1  0
 25 45  1  0
 26 46  1  0
 27 47  1  0
 28 48  1  0
 29 49  1  0
M  END
$$$$
[H]OC(=O)C(Oc1c([H])c2c([H])c([H])c([H])c([H])c2c2c1c(C(=O)C(=O)N([H])[H])c(C([H])([H])C([H])([H])[H])n2C([H])([H])c1c([H])c([H])c([H])c([H])c1[H])(C([H])([H])[H])C([H])([H])[H]
     RDKit          3D

 60 63  0  0  0  0  0  0  0  0999 V2000
    1.5210    3.1322    1.5445 C   0  0  0  0  0  0  0  0  0  0  0  0
    1.4325    2.8898    0.0597 C   0  0  0  0  0  0  0  0  0  0  0  0
    0.8828    1.5482   -0.3018 C   0  0  0  0  0  0  0  0  0  0  0  0
   -0.4631    1.3069   -0.1237 C   0  0  0  0  0  0  0  0  0  0  0  0
   -1.3999    2.3119    0.3716 C   0  0  0  0  0  0  0  0  0  0  0  0
   -1.5909    2.4766    1.5745 O   0  0  0  0  0  0  0  0  0  0  0  0
   -2.1018    3.1146   -0.6254 C   0  0  0  0  0  0  0  0  0  0  0  0
   -3.0310    4.1100   -0.2003 N   0  0  0  0  0  0  0  0  0  0  0  0
   -1.9306    2.9747   -1.8442 O   0  0  0  0  0  0  0  0  0  0  0  0
   -0.7236    0.0435   -0.5737 C   0  0  0  0  0  0  0  0  0  0  0  0
   -1.9067   -0.6963   -0.6870 C   0  0  0  0  0  0  0  0  0  0  0  0
   -3.0727   -0.1242   -0.1868 O   0  0  0  0  0  0  0  0  0  0  0  0
   -3.7297   -0.4002    0.9905 C   0  0  0  0  0  0  0  0  0  0  0  0
   -4.8007    0.7329    1.1591 C   0  0  0  0  0  0  0  0  0  0  0  0
   -3.0225   -0.5979    2.2479 C   0  0  0  0  0  0  0  0  0  0  0  0
   -4.7147   -1.5693    0.7767 C   0  0  0  0  0  0  0  0  0  0  0  0
   -5.0511   -1.9200   -0.4930 O   0  0  0  0  0  0  0  0  0  0  0  0
   -5.1842   -2.1580    1.7881 O   0  0  0  0  0  0  0  0  0  0  0  0
   -1.8532   -1.9213   -1.2578 C   0  0  0  0  0  0  0  0  0  0  0  0
   -0.6366   -2.4165   -1.7102 C   0  0  0  0  0  0  0  0  0  0  0  0
   -0.6016   -3.6736   -2.2982 C   0  0  0  0  0  0  0  0  0  0  0  0
    0.5647   -4.2222   -2.7721 C   0  0  0  0  0  0  0  0  0  0  0  0
    1.7110   -3.4984   -2.6536 C   0  0  0  0  0  0  0  0  0  0  0  0
    1.7329   -2.2107   -2.0620 C   0  0  0  0  0  0  0  0  0  0  0  0
    0.5541   -1.7032   -1.6048 C   0  0  0  0  0  0  0  0  0  0  0  0
    0.5103   -0.4479   -1.0251 C   0  0  0  0  0  0  0  0  0  0  0  0
    1.4881    0.4614   -0.8586 N   0  0  0  0  0  0  0  0  0  0  0  0
    2.8872    0.4934   -1.1160 C   0  0  0  0  0  0  0  0  0  0  0  0
    3.7728   -0.0459   -0.0593 C   0  0  0  0  0  0  0  0  0  0  0  0
    5.0388   -0.4838   -0.3901 C   0  0  0  0  0  0  0  0  0  0  0  0
    5.8862   -1.0264    0.5839 C   0  0  0  0  0  0  0  0  0  0  0  0
    5.4426   -1.1206    1.8865 C   0  0  0  0  0  0  0  0  0  0  0  0
    4.1796   -0.6888    2.2389 C   0  0  0  0  0  0  0  0  0  0  0  0
    3.3808   -0.1587    1.2308 C   0  0  0  0  0  0  0  0  0  0  0  0
    1.2401    2.2214    2.1300 H   0  0  0  0  0  0  0  0  0  0  0  0
    0.9283    3.9880    1.9069 H   0  0  0  0  0  0  0  0  0  0  0  0
    2.5797    3.3587    1.8572 H   0  0  0  0  0  0  0  0  0  0  0  0
    2.3782    3.1518   -0.3819 H   0  0  0  0  0  0  0  0  0  0  0  0
    0.7159    3.6986   -0.3088 H   0  0  0  0  0  0  0  0  0  0  0  0
   -2.7377    5.0423    0.1674 H   0  0  0  0  0  0  0  0  0  0  0  0
   -4.0392    3.8785   -0.2674 H   0  0  0  0  0  0  0  0  0  0  0  0
   -4.3373    1.6258    1.6134 H   0  0  0  0  0  0  0  0  0  0  0  0
   -5.1842    0.8943    0.1427 H   0  0  0  0  0  0  0  0  0  0  0  0
   -5.5879    0.3931    1.8499 H   0  0  0  0  0  0  0  0  0  0  0  0
   -3.0263   -1.6364    2.6465 H   0  0  0  0  0  0  0  0  0  0  0  0
   -1.9435   -0.3425    2.1312 H   0  0  0  0  0  0  0  0  0  0  0  0
   -3.4362    0.0841    3.0423 H   0  0  0  0  0  0  0  0  0  0  0  0
   -5.3988   -1.2482   -1.1960 H   0  0  0  0  0  0  0  0  0  0  0  0
   -2.6916   -2.5404   -1.3898 H   0  0  0  0  0  0  0  0  0  0  0  0
   -1.5480   -4.2090   -2.3673 H   0  0  0  0  0  0  0  0  0  0  0  0
    0.5361   -5.1942   -3.2169 H   0  0  0  0  0  0  0  0  0  0  0  0
    2.6775   -3.8800   -3.0125 H   0  0  0  0  0  0  0  0  0  0  0  0
    2.6603   -1.7439   -2.0233 H   0  0  0  0  0  0  0  0  0  0  0  0
    3.2286    1.5985   -1.1248 H   0  0  0  0  0  0  0  0  0  0  0  0
    3.2154    0.2693   -2.1562 H   0  0  0  0  0  0  0  0  0  0  0  0
    5.3789   -0.4050   -1.4182 H   0  0  0  0  0  0  0  0  0  0  0  0
    6.8835   -1.3719    0.3280 H   0  0  0  0  0  0  0  0  0  0  0  0
    6.0757   -1.5350    2.6586 H   0  0  0  0  0  0  0  0  0  0  0  0
    3.8508   -0.7718    3.2661 H   0  0  0  0  0  0  0  0  0  0  0  0
    2.4112    0.1615    1.5137 H   0  0  0  0  0  0  0  0  0  0  0  0
  1  2  1  0
  2  3  1  0
  3  4  2  0
  4  5  1  0
  5  6  2  0
  5  7  1  0
  7  8  1  0
  7  9  2  0
  4 10  1  0
 10 11  2  0
 11 12  1  0
 12 13  1  0
 13 14  1  0
 13 15  1  0
 13 16  1  0
 16 17  1  0
 16 18  2  0
 11 19  1  0
 19 20  2  0
 20 21  1  0
 21 22  2  0
 22 23  1  0
 23 24  2  0
 24 25  1  0
 25 26  2  0
 26 27  1  0
 27 28  1  0
 28 29  1  0
 29 30  2  0
 30 31  1  0
 31 32  2  0
 32 33  1  0
 33 34  2  0
 27  3  1  0
 34 29  1  0
 26 10  1  0
 25 20  1  0
  1 35  1  0
  1 36  1  0
  1 37  1  0
  2 38  1  0
  2 39  1  0
  8 40  1  0
  8 41  1  0
 14 42  1  0
 14 43  1  0
 14 44  1  0
 15 45  1  0
 15 46  1  0
 15 47  1  0
 17 48  1  0
 19 49  1  0
 21 50  1  0
 22 51  1  0
 23 52  1  0
 24 53  1  0
 28 54  1  0
 28 55  1  0
 30 56  1  0
 31 57  1  0
 32 58  1  0
 33 59  1  0
 34 60  1  0
M  END
$$$$
[H]c1c([H])c(-c2o[n+]([H])c(C(F)(F)F)c2[H])c([H])c(Cl)c1F
     RDKit          3D

 22 23  0  0  0  0  0  0  0  0999 V2000
   -5.0379   -0.0095    0.8541 F   0  0  0  0  0  0  0  0  0  0  0  0
   -3.6907   -0.0021    0.4942 C   0  0  0  0  0  0  0  0  0  0  0  0
   -3.2901    0.8392   -0.5063 C   0  0  0  0  0  0  0  0  0  0  0  0
   -1.9439    0.8963   -0.8865 C   0  0  0  0  0  0  0  0  0  0  0  0
   -1.0114    0.1073   -0.2686 C   0  0  0  0  0  0  0  0  0  0  0  0
   -1.4635   -0.7453    0.7552 C   0  0  0  0  0  0  0  0  0  0  0  0
   -2.8003   -0.8185    1.1449 C   0  0  0  0  0  0  0  0  0  0  0  0
   -3.3152   -1.9031    2.3917 Cl  0  0  0  0  0  0  0  0  0  0  0  0
    0.4011    0.0635   -0.6148 C   0  0  0  0  0  0  0  0  0  0  0  0
    1.0424    0.1152   -1.7436 O   0  0  0  0  0  0  0  0  0  0  0  0
    2.3163    0.0681   -1.6097 N   0  0  0  0  0  0  0  0  0  0  0  0
    2.5847   -0.0217   -0.2911 C   0  0  0  0  0  0  0  0  0  0  0  0
    1.3853   -0.0319    0.3466 C   0  0  0  0  0  0  0  0  0  0  0  0
    3.9134   -0.0463    0.4173 C   0  0  0  0  0  0  0  0  0  0  0  0
    4.5389   -1.2769    0.2684 F   0  0  0  0  0  0  0  0  0  0  0  0
    4.7886    0.8539   -0.2088 F   0  0  0  0  0  0  0  0  0  0  0  0
    3.7325    0.2063    1.7585 F   0  0  0  0  0  0  0  0  0  0  0  0
   -4.0640    1.4484   -0.9979 H   0  0  0  0  0  0  0  0  0  0  0  0
   -1.6630    1.5825   -1.6639 H   0  0  0  0  0  0  0  0  0  0  0  0
   -0.7553   -1.3398    1.2466 H   0  0  0  0  0  0  0  0  0  0  0  0
    3.1139    0.0477   -2.2735 H   0  0  0  0  0  0  0  0  0  0  0  0
    1.2180   -0.0334    1.3873 H   0  0  0  0  0  0  0  0  0  0  0  0
  1  2  1  0
  2  3  2  0
  3  4  1  0
  4  5  2  0
  5  6  1  0
  6  7  2  0
  7  8  1  0
  5  9  1  0
  9 10  1  0
 10 11  1  0
 11 12  2  0
 12 13  1  0
 12 14  1  0
 14 15  1  0
 14 16  1  0
 14 17  1  0
  7  2  1  0
 13  9  2  0
  3 18  1  0
  4 19  1  0
  6 20  1  0
 11 21  1  0
 13 22  1  0
M  CHG  1  11   1
M  END
$$$$
[H]c1nc(N([H])c2c([H])c(C#CC([H])([H])N([H])[H])n(OC([H])([H])[H])c2[H])c2c(n1)c([H])c([H])n2[H]
     RDKit          3D

 35 37  0  0  0  0  0  0  0  0999 V2000
    2.6261    2.2264    1.8678 C   0  0  0  0  0  0  0  0  0  0  0  0
    2.6021    1.6990    0.5703 O   0  0  0  0  0  0  0  0  0  0  0  0
    1.6738    0.8140    0.1052 N   0  0  0  0  0  0  0  0  0  0  0  0
    0.3460    0.9015    0.2946 C   0  0  0  0  0  0  0  0  0  0  0  0
   -0.2887   -0.1519   -0.3065 C   0  0  0  0  0  0  0  0  0  0  0  0
   -1.6450   -0.5292   -0.4077 N   0  0  0  0  0  0  0  0  0  0  0  0
   -2.7212    0.1940    0.1579 C   0  0  0  0  0  0  0  0  0  0  0  0
   -2.5642    1.3254    0.8568 N   0  0  0  0  0  0  0  0  0  0  0  0
   -3.5966    1.9884    1.3800 C   0  0  0  0  0  0  0  0  0  0  0  0
   -4.8226    1.5131    1.2037 N   0  0  0  0  0  0  0  0  0  0  0  0
   -5.0689    0.3858    0.5164 C   0  0  0  0  0  0  0  0  0  0  0  0
   -6.2152   -0.3124    0.1912 C   0  0  0  0  0  0  0  0  0  0  0  0
   -5.8436   -1.4207   -0.5465 C   0  0  0  0  0  0  0  0  0  0  0  0
   -4.5130   -1.3966   -0.6658 N   0  0  0  0  0  0  0  0  0  0  0  0
   -4.0122   -0.3001   -0.0237 C   0  0  0  0  0  0  0  0  0  0  0  0
    0.7542   -0.8939   -0.8804 C   0  0  0  0  0  0  0  0  0  0  0  0
    1.9596   -0.2797   -0.6143 C   0  0  0  0  0  0  0  0  0  0  0  0
    3.2896   -0.6654   -0.9922 C   0  0  0  0  0  0  0  0  0  0  0  0
    4.4144   -1.0129   -1.3076 C   0  0  0  0  0  0  0  0  0  0  0  0
    5.7738   -1.4334   -1.6628 C   0  0  0  0  0  0  0  0  0  0  0  0
    6.6647   -0.9134   -0.6290 N   0  0  0  0  0  0  0  0  0  0  0  0
    3.1767    1.5484    2.5775 H   0  0  0  0  0  0  0  0  0  0  0  0
    1.6062    2.4598    2.2454 H   0  0  0  0  0  0  0  0  0  0  0  0
    3.2408    3.1640    1.8269 H   0  0  0  0  0  0  0  0  0  0  0  0
   -0.1021    1.6991    0.8435 H   0  0  0  0  0  0  0  0  0  0  0  0
   -1.9054   -1.4155   -0.9414 H   0  0  0  0  0  0  0  0  0  0  0  0
   -3.3740    2.9077    1.9383 H   0  0  0  0  0  0  0  0  0  0  0  0
   -7.2037    0.0006    0.4889 H   0  0  0  0  0  0  0  0  0  0  0  0
   -6.5085   -2.1754   -0.9562 H   0  0  0  0  0  0  0  0  0  0  0  0
   -3.8684   -2.0653   -1.1535 H   0  0  0  0  0  0  0  0  0  0  0  0
    0.6586   -1.8059   -1.4466 H   0  0  0  0  0  0  0  0  0  0  0  0
    5.8964   -2.5252   -1.6660 H   0  0  0  0  0  0  0  0  0  0  0  0
    5.9943   -1.0098   -2.6587 H   0  0  0  0  0  0  0  0  0  0  0  0
    6.1094   -0.9417    0.2775 H   0  0  0  0  0  0  0  0  0  0  0  0
    7.4664   -1.5789   -0.4831 H   0  0  0  0  0  0  0  0  0  0  0  0
  1  2  1  0
  2  3  1  0
  3  4  1  0
  4  5  2  0
  5  6  1  0
  6  7  1  0
  7  8  2  0
  8  9  1  0
  9 10  2  0
 10 11  1  0
 11 12  1  0
 12 13  2  0
 13 14  1  0
 14 15  1  0
  5 16  1  0
 16 17  2  0
 17 18  1  0
 18 19  3  0
 19 20  1  0
 20 21  1  0
 17  3  1  0
 15  7  1  0
 15 11  2  0
  1 22  1  0
  1 23  1  0
  1 24  1  0
  4 25  1  0
  6 26  1  0
  9 27  1  0
 12 28  1  0
 13 29  1  0
 14 30  1  0
 16 31  1  0
 20 32  1  0
 20 33  1  0
 21 34  1  0
 21 35  1  0
M  END
$$$$
[H]c1c([H])c([H])c(-c2c([H])c([H])c([H])c([H])c2SC([H])(C([H])([H])C([H])([H])[H])C([H])([H])C([H])([H])C(=O)N([H])c2c([H])c([H])c([H])c(OC([H])([H])[H])c2[H])c([H])c1[H]
     RDKit          3D

 56 58  0  0  0  0  0  0  0  0999 V2000
    8.3107    0.5162   -2.9142 C   0  0  0  0  0  0  0  0  0  0  0  0
    6.9435    0.7512   -2.7220 O   0  0  0  0  0  0  0  0  0  0  0  0
    6.3624    0.4512   -1.4891 C   0  0  0  0  0  0  0  0  0  0  0  0
    7.1488   -0.0692   -0.4908 C   0  0  0  0  0  0  0  0  0  0  0  0
    6.5774   -0.3620    0.7156 C   0  0  0  0  0  0  0  0  0  0  0  0
    5.2313   -0.1512    0.9652 C   0  0  0  0  0  0  0  0  0  0  0  0
    4.4373    0.3710   -0.0345 C   0  0  0  0  0  0  0  0  0  0  0  0
    3.0553    0.6216    0.0810 N   0  0  0  0  0  0  0  0  0  0  0  0
    2.1796    0.2450    1.1108 C   0  0  0  0  0  0  0  0  0  0  0  0
    2.5355   -0.3988    2.1090 O   0  0  0  0  0  0  0  0  0  0  0  0
    0.7244    0.6686    0.9565 C   0  0  0  0  0  0  0  0  0  0  0  0
    0.0190    0.1641    2.1413 C   0  0  0  0  0  0  0  0  0  0  0  0
   -1.4693    0.3944    2.2451 C   0  0  0  0  0  0  0  0  0  0  0  0
   -1.9091    1.8018    2.2030 C   0  0  0  0  0  0  0  0  0  0  0  0
   -1.6227    2.6353    1.0327 C   0  0  0  0  0  0  0  0  0  0  0  0
   -2.5078   -0.8835    1.6290 S   0  0  0  0  0  0  0  0  0  0  0  0
   -2.6004   -1.2862   -0.0485 C   0  0  0  0  0  0  0  0  0  0  0  0
   -1.5048   -1.9204   -0.6220 C   0  0  0  0  0  0  0  0  0  0  0  0
   -1.5328   -2.3313   -1.9191 C   0  0  0  0  0  0  0  0  0  0  0  0
   -2.6478   -2.1323   -2.7071 C   0  0  0  0  0  0  0  0  0  0  0  0
   -3.7162   -1.5063   -2.1214 C   0  0  0  0  0  0  0  0  0  0  0  0
   -3.7416   -1.0627   -0.7877 C   0  0  0  0  0  0  0  0  0  0  0  0
   -4.9702   -0.4587   -0.2984 C   0  0  0  0  0  0  0  0  0  0  0  0
   -5.1602    0.7344    0.2978 C   0  0  0  0  0  0  0  0  0  0  0  0
   -6.3900    1.1952    0.7461 C   0  0  0  0  0  0  0  0  0  0  0  0
   -7.4883    0.4140    0.5854 C   0  0  0  0  0  0  0  0  0  0  0  0
   -7.3531   -0.8177   -0.0196 C   0  0  0  0  0  0  0  0  0  0  0  0
   -6.1198   -1.2524   -0.4559 C   0  0  0  0  0  0  0  0  0  0  0  0
    5.0351    0.6629   -1.2550 C   0  0  0  0  0  0  0  0  0  0  0  0
    8.5181   -0.5483   -2.6623 H   0  0  0  0  0  0  0  0  0  0  0  0
    8.9035    1.1762   -2.2202 H   0  0  0  0  0  0  0  0  0  0  0  0
    8.6184    0.6434   -3.9678 H   0  0  0  0  0  0  0  0  0  0  0  0
    8.2167   -0.2430   -0.6695 H   0  0  0  0  0  0  0  0  0  0  0  0
    7.1698   -0.7798    1.5425 H   0  0  0  0  0  0  0  0  0  0  0  0
    4.8154   -0.3876    1.9308 H   0  0  0  0  0  0  0  0  0  0  0  0
    2.6112    1.1749   -0.7147 H   0  0  0  0  0  0  0  0  0  0  0  0
    0.4207    0.3228   -0.0162 H   0  0  0  0  0  0  0  0  0  0  0  0
    0.8416    1.8064    0.9736 H   0  0  0  0  0  0  0  0  0  0  0  0
    0.1536   -0.9531    2.1639 H   0  0  0  0  0  0  0  0  0  0  0  0
    0.4912    0.6122    3.0531 H   0  0  0  0  0  0  0  0  0  0  0  0
   -1.5841    0.1941    3.4299 H   0  0  0  0  0  0  0  0  0  0  0  0
   -1.4811    2.3266    3.1148 H   0  0  0  0  0  0  0  0  0  0  0  0
   -3.0165    1.8009    2.4366 H   0  0  0  0  0  0  0  0  0  0  0  0
   -0.8722    3.4295    1.2375 H   0  0  0  0  0  0  0  0  0  0  0  0
   -2.5547    3.2274    0.7684 H   0  0  0  0  0  0  0  0  0  0  0  0
   -1.3432    2.1384    0.1027 H   0  0  0  0  0  0  0  0  0  0  0  0
   -0.5961   -2.1084   -0.0590 H   0  0  0  0  0  0  0  0  0  0  0  0
   -0.6853   -2.8267   -2.3772 H   0  0  0  0  0  0  0  0  0  0  0  0
   -2.6759   -2.4610   -3.7540 H   0  0  0  0  0  0  0  0  0  0  0  0
   -4.6214   -1.3257   -2.7033 H   0  0  0  0  0  0  0  0  0  0  0  0
   -4.3383    1.3831    0.4287 H   0  0  0  0  0  0  0  0  0  0  0  0
   -6.4694    2.1590    1.2144 H   0  0  0  0  0  0  0  0  0  0  0  0
   -8.4677    0.7719    0.9382 H   0  0  0  0  0  0  0  0  0  0  0  0
   -8.2534   -1.4229   -0.1351 H   0  0  0  0  0  0  0  0  0  0  0  0
   -6.0765   -2.2175   -0.9182 H   0  0  0  0  0  0  0  0  0  0  0  0
    4.4497    1.0744   -2.0706 H   0  0  0  0  0  0  0  0  0  0  0  0
  1  2  1  0
  2  3  1  0
  3  4  2  0
  4  5  1  0
  5  6  2  0
  6  7  1  0
  7  8  1  0
  8  9  1  0
  9 10  2  0
  9 11  1  0
 11 12  1  0
 12 13  1  0
 13 14  1  0
 14 15  1  0
 13 16  1  0
 16 17  1  0
 17 18  2  0
 18 19  1  0
 19 20  2  0
 20 21  1  0
 21 22  2  0
 22 23  1  0
 23 24  2  0
 24 25  1  0
 25 26  2  0
 26 27  1  0
 27 28  2  0
  7 29  2  0
 29  3  1  0
 22 17  1  0
 28 23  1  0
  1 30  1  0
  1 31  1  0
  1 32  1  0
  4 33  1  0
  5 34  1  0
  6 35  1  0
  8 36  1  0
 11 37  1  0
 11 38  1  0
 12 39  1  0
 12 40  1  0
 13 41  1  0
 14 42  1  0
 14 43  1  0
 15 44  1  0
 15 45  1  0
 15 46  1  0
 18 47  1  0
 19 48  1  0
 20 49  1  0
 21 50  1  0
 24 51  1  0
 25 52  1  0
 26 53  1  0
 27 54  1  0
 28 55  1  0
 29 56  1  0
M  END
$$$$
[H]c1c([H])c([H])c(C([H])([H])OC(=O)N([H])[C@]([H])(C(=O)N2C([H])([H])C([H])([H])C([H])([H])[C@]2([H])C(=O)N([H])[C@@]([H])(C(=O)c2nc3c([H])c([H])c([H])c([H])c3o2)C([H])([H])C([H])([H])C([H])([H])N=C(N([H])[H])N([H])[H])C([H])([H])C([H])([H])C(=O)N2C([H])([H])C([H])([H])N([H])C([H])([H])C2([H])[H])c([H])c1[H]
     RDKit          3D

 96100  0  0  0  0  0  0  0  0999 V2000
    8.1007   -3.1850   -0.7153 N   0  0  0  0  0  0  0  0  0  0  0  0
    8.0410   -2.3169    0.3620 C   0  0  0  0  0  0  0  0  0  0  0  0
    9.1777   -1.5480    0.7368 N   0  0  0  0  0  0  0  0  0  0  0  0
    6.9820   -2.1653    1.0878 N   0  0  0  0  0  0  0  0  0  0  0  0
    5.8099   -2.9415    0.7572 C   0  0  0  0  0  0  0  0  0  0  0  0
    4.7845   -2.0868    0.0527 C   0  0  0  0  0  0  0  0  0  0  0  0
    4.3882   -0.8957    0.8907 C   0  0  0  0  0  0  0  0  0  0  0  0
    3.2977   -0.0704    0.2816 C   0  0  1  0  0  0  0  0  0  0  0  0
    2.0845   -0.8047    0.1186 N   0  0  0  0  0  0  0  0  0  0  0  0
    0.9492   -0.4339   -0.6279 C   0  0  0  0  0  0  0  0  0  0  0  0
    0.9910    0.7058   -1.1844 O   0  0  0  0  0  0  0  0  0  0  0  0
   -0.2487   -1.2305   -0.8204 C   0  0  1  0  0  0  0  0  0  0  0  0
   -0.4034   -2.4378    0.0576 C   0  0  0  0  0  0  0  0  0  0  0  0
   -1.2172   -1.9466    1.2016 C   0  0  0  0  0  0  0  0  0  0  0  0
   -1.8777   -0.6646    0.6933 C   0  0  0  0  0  0  0  0  0  0  0  0
   -1.5262   -0.6033   -0.7074 N   0  0  0  0  0  0  0  0  0  0  0  0
   -2.2793    0.0251   -1.7086 C   0  0  0  0  0  0  0  0  0  0  0  0
   -1.8466    0.2878   -2.8726 O   0  0  0  0  0  0  0  0  0  0  0  0
   -3.7139    0.4597   -1.5158 C   0  0  2  0  0  0  0  0  0  0  0  0
   -4.5482   -0.4519   -2.4582 C   0  0  0  0  0  0  0  0  0  0  0  0
   -4.4242   -1.8957   -2.1716 C   0  0  0  0  0  0  0  0  0  0  0  0
   -4.9469   -2.2640   -0.8421 C   0  0  0  0  0  0  0  0  0  0  0  0
   -5.5443   -1.4723   -0.0690 O   0  0  0  0  0  0  0  0  0  0  0  0
   -4.7645   -3.6199   -0.3858 N   0  0  0  0  0  0  0  0  0  0  0  0
   -5.2509   -4.0121    0.9074 C   0  0  0  0  0  0  0  0  0  0  0  0
   -6.1296   -5.2485    0.7946 C   0  0  0  0  0  0  0  0  0  0  0  0
   -5.5449   -6.2326   -0.0620 N   0  0  0  0  0  0  0  0  0  0  0  0
   -4.2097   -5.9285   -0.5154 C   0  0  0  0  0  0  0  0  0  0  0  0
   -4.1054   -4.5862   -1.2196 C   0  0  0  0  0  0  0  0  0  0  0  0
   -3.8028    1.8046   -2.0602 N   0  0  0  0  0  0  0  0  0  0  0  0
   -4.5105    2.8425   -1.3507 C   0  0  0  0  0  0  0  0  0  0  0  0
   -5.0220    2.5211   -0.2812 O   0  0  0  0  0  0  0  0  0  0  0  0
   -4.6038    4.1155   -1.8527 O   0  0  0  0  0  0  0  0  0  0  0  0
   -5.2834    5.1715   -1.1898 C   0  0  0  0  0  0  0  0  0  0  0  0
   -4.6253    5.4028    0.1389 C   0  0  0  0  0  0  0  0  0  0  0  0
   -3.3443    5.9050    0.1071 C   0  0  0  0  0  0  0  0  0  0  0  0
   -2.6544    6.1537    1.2681 C   0  0  0  0  0  0  0  0  0  0  0  0
   -3.2693    5.8900    2.4941 C   0  0  0  0  0  0  0  0  0  0  0  0
   -4.5525    5.3883    2.5179 C   0  0  0  0  0  0  0  0  0  0  0  0
   -5.2400    5.1412    1.3297 C   0  0  0  0  0  0  0  0  0  0  0  0
    3.1007    1.2119    1.0152 C   0  0  0  0  0  0  0  0  0  0  0  0
    2.0111    1.4488    1.5603 O   0  0  0  0  0  0  0  0  0  0  0  0
    4.2257    2.1792    1.0678 C   0  0  0  0  0  0  0  0  0  0  0  0
    4.3359    3.3607    1.6547 N   0  0  0  0  0  0  0  0  0  0  0  0
    5.5465    3.9030    1.4365 C   0  0  0  0  0  0  0  0  0  0  0  0
    6.2216    5.0540    1.7663 C   0  0  0  0  0  0  0  0  0  0  0  0
    7.5066    5.3355    1.3745 C   0  0  0  0  0  0  0  0  0  0  0  0
    8.1464    4.3671    0.5875 C   0  0  0  0  0  0  0  0  0  0  0  0
    7.5215    3.2050    0.2310 C   0  0  0  0  0  0  0  0  0  0  0  0
    6.2224    2.9604    0.6483 C   0  0  0  0  0  0  0  0  0  0  0  0
    5.3977    1.9662    0.4628 O   0  0  0  0  0  0  0  0  0  0  0  0
    8.3226   -4.2206   -0.6113 H   0  0  0  0  0  0  0  0  0  0  0  0
    7.9347   -2.9052   -1.7257 H   0  0  0  0  0  0  0  0  0  0  0  0
    9.8971   -1.2442    0.0630 H   0  0  0  0  0  0  0  0  0  0  0  0
    9.3183   -1.2636    1.7485 H   0  0  0  0  0  0  0  0  0  0  0  0
    5.3846   -3.4291    1.6614 H   0  0  0  0  0  0  0  0  0  0  0  0
    6.1294   -3.7730    0.0964 H   0  0  0  0  0  0  0  0  0  0  0  0
    3.9302   -2.6713   -0.3019 H   0  0  0  0  0  0  0  0  0  0  0  0
    5.2479   -1.6505   -0.8826 H   0  0  0  0  0  0  0  0  0  0  0  0
    5.2681   -0.3359    1.2269 H   0  0  0  0  0  0  0  0  0  0  0  0
    3.9536   -1.3443    1.8397 H   0  0  0  0  0  0  0  0  0  0  0  0
    3.6483    0.2901   -0.7375 H   0  0  0  0  0  0  0  0  0  0  0  0
    2.0328   -1.7427    0.6188 H   0  0  0  0  0  0  0  0  0  0  0  0
   -0.1728   -1.5984   -1.9290 H   0  0  0  0  0  0  0  0  0  0  0  0
   -1.0720   -3.1426   -0.5243 H   0  0  0  0  0  0  0  0  0  0  0  0
    0.5217   -2.9709    0.3005 H   0  0  0  0  0  0  0  0  0  0  0  0
   -2.0472   -2.6665    1.4300 H   0  0  0  0  0  0  0  0  0  0  0  0
   -0.6686   -1.7975    2.1493 H   0  0  0  0  0  0  0  0  0  0  0  0
   -2.9475   -0.6215    0.8927 H   0  0  0  0  0  0  0  0  0  0  0  0
   -1.3196    0.1715    1.2121 H   0  0  0  0  0  0  0  0  0  0  0  0
   -4.0757    0.3815   -0.5073 H   0  0  0  0  0  0  0  0  0  0  0  0
   -4.2371   -0.2556   -3.5204 H   0  0  0  0  0  0  0  0  0  0  0  0
   -5.6103   -0.1386   -2.3204 H   0  0  0  0  0  0  0  0  0  0  0  0
   -3.3257   -2.1876   -2.2269 H   0  0  0  0  0  0  0  0  0  0  0  0
   -4.9065   -2.5057   -2.9758 H   0  0  0  0  0  0  0  0  0  0  0  0
   -4.3472   -4.3489    1.4845 H   0  0  0  0  0  0  0  0  0  0  0  0
   -5.7784   -3.2152    1.4467 H   0  0  0  0  0  0  0  0  0  0  0  0
   -6.1707   -5.6878    1.8358 H   0  0  0  0  0  0  0  0  0  0  0  0
   -7.1741   -4.9650    0.5053 H   0  0  0  0  0  0  0  0  0  0  0  0
   -5.5655   -7.1782    0.3878 H   0  0  0  0  0  0  0  0  0  0  0  0
   -3.5431   -5.8865    0.3775 H   0  0  0  0  0  0  0  0  0  0  0  0
   -3.8656   -6.7152   -1.1961 H   0  0  0  0  0  0  0  0  0  0  0  0
   -3.0262   -4.3813   -1.3667 H   0  0  0  0  0  0  0  0  0  0  0  0
   -4.6628   -4.6148   -2.1911 H   0  0  0  0  0  0  0  0  0  0  0  0
   -3.3637    2.0219   -2.9481 H   0  0  0  0  0  0  0  0  0  0  0  0
   -6.3601    5.0022   -1.0850 H   0  0  0  0  0  0  0  0  0  0  0  0
   -5.1167    6.1088   -1.7688 H   0  0  0  0  0  0  0  0  0  0  0  0
   -2.8613    6.1119   -0.8409 H   0  0  0  0  0  0  0  0  0  0  0  0
   -1.6366    6.5509    1.2265 H   0  0  0  0  0  0  0  0  0  0  0  0
   -2.7420    6.0773    3.4132 H   0  0  0  0  0  0  0  0  0  0  0  0
   -5.0464    5.1787    3.4487 H   0  0  0  0  0  0  0  0  0  0  0  0
   -6.2506    4.7499    1.3673 H   0  0  0  0  0  0  0  0  0  0  0  0
    5.7077    5.7877    2.3715 H   0  0  0  0  0  0  0  0  0  0  0  0
    8.0616    6.2235    1.6159 H   0  0  0  0  0  0  0  0  0  0  0  0
    9.1460    4.5503    0.2608 H   0  0  0  0  0  0  0  0  0  0  0  0
    8.0369    2.4873   -0.3697 H   0  0  0  0  0  0  0  0  0  0  0  0
  1  2  1  0
  2  3  1  0
  2  4  2  3
  4  5  1  0
  5  6  1  0
  6  7  1  0
  7  8  1  0
  8  9  1  0
  9 10  1  0
 10 11  2  0
 10 12  1  0
 12 13  1  0
 13 14  1  0
 14 15  1  0
 15 16  1  0
 16 17  1  0
 17 18  2  0
 17 19  1  0
 19 20  1  0
 20 21  1  0
 21 22  1  0
 22 23  2  0
 22 24  1  0
 24 25  1  0
 25 26  1  0
 26 27  1  0
 27 28  1  0
 28 29  1  0
 19 30  1  0
 30 31  1  0
 31 32  2  0
 31 33  1  0
 33 34  1  0
 34 35  1  0
 35 36  2  0
 36 37  1  0
 37 38  2  0
 38 39  1  0
 39 40  2  0
  8 41  1  0
 41 42  2  0
 41 43  1  0
 43 44  2  0
 44 45  1  0
 45 46  2  0
 46 47  1  0
 47 48  2  0
 48 49  1  0
 49 50  2  0
 50 51  1  0
 16 12  1  0
 29 24  1  0
 40 35  1  0
 51 43  1  0
 50 45  1  0
  1 52  1  0
  1 53  1  0
  3 54  1  0
  3 55  1  0
  5 56  1  0
  5 57  1  0
  6 58  1  0
  6 59  1  0
  7 60  1  0
  7 61  1  0
  8 62  1  6
  9 63  1  0
 12 64  1  6
 13 65  1  0
 13 66  1  0
 14 67  1  0
 14 68  1  0
 15 69  1  0
 15 70  1  0
 19 71  1  1
 20 72  1  0
 20 73  1  0
 21 74  1  0
 21 75  1  0
 25 76  1  0
 25 77  1  0
 26 78  1  0
 26 79  1  0
 27 80  1  0
 28 81  1  0
 28 82  1  0
 29 83  1  0
 29 84  1  0
 30 85  1  0
 34 86  1  0
 34 87  1  0
 36 88  1  0
 37 89  1  0
 38 90  1  0
 39 91  1  0
 40 92  1  0
 46 93  1  0
 47 94  1  0
 48 95  1  0
 49 96  1  0
M  END
$$$$
[H]OC(=O)C([H])(C([H])([H])c1c([H])c([H])c([H])c([H])c1[H])P(=O)(O[H])C([H])([H])[C@]([H])(C(=O)N([H])[C@]([H])(C(=O)N([H])[H])C([H])([H])c1c([H])c([H])c([H])c([H])c1[H])C([H])([H])C([H])(C([H])([H])[H])C([H])([H])[H]
     RDKit          3D

 67 68  0  0  0  0  0  0  0  0999 V2000
    0.3047   -5.4460    1.8161 C   0  0  0  0  0  0  0  0  0  0  0  0
   -0.5727   -4.1387    1.6384 C   0  0  0  0  0  0  0  0  0  0  0  0
   -1.7735   -4.6751    0.8885 C   0  0  0  0  0  0  0  0  0  0  0  0
    0.3082   -3.2124    0.9083 C   0  0  0  0  0  0  0  0  0  0  0  0
   -0.1963   -1.8473    0.6534 C   0  0  2  0  0  0  0  0  0  0  0  0
   -1.4200   -1.7568   -0.1412 C   0  0  0  0  0  0  0  0  0  0  0  0
   -1.9703   -0.0417   -0.4325 P   0  0  0  0  0  0  0  0  0  0  0  0
   -2.0242    0.1638   -2.1087 O   0  0  0  0  0  0  0  0  0  0  0  0
   -1.0417    0.9667    0.2020 O   0  0  0  0  0  0  0  0  0  0  0  0
   -3.6370    0.1707    0.2211 C   0  0  0  0  0  0  0  0  0  0  0  0
   -4.2375    1.5138    0.0231 C   0  0  0  0  0  0  0  0  0  0  0  0
   -4.3831    1.9487   -1.3662 C   0  0  0  0  0  0  0  0  0  0  0  0
   -5.5148    1.5585   -2.0859 C   0  0  0  0  0  0  0  0  0  0  0  0
   -5.7196    1.9715   -3.3765 C   0  0  0  0  0  0  0  0  0  0  0  0
   -4.7963    2.7953   -4.0025 C   0  0  0  0  0  0  0  0  0  0  0  0
   -3.6752    3.1839   -3.2956 C   0  0  0  0  0  0  0  0  0  0  0  0
   -3.4794    2.7648   -2.0034 C   0  0  0  0  0  0  0  0  0  0  0  0
   -3.6181   -0.1326    1.6875 C   0  0  0  0  0  0  0  0  0  0  0  0
   -3.3546   -1.3536    2.2424 O   0  0  0  0  0  0  0  0  0  0  0  0
   -3.8696    0.8350    2.4746 O   0  0  0  0  0  0  0  0  0  0  0  0
    0.9253   -1.0075    0.0989 C   0  0  0  0  0  0  0  0  0  0  0  0
    0.8421   -0.6659   -1.0972 O   0  0  0  0  0  0  0  0  0  0  0  0
    2.0356   -0.6083    0.8627 N   0  0  0  0  0  0  0  0  0  0  0  0
    3.1370    0.2108    0.3200 C   0  0  1  0  0  0  0  0  0  0  0  0
    3.1863    1.5248    1.0314 C   0  0  0  0  0  0  0  0  0  0  0  0
    4.2156    2.4712    0.6277 C   0  0  0  0  0  0  0  0  0  0  0  0
    3.9842    3.3161   -0.4532 C   0  0  0  0  0  0  0  0  0  0  0  0
    4.9068    4.2416   -0.8491 C   0  0  0  0  0  0  0  0  0  0  0  0
    6.1134    4.3979   -0.2114 C   0  0  0  0  0  0  0  0  0  0  0  0
    6.3649    3.5720    0.8623 C   0  0  0  0  0  0  0  0  0  0  0  0
    5.4372    2.6414    1.2603 C   0  0  0  0  0  0  0  0  0  0  0  0
    4.3915   -0.5490    0.3914 C   0  0  0  0  0  0  0  0  0  0  0  0
    5.6481   -0.1344   -0.1054 N   0  0  0  0  0  0  0  0  0  0  0  0
    4.3763   -1.7031    0.9490 O   0  0  0  0  0  0  0  0  0  0  0  0
   -0.3754   -6.1387    2.3167 H   0  0  0  0  0  0  0  0  0  0  0  0
    1.1132   -5.1462    2.4931 H   0  0  0  0  0  0  0  0  0  0  0  0
    0.6123   -5.7373    0.8133 H   0  0  0  0  0  0  0  0  0  0  0  0
   -0.8713   -3.8653    2.6462 H   0  0  0  0  0  0  0  0  0  0  0  0
   -1.7178   -4.4370   -0.1797 H   0  0  0  0  0  0  0  0  0  0  0  0
   -2.6978   -4.2735    1.3505 H   0  0  0  0  0  0  0  0  0  0  0  0
   -1.8289   -5.8023    1.0021 H   0  0  0  0  0  0  0  0  0  0  0  0
    0.5608   -3.6829   -0.1175 H   0  0  0  0  0  0  0  0  0  0  0  0
    1.3415   -3.1524    1.3897 H   0  0  0  0  0  0  0  0  0  0  0  0
   -0.4108   -1.3964    1.6795 H   0  0  0  0  0  0  0  0  0  0  0  0
   -1.3176   -2.2772   -1.1236 H   0  0  0  0  0  0  0  0  0  0  0  0
   -2.2608   -2.2545    0.3615 H   0  0  0  0  0  0  0  0  0  0  0  0
   -2.8397   -0.2856   -2.4565 H   0  0  0  0  0  0  0  0  0  0  0  0
   -4.3290   -0.5924   -0.2378 H   0  0  0  0  0  0  0  0  0  0  0  0
   -3.6170    2.2782    0.5836 H   0  0  0  0  0  0  0  0  0  0  0  0
   -5.2480    1.4876    0.5199 H   0  0  0  0  0  0  0  0  0  0  0  0
   -6.2439    0.9167   -1.6100 H   0  0  0  0  0  0  0  0  0  0  0  0
   -6.5897    1.6665   -3.9172 H   0  0  0  0  0  0  0  0  0  0  0  0
   -4.9569    3.1179   -5.0105 H   0  0  0  0  0  0  0  0  0  0  0  0
   -2.9383    3.8257   -3.7579 H   0  0  0  0  0  0  0  0  0  0  0  0
   -2.6014    3.0580   -1.4235 H   0  0  0  0  0  0  0  0  0  0  0  0
   -3.9322   -2.1589    2.1208 H   0  0  0  0  0  0  0  0  0  0  0  0
    2.0997   -0.8944    1.8548 H   0  0  0  0  0  0  0  0  0  0  0  0
    2.8944    0.4104   -0.7629 H   0  0  0  0  0  0  0  0  0  0  0  0
    3.3127    1.3398    2.1273 H   0  0  0  0  0  0  0  0  0  0  0  0
    2.1847    2.0515    0.9542 H   0  0  0  0  0  0  0  0  0  0  0  0
    3.0306    3.2183   -0.9864 H   0  0  0  0  0  0  0  0  0  0  0  0
    4.7068    4.8932   -1.6964 H   0  0  0  0  0  0  0  0  0  0  0  0
    6.8361    5.1391   -0.5403 H   0  0  0  0  0  0  0  0  0  0  0  0
    7.3049    3.6704    1.3841 H   0  0  0  0  0  0  0  0  0  0  0  0
    5.6531    1.9968    2.1104 H   0  0  0  0  0  0  0  0  0  0  0  0
    6.5277   -0.2282    0.4637 H   0  0  0  0  0  0  0  0  0  0  0  0
    5.7045    0.2772   -1.0682 H   0  0  0  0  0  0  0  0  0  0  0  0
  1  2  1  0
  2  3  1  0
  2  4  1  0
  4  5  1  0
  5  6  1  0
  6  7  1  0
  7  8  1  0
  7  9  2  0
  7 10  1  0
 10 11  1  0
 11 12  1  0
 12 13  2  0
 13 14  1  0
 14 15  2  0
 15 16  1  0
 16 17  2  0
 10 18  1  0
 18 19  1  0
 18 20  2  0
  5 21  1  0
 21 22  2  0
 21 23  1  0
 23 24  1  0
 24 25  1  0
 25 26  1  0
 26 27  2  0
 27 28  1  0
 28 29  2  0
 29 30  1  0
 30 31  2  0
 24 32  1  0
 32 33  1  0
 32 34  2  0
 17 12  1  0
 31 26  1  0
  1 35  1  0
  1 36  1  0
  1 37  1  0
  2 38  1  0
  3 39  1  0
  3 40  1  0
  3 41  1  0
  4 42  1  0
  4 43  1  0
  5 44  1  1
  6 45  1  0
  6 46  1  0
  8 47  1  0
 10 48  1  0
 11 49  1  0
 11 50  1  0
 13 51  1  0
 14 52  1  0
 15 53  1  0
 16 54  1  0
 17 55  1  0
 19 56  1  0
 23 57  1  0
 24 58  1  6
 25 59  1  0
 25 60  1  0
 27 61  1  0
 28 62  1  0
 29 63  1  0
 30 64  1  0
 31 65  1  0
 33 66  1  0
 33 67  1  0
M  END
$$$$
