[H]Oc1c([H])c([H])c(-c2c([H])nc3c(c2N=O)c(-c2c([H])c([H])c([H])c([H])c2[H])c([H])n3[H])c([H])c1[H]
     RDKit          3D

 37 40  0  0  0  0  0  0  0  0999 V2000
    5.9725    2.2559   -0.2830 O   0  0  0  0  0  0  0  0  0  0  0  0
    4.8412    1.4535   -0.2443 C   0  0  0  0  0  0  0  0  0  0  0  0
    4.7439    0.5447    0.7916 C   0  0  0  0  0  0  0  0  0  0  0  0
    3.6348   -0.2651    0.8579 C   0  0  0  0  0  0  0  0  0  0  0  0
    2.6201   -0.1753   -0.1026 C   0  0  0  0  0  0  0  0  0  0  0  0
    2.7383    0.7401   -1.1291 C   0  0  0  0  0  0  0  0  0  0  0  0
    3.8479    1.5522   -1.1979 C   0  0  0  0  0  0  0  0  0  0  0  0
    1.4758   -1.0565   -0.0255 C   0  0  0  0  0  0  0  0  0  0  0  0
    1.6284   -2.4294    0.0730 C   0  0  0  0  0  0  0  0  0  0  0  0
    0.5764   -3.2566    0.1138 N   0  0  0  0  0  0  0  0  0  0  0  0
   -0.6810   -2.8040    0.0618 C   0  0  0  0  0  0  0  0  0  0  0  0
   -1.8888   -3.4321    0.0681 N   0  0  0  0  0  0  0  0  0  0  0  0
   -2.8410   -2.5069   -0.0215 C   0  0  0  0  0  0  0  0  0  0  0  0
   -2.2584   -1.2185   -0.0894 C   0  0  0  0  0  0  0  0  0  0  0  0
   -3.0190    0.0124   -0.1542 C   0  0  0  0  0  0  0  0  0  0  0  0
   -2.9881    0.8995    0.8809 C   0  0  0  0  0  0  0  0  0  0  0  0
   -3.7049    2.0951    0.8563 C   0  0  0  0  0  0  0  0  0  0  0  0
   -4.4671    2.3999   -0.2348 C   0  0  0  0  0  0  0  0  0  0  0  0
   -4.5209    1.5248   -1.2994 C   0  0  0  0  0  0  0  0  0  0  0  0
   -3.7951    0.3422   -1.2434 C   0  0  0  0  0  0  0  0  0  0  0  0
   -0.8991   -1.4338   -0.0361 C   0  0  0  0  0  0  0  0  0  0  0  0
    0.1967   -0.5621   -0.0793 C   0  0  0  0  0  0  0  0  0  0  0  0
   -0.0611    0.8391   -0.1783 N   0  0  0  0  0  0  0  0  0  0  0  0
    0.4827    1.6077    0.6674 O   0  0  0  0  0  0  0  0  0  0  0  0
    6.7652    1.9005   -0.7989 H   0  0  0  0  0  0  0  0  0  0  0  0
    5.5346    0.4635    1.5538 H   0  0  0  0  0  0  0  0  0  0  0  0
    3.5369   -0.9953    1.6736 H   0  0  0  0  0  0  0  0  0  0  0  0
    1.9512    0.8261   -1.8943 H   0  0  0  0  0  0  0  0  0  0  0  0
    3.9494    2.2808   -2.0087 H   0  0  0  0  0  0  0  0  0  0  0  0
    2.6413   -2.8260    0.1172 H   0  0  0  0  0  0  0  0  0  0  0  0
   -1.9838   -4.4660    0.1341 H   0  0  0  0  0  0  0  0  0  0  0  0
   -3.9098   -2.6376   -0.0449 H   0  0  0  0  0  0  0  0  0  0  0  0
   -2.4122    0.7088    1.7513 H   0  0  0  0  0  0  0  0  0  0  0  0
   -3.6839    2.8021    1.6741 H   0  0  0  0  0  0  0  0  0  0  0  0
   -5.0308    3.3349   -0.2601 H   0  0  0  0  0  0  0  0  0  0  0  0
   -5.1351    1.8027   -2.1427 H   0  0  0  0  0  0  0  0  0  0  0  0
   -3.8572   -0.3212   -2.0902 H   0  0  0  0  0  0  0  0  0  0  0  0
  1  2  1  0
  2  3  2  0
  3  4  1  0
  4  5  2  0
  5  6  1  0
  6  7  2  0
  5  8  1  0
  8  9  2  0
  9 10  1  0
 10 11  2  0
 11 12  1  0
 12 13  1  0
 13 14  2  0
 14 15  1  0
 15 16  2  0
 16 17  1  0
 17 18  2  0
 18 19  1  0
 19 20  2  0
 14 21  1  0
 21 22  2  0
 22 23  1  0
 23 24  2  0
  7  2  1  0
 22  8  1  0
 21 11  1  0
 20 15  1  0
  1 25  1  0
  3 26  1  0
  4 27  1  0
  6 28  1  0
  7 29  1  0
  9 30  1  0
 12 31  1  0
 13 32  1  0
 16 33  1  0
 17 34  1  0
 18 35  1  0
 19 36  1  0
 20 37  1  0
M  END
$$$$
[H]OC([H])([H])[C@@]1(O[H])C([H])([H])[C@@]2([H])O[C@]1(C([H])([H])[H])n1c3c([H])c([H])c([H])c([H])c3c3c4c(c5c6c([H])c([H])c([H])c([H])c6n2c5c31)C(=O)N([H])C([H])([H])C4([H])[H]
     RDKit          3D

 57 64  0  0  0  0  0  0  0  0999 V2000
    3.5866    0.5893    1.0797 C   0  0  0  0  0  0  0  0  0  0  0  0
    2.4371   -0.0128    0.3507 C   0  0  2  0  0  0  0  0  0  0  0  0
    2.0711   -1.2065    1.0218 O   0  0  0  0  0  0  0  0  0  0  0  0
    1.4862   -2.0744    0.1595 C   0  0  2  0  0  0  0  0  0  0  0  0
    1.7685   -1.6410   -1.2688 C   0  0  0  0  0  0  0  0  0  0  0  0
    2.8664   -0.5652   -0.9592 C   0  0  1  0  0  0  0  0  0  0  0  0
    2.7771    0.4272   -1.9287 O   0  0  0  0  0  0  0  0  0  0  0  0
    4.1022   -1.3744   -1.0524 C   0  0  0  0  0  0  0  0  0  0  0  0
    5.3066   -0.6947   -0.9688 O   0  0  0  0  0  0  0  0  0  0  0  0
    0.0245   -1.9643    0.2355 N   0  0  0  0  0  0  0  0  0  0  0  0
   -0.8923   -2.9092    0.2339 C   0  0  0  0  0  0  0  0  0  0  0  0
   -0.6721   -4.2872    0.2228 C   0  0  0  0  0  0  0  0  0  0  0  0
   -1.7630   -5.1241    0.2364 C   0  0  0  0  0  0  0  0  0  0  0  0
   -3.0243   -4.5846    0.2607 C   0  0  0  0  0  0  0  0  0  0  0  0
   -3.2088   -3.1997    0.2714 C   0  0  0  0  0  0  0  0  0  0  0  0
   -2.1517   -2.3622    0.2572 C   0  0  0  0  0  0  0  0  0  0  0  0
   -1.9908   -1.0130    0.2711 C   0  0  0  0  0  0  0  0  0  0  0  0
   -2.8138    0.0956    0.2648 C   0  0  0  0  0  0  0  0  0  0  0  0
   -4.2399   -0.0870    0.1749 C   0  0  0  0  0  0  0  0  0  0  0  0
   -4.8944   -1.1183    0.1676 O   0  0  0  0  0  0  0  0  0  0  0  0
   -5.0398    1.1212    0.0744 N   0  0  0  0  0  0  0  0  0  0  0  0
   -4.5393    2.2742    0.7327 C   0  0  0  0  0  0  0  0  0  0  0  0
   -3.1077    2.5552    0.3444 C   0  0  0  0  0  0  0  0  0  0  0  0
   -2.2453    1.3793    0.2553 C   0  0  0  0  0  0  0  0  0  0  0  0
   -0.8718    1.5790    0.2454 C   0  0  0  0  0  0  0  0  0  0  0  0
    0.0019    2.6612    0.2046 C   0  0  0  0  0  0  0  0  0  0  0  0
   -0.2888    3.9991    0.1456 C   0  0  0  0  0  0  0  0  0  0  0  0
    0.7525    4.9094    0.0769 C   0  0  0  0  0  0  0  0  0  0  0  0
    2.0370    4.4777    0.0669 C   0  0  0  0  0  0  0  0  0  0  0  0
    2.3449    3.1378    0.1242 C   0  0  0  0  0  0  0  0  0  0  0  0
    1.3290    2.2135    0.1952 C   0  0  0  0  0  0  0  0  0  0  0  0
    1.2591    0.8461    0.2331 N   0  0  0  0  0  0  0  0  0  0  0  0
   -0.0546    0.4842    0.2520 C   0  0  0  0  0  0  0  0  0  0  0  0
   -0.6046   -0.7865    0.2616 C   0  0  0  0  0  0  0  0  0  0  0  0
    4.4420    0.8992    0.4759 H   0  0  0  0  0  0  0  0  0  0  0  0
    3.2828    1.3293    1.8795 H   0  0  0  0  0  0  0  0  0  0  0  0
    4.1062   -0.1802    1.7555 H   0  0  0  0  0  0  0  0  0  0  0  0
    1.8201   -3.1037    0.3133 H   0  0  0  0  0  0  0  0  0  0  0  0
    0.9710   -1.0841   -1.7503 H   0  0  0  0  0  0  0  0  0  0  0  0
    2.1356   -2.4186   -1.9218 H   0  0  0  0  0  0  0  0  0  0  0  0
    2.7457    0.0640   -2.8461 H   0  0  0  0  0  0  0  0  0  0  0  0
    4.1616   -1.8448   -2.0896 H   0  0  0  0  0  0  0  0  0  0  0  0
    4.0870   -2.2915   -0.4103 H   0  0  0  0  0  0  0  0  0  0  0  0
    6.0281   -1.1329   -1.4573 H   0  0  0  0  0  0  0  0  0  0  0  0
    0.3479   -4.6596    0.2036 H   0  0  0  0  0  0  0  0  0  0  0  0
   -1.5972   -6.1983    0.2269 H   0  0  0  0  0  0  0  0  0  0  0  0
   -3.8945   -5.2335    0.2718 H   0  0  0  0  0  0  0  0  0  0  0  0
   -4.2336   -2.8622    0.3090 H   0  0  0  0  0  0  0  0  0  0  0  0
   -5.9427    1.1297   -0.4615 H   0  0  0  0  0  0  0  0  0  0  0  0
   -5.1467    3.1621    0.4924 H   0  0  0  0  0  0  0  0  0  0  0  0
   -4.6138    2.1367    1.8301 H   0  0  0  0  0  0  0  0  0  0  0  0
   -2.7284    3.1426    1.2489 H   0  0  0  0  0  0  0  0  0  0  0  0
   -3.1375    3.1245   -0.5768 H   0  0  0  0  0  0  0  0  0  0  0  0
   -1.2966    4.3240    0.1367 H   0  0  0  0  0  0  0  0  0  0  0  0
    0.4634    5.9661    0.0329 H   0  0  0  0  0  0  0  0  0  0  0  0
    2.8783    5.1749    0.0131 H   0  0  0  0  0  0  0  0  0  0  0  0
    3.3739    2.8116    0.0817 H   0  0  0  0  0  0  0  0  0  0  0  0
  2  1  1  1
  2  3  1  0
  3  4  1  0
  4  5  1  0
  5  6  1  0
  6  7  1  6
  6  8  1  0
  8  9  1  0
  4 10  1  0
 10 11  1  0
 11 12  2  0
 12 13  1  0
 13 14  2  0
 14 15  1  0
 15 16  2  0
 16 17  1  0
 17 18  2  0
 18 19  1  0
 19 20  2  0
 19 21  1  0
 21 22  1  0
 22 23  1  0
 23 24  1  0
 24 25  2  0
 25 26  1  0
 26 27  2  0
 27 28  1  0
 28 29  2  0
 29 30  1  0
 30 31  2  0
 31 32  1  0
 32 33  1  0
 33 34  2  0
  6  2  1  0
 34 10  1  0
 32  2  1  0
 16 11  1  0
 34 17  1  0
 24 18  1  0
 33 25  1  0
 31 26  1  0
  1 35  1  0
  1 36  1  0
  1 37  1  0
  4 38  1  6
  5 39  1  0
  5 40  1  0
  7 41  1  0
  8 42  1  0
  8 43  1  0
  9 44  1  0
 12 45  1  0
 13 46  1  0
 14 47  1  0
 15 48  1  0
 21 49  1  0
 22 50  1  0
 22 51  1  0
 23 52  1  0
 23 53  1  0
 27 54  1  0
 28 55  1  0
 29 56  1  0
 30 57  1  0
M  END
$$$$
[H]c1c([H])c([H])c2c(c1[H])c1c3c(c4c5c([H])c([H])c([H])c([H])c5n5c4c1n2[C@]1([H])O[C@]5(C([H])([H])[H])[C@@]([H])(OC([H])([H])[H])[C@]([H])(N([H])C([H])([H])[H])C1([H])[H])C([H])([H])N([H])C3=O
     RDKit          3D

 61 68  0  0  0  0  0  0  0  0999 V2000
   -5.0032    2.3015   -0.0847 C   0  0  0  0  0  0  0  0  0  0  0  0
   -4.2911    1.1206   -0.5239 N   0  0  0  0  0  0  0  0  0  0  0  0
   -3.1564    0.9314    0.3042 C   0  0  2  0  0  0  0  0  0  0  0  0
   -2.1540    2.1226    0.1663 C   0  0  0  0  0  0  0  0  0  0  0  0
   -0.9665    1.4540   -0.0205 C   0  0  1  0  0  0  0  0  0  0  0  0
   -1.1415    0.7448   -1.1981 O   0  0  0  0  0  0  0  0  0  0  0  0
   -1.4119   -0.5987   -0.7868 C   0  0  2  0  0  0  0  0  0  0  0  0
   -1.8712   -1.2254   -2.1322 C   0  0  0  0  0  0  0  0  0  0  0  0
   -2.4889   -0.4501    0.1598 C   0  0  1  0  0  0  0  0  0  0  0  0
   -2.3890   -1.1153    1.3880 O   0  0  0  0  0  0  0  0  0  0  0  0
   -3.3269   -2.1274    1.5521 C   0  0  0  0  0  0  0  0  0  0  0  0
   -0.1378   -1.2020   -0.4914 N   0  0  0  0  0  0  0  0  0  0  0  0
    0.1616   -2.5344   -0.6109 C   0  0  0  0  0  0  0  0  0  0  0  0
   -0.5901   -3.6465   -0.8619 C   0  0  0  0  0  0  0  0  0  0  0  0
    0.0056   -4.9014   -0.9123 C   0  0  0  0  0  0  0  0  0  0  0  0
    1.3589   -5.0700   -0.7130 C   0  0  0  0  0  0  0  0  0  0  0  0
    2.1437   -3.9569   -0.4556 C   0  0  0  0  0  0  0  0  0  0  0  0
    1.5172   -2.7445   -0.4151 C   0  0  0  0  0  0  0  0  0  0  0  0
    2.0596   -1.5148   -0.1645 C   0  0  0  0  0  0  0  0  0  0  0  0
    3.3310   -1.0167    0.0798 C   0  0  0  0  0  0  0  0  0  0  0  0
    4.6039   -1.7769    0.1721 C   0  0  0  0  0  0  0  0  0  0  0  0
    5.6037   -0.7850    0.4503 N   0  0  0  0  0  0  0  0  0  0  0  0
    5.0034    0.5280    0.5134 C   0  0  0  0  0  0  0  0  0  0  0  0
    5.7188    1.5160    0.7371 O   0  0  0  0  0  0  0  0  0  0  0  0
    3.6006    0.3262    0.2783 C   0  0  0  0  0  0  0  0  0  0  0  0
    2.5644    1.2461    0.2408 C   0  0  0  0  0  0  0  0  0  0  0  0
    2.4247    2.5831    0.4378 C   0  0  0  0  0  0  0  0  0  0  0  0
    3.2960    3.5951    0.7015 C   0  0  0  0  0  0  0  0  0  0  0  0
    2.7602    4.8881    0.8432 C   0  0  0  0  0  0  0  0  0  0  0  0
    1.4157    5.1498    0.7252 C   0  0  0  0  0  0  0  0  0  0  0  0
    0.5372    4.1127    0.4564 C   0  0  0  0  0  0  0  0  0  0  0  0
    1.0796    2.8483    0.3203 C   0  0  0  0  0  0  0  0  0  0  0  0
    0.4024    1.7469    0.0621 N   0  0  0  0  0  0  0  0  0  0  0  0
    1.3106    0.7318   -0.0025 C   0  0  0  0  0  0  0  0  0  0  0  0
    1.0507   -0.6266   -0.2113 C   0  0  0  0  0  0  0  0  0  0  0  0
   -4.4222    3.2206   -0.0758 H   0  0  0  0  0  0  0  0  0  0  0  0
   -5.9751    2.4312   -0.6421 H   0  0  0  0  0  0  0  0  0  0  0  0
   -5.3325    2.1331    0.9827 H   0  0  0  0  0  0  0  0  0  0  0  0
   -4.9231    0.3185   -0.4524 H   0  0  0  0  0  0  0  0  0  0  0  0
   -3.5204    0.9543    1.3717 H   0  0  0  0  0  0  0  0  0  0  0  0
   -2.2319    2.7634    1.0681 H   0  0  0  0  0  0  0  0  0  0  0  0
   -2.5549    2.7584   -0.6810 H   0  0  0  0  0  0  0  0  0  0  0  0
   -1.0177    0.7572    0.9341 H   0  0  0  0  0  0  0  0  0  0  0  0
   -2.1640   -0.4180   -2.8609 H   0  0  0  0  0  0  0  0  0  0  0  0
   -1.0623   -1.7738   -2.6232 H   0  0  0  0  0  0  0  0  0  0  0  0
   -2.8063   -1.7859   -1.9703 H   0  0  0  0  0  0  0  0  0  0  0  0
   -3.3692   -1.0206   -0.3155 H   0  0  0  0  0  0  0  0  0  0  0  0
   -4.3685   -1.7465    1.5031 H   0  0  0  0  0  0  0  0  0  0  0  0
   -3.1360   -2.7642    2.4105 H   0  0  0  0  0  0  0  0  0  0  0  0
   -3.2309   -2.7727    0.6280 H   0  0  0  0  0  0  0  0  0  0  0  0
   -1.6587   -3.5713   -1.0137 H   0  0  0  0  0  0  0  0  0  0  0  0
   -0.5879   -5.7740   -1.1105 H   0  0  0  0  0  0  0  0  0  0  0  0
    1.8233   -6.0462   -0.7522 H   0  0  0  0  0  0  0  0  0  0  0  0
    3.2016   -4.0714   -0.2980 H   0  0  0  0  0  0  0  0  0  0  0  0
    4.5688   -2.4736    1.0276 H   0  0  0  0  0  0  0  0  0  0  0  0
    4.8295   -2.3223   -0.7651 H   0  0  0  0  0  0  0  0  0  0  0  0
    6.6092   -1.0259    0.5823 H   0  0  0  0  0  0  0  0  0  0  0  0
    4.3503    3.4578    0.8021 H   0  0  0  0  0  0  0  0  0  0  0  0
    3.4660    5.6873    1.0540 H   0  0  0  0  0  0  0  0  0  0  0  0
    1.0161    6.1615    0.8387 H   0  0  0  0  0  0  0  0  0  0  0  0
   -0.5241    4.2689    0.3538 H   0  0  0  0  0  0  0  0  0  0  0  0
  1  2  1  0
  2  3  1  0
  3  4  1  0
  4  5  1  0
  5  6  1  0
  6  7  1  0
  7  8  1  6
  7  9  1  0
  9 10  1  0
 10 11  1  0
  7 12  1  0
 12 13  1  0
 13 14  2  0
 14 15  1  0
 15 16  2  0
 16 17  1  0
 17 18  2  0
 18 19  1  0
 19 20  2  0
 20 21  1  0
 21 22  1  0
 22 23  1  0
 23 24  2  0
 23 25  1  0
 25 26  2  0
 26 27  1  0
 27 28  2  0
 28 29  1  0
 29 30  2  0
 30 31  1  0
 31 32  2  0
 32 33  1  0
 33 34  1  0
 34 35  2  0
  9  3  1  0
 35 12  1  0
 33  5  1  0
 18 13  1  0
 35 19  1  0
 25 20  1  0
 34 26  1  0
 32 27  1  0
  1 36  1  0
  1 37  1  0
  1 38  1  0
  2 39  1  0
  3 40  1  1
  4 41  1  0
  4 42  1  0
  5 43  1  1
  8 44  1  0
  8 45  1  0
  8 46  1  0
  9 47  1  6
 11 48  1  0
 11 49  1  0
 11 50  1  0
 14 51  1  0
 15 52  1  0
 16 53  1  0
 17 54  1  0
 21 55  1  0
 21 56  1  0
 22 57  1  0
 28 58  1  0
 29 59  1  0
 30 60  1  0
 31 61  1  0
M  END
$$$$
[H]c1c([H])c([H])c2c(c1[H])c1c3c(c4c5c([H])c([H])c([H])c([H])c5n5c4c1n2[C@@]1([H])O[C@]5(C([H])([H])[H])[C@@]([H])(OC([H])([H])[H])[C@@]([H])(N([H])C([H])([H])[H])C1([H])[H])C([H])([H])N([H])C3=O
     RDKit          3D

 61 68  0  0  0  0  0  0  0  0999 V2000
   -2.5900    1.1246    2.6909 C   0  0  0  0  0  0  0  0  0  0  0  0
   -2.2701    0.1494    1.6691 N   0  0  0  0  0  0  0  0  0  0  0  0
   -2.7037    0.7256    0.3894 C   0  0  1  0  0  0  0  0  0  0  0  0
   -1.9693    1.9591    0.0600 C   0  0  0  0  0  0  0  0  0  0  0  0
   -1.0374    1.8542   -1.1025 C   0  0  2  0  0  0  0  0  0  0  0  0
   -1.1108    0.8211   -1.8978 O   0  0  0  0  0  0  0  0  0  0  0  0
   -1.4719   -0.4453   -1.4993 C   0  0  2  0  0  0  0  0  0  0  0  0
   -1.8587   -1.0747   -2.8537 C   0  0  0  0  0  0  0  0  0  0  0  0
   -2.6627   -0.3659   -0.6565 C   0  0  1  0  0  0  0  0  0  0  0  0
   -3.0555   -1.5061    0.0270 O   0  0  0  0  0  0  0  0  0  0  0  0
   -4.3079   -1.9695   -0.2639 C   0  0  0  0  0  0  0  0  0  0  0  0
   -0.3020   -1.1026   -0.9411 N   0  0  0  0  0  0  0  0  0  0  0  0
   -0.0368   -2.4107   -0.8661 C   0  0  0  0  0  0  0  0  0  0  0  0
   -0.7505   -3.5118   -1.2342 C   0  0  0  0  0  0  0  0  0  0  0  0
   -0.2313   -4.7829   -1.0386 C   0  0  0  0  0  0  0  0  0  0  0  0
    1.0025   -5.0019   -0.4761 C   0  0  0  0  0  0  0  0  0  0  0  0
    1.7444   -3.8826   -0.0939 C   0  0  0  0  0  0  0  0  0  0  0  0
    1.2038   -2.6348   -0.3003 C   0  0  0  0  0  0  0  0  0  0  0  0
    1.7282   -1.3877   -0.0109 C   0  0  0  0  0  0  0  0  0  0  0  0
    2.9250   -0.9637    0.5498 C   0  0  0  0  0  0  0  0  0  0  0  0
    4.0703   -1.7821    1.0519 C   0  0  0  0  0  0  0  0  0  0  0  0
    5.0490   -0.8360    1.5052 N   0  0  0  0  0  0  0  0  0  0  0  0
    4.5511    0.4878    1.3292 C   0  0  0  0  0  0  0  0  0  0  0  0
    5.2116    1.4752    1.6612 O   0  0  0  0  0  0  0  0  0  0  0  0
    3.2325    0.3685    0.7340 C   0  0  0  0  0  0  0  0  0  0  0  0
    2.2736    1.2731    0.3281 C   0  0  0  0  0  0  0  0  0  0  0  0
    2.1943    2.6494    0.3519 C   0  0  0  0  0  0  0  0  0  0  0  0
    3.0346    3.6410    0.7719 C   0  0  0  0  0  0  0  0  0  0  0  0
    2.6237    4.9672    0.6424 C   0  0  0  0  0  0  0  0  0  0  0  0
    1.4040    5.3207    0.1079 C   0  0  0  0  0  0  0  0  0  0  0  0
    0.5569    4.3176   -0.3154 C   0  0  0  0  0  0  0  0  0  0  0  0
    0.9564    3.0255   -0.1896 C   0  0  0  0  0  0  0  0  0  0  0  0
    0.3179    1.9031   -0.5262 N   0  0  0  0  0  0  0  0  0  0  0  0
    1.0813    0.8475   -0.2300 C   0  0  0  0  0  0  0  0  0  0  0  0
    0.8029   -0.4946   -0.4048 C   0  0  0  0  0  0  0  0  0  0  0  0
   -1.7275    1.7656    2.9459 H   0  0  0  0  0  0  0  0  0  0  0  0
   -3.4000    1.7830    2.2910 H   0  0  0  0  0  0  0  0  0  0  0  0
   -3.0290    0.6437    3.5924 H   0  0  0  0  0  0  0  0  0  0  0  0
   -2.7602   -0.7186    1.9035 H   0  0  0  0  0  0  0  0  0  0  0  0
   -3.7998    0.9480    0.5957 H   0  0  0  0  0  0  0  0  0  0  0  0
   -1.4594    2.3204    1.0029 H   0  0  0  0  0  0  0  0  0  0  0  0
   -2.7065    2.7776   -0.1658 H   0  0  0  0  0  0  0  0  0  0  0  0
   -1.0912    2.7965   -1.7221 H   0  0  0  0  0  0  0  0  0  0  0  0
   -2.0056   -0.3257   -3.6573 H   0  0  0  0  0  0  0  0  0  0  0  0
   -1.0068   -1.6950   -3.1940 H   0  0  0  0  0  0  0  0  0  0  0  0
   -2.8277   -1.6039   -2.8044 H   0  0  0  0  0  0  0  0  0  0  0  0
   -3.5358   -0.1252   -1.3381 H   0  0  0  0  0  0  0  0  0  0  0  0
   -4.4650   -2.8889    0.3782 H   0  0  0  0  0  0  0  0  0  0  0  0
   -4.4865   -2.3125   -1.2897 H   0  0  0  0  0  0  0  0  0  0  0  0
   -5.1216   -1.2643    0.0633 H   0  0  0  0  0  0  0  0  0  0  0  0
   -1.7208   -3.3825   -1.6725 H   0  0  0  0  0  0  0  0  0  0  0  0
   -0.8491   -5.6109   -1.3524 H   0  0  0  0  0  0  0  0  0  0  0  0
    1.4213   -5.9802   -0.3168 H   0  0  0  0  0  0  0  0  0  0  0  0
    2.7206   -4.0420    0.3513 H   0  0  0  0  0  0  0  0  0  0  0  0
    3.7648   -2.4865    1.8473 H   0  0  0  0  0  0  0  0  0  0  0  0
    4.5351   -2.3717    0.2322 H   0  0  0  0  0  0  0  0  0  0  0  0
    5.9960   -1.0989    1.9084 H   0  0  0  0  0  0  0  0  0  0  0  0
    3.9823    3.4684    1.1903 H   0  0  0  0  0  0  0  0  0  0  0  0
    3.2909    5.7541    0.9750 H   0  0  0  0  0  0  0  0  0  0  0  0
    1.0902    6.3566    0.0099 H   0  0  0  0  0  0  0  0  0  0  0  0
   -0.4140    4.5350   -0.7434 H   0  0  0  0  0  0  0  0  0  0  0  0
  1  2  1  0
  2  3  1  0
  3  4  1  0
  4  5  1  0
  5  6  1  0
  6  7  1  0
  7  8  1  6
  7  9  1  0
  9 10  1  0
 10 11  1  0
  7 12  1  0
 12 13  1  0
 13 14  2  0
 14 15  1  0
 15 16  2  0
 16 17  1  0
 17 18  2  0
 18 19  1  0
 19 20  2  0
 20 21  1  0
 21 22  1  0
 22 23  1  0
 23 24  2  0
 23 25  1  0
 25 26  2  0
 26 27  1  0
 27 28  2  0
 28 29  1  0
 29 30  2  0
 30 31  1  0
 31 32  2  0
 32 33  1  0
 33 34  1  0
 34 35  2  0
  9  3  1  0
 35 12  1  0
 33  5  1  0
 18 13  1  0
 35 19  1  0
 25 20  1  0
 34 26  1  0
 32 27  1  0
  1 36  1  0
  1 37  1  0
  1 38  1  0
  2 39  1  0
  3 40  1  1
  4 41  1  0
  4 42  1  0
  5 43  1  6
  8 44  1  0
  8 45  1  0
  8 46  1  0
  9 47  1  6
 11 48  1  0
 11 49  1  0
 11 50  1  0
 14 51  1  0
 15 52  1  0
 16 53  1  0
 17 54  1  0
 21 55  1  0
 21 56  1  0
 22 57  1  0
 28 58  1  0
 29 59  1  0
 30 60  1  0
 31 61  1  0
M  END
$$$$
[H]Oc1c([H])c([H])c(-c2c([H])sc(N([H])c3c([H])nc4c(c([H])c([H])n4[H])c3C([H])([H])[H])c2[H])c([H])c1[H]
     RDKit          3D

 38 41  0  0  0  0  0  0  0  0999 V2000
   -3.9297   -1.5747    1.4401 C   0  0  0  0  0  0  0  0  0  0  0  0
   -3.4643   -0.3567    0.7532 C   0  0  0  0  0  0  0  0  0  0  0  0
   -2.0831   -0.0937    0.7461 C   0  0  0  0  0  0  0  0  0  0  0  0
   -1.2452   -0.9478    1.4176 N   0  0  0  0  0  0  0  0  0  0  0  0
    0.1763   -1.1125    1.3918 C   0  0  0  0  0  0  0  0  0  0  0  0
    1.1640   -0.5894    0.6160 C   0  0  0  0  0  0  0  0  0  0  0  0
    2.4404   -0.9202    0.8822 C   0  0  0  0  0  0  0  0  0  0  0  0
    2.6654   -1.7725    1.9277 C   0  0  0  0  0  0  0  0  0  0  0  0
    1.1021   -2.0863    2.5060 S   0  0  0  0  0  0  0  0  0  0  0  0
    3.6020   -0.4017    0.0923 C   0  0  0  0  0  0  0  0  0  0  0  0
    4.7352   -1.1547   -0.0747 C   0  0  0  0  0  0  0  0  0  0  0  0
    5.8146   -0.6859   -0.8030 C   0  0  0  0  0  0  0  0  0  0  0  0
    5.7653    0.5542   -1.3749 C   0  0  0  0  0  0  0  0  0  0  0  0
    6.8249    1.0797   -2.1211 O   0  0  0  0  0  0  0  0  0  0  0  0
    4.6409    1.3340   -1.2248 C   0  0  0  0  0  0  0  0  0  0  0  0
    3.5591    0.8455   -0.4860 C   0  0  0  0  0  0  0  0  0  0  0  0
   -1.7260    1.0432    0.0950 C   0  0  0  0  0  0  0  0  0  0  0  0
   -2.6259    1.8818   -0.5161 N   0  0  0  0  0  0  0  0  0  0  0  0
   -3.9303    1.6117   -0.4969 C   0  0  0  0  0  0  0  0  0  0  0  0
   -5.0221    2.2508   -1.0076 N   0  0  0  0  0  0  0  0  0  0  0  0
   -6.1280    1.5519   -0.7049 C   0  0  0  0  0  0  0  0  0  0  0  0
   -5.7442    0.4533    0.0069 C   0  0  0  0  0  0  0  0  0  0  0  0
   -4.3651    0.4813    0.1431 C   0  0  0  0  0  0  0  0  0  0  0  0
   -4.9792   -1.8007    1.1032 H   0  0  0  0  0  0  0  0  0  0  0  0
   -3.9762   -1.4348    2.5212 H   0  0  0  0  0  0  0  0  0  0  0  0
   -3.3007   -2.4404    1.1282 H   0  0  0  0  0  0  0  0  0  0  0  0
   -1.6971   -1.6574    2.1201 H   0  0  0  0  0  0  0  0  0  0  0  0
    0.9551    0.0849   -0.2575 H   0  0  0  0  0  0  0  0  0  0  0  0
    3.6505   -2.1420    2.2766 H   0  0  0  0  0  0  0  0  0  0  0  0
    4.7900   -2.1428    0.3738 H   0  0  0  0  0  0  0  0  0  0  0  0
    6.7056   -1.3025   -0.9228 H   0  0  0  0  0  0  0  0  0  0  0  0
    7.5291    1.6198   -1.5965 H   0  0  0  0  0  0  0  0  0  0  0  0
    4.6132    2.3116   -1.6809 H   0  0  0  0  0  0  0  0  0  0  0  0
    2.6920    1.4443   -0.3690 H   0  0  0  0  0  0  0  0  0  0  0  0
   -0.7011    1.3560    0.0573 H   0  0  0  0  0  0  0  0  0  0  0  0
   -4.9944    3.1510   -1.5527 H   0  0  0  0  0  0  0  0  0  0  0  0
   -7.1333    1.8655   -1.0077 H   0  0  0  0  0  0  0  0  0  0  0  0
   -6.3799   -0.3038    0.3973 H   0  0  0  0  0  0  0  0  0  0  0  0
  1  2  1  0
  2  3  2  0
  3  4  1  0
  4  5  1  0
  5  6  2  0
  6  7  1  0
  7  8  2  0
  8  9  1  0
  7 10  1  0
 10 11  2  0
 11 12  1  0
 12 13  2  0
 13 14  1  0
 13 15  1  0
 15 16  2  0
  3 17  1  0
 17 18  2  0
 18 19  1  0
 19 20  1  0
 20 21  1  0
 21 22  2  0
 22 23  1  0
 23  2  1  0
  9  5  1  0
 16 10  1  0
 23 19  2  0
  1 24  1  0
  1 25  1  0
  1 26  1  0
  4 27  1  0
  6 28  1  0
  8 29  1  0
 11 30  1  0
 12 31  1  0
 14 32  1  0
 15 33  1  0
 16 34  1  0
 17 35  1  0
 20 36  1  0
 21 37  1  0
 22 38  1  0
M  END
$$$$
[H]c1nc2c(c([H])c1[H])c(-c1c([H])c([H])c3c(c(N([H])[H])nn3[H])c1[H])c([H])n2[C@]1([H])C([H])([H])OC([H])([H])C([H])([H])C1([H])[H]
     RDKit          3D

 44 48  0  0  0  0  0  0  0  0999 V2000
    5.4745    0.6764   -1.8966 N   0  0  0  0  0  0  0  0  0  0  0  0
    5.2075   -0.5253   -1.1838 C   0  0  0  0  0  0  0  0  0  0  0  0
    6.0235   -1.5655   -0.9650 N   0  0  0  0  0  0  0  0  0  0  0  0
    5.4194   -2.4988   -0.2606 N   0  0  0  0  0  0  0  0  0  0  0  0
    4.1674   -2.1086    0.0170 C   0  0  0  0  0  0  0  0  0  0  0  0
    3.1085   -2.6966    0.7188 C   0  0  0  0  0  0  0  0  0  0  0  0
    1.9332   -1.9834    0.8030 C   0  0  0  0  0  0  0  0  0  0  0  0
    1.7675   -0.7273    0.2272 C   0  0  0  0  0  0  0  0  0  0  0  0
    2.8075   -0.1622   -0.4558 C   0  0  0  0  0  0  0  0  0  0  0  0
    4.0145   -0.8635   -0.5581 C   0  0  0  0  0  0  0  0  0  0  0  0
    0.5127    0.0049    0.3287 C   0  0  0  0  0  0  0  0  0  0  0  0
   -0.7760   -0.4628    0.1256 C   0  0  0  0  0  0  0  0  0  0  0  0
   -1.6711    0.5150    0.3096 N   0  0  0  0  0  0  0  0  0  0  0  0
   -3.1271    0.4253    0.1895 C   0  0  1  0  0  0  0  0  0  0  0  0
   -3.5430    0.1102   -1.2126 C   0  0  0  0  0  0  0  0  0  0  0  0
   -5.0305   -0.1917   -1.1988 C   0  0  0  0  0  0  0  0  0  0  0  0
   -5.2189   -1.4096   -0.3004 C   0  0  0  0  0  0  0  0  0  0  0  0
   -4.8903   -1.0185    0.9828 O   0  0  0  0  0  0  0  0  0  0  0  0
   -3.5658   -0.6890    1.1121 C   0  0  0  0  0  0  0  0  0  0  0  0
   -0.9837    1.6335    0.6349 C   0  0  0  0  0  0  0  0  0  0  0  0
   -1.4347    2.8753    0.9153 N   0  0  0  0  0  0  0  0  0  0  0  0
   -0.5642    3.8666    1.2219 C   0  0  0  0  0  0  0  0  0  0  0  0
    0.7959    3.6480    1.2588 C   0  0  0  0  0  0  0  0  0  0  0  0
    1.2505    2.3684    0.9692 C   0  0  0  0  0  0  0  0  0  0  0  0
    0.3790    1.3366    0.6522 C   0  0  0  0  0  0  0  0  0  0  0  0
    6.4194    1.1200   -1.7900 H   0  0  0  0  0  0  0  0  0  0  0  0
    4.7547    1.0976   -2.5017 H   0  0  0  0  0  0  0  0  0  0  0  0
    5.8117   -3.4268    0.0623 H   0  0  0  0  0  0  0  0  0  0  0  0
    3.2532   -3.6665    1.1571 H   0  0  0  0  0  0  0  0  0  0  0  0
    1.0862   -2.3892    1.3316 H   0  0  0  0  0  0  0  0  0  0  0  0
    2.7778    0.8078   -0.9397 H   0  0  0  0  0  0  0  0  0  0  0  0
   -0.9837   -1.4971   -0.1465 H   0  0  0  0  0  0  0  0  0  0  0  0
   -3.5796    1.3566    0.5747 H   0  0  0  0  0  0  0  0  0  0  0  0
   -3.0153   -0.8103   -1.5335 H   0  0  0  0  0  0  0  0  0  0  0  0
   -3.3146    0.9488   -1.9007 H   0  0  0  0  0  0  0  0  0  0  0  0
   -5.4273   -0.3803   -2.1989 H   0  0  0  0  0  0  0  0  0  0  0  0
   -5.5531    0.6611   -0.6822 H   0  0  0  0  0  0  0  0  0  0  0  0
   -4.5420   -2.2001   -0.6609 H   0  0  0  0  0  0  0  0  0  0  0  0
   -6.2865   -1.6878   -0.3124 H   0  0  0  0  0  0  0  0  0  0  0  0
   -3.4089   -0.3019    2.1558 H   0  0  0  0  0  0  0  0  0  0  0  0
   -2.9147   -1.5850    1.0269 H   0  0  0  0  0  0  0  0  0  0  0  0
   -0.9557    4.8493    1.4415 H   0  0  0  0  0  0  0  0  0  0  0  0
    1.5226    4.4032    1.4968 H   0  0  0  0  0  0  0  0  0  0  0  0
    2.2995    2.1433    0.9848 H   0  0  0  0  0  0  0  0  0  0  0  0
  1  2  1  0
  2  3  2  0
  3  4  1  0
  4  5  1  0
  5  6  2  0
  6  7  1  0
  7  8  2  0
  8  9  1  0
  9 10  2  0
  8 11  1  0
 11 12  2  0
 12 13  1  0
 13 14  1  0
 14 15  1  0
 15 16  1  0
 16 17  1  0
 17 18  1  0
 18 19  1  0
 13 20  1  0
 20 21  2  0
 21 22  1  0
 22 23  2  0
 23 24  1  0
 24 25  2  0
 10  2  1  0
 25 11  1  0
 10  5  1  0
 19 14  1  0
 25 20  1  0
  1 26  1  0
  1 27  1  0
  4 28  1  0
  6 29  1  0
  7 30  1  0
  9 31  1  0
 12 32  1  0
 14 33  1  1
 15 34  1  0
 15 35  1  0
 16 36  1  0
 16 37  1  0
 17 38  1  0
 17 39  1  0
 19 40  1  0
 19 41  1  0
 22 42  1  0
 23 43  1  0
 24 44  1  0
M  END
$$$$
[H]c1c([H])c([H])c(N([H])c2c([H])c([H])c3c(c2[H])c2c([H])c(C(=O)N([H])[C@@]([H])(c4c([H])c([H])c([H])c([H])c4[H])C([H])([H])[H])c(OC([H])([H])[H])c([H])c2n3C([H])([H])C([H])([H])[H])c([H])c1[H]
     RDKit          3D

 64 68  0  0  0  0  0  0  0  0999 V2000
    2.6134   -0.7113    4.2773 C   0  0  0  0  0  0  0  0  0  0  0  0
    2.2028   -1.7868    3.3042 C   0  0  0  0  0  0  0  0  0  0  0  0
    1.9011   -1.2279    1.9830 N   0  0  0  0  0  0  0  0  0  0  0  0
    2.7549   -1.0563    0.9765 C   0  0  0  0  0  0  0  0  0  0  0  0
    4.0953   -1.3285    0.8729 C   0  0  0  0  0  0  0  0  0  0  0  0
    4.7662   -1.0402   -0.3230 C   0  0  0  0  0  0  0  0  0  0  0  0
    4.1430   -0.4889   -1.4157 C   0  0  0  0  0  0  0  0  0  0  0  0
    4.7810   -0.1503   -2.6254 N   0  0  0  0  0  0  0  0  0  0  0  0
    6.1324    0.1894   -2.8213 C   0  0  0  0  0  0  0  0  0  0  0  0
    6.8796    0.7004   -1.8015 C   0  0  0  0  0  0  0  0  0  0  0  0
    8.2258    1.0083   -2.0197 C   0  0  0  0  0  0  0  0  0  0  0  0
    8.8327    0.8128   -3.2392 C   0  0  0  0  0  0  0  0  0  0  0  0
    8.0490    0.2936   -4.2539 C   0  0  0  0  0  0  0  0  0  0  0  0
    6.7339   -0.0161   -4.0711 C   0  0  0  0  0  0  0  0  0  0  0  0
    2.7752   -0.2221   -1.2813 C   0  0  0  0  0  0  0  0  0  0  0  0
    2.1152   -0.5054   -0.1089 C   0  0  0  0  0  0  0  0  0  0  0  0
    0.7827   -0.3323    0.2695 C   0  0  0  0  0  0  0  0  0  0  0  0
   -0.3231    0.1701   -0.3752 C   0  0  0  0  0  0  0  0  0  0  0  0
   -1.5888    0.2493    0.2278 C   0  0  0  0  0  0  0  0  0  0  0  0
   -2.7083    0.7936   -0.4841 C   0  0  0  0  0  0  0  0  0  0  0  0
   -2.4482    1.1686   -1.6971 O   0  0  0  0  0  0  0  0  0  0  0  0
   -4.0213    0.9740   -0.0648 N   0  0  0  0  0  0  0  0  0  0  0  0
   -5.0234    1.5529   -0.9638 C   0  0  2  0  0  0  0  0  0  0  0  0
   -5.3479    2.9606   -0.4523 C   0  0  0  0  0  0  0  0  0  0  0  0
   -6.2334    0.7075   -0.9688 C   0  0  0  0  0  0  0  0  0  0  0  0
   -6.8036    0.2929    0.2288 C   0  0  0  0  0  0  0  0  0  0  0  0
   -7.9513   -0.5093    0.2490 C   0  0  0  0  0  0  0  0  0  0  0  0
   -8.5495   -0.9113   -0.9147 C   0  0  0  0  0  0  0  0  0  0  0  0
   -8.0011   -0.5124   -2.1164 C   0  0  0  0  0  0  0  0  0  0  0  0
   -6.8565    0.2869   -2.1270 C   0  0  0  0  0  0  0  0  0  0  0  0
   -1.6795   -0.2054    1.5154 C   0  0  0  0  0  0  0  0  0  0  0  0
   -2.8636   -0.1892    2.2356 O   0  0  0  0  0  0  0  0  0  0  0  0
   -2.9299   -0.6636    3.5604 C   0  0  0  0  0  0  0  0  0  0  0  0
   -0.5389   -0.7160    2.1594 C   0  0  0  0  0  0  0  0  0  0  0  0
    0.6953   -0.7881    1.5583 C   0  0  0  0  0  0  0  0  0  0  0  0
    3.6160   -0.3219    4.0342 H   0  0  0  0  0  0  0  0  0  0  0  0
    2.6973   -1.2029    5.2700 H   0  0  0  0  0  0  0  0  0  0  0  0
    1.8662    0.0853    4.3772 H   0  0  0  0  0  0  0  0  0  0  0  0
    1.3330   -2.3149    3.7369 H   0  0  0  0  0  0  0  0  0  0  0  0
    3.0318   -2.5232    3.2363 H   0  0  0  0  0  0  0  0  0  0  0  0
    4.6144   -1.7581    1.7096 H   0  0  0  0  0  0  0  0  0  0  0  0
    5.8307   -1.2851   -0.3832 H   0  0  0  0  0  0  0  0  0  0  0  0
    4.1669   -0.1535   -3.4927 H   0  0  0  0  0  0  0  0  0  0  0  0
    6.4939    0.8977   -0.8315 H   0  0  0  0  0  0  0  0  0  0  0  0
    8.7904    1.4132   -1.1856 H   0  0  0  0  0  0  0  0  0  0  0  0
    9.8645    1.0590   -3.3687 H   0  0  0  0  0  0  0  0  0  0  0  0
    8.5391    0.1443   -5.2085 H   0  0  0  0  0  0  0  0  0  0  0  0
    6.1312   -0.4255   -4.8839 H   0  0  0  0  0  0  0  0  0  0  0  0
    2.2658    0.2136   -2.1342 H   0  0  0  0  0  0  0  0  0  0  0  0
   -0.2222    0.5207   -1.3853 H   0  0  0  0  0  0  0  0  0  0  0  0
   -4.3708    0.7295    0.8638 H   0  0  0  0  0  0  0  0  0  0  0  0
   -4.6020    1.7120   -1.9711 H   0  0  0  0  0  0  0  0  0  0  0  0
   -6.3672    3.2784   -0.7093 H   0  0  0  0  0  0  0  0  0  0  0  0
   -4.5467    3.6312   -0.7979 H   0  0  0  0  0  0  0  0  0  0  0  0
   -5.2688    2.9088    0.6725 H   0  0  0  0  0  0  0  0  0  0  0  0
   -6.3564    0.5952    1.1435 H   0  0  0  0  0  0  0  0  0  0  0  0
   -8.3897   -0.8267    1.1927 H   0  0  0  0  0  0  0  0  0  0  0  0
   -9.4485   -1.5373   -0.9222 H   0  0  0  0  0  0  0  0  0  0  0  0
   -8.4876   -0.8379   -3.0232 H   0  0  0  0  0  0  0  0  0  0  0  0
   -6.4290    0.5972   -3.0740 H   0  0  0  0  0  0  0  0  0  0  0  0
   -2.4930   -1.6916    3.6546 H   0  0  0  0  0  0  0  0  0  0  0  0
   -2.3043   -0.0154    4.2144 H   0  0  0  0  0  0  0  0  0  0  0  0
   -3.9615   -0.6106    3.9473 H   0  0  0  0  0  0  0  0  0  0  0  0
   -0.6042   -1.0813    3.1901 H   0  0  0  0  0  0  0  0  0  0  0  0
  1  2  1  0
  2  3  1  0
  3  4  1  0
  4  5  2  0
  5  6  1  0
  6  7  2  0
  7  8  1  0
  8  9  1  0
  9 10  2  0
 10 11  1  0
 11 12  2  0
 12 13  1  0
 13 14  2  0
  7 15  1  0
 15 16  2  0
 16 17  1  0
 17 18  2  0
 18 19  1  0
 19 20  1  0
 20 21  2  0
 20 22  1  0
 22 23  1  0
 23 24  1  0
 23 25  1  0
 25 26  2  0
 26 27  1  0
 27 28  2  0
 28 29  1  0
 29 30  2  0
 19 31  2  0
 31 32  1  0
 32 33  1  0
 31 34  1  0
 34 35  2  0
 35  3  1  0
 16  4  1  0
 35 17  1  0
 14  9  1  0
 30 25  1  0
  1 36  1  0
  1 37  1  0
  1 38  1  0
  2 39  1  0
  2 40  1  0
  5 41  1  0
  6 42  1  0
  8 43  1  0
 10 44  1  0
 11 45  1  0
 12 46  1  0
 13 47  1  0
 14 48  1  0
 15 49  1  0
 18 50  1  0
 22 51  1  0
 23 52  1  6
 24 53  1  0
 24 54  1  0
 24 55  1  0
 26 56  1  0
 27 57  1  0
 28 58  1  0
 29 59  1  0
 30 60  1  0
 33 61  1  0
 33 62  1  0
 33 63  1  0
 34 64  1  0
M  END
$$$$
[H]c1c(OC([H])([H])[H])c([H])c(N([H])c2nc(N([H])[C@@]3([H])C([H])([H])[C@@]4([H])N(C([H])([H])[H])[C@]([H])(C([H])([H])C4([H])[H])C3([H])[H])c([H])c(C([H])([H])[H])c2[H])c([H])c1C(=O)N([H])C([H])([H])C1([H])C([H])([H])C1([H])[H]
     RDKit          3D

 68 72  0  0  0  0  0  0  0  0999 V2000
    4.8156   -2.6751    4.5416 C   0  0  0  0  0  0  0  0  0  0  0  0
    3.6731   -1.9876    4.0987 O   0  0  0  0  0  0  0  0  0  0  0  0
    3.6569   -1.2765    2.9050 C   0  0  0  0  0  0  0  0  0  0  0  0
    2.5083   -0.6141    2.5062 C   0  0  0  0  0  0  0  0  0  0  0  0
    2.4116    0.1088    1.3418 C   0  0  0  0  0  0  0  0  0  0  0  0
    1.2674    0.7836    0.8815 N   0  0  0  0  0  0  0  0  0  0  0  0
   -0.0232    0.2339    0.8778 C   0  0  0  0  0  0  0  0  0  0  0  0
   -0.2774   -1.0681    1.2175 C   0  0  0  0  0  0  0  0  0  0  0  0
   -1.5786   -1.5816    1.2270 C   0  0  0  0  0  0  0  0  0  0  0  0
   -1.8517   -2.9934    1.5962 C   0  0  0  0  0  0  0  0  0  0  0  0
   -2.5992   -0.7426    0.8843 C   0  0  0  0  0  0  0  0  0  0  0  0
   -2.3665    0.5619    0.5401 C   0  0  0  0  0  0  0  0  0  0  0  0
   -3.4334    1.3991    0.1650 N   0  0  0  0  0  0  0  0  0  0  0  0
   -4.8199    1.0140    0.0059 C   0  0  1  0  0  0  0  0  0  0  0  0
   -5.6129    2.2971   -0.0939 C   0  0  0  0  0  0  0  0  0  0  0  0
   -6.9460    2.0749   -0.7576 C   0  0  2  0  0  0  0  0  0  0  0  0
   -7.7118    0.9060   -0.2076 C   0  0  0  0  0  0  0  0  0  0  0  0
   -7.4889   -0.1787   -1.2163 C   0  0  0  0  0  0  0  0  0  0  0  0
   -6.2712    0.3324   -1.9598 C   0  0  2  0  0  0  0  0  0  0  0  0
   -5.0077    0.1315   -1.1980 C   0  0  0  0  0  0  0  0  0  0  0  0
   -6.6193    1.7235   -2.1491 N   0  0  0  0  0  0  0  0  0  0  0  0
   -7.7148    1.8991   -3.0462 C   0  0  0  0  0  0  0  0  0  0  0  0
   -1.1033    0.9948    0.5504 N   0  0  0  0  0  0  0  0  0  0  0  0
    3.5924    0.1250    0.5716 C   0  0  0  0  0  0  0  0  0  0  0  0
    4.7387   -0.5196    0.9416 C   0  0  0  0  0  0  0  0  0  0  0  0
    4.7867   -1.2331    2.1198 C   0  0  0  0  0  0  0  0  0  0  0  0
    5.9400   -0.4806    0.0920 C   0  0  0  0  0  0  0  0  0  0  0  0
    7.0341   -0.8576    0.5579 O   0  0  0  0  0  0  0  0  0  0  0  0
    5.9107   -0.0284   -1.2534 N   0  0  0  0  0  0  0  0  0  0  0  0
    7.0961    0.0054   -2.0789 C   0  0  0  0  0  0  0  0  0  0  0  0
    8.1495    0.9206   -1.4759 C   0  0  0  0  0  0  0  0  0  0  0  0
    9.4332    1.0166   -2.2838 C   0  0  0  0  0  0  0  0  0  0  0  0
    9.4365    0.3519   -0.9560 C   0  0  0  0  0  0  0  0  0  0  0  0
    5.5879   -1.9838    4.8808 H   0  0  0  0  0  0  0  0  0  0  0  0
    5.2161   -3.2655    3.6750 H   0  0  0  0  0  0  0  0  0  0  0  0
    4.5712   -3.3812    5.3704 H   0  0  0  0  0  0  0  0  0  0  0  0
    1.6474   -0.6657    3.1639 H   0  0  0  0  0  0  0  0  0  0  0  0
    1.4409    1.7748    0.5213 H   0  0  0  0  0  0  0  0  0  0  0  0
    0.4996   -1.7871    1.4758 H   0  0  0  0  0  0  0  0  0  0  0  0
   -2.8913   -3.0899    1.9946 H   0  0  0  0  0  0  0  0  0  0  0  0
   -1.1422   -3.3221    2.3892 H   0  0  0  0  0  0  0  0  0  0  0  0
   -1.6913   -3.6552    0.7108 H   0  0  0  0  0  0  0  0  0  0  0  0
   -3.6013   -1.1570    0.9135 H   0  0  0  0  0  0  0  0  0  0  0  0
   -3.1522    2.4174   -0.0133 H   0  0  0  0  0  0  0  0  0  0  0  0
   -5.1488    0.4707    0.8995 H   0  0  0  0  0  0  0  0  0  0  0  0
   -5.8366    2.6580    0.9467 H   0  0  0  0  0  0  0  0  0  0  0  0
   -5.0892    3.0829   -0.6836 H   0  0  0  0  0  0  0  0  0  0  0  0
   -7.5979    2.9534   -0.7107 H   0  0  0  0  0  0  0  0  0  0  0  0
   -8.8094    1.1190   -0.1330 H   0  0  0  0  0  0  0  0  0  0  0  0
   -7.3851    0.5766    0.7817 H   0  0  0  0  0  0  0  0  0  0  0  0
   -7.3215   -1.1707   -0.7619 H   0  0  0  0  0  0  0  0  0  0  0  0
   -8.3268   -0.2305   -1.9397 H   0  0  0  0  0  0  0  0  0  0  0  0
   -6.1779   -0.2129   -2.9166 H   0  0  0  0  0  0  0  0  0  0  0  0
   -4.9936   -0.9353   -0.8899 H   0  0  0  0  0  0  0  0  0  0  0  0
   -4.1701    0.2264   -1.9262 H   0  0  0  0  0  0  0  0  0  0  0  0
   -8.5786    2.3787   -2.5470 H   0  0  0  0  0  0  0  0  0  0  0  0
   -7.9851    0.9602   -3.5550 H   0  0  0  0  0  0  0  0  0  0  0  0
   -7.3801    2.6262   -3.8422 H   0  0  0  0  0  0  0  0  0  0  0  0
    3.5379    0.6962   -0.3593 H   0  0  0  0  0  0  0  0  0  0  0  0
    5.6901   -1.7434    2.4159 H   0  0  0  0  0  0  0  0  0  0  0  0
    5.0154    0.2893   -1.6711 H   0  0  0  0  0  0  0  0  0  0  0  0
    6.8685    0.4078   -3.0776 H   0  0  0  0  0  0  0  0  0  0  0  0
    7.5226   -1.0294   -2.1947 H   0  0  0  0  0  0  0  0  0  0  0  0
    7.7710    1.8462   -1.0092 H   0  0  0  0  0  0  0  0  0  0  0  0
    9.5161    0.3525   -3.1828 H   0  0  0  0  0  0  0  0  0  0  0  0
    9.8874    2.0215   -2.3962 H   0  0  0  0  0  0  0  0  0  0  0  0
    9.9481    0.8917   -0.1352 H   0  0  0  0  0  0  0  0  0  0  0  0
    9.5335   -0.7624   -0.9403 H   0  0  0  0  0  0  0  0  0  0  0  0
  1  2  1  0
  2  3  1  0
  3  4  2  0
  4  5  1  0
  5  6  1  0
  6  7  1  0
  7  8  2  0
  8  9  1  0
  9 10  1  0
  9 11  2  0
 11 12  1  0
 12 13  1  0
 13 14  1  0
 14 15  1  0
 15 16  1  0
 16 17  1  0
 17 18  1  0
 18 19  1  0
 19 20  1  0
 19 21  1  0
 21 22  1  0
 12 23  2  0
  5 24  2  0
 24 25  1  0
 25 26  2  0
 25 27  1  0
 27 28  2  0
 27 29  1  0
 29 30  1  0
 30 31  1  0
 31 32  1  0
 32 33  1  0
 26  3  1  0
 33 31  1  0
 23  7  1  0
 20 14  1  0
 21 16  1  0
  1 34  1  0
  1 35  1  0
  1 36  1  0
  4 37  1  0
  6 38  1  0
  8 39  1  0
 10 40  1  0
 10 41  1  0
 10 42  1  0
 11 43  1  0
 13 44  1  0
 14 45  1  1
 15 46  1  0
 15 47  1  0
 16 48  1  6
 17 49  1  0
 17 50  1  0
 18 51  1  0
 18 52  1  0
 19 53  1  6
 20 54  1  0
 20 55  1  0
 22 56  1  0
 22 57  1  0
 22 58  1  0
 24 59  1  0
 26 60  1  0
 29 61  1  0
 30 62  1  0
 30 63  1  0
 31 64  1  0
 32 65  1  0
 32 66  1  0
 33 67  1  0
 33 68  1  0
M  END
$$$$
[H]/C(=C(/[H])c1c([H])c([H])c2c(c1[H])/C(=N/N([H])C(=O)C([H])([H])[H])C(=O)N2[H])c1nc2c([H])c([H])c(N([H])[H])c([H])c2c([H])c1[H]
     RDKit          3D

 45 48  0  0  0  0  0  0  0  0999 V2000
    8.6020   -0.6362   -1.7210 C   0  0  0  0  0  0  0  0  0  0  0  0
    7.1691   -0.6730   -1.3357 C   0  0  0  0  0  0  0  0  0  0  0  0
    6.6440   -1.8109   -1.1738 O   0  0  0  0  0  0  0  0  0  0  0  0
    6.4090    0.5117   -1.1536 N   0  0  0  0  0  0  0  0  0  0  0  0
    5.0639    0.4363   -0.7913 N   0  0  0  0  0  0  0  0  0  0  0  0
    4.6822    0.3844    0.4475 C   0  0  0  0  0  0  0  0  0  0  0  0
    5.5407    0.3951    1.6073 C   0  0  0  0  0  0  0  0  0  0  0  0
    6.7951    0.4572    1.5733 O   0  0  0  0  0  0  0  0  0  0  0  0
    4.6773    0.3227    2.7376 N   0  0  0  0  0  0  0  0  0  0  0  0
    3.3247    0.2674    2.3399 C   0  0  0  0  0  0  0  0  0  0  0  0
    2.1510    0.1909    3.0563 C   0  0  0  0  0  0  0  0  0  0  0  0
    0.9370    0.1501    2.3715 C   0  0  0  0  0  0  0  0  0  0  0  0
    0.8743    0.1838    1.0003 C   0  0  0  0  0  0  0  0  0  0  0  0
   -0.3555    0.1449    0.2183 C   0  0  0  0  0  0  0  0  0  0  0  0
   -1.5682    0.0727    0.7052 C   0  0  0  0  0  0  0  0  0  0  0  0
   -2.8011    0.0334   -0.0717 C   0  0  0  0  0  0  0  0  0  0  0  0
   -2.8605    0.0671   -1.4290 C   0  0  0  0  0  0  0  0  0  0  0  0
   -4.0909    0.0249   -2.0897 C   0  0  0  0  0  0  0  0  0  0  0  0
   -5.2660   -0.0508   -1.4087 C   0  0  0  0  0  0  0  0  0  0  0  0
   -6.5056   -0.0959   -1.9812 C   0  0  0  0  0  0  0  0  0  0  0  0
   -7.6550   -0.1723   -1.2272 C   0  0  0  0  0  0  0  0  0  0  0  0
   -8.9238   -0.2166   -1.8809 N   0  0  0  0  0  0  0  0  0  0  0  0
   -7.5773   -0.2054    0.1429 C   0  0  0  0  0  0  0  0  0  0  0  0
   -6.3348   -0.1606    0.7314 C   0  0  0  0  0  0  0  0  0  0  0  0
   -5.1771   -0.0838   -0.0237 C   0  0  0  0  0  0  0  0  0  0  0  0
   -3.9999   -0.0426    0.5801 N   0  0  0  0  0  0  0  0  0  0  0  0
    2.0866    0.2609    0.3332 C   0  0  0  0  0  0  0  0  0  0  0  0
    3.3076    0.3035    0.9651 C   0  0  0  0  0  0  0  0  0  0  0  0
    8.7480    0.3533   -2.2433 H   0  0  0  0  0  0  0  0  0  0  0  0
    8.8900   -1.4367   -2.4161 H   0  0  0  0  0  0  0  0  0  0  0  0
    9.1989   -0.6554   -0.7722 H   0  0  0  0  0  0  0  0  0  0  0  0
    6.8912    1.4219   -1.2999 H   0  0  0  0  0  0  0  0  0  0  0  0
    5.0147    0.3129    3.7127 H   0  0  0  0  0  0  0  0  0  0  0  0
    2.1225    0.1602    4.1470 H   0  0  0  0  0  0  0  0  0  0  0  0
   -0.0041    0.0896    2.9146 H   0  0  0  0  0  0  0  0  0  0  0  0
   -0.2885    0.1777   -0.8809 H   0  0  0  0  0  0  0  0  0  0  0  0
   -1.6564    0.0392    1.7896 H   0  0  0  0  0  0  0  0  0  0  0  0
   -1.9371    0.1276   -2.0024 H   0  0  0  0  0  0  0  0  0  0  0  0
   -4.1127    0.0528   -3.1677 H   0  0  0  0  0  0  0  0  0  0  0  0
   -6.5407   -0.0681   -3.0762 H   0  0  0  0  0  0  0  0  0  0  0  0
   -9.7339   -0.6428   -1.4075 H   0  0  0  0  0  0  0  0  0  0  0  0
   -9.0602    0.1726   -2.8336 H   0  0  0  0  0  0  0  0  0  0  0  0
   -8.4809   -0.2657    0.7414 H   0  0  0  0  0  0  0  0  0  0  0  0
   -6.2828   -0.1877    1.8301 H   0  0  0  0  0  0  0  0  0  0  0  0
    2.0830    0.2899   -0.7554 H   0  0  0  0  0  0  0  0  0  0  0  0
  1  2  1  0
  2  3  2  0
  2  4  1  0
  4  5  1  0
  5  6  2  0
  6  7  1  0
  7  8  2  0
  7  9  1  0
  9 10  1  0
 10 11  2  0
 11 12  1  0
 12 13  2  0
 13 14  1  0
 14 15  2  0
 15 16  1  0
 16 17  2  0
 17 18  1  0
 18 19  2  0
 19 20  1  0
 20 21  2  0
 21 22  1  0
 21 23  1  0
 23 24  2  0
 24 25  1  0
 25 26  2  0
 13 27  1  0
 27 28  2  0
 28  6  1  0
 28 10  1  0
 26 16  1  0
 25 19  1  0
  1 29  1  0
  1 30  1  0
  1 31  1  0
  4 32  1  0
  9 33  1  0
 11 34  1  0
 12 35  1  0
 14 36  1  0
 15 37  1  0
 17 38  1  0
 18 39  1  0
 20 40  1  0
 22 41  1  0
 22 42  1  0
 23 43  1  0
 24 44  1  0
 27 45  1  0
M  END
$$$$
[H]c1c([H])c([H])c(-c2c([H])c([H])c3c(c2[H])c(C(=O)N([H])C([H])([H])C([H])([H])C([H])([H])N([H])N(C([H])([H])[H])C([H])([H])[H])c(-c2c([H])c([H])c([H])c([H])c2[H])n3[H])c([H])c1[H]
     RDKit          3D

 59 62  0  0  0  0  0  0  0  0999 V2000
   -6.4410    2.5574    0.5493 C   0  0  0  0  0  0  0  0  0  0  0  0
   -5.0055    2.5908    0.9261 N   0  0  0  0  0  0  0  0  0  0  0  0
   -4.8969    2.1833    2.3170 C   0  0  0  0  0  0  0  0  0  0  0  0
   -4.2960    1.8207    0.0327 N   0  0  0  0  0  0  0  0  0  0  0  0
   -3.1024    1.2128    0.5690 C   0  0  0  0  0  0  0  0  0  0  0  0
   -3.3107   -0.2621    0.1911 C   0  0  0  0  0  0  0  0  0  0  0  0
   -2.2624   -1.1844    0.6182 C   0  0  0  0  0  0  0  0  0  0  0  0
   -0.9800   -0.9500    0.0046 N   0  0  0  0  0  0  0  0  0  0  0  0
    0.1125   -1.7909    0.2085 C   0  0  0  0  0  0  0  0  0  0  0  0
   -0.0431   -2.7801    1.0041 O   0  0  0  0  0  0  0  0  0  0  0  0
    1.4258   -1.6844   -0.3931 C   0  0  0  0  0  0  0  0  0  0  0  0
    1.9640   -2.8033   -1.0558 C   0  0  0  0  0  0  0  0  0  0  0  0
    3.1663   -2.4008   -1.4848 N   0  0  0  0  0  0  0  0  0  0  0  0
    3.3995   -1.1123   -1.1308 C   0  0  0  0  0  0  0  0  0  0  0  0
    4.4937   -0.3188   -1.3540 C   0  0  0  0  0  0  0  0  0  0  0  0
    4.4709    0.9605   -0.8682 C   0  0  0  0  0  0  0  0  0  0  0  0
    3.3854    1.4892   -0.1530 C   0  0  0  0  0  0  0  0  0  0  0  0
    2.3167    0.6645    0.0526 C   0  0  0  0  0  0  0  0  0  0  0  0
    2.2920   -0.6396   -0.4249 C   0  0  0  0  0  0  0  0  0  0  0  0
    3.4494    2.8554    0.3303 C   0  0  0  0  0  0  0  0  0  0  0  0
    4.1238    3.8168   -0.4244 C   0  0  0  0  0  0  0  0  0  0  0  0
    4.2452    5.1524    0.0539 C   0  0  0  0  0  0  0  0  0  0  0  0
    3.7228    5.5280    1.2408 C   0  0  0  0  0  0  0  0  0  0  0  0
    3.0499    4.5696    1.9856 C   0  0  0  0  0  0  0  0  0  0  0  0
    2.9192    3.2716    1.5377 C   0  0  0  0  0  0  0  0  0  0  0  0
    1.2918   -4.0764   -1.2288 C   0  0  0  0  0  0  0  0  0  0  0  0
    1.4338   -5.1043   -0.3573 C   0  0  0  0  0  0  0  0  0  0  0  0
    0.7232   -6.2908   -0.5556 C   0  0  0  0  0  0  0  0  0  0  0  0
   -0.1193   -6.4020   -1.6430 C   0  0  0  0  0  0  0  0  0  0  0  0
   -0.2336   -5.3316   -2.5134 C   0  0  0  0  0  0  0  0  0  0  0  0
    0.4506   -4.1737   -2.3303 C   0  0  0  0  0  0  0  0  0  0  0  0
   -6.9319    3.5010    0.7415 H   0  0  0  0  0  0  0  0  0  0  0  0
   -6.5084    2.2040   -0.5220 H   0  0  0  0  0  0  0  0  0  0  0  0
   -6.8530    1.7582    1.2043 H   0  0  0  0  0  0  0  0  0  0  0  0
   -4.4071    2.9882    2.9304 H   0  0  0  0  0  0  0  0  0  0  0  0
   -4.4106    1.2086    2.4239 H   0  0  0  0  0  0  0  0  0  0  0  0
   -5.9703    2.0235    2.6872 H   0  0  0  0  0  0  0  0  0  0  0  0
   -3.9083    2.4732   -0.7630 H   0  0  0  0  0  0  0  0  0  0  0  0
   -2.8669    1.4260    1.5835 H   0  0  0  0  0  0  0  0  0  0  0  0
   -2.2170    1.4935   -0.0818 H   0  0  0  0  0  0  0  0  0  0  0  0
   -3.4333   -0.2299   -0.9228 H   0  0  0  0  0  0  0  0  0  0  0  0
   -4.3167   -0.5228    0.6436 H   0  0  0  0  0  0  0  0  0  0  0  0
   -2.5880   -2.2245    0.3628 H   0  0  0  0  0  0  0  0  0  0  0  0
   -2.1516   -1.1536    1.7463 H   0  0  0  0  0  0  0  0  0  0  0  0
   -0.8695   -0.1235   -0.6177 H   0  0  0  0  0  0  0  0  0  0  0  0
    3.8301   -2.9992   -2.0296 H   0  0  0  0  0  0  0  0  0  0  0  0
    5.3663   -0.7175   -1.9112 H   0  0  0  0  0  0  0  0  0  0  0  0
    5.3304    1.5872   -1.0522 H   0  0  0  0  0  0  0  0  0  0  0  0
    1.4111    0.9496    0.6023 H   0  0  0  0  0  0  0  0  0  0  0  0
    4.5330    3.5064   -1.3547 H   0  0  0  0  0  0  0  0  0  0  0  0
    4.7653    5.8638   -0.5671 H   0  0  0  0  0  0  0  0  0  0  0  0
    3.8067    6.5412    1.6618 H   0  0  0  0  0  0  0  0  0  0  0  0
    2.6497    4.8878    2.9573 H   0  0  0  0  0  0  0  0  0  0  0  0
    2.4008    2.5200    2.1336 H   0  0  0  0  0  0  0  0  0  0  0  0
    2.0690   -5.0878    0.5077 H   0  0  0  0  0  0  0  0  0  0  0  0
    0.8340   -7.1024    0.1424 H   0  0  0  0  0  0  0  0  0  0  0  0
   -0.6917   -7.2979   -1.8154 H   0  0  0  0  0  0  0  0  0  0  0  0
   -0.9230   -5.4801   -3.3597 H   0  0  0  0  0  0  0  0  0  0  0  0
    0.3053   -3.3602   -3.0352 H   0  0  0  0  0  0  0  0  0  0  0  0
  1  2  1  0
  2  3  1  0
  2  4  1  0
  4  5  1  0
  5  6  1  0
  6  7  1  0
  7  8  1  0
  8  9  1  0
  9 10  2  0
  9 11  1  0
 11 12  2  0
 12 13  1  0
 13 14  1  0
 14 15  2  0
 15 16  1  0
 16 17  2  0
 17 18  1  0
 18 19  2  0
 17 20  1  0
 20 21  2  0
 21 22  1  0
 22 23  2  0
 23 24  1  0
 24 25  2  0
 12 26  1  0
 26 27  2  0
 27 28  1  0
 28 29  2  0
 29 30  1  0
 30 31  2  0
 19 11  1  0
 25 20  1  0
 31 26  1  0
 19 14  1  0
  1 32  1  0
  1 33  1  0
  1 34  1  0
  3 35  1  0
  3 36  1  0
  3 37  1  0
  4 38  1  0
  5 39  1  0
  5 40  1  0
  6 41  1  0
  6 42  1  0
  7 43  1  0
  7 44  1  0
  8 45  1  0
 13 46  1  0
 15 47  1  0
 16 48  1  0
 18 49  1  0
 21 50  1  0
 22 51  1  0
 23 52  1  0
 24 53  1  0
 25 54  1  0
 27 55  1  0
 28 56  1  0
 29 57  1  0
 30 58  1  0
 31 59  1  0
M  END
$$$$
[H]c1c(Oc2c([H])c([H])c(N([H])S(=O)(=O)C([H])([H])[H])c([H])c2[H])nc(N([H])c2c([H])c([H])c3c(c2[H])c([H])c([H])n3[H])nc1N([H])[C@]1([H])C([H])([H])N(C(=O)C2([H])C([H])([H])C([H])([H])N(C([H])([H])C([H])([H])[H])C([H])([H])C2([H])[H])C([H])([H])C([H])([H])C1([H])[H]
     RDKit          3D

 85 90  0  0  0  0  0  0  0  0999 V2000
    9.8294   -2.0338   -1.8188 C   0  0  0  0  0  0  0  0  0  0  0  0
    9.2022   -2.9456   -0.7905 C   0  0  0  0  0  0  0  0  0  0  0  0
    8.1149   -2.3706   -0.0948 N   0  0  0  0  0  0  0  0  0  0  0  0
    8.3632   -1.3090    0.7912 C   0  0  0  0  0  0  0  0  0  0  0  0
    7.4748   -0.1099    0.6929 C   0  0  0  0  0  0  0  0  0  0  0  0
    6.0339   -0.6773    0.6738 C   0  0  0  0  0  0  0  0  0  0  0  0
    5.9593   -1.3375   -0.6961 C   0  0  0  0  0  0  0  0  0  0  0  0
    6.8118   -2.5814   -0.5861 C   0  0  0  0  0  0  0  0  0  0  0  0
    5.0699    0.4001    0.8759 C   0  0  0  0  0  0  0  0  0  0  0  0
    5.3413    1.5800    0.6614 O   0  0  0  0  0  0  0  0  0  0  0  0
    3.7403    0.0643    1.3466 N   0  0  0  0  0  0  0  0  0  0  0  0
    3.4522   -1.3130    1.5881 C   0  0  0  0  0  0  0  0  0  0  0  0
    2.0816   -1.4233    2.2233 C   0  0  0  0  0  0  0  0  0  0  0  0
    1.1380   -0.7078    1.2343 C   0  0  0  0  0  0  0  0  0  0  0  0
    1.3420    0.7655    1.2905 C   0  0  1  0  0  0  0  0  0  0  0  0
    2.7702    1.0955    1.5845 C   0  0  0  0  0  0  0  0  0  0  0  0
    0.8309    1.5085    0.1763 N   0  0  0  0  0  0  0  0  0  0  0  0
   -0.5272    1.7871   -0.0793 C   0  0  0  0  0  0  0  0  0  0  0  0
   -1.4863    1.3562    0.8191 C   0  0  0  0  0  0  0  0  0  0  0  0
   -2.8166    1.6647    0.5498 C   0  0  0  0  0  0  0  0  0  0  0  0
   -3.8085    1.2515    1.4257 O   0  0  0  0  0  0  0  0  0  0  0  0
   -4.3021   -0.0332    1.2911 C   0  0  0  0  0  0  0  0  0  0  0  0
   -5.3703   -0.4411    2.0485 C   0  0  0  0  0  0  0  0  0  0  0  0
   -5.8851   -1.7324    1.9285 C   0  0  0  0  0  0  0  0  0  0  0  0
   -5.3406   -2.6345    1.0514 C   0  0  0  0  0  0  0  0  0  0  0  0
   -5.8702   -3.9332    0.9251 N   0  0  0  0  0  0  0  0  0  0  0  0
   -6.2541   -4.9335    2.2302 S   0  0  0  0  0  0  0  0  0  0  0  0
   -7.5001   -4.3365    3.3177 C   0  0  0  0  0  0  0  0  0  0  0  0
   -6.6414   -6.3135    1.7223 O   0  0  0  0  0  0  0  0  0  0  0  0
   -5.0306   -5.2050    3.1097 O   0  0  0  0  0  0  0  0  0  0  0  0
   -4.2539   -2.2318    0.2764 C   0  0  0  0  0  0  0  0  0  0  0  0
   -3.7688   -0.9618    0.4126 C   0  0  0  0  0  0  0  0  0  0  0  0
   -3.0849    2.3601   -0.5638 N   0  0  0  0  0  0  0  0  0  0  0  0
   -2.1935    2.7900   -1.4471 C   0  0  0  0  0  0  0  0  0  0  0  0
   -2.5440    3.5468   -2.5880 N   0  0  0  0  0  0  0  0  0  0  0  0
   -3.8262    3.9730   -2.9277 C   0  0  0  0  0  0  0  0  0  0  0  0
   -4.1195    4.2730   -4.2734 C   0  0  0  0  0  0  0  0  0  0  0  0
   -5.3588    4.7478   -4.6714 C   0  0  0  0  0  0  0  0  0  0  0  0
   -6.3344    4.9302   -3.7105 C   0  0  0  0  0  0  0  0  0  0  0  0
   -7.6071    5.3806   -3.8181 N   0  0  0  0  0  0  0  0  0  0  0  0
   -8.1889    5.3970   -2.5958 C   0  0  0  0  0  0  0  0  0  0  0  0
   -7.2508    4.9447   -1.7119 C   0  0  0  0  0  0  0  0  0  0  0  0
   -6.1091    4.6582   -2.4036 C   0  0  0  0  0  0  0  0  0  0  0  0
   -4.8422    4.1818   -2.0506 C   0  0  0  0  0  0  0  0  0  0  0  0
   -0.8800    2.4919   -1.1937 N   0  0  0  0  0  0  0  0  0  0  0  0
   10.8752   -2.3882   -1.9741 H   0  0  0  0  0  0  0  0  0  0  0  0
    9.3238   -2.1622   -2.8137 H   0  0  0  0  0  0  0  0  0  0  0  0
    9.8801   -0.9984   -1.4932 H   0  0  0  0  0  0  0  0  0  0  0  0
   10.0279   -3.1884   -0.0580 H   0  0  0  0  0  0  0  0  0  0  0  0
    8.9061   -3.8800   -1.2653 H   0  0  0  0  0  0  0  0  0  0  0  0
    8.2373   -1.7066    1.8438 H   0  0  0  0  0  0  0  0  0  0  0  0
    9.4487   -1.0460    0.7417 H   0  0  0  0  0  0  0  0  0  0  0  0
    7.6534    0.5342   -0.1617 H   0  0  0  0  0  0  0  0  0  0  0  0
    7.5620    0.4849    1.6203 H   0  0  0  0  0  0  0  0  0  0  0  0
    6.0138   -1.4803    1.4295 H   0  0  0  0  0  0  0  0  0  0  0  0
    4.9789   -1.6018   -1.0419 H   0  0  0  0  0  0  0  0  0  0  0  0
    6.4021   -0.6496   -1.4743 H   0  0  0  0  0  0  0  0  0  0  0  0
    6.2802   -3.2590    0.1431 H   0  0  0  0  0  0  0  0  0  0  0  0
    6.8477   -3.1669   -1.5287 H   0  0  0  0  0  0  0  0  0  0  0  0
    3.4281   -1.9183    0.6692 H   0  0  0  0  0  0  0  0  0  0  0  0
    4.1572   -1.7433    2.3399 H   0  0  0  0  0  0  0  0  0  0  0  0
    1.7277   -2.4618    2.2782 H   0  0  0  0  0  0  0  0  0  0  0  0
    2.0117   -0.9678    3.2092 H   0  0  0  0  0  0  0  0  0  0  0  0
    1.4659   -1.1099    0.2305 H   0  0  0  0  0  0  0  0  0  0  0  0
    0.1382   -1.0783    1.5061 H   0  0  0  0  0  0  0  0  0  0  0  0
    0.7683    1.0825    2.2460 H   0  0  0  0  0  0  0  0  0  0  0  0
    2.8996    1.5585    2.5992 H   0  0  0  0  0  0  0  0  0  0  0  0
    3.0376    1.9649    0.8950 H   0  0  0  0  0  0  0  0  0  0  0  0
    1.5373    1.8912   -0.5242 H   0  0  0  0  0  0  0  0  0  0  0  0
   -1.1876    0.8095    1.6902 H   0  0  0  0  0  0  0  0  0  0  0  0
   -5.8357    0.2445    2.7605 H   0  0  0  0  0  0  0  0  0  0  0  0
   -6.7253   -1.9529    2.5603 H   0  0  0  0  0  0  0  0  0  0  0  0
   -6.0262   -4.2690   -0.0665 H   0  0  0  0  0  0  0  0  0  0  0  0
   -7.0215   -3.7262    4.1044 H   0  0  0  0  0  0  0  0  0  0  0  0
   -8.0011   -5.2360    3.7563 H   0  0  0  0  0  0  0  0  0  0  0  0
   -8.2706   -3.7145    2.8322 H   0  0  0  0  0  0  0  0  0  0  0  0
   -3.8334   -2.9552   -0.4124 H   0  0  0  0  0  0  0  0  0  0  0  0
   -2.9133   -0.6657   -0.2038 H   0  0  0  0  0  0  0  0  0  0  0  0
   -1.7292    3.8185   -3.2582 H   0  0  0  0  0  0  0  0  0  0  0  0
   -3.3662    4.1307   -5.0136 H   0  0  0  0  0  0  0  0  0  0  0  0
   -5.6147    4.9877   -5.6897 H   0  0  0  0  0  0  0  0  0  0  0  0
   -8.0702    5.6706   -4.6940 H   0  0  0  0  0  0  0  0  0  0  0  0
   -9.2191    5.7184   -2.3942 H   0  0  0  0  0  0  0  0  0  0  0  0
   -7.4143    4.8391   -0.6321 H   0  0  0  0  0  0  0  0  0  0  0  0
   -4.7415    4.0080   -0.9814 H   0  0  0  0  0  0  0  0  0  0  0  0
  1  2  1  0
  2  3  1  0
  3  4  1  0
  4  5  1  0
  5  6  1  0
  6  7  1  0
  7  8  1  0
  6  9  1  0
  9 10  2  0
  9 11  1  0
 11 12  1  0
 12 13  1  0
 13 14  1  0
 14 15  1  0
 15 16  1  0
 15 17  1  0
 17 18  1  0
 18 19  2  0
 19 20  1  0
 20 21  1  0
 21 22  1  0
 22 23  2  0
 23 24  1  0
 24 25  2  0
 25 26  1  0
 26 27  1  0
 27 28  1  0
 27 29  2  0
 27 30  2  0
 25 31  1  0
 31 32  2  0
 20 33  2  0
 33 34  1  0
 34 35  1  0
 35 36  1  0
 36 37  2  0
 37 38  1  0
 38 39  2  0
 39 40  1  0
 40 41  1  0
 41 42  2  0
 42 43  1  0
 43 44  2  0
 34 45  2  0
  8  3  1  0
 16 11  1  0
 45 18  1  0
 32 22  1  0
 44 36  1  0
 43 39  1  0
  1 46  1  0
  1 47  1  0
  1 48  1  0
  2 49  1  0
  2 50  1  0
  4 51  1  0
  4 52  1  0
  5 53  1  0
  5 54  1  0
  6 55  1  0
  7 56  1  0
  7 57  1  0
  8 58  1  0
  8 59  1  0
 12 60  1  0
 12 61  1  0
 13 62  1  0
 13 63  1  0
 14 64  1  0
 14 65  1  0
 15 66  1  1
 16 67  1  0
 16 68  1  0
 17 69  1  0
 19 70  1  0
 23 71  1  0
 24 72  1  0
 26 73  1  0
 28 74  1  0
 28 75  1  0
 28 76  1  0
 31 77  1  0
 32 78  1  0
 35 79  1  0
 37 80  1  0
 38 81  1  0
 40 82  1  0
 41 83  1  0
 42 84  1  0
 44 85  1  0
M  END
$$$$
[H]c1c([H])c([H])c(/C(=C2/C(=O)N([H])c3c([H])c(C(=O)OC([H])([H])[H])c([H])c([H])c32)N([H])c2c([H])c([H])c(OC([H])([H])c3c([H])c([H])c([H])c([H])c3[H])c([H])c2[H])c([H])c1[H]
     RDKit          3D

 60 64  0  0  0  0  0  0  0  0999 V2000
   -9.5548    2.1388    0.6835 C   0  0  0  0  0  0  0  0  0  0  0  0
   -8.1787    1.9144    0.5150 O   0  0  0  0  0  0  0  0  0  0  0  0
   -7.6211    0.7813   -0.0277 C   0  0  0  0  0  0  0  0  0  0  0  0
   -8.3818   -0.1327   -0.4072 O   0  0  0  0  0  0  0  0  0  0  0  0
   -6.1733    0.6723   -0.1471 C   0  0  0  0  0  0  0  0  0  0  0  0
   -5.5627   -0.4477   -0.6862 C   0  0  0  0  0  0  0  0  0  0  0  0
   -4.1983   -0.5613   -0.8008 C   0  0  0  0  0  0  0  0  0  0  0  0
   -3.4017    0.4655   -0.3661 C   0  0  0  0  0  0  0  0  0  0  0  0
   -1.9589    0.6714   -0.3838 C   0  0  0  0  0  0  0  0  0  0  0  0
   -0.9781   -0.1860   -0.6577 C   0  0  0  0  0  0  0  0  0  0  0  0
    0.3419    0.3216   -0.6222 N   0  0  0  0  0  0  0  0  0  0  0  0
    1.4929   -0.0922    0.0180 C   0  0  0  0  0  0  0  0  0  0  0  0
    2.4741    0.8572    0.2202 C   0  0  0  0  0  0  0  0  0  0  0  0
    3.6687    0.5805    0.8218 C   0  0  0  0  0  0  0  0  0  0  0  0
    3.9879   -0.6672    1.2731 C   0  0  0  0  0  0  0  0  0  0  0  0
    5.1973   -0.9612    1.8837 O   0  0  0  0  0  0  0  0  0  0  0  0
    6.2591   -0.1189    2.1308 C   0  0  0  0  0  0  0  0  0  0  0  0
    6.9100    0.4777    0.9432 C   0  0  0  0  0  0  0  0  0  0  0  0
    7.6198    1.6438    1.0819 C   0  0  0  0  0  0  0  0  0  0  0  0
    8.2550    2.2410    0.0194 C   0  0  0  0  0  0  0  0  0  0  0  0
    8.1732    1.6490   -1.2125 C   0  0  0  0  0  0  0  0  0  0  0  0
    7.4627    0.4622   -1.4035 C   0  0  0  0  0  0  0  0  0  0  0  0
    6.8432   -0.0979   -0.3076 C   0  0  0  0  0  0  0  0  0  0  0  0
    3.0272   -1.6484    1.0875 C   0  0  0  0  0  0  0  0  0  0  0  0
    1.8014   -1.3555    0.4679 C   0  0  0  0  0  0  0  0  0  0  0  0
   -1.2598   -1.5967   -0.8171 C   0  0  0  0  0  0  0  0  0  0  0  0
   -1.7905   -2.2855    0.2872 C   0  0  0  0  0  0  0  0  0  0  0  0
   -2.0679   -3.6284    0.2516 C   0  0  0  0  0  0  0  0  0  0  0  0
   -1.8149   -4.3213   -0.9121 C   0  0  0  0  0  0  0  0  0  0  0  0
   -1.2919   -3.6455   -2.0026 C   0  0  0  0  0  0  0  0  0  0  0  0
   -1.0160   -2.3046   -1.9637 C   0  0  0  0  0  0  0  0  0  0  0  0
   -1.7246    2.0233    0.1806 C   0  0  0  0  0  0  0  0  0  0  0  0
   -0.6335    2.5744    0.3320 O   0  0  0  0  0  0  0  0  0  0  0  0
   -3.0127    2.5520    0.5108 N   0  0  0  0  0  0  0  0  0  0  0  0
   -3.9901    1.6116    0.1800 C   0  0  0  0  0  0  0  0  0  0  0  0
   -5.3592    1.6900    0.2783 C   0  0  0  0  0  0  0  0  0  0  0  0
   -9.6515    3.0068    1.3981 H   0  0  0  0  0  0  0  0  0  0  0  0
   -9.9865    1.2718    1.2362 H   0  0  0  0  0  0  0  0  0  0  0  0
  -10.0895    2.3312   -0.2531 H   0  0  0  0  0  0  0  0  0  0  0  0
   -6.2357   -1.2355   -1.0146 H   0  0  0  0  0  0  0  0  0  0  0  0
   -3.8314   -1.4321   -1.2753 H   0  0  0  0  0  0  0  0  0  0  0  0
    0.4337    1.1943   -1.2621 H   0  0  0  0  0  0  0  0  0  0  0  0
    2.3115    1.8771   -0.1037 H   0  0  0  0  0  0  0  0  0  0  0  0
    4.4218    1.3651    0.9760 H   0  0  0  0  0  0  0  0  0  0  0  0
    7.0476   -0.7386    2.6511 H   0  0  0  0  0  0  0  0  0  0  0  0
    5.9988    0.6689    2.8900 H   0  0  0  0  0  0  0  0  0  0  0  0
    7.7119    2.1520    2.0490 H   0  0  0  0  0  0  0  0  0  0  0  0
    8.8185    3.1663    0.1284 H   0  0  0  0  0  0  0  0  0  0  0  0
    8.6793    2.1337   -2.0358 H   0  0  0  0  0  0  0  0  0  0  0  0
    7.4233    0.0277   -2.3938 H   0  0  0  0  0  0  0  0  0  0  0  0
    6.2870   -1.0335   -0.4747 H   0  0  0  0  0  0  0  0  0  0  0  0
    3.2102   -2.6519    1.4179 H   0  0  0  0  0  0  0  0  0  0  0  0
    1.0949   -2.1527    0.3293 H   0  0  0  0  0  0  0  0  0  0  0  0
   -1.9918   -1.7452    1.2057 H   0  0  0  0  0  0  0  0  0  0  0  0
   -2.4819   -4.1254    1.1384 H   0  0  0  0  0  0  0  0  0  0  0  0
   -2.0395   -5.3757   -0.9206 H   0  0  0  0  0  0  0  0  0  0  0  0
   -1.1114   -4.2534   -2.9039 H   0  0  0  0  0  0  0  0  0  0  0  0
   -0.6109   -1.8015   -2.8212 H   0  0  0  0  0  0  0  0  0  0  0  0
   -3.1217    3.5086    0.9339 H   0  0  0  0  0  0  0  0  0  0  0  0
   -5.8307    2.5647    0.6977 H   0  0  0  0  0  0  0  0  0  0  0  0
  1  2  1  0
  2  3  1  0
  3  4  2  0
  3  5  1  0
  5  6  2  0
  6  7  1  0
  7  8  2  0
  8  9  1  0
  9 10  2  0
 10 11  1  0
 11 12  1  0
 12 13  2  0
 13 14  1  0
 14 15  2  0
 15 16  1  0
 16 17  1  0
 17 18  1  0
 18 19  2  0
 19 20  1  0
 20 21  2  0
 21 22  1  0
 22 23  2  0
 15 24  1  0
 24 25  2  0
 10 26  1  0
 26 27  2  0
 27 28  1  0
 28 29  2  0
 29 30  1  0
 30 31  2  0
  9 32  1  0
 32 33  2  0
 32 34  1  0
 34 35  1  0
 35 36  2  0
 36  5  1  0
 35  8  1  0
 25 12  1  0
 31 26  1  0
 23 18  1  0
  1 37  1  0
  1 38  1  0
  1 39  1  0
  6 40  1  0
  7 41  1  0
 11 42  1  0
 13 43  1  0
 14 44  1  0
 17 45  1  0
 17 46  1  0
 19 47  1  0
 20 48  1  0
 21 49  1  0
 22 50  1  0
 23 51  1  0
 24 52  1  0
 25 53  1  0
 27 54  1  0
 28 55  1  0
 29 56  1  0
 30 57  1  0
 31 58  1  0
 34 59  1  0
 36 60  1  0
M  END
$$$$
[H]c1nc(N([H])[H])c([H])c([H])c1-c1c([H])c([H])c([H])c(C([H])([H])Oc2c([H])n([H])c3c([H])c(C(=O)OC([H])([H])[H])c([H])c([H])c23)c1[H]
     RDKit          3D

 47 50  0  0  0  0  0  0  0  0999 V2000
    9.0667    1.4591   -0.5679 C   0  0  0  0  0  0  0  0  0  0  0  0
    7.8328    0.7726   -0.5608 O   0  0  0  0  0  0  0  0  0  0  0  0
    6.7529    1.3531    0.0795 C   0  0  0  0  0  0  0  0  0  0  0  0
    6.8978    2.4871    0.6438 O   0  0  0  0  0  0  0  0  0  0  0  0
    5.4748    0.6682    0.1013 C   0  0  0  0  0  0  0  0  0  0  0  0
    4.4201    1.2779    0.7498 C   0  0  0  0  0  0  0  0  0  0  0  0
    3.1793    0.6444    0.7874 C   0  0  0  0  0  0  0  0  0  0  0  0
    3.0398   -0.5635    0.1813 C   0  0  0  0  0  0  0  0  0  0  0  0
    1.8849   -1.3738    0.0978 C   0  0  0  0  0  0  0  0  0  0  0  0
    0.6912   -1.1696    0.5726 O   0  0  0  0  0  0  0  0  0  0  0  0
   -0.4798   -0.9694    1.0384 C   0  0  0  0  0  0  0  0  0  0  0  0
   -1.5787   -0.8988    0.0051 C   0  0  0  0  0  0  0  0  0  0  0  0
   -1.4080   -1.2957   -1.2852 C   0  0  0  0  0  0  0  0  0  0  0  0
   -2.4606   -1.2032   -2.2086 C   0  0  0  0  0  0  0  0  0  0  0  0
   -3.6654   -0.7064   -1.7926 C   0  0  0  0  0  0  0  0  0  0  0  0
   -3.8867   -0.2895   -0.4893 C   0  0  0  0  0  0  0  0  0  0  0  0
   -2.8266   -0.4008    0.3735 C   0  0  0  0  0  0  0  0  0  0  0  0
   -5.1638    0.2427   -0.0486 C   0  0  0  0  0  0  0  0  0  0  0  0
   -5.6167    0.0787    1.2404 C   0  0  0  0  0  0  0  0  0  0  0  0
   -6.8373    0.5928    1.6574 C   0  0  0  0  0  0  0  0  0  0  0  0
   -7.6368    1.2935    0.7664 C   0  0  0  0  0  0  0  0  0  0  0  0
   -8.8937    1.8292    1.1787 N   0  0  0  0  0  0  0  0  0  0  0  0
   -7.1735    1.4406   -0.4866 N   0  0  0  0  0  0  0  0  0  0  0  0
   -5.9914    0.9445   -0.8961 C   0  0  0  0  0  0  0  0  0  0  0  0
    2.3363   -2.4822   -0.6348 C   0  0  0  0  0  0  0  0  0  0  0  0
    3.6278   -2.3344   -0.9487 N   0  0  0  0  0  0  0  0  0  0  0  0
    4.0869   -1.1691   -0.4629 C   0  0  0  0  0  0  0  0  0  0  0  0
    5.3444   -0.5525   -0.5147 C   0  0  0  0  0  0  0  0  0  0  0  0
    9.8498    0.8036   -0.1213 H   0  0  0  0  0  0  0  0  0  0  0  0
    9.3069    1.6881   -1.6372 H   0  0  0  0  0  0  0  0  0  0  0  0
    9.0262    2.4250   -0.0518 H   0  0  0  0  0  0  0  0  0  0  0  0
    4.5417    2.2341    1.2262 H   0  0  0  0  0  0  0  0  0  0  0  0
    2.3800    1.1736    1.3148 H   0  0  0  0  0  0  0  0  0  0  0  0
   -0.6097   -0.0180    1.6563 H   0  0  0  0  0  0  0  0  0  0  0  0
   -0.7963   -1.8116    1.7553 H   0  0  0  0  0  0  0  0  0  0  0  0
   -0.4592   -1.6884   -1.6219 H   0  0  0  0  0  0  0  0  0  0  0  0
   -2.3196   -1.5185   -3.2240 H   0  0  0  0  0  0  0  0  0  0  0  0
   -4.5105   -0.6136   -2.4653 H   0  0  0  0  0  0  0  0  0  0  0  0
   -2.9335   -0.0918    1.4081 H   0  0  0  0  0  0  0  0  0  0  0  0
   -5.0015   -0.4633    1.9350 H   0  0  0  0  0  0  0  0  0  0  0  0
   -7.2135    0.4763    2.6648 H   0  0  0  0  0  0  0  0  0  0  0  0
   -9.0311    2.8032    1.5125 H   0  0  0  0  0  0  0  0  0  0  0  0
   -9.7271    1.2094    1.1447 H   0  0  0  0  0  0  0  0  0  0  0  0
   -5.6433    1.0831   -1.9273 H   0  0  0  0  0  0  0  0  0  0  0  0
    1.7389   -3.3389   -0.9128 H   0  0  0  0  0  0  0  0  0  0  0  0
    4.2152   -3.0242   -1.4982 H   0  0  0  0  0  0  0  0  0  0  0  0
    6.1697   -1.0035   -1.0084 H   0  0  0  0  0  0  0  0  0  0  0  0
  1  2  1  0
  2  3  1  0
  3  4  2  0
  3  5  1  0
  5  6  2  0
  6  7  1  0
  7  8  2  0
  8  9  1  0
  9 10  1  0
 10 11  1  0
 11 12  1  0
 12 13  2  0
 13 14  1  0
 14 15  2  0
 15 16  1  0
 16 17  2  0
 16 18  1  0
 18 19  2  0
 19 20  1  0
 20 21  2  0
 21 22  1  0
 21 23  1  0
 23 24  2  0
  9 25  2  0
 25 26  1  0
 26 27  1  0
 27 28  2  0
 28  5  1  0
 27  8  1  0
 17 12  1  0
 24 18  1  0
  1 29  1  0
  1 30  1  0
  1 31  1  0
  6 32  1  0
  7 33  1  0
 11 34  1  0
 11 35  1  0
 13 36  1  0
 14 37  1  0
 15 38  1  0
 17 39  1  0
 19 40  1  0
 20 41  1  0
 22 42  1  0
 22 43  1  0
 24 44  1  0
 25 45  1  0
 26 46  1  0
 28 47  1  0
M  END
$$$$
[H]c1nc(N([H])c2nc(C([H])([H])[H])nc3c([H])c(-c4c([H])oc([H])c4[H])n([H])c23)c(F)c([H])c1[H]
     RDKit          3D

 35 38  0  0  0  0  0  0  0  0999 V2000
    1.9163    3.2160   -1.9890 C   0  0  0  0  0  0  0  0  0  0  0  0
    1.0178    2.2334   -1.3554 C   0  0  0  0  0  0  0  0  0  0  0  0
    1.5244    1.1247   -0.7629 N   0  0  0  0  0  0  0  0  0  0  0  0
    0.7469    0.2008   -0.1725 C   0  0  0  0  0  0  0  0  0  0  0  0
    1.2548   -0.9597    0.4495 N   0  0  0  0  0  0  0  0  0  0  0  0
    2.6409   -1.2680    0.5140 C   0  0  0  0  0  0  0  0  0  0  0  0
    3.5637   -0.4416   -0.0324 N   0  0  0  0  0  0  0  0  0  0  0  0
    4.8896   -0.7118    0.0151 C   0  0  0  0  0  0  0  0  0  0  0  0
    5.3915   -1.8489    0.6243 C   0  0  0  0  0  0  0  0  0  0  0  0
    4.4669   -2.7093    1.1904 C   0  0  0  0  0  0  0  0  0  0  0  0
    3.1216   -2.4034    1.1240 C   0  0  0  0  0  0  0  0  0  0  0  0
    2.2250   -3.2746    1.6940 F   0  0  0  0  0  0  0  0  0  0  0  0
   -0.6192    0.4239   -0.1901 C   0  0  0  0  0  0  0  0  0  0  0  0
   -1.6705   -0.2649    0.2880 N   0  0  0  0  0  0  0  0  0  0  0  0
   -2.8293    0.3596    0.0245 C   0  0  0  0  0  0  0  0  0  0  0  0
   -2.5339    1.5189   -0.6615 C   0  0  0  0  0  0  0  0  0  0  0  0
   -1.1626    1.5501   -0.7896 C   0  0  0  0  0  0  0  0  0  0  0  0
   -0.3257    2.4267   -1.3578 N   0  0  0  0  0  0  0  0  0  0  0  0
   -4.1635   -0.1051    0.3972 C   0  0  0  0  0  0  0  0  0  0  0  0
   -5.3656    0.5036    0.1461 C   0  0  0  0  0  0  0  0  0  0  0  0
   -6.3284   -0.3314    0.7005 C   0  0  0  0  0  0  0  0  0  0  0  0
   -5.7326   -1.3727    1.2475 O   0  0  0  0  0  0  0  0  0  0  0  0
   -4.4449   -1.2657    1.0828 C   0  0  0  0  0  0  0  0  0  0  0  0
    2.4999    3.8155   -1.2613 H   0  0  0  0  0  0  0  0  0  0  0  0
    1.3119    3.9145   -2.6144 H   0  0  0  0  0  0  0  0  0  0  0  0
    2.6242    2.6777   -2.6567 H   0  0  0  0  0  0  0  0  0  0  0  0
    0.5939   -1.6318    0.8867 H   0  0  0  0  0  0  0  0  0  0  0  0
    5.5730   -0.0117   -0.4399 H   0  0  0  0  0  0  0  0  0  0  0  0
    6.4643   -2.0670    0.6625 H   0  0  0  0  0  0  0  0  0  0  0  0
    4.8377   -3.6057    1.6726 H   0  0  0  0  0  0  0  0  0  0  0  0
   -1.5887   -1.1788    0.8034 H   0  0  0  0  0  0  0  0  0  0  0  0
   -3.2771    2.2233   -1.0041 H   0  0  0  0  0  0  0  0  0  0  0  0
   -5.5115    1.4370   -0.3753 H   0  0  0  0  0  0  0  0  0  0  0  0
   -7.3845   -0.1869    0.7030 H   0  0  0  0  0  0  0  0  0  0  0  0
   -3.7260   -1.9868    1.4369 H   0  0  0  0  0  0  0  0  0  0  0  0
  1  2  1  0
  2  3  2  0
  3  4  1  0
  4  5  1  0
  5  6  1  0
  6  7  2  0
  7  8  1  0
  8  9  2  0
  9 10  1  0
 10 11  2  0
 11 12  1  0
  4 13  2  0
 13 14  1  0
 14 15  1  0
 15 16  2  0
 16 17  1  0
 17 18  2  0
 15 19  1  0
 19 20  1  0
 20 21  2  0
 21 22  1  0
 22 23  1  0
 18  2  1  0
 23 19  2  0
 11  6  1  0
 17 13  1  0
  1 24  1  0
  1 25  1  0
  1 26  1  0
  5 27  1  0
  8 28  1  0
  9 29  1  0
 10 30  1  0
 14 31  1  0
 16 32  1  0
 20 33  1  0
 21 34  1  0
 23 35  1  0
M  END
$$$$
[H]Oc1c([H])c(N([H])c2nc([H])c(Cl)c(N([H])c3c([H])c([H])c([H])c([H])c3S(=O)(=O)C([H])(F)F)n2)c([H])c([H])c1C#N
     RDKit          3D

 42 44  0  0  0  0  0  0  0  0999 V2000
    6.4828   -2.5022    1.8351 O   0  0  0  0  0  0  0  0  0  0  0  0
    5.7169   -1.3806    1.5037 C   0  0  0  0  0  0  0  0  0  0  0  0
    4.3958   -1.4616    1.2605 C   0  0  0  0  0  0  0  0  0  0  0  0
    3.6057   -0.3507    0.9262 C   0  0  0  0  0  0  0  0  0  0  0  0
    2.2321   -0.5102    0.7170 N   0  0  0  0  0  0  0  0  0  0  0  0
    1.3836    0.2825   -0.0622 C   0  0  0  0  0  0  0  0  0  0  0  0
    1.8571    1.3383   -0.7458 N   0  0  0  0  0  0  0  0  0  0  0  0
    1.0698    2.1148   -1.4990 C   0  0  0  0  0  0  0  0  0  0  0  0
   -0.2674    1.8078   -1.5648 C   0  0  0  0  0  0  0  0  0  0  0  0
   -1.3049    2.8419   -2.5656 Cl  0  0  0  0  0  0  0  0  0  0  0  0
   -0.8004    0.7129   -0.8651 C   0  0  0  0  0  0  0  0  0  0  0  0
   -2.1777    0.4874   -0.9917 N   0  0  0  0  0  0  0  0  0  0  0  0
   -2.9906   -0.5145   -0.4296 C   0  0  0  0  0  0  0  0  0  0  0  0
   -2.4916   -1.5744    0.2854 C   0  0  0  0  0  0  0  0  0  0  0  0
   -3.2747   -2.6012    0.8225 C   0  0  0  0  0  0  0  0  0  0  0  0
   -4.6274   -2.5274    0.6105 C   0  0  0  0  0  0  0  0  0  0  0  0
   -5.1385   -1.4668   -0.1061 C   0  0  0  0  0  0  0  0  0  0  0  0
   -4.3780   -0.4474   -0.6406 C   0  0  0  0  0  0  0  0  0  0  0  0
   -5.1391    0.8676   -1.4996 S   0  0  0  0  0  0  0  0  0  0  0  0
   -6.6359    0.5819   -1.5540 O   0  0  0  0  0  0  0  0  0  0  0  0
   -4.7207    0.9010   -2.9626 O   0  0  0  0  0  0  0  0  0  0  0  0
   -4.9700    2.4290   -0.7212 C   0  0  0  0  0  0  0  0  0  0  0  0
   -5.7459    3.3297   -1.4680 F   0  0  0  0  0  0  0  0  0  0  0  0
   -5.6624    2.3384    0.4987 F   0  0  0  0  0  0  0  0  0  0  0  0
    0.0519    0.0045   -0.1484 N   0  0  0  0  0  0  0  0  0  0  0  0
    4.2631    0.8540    0.8584 C   0  0  0  0  0  0  0  0  0  0  0  0
    5.6332    0.9240    1.1124 C   0  0  0  0  0  0  0  0  0  0  0  0
    6.3738   -0.1808    1.4357 C   0  0  0  0  0  0  0  0  0  0  0  0
    7.7783   -0.0451    1.6856 C   0  0  0  0  0  0  0  0  0  0  0  0
    8.9156    0.0816    1.8776 N   0  0  0  0  0  0  0  0  0  0  0  0
    6.0135   -3.3840    1.8877 H   0  0  0  0  0  0  0  0  0  0  0  0
    3.8745   -2.4140    1.3146 H   0  0  0  0  0  0  0  0  0  0  0  0
    1.7854   -1.3402    1.2185 H   0  0  0  0  0  0  0  0  0  0  0  0
    1.4871    2.9649   -2.0416 H   0  0  0  0  0  0  0  0  0  0  0  0
   -2.7149    1.1704   -1.6269 H   0  0  0  0  0  0  0  0  0  0  0  0
   -1.4361   -1.7084    0.4922 H   0  0  0  0  0  0  0  0  0  0  0  0
   -2.8172   -3.4239    1.3864 H   0  0  0  0  0  0  0  0  0  0  0  0
   -5.2912   -3.2862    0.9963 H   0  0  0  0  0  0  0  0  0  0  0  0
   -6.2226   -1.3948   -0.2841 H   0  0  0  0  0  0  0  0  0  0  0  0
   -3.9655    2.7999   -0.5625 H   0  0  0  0  0  0  0  0  0  0  0  0
    3.7460    1.7716    0.6290 H   0  0  0  0  0  0  0  0  0  0  0  0
    6.1067    1.9100    1.0437 H   0  0  0  0  0  0  0  0  0  0  0  0
  1  2  1  0
  2  3  2  0
  3  4  1  0
  4  5  1  0
  5  6  1  0
  6  7  2  0
  7  8  1  0
  8  9  2  0
  9 10  1  0
  9 11  1  0
 11 12  1  0
 12 13  1  0
 13 14  2  0
 14 15  1  0
 15 16  2  0
 16 17  1  0
 17 18  2  0
 18 19  1  0
 19 20  2  0
 19 21  2  0
 19 22  1  0
 22 23  1  0
 22 24  1  0
 11 25  2  0
  4 26  2  0
 26 27  1  0
 27 28  2  0
 28 29  1  0
 29 30  3  0
 28  2  1  0
 25  6  1  0
 18 13  1  0
  1 31  1  0
  3 32  1  0
  5 33  1  0
  8 34  1  0
 12 35  1  0
 14 36  1  0
 15 37  1  0
 16 38  1  0
 17 39  1  0
 22 40  1  0
 26 41  1  0
 27 42  1  0
M  END
$$$$
