[H]c1c([H])c([H])c(-c2c([H])c([H])c(C(=O)N([H])[C@]([H])(C(=O)N([H])[C@]([H])(C(=O)N([H])[C@]([H])(C(=O)N([H])[H])C([H])([H])c3c([H])c([H])c([H])c([H])c3[H])C([H])([H])[H])C([H])([H])C([H])(C([H])([H])[H])C([H])([H])[H])c([H])c2[H])c([H])c1[H]
     RDKit          3D

 75 77  0  0  0  0  0  0  0  0999 V2000
   -0.7623   -5.3346   -0.2435 C   0  0  0  0  0  0  0  0  0  0  0  0
   -1.1050   -4.5856   -1.5148 C   0  0  0  0  0  0  0  0  0  0  0  0
   -1.9029   -5.5746   -2.3774 C   0  0  0  0  0  0  0  0  0  0  0  0
   -1.9514   -3.3898   -1.3320 C   0  0  0  0  0  0  0  0  0  0  0  0
   -1.3935   -2.2833   -0.4726 C   0  0  2  0  0  0  0  0  0  0  0  0
   -2.4635   -1.2641   -0.4696 N   0  0  0  0  0  0  0  0  0  0  0  0
   -3.0438   -0.9584    0.7797 C   0  0  0  0  0  0  0  0  0  0  0  0
   -2.6535   -1.5514    1.8505 O   0  0  0  0  0  0  0  0  0  0  0  0
   -4.1027    0.0187    0.9933 C   0  0  0  0  0  0  0  0  0  0  0  0
   -4.5442    0.8107   -0.0600 C   0  0  0  0  0  0  0  0  0  0  0  0
   -5.5472    1.7460    0.1328 C   0  0  0  0  0  0  0  0  0  0  0  0
   -6.1443    1.9400    1.3557 C   0  0  0  0  0  0  0  0  0  0  0  0
   -5.6953    1.1457    2.3900 C   0  0  0  0  0  0  0  0  0  0  0  0
   -4.7025    0.2130    2.2166 C   0  0  0  0  0  0  0  0  0  0  0  0
   -7.1984    2.9360    1.5526 C   0  0  0  0  0  0  0  0  0  0  0  0
   -8.2207    2.7823    2.4574 C   0  0  0  0  0  0  0  0  0  0  0  0
   -9.1934    3.7628    2.6188 C   0  0  0  0  0  0  0  0  0  0  0  0
   -9.1485    4.9297    1.8594 C   0  0  0  0  0  0  0  0  0  0  0  0
   -8.1365    5.0836    0.9617 C   0  0  0  0  0  0  0  0  0  0  0  0
   -7.1898    4.1093    0.8154 C   0  0  0  0  0  0  0  0  0  0  0  0
   -0.2235   -1.6201   -1.1132 C   0  0  0  0  0  0  0  0  0  0  0  0
   -0.4376   -0.5139   -1.7068 O   0  0  0  0  0  0  0  0  0  0  0  0
    1.0849   -2.1142   -1.1116 N   0  0  0  0  0  0  0  0  0  0  0  0
    2.2194   -1.5100   -1.7347 C   0  0  1  0  0  0  0  0  0  0  0  0
    1.8269   -0.5983   -2.8990 C   0  0  0  0  0  0  0  0  0  0  0  0
    3.1183   -0.7879   -0.8087 C   0  0  0  0  0  0  0  0  0  0  0  0
    2.8363   -0.8209    0.4341 O   0  0  0  0  0  0  0  0  0  0  0  0
    4.2474   -0.0768   -1.2267 N   0  0  0  0  0  0  0  0  0  0  0  0
    5.0774    0.6310   -0.2451 C   0  0  1  0  0  0  0  0  0  0  0  0
    6.4952    0.2447   -0.4037 C   0  0  0  0  0  0  0  0  0  0  0  0
    7.3774    0.9234    0.5542 C   0  0  0  0  0  0  0  0  0  0  0  0
    7.5208    0.4673    1.8632 C   0  0  0  0  0  0  0  0  0  0  0  0
    8.3745    1.0773    2.7412 C   0  0  0  0  0  0  0  0  0  0  0  0
    9.1302    2.1596    2.3963 C   0  0  0  0  0  0  0  0  0  0  0  0
    9.0126    2.6432    1.0955 C   0  0  0  0  0  0  0  0  0  0  0  0
    8.1499    2.0184    0.2272 C   0  0  0  0  0  0  0  0  0  0  0  0
    4.7826    2.0841   -0.3494 C   0  0  0  0  0  0  0  0  0  0  0  0
    5.2995    3.0635    0.5148 N   0  0  0  0  0  0  0  0  0  0  0  0
    4.0051    2.5030   -1.2786 O   0  0  0  0  0  0  0  0  0  0  0  0
   -0.2514   -6.2710   -0.5336 H   0  0  0  0  0  0  0  0  0  0  0  0
   -1.6791   -5.6024    0.3239 H   0  0  0  0  0  0  0  0  0  0  0  0
   -0.0400   -4.7790    0.3873 H   0  0  0  0  0  0  0  0  0  0  0  0
   -0.1588   -4.4185   -2.0511 H   0  0  0  0  0  0  0  0  0  0  0  0
   -1.3376   -6.5195   -2.4125 H   0  0  0  0  0  0  0  0  0  0  0  0
   -1.9650   -5.1567   -3.4061 H   0  0  0  0  0  0  0  0  0  0  0  0
   -2.9279   -5.7012   -1.9739 H   0  0  0  0  0  0  0  0  0  0  0  0
   -2.8930   -3.7238   -0.8061 H   0  0  0  0  0  0  0  0  0  0  0  0
   -2.2865   -3.0268   -2.3204 H   0  0  0  0  0  0  0  0  0  0  0  0
   -1.1665   -2.6239    0.5155 H   0  0  0  0  0  0  0  0  0  0  0  0
   -2.7694   -0.8017   -1.3356 H   0  0  0  0  0  0  0  0  0  0  0  0
   -4.1012    0.6875   -1.0313 H   0  0  0  0  0  0  0  0  0  0  0  0
   -5.9022    2.3784   -0.6918 H   0  0  0  0  0  0  0  0  0  0  0  0
   -6.1369    1.2734    3.3652 H   0  0  0  0  0  0  0  0  0  0  0  0
   -4.3458   -0.4193    3.0392 H   0  0  0  0  0  0  0  0  0  0  0  0
   -8.2804    1.8985    3.0452 H   0  0  0  0  0  0  0  0  0  0  0  0
   -9.9956    3.6293    3.3379 H   0  0  0  0  0  0  0  0  0  0  0  0
   -9.9317    5.6706    2.0164 H   0  0  0  0  0  0  0  0  0  0  0  0
   -8.1191    6.0092    0.3607 H   0  0  0  0  0  0  0  0  0  0  0  0
   -6.3912    4.2237    0.1087 H   0  0  0  0  0  0  0  0  0  0  0  0
    1.2605   -3.0349   -0.5921 H   0  0  0  0  0  0  0  0  0  0  0  0
    2.7836   -2.3366   -2.2859 H   0  0  0  0  0  0  0  0  0  0  0  0
    2.7538   -0.5647   -3.5698 H   0  0  0  0  0  0  0  0  0  0  0  0
    1.0656   -1.1131   -3.4823 H   0  0  0  0  0  0  0  0  0  0  0  0
    1.5447    0.4074   -2.6035 H   0  0  0  0  0  0  0  0  0  0  0  0
    4.5173   -0.0356   -2.2357 H   0  0  0  0  0  0  0  0  0  0  0  0
    4.7193    0.3331    0.7602 H   0  0  0  0  0  0  0  0  0  0  0  0
    6.8155    0.5176   -1.4435 H   0  0  0  0  0  0  0  0  0  0  0  0
    6.5756   -0.8801   -0.3051 H   0  0  0  0  0  0  0  0  0  0  0  0
    6.9270   -0.3886    2.1564 H   0  0  0  0  0  0  0  0  0  0  0  0
    8.4568    0.6850    3.7504 H   0  0  0  0  0  0  0  0  0  0  0  0
    9.8087    2.6640    3.0592 H   0  0  0  0  0  0  0  0  0  0  0  0
    9.6029    3.4857    0.8256 H   0  0  0  0  0  0  0  0  0  0  0  0
    8.0476    2.3779   -0.8001 H   0  0  0  0  0  0  0  0  0  0  0  0
    5.3537    2.8466    1.5546 H   0  0  0  0  0  0  0  0  0  0  0  0
    5.6493    4.0004    0.2353 H   0  0  0  0  0  0  0  0  0  0  0  0
  1  2  1  0
  2  3  1  0
  2  4  1  0
  4  5  1  0
  5  6  1  0
  6  7  1  0
  7  8  2  0
  7  9  1  0
  9 10  2  0
 10 11  1  0
 11 12  2  0
 12 13  1  0
 13 14  2  0
 12 15  1  0
 15 16  2  0
 16 17  1  0
 17 18  2  0
 18 19  1  0
 19 20  2  0
  5 21  1  0
 21 22  2  0
 21 23  1  0
 23 24  1  0
 24 25  1  0
 24 26  1  0
 26 27  2  0
 26 28  1  0
 28 29  1  0
 29 30  1  0
 30 31  1  0
 31 32  2  0
 32 33  1  0
 33 34  2  0
 34 35  1  0
 35 36  2  0
 29 37  1  0
 37 38  1  0
 37 39  2  0
 14  9  1  0
 20 15  1  0
 36 31  1  0
  1 40  1  0
  1 41  1  0
  1 42  1  0
  2 43  1  0
  3 44  1  0
  3 45  1  0
  3 46  1  0
  4 47  1  0
  4 48  1  0
  5 49  1  1
  6 50  1  0
 10 51  1  0
 11 52  1  0
 13 53  1  0
 14 54  1  0
 16 55  1  0
 17 56  1  0
 18 57  1  0
 19 58  1  0
 20 59  1  0
 23 60  1  0
 24 61  1  6
 25 62  1  0
 25 63  1  0
 25 64  1  0
 28 65  1  0
 29 66  1  1
 30 67  1  0
 30 68  1  0
 32 69  1  0
 33 70  1  0
 34 71  1  0
 35 72  1  0
 36 73  1  0
 38 74  1  0
 38 75  1  0
M  END
$$$$
[H]c1c([H])c([H])c(C([H])([H])OC(=O)N([H])[C@]([H])(C(=O)N([H])[C@]([H])(C(=O)N([H])[C@]([H])(C(=O)N([H])[H])C([H])([H])C([H])(C([H])([H])[H])C([H])([H])[H])C([H])([H])c2c([H])c([H])c([H])c([H])c2[H])C([H])([H])c2c([H])c([H])c([H])c([H])c2[H])c([H])c1[H]
     RDKit          3D

 79 81  0  0  0  0  0  0  0  0999 V2000
   -7.0677    2.3335   -1.5012 C   0  0  0  0  0  0  0  0  0  0  0  0
   -5.7566    2.2594   -2.1882 C   0  0  0  0  0  0  0  0  0  0  0  0
   -5.0130    3.5762   -1.9760 C   0  0  0  0  0  0  0  0  0  0  0  0
   -4.9209    1.0827   -1.9082 C   0  0  0  0  0  0  0  0  0  0  0  0
   -4.4473    0.8231   -0.5225 C   0  0  2  0  0  0  0  0  0  0  0  0
   -3.6426   -0.4282   -0.6558 N   0  0  0  0  0  0  0  0  0  0  0  0
   -2.2369   -0.3838   -0.6455 C   0  0  0  0  0  0  0  0  0  0  0  0
   -1.7260    0.7572   -0.5202 O   0  0  0  0  0  0  0  0  0  0  0  0
   -1.3975   -1.5760   -0.7790 C   0  0  2  0  0  0  0  0  0  0  0  0
   -1.8019   -2.8223   -0.1090 C   0  0  0  0  0  0  0  0  0  0  0  0
   -1.9599   -2.9117    1.3249 C   0  0  0  0  0  0  0  0  0  0  0  0
   -0.8715   -3.2885    2.1061 C   0  0  0  0  0  0  0  0  0  0  0  0
   -0.9593   -3.4196    3.4672 C   0  0  0  0  0  0  0  0  0  0  0  0
   -2.1448   -3.1777    4.1037 C   0  0  0  0  0  0  0  0  0  0  0  0
   -3.2239   -2.8055    3.3382 C   0  0  0  0  0  0  0  0  0  0  0  0
   -3.1416   -2.6734    1.9779 C   0  0  0  0  0  0  0  0  0  0  0  0
    0.0008   -1.2853   -0.8086 N   0  0  0  0  0  0  0  0  0  0  0  0
    0.7011   -0.5594    0.1631 C   0  0  0  0  0  0  0  0  0  0  0  0
    0.0565   -0.1200    1.1834 O   0  0  0  0  0  0  0  0  0  0  0  0
    2.1470   -0.2733    0.0554 C   0  0  2  0  0  0  0  0  0  0  0  0
    3.0308   -1.4515    0.1680 C   0  0  0  0  0  0  0  0  0  0  0  0
    2.9380   -2.5397   -0.7869 C   0  0  0  0  0  0  0  0  0  0  0  0
    3.5477   -2.3829   -2.0437 C   0  0  0  0  0  0  0  0  0  0  0  0
    3.5605   -3.3796   -2.9878 C   0  0  0  0  0  0  0  0  0  0  0  0
    2.9651   -4.5925   -2.7313 C   0  0  0  0  0  0  0  0  0  0  0  0
    2.3645   -4.7798   -1.5227 C   0  0  0  0  0  0  0  0  0  0  0  0
    2.3557   -3.7682   -0.5742 C   0  0  0  0  0  0  0  0  0  0  0  0
    2.4522    0.6608    1.1816 N   0  0  0  0  0  0  0  0  0  0  0  0
    3.2376    1.7952    0.8237 C   0  0  0  0  0  0  0  0  0  0  0  0
    3.6583    2.0202   -0.3309 O   0  0  0  0  0  0  0  0  0  0  0  0
    3.5925    2.7580    1.7905 O   0  0  0  0  0  0  0  0  0  0  0  0
    4.3607    3.8883    1.5374 C   0  0  0  0  0  0  0  0  0  0  0  0
    5.7187    3.6626    1.0541 C   0  0  0  0  0  0  0  0  0  0  0  0
    6.0413    3.9476   -0.2489 C   0  0  0  0  0  0  0  0  0  0  0  0
    7.3373    3.7377   -0.7278 C   0  0  0  0  0  0  0  0  0  0  0  0
    8.3292    3.2386    0.0896 C   0  0  0  0  0  0  0  0  0  0  0  0
    8.0063    2.9516    1.3963 C   0  0  0  0  0  0  0  0  0  0  0  0
    6.7206    3.1611    1.8703 C   0  0  0  0  0  0  0  0  0  0  0  0
   -5.4615    0.5107    0.4819 C   0  0  0  0  0  0  0  0  0  0  0  0
   -5.8305    1.4658    1.4506 N   0  0  0  0  0  0  0  0  0  0  0  0
   -6.0124   -0.6113    0.4950 O   0  0  0  0  0  0  0  0  0  0  0  0
   -7.3877    1.3419   -1.1298 H   0  0  0  0  0  0  0  0  0  0  0  0
   -7.1043    3.0876   -0.6781 H   0  0  0  0  0  0  0  0  0  0  0  0
   -7.8320    2.7021   -2.2716 H   0  0  0  0  0  0  0  0  0  0  0  0
   -5.9541    2.2464   -3.3099 H   0  0  0  0  0  0  0  0  0  0  0  0
   -5.7441    4.3788   -2.2928 H   0  0  0  0  0  0  0  0  0  0  0  0
   -4.8490    3.7129   -0.8856 H   0  0  0  0  0  0  0  0  0  0  0  0
   -4.1190    3.6659   -2.5921 H   0  0  0  0  0  0  0  0  0  0  0  0
   -4.0100    1.0248   -2.5665 H   0  0  0  0  0  0  0  0  0  0  0  0
   -5.5141    0.1684   -2.2128 H   0  0  0  0  0  0  0  0  0  0  0  0
   -3.7128    1.6043   -0.1913 H   0  0  0  0  0  0  0  0  0  0  0  0
   -4.1796   -1.2986   -0.7538 H   0  0  0  0  0  0  0  0  0  0  0  0
   -1.5834   -1.8388   -1.9542 H   0  0  0  0  0  0  0  0  0  0  0  0
   -2.7749   -3.1857   -0.6033 H   0  0  0  0  0  0  0  0  0  0  0  0
   -1.0743   -3.6504   -0.4031 H   0  0  0  0  0  0  0  0  0  0  0  0
    0.0767   -3.4877    1.6667 H   0  0  0  0  0  0  0  0  0  0  0  0
   -0.0882   -3.7158    4.0470 H   0  0  0  0  0  0  0  0  0  0  0  0
   -2.2415   -3.2717    5.1900 H   0  0  0  0  0  0  0  0  0  0  0  0
   -4.1677   -2.6153    3.8675 H   0  0  0  0  0  0  0  0  0  0  0  0
   -4.0470   -2.3973    1.4695 H   0  0  0  0  0  0  0  0  0  0  0  0
    0.5547   -1.6347   -1.6594 H   0  0  0  0  0  0  0  0  0  0  0  0
    2.3964    0.2294   -0.9157 H   0  0  0  0  0  0  0  0  0  0  0  0
    2.9793   -1.8565    1.2417 H   0  0  0  0  0  0  0  0  0  0  0  0
    4.1002   -1.0347    0.1623 H   0  0  0  0  0  0  0  0  0  0  0  0
    4.0277   -1.4303   -2.2785 H   0  0  0  0  0  0  0  0  0  0  0  0
    4.0459   -3.2008   -3.9436 H   0  0  0  0  0  0  0  0  0  0  0  0
    3.0062   -5.3445   -3.5148 H   0  0  0  0  0  0  0  0  0  0  0  0
    1.9002   -5.7236   -1.3247 H   0  0  0  0  0  0  0  0  0  0  0  0
    1.8900   -3.9655    0.3492 H   0  0  0  0  0  0  0  0  0  0  0  0
    2.1012    0.4580    2.1160 H   0  0  0  0  0  0  0  0  0  0  0  0
    4.4364    4.4418    2.5249 H   0  0  0  0  0  0  0  0  0  0  0  0
    3.8632    4.6187    0.8627 H   0  0  0  0  0  0  0  0  0  0  0  0
    5.3171    4.3426   -0.9565 H   0  0  0  0  0  0  0  0  0  0  0  0
    7.5409    3.9816   -1.7686 H   0  0  0  0  0  0  0  0  0  0  0  0
    9.3268    3.0905   -0.3319 H   0  0  0  0  0  0  0  0  0  0  0  0
    8.7907    2.5608    2.0294 H   0  0  0  0  0  0  0  0  0  0  0  0
    6.4671    2.9412    2.8832 H   0  0  0  0  0  0  0  0  0  0  0  0
   -6.4698    1.2126    2.2272 H   0  0  0  0  0  0  0  0  0  0  0  0
   -5.4737    2.4410    1.4107 H   0  0  0  0  0  0  0  0  0  0  0  0
  1  2  1  0
  2  3  1  0
  2  4  1  0
  4  5  1  0
  5  6  1  0
  6  7  1  0
  7  8  2  0
  7  9  1  0
  9 10  1  0
 10 11  1  0
 11 12  2  0
 12 13  1  0
 13 14  2  0
 14 15  1  0
 15 16  2  0
  9 17  1  0
 17 18  1  0
 18 19  2  0
 18 20  1  0
 20 21  1  0
 21 22  1  0
 22 23  2  0
 23 24  1  0
 24 25  2  0
 25 26  1  0
 26 27  2  0
 20 28  1  0
 28 29  1  0
 29 30  2  0
 29 31  1  0
 31 32  1  0
 32 33  1  0
 33 34  2  0
 34 35  1  0
 35 36  2  0
 36 37  1  0
 37 38  2  0
  5 39  1  0
 39 40  1  0
 39 41  2  0
 16 11  1  0
 27 22  1  0
 38 33  1  0
  1 42  1  0
  1 43  1  0
  1 44  1  0
  2 45  1  0
  3 46  1  0
  3 47  1  0
  3 48  1  0
  4 49  1  0
  4 50  1  0
  5 51  1  1
  6 52  1  0
  9 53  1  6
 10 54  1  0
 10 55  1  0
 12 56  1  0
 13 57  1  0
 14 58  1  0
 15 59  1  0
 16 60  1  0
 17 61  1  0
 20 62  1  6
 21 63  1  0
 21 64  1  0
 23 65  1  0
 24 66  1  0
 25 67  1  0
 26 68  1  0
 27 69  1  0
 28 70  1  0
 32 71  1  0
 32 72  1  0
 34 73  1  0
 35 74  1  0
 36 75  1  0
 37 76  1  0
 38 77  1  0
 40 78  1  0
 40 79  1  0
M  END
$$$$
[H]c1c([H])c([H])c(C(=O)N([H])[C@]([H])(C(=O)N([H])[C@]([H])(C(=O)N([H])[C@]([H])(C(=O)N([H])[H])C([H])([H])C([H])(C([H])([H])[H])C([H])([H])[H])C([H])([H])c2c([H])c([H])c([H])c([H])c2[H])C([H])([H])c2c([H])c([H])c([H])c([H])c2[H])c([H])c1[H]
     RDKit          3D

 75 77  0  0  0  0  0  0  0  0999 V2000
   -6.8530   -2.5506    1.9375 C   0  0  0  0  0  0  0  0  0  0  0  0
   -6.4006   -2.2540    0.4854 C   0  0  0  0  0  0  0  0  0  0  0  0
   -5.7903   -3.5335   -0.0913 C   0  0  0  0  0  0  0  0  0  0  0  0
   -5.3969   -1.1672    0.5834 C   0  0  0  0  0  0  0  0  0  0  0  0
   -4.7957   -0.6935   -0.7059 C   0  0  2  0  0  0  0  0  0  0  0  0
   -3.8269    0.3568   -0.3023 N   0  0  0  0  0  0  0  0  0  0  0  0
   -2.4526    0.2342   -0.5865 C   0  0  0  0  0  0  0  0  0  0  0  0
   -2.0369   -0.7919   -1.1993 O   0  0  0  0  0  0  0  0  0  0  0  0
   -1.4610    1.2634   -0.1957 C   0  0  2  0  0  0  0  0  0  0  0  0
   -1.8835    2.5805   -0.7620 C   0  0  0  0  0  0  0  0  0  0  0  0
   -0.9843    3.7079   -0.4557 C   0  0  0  0  0  0  0  0  0  0  0  0
    0.0462    4.0181   -1.3117 C   0  0  0  0  0  0  0  0  0  0  0  0
    0.9126    5.0855   -1.0409 C   0  0  0  0  0  0  0  0  0  0  0  0
    0.7191    5.8325    0.1069 C   0  0  0  0  0  0  0  0  0  0  0  0
   -0.3052    5.5265    0.9602 C   0  0  0  0  0  0  0  0  0  0  0  0
   -1.1408    4.4750    0.6732 C   0  0  0  0  0  0  0  0  0  0  0  0
   -0.1552    0.8163   -0.6354 N   0  0  0  0  0  0  0  0  0  0  0  0
    0.8537    0.4068    0.2874 C   0  0  0  0  0  0  0  0  0  0  0  0
    0.5638    0.4528    1.5044 O   0  0  0  0  0  0  0  0  0  0  0  0
    2.1716   -0.0456   -0.2334 C   0  0  2  0  0  0  0  0  0  0  0  0
    2.0157   -1.0364   -1.3408 C   0  0  0  0  0  0  0  0  0  0  0  0
    3.2795   -1.5187   -1.9000 C   0  0  0  0  0  0  0  0  0  0  0  0
    3.8292   -0.8146   -2.9620 C   0  0  0  0  0  0  0  0  0  0  0  0
    5.0061   -1.1722   -3.5712 C   0  0  0  0  0  0  0  0  0  0  0  0
    5.6788   -2.2747   -3.1172 C   0  0  0  0  0  0  0  0  0  0  0  0
    5.1606   -2.9977   -2.0630 C   0  0  0  0  0  0  0  0  0  0  0  0
    3.9771   -2.6250   -1.4625 C   0  0  0  0  0  0  0  0  0  0  0  0
    3.0549   -0.4643    0.8069 N   0  0  0  0  0  0  0  0  0  0  0  0
    4.2124    0.2451    1.1772 C   0  0  0  0  0  0  0  0  0  0  0  0
    4.4503    1.3204    0.5248 O   0  0  0  0  0  0  0  0  0  0  0  0
    5.1003   -0.1794    2.2224 C   0  0  0  0  0  0  0  0  0  0  0  0
    4.9920   -1.4519    2.7372 C   0  0  0  0  0  0  0  0  0  0  0  0
    5.8523   -1.8440    3.7539 C   0  0  0  0  0  0  0  0  0  0  0  0
    6.7922   -0.9738    4.2329 C   0  0  0  0  0  0  0  0  0  0  0  0
    6.8871    0.3115    3.6988 C   0  0  0  0  0  0  0  0  0  0  0  0
    6.0505    0.7267    2.6936 C   0  0  0  0  0  0  0  0  0  0  0  0
   -5.8292   -0.0764   -1.5547 C   0  0  0  0  0  0  0  0  0  0  0  0
   -6.8275   -0.8476   -2.1584 N   0  0  0  0  0  0  0  0  0  0  0  0
   -5.8221    1.1593   -1.7499 O   0  0  0  0  0  0  0  0  0  0  0  0
   -5.9954   -3.0921    2.3913 H   0  0  0  0  0  0  0  0  0  0  0  0
   -6.9839   -1.6060    2.4951 H   0  0  0  0  0  0  0  0  0  0  0  0
   -7.7899   -3.1128    1.9465 H   0  0  0  0  0  0  0  0  0  0  0  0
   -7.3171   -2.0536   -0.0479 H   0  0  0  0  0  0  0  0  0  0  0  0
   -4.7410   -3.6381    0.2862 H   0  0  0  0  0  0  0  0  0  0  0  0
   -5.8308   -3.5429   -1.1965 H   0  0  0  0  0  0  0  0  0  0  0  0
   -6.3973   -4.3719    0.2947 H   0  0  0  0  0  0  0  0  0  0  0  0
   -5.8456   -0.2491    1.0673 H   0  0  0  0  0  0  0  0  0  0  0  0
   -4.5573   -1.4575    1.2864 H   0  0  0  0  0  0  0  0  0  0  0  0
   -4.2212   -1.4833   -1.2171 H   0  0  0  0  0  0  0  0  0  0  0  0
   -4.2084    1.1706    0.1929 H   0  0  0  0  0  0  0  0  0  0  0  0
   -1.4131    1.3105    0.9360 H   0  0  0  0  0  0  0  0  0  0  0  0
   -2.0775    2.4962   -1.8631 H   0  0  0  0  0  0  0  0  0  0  0  0
   -2.8864    2.8550   -0.3359 H   0  0  0  0  0  0  0  0  0  0  0  0
    0.2420    3.4689   -2.2198 H   0  0  0  0  0  0  0  0  0  0  0  0
    1.7024    5.3066   -1.7149 H   0  0  0  0  0  0  0  0  0  0  0  0
    1.4160    6.6496    0.2719 H   0  0  0  0  0  0  0  0  0  0  0  0
   -0.4419    6.1126    1.8469 H   0  0  0  0  0  0  0  0  0  0  0  0
   -1.9695    4.2108    1.3429 H   0  0  0  0  0  0  0  0  0  0  0  0
    0.0504    0.7935   -1.6470 H   0  0  0  0  0  0  0  0  0  0  0  0
    2.6220    0.8892   -0.6855 H   0  0  0  0  0  0  0  0  0  0  0  0
    1.4269   -0.5960   -2.1730 H   0  0  0  0  0  0  0  0  0  0  0  0
    1.4013   -1.8958   -0.9733 H   0  0  0  0  0  0  0  0  0  0  0  0
    3.3196    0.0593   -3.3412 H   0  0  0  0  0  0  0  0  0  0  0  0
    5.3787   -0.5890   -4.3888 H   0  0  0  0  0  0  0  0  0  0  0  0
    6.6197   -2.5813   -3.5845 H   0  0  0  0  0  0  0  0  0  0  0  0
    5.7017   -3.8751   -1.7072 H   0  0  0  0  0  0  0  0  0  0  0  0
    3.5742   -3.1965   -0.6361 H   0  0  0  0  0  0  0  0  0  0  0  0
    2.8182   -1.3406    1.3103 H   0  0  0  0  0  0  0  0  0  0  0  0
    4.2708   -2.1530    2.3809 H   0  0  0  0  0  0  0  0  0  0  0  0
    5.7348   -2.8520    4.1310 H   0  0  0  0  0  0  0  0  0  0  0  0
    7.4415   -1.3021    5.0181 H   0  0  0  0  0  0  0  0  0  0  0  0
    7.6195    1.0122    4.0626 H   0  0  0  0  0  0  0  0  0  0  0  0
    6.0909    1.7174    2.2519 H   0  0  0  0  0  0  0  0  0  0  0  0
   -6.5935   -1.7507   -2.6001 H   0  0  0  0  0  0  0  0  0  0  0  0
   -7.8055   -0.5194   -2.1669 H   0  0  0  0  0  0  0  0  0  0  0  0
  1  2  1  0
  2  3  1  0
  2  4  1  0
  4  5  1  0
  5  6  1  0
  6  7  1  0
  7  8  2  0
  7  9  1  0
  9 10  1  0
 10 11  1  0
 11 12  2  0
 12 13  1  0
 13 14  2  0
 14 15  1  0
 15 16  2  0
  9 17  1  0
 17 18  1  0
 18 19  2  0
 18 20  1  0
 20 21  1  0
 21 22  1  0
 22 23  2  0
 23 24  1  0
 24 25  2  0
 25 26  1  0
 26 27  2  0
 20 28  1  0
 28 29  1  0
 29 30  2  0
 29 31  1  0
 31 32  2  0
 32 33  1  0
 33 34  2  0
 34 35  1  0
 35 36  2  0
  5 37  1  0
 37 38  1  0
 37 39  2  0
 16 11  1  0
 27 22  1  0
 36 31  1  0
  1 40  1  0
  1 41  1  0
  1 42  1  0
  2 43  1  0
  3 44  1  0
  3 45  1  0
  3 46  1  0
  4 47  1  0
  4 48  1  0
  5 49  1  6
  6 50  1  0
  9 51  1  1
 10 52  1  0
 10 53  1  0
 12 54  1  0
 13 55  1  0
 14 56  1  0
 15 57  1  0
 16 58  1  0
 17 59  1  0
 20 60  1  6
 21 61  1  0
 21 62  1  0
 23 63  1  0
 24 64  1  0
 25 65  1  0
 26 66  1  0
 27 67  1  0
 28 68  1  0
 32 69  1  0
 33 70  1  0
 34 71  1  0
 35 72  1  0
 36 73  1  0
 38 74  1  0
 38 75  1  0
M  END
$$$$
[H]c1c([H])c([H])c(-c2c([H])c([H])c(C(=O)N([H])[C@]([H])(C(=O)N([H])[C@]([H])(C(=O)N3C([H])([H])C([H])([H])N(c4c([H])c([H])c([H])c([H])c4[H])C([H])([H])C3([H])[H])C([H])([H])[H])C([H])([H])C([H])(C([H])([H])[H])C([H])([H])[H])c([H])c2[H])c([H])c1[H]
     RDKit          3D

 77 80  0  0  0  0  0  0  0  0999 V2000
    0.2203   -0.3813   -4.2477 C   0  0  0  0  0  0  0  0  0  0  0  0
   -1.0900   -1.1042   -4.2565 C   0  0  0  0  0  0  0  0  0  0  0  0
   -1.7354   -0.7948   -5.6216 C   0  0  0  0  0  0  0  0  0  0  0  0
   -2.0648   -0.7135   -3.2300 C   0  0  0  0  0  0  0  0  0  0  0  0
   -1.7521   -0.8743   -1.7921 C   0  0  2  0  0  0  0  0  0  0  0  0
   -2.9499   -0.3829   -1.0522 N   0  0  0  0  0  0  0  0  0  0  0  0
   -3.8628   -1.2498   -0.4612 C   0  0  0  0  0  0  0  0  0  0  0  0
   -3.7008   -2.5150   -0.5530 O   0  0  0  0  0  0  0  0  0  0  0  0
   -5.0433   -0.8095    0.2912 C   0  0  0  0  0  0  0  0  0  0  0  0
   -6.2056   -1.5123    0.3271 C   0  0  0  0  0  0  0  0  0  0  0  0
   -7.2673   -1.0667    1.0810 C   0  0  0  0  0  0  0  0  0  0  0  0
   -7.1867    0.0866    1.8108 C   0  0  0  0  0  0  0  0  0  0  0  0
   -6.0041    0.7795    1.7575 C   0  0  0  0  0  0  0  0  0  0  0  0
   -4.9304    0.3604    1.0156 C   0  0  0  0  0  0  0  0  0  0  0  0
   -8.2907    0.5645    2.6180 C   0  0  0  0  0  0  0  0  0  0  0  0
   -7.9999    1.2727    3.7960 C   0  0  0  0  0  0  0  0  0  0  0  0
   -8.9854    1.7622    4.6270 C   0  0  0  0  0  0  0  0  0  0  0  0
  -10.2913    1.5305    4.2574 C   0  0  0  0  0  0  0  0  0  0  0  0
  -10.6230    0.8365    3.1023 C   0  0  0  0  0  0  0  0  0  0  0  0
   -9.6049    0.3698    2.3096 C   0  0  0  0  0  0  0  0  0  0  0  0
   -0.5575   -0.2650   -1.2520 C   0  0  0  0  0  0  0  0  0  0  0  0
   -0.6107    0.9734   -0.9388 O   0  0  0  0  0  0  0  0  0  0  0  0
    0.6735   -0.9260   -1.0295 N   0  0  0  0  0  0  0  0  0  0  0  0
    1.8193   -0.1942   -0.4608 C   0  0  1  0  0  0  0  0  0  0  0  0
    1.8708   -0.5323    1.0350 C   0  0  0  0  0  0  0  0  0  0  0  0
    3.0484   -0.5706   -1.1395 C   0  0  0  0  0  0  0  0  0  0  0  0
    3.0247   -1.4826   -2.0253 O   0  0  0  0  0  0  0  0  0  0  0  0
    4.3216    0.0001   -0.9034 N   0  0  0  0  0  0  0  0  0  0  0  0
    4.4931    1.0647    0.0579 C   0  0  0  0  0  0  0  0  0  0  0  0
    5.4216    0.5028    1.1304 C   0  0  0  0  0  0  0  0  0  0  0  0
    6.6775    0.2026    0.5134 N   0  0  0  0  0  0  0  0  0  0  0  0
    6.7863   -0.0752   -0.8940 C   0  0  0  0  0  0  0  0  0  0  0  0
    5.5215   -0.4415   -1.5857 C   0  0  0  0  0  0  0  0  0  0  0  0
    7.8562    0.1666    1.2997 C   0  0  0  0  0  0  0  0  0  0  0  0
    9.1110   -0.0054    0.7405 C   0  0  0  0  0  0  0  0  0  0  0  0
   10.2839   -0.0565    1.4386 C   0  0  0  0  0  0  0  0  0  0  0  0
   10.2071    0.0761    2.8249 C   0  0  0  0  0  0  0  0  0  0  0  0
    8.9943    0.2483    3.4319 C   0  0  0  0  0  0  0  0  0  0  0  0
    7.8196    0.2932    2.6703 C   0  0  0  0  0  0  0  0  0  0  0  0
    0.2575    0.5314   -3.6425 H   0  0  0  0  0  0  0  0  0  0  0  0
    1.0337   -1.0923   -4.0152 H   0  0  0  0  0  0  0  0  0  0  0  0
    0.4867   -0.0082   -5.2966 H   0  0  0  0  0  0  0  0  0  0  0  0
   -0.9243   -2.2300   -4.2986 H   0  0  0  0  0  0  0  0  0  0  0  0
   -2.6145   -1.4356   -5.8140 H   0  0  0  0  0  0  0  0  0  0  0  0
   -0.9634   -0.8358   -6.4207 H   0  0  0  0  0  0  0  0  0  0  0  0
   -2.0968    0.2493   -5.5504 H   0  0  0  0  0  0  0  0  0  0  0  0
   -3.0499   -1.2426   -3.4698 H   0  0  0  0  0  0  0  0  0  0  0  0
   -2.3305    0.3609   -3.4018 H   0  0  0  0  0  0  0  0  0  0  0  0
   -1.7560   -1.9881   -1.5861 H   0  0  0  0  0  0  0  0  0  0  0  0
   -3.0658    0.6461   -1.0036 H   0  0  0  0  0  0  0  0  0  0  0  0
   -6.3075   -2.4207   -0.2314 H   0  0  0  0  0  0  0  0  0  0  0  0
   -8.1941   -1.6612    1.0867 H   0  0  0  0  0  0  0  0  0  0  0  0
   -5.9177    1.7200    2.3361 H   0  0  0  0  0  0  0  0  0  0  0  0
   -4.0027    0.9501    1.0053 H   0  0  0  0  0  0  0  0  0  0  0  0
   -6.9596    1.4217    4.0346 H   0  0  0  0  0  0  0  0  0  0  0  0
   -8.6730    2.2927    5.5128 H   0  0  0  0  0  0  0  0  0  0  0  0
  -11.0831    1.8989    4.8864 H   0  0  0  0  0  0  0  0  0  0  0  0
  -11.6705    0.6712    2.8377 H   0  0  0  0  0  0  0  0  0  0  0  0
   -9.8634   -0.1703    1.4089 H   0  0  0  0  0  0  0  0  0  0  0  0
    0.7762   -1.9329   -1.2642 H   0  0  0  0  0  0  0  0  0  0  0  0
    1.6282    0.8891   -0.4926 H   0  0  0  0  0  0  0  0  0  0  0  0
    0.9870   -1.1773    1.3112 H   0  0  0  0  0  0  0  0  0  0  0  0
    2.7439   -1.1449    1.2423 H   0  0  0  0  0  0  0  0  0  0  0  0
    1.8595    0.3503    1.6771 H   0  0  0  0  0  0  0  0  0  0  0  0
    3.5716    1.4686    0.4695 H   0  0  0  0  0  0  0  0  0  0  0  0
    5.0572    1.8712   -0.4954 H   0  0  0  0  0  0  0  0  0  0  0  0
    5.4774    1.1975    1.9960 H   0  0  0  0  0  0  0  0  0  0  0  0
    5.0072   -0.4511    1.5376 H   0  0  0  0  0  0  0  0  0  0  0  0
    7.4755   -0.9722   -0.9887 H   0  0  0  0  0  0  0  0  0  0  0  0
    7.3417    0.7285   -1.4360 H   0  0  0  0  0  0  0  0  0  0  0  0
    5.5316    0.0598   -2.5999 H   0  0  0  0  0  0  0  0  0  0  0  0
    5.4917   -1.5431   -1.7515 H   0  0  0  0  0  0  0  0  0  0  0  0
    9.1801   -0.1076   -0.3420 H   0  0  0  0  0  0  0  0  0  0  0  0
   11.2556   -0.1929    0.9874 H   0  0  0  0  0  0  0  0  0  0  0  0
   11.1133    0.0392    3.3928 H   0  0  0  0  0  0  0  0  0  0  0  0
    8.9220    0.3513    4.5008 H   0  0  0  0  0  0  0  0  0  0  0  0
    6.8811    0.4281    3.1851 H   0  0  0  0  0  0  0  0  0  0  0  0
  1  2  1  0
  2  3  1  0
  2  4  1  0
  4  5  1  0
  5  6  1  0
  6  7  1  0
  7  8  2  0
  7  9  1  0
  9 10  2  0
 10 11  1  0
 11 12  2  0
 12 13  1  0
 13 14  2  0
 12 15  1  0
 15 16  2  0
 16 17  1  0
 17 18  2  0
 18 19  1  0
 19 20  2  0
  5 21  1  0
 21 22  2  0
 21 23  1  0
 23 24  1  0
 24 25  1  0
 24 26  1  0
 26 27  2  0
 26 28  1  0
 28 29  1  0
 29 30  1  0
 30 31  1  0
 31 32  1  0
 32 33  1  0
 31 34  1  0
 34 35  2  0
 35 36  1  0
 36 37  2  0
 37 38  1  0
 38 39  2  0
 14  9  1  0
 20 15  1  0
 33 28  1  0
 39 34  1  0
  1 40  1  0
  1 41  1  0
  1 42  1  0
  2 43  1  0
  3 44  1  0
  3 45  1  0
  3 46  1  0
  4 47  1  0
  4 48  1  0
  5 49  1  6
  6 50  1  0
 10 51  1  0
 11 52  1  0
 13 53  1  0
 14 54  1  0
 16 55  1  0
 17 56  1  0
 18 57  1  0
 19 58  1  0
 20 59  1  0
 23 60  1  0
 24 61  1  1
 25 62  1  0
 25 63  1  0
 25 64  1  0
 29 65  1  0
 29 66  1  0
 30 67  1  0
 30 68  1  0
 32 69  1  0
 32 70  1  0
 33 71  1  0
 33 72  1  0
 35 73  1  0
 36 74  1  0
 37 75  1  0
 38 76  1  0
 39 77  1  0
M  END
$$$$
[H]c1c([H])c([H])c(-c2c([H])c([H])c(C(=O)N([H])[C@]([H])(C(=O)N3C([H])([H])C([H])([H])N(c4c([H])c([H])c([H])c([H])c4[H])C([H])([H])C3([H])[H])C([H])([H])C([H])(C([H])([H])[H])C([H])([H])[H])c([H])c2[H])c([H])c1[H]
     RDKit          3D

 67 70  0  0  0  0  0  0  0  0999 V2000
    1.3690    2.4601    2.5976 C   0  0  0  0  0  0  0  0  0  0  0  0
   -0.0439    2.7603    2.2954 C   0  0  0  0  0  0  0  0  0  0  0  0
   -0.2197    4.2803    2.5097 C   0  0  0  0  0  0  0  0  0  0  0  0
   -0.5915    2.4661    0.9627 C   0  0  0  0  0  0  0  0  0  0  0  0
   -0.5739    1.0609    0.4804 C   0  0  2  0  0  0  0  0  0  0  0  0
    0.7603    0.5243    0.3506 N   0  0  0  0  0  0  0  0  0  0  0  0
    1.7737    1.0876   -0.4304 C   0  0  0  0  0  0  0  0  0  0  0  0
    1.5687    2.1532   -1.0887 O   0  0  0  0  0  0  0  0  0  0  0  0
    3.1024    0.4478   -0.4992 C   0  0  0  0  0  0  0  0  0  0  0  0
    4.1582    1.1835   -0.9837 C   0  0  0  0  0  0  0  0  0  0  0  0
    5.4271    0.6111   -1.0718 C   0  0  0  0  0  0  0  0  0  0  0  0
    5.6510   -0.6888   -0.6810 C   0  0  0  0  0  0  0  0  0  0  0  0
    4.5866   -1.4168   -0.1973 C   0  0  0  0  0  0  0  0  0  0  0  0
    3.3044   -0.8438   -0.1064 C   0  0  0  0  0  0  0  0  0  0  0  0
    6.9732   -1.3316   -0.7579 C   0  0  0  0  0  0  0  0  0  0  0  0
    7.3603   -2.2957    0.1290 C   0  0  0  0  0  0  0  0  0  0  0  0
    8.6044   -2.8652    0.0144 C   0  0  0  0  0  0  0  0  0  0  0  0
    9.4663   -2.4683   -0.9928 C   0  0  0  0  0  0  0  0  0  0  0  0
    9.0862   -1.4978   -1.8918 C   0  0  0  0  0  0  0  0  0  0  0  0
    7.8411   -0.9481   -1.7534 C   0  0  0  0  0  0  0  0  0  0  0  0
   -1.3039    0.8537   -0.7862 C   0  0  0  0  0  0  0  0  0  0  0  0
   -0.7682    0.9481   -1.9386 O   0  0  0  0  0  0  0  0  0  0  0  0
   -2.6917    0.5255   -0.7444 N   0  0  0  0  0  0  0  0  0  0  0  0
   -3.4487    0.3678   -2.0012 C   0  0  0  0  0  0  0  0  0  0  0  0
   -4.3315   -0.8481   -1.8110 C   0  0  0  0  0  0  0  0  0  0  0  0
   -5.1957   -0.6064   -0.6688 N   0  0  0  0  0  0  0  0  0  0  0  0
   -4.8543    0.4232    0.2886 C   0  0  0  0  0  0  0  0  0  0  0  0
   -3.3390    0.3125    0.5123 C   0  0  0  0  0  0  0  0  0  0  0  0
   -6.3659   -1.3912   -0.5052 C   0  0  0  0  0  0  0  0  0  0  0  0
   -7.3308   -1.1905    0.4524 C   0  0  0  0  0  0  0  0  0  0  0  0
   -8.4469   -1.9988    0.5620 C   0  0  0  0  0  0  0  0  0  0  0  0
   -8.6497   -3.0574   -0.2929 C   0  0  0  0  0  0  0  0  0  0  0  0
   -7.6956   -3.2753   -1.2589 C   0  0  0  0  0  0  0  0  0  0  0  0
   -6.5851   -2.4696   -1.3664 C   0  0  0  0  0  0  0  0  0  0  0  0
    1.6687    1.4066    2.6304 H   0  0  0  0  0  0  0  0  0  0  0  0
    1.5616    2.9346    3.6254 H   0  0  0  0  0  0  0  0  0  0  0  0
    2.0889    3.0030    1.9555 H   0  0  0  0  0  0  0  0  0  0  0  0
   -0.7536    2.3235    3.0555 H   0  0  0  0  0  0  0  0  0  0  0  0
   -1.2194    4.5957    2.1946 H   0  0  0  0  0  0  0  0  0  0  0  0
    0.5079    4.7620    1.7962 H   0  0  0  0  0  0  0  0  0  0  0  0
    0.0716    4.5771    3.5221 H   0  0  0  0  0  0  0  0  0  0  0  0
   -0.1479    3.1841    0.2057 H   0  0  0  0  0  0  0  0  0  0  0  0
   -1.6721    2.8089    0.9801 H   0  0  0  0  0  0  0  0  0  0  0  0
   -1.1086    0.3815    1.2196 H   0  0  0  0  0  0  0  0  0  0  0  0
    1.0059   -0.3743    0.8950 H   0  0  0  0  0  0  0  0  0  0  0  0
    3.9903    2.1902   -1.2874 H   0  0  0  0  0  0  0  0  0  0  0  0
    6.2738    1.1700   -1.4498 H   0  0  0  0  0  0  0  0  0  0  0  0
    4.7346   -2.4446    0.1178 H   0  0  0  0  0  0  0  0  0  0  0  0
    2.5130   -1.4702    0.2768 H   0  0  0  0  0  0  0  0  0  0  0  0
    6.6692   -2.5954    0.9153 H   0  0  0  0  0  0  0  0  0  0  0  0
    8.9288   -3.6315    0.7086 H   0  0  0  0  0  0  0  0  0  0  0  0
   10.4595   -2.8878   -1.1260 H   0  0  0  0  0  0  0  0  0  0  0  0
    9.7721   -1.1881   -2.6865 H   0  0  0  0  0  0  0  0  0  0  0  0
    7.5319   -0.1853   -2.4539 H   0  0  0  0  0  0  0  0  0  0  0  0
   -2.6990    0.2058   -2.8089 H   0  0  0  0  0  0  0  0  0  0  0  0
   -4.0214    1.2932   -2.2025 H   0  0  0  0  0  0  0  0  0  0  0  0
   -3.6626   -1.7106   -1.6227 H   0  0  0  0  0  0  0  0  0  0  0  0
   -4.9283   -0.9489   -2.7452 H   0  0  0  0  0  0  0  0  0  0  0  0
   -5.3094    0.2902    1.2672 H   0  0  0  0  0  0  0  0  0  0  0  0
   -5.0819    1.4148   -0.1788 H   0  0  0  0  0  0  0  0  0  0  0  0
   -3.0501    0.9950    1.3046 H   0  0  0  0  0  0  0  0  0  0  0  0
   -3.1603   -0.7606    0.7922 H   0  0  0  0  0  0  0  0  0  0  0  0
   -7.1902   -0.3455    1.1471 H   0  0  0  0  0  0  0  0  0  0  0  0
   -9.1591   -1.7854    1.3317 H   0  0  0  0  0  0  0  0  0  0  0  0
   -9.5196   -3.7066   -0.2246 H   0  0  0  0  0  0  0  0  0  0  0  0
   -7.8543   -4.1176   -1.9427 H   0  0  0  0  0  0  0  0  0  0  0  0
   -5.8370   -2.6568   -2.1377 H   0  0  0  0  0  0  0  0  0  0  0  0
  1  2  1  0
  2  3  1  0
  2  4  1  0
  4  5  1  0
  5  6  1  0
  6  7  1  0
  7  8  2  0
  7  9  1  0
  9 10  2  0
 10 11  1  0
 11 12  2  0
 12 13  1  0
 13 14  2  0
 12 15  1  0
 15 16  2  0
 16 17  1  0
 17 18  2  0
 18 19  1  0
 19 20  2  0
  5 21  1  0
 21 22  2  0
 21 23  1  0
 23 24  1  0
 24 25  1  0
 25 26  1  0
 26 27  1  0
 27 28  1  0
 26 29  1  0
 29 30  2  0
 30 31  1  0
 31 32  2  0
 32 33  1  0
 33 34  2  0
 14  9  1  0
 20 15  1  0
 28 23  1  0
 34 29  1  0
  1 35  1  0
  1 36  1  0
  1 37  1  0
  2 38  1  0
  3 39  1  0
  3 40  1  0
  3 41  1  0
  4 42  1  0
  4 43  1  0
  5 44  1  1
  6 45  1  0
 10 46  1  0
 11 47  1  0
 13 48  1  0
 14 49  1  0
 16 50  1  0
 17 51  1  0
 18 52  1  0
 19 53  1  0
 20 54  1  0
 24 55  1  0
 24 56  1  0
 25 57  1  0
 25 58  1  0
 27 59  1  0
 27 60  1  0
 28 61  1  0
 28 62  1  0
 30 63  1  0
 31 64  1  0
 32 65  1  0
 33 66  1  0
 34 67  1  0
M  END
$$$$
[H]c1c([H])c([H])c(C([H])([H])OC(=O)N([H])[C@]([H])(C(=O)N([H])[C@]([H])(C(=O)N([H])[C@@]([H])(C([H])([H])C([H])(C([H])([H])[H])C([H])([H])[H])C([H])(C([H])([H])[H])C([H])([H])[H])C([H])([H])c2c([H])c([H])c([H])c([H])c2[H])C([H])([H])c2c([H])c([H])c([H])c([H])c2[H])c([H])c1[H]
     RDKit          3D

 84 86  0  0  0  0  0  0  0  0999 V2000
   -7.6361    1.6949   -1.3464 C   0  0  0  0  0  0  0  0  0  0  0  0
   -6.3623    2.3053   -0.6153 C   0  0  0  0  0  0  0  0  0  0  0  0
   -6.8090    2.5245    0.7908 C   0  0  0  0  0  0  0  0  0  0  0  0
   -5.3339    1.2754   -0.8264 C   0  0  0  0  0  0  0  0  0  0  0  0
   -3.9543    1.3097   -0.4188 C   0  0  2  0  0  0  0  0  0  0  0  0
   -3.3419   -0.0062   -0.9675 N   0  0  0  0  0  0  0  0  0  0  0  0
   -2.1641   -0.0024   -1.6475 C   0  0  0  0  0  0  0  0  0  0  0  0
   -1.6130    1.1876   -1.7654 O   0  0  0  0  0  0  0  0  0  0  0  0
   -1.3268   -1.0309   -2.3073 C   0  0  2  0  0  0  0  0  0  0  0  0
   -1.7814   -2.4137   -2.4051 C   0  0  0  0  0  0  0  0  0  0  0  0
   -2.1057   -3.3325   -1.3787 C   0  0  0  0  0  0  0  0  0  0  0  0
   -3.4467   -3.5745   -1.0754 C   0  0  0  0  0  0  0  0  0  0  0  0
   -3.8965   -4.4433   -0.1317 C   0  0  0  0  0  0  0  0  0  0  0  0
   -2.9992   -5.1607    0.6035 C   0  0  0  0  0  0  0  0  0  0  0  0
   -1.6373   -4.9799    0.3637 C   0  0  0  0  0  0  0  0  0  0  0  0
   -1.2523   -4.0831   -0.6063 C   0  0  0  0  0  0  0  0  0  0  0  0
   -0.0030   -0.7826   -2.0888 N   0  0  0  0  0  0  0  0  0  0  0  0
    1.3401   -0.4365   -1.9517 C   0  0  0  0  0  0  0  0  0  0  0  0
    1.8540    0.5025   -2.6078 O   0  0  0  0  0  0  0  0  0  0  0  0
    2.3280   -1.1061   -1.0413 C   0  0  2  0  0  0  0  0  0  0  0  0
    1.7067   -1.3452    0.3134 C   0  0  0  0  0  0  0  0  0  0  0  0
    2.6343   -2.0214    1.2570 C   0  0  0  0  0  0  0  0  0  0  0  0
    2.8144   -3.4083    1.2793 C   0  0  0  0  0  0  0  0  0  0  0  0
    3.6643   -3.9783    2.1785 C   0  0  0  0  0  0  0  0  0  0  0  0
    4.3518   -3.2059    3.0725 C   0  0  0  0  0  0  0  0  0  0  0  0
    4.1754   -1.8231    3.0559 C   0  0  0  0  0  0  0  0  0  0  0  0
    3.3296   -1.2550    2.1606 C   0  0  0  0  0  0  0  0  0  0  0  0
    3.5817   -0.4376   -1.0260 N   0  0  0  0  0  0  0  0  0  0  0  0
    3.8225    0.9040   -0.6536 C   0  0  0  0  0  0  0  0  0  0  0  0
    2.9370    1.7168   -0.2720 O   0  0  0  0  0  0  0  0  0  0  0  0
    5.1247    1.4092   -0.6966 O   0  0  0  0  0  0  0  0  0  0  0  0
    5.3622    2.7611   -0.3217 C   0  0  0  0  0  0  0  0  0  0  0  0
    6.8192    3.1176   -0.4196 C   0  0  0  0  0  0  0  0  0  0  0  0
    7.2813    4.2782    0.1862 C   0  0  0  0  0  0  0  0  0  0  0  0
    8.6138    4.6008    0.1060 C   0  0  0  0  0  0  0  0  0  0  0  0
    9.5378    3.8113   -0.5628 C   0  0  0  0  0  0  0  0  0  0  0  0
    9.0697    2.6611   -1.1624 C   0  0  0  0  0  0  0  0  0  0  0  0
    7.7366    2.3349   -1.0843 C   0  0  0  0  0  0  0  0  0  0  0  0
   -3.4526    1.4484    0.9547 C   0  0  0  0  0  0  0  0  0  0  0  0
   -3.8223    0.4142    1.9614 C   0  0  0  0  0  0  0  0  0  0  0  0
   -3.5468    2.8205    1.5638 C   0  0  0  0  0  0  0  0  0  0  0  0
   -7.2431    1.2002   -2.2375 H   0  0  0  0  0  0  0  0  0  0  0  0
   -8.0599    0.9291   -0.6679 H   0  0  0  0  0  0  0  0  0  0  0  0
   -8.3365    2.5113   -1.5330 H   0  0  0  0  0  0  0  0  0  0  0  0
   -6.1357    3.2560   -1.1467 H   0  0  0  0  0  0  0  0  0  0  0  0
   -7.9505    2.4984    0.8281 H   0  0  0  0  0  0  0  0  0  0  0  0
   -6.5285    3.5565    1.1403 H   0  0  0  0  0  0  0  0  0  0  0  0
   -6.4980    1.8007    1.5261 H   0  0  0  0  0  0  0  0  0  0  0  0
   -5.3566    1.0098   -1.9604 H   0  0  0  0  0  0  0  0  0  0  0  0
   -5.8554    0.3019   -0.4422 H   0  0  0  0  0  0  0  0  0  0  0  0
   -3.3747    2.0625   -1.0379 H   0  0  0  0  0  0  0  0  0  0  0  0
   -3.9739   -0.7710   -0.7212 H   0  0  0  0  0  0  0  0  0  0  0  0
   -1.5347   -0.6827   -3.4460 H   0  0  0  0  0  0  0  0  0  0  0  0
   -2.6730   -2.4176   -3.1450 H   0  0  0  0  0  0  0  0  0  0  0  0
   -1.0081   -2.9373   -3.0845 H   0  0  0  0  0  0  0  0  0  0  0  0
   -4.2355   -3.0355   -1.6414 H   0  0  0  0  0  0  0  0  0  0  0  0
   -4.9580   -4.5854    0.0561 H   0  0  0  0  0  0  0  0  0  0  0  0
   -3.3731   -5.8514    1.3523 H   0  0  0  0  0  0  0  0  0  0  0  0
   -0.9225   -5.5426    0.9398 H   0  0  0  0  0  0  0  0  0  0  0  0
   -0.2000   -3.9673   -0.7789 H   0  0  0  0  0  0  0  0  0  0  0  0
   -0.1077    0.2983   -2.9246 H   0  0  0  0  0  0  0  0  0  0  0  0
    2.5223   -2.1529   -1.4392 H   0  0  0  0  0  0  0  0  0  0  0  0
    0.7955   -1.9621    0.2349 H   0  0  0  0  0  0  0  0  0  0  0  0
    1.3754   -0.3634    0.7865 H   0  0  0  0  0  0  0  0  0  0  0  0
    2.2576   -4.0013    0.5704 H   0  0  0  0  0  0  0  0  0  0  0  0
    3.8147   -5.0602    2.2073 H   0  0  0  0  0  0  0  0  0  0  0  0
    5.0223   -3.6212    3.7931 H   0  0  0  0  0  0  0  0  0  0  0  0
    4.6972   -1.1870    3.7374 H   0  0  0  0  0  0  0  0  0  0  0  0
    3.1649   -0.1807    2.1344 H   0  0  0  0  0  0  0  0  0  0  0  0
    4.4367   -1.0006   -1.3213 H   0  0  0  0  0  0  0  0  0  0  0  0
    4.7653    3.4913   -0.8910 H   0  0  0  0  0  0  0  0  0  0  0  0
    5.1093    2.8384    0.7586 H   0  0  0  0  0  0  0  0  0  0  0  0
    6.5890    4.9245    0.7194 H   0  0  0  0  0  0  0  0  0  0  0  0
    8.9366    5.5039    0.5887 H   0  0  0  0  0  0  0  0  0  0  0  0
   10.5802    4.1277   -0.5836 H   0  0  0  0  0  0  0  0  0  0  0  0
    9.7752    2.0346   -1.6886 H   0  0  0  0  0  0  0  0  0  0  0  0
    7.3645    1.4181   -1.5675 H   0  0  0  0  0  0  0  0  0  0  0  0
   -2.2736    1.3012    0.9082 H   0  0  0  0  0  0  0  0  0  0  0  0
   -3.0572    0.4805    2.8017 H   0  0  0  0  0  0  0  0  0  0  0  0
   -4.7951    0.5483    2.4660 H   0  0  0  0  0  0  0  0  0  0  0  0
   -3.6954   -0.6226    1.5549 H   0  0  0  0  0  0  0  0  0  0  0  0
   -4.2231    2.8070    2.4558 H   0  0  0  0  0  0  0  0  0  0  0  0
   -2.5599    3.2059    1.9485 H   0  0  0  0  0  0  0  0  0  0  0  0
   -3.8771    3.5860    0.8156 H   0  0  0  0  0  0  0  0  0  0  0  0
  1  2  1  0
  2  3  1  0
  2  4  1  0
  4  5  1  0
  5  6  1  0
  6  7  1  0
  7  8  2  0
  7  9  1  0
  9 10  1  0
 10 11  1  0
 11 12  2  0
 12 13  1  0
 13 14  2  0
 14 15  1  0
 15 16  2  0
  9 17  1  0
 17 18  1  0
 18 19  2  0
 18 20  1  0
 20 21  1  0
 21 22  1  0
 22 23  2  0
 23 24  1  0
 24 25  2  0
 25 26  1  0
 26 27  2  0
 20 28  1  0
 28 29  1  0
 29 30  2  0
 29 31  1  0
 31 32  1  0
 32 33  1  0
 33 34  2  0
 34 35  1  0
 35 36  2  0
 36 37  1  0
 37 38  2  0
  5 39  1  0
 39 40  1  0
 39 41  1  0
 16 11  1  0
 27 22  1  0
 38 33  1  0
  1 42  1  0
  1 43  1  0
  1 44  1  0
  2 45  1  0
  3 46  1  0
  3 47  1  0
  3 48  1  0
  4 49  1  0
  4 50  1  0
  5 51  1  6
  6 52  1  0
  9 53  1  6
 10 54  1  0
 10 55  1  0
 12 56  1  0
 13 57  1  0
 14 58  1  0
 15 59  1  0
 16 60  1  0
 17 61  1  0
 20 62  1  6
 21 63  1  0
 21 64  1  0
 23 65  1  0
 24 66  1  0
 25 67  1  0
 26 68  1  0
 27 69  1  0
 28 70  1  0
 32 71  1  0
 32 72  1  0
 34 73  1  0
 35 74  1  0
 36 75  1  0
 37 76  1  0
 38 77  1  0
 39 78  1  0
 40 79  1  0
 40 80  1  0
 40 81  1  0
 41 82  1  0
 41 83  1  0
 41 84  1  0
M  END
$$$$
[H]c1c([H])c([H])c(-c2c([H])c([H])c(C(=O)N([H])[C@]([H])(C(=O)N([H])[C@]([H])(C(=O)N([H])[H])C([H])([H])c3c([H])c([H])c([H])c([H])c3[H])C([H])([H])C([H])(C([H])([H])[H])C([H])([H])[H])c([H])c2[H])c([H])c1[H]
     RDKit          3D

 65 67  0  0  0  0  0  0  0  0999 V2000
   -1.2930    0.0297   -4.6039 C   0  0  0  0  0  0  0  0  0  0  0  0
   -0.8627   -0.2377   -3.1296 C   0  0  0  0  0  0  0  0  0  0  0  0
    0.5213   -0.8102   -3.2567 C   0  0  0  0  0  0  0  0  0  0  0  0
   -0.9659    1.0757   -2.4501 C   0  0  0  0  0  0  0  0  0  0  0  0
   -0.6535    1.1476   -0.9974 C   0  0  2  0  0  0  0  0  0  0  0  0
    0.6890    0.7487   -0.7204 N   0  0  0  0  0  0  0  0  0  0  0  0
    1.7442    1.6370   -0.4505 C   0  0  0  0  0  0  0  0  0  0  0  0
    1.5283    2.8735   -0.4448 O   0  0  0  0  0  0  0  0  0  0  0  0
    3.0784    1.1398   -0.1796 C   0  0  0  0  0  0  0  0  0  0  0  0
    3.3788   -0.1842    0.0089 C   0  0  0  0  0  0  0  0  0  0  0  0
    4.6898   -0.6020    0.2622 C   0  0  0  0  0  0  0  0  0  0  0  0
    5.7336    0.2924    0.3334 C   0  0  0  0  0  0  0  0  0  0  0  0
    5.4133    1.6201    0.1416 C   0  0  0  0  0  0  0  0  0  0  0  0
    4.1419    2.0530   -0.1070 C   0  0  0  0  0  0  0  0  0  0  0  0
    7.0969   -0.1414    0.5964 C   0  0  0  0  0  0  0  0  0  0  0  0
    7.3243   -1.2424    1.3923 C   0  0  0  0  0  0  0  0  0  0  0  0
    8.5908   -1.6998    1.6740 C   0  0  0  0  0  0  0  0  0  0  0  0
    9.6480   -0.9979    1.1164 C   0  0  0  0  0  0  0  0  0  0  0  0
    9.4373    0.1108    0.3141 C   0  0  0  0  0  0  0  0  0  0  0  0
    8.1396    0.5523    0.0453 C   0  0  0  0  0  0  0  0  0  0  0  0
   -1.6147    0.4119   -0.1502 C   0  0  0  0  0  0  0  0  0  0  0  0
   -1.2203   -0.4441    0.7015 O   0  0  0  0  0  0  0  0  0  0  0  0
   -2.9920    0.6284   -0.2533 N   0  0  0  0  0  0  0  0  0  0  0  0
   -3.9768   -0.0889    0.5765 C   0  0  1  0  0  0  0  0  0  0  0  0
   -4.7533    0.9451    1.3028 C   0  0  0  0  0  0  0  0  0  0  0  0
   -5.8120    0.4695    2.2117 C   0  0  0  0  0  0  0  0  0  0  0  0
   -7.1408    0.3185    1.8752 C   0  0  0  0  0  0  0  0  0  0  0  0
   -8.0852   -0.1336    2.7732 C   0  0  0  0  0  0  0  0  0  0  0  0
   -7.7470   -0.4618    4.0677 C   0  0  0  0  0  0  0  0  0  0  0  0
   -6.4263   -0.3220    4.4363 C   0  0  0  0  0  0  0  0  0  0  0  0
   -5.4892    0.1302    3.5336 C   0  0  0  0  0  0  0  0  0  0  0  0
   -4.7482   -0.9434   -0.3395 C   0  0  0  0  0  0  0  0  0  0  0  0
   -5.7585   -1.8518    0.0660 N   0  0  0  0  0  0  0  0  0  0  0  0
   -4.5302   -0.9039   -1.5893 O   0  0  0  0  0  0  0  0  0  0  0  0
   -0.5079    0.5680   -5.1342 H   0  0  0  0  0  0  0  0  0  0  0  0
   -1.4921   -0.9426   -5.0710 H   0  0  0  0  0  0  0  0  0  0  0  0
   -2.2191    0.6316   -4.6114 H   0  0  0  0  0  0  0  0  0  0  0  0
   -1.5327   -1.0032   -2.6944 H   0  0  0  0  0  0  0  0  0  0  0  0
    0.6995   -1.1992   -4.3042 H   0  0  0  0  0  0  0  0  0  0  0  0
    0.6445   -1.6822   -2.5485 H   0  0  0  0  0  0  0  0  0  0  0  0
    1.3400   -0.1024   -3.0338 H   0  0  0  0  0  0  0  0  0  0  0  0
   -1.9375    1.5980   -2.6812 H   0  0  0  0  0  0  0  0  0  0  0  0
   -0.2069    1.7572   -2.9607 H   0  0  0  0  0  0  0  0  0  0  0  0
   -0.7001    2.2467   -0.7405 H   0  0  0  0  0  0  0  0  0  0  0  0
    0.8820   -0.2754   -0.7028 H   0  0  0  0  0  0  0  0  0  0  0  0
    2.6192   -0.9505   -0.0290 H   0  0  0  0  0  0  0  0  0  0  0  0
    4.8733   -1.6548    0.4034 H   0  0  0  0  0  0  0  0  0  0  0  0
    6.2353    2.3402    0.1959 H   0  0  0  0  0  0  0  0  0  0  0  0
    3.8927    3.1097   -0.2588 H   0  0  0  0  0  0  0  0  0  0  0  0
    6.4768   -1.7904    1.8287 H   0  0  0  0  0  0  0  0  0  0  0  0
    8.7154   -2.5672    2.3033 H   0  0  0  0  0  0  0  0  0  0  0  0
   10.6666   -1.3382    1.3227 H   0  0  0  0  0  0  0  0  0  0  0  0
   10.2867    0.6358   -0.1054 H   0  0  0  0  0  0  0  0  0  0  0  0
    8.0360    1.4183   -0.5840 H   0  0  0  0  0  0  0  0  0  0  0  0
   -3.3567    1.3196   -0.9374 H   0  0  0  0  0  0  0  0  0  0  0  0
   -3.3770   -0.7508    1.2444 H   0  0  0  0  0  0  0  0  0  0  0  0
   -4.0612    1.5558    1.9215 H   0  0  0  0  0  0  0  0  0  0  0  0
   -5.2486    1.5994    0.5472 H   0  0  0  0  0  0  0  0  0  0  0  0
   -7.4135    0.5772    0.8551 H   0  0  0  0  0  0  0  0  0  0  0  0
   -9.1239   -0.2407    2.4735 H   0  0  0  0  0  0  0  0  0  0  0  0
   -8.4698   -0.8179    4.7879 H   0  0  0  0  0  0  0  0  0  0  0  0
   -6.1490   -0.5800    5.4617 H   0  0  0  0  0  0  0  0  0  0  0  0
   -4.4349    0.2443    3.8195 H   0  0  0  0  0  0  0  0  0  0  0  0
   -6.7227   -1.8770   -0.3556 H   0  0  0  0  0  0  0  0  0  0  0  0
   -5.5007   -2.5248    0.8315 H   0  0  0  0  0  0  0  0  0  0  0  0
  1  2  1  0
  2  3  1  0
  2  4  1  0
  4  5  1  0
  5  6  1  0
  6  7  1  0
  7  8  2  0
  7  9  1  0
  9 10  2  0
 10 11  1  0
 11 12  2  0
 12 13  1  0
 13 14  2  0
 12 15  1  0
 15 16  2  0
 16 17  1  0
 17 18  2  0
 18 19  1  0
 19 20  2  0
  5 21  1  0
 21 22  2  0
 21 23  1  0
 23 24  1  0
 24 25  1  0
 25 26  1  0
 26 27  2  0
 27 28  1  0
 28 29  2  0
 29 30  1  0
 30 31  2  0
 24 32  1  0
 32 33  1  0
 32 34  2  0
 14  9  1  0
 20 15  1  0
 31 26  1  0
  1 35  1  0
  1 36  1  0
  1 37  1  0
  2 38  1  0
  3 39  1  0
  3 40  1  0
  3 41  1  0
  4 42  1  0
  4 43  1  0
  5 44  1  1
  6 45  1  0
 10 46  1  0
 11 47  1  0
 13 48  1  0
 14 49  1  0
 16 50  1  0
 17 51  1  0
 18 52  1  0
 19 53  1  0
 20 54  1  0
 23 55  1  0
 24 56  1  1
 25 57  1  0
 25 58  1  0
 27 59  1  0
 28 60  1  0
 29 61  1  0
 30 62  1  0
 31 63  1  0
 33 64  1  0
 33 65  1  0
M  END
$$$$
[H]c1c([H])c([H])c(-c2c([H])c([H])c(C(=O)N([H])[C@]([H])(C(=O)N([H])[C@]([H])(C(=O)N([H])[H])C([H])([H])C([H])(C([H])([H])[H])C([H])([H])[H])C([H])([H])c3c([H])c([H])c([H])c([H])c3[H])c([H])c2[H])c([H])c1[H]
     RDKit          3D

 65 67  0  0  0  0  0  0  0  0999 V2000
   -4.7198   -0.3619   -1.3034 C   0  0  0  0  0  0  0  0  0  0  0  0
   -5.2688   -1.5369   -0.6021 C   0  0  0  0  0  0  0  0  0  0  0  0
   -5.6404   -2.6516   -1.6046 C   0  0  0  0  0  0  0  0  0  0  0  0
   -4.4915   -2.1152    0.5213 C   0  0  0  0  0  0  0  0  0  0  0  0
   -4.2510   -1.2013    1.6657 C   0  0  2  0  0  0  0  0  0  0  0  0
   -3.4857   -0.0234    1.3901 N   0  0  0  0  0  0  0  0  0  0  0  0
   -2.0542   -0.0565    1.2642 C   0  0  0  0  0  0  0  0  0  0  0  0
   -1.4014   -1.1252    1.3664 O   0  0  0  0  0  0  0  0  0  0  0  0
   -1.3093    1.1928    1.0124 C   0  0  2  0  0  0  0  0  0  0  0  0
   -1.8689    1.8901   -0.1735 C   0  0  0  0  0  0  0  0  0  0  0  0
   -1.2056    3.1721   -0.5148 C   0  0  0  0  0  0  0  0  0  0  0  0
   -1.6204    4.3272    0.1498 C   0  0  0  0  0  0  0  0  0  0  0  0
   -1.0355    5.5271   -0.1625 C   0  0  0  0  0  0  0  0  0  0  0  0
   -0.0482    5.6208   -1.1166 C   0  0  0  0  0  0  0  0  0  0  0  0
    0.3812    4.4990   -1.7888 C   0  0  0  0  0  0  0  0  0  0  0  0
   -0.2245    3.2852   -1.4594 C   0  0  0  0  0  0  0  0  0  0  0  0
    0.0978    0.8583    0.9342 N   0  0  0  0  0  0  0  0  0  0  0  0
    0.6806    0.0997   -0.0905 C   0  0  0  0  0  0  0  0  0  0  0  0
   -0.0296   -0.3352   -1.0229 O   0  0  0  0  0  0  0  0  0  0  0  0
    2.0943   -0.1936   -0.0942 C   0  0  0  0  0  0  0  0  0  0  0  0
    2.6475   -0.8790   -1.1842 C   0  0  0  0  0  0  0  0  0  0  0  0
    3.9731   -1.1850   -1.2406 C   0  0  0  0  0  0  0  0  0  0  0  0
    4.8453   -0.8381   -0.2292 C   0  0  0  0  0  0  0  0  0  0  0  0
    4.3083   -0.1676    0.8386 C   0  0  0  0  0  0  0  0  0  0  0  0
    2.9684    0.1466    0.9049 C   0  0  0  0  0  0  0  0  0  0  0  0
    6.2486   -1.1890   -0.3413 C   0  0  0  0  0  0  0  0  0  0  0  0
    6.8389   -1.2359   -1.5755 C   0  0  0  0  0  0  0  0  0  0  0  0
    8.1787   -1.5711   -1.6888 C   0  0  0  0  0  0  0  0  0  0  0  0
    8.8996   -1.8525   -0.5607 C   0  0  0  0  0  0  0  0  0  0  0  0
    8.3156   -1.8076    0.6797 C   0  0  0  0  0  0  0  0  0  0  0  0
    6.9697   -1.4707    0.7901 C   0  0  0  0  0  0  0  0  0  0  0  0
   -3.8192   -1.9271    2.8999 C   0  0  0  0  0  0  0  0  0  0  0  0
   -4.4726   -3.1371    3.2190 N   0  0  0  0  0  0  0  0  0  0  0  0
   -2.9207   -1.5432    3.6726 O   0  0  0  0  0  0  0  0  0  0  0  0
   -3.6056   -0.4471   -1.4046 H   0  0  0  0  0  0  0  0  0  0  0  0
   -5.0747   -0.3152   -2.3726 H   0  0  0  0  0  0  0  0  0  0  0  0
   -4.9199    0.6244   -0.8534 H   0  0  0  0  0  0  0  0  0  0  0  0
   -6.2901   -1.2218   -0.2083 H   0  0  0  0  0  0  0  0  0  0  0  0
   -4.7252   -3.0349   -2.1005 H   0  0  0  0  0  0  0  0  0  0  0  0
   -6.3963   -2.2590   -2.2864 H   0  0  0  0  0  0  0  0  0  0  0  0
   -6.0834   -3.4633   -0.9886 H   0  0  0  0  0  0  0  0  0  0  0  0
   -3.4934   -2.5134    0.1379 H   0  0  0  0  0  0  0  0  0  0  0  0
   -4.9707   -3.0624    0.9167 H   0  0  0  0  0  0  0  0  0  0  0  0
   -5.2985   -0.7774    1.9455 H   0  0  0  0  0  0  0  0  0  0  0  0
   -3.9286    0.9299    1.2718 H   0  0  0  0  0  0  0  0  0  0  0  0
   -1.4307    1.9081    1.8943 H   0  0  0  0  0  0  0  0  0  0  0  0
   -2.9360    2.1567    0.0167 H   0  0  0  0  0  0  0  0  0  0  0  0
   -1.9039    1.2615   -1.0880 H   0  0  0  0  0  0  0  0  0  0  0  0
   -2.3991    4.2465    0.9006 H   0  0  0  0  0  0  0  0  0  0  0  0
   -1.3426    6.4354    0.3415 H   0  0  0  0  0  0  0  0  0  0  0  0
    0.3970    6.5624   -1.3483 H   0  0  0  0  0  0  0  0  0  0  0  0
    1.1481    4.5901   -2.5255 H   0  0  0  0  0  0  0  0  0  0  0  0
    0.1100    2.4197   -2.0001 H   0  0  0  0  0  0  0  0  0  0  0  0
    0.7089    1.2123    1.7007 H   0  0  0  0  0  0  0  0  0  0  0  0
    1.9756   -1.1685   -2.0061 H   0  0  0  0  0  0  0  0  0  0  0  0
    4.3416   -1.7171   -2.1115 H   0  0  0  0  0  0  0  0  0  0  0  0
    4.9602    0.1228    1.6534 H   0  0  0  0  0  0  0  0  0  0  0  0
    2.6192    0.6774    1.7825 H   0  0  0  0  0  0  0  0  0  0  0  0
    6.2970   -1.0181   -2.4970 H   0  0  0  0  0  0  0  0  0  0  0  0
    8.6501   -1.6104   -2.6535 H   0  0  0  0  0  0  0  0  0  0  0  0
    9.9444   -2.1133   -0.6610 H   0  0  0  0  0  0  0  0  0  0  0  0
    8.9286   -2.0380    1.5367 H   0  0  0  0  0  0  0  0  0  0  0  0
    6.5557   -1.4487    1.7823 H   0  0  0  0  0  0  0  0  0  0  0  0
   -5.5010   -3.1821    3.2179 H   0  0  0  0  0  0  0  0  0  0  0  0
   -3.9172   -3.9711    3.4516 H   0  0  0  0  0  0  0  0  0  0  0  0
  1  2  1  0
  2  3  1  0
  2  4  1  0
  4  5  1  0
  5  6  1  0
  6  7  1  0
  7  8  2  0
  7  9  1  0
  9 10  1  0
 10 11  1  0
 11 12  2  0
 12 13  1  0
 13 14  2  0
 14 15  1  0
 15 16  2  0
  9 17  1  0
 17 18  1  0
 18 19  2  0
 18 20  1  0
 20 21  2  0
 21 22  1  0
 22 23  2  0
 23 24  1  0
 24 25  2  0
 23 26  1  0
 26 27  2  0
 27 28  1  0
 28 29  2  0
 29 30  1  0
 30 31  2  0
  5 32  1  0
 32 33  1  0
 32 34  2  0
 16 11  1  0
 25 20  1  0
 31 26  1  0
  1 35  1  0
  1 36  1  0
  1 37  1  0
  2 38  1  0
  3 39  1  0
  3 40  1  0
  3 41  1  0
  4 42  1  0
  4 43  1  0
  5 44  1  1
  6 45  1  0
  9 46  1  1
 10 47  1  0
 10 48  1  0
 12 49  1  0
 13 50  1  0
 14 51  1  0
 15 52  1  0
 16 53  1  0
 17 54  1  0
 21 55  1  0
 22 56  1  0
 24 57  1  0
 25 58  1  0
 27 59  1  0
 28 60  1  0
 29 61  1  0
 30 62  1  0
 31 63  1  0
 33 64  1  0
 33 65  1  0
M  END
$$$$
[H]c1c([H])c([H])c(-c2c([H])c([H])c(C(=O)N3C([H])([H])C([H])([H])N(C(=O)c4c([H])c([H])c(-c5c([H])c([H])c([H])c([H])c5[H])c([H])c4[H])[C@]([H])(C([H])([H])[H])C3([H])[H])c([H])c2[H])c([H])c1[H]
     RDKit          3D

 63 67  0  0  0  0  0  0  0  0999 V2000
    0.0569    1.7104    3.2342 C   0  0  0  0  0  0  0  0  0  0  0  0
    0.1634    1.5627    1.7742 C   0  0  2  0  0  0  0  0  0  0  0  0
   -1.1047    0.9826    1.1660 C   0  0  0  0  0  0  0  0  0  0  0  0
   -1.2468   -0.3783    1.5471 N   0  0  0  0  0  0  0  0  0  0  0  0
   -0.0623   -1.0610    2.1433 C   0  0  0  0  0  0  0  0  0  0  0  0
    1.1337   -0.6858    1.2936 C   0  0  0  0  0  0  0  0  0  0  0  0
    1.3020    0.7342    1.3205 N   0  0  0  0  0  0  0  0  0  0  0  0
    2.4850    1.3971    1.0057 C   0  0  0  0  0  0  0  0  0  0  0  0
    2.4538    2.6965    1.2248 O   0  0  0  0  0  0  0  0  0  0  0  0
    3.7135    0.8618    0.4860 C   0  0  0  0  0  0  0  0  0  0  0  0
    4.8723    1.6830    0.5286 C   0  0  0  0  0  0  0  0  0  0  0  0
    6.0682    1.2879    0.0067 C   0  0  0  0  0  0  0  0  0  0  0  0
    6.2362    0.0683   -0.5966 C   0  0  0  0  0  0  0  0  0  0  0  0
    5.1352   -0.7404   -0.6509 C   0  0  0  0  0  0  0  0  0  0  0  0
    3.8880   -0.3468   -0.1160 C   0  0  0  0  0  0  0  0  0  0  0  0
    7.5321   -0.3011   -1.1366 C   0  0  0  0  0  0  0  0  0  0  0  0
    8.4051    0.6372   -1.6648 C   0  0  0  0  0  0  0  0  0  0  0  0
    9.6338    0.2826   -2.1772 C   0  0  0  0  0  0  0  0  0  0  0  0
   10.0401   -1.0340   -2.1812 C   0  0  0  0  0  0  0  0  0  0  0  0
    9.1760   -1.9711   -1.6572 C   0  0  0  0  0  0  0  0  0  0  0  0
    7.9455   -1.6156   -1.1441 C   0  0  0  0  0  0  0  0  0  0  0  0
   -2.4085   -1.1431    1.4021 C   0  0  0  0  0  0  0  0  0  0  0  0
   -2.2516   -2.3589    1.8850 O   0  0  0  0  0  0  0  0  0  0  0  0
   -3.6691   -0.8177    0.8426 C   0  0  0  0  0  0  0  0  0  0  0  0
   -4.7337   -1.7332    1.0158 C   0  0  0  0  0  0  0  0  0  0  0  0
   -5.9825   -1.5430    0.4852 C   0  0  0  0  0  0  0  0  0  0  0  0
   -6.2653   -0.4263   -0.2583 C   0  0  0  0  0  0  0  0  0  0  0  0
   -5.2617    0.4789   -0.4469 C   0  0  0  0  0  0  0  0  0  0  0  0
   -3.9702    0.2801    0.1025 C   0  0  0  0  0  0  0  0  0  0  0  0
   -7.6050   -0.2044   -0.8323 C   0  0  0  0  0  0  0  0  0  0  0  0
   -8.7571   -0.6454   -0.2176 C   0  0  0  0  0  0  0  0  0  0  0  0
  -10.0107   -0.4195   -0.7839 C   0  0  0  0  0  0  0  0  0  0  0  0
  -10.1009    0.2575   -1.9807 C   0  0  0  0  0  0  0  0  0  0  0  0
   -8.9521    0.6993   -2.5977 C   0  0  0  0  0  0  0  0  0  0  0  0
   -7.7003    0.4695   -2.0248 C   0  0  0  0  0  0  0  0  0  0  0  0
    0.9570    1.2787    3.7517 H   0  0  0  0  0  0  0  0  0  0  0  0
   -0.8891    1.2791    3.6458 H   0  0  0  0  0  0  0  0  0  0  0  0
    0.0694    2.7961    3.5390 H   0  0  0  0  0  0  0  0  0  0  0  0
    0.2847    2.5545    1.2708 H   0  0  0  0  0  0  0  0  0  0  0  0
   -1.9534    1.6300    1.5361 H   0  0  0  0  0  0  0  0  0  0  0  0
   -1.0346    1.1316    0.0628 H   0  0  0  0  0  0  0  0  0  0  0  0
   -0.2347   -2.1638    1.9956 H   0  0  0  0  0  0  0  0  0  0  0  0
    0.0661   -0.8665    3.1843 H   0  0  0  0  0  0  0  0  0  0  0  0
    0.8791   -1.0148    0.2711 H   0  0  0  0  0  0  0  0  0  0  0  0
    2.0409   -1.2144    1.6749 H   0  0  0  0  0  0  0  0  0  0  0  0
    4.7502    2.6409    1.0031 H   0  0  0  0  0  0  0  0  0  0  0  0
    6.9526    1.9420    0.0517 H   0  0  0  0  0  0  0  0  0  0  0  0
    5.2222   -1.7075   -1.1161 H   0  0  0  0  0  0  0  0  0  0  0  0
    3.0889   -1.0458   -0.2509 H   0  0  0  0  0  0  0  0  0  0  0  0
    8.0839    1.6540   -1.6580 H   0  0  0  0  0  0  0  0  0  0  0  0
   10.3225    1.0213   -2.5939 H   0  0  0  0  0  0  0  0  0  0  0  0
   11.0070   -1.2885   -2.5877 H   0  0  0  0  0  0  0  0  0  0  0  0
    9.5084   -3.0021   -1.6668 H   0  0  0  0  0  0  0  0  0  0  0  0
    7.2623   -2.3712   -0.7277 H   0  0  0  0  0  0  0  0  0  0  0  0
   -4.4913   -2.6113    1.6108 H   0  0  0  0  0  0  0  0  0  0  0  0
   -6.7770   -2.2608    0.6344 H   0  0  0  0  0  0  0  0  0  0  0  0
   -5.4688    1.3653   -1.0311 H   0  0  0  0  0  0  0  0  0  0  0  0
   -3.2675    1.0525   -0.1404 H   0  0  0  0  0  0  0  0  0  0  0  0
   -8.7025   -1.1748    0.7165 H   0  0  0  0  0  0  0  0  0  0  0  0
  -10.9246   -0.7620   -0.3087 H   0  0  0  0  0  0  0  0  0  0  0  0
  -11.0983    0.4152   -2.3918 H   0  0  0  0  0  0  0  0  0  0  0  0
   -9.0220    1.2288   -3.5344 H   0  0  0  0  0  0  0  0  0  0  0  0
   -6.7899    0.8293   -2.5309 H   0  0  0  0  0  0  0  0  0  0  0  0
  1  2  1  0
  2  3  1  0
  3  4  1  0
  4  5  1  0
  5  6  1  0
  6  7  1  0
  7  8  1  0
  8  9  2  0
  8 10  1  0
 10 11  2  0
 11 12  1  0
 12 13  2  0
 13 14  1  0
 14 15  2  0
 13 16  1  0
 16 17  2  0
 17 18  1  0
 18 19  2  0
 19 20  1  0
 20 21  2  0
  4 22  1  0
 22 23  2  0
 22 24  1  0
 24 25  2  0
 25 26  1  0
 26 27  2  0
 27 28  1  0
 28 29  2  0
 27 30  1  0
 30 31  2  0
 31 32  1  0
 32 33  2  0
 33 34  1  0
 34 35  2  0
  7  2  1  0
 15 10  1  0
 21 16  1  0
 29 24  1  0
 35 30  1  0
  1 36  1  0
  1 37  1  0
  1 38  1  0
  2 39  1  6
  3 40  1  0
  3 41  1  0
  5 42  1  0
  5 43  1  0
  6 44  1  0
  6 45  1  0
 11 46  1  0
 12 47  1  0
 14 48  1  0
 15 49  1  0
 17 50  1  0
 18 51  1  0
 19 52  1  0
 20 53  1  0
 21 54  1  0
 25 55  1  0
 26 56  1  0
 28 57  1  0
 29 58  1  0
 31 59  1  0
 32 60  1  0
 33 61  1  0
 34 62  1  0
 35 63  1  0
M  END
$$$$
[H]c1c([H])c([H])c(-c2c([H])c([H])c(C(=O)N([H])[C@]([H])(C(=O)N3C([H])([H])C([H])([H])N(C(=O)C([H])([H])[H])C([H])([H])C3([H])[H])C([H])([H])C([H])(C([H])([H])[H])C([H])([H])[H])c([H])c2[H])c([H])c1[H]
     RDKit          3D

 62 64  0  0  0  0  0  0  0  0999 V2000
   -2.0586   -4.4198   -0.5107 C   0  0  0  0  0  0  0  0  0  0  0  0
   -2.2300   -3.5695    0.7709 C   0  0  0  0  0  0  0  0  0  0  0  0
   -1.9173   -4.6059    1.8892 C   0  0  0  0  0  0  0  0  0  0  0  0
   -1.1627   -2.5449    0.7925 C   0  0  0  0  0  0  0  0  0  0  0  0
   -1.0162   -1.5634   -0.2529 C   0  0  2  0  0  0  0  0  0  0  0  0
    0.2484   -0.8050    0.0558 N   0  0  0  0  0  0  0  0  0  0  0  0
    1.3616   -1.0230   -0.7580 C   0  0  0  0  0  0  0  0  0  0  0  0
    1.2825   -1.8444   -1.7243 O   0  0  0  0  0  0  0  0  0  0  0  0
    2.6203   -0.3464   -0.5488 C   0  0  0  0  0  0  0  0  0  0  0  0
    2.7482    0.5820    0.4501 C   0  0  0  0  0  0  0  0  0  0  0  0
    3.9567    1.2473    0.6665 C   0  0  0  0  0  0  0  0  0  0  0  0
    5.0290    0.9549   -0.1452 C   0  0  0  0  0  0  0  0  0  0  0  0
    4.9039    0.0259   -1.1458 C   0  0  0  0  0  0  0  0  0  0  0  0
    3.7094   -0.6176   -1.3439 C   0  0  0  0  0  0  0  0  0  0  0  0
    6.2853    1.6377    0.0661 C   0  0  0  0  0  0  0  0  0  0  0  0
    6.7019    2.0503    1.3150 C   0  0  0  0  0  0  0  0  0  0  0  0
    7.9071    2.7032    1.5020 C   0  0  0  0  0  0  0  0  0  0  0  0
    8.7391    2.9652    0.4356 C   0  0  0  0  0  0  0  0  0  0  0  0
    8.3402    2.5620   -0.8115 C   0  0  0  0  0  0  0  0  0  0  0  0
    7.1329    1.9096   -0.9880 C   0  0  0  0  0  0  0  0  0  0  0  0
   -1.9659   -0.6301   -0.7660 C   0  0  0  0  0  0  0  0  0  0  0  0
   -1.4188    0.0955   -1.7698 O   0  0  0  0  0  0  0  0  0  0  0  0
   -3.2804   -0.2226   -0.5592 N   0  0  0  0  0  0  0  0  0  0  0  0
   -4.2048   -0.5584    0.4704 C   0  0  0  0  0  0  0  0  0  0  0  0
   -4.8397    0.6765    1.1507 C   0  0  0  0  0  0  0  0  0  0  0  0
   -5.1562    1.6951    0.1991 N   0  0  0  0  0  0  0  0  0  0  0  0
   -5.1154    1.3338   -1.1924 C   0  0  0  0  0  0  0  0  0  0  0  0
   -3.8578    0.6813   -1.6083 C   0  0  0  0  0  0  0  0  0  0  0  0
   -5.4926    2.9961    0.5928 C   0  0  0  0  0  0  0  0  0  0  0  0
   -5.8287    4.0865   -0.3620 C   0  0  0  0  0  0  0  0  0  0  0  0
   -5.5081    3.2471    1.8474 O   0  0  0  0  0  0  0  0  0  0  0  0
   -2.3114   -3.8346   -1.3997 H   0  0  0  0  0  0  0  0  0  0  0  0
   -0.9691   -4.6350   -0.5514 H   0  0  0  0  0  0  0  0  0  0  0  0
   -2.6126   -5.3628   -0.3968 H   0  0  0  0  0  0  0  0  0  0  0  0
   -3.2600   -3.3029    0.8256 H   0  0  0  0  0  0  0  0  0  0  0  0
   -2.7044   -5.3985    1.8859 H   0  0  0  0  0  0  0  0  0  0  0  0
   -0.9611   -5.1214    1.6646 H   0  0  0  0  0  0  0  0  0  0  0  0
   -1.8150   -4.1047    2.8589 H   0  0  0  0  0  0  0  0  0  0  0  0
   -1.0879   -2.0734    1.8478 H   0  0  0  0  0  0  0  0  0  0  0  0
   -0.1773   -3.1454    0.8104 H   0  0  0  0  0  0  0  0  0  0  0  0
   -0.6701   -2.1819   -1.1871 H   0  0  0  0  0  0  0  0  0  0  0  0
    0.2128   -0.1568    0.8683 H   0  0  0  0  0  0  0  0  0  0  0  0
    1.9148    0.8306    1.1050 H   0  0  0  0  0  0  0  0  0  0  0  0
    4.0434    1.9804    1.4620 H   0  0  0  0  0  0  0  0  0  0  0  0
    5.7409   -0.2120   -1.7901 H   0  0  0  0  0  0  0  0  0  0  0  0
    3.6616   -1.3532   -2.1590 H   0  0  0  0  0  0  0  0  0  0  0  0
    6.0992    1.8776    2.1967 H   0  0  0  0  0  0  0  0  0  0  0  0
    8.2280    3.0254    2.4915 H   0  0  0  0  0  0  0  0  0  0  0  0
    9.6776    3.4798    0.6222 H   0  0  0  0  0  0  0  0  0  0  0  0
    9.0023    2.7702   -1.6576 H   0  0  0  0  0  0  0  0  0  0  0  0
    6.8972    1.6265   -2.0076 H   0  0  0  0  0  0  0  0  0  0  0  0
   -5.0606   -1.1469    0.0940 H   0  0  0  0  0  0  0  0  0  0  0  0
   -3.6987   -1.0512    1.3576 H   0  0  0  0  0  0  0  0  0  0  0  0
   -4.1922    1.0625    1.9495 H   0  0  0  0  0  0  0  0  0  0  0  0
   -5.8186    0.3548    1.6124 H   0  0  0  0  0  0  0  0  0  0  0  0
   -5.9585    0.5946   -1.3406 H   0  0  0  0  0  0  0  0  0  0  0  0
   -5.4006    2.1938   -1.8420 H   0  0  0  0  0  0  0  0  0  0  0  0
   -3.9751    0.0596   -2.5423 H   0  0  0  0  0  0  0  0  0  0  0  0
   -3.1009    1.4523   -1.8513 H   0  0  0  0  0  0  0  0  0  0  0  0
   -6.8097    3.9629   -0.8338 H   0  0  0  0  0  0  0  0  0  0  0  0
   -5.7872    5.0406    0.1699 H   0  0  0  0  0  0  0  0  0  0  0  0
   -5.0198    4.0698   -1.1505 H   0  0  0  0  0  0  0  0  0  0  0  0
  1  2  1  0
  2  3  1  0
  2  4  1  0
  4  5  1  0
  5  6  1  0
  6  7  1  0
  7  8  2  0
  7  9  1  0
  9 10  2  0
 10 11  1  0
 11 12  2  0
 12 13  1  0
 13 14  2  0
 12 15  1  0
 15 16  2  0
 16 17  1  0
 17 18  2  0
 18 19  1  0
 19 20  2  0
  5 21  1  0
 21 22  2  0
 21 23  1  0
 23 24  1  0
 24 25  1  0
 25 26  1  0
 26 27  1  0
 27 28  1  0
 26 29  1  0
 29 30  1  0
 29 31  2  0
 14  9  1  0
 20 15  1  0
 28 23  1  0
  1 32  1  0
  1 33  1  0
  1 34  1  0
  2 35  1  0
  3 36  1  0
  3 37  1  0
  3 38  1  0
  4 39  1  0
  4 40  1  0
  5 41  1  6
  6 42  1  0
 10 43  1  0
 11 44  1  0
 13 45  1  0
 14 46  1  0
 16 47  1  0
 17 48  1  0
 18 49  1  0
 19 50  1  0
 20 51  1  0
 24 52  1  0
 24 53  1  0
 25 54  1  0
 25 55  1  0
 27 56  1  0
 27 57  1  0
 28 58  1  0
 28 59  1  0
 30 60  1  0
 30 61  1  0
 30 62  1  0
M  END
$$$$
[H]c1c([H])c([H])c(-c2c([H])c([H])c(C(=O)N([H])C3([H])C([H])([H])C([H])([H])N(C(=O)c4c([H])c(OC([H])([H])[H])c(OC([H])([H])[H])c(OC([H])([H])[H])c4[H])C([H])([H])C3([H])[H])c([H])c2[H])c([H])c1[H]
     RDKit          3D

 65 68  0  0  0  0  0  0  0  0999 V2000
    5.1004    0.6107   -3.2739 C   0  0  0  0  0  0  0  0  0  0  0  0
    5.9865    1.1390   -2.3209 O   0  0  0  0  0  0  0  0  0  0  0  0
    5.8757    0.8170   -0.9839 C   0  0  0  0  0  0  0  0  0  0  0  0
    4.8481   -0.0550   -0.6043 C   0  0  0  0  0  0  0  0  0  0  0  0
    4.6497   -0.4366    0.6861 C   0  0  0  0  0  0  0  0  0  0  0  0
    5.5384    0.0915    1.6298 C   0  0  0  0  0  0  0  0  0  0  0  0
    6.5541    0.9427    1.3126 C   0  0  0  0  0  0  0  0  0  0  0  0
    7.4292    1.4589    2.2661 O   0  0  0  0  0  0  0  0  0  0  0  0
    7.2290    1.0672    3.6104 C   0  0  0  0  0  0  0  0  0  0  0  0
    6.6994    1.2902   -0.0098 C   0  0  0  0  0  0  0  0  0  0  0  0
    7.7203    2.1597   -0.3997 O   0  0  0  0  0  0  0  0  0  0  0  0
    7.4713    3.5557   -0.4244 C   0  0  0  0  0  0  0  0  0  0  0  0
    3.5843   -1.2911    1.1518 C   0  0  0  0  0  0  0  0  0  0  0  0
    3.7075   -1.6567    2.4077 O   0  0  0  0  0  0  0  0  0  0  0  0
    2.4597   -1.7741    0.4705 N   0  0  0  0  0  0  0  0  0  0  0  0
    2.0218   -1.5350   -0.8718 C   0  0  0  0  0  0  0  0  0  0  0  0
    0.5623   -2.0212   -1.0370 C   0  0  0  0  0  0  0  0  0  0  0  0
   -0.1925   -1.3698    0.0842 C   0  0  0  0  0  0  0  0  0  0  0  0
    0.1833   -2.1116    1.3543 C   0  0  0  0  0  0  0  0  0  0  0  0
    1.5542   -2.7052    1.2230 C   0  0  0  0  0  0  0  0  0  0  0  0
   -1.6217   -1.3530   -0.0884 N   0  0  0  0  0  0  0  0  0  0  0  0
   -2.3175   -0.1374   -0.0528 C   0  0  0  0  0  0  0  0  0  0  0  0
   -1.6734    0.9312    0.1344 O   0  0  0  0  0  0  0  0  0  0  0  0
   -3.7707   -0.0355   -0.2230 C   0  0  0  0  0  0  0  0  0  0  0  0
   -4.5478   -1.1104   -0.5923 C   0  0  0  0  0  0  0  0  0  0  0  0
   -5.9344   -0.9736   -0.7441 C   0  0  0  0  0  0  0  0  0  0  0  0
   -6.5656    0.2335   -0.5306 C   0  0  0  0  0  0  0  0  0  0  0  0
   -5.7786    1.3012   -0.1615 C   0  0  0  0  0  0  0  0  0  0  0  0
   -4.4159    1.1730   -0.0109 C   0  0  0  0  0  0  0  0  0  0  0  0
   -8.0238    0.3837   -0.6919 C   0  0  0  0  0  0  0  0  0  0  0  0
   -8.9007   -0.6440   -0.4283 C   0  0  0  0  0  0  0  0  0  0  0  0
  -10.2625   -0.4635   -0.5910 C   0  0  0  0  0  0  0  0  0  0  0  0
  -10.7865    0.7473   -1.0216 C   0  0  0  0  0  0  0  0  0  0  0  0
   -9.9203    1.7841   -1.2888 C   0  0  0  0  0  0  0  0  0  0  0  0
   -8.5686    1.5843   -1.1205 C   0  0  0  0  0  0  0  0  0  0  0  0
    5.0627   -0.5154   -3.2480 H   0  0  0  0  0  0  0  0  0  0  0  0
    4.0480    0.9464   -3.1057 H   0  0  0  0  0  0  0  0  0  0  0  0
    5.4590    0.9470   -4.2943 H   0  0  0  0  0  0  0  0  0  0  0  0
    4.2241   -0.4377   -1.3955 H   0  0  0  0  0  0  0  0  0  0  0  0
    5.4171   -0.1879    2.6837 H   0  0  0  0  0  0  0  0  0  0  0  0
    7.9850    1.4919    4.2878 H   0  0  0  0  0  0  0  0  0  0  0  0
    7.2486   -0.0595    3.6983 H   0  0  0  0  0  0  0  0  0  0  0  0
    6.2274    1.4391    3.9409 H   0  0  0  0  0  0  0  0  0  0  0  0
    8.4042    4.1527   -0.2997 H   0  0  0  0  0  0  0  0  0  0  0  0
    6.9913    3.9003   -1.3498 H   0  0  0  0  0  0  0  0  0  0  0  0
    6.8059    3.8702    0.4122 H   0  0  0  0  0  0  0  0  0  0  0  0
    2.0021   -0.4386   -1.0784 H   0  0  0  0  0  0  0  0  0  0  0  0
    2.5970   -2.1135   -1.5854 H   0  0  0  0  0  0  0  0  0  0  0  0
    0.1900   -1.7104   -2.0415 H   0  0  0  0  0  0  0  0  0  0  0  0
    0.4819   -3.1081   -1.0121 H   0  0  0  0  0  0  0  0  0  0  0  0
    0.1920   -0.3287    0.1805 H   0  0  0  0  0  0  0  0  0  0  0  0
    0.2213   -1.3739    2.1886 H   0  0  0  0  0  0  0  0  0  0  0  0
   -0.5949   -2.8529    1.5603 H   0  0  0  0  0  0  0  0  0  0  0  0
    2.0035   -2.9254    2.2234 H   0  0  0  0  0  0  0  0  0  0  0  0
    1.5216   -3.6183    0.6086 H   0  0  0  0  0  0  0  0  0  0  0  0
   -2.1582   -2.2571   -0.2441 H   0  0  0  0  0  0  0  0  0  0  0  0
   -4.1002   -2.0757   -0.7719 H   0  0  0  0  0  0  0  0  0  0  0  0
   -6.5551   -1.8238   -1.0384 H   0  0  0  0  0  0  0  0  0  0  0  0
   -6.2909    2.2597    0.0069 H   0  0  0  0  0  0  0  0  0  0  0  0
   -3.8270    2.0269    0.2791 H   0  0  0  0  0  0  0  0  0  0  0  0
   -8.4887   -1.5912   -0.0921 H   0  0  0  0  0  0  0  0  0  0  0  0
  -10.9497   -1.2731   -0.3825 H   0  0  0  0  0  0  0  0  0  0  0  0
  -11.8598    0.8927   -1.1509 H   0  0  0  0  0  0  0  0  0  0  0  0
  -10.2746    2.7622   -1.6334 H   0  0  0  0  0  0  0  0  0  0  0  0
   -7.8787    2.4050   -1.3305 H   0  0  0  0  0  0  0  0  0  0  0  0
  1  2  1  0
  2  3  1  0
  3  4  2  0
  4  5  1  0
  5  6  2  0
  6  7  1  0
  7  8  1  0
  8  9  1  0
  7 10  2  0
 10 11  1  0
 11 12  1  0
  5 13  1  0
 13 14  2  0
 13 15  1  0
 15 16  1  0
 16 17  1  0
 17 18  1  0
 18 19  1  0
 19 20  1  0
 18 21  1  0
 21 22  1  0
 22 23  2  0
 22 24  1  0
 24 25  2  0
 25 26  1  0
 26 27  2  0
 27 28  1  0
 28 29  2  0
 27 30  1  0
 30 31  2  0
 31 32  1  0
 32 33  2  0
 33 34  1  0
 34 35  2  0
 10  3  1  0
 20 15  1  0
 29 24  1  0
 35 30  1  0
  1 36  1  0
  1 37  1  0
  1 38  1  0
  4 39  1  0
  6 40  1  0
  9 41  1  0
  9 42  1  0
  9 43  1  0
 12 44  1  0
 12 45  1  0
 12 46  1  0
 16 47  1  0
 16 48  1  0
 17 49  1  0
 17 50  1  0
 18 51  1  0
 19 52  1  0
 19 53  1  0
 20 54  1  0
 20 55  1  0
 21 56  1  0
 25 57  1  0
 26 58  1  0
 28 59  1  0
 29 60  1  0
 31 61  1  0
 32 62  1  0
 33 63  1  0
 34 64  1  0
 35 65  1  0
M  END
$$$$
[H]c1c([H])c([H])c(-c2c([H])c([H])c(C(=O)N([H])[C@]([H])(C(=O)N3C([H])([H])C([H])([H])C([H])(N(C([H])([H])[H])C([H])([H])[H])C([H])([H])C3([H])[H])C([H])([H])C([H])(C([H])([H])[H])C([H])([H])[H])c([H])c2[H])c([H])c1[H]
     RDKit          3D

 66 68  0  0  0  0  0  0  0  0999 V2000
    1.2970    3.6145   -0.6807 C   0  0  0  0  0  0  0  0  0  0  0  0
    0.8059    2.8641    0.5437 C   0  0  0  0  0  0  0  0  0  0  0  0
   -0.6269    3.1622    0.7617 C   0  0  0  0  0  0  0  0  0  0  0  0
    1.2479    1.4464    0.5615 C   0  0  0  0  0  0  0  0  0  0  0  0
    0.8130    0.5950   -0.5941 C   0  0  2  0  0  0  0  0  0  0  0  0
   -0.6151    0.4619   -0.6930 N   0  0  0  0  0  0  0  0  0  0  0  0
   -1.4942   -0.0633    0.2722 C   0  0  0  0  0  0  0  0  0  0  0  0
   -1.0463   -0.4699    1.3681 O   0  0  0  0  0  0  0  0  0  0  0  0
   -2.9219   -0.1608    0.0615 C   0  0  0  0  0  0  0  0  0  0  0  0
   -3.4808   -0.0912   -1.1862 C   0  0  0  0  0  0  0  0  0  0  0  0
   -4.8572   -0.1741   -1.3885 C   0  0  0  0  0  0  0  0  0  0  0  0
   -5.6563   -0.3304   -0.2864 C   0  0  0  0  0  0  0  0  0  0  0  0
   -5.1474   -0.4062    0.9874 C   0  0  0  0  0  0  0  0  0  0  0  0
   -3.7657   -0.3179    1.1324 C   0  0  0  0  0  0  0  0  0  0  0  0
   -7.0977   -0.4211   -0.4756 C   0  0  0  0  0  0  0  0  0  0  0  0
   -7.5551   -1.0111   -1.6516 C   0  0  0  0  0  0  0  0  0  0  0  0
   -8.8966   -1.1101   -1.8615 C   0  0  0  0  0  0  0  0  0  0  0  0
   -9.7981   -0.6334   -0.9249 C   0  0  0  0  0  0  0  0  0  0  0  0
   -9.3501   -0.0505    0.2368 C   0  0  0  0  0  0  0  0  0  0  0  0
   -8.0013    0.0489    0.4484 C   0  0  0  0  0  0  0  0  0  0  0  0
    1.5014   -0.7090   -0.5617 C   0  0  0  0  0  0  0  0  0  0  0  0
    0.7471   -1.7213   -0.3753 O   0  0  0  0  0  0  0  0  0  0  0  0
    2.8845   -0.9372   -0.7166 N   0  0  0  0  0  0  0  0  0  0  0  0
    3.3828   -2.3286   -0.5485 C   0  0  0  0  0  0  0  0  0  0  0  0
    4.3439   -2.2113    0.6404 C   0  0  0  0  0  0  0  0  0  0  0  0
    5.5216   -1.3478    0.2871 C   0  0  0  0  0  0  0  0  0  0  0  0
    5.0271    0.0448   -0.0564 C   0  0  0  0  0  0  0  0  0  0  0  0
    3.9036   -0.0035   -1.0663 C   0  0  0  0  0  0  0  0  0  0  0  0
    6.3650   -1.1883    1.4587 N   0  0  0  0  0  0  0  0  0  0  0  0
    6.9032   -2.4548    1.9134 C   0  0  0  0  0  0  0  0  0  0  0  0
    7.5016   -0.3288    1.1798 C   0  0  0  0  0  0  0  0  0  0  0  0
    2.2219    3.1602   -1.0594 H   0  0  0  0  0  0  0  0  0  0  0  0
    1.3987    4.6771   -0.4013 H   0  0  0  0  0  0  0  0  0  0  0  0
    0.4889    3.5363   -1.4483 H   0  0  0  0  0  0  0  0  0  0  0  0
    1.3744    3.3609    1.4056 H   0  0  0  0  0  0  0  0  0  0  0  0
   -1.0288    2.6420    1.6642 H   0  0  0  0  0  0  0  0  0  0  0  0
   -0.6789    4.2615    1.0576 H   0  0  0  0  0  0  0  0  0  0  0  0
   -1.2657    2.9905   -0.1070 H   0  0  0  0  0  0  0  0  0  0  0  0
    0.8810    0.9752    1.5280 H   0  0  0  0  0  0  0  0  0  0  0  0
    2.3451    1.4416    0.6843 H   0  0  0  0  0  0  0  0  0  0  0  0
    1.1665    1.0906   -1.5462 H   0  0  0  0  0  0  0  0  0  0  0  0
   -1.0894    0.7956   -1.5927 H   0  0  0  0  0  0  0  0  0  0  0  0
   -2.8562    0.0266   -2.0576 H   0  0  0  0  0  0  0  0  0  0  0  0
   -5.2507   -0.1153   -2.3891 H   0  0  0  0  0  0  0  0  0  0  0  0
   -5.7557   -0.5291    1.8747 H   0  0  0  0  0  0  0  0  0  0  0  0
   -3.3656   -0.3769    2.1277 H   0  0  0  0  0  0  0  0  0  0  0  0
   -6.8528   -1.3809   -2.3769 H   0  0  0  0  0  0  0  0  0  0  0  0
   -9.2858   -1.5689   -2.7752 H   0  0  0  0  0  0  0  0  0  0  0  0
  -10.8670   -0.7406   -1.1497 H   0  0  0  0  0  0  0  0  0  0  0  0
  -10.0579    0.3199    0.9648 H   0  0  0  0  0  0  0  0  0  0  0  0
   -7.6397    0.5081    1.3646 H   0  0  0  0  0  0  0  0  0  0  0  0
    3.8676   -2.6846   -1.4583 H   0  0  0  0  0  0  0  0  0  0  0  0
    2.5610   -2.9922   -0.2148 H   0  0  0  0  0  0  0  0  0  0  0  0
    4.6337   -3.1973    1.0072 H   0  0  0  0  0  0  0  0  0  0  0  0
    3.7508   -1.6308    1.4065 H   0  0  0  0  0  0  0  0  0  0  0  0
    6.1017   -1.7185   -0.5767 H   0  0  0  0  0  0  0  0  0  0  0  0
    4.7559    0.5773    0.8674 H   0  0  0  0  0  0  0  0  0  0  0  0
    5.8569    0.6188   -0.5317 H   0  0  0  0  0  0  0  0  0  0  0  0
    4.3529   -0.3460   -2.0412 H   0  0  0  0  0  0  0  0  0  0  0  0
    3.4979    0.9942   -1.2164 H   0  0  0  0  0  0  0  0  0  0  0  0
    7.7052   -2.1944    2.6559 H   0  0  0  0  0  0  0  0  0  0  0  0
    6.1706   -3.0587    2.4613 H   0  0  0  0  0  0  0  0  0  0  0  0
    7.4048   -2.9496    1.0844 H   0  0  0  0  0  0  0  0  0  0  0  0
    7.6556   -0.1114    0.1240 H   0  0  0  0  0  0  0  0  0  0  0  0
    8.4607   -0.7778    1.5564 H   0  0  0  0  0  0  0  0  0  0  0  0
    7.4071    0.6292    1.7689 H   0  0  0  0  0  0  0  0  0  0  0  0
  1  2  1  0
  2  3  1  0
  2  4  1  0
  4  5  1  0
  5  6  1  0
  6  7  1  0
  7  8  2  0
  7  9  1  0
  9 10  2  0
 10 11  1  0
 11 12  2  0
 12 13  1  0
 13 14  2  0
 12 15  1  0
 15 16  2  0
 16 17  1  0
 17 18  2  0
 18 19  1  0
 19 20  2  0
  5 21  1  0
 21 22  2  0
 21 23  1  0
 23 24  1  0
 24 25  1  0
 25 26  1  0
 26 27  1  0
 27 28  1  0
 26 29  1  0
 29 30  1  0
 29 31  1  0
 14  9  1  0
 20 15  1  0
 28 23  1  0
  1 32  1  0
  1 33  1  0
  1 34  1  0
  2 35  1  0
  3 36  1  0
  3 37  1  0
  3 38  1  0
  4 39  1  0
  4 40  1  0
  5 41  1  6
  6 42  1  0
 10 43  1  0
 11 44  1  0
 13 45  1  0
 14 46  1  0
 16 47  1  0
 17 48  1  0
 18 49  1  0
 19 50  1  0
 20 51  1  0
 24 52  1  0
 24 53  1  0
 25 54  1  0
 25 55  1  0
 26 56  1  0
 27 57  1  0
 27 58  1  0
 28 59  1  0
 28 60  1  0
 30 61  1  0
 30 62  1  0
 30 63  1  0
 31 64  1  0
 31 65  1  0
 31 66  1  0
M  END
$$$$
[H]c1c([H])c([H])c(C(=O)N2C([H])([H])C([H])([H])N(C(=O)[C@@]([H])(N([H])C(=O)c3c([H])c([H])c(-c4c([H])c([H])c([H])c([H])c4[H])c([H])c3[H])C([H])([H])C([H])(C([H])([H])[H])C([H])([H])[H])C([H])([H])C2([H])[H])c([H])c1[H]
     RDKit          3D

 69 72  0  0  0  0  0  0  0  0999 V2000
    0.7880   -2.7781    0.1660 C   0  0  0  0  0  0  0  0  0  0  0  0
   -0.0115   -2.2950    1.3171 C   0  0  0  0  0  0  0  0  0  0  0  0
    0.3804   -3.1652    2.5236 C   0  0  0  0  0  0  0  0  0  0  0  0
    0.2077   -0.8843    1.7306 C   0  0  0  0  0  0  0  0  0  0  0  0
   -0.0862    0.1707    0.7172 C   0  0  2  0  0  0  0  0  0  0  0  0
   -1.5070    0.0655    0.3124 N   0  0  0  0  0  0  0  0  0  0  0  0
   -2.4081    1.0937    0.5863 C   0  0  0  0  0  0  0  0  0  0  0  0
   -1.9762    2.1334    1.1950 O   0  0  0  0  0  0  0  0  0  0  0  0
   -3.8204    1.0625    0.2230 C   0  0  0  0  0  0  0  0  0  0  0  0
   -4.6223    2.1710    0.4034 C   0  0  0  0  0  0  0  0  0  0  0  0
   -5.9595    2.1466    0.0669 C   0  0  0  0  0  0  0  0  0  0  0  0
   -6.5805    1.0317   -0.4650 C   0  0  0  0  0  0  0  0  0  0  0  0
   -5.7733   -0.0736   -0.6431 C   0  0  0  0  0  0  0  0  0  0  0  0
   -4.4329   -0.0519   -0.3066 C   0  0  0  0  0  0  0  0  0  0  0  0
   -7.9978    1.0330   -0.8113 C   0  0  0  0  0  0  0  0  0  0  0  0
   -8.5669    2.2188   -1.2458 C   0  0  0  0  0  0  0  0  0  0  0  0
   -9.8994    2.3026   -1.5894 C   0  0  0  0  0  0  0  0  0  0  0  0
  -10.6910    1.1805   -1.5005 C   0  0  0  0  0  0  0  0  0  0  0  0
  -10.1752   -0.0239   -1.0745 C   0  0  0  0  0  0  0  0  0  0  0  0
   -8.8314   -0.0564   -0.7407 C   0  0  0  0  0  0  0  0  0  0  0  0
    0.7886    0.2488   -0.4176 C   0  0  0  0  0  0  0  0  0  0  0  0
    0.3276    0.0245   -1.5979 O   0  0  0  0  0  0  0  0  0  0  0  0
    2.1556    0.5663   -0.3677 N   0  0  0  0  0  0  0  0  0  0  0  0
    2.8108    0.8704    0.8821 C   0  0  0  0  0  0  0  0  0  0  0  0
    3.9998    1.8029    0.5627 C   0  0  0  0  0  0  0  0  0  0  0  0
    4.9588    0.8557   -0.1005 N   0  0  0  0  0  0  0  0  0  0  0  0
    4.4017    0.1366   -1.1741 C   0  0  0  0  0  0  0  0  0  0  0  0
    2.9886    0.6272   -1.5631 C   0  0  0  0  0  0  0  0  0  0  0  0
    6.2362    0.8413    0.4110 C   0  0  0  0  0  0  0  0  0  0  0  0
    6.4792    1.6947    1.4084 O   0  0  0  0  0  0  0  0  0  0  0  0
    7.3732    0.0447    0.0403 C   0  0  0  0  0  0  0  0  0  0  0  0
    7.3326   -0.9874   -0.8470 C   0  0  0  0  0  0  0  0  0  0  0  0
    8.5036   -1.6979   -1.1804 C   0  0  0  0  0  0  0  0  0  0  0  0
    9.7064   -1.3879   -0.6366 C   0  0  0  0  0  0  0  0  0  0  0  0
    9.7813   -0.3552    0.2605 C   0  0  0  0  0  0  0  0  0  0  0  0
    8.6441    0.3390    0.5870 C   0  0  0  0  0  0  0  0  0  0  0  0
    0.1790   -2.7005   -0.7822 H   0  0  0  0  0  0  0  0  0  0  0  0
    0.8742   -3.9106    0.2923 H   0  0  0  0  0  0  0  0  0  0  0  0
    1.7962   -2.3666    0.0801 H   0  0  0  0  0  0  0  0  0  0  0  0
   -1.0817   -2.5424    1.1332 H   0  0  0  0  0  0  0  0  0  0  0  0
   -0.4773   -3.2890    3.2185 H   0  0  0  0  0  0  0  0  0  0  0  0
    0.6195   -4.2102    2.1772 H   0  0  0  0  0  0  0  0  0  0  0  0
    1.2622   -2.7698    3.0367 H   0  0  0  0  0  0  0  0  0  0  0  0
    1.2491   -0.7973    2.0735 H   0  0  0  0  0  0  0  0  0  0  0  0
   -0.3962   -0.7161    2.6743 H   0  0  0  0  0  0  0  0  0  0  0  0
   -0.0281    1.1663    1.2542 H   0  0  0  0  0  0  0  0  0  0  0  0
   -1.7891   -0.7980   -0.1765 H   0  0  0  0  0  0  0  0  0  0  0  0
   -4.1556    3.0657    0.8224 H   0  0  0  0  0  0  0  0  0  0  0  0
   -6.5807    3.0415    0.2203 H   0  0  0  0  0  0  0  0  0  0  0  0
   -6.2442   -0.9706   -1.0638 H   0  0  0  0  0  0  0  0  0  0  0  0
   -3.8057   -0.9449   -0.4553 H   0  0  0  0  0  0  0  0  0  0  0  0
   -7.9626    3.1352   -1.3289 H   0  0  0  0  0  0  0  0  0  0  0  0
  -10.3525    3.2155   -1.9270 H   0  0  0  0  0  0  0  0  0  0  0  0
  -11.7581    1.1846   -1.7592 H   0  0  0  0  0  0  0  0  0  0  0  0
  -10.8088   -0.9010   -1.0081 H   0  0  0  0  0  0  0  0  0  0  0  0
   -8.4070   -0.9976   -0.4027 H   0  0  0  0  0  0  0  0  0  0  0  0
    3.3053   -0.0581    1.2938 H   0  0  0  0  0  0  0  0  0  0  0  0
    2.1538    1.3696    1.6155 H   0  0  0  0  0  0  0  0  0  0  0  0
    3.6530    2.5404   -0.1711 H   0  0  0  0  0  0  0  0  0  0  0  0
    4.4139    2.2319    1.4634 H   0  0  0  0  0  0  0  0  0  0  0  0
    4.2364   -0.9186   -0.8928 H   0  0  0  0  0  0  0  0  0  0  0  0
    5.0433    0.2159   -2.0978 H   0  0  0  0  0  0  0  0  0  0  0  0
    2.6317   -0.0905   -2.3239 H   0  0  0  0  0  0  0  0  0  0  0  0
    3.0639    1.6448   -1.9624 H   0  0  0  0  0  0  0  0  0  0  0  0
    6.4440   -1.3414   -1.3250 H   0  0  0  0  0  0  0  0  0  0  0  0
    8.4075   -2.5143   -1.8981 H   0  0  0  0  0  0  0  0  0  0  0  0
   10.5956   -1.9543   -0.9123 H   0  0  0  0  0  0  0  0  0  0  0  0
   10.7328   -0.0902    0.7078 H   0  0  0  0  0  0  0  0  0  0  0  0
    8.6621    1.1650    1.2924 H   0  0  0  0  0  0  0  0  0  0  0  0
  1  2  1  0
  2  3  1  0
  2  4  1  0
  4  5  1  0
  5  6  1  0
  6  7  1  0
  7  8  2  0
  7  9  1  0
  9 10  2  0
 10 11  1  0
 11 12  2  0
 12 13  1  0
 13 14  2  0
 12 15  1  0
 15 16  2  0
 16 17  1  0
 17 18  2  0
 18 19  1  0
 19 20  2  0
  5 21  1  0
 21 22  2  0
 21 23  1  0
 23 24  1  0
 24 25  1  0
 25 26  1  0
 26 27  1  0
 27 28  1  0
 26 29  1  0
 29 30  2  0
 29 31  1  0
 31 32  2  0
 32 33  1  0
 33 34  2  0
 34 35  1  0
 35 36  2  0
 14  9  1  0
 20 15  1  0
 28 23  1  0
 36 31  1  0
  1 37  1  0
  1 38  1  0
  1 39  1  0
  2 40  1  0
  3 41  1  0
  3 42  1  0
  3 43  1  0
  4 44  1  0
  4 45  1  0
  5 46  1  1
  6 47  1  0
 10 48  1  0
 11 49  1  0
 13 50  1  0
 14 51  1  0
 16 52  1  0
 17 53  1  0
 18 54  1  0
 19 55  1  0
 20 56  1  0
 24 57  1  0
 24 58  1  0
 25 59  1  0
 25 60  1  0
 27 61  1  0
 27 62  1  0
 28 63  1  0
 28 64  1  0
 32 65  1  0
 33 66  1  0
 34 67  1  0
 35 68  1  0
 36 69  1  0
M  END
$$$$
[H]c1c([H])c([H])c(-c2c([H])c([H])c(C(=O)N3C([H])([H])C([H])([H])N(c4c([H])c([H])c([H])c([H])c4[H])C([H])([H])[C@@]3([H])C([H])([H])[H])c([H])c2[H])c([H])c1[H]
     RDKit          3D

 51 54  0  0  0  0  0  0  0  0999 V2000
    1.4805   -3.3189    1.0767 C   0  0  0  0  0  0  0  0  0  0  0  0
    1.6984   -1.8452    0.7910 C   0  0  2  0  0  0  0  0  0  0  0  0
    3.2316   -1.6005    0.6655 C   0  0  0  0  0  0  0  0  0  0  0  0
    3.4869   -0.2465    1.0274 N   0  0  0  0  0  0  0  0  0  0  0  0
    3.2825    0.1507    2.4339 C   0  0  0  0  0  0  0  0  0  0  0  0
    2.2424   -0.8155    2.9551 C   0  0  0  0  0  0  0  0  0  0  0  0
    1.2542   -0.9811    1.8366 N   0  0  0  0  0  0  0  0  0  0  0  0
    0.0782   -0.2810    2.0130 C   0  0  0  0  0  0  0  0  0  0  0  0
    0.0210    0.4647    3.1047 O   0  0  0  0  0  0  0  0  0  0  0  0
   -1.1027   -0.2138    1.2175 C   0  0  0  0  0  0  0  0  0  0  0  0
   -1.4292   -0.9810    0.1278 C   0  0  0  0  0  0  0  0  0  0  0  0
   -2.6014   -0.8059   -0.6199 C   0  0  0  0  0  0  0  0  0  0  0  0
   -3.5179    0.1613   -0.3052 C   0  0  0  0  0  0  0  0  0  0  0  0
   -3.2111    0.9397    0.7832 C   0  0  0  0  0  0  0  0  0  0  0  0
   -2.0703    0.7790    1.5202 C   0  0  0  0  0  0  0  0  0  0  0  0
   -4.7334    0.3367   -1.0856 C   0  0  0  0  0  0  0  0  0  0  0  0
   -5.9074    0.7890   -0.5239 C   0  0  0  0  0  0  0  0  0  0  0  0
   -7.0166    0.9336   -1.3038 C   0  0  0  0  0  0  0  0  0  0  0  0
   -6.9343    0.6174   -2.6616 C   0  0  0  0  0  0  0  0  0  0  0  0
   -5.7759    0.1668   -3.2362 C   0  0  0  0  0  0  0  0  0  0  0  0
   -4.6684    0.0286   -2.4291 C   0  0  0  0  0  0  0  0  0  0  0  0
    3.9173    0.7402    0.1180 C   0  0  0  0  0  0  0  0  0  0  0  0
    4.3131    1.9893    0.5875 C   0  0  0  0  0  0  0  0  0  0  0  0
    4.7379    2.9992   -0.2437 C   0  0  0  0  0  0  0  0  0  0  0  0
    4.7585    2.7219   -1.6000 C   0  0  0  0  0  0  0  0  0  0  0  0
    4.3740    1.5039   -2.0738 C   0  0  0  0  0  0  0  0  0  0  0  0
    3.9458    0.4867   -1.2339 C   0  0  0  0  0  0  0  0  0  0  0  0
    2.4180   -3.8652    1.2478 H   0  0  0  0  0  0  0  0  0  0  0  0
    0.9981   -3.7648    0.1766 H   0  0  0  0  0  0  0  0  0  0  0  0
    0.7960   -3.4967    1.9237 H   0  0  0  0  0  0  0  0  0  0  0  0
    1.3289   -1.5641   -0.1806 H   0  0  0  0  0  0  0  0  0  0  0  0
    3.6680   -2.2539    1.4781 H   0  0  0  0  0  0  0  0  0  0  0  0
    3.5793   -1.9231   -0.3127 H   0  0  0  0  0  0  0  0  0  0  0  0
    4.2099    0.1710    3.0003 H   0  0  0  0  0  0  0  0  0  0  0  0
    2.7896    1.1473    2.4320 H   0  0  0  0  0  0  0  0  0  0  0  0
    2.6318   -1.8081    3.1532 H   0  0  0  0  0  0  0  0  0  0  0  0
    1.7198   -0.4630    3.8535 H   0  0  0  0  0  0  0  0  0  0  0  0
   -0.7735   -1.7787   -0.1636 H   0  0  0  0  0  0  0  0  0  0  0  0
   -2.7667   -1.4587   -1.4590 H   0  0  0  0  0  0  0  0  0  0  0  0
   -3.8973    1.7200    1.0803 H   0  0  0  0  0  0  0  0  0  0  0  0
   -1.8576    1.4097    2.3701 H   0  0  0  0  0  0  0  0  0  0  0  0
   -5.9332    1.0195    0.5108 H   0  0  0  0  0  0  0  0  0  0  0  0
   -7.9606    1.2773   -0.9457 H   0  0  0  0  0  0  0  0  0  0  0  0
   -7.8120    0.7288   -3.2916 H   0  0  0  0  0  0  0  0  0  0  0  0
   -5.7380   -0.0716   -4.2911 H   0  0  0  0  0  0  0  0  0  0  0  0
   -3.7519   -0.3271   -2.8791 H   0  0  0  0  0  0  0  0  0  0  0  0
    4.3094    2.2395    1.6509 H   0  0  0  0  0  0  0  0  0  0  0  0
    5.0453    3.9746    0.1383 H   0  0  0  0  0  0  0  0  0  0  0  0
    5.0983    3.5286   -2.2634 H   0  0  0  0  0  0  0  0  0  0  0  0
    4.4007    1.3169   -3.1359 H   0  0  0  0  0  0  0  0  0  0  0  0
    3.6439   -0.4773   -1.6740 H   0  0  0  0  0  0  0  0  0  0  0  0
  1  2  1  0
  2  3  1  0
  3  4  1  0
  4  5  1  0
  5  6  1  0
  6  7  1  0
  7  8  1  0
  8  9  2  0
  8 10  1  0
 10 11  2  0
 11 12  1  0
 12 13  2  0
 13 14  1  0
 14 15  2  0
 13 16  1  0
 16 17  2  0
 17 18  1  0
 18 19  2  0
 19 20  1  0
 20 21  2  0
  4 22  1  0
 22 23  2  0
 23 24  1  0
 24 25  2  0
 25 26  1  0
 26 27  2  0
  7  2  1  0
 15 10  1  0
 21 16  1  0
 27 22  1  0
  1 28  1  0
  1 29  1  0
  1 30  1  0
  2 31  1  6
  3 32  1  0
  3 33  1  0
  5 34  1  0
  5 35  1  0
  6 36  1  0
  6 37  1  0
 11 38  1  0
 12 39  1  0
 14 40  1  0
 15 41  1  0
 17 42  1  0
 18 43  1  0
 19 44  1  0
 20 45  1  0
 21 46  1  0
 23 47  1  0
 24 48  1  0
 25 49  1  0
 26 50  1  0
 27 51  1  0
M  END
$$$$
[H]c1c([H])c([H])c(-c2c([H])c([H])c(C(=O)N3C([H])([H])C([H])([H])N(C(=O)c4c([H])c(OC([H])([H])[H])c(OC([H])([H])[H])c(OC([H])([H])[H])c4[H])C([H])([H])C3([H])[H])c([H])c2[H])c([H])c1[H]
     RDKit          3D

 62 65  0  0  0  0  0  0  0  0999 V2000
   -2.5619    2.7162   -1.6453 C   0  0  0  0  0  0  0  0  0  0  0  0
   -3.8423    2.6038   -1.0569 O   0  0  0  0  0  0  0  0  0  0  0  0
   -4.2648    1.4720   -0.3905 C   0  0  0  0  0  0  0  0  0  0  0  0
   -3.4165    0.3572   -0.2673 C   0  0  0  0  0  0  0  0  0  0  0  0
   -3.7842   -0.7888    0.3797 C   0  0  0  0  0  0  0  0  0  0  0  0
   -5.0920   -0.7850    0.9305 C   0  0  0  0  0  0  0  0  0  0  0  0
   -5.9413    0.2822    0.8293 C   0  0  0  0  0  0  0  0  0  0  0  0
   -7.2157    0.2710    1.3725 O   0  0  0  0  0  0  0  0  0  0  0  0
   -7.6333   -0.8980    2.0525 C   0  0  0  0  0  0  0  0  0  0  0  0
   -5.5251    1.4162    0.1648 C   0  0  0  0  0  0  0  0  0  0  0  0
   -6.4081    2.4799    0.0782 O   0  0  0  0  0  0  0  0  0  0  0  0
   -6.4029    3.4678    1.0934 C   0  0  0  0  0  0  0  0  0  0  0  0
   -3.0148   -2.0038    0.5117 C   0  0  0  0  0  0  0  0  0  0  0  0
   -3.4525   -2.8903    1.3804 O   0  0  0  0  0  0  0  0  0  0  0  0
   -1.8735   -2.3778   -0.1488 N   0  0  0  0  0  0  0  0  0  0  0  0
   -1.2355   -3.6869    0.2564 C   0  0  0  0  0  0  0  0  0  0  0  0
    0.0159   -3.2970    0.9294 C   0  0  0  0  0  0  0  0  0  0  0  0
    0.7901   -2.2162    0.2717 N   0  0  0  0  0  0  0  0  0  0  0  0
    0.1671   -1.2807   -0.6021 C   0  0  0  0  0  0  0  0  0  0  0  0
   -1.1346   -1.7931   -1.2225 C   0  0  0  0  0  0  0  0  0  0  0  0
    2.1479   -2.2456    0.5317 C   0  0  0  0  0  0  0  0  0  0  0  0
    2.5267   -3.2794    1.2589 O   0  0  0  0  0  0  0  0  0  0  0  0
    3.1978   -1.3618    0.1489 C   0  0  0  0  0  0  0  0  0  0  0  0
    4.5424   -1.8090    0.2541 C   0  0  0  0  0  0  0  0  0  0  0  0
    5.5640   -0.9697   -0.0382 C   0  0  0  0  0  0  0  0  0  0  0  0
    5.3854    0.3374   -0.4460 C   0  0  0  0  0  0  0  0  0  0  0  0
    4.0843    0.7482   -0.5397 C   0  0  0  0  0  0  0  0  0  0  0  0
    2.9850   -0.0756   -0.2493 C   0  0  0  0  0  0  0  0  0  0  0  0
    6.5071    1.2091   -0.7524 C   0  0  0  0  0  0  0  0  0  0  0  0
    6.4085    2.1853   -1.6830 C   0  0  0  0  0  0  0  0  0  0  0  0
    7.4821    3.0099   -1.9673 C   0  0  0  0  0  0  0  0  0  0  0  0
    8.6486    2.8162   -1.2852 C   0  0  0  0  0  0  0  0  0  0  0  0
    8.7695    1.8340   -0.3395 C   0  0  0  0  0  0  0  0  0  0  0  0
    7.6874    1.0251   -0.0731 C   0  0  0  0  0  0  0  0  0  0  0  0
   -1.8046    2.9483   -0.8847 H   0  0  0  0  0  0  0  0  0  0  0  0
   -2.2460    1.7965   -2.1776 H   0  0  0  0  0  0  0  0  0  0  0  0
   -2.5800    3.5774   -2.3498 H   0  0  0  0  0  0  0  0  0  0  0  0
   -2.4343    0.4390   -0.6685 H   0  0  0  0  0  0  0  0  0  0  0  0
   -5.4232   -1.6861    1.4571 H   0  0  0  0  0  0  0  0  0  0  0  0
   -6.9035   -1.2011    2.8374 H   0  0  0  0  0  0  0  0  0  0  0  0
   -8.6521   -0.8062    2.4601 H   0  0  0  0  0  0  0  0  0  0  0  0
   -7.6735   -1.7699    1.3354 H   0  0  0  0  0  0  0  0  0  0  0  0
   -6.8633    3.1448    2.0273 H   0  0  0  0  0  0  0  0  0  0  0  0
   -5.3485    3.7875    1.3321 H   0  0  0  0  0  0  0  0  0  0  0  0
   -6.9130    4.4014    0.7582 H   0  0  0  0  0  0  0  0  0  0  0  0
   -1.1181   -4.2898   -0.6511 H   0  0  0  0  0  0  0  0  0  0  0  0
   -1.9451   -4.1909    0.9211 H   0  0  0  0  0  0  0  0  0  0  0  0
    0.6659   -4.1821    1.0782 H   0  0  0  0  0  0  0  0  0  0  0  0
   -0.2612   -2.8403    1.9251 H   0  0  0  0  0  0  0  0  0  0  0  0
   -0.1218   -0.3448   -0.1009 H   0  0  0  0  0  0  0  0  0  0  0  0
    0.7998   -1.0157   -1.4875 H   0  0  0  0  0  0  0  0  0  0  0  0
   -1.6492   -1.1038   -1.8667 H   0  0  0  0  0  0  0  0  0  0  0  0
   -0.8025   -2.6536   -1.9245 H   0  0  0  0  0  0  0  0  0  0  0  0
    4.6926   -2.8448    0.5739 H   0  0  0  0  0  0  0  0  0  0  0  0
    6.6095   -1.3321    0.0482 H   0  0  0  0  0  0  0  0  0  0  0  0
    3.9084    1.7673   -0.8566 H   0  0  0  0  0  0  0  0  0  0  0  0
    2.0102    0.4096   -0.3305 H   0  0  0  0  0  0  0  0  0  0  0  0
    5.5061    2.3751   -2.2471 H   0  0  0  0  0  0  0  0  0  0  0  0
    7.4318    3.7949   -2.7030 H   0  0  0  0  0  0  0  0  0  0  0  0
    9.5266    3.4456   -1.4768 H   0  0  0  0  0  0  0  0  0  0  0  0
    9.7100    1.6732    0.2149 H   0  0  0  0  0  0  0  0  0  0  0  0
    7.7683    0.2278    0.6871 H   0  0  0  0  0  0  0  0  0  0  0  0
  1  2  1  0
  2  3  1  0
  3  4  2  0
  4  5  1  0
  5  6  2  0
  6  7  1  0
  7  8  1  0
  8  9  1  0
  7 10  2  0
 10 11  1  0
 11 12  1  0
  5 13  1  0
 13 14  2  0
 13 15  1  0
 15 16  1  0
 16 17  1  0
 17 18  1  0
 18 19  1  0
 19 20  1  0
 18 21  1  0
 21 22  2  0
 21 23  1  0
 23 24  2  0
 24 25  1  0
 25 26  2  0
 26 27  1  0
 27 28  2  0
 26 29  1  0
 29 30  2  0
 30 31  1  0
 31 32  2  0
 32 33  1  0
 33 34  2  0
 10  3  1  0
 20 15  1  0
 28 23  1  0
 34 29  1  0
  1 35  1  0
  1 36  1  0
  1 37  1  0
  4 38  1  0
  6 39  1  0
  9 40  1  0
  9 41  1  0
  9 42  1  0
 12 43  1  0
 12 44  1  0
 12 45  1  0
 16 46  1  0
 16 47  1  0
 17 48  1  0
 17 49  1  0
 19 50  1  0
 19 51  1  0
 20 52  1  0
 20 53  1  0
 24 54  1  0
 25 55  1  0
 27 56  1  0
 28 57  1  0
 30 58  1  0
 31 59  1  0
 32 60  1  0
 33 61  1  0
 34 62  1  0
M  END
$$$$
[H]c1c([H])c([H])c(C(=O)N2C([H])([H])C([H])([H])N(C(=O)c3c([H])c([H])c(-c4c([H])c([H])c(-c5c([H])c([H])c([H])c([H])c5[H])c([H])c4[H])c([H])c3[H])[C@]([H])(C([H])([H])[H])C2([H])[H])c([H])c1[H]
     RDKit          3D

 63 67  0  0  0  0  0  0  0  0999 V2000
   -4.1104    2.7520    1.3265 C   0  0  0  0  0  0  0  0  0  0  0  0
   -3.8047    1.9720    0.0866 C   0  0  2  0  0  0  0  0  0  0  0  0
   -4.8788    1.0053   -0.3223 C   0  0  0  0  0  0  0  0  0  0  0  0
   -5.0727   -0.0054    0.6414 N   0  0  0  0  0  0  0  0  0  0  0  0
   -4.0746   -0.1392    1.7058 C   0  0  0  0  0  0  0  0  0  0  0  0
   -2.6568    0.0442    1.1739 C   0  0  0  0  0  0  0  0  0  0  0  0
   -2.5451    1.2072    0.3612 N   0  0  0  0  0  0  0  0  0  0  0  0
   -1.4107    1.7616   -0.2239 C   0  0  0  0  0  0  0  0  0  0  0  0
   -1.6229    2.8729   -0.9227 O   0  0  0  0  0  0  0  0  0  0  0  0
   -0.0273    1.3777   -0.2311 C   0  0  0  0  0  0  0  0  0  0  0  0
    0.4380    0.2622    0.3947 C   0  0  0  0  0  0  0  0  0  0  0  0
    1.8153   -0.0372    0.3432 C   0  0  0  0  0  0  0  0  0  0  0  0
    2.7224    0.7513   -0.3158 C   0  0  0  0  0  0  0  0  0  0  0  0
    2.2363    1.8577   -0.9322 C   0  0  0  0  0  0  0  0  0  0  0  0
    0.9102    2.1924   -0.9123 C   0  0  0  0  0  0  0  0  0  0  0  0
    4.1428    0.3567   -0.3149 C   0  0  0  0  0  0  0  0  0  0  0  0
    5.1289    1.2946   -0.3584 C   0  0  0  0  0  0  0  0  0  0  0  0
    6.4774    0.9616   -0.3574 C   0  0  0  0  0  0  0  0  0  0  0  0
    6.8413   -0.3557   -0.3110 C   0  0  0  0  0  0  0  0  0  0  0  0
    5.8323   -1.2943   -0.2673 C   0  0  0  0  0  0  0  0  0  0  0  0
    4.4995   -0.9743   -0.2680 C   0  0  0  0  0  0  0  0  0  0  0  0
    8.2018   -0.8442   -0.3000 C   0  0  0  0  0  0  0  0  0  0  0  0
    8.5614   -2.0519   -0.8605 C   0  0  0  0  0  0  0  0  0  0  0  0
    9.8920   -2.4806   -0.8199 C   0  0  0  0  0  0  0  0  0  0  0  0
   10.8603   -1.7101   -0.2237 C   0  0  0  0  0  0  0  0  0  0  0  0
   10.5083   -0.5078    0.3355 C   0  0  0  0  0  0  0  0  0  0  0  0
    9.1895   -0.0944    0.2892 C   0  0  0  0  0  0  0  0  0  0  0  0
   -6.1310   -0.9317    0.6781 C   0  0  0  0  0  0  0  0  0  0  0  0
   -6.1236   -1.7618    1.7125 O   0  0  0  0  0  0  0  0  0  0  0  0
   -7.2440   -1.1525   -0.2135 C   0  0  0  0  0  0  0  0  0  0  0  0
   -8.2561   -2.0384    0.1679 C   0  0  0  0  0  0  0  0  0  0  0  0
   -9.3233   -2.3443   -0.6098 C   0  0  0  0  0  0  0  0  0  0  0  0
   -9.4691   -1.7823   -1.8497 C   0  0  0  0  0  0  0  0  0  0  0  0
   -8.4992   -0.9129   -2.2545 C   0  0  0  0  0  0  0  0  0  0  0  0
   -7.3860   -0.5858   -1.4600 C   0  0  0  0  0  0  0  0  0  0  0  0
   -4.0236    3.8374    1.0833 H   0  0  0  0  0  0  0  0  0  0  0  0
   -3.3380    2.5782    2.1065 H   0  0  0  0  0  0  0  0  0  0  0  0
   -5.1188    2.5204    1.7349 H   0  0  0  0  0  0  0  0  0  0  0  0
   -3.6258    2.6945   -0.7485 H   0  0  0  0  0  0  0  0  0  0  0  0
   -5.8141    1.5939   -0.5240 H   0  0  0  0  0  0  0  0  0  0  0  0
   -4.5084    0.5377   -1.2713 H   0  0  0  0  0  0  0  0  0  0  0  0
   -4.2932    0.4553    2.5910 H   0  0  0  0  0  0  0  0  0  0  0  0
   -4.1103   -1.2061    2.0369 H   0  0  0  0  0  0  0  0  0  0  0  0
   -2.3502   -0.9001    0.6640 H   0  0  0  0  0  0  0  0  0  0  0  0
   -2.0400    0.1554    2.0826 H   0  0  0  0  0  0  0  0  0  0  0  0
   -0.1870   -0.4232    0.9364 H   0  0  0  0  0  0  0  0  0  0  0  0
    2.1305   -0.9435    0.8625 H   0  0  0  0  0  0  0  0  0  0  0  0
    2.9654    2.4822   -1.4560 H   0  0  0  0  0  0  0  0  0  0  0  0
    0.5655    3.0993   -1.4272 H   0  0  0  0  0  0  0  0  0  0  0  0
    4.8803    2.3645   -0.3961 H   0  0  0  0  0  0  0  0  0  0  0  0
    7.2586    1.7044   -0.3921 H   0  0  0  0  0  0  0  0  0  0  0  0
    6.0855   -2.3612   -0.2296 H   0  0  0  0  0  0  0  0  0  0  0  0
    3.7023   -1.7085   -0.2338 H   0  0  0  0  0  0  0  0  0  0  0  0
    7.8032   -2.6513   -1.3253 H   0  0  0  0  0  0  0  0  0  0  0  0
   10.1747   -3.4192   -1.2555 H   0  0  0  0  0  0  0  0  0  0  0  0
   11.9039   -2.0710   -0.2049 H   0  0  0  0  0  0  0  0  0  0  0  0
   11.2648    0.1014    0.8048 H   0  0  0  0  0  0  0  0  0  0  0  0
    8.9442    0.8484    0.7341 H   0  0  0  0  0  0  0  0  0  0  0  0
   -8.1924   -2.5058    1.1325 H   0  0  0  0  0  0  0  0  0  0  0  0
  -10.0895   -3.0493   -0.2568 H   0  0  0  0  0  0  0  0  0  0  0  0
  -10.3336   -2.0288   -2.4819 H   0  0  0  0  0  0  0  0  0  0  0  0
   -8.5981   -0.4548   -3.2384 H   0  0  0  0  0  0  0  0  0  0  0  0
   -6.6773    0.0849   -1.8779 H   0  0  0  0  0  0  0  0  0  0  0  0
  1  2  1  0
  2  3  1  0
  3  4  1  0
  4  5  1  0
  5  6  1  0
  6  7  1  0
  7  8  1  0
  8  9  2  0
  8 10  1  0
 10 11  2  0
 11 12  1  0
 12 13  2  0
 13 14  1  0
 14 15  2  0
 13 16  1  0
 16 17  2  0
 17 18  1  0
 18 19  2  0
 19 20  1  0
 20 21  2  0
 19 22  1  0
 22 23  2  0
 23 24  1  0
 24 25  2  0
 25 26  1  0
 26 27  2  0
  4 28  1  0
 28 29  2  0
 28 30  1  0
 30 31  2  0
 31 32  1  0
 32 33  2  0
 33 34  1  0
 34 35  2  0
  7  2  1  0
 15 10  1  0
 21 16  1  0
 27 22  1  0
 35 30  1  0
  1 36  1  0
  1 37  1  0
  1 38  1  0
  2 39  1  6
  3 40  1  0
  3 41  1  0
  5 42  1  0
  5 43  1  0
  6 44  1  0
  6 45  1  0
 11 46  1  0
 12 47  1  0
 14 48  1  0
 15 49  1  0
 17 50  1  0
 18 51  1  0
 20 52  1  0
 21 53  1  0
 23 54  1  0
 24 55  1  0
 25 56  1  0
 26 57  1  0
 27 58  1  0
 31 59  1  0
 32 60  1  0
 33 61  1  0
 34 62  1  0
 35 63  1  0
M  END
$$$$
[H]c1c([H])c([H])c(-c2c([H])c([H])c(C(=O)N3C([H])([H])C([H])([H])N(c4c([H])c([H])c([H])c([H])c4[H])C([H])([H])[C@]3([H])C([H])([H])[H])c([H])c2[H])c([H])c1[H]
     RDKit          3D

 51 54  0  0  0  0  0  0  0  0999 V2000
    1.2815   -0.5095   -1.0792 C   0  0  0  0  0  0  0  0  0  0  0  0
    1.3099   -0.6821    0.4243 C   0  0  1  0  0  0  0  0  0  0  0  0
    2.7692   -1.1292    0.7296 C   0  0  0  0  0  0  0  0  0  0  0  0
    3.6830   -0.0603    0.4942 N   0  0  0  0  0  0  0  0  0  0  0  0
    3.2218    1.2918    0.7519 C   0  0  0  0  0  0  0  0  0  0  0  0
    2.1498    1.1924    1.8178 C   0  0  0  0  0  0  0  0  0  0  0  0
    0.9880    0.4766    1.1693 N   0  0  0  0  0  0  0  0  0  0  0  0
   -0.2307    1.0639    1.4075 C   0  0  0  0  0  0  0  0  0  0  0  0
   -0.1574    2.1758    2.1411 O   0  0  0  0  0  0  0  0  0  0  0  0
   -1.5646    0.6955    1.0054 C   0  0  0  0  0  0  0  0  0  0  0  0
   -1.9625   -0.4386    0.3784 C   0  0  0  0  0  0  0  0  0  0  0  0
   -3.3019   -0.6802   -0.0061 C   0  0  0  0  0  0  0  0  0  0  0  0
   -4.2942    0.2258    0.2340 C   0  0  0  0  0  0  0  0  0  0  0  0
   -3.9081    1.3797    0.8694 C   0  0  0  0  0  0  0  0  0  0  0  0
   -2.6169    1.6255    1.2457 C   0  0  0  0  0  0  0  0  0  0  0  0
   -5.6730   -0.0149   -0.1570 C   0  0  0  0  0  0  0  0  0  0  0  0
   -6.7409    0.4793    0.5348 C   0  0  0  0  0  0  0  0  0  0  0  0
   -8.0226    0.2322    0.1383 C   0  0  0  0  0  0  0  0  0  0  0  0
   -8.2606   -0.5389   -0.9940 C   0  0  0  0  0  0  0  0  0  0  0  0
   -7.2094   -1.0579   -1.7228 C   0  0  0  0  0  0  0  0  0  0  0  0
   -5.9363   -0.7841   -1.2877 C   0  0  0  0  0  0  0  0  0  0  0  0
    5.0107   -0.2451    0.0360 C   0  0  0  0  0  0  0  0  0  0  0  0
    5.5784   -1.5221   -0.0050 C   0  0  0  0  0  0  0  0  0  0  0  0
    6.8687   -1.6698   -0.4634 C   0  0  0  0  0  0  0  0  0  0  0  0
    7.6113   -0.5964   -0.8807 C   0  0  0  0  0  0  0  0  0  0  0  0
    7.0577    0.6523   -0.8412 C   0  0  0  0  0  0  0  0  0  0  0  0
    5.7468    0.8392   -0.3804 C   0  0  0  0  0  0  0  0  0  0  0  0
    2.2824   -0.1620   -1.4014 H   0  0  0  0  0  0  0  0  0  0  0  0
    0.5727    0.2865   -1.3894 H   0  0  0  0  0  0  0  0  0  0  0  0
    1.0871   -1.4681   -1.6028 H   0  0  0  0  0  0  0  0  0  0  0  0
    0.7181   -1.5432    0.7170 H   0  0  0  0  0  0  0  0  0  0  0  0
    2.8335   -1.4709    1.7751 H   0  0  0  0  0  0  0  0  0  0  0  0
    3.0217   -1.9805    0.0742 H   0  0  0  0  0  0  0  0  0  0  0  0
    4.0521    1.9355    1.1457 H   0  0  0  0  0  0  0  0  0  0  0  0
    2.8027    1.7928   -0.1205 H   0  0  0  0  0  0  0  0  0  0  0  0
    2.5085    0.5079    2.6034 H   0  0  0  0  0  0  0  0  0  0  0  0
    1.8386    2.1564    2.2319 H   0  0  0  0  0  0  0  0  0  0  0  0
   -1.2679   -1.2133    0.1687 H   0  0  0  0  0  0  0  0  0  0  0  0
   -3.5442   -1.6219   -0.5104 H   0  0  0  0  0  0  0  0  0  0  0  0
   -4.6933    2.1152    1.0690 H   0  0  0  0  0  0  0  0  0  0  0  0
   -2.3300    2.5380    1.7427 H   0  0  0  0  0  0  0  0  0  0  0  0
   -6.5544    1.0696    1.4012 H   0  0  0  0  0  0  0  0  0  0  0  0
   -8.8944    0.5978    0.6480 H   0  0  0  0  0  0  0  0  0  0  0  0
   -9.2521   -0.7591   -1.3433 H   0  0  0  0  0  0  0  0  0  0  0  0
   -7.3943   -1.6687   -2.6204 H   0  0  0  0  0  0  0  0  0  0  0  0
   -5.0975   -1.1736   -1.8332 H   0  0  0  0  0  0  0  0  0  0  0  0
    4.9837   -2.3762    0.3304 H   0  0  0  0  0  0  0  0  0  0  0  0
    7.3240   -2.6604   -0.5009 H   0  0  0  0  0  0  0  0  0  0  0  0
    8.6334   -0.6812   -1.2475 H   0  0  0  0  0  0  0  0  0  0  0  0
    7.6116    1.5210   -1.1611 H   0  0  0  0  0  0  0  0  0  0  0  0
    5.3601    1.8575   -0.3759 H   0  0  0  0  0  0  0  0  0  0  0  0
  1  2  1  0
  2  3  1  0
  3  4  1  0
  4  5  1  0
  5  6  1  0
  6  7  1  0
  7  8  1  0
  8  9  2  0
  8 10  1  0
 10 11  2  0
 11 12  1  0
 12 13  2  0
 13 14  1  0
 14 15  2  0
 13 16  1  0
 16 17  2  0
 17 18  1  0
 18 19  2  0
 19 20  1  0
 20 21  2  0
  4 22  1  0
 22 23  2  0
 23 24  1  0
 24 25  2  0
 25 26  1  0
 26 27  2  0
  7  2  1  0
 15 10  1  0
 21 16  1  0
 27 22  1  0
  1 28  1  0
  1 29  1  0
  1 30  1  0
  2 31  1  6
  3 32  1  0
  3 33  1  0
  5 34  1  0
  5 35  1  0
  6 36  1  0
  6 37  1  0
 11 38  1  0
 12 39  1  0
 14 40  1  0
 15 41  1  0
 17 42  1  0
 18 43  1  0
 19 44  1  0
 20 45  1  0
 21 46  1  0
 23 47  1  0
 24 48  1  0
 25 49  1  0
 26 50  1  0
 27 51  1  0
M  END
$$$$
[H]c1c([H])c([H])c(C(=O)N2C([H])([H])C([H])([H])N(C(=O)c3c([H])c([H])c(-c4c([H])c([H])c([H])c([H])c4[H])c([H])c3[H])[C@]([H])(C([H])([H])[H])C2([H])[H])c([H])c1[H]
     RDKit          3D

 53 56  0  0  0  0  0  0  0  0999 V2000
    1.1170   -0.0934    1.1216 C   0  0  0  0  0  0  0  0  0  0  0  0
    0.7739   -1.2246    0.1939 C   0  0  2  0  0  0  0  0  0  0  0  0
    2.0529   -2.1005    0.0705 C   0  0  0  0  0  0  0  0  0  0  0  0
    3.1582   -1.2467   -0.4441 N   0  0  0  0  0  0  0  0  0  0  0  0
    2.8678   -0.4832   -1.5850 C   0  0  0  0  0  0  0  0  0  0  0  0
    1.4993   -0.8374   -2.1405 C   0  0  0  0  0  0  0  0  0  0  0  0
    0.4355   -0.7266   -1.0937 N   0  0  0  0  0  0  0  0  0  0  0  0
   -0.7448   -0.1821   -1.5273 C   0  0  0  0  0  0  0  0  0  0  0  0
   -0.7249    0.2246   -2.8003 O   0  0  0  0  0  0  0  0  0  0  0  0
   -2.0037    0.0343   -0.8691 C   0  0  0  0  0  0  0  0  0  0  0  0
   -2.3995   -0.3609    0.3715 C   0  0  0  0  0  0  0  0  0  0  0  0
   -3.6438   -0.0683    0.9013 C   0  0  0  0  0  0  0  0  0  0  0  0
   -4.5906    0.6494    0.2170 C   0  0  0  0  0  0  0  0  0  0  0  0
   -4.2149    1.0604   -1.0404 C   0  0  0  0  0  0  0  0  0  0  0  0
   -2.9956    0.7805   -1.5745 C   0  0  0  0  0  0  0  0  0  0  0  0
   -5.9004    0.9589    0.7625 C   0  0  0  0  0  0  0  0  0  0  0  0
   -6.9839    1.0823   -0.0727 C   0  0  0  0  0  0  0  0  0  0  0  0
   -8.2371    1.3741    0.4252 C   0  0  0  0  0  0  0  0  0  0  0  0
   -8.3891    1.5428    1.7966 C   0  0  0  0  0  0  0  0  0  0  0  0
   -7.3256    1.4252    2.6518 C   0  0  0  0  0  0  0  0  0  0  0  0
   -6.0875    1.1322    2.1125 C   0  0  0  0  0  0  0  0  0  0  0  0
    4.3498   -1.3273    0.2579 C   0  0  0  0  0  0  0  0  0  0  0  0
    4.3098   -2.1780    1.2782 O   0  0  0  0  0  0  0  0  0  0  0  0
    5.5954   -0.6521    0.0583 C   0  0  0  0  0  0  0  0  0  0  0  0
    5.8382    0.3212   -0.8423 C   0  0  0  0  0  0  0  0  0  0  0  0
    7.1050    0.9154   -0.9972 C   0  0  0  0  0  0  0  0  0  0  0  0
    8.1281    0.4886   -0.2028 C   0  0  0  0  0  0  0  0  0  0  0  0
    7.9316   -0.4981    0.7295 C   0  0  0  0  0  0  0  0  0  0  0  0
    6.6957   -1.0506    0.8529 C   0  0  0  0  0  0  0  0  0  0  0  0
    2.0914    0.3488    0.8258 H   0  0  0  0  0  0  0  0  0  0  0  0
    0.3627    0.7000    1.1968 H   0  0  0  0  0  0  0  0  0  0  0  0
    1.3030   -0.4969    2.1628 H   0  0  0  0  0  0  0  0  0  0  0  0
    0.0236   -1.9021    0.5798 H   0  0  0  0  0  0  0  0  0  0  0  0
    1.8541   -2.9490   -0.5869 H   0  0  0  0  0  0  0  0  0  0  0  0
    2.2648   -2.4541    1.0821 H   0  0  0  0  0  0  0  0  0  0  0  0
    3.5932   -0.6545   -2.4312 H   0  0  0  0  0  0  0  0  0  0  0  0
    2.8208    0.6153   -1.4180 H   0  0  0  0  0  0  0  0  0  0  0  0
    1.4308   -1.8700   -2.5106 H   0  0  0  0  0  0  0  0  0  0  0  0
    1.2211   -0.1426   -2.9379 H   0  0  0  0  0  0  0  0  0  0  0  0
   -1.7486   -0.9358    0.9950 H   0  0  0  0  0  0  0  0  0  0  0  0
   -3.9101   -0.4134    1.9107 H   0  0  0  0  0  0  0  0  0  0  0  0
   -4.9375    1.6375   -1.6342 H   0  0  0  0  0  0  0  0  0  0  0  0
   -2.7413    1.1319   -2.5801 H   0  0  0  0  0  0  0  0  0  0  0  0
   -6.8319    0.9465   -1.1250 H   0  0  0  0  0  0  0  0  0  0  0  0
   -9.1015    1.4761   -0.2009 H   0  0  0  0  0  0  0  0  0  0  0  0
   -9.3750    1.7716    2.1884 H   0  0  0  0  0  0  0  0  0  0  0  0
   -7.4285    1.5531    3.7019 H   0  0  0  0  0  0  0  0  0  0  0  0
   -5.2602    1.0434    2.8012 H   0  0  0  0  0  0  0  0  0  0  0  0
    5.0794    0.7106   -1.4774 H   0  0  0  0  0  0  0  0  0  0  0  0
    7.2546    1.6913   -1.7322 H   0  0  0  0  0  0  0  0  0  0  0  0
    9.0948    0.9638   -0.3436 H   0  0  0  0  0  0  0  0  0  0  0  0
    8.7805   -0.8032    1.3397 H   0  0  0  0  0  0  0  0  0  0  0  0
    6.5425   -1.8245    1.5825 H   0  0  0  0  0  0  0  0  0  0  0  0
  1  2  1  0
  2  3  1  0
  3  4  1  0
  4  5  1  0
  5  6  1  0
  6  7  1  0
  7  8  1  0
  8  9  2  0
  8 10  1  0
 10 11  2  0
 11 12  1  0
 12 13  2  0
 13 14  1  0
 14 15  2  0
 13 16  1  0
 16 17  2  0
 17 18  1  0
 18 19  2  0
 19 20  1  0
 20 21  2  0
  4 22  1  0
 22 23  2  0
 22 24  1  0
 24 25  2  0
 25 26  1  0
 26 27  2  0
 27 28  1  0
 28 29  2  0
  7  2  1  0
 15 10  1  0
 21 16  1  0
 29 24  1  0
  1 30  1  0
  1 31  1  0
  1 32  1  0
  2 33  1  1
  3 34  1  0
  3 35  1  0
  5 36  1  0
  5 37  1  0
  6 38  1  0
  6 39  1  0
 11 40  1  0
 12 41  1  0
 14 42  1  0
 15 43  1  0
 17 44  1  0
 18 45  1  0
 19 46  1  0
 20 47  1  0
 21 48  1  0
 25 49  1  0
 26 50  1  0
 27 51  1  0
 28 52  1  0
 29 53  1  0
M  END
$$$$
[H]c1c([H])c([H])c(-c2c([H])c([H])c(N3C([H])([H])C([H])([H])N(C(=O)c4c([H])c([H])c(F)c([H])c4F)[C@]([H])(C([H])([H])[H])C3([H])[H])c([H])c2[H])c([H])c1[H]
     RDKit          3D

 51 54  0  0  0  0  0  0  0  0999 V2000
   -1.6745    0.6180    3.1101 C   0  0  0  0  0  0  0  0  0  0  0  0
   -1.9853   -0.6188    2.2792 C   0  0  2  0  0  0  0  0  0  0  0  0
   -0.7208   -1.3668    1.9192 C   0  0  0  0  0  0  0  0  0  0  0  0
   -0.2113   -0.9591    0.6197 N   0  0  0  0  0  0  0  0  0  0  0  0
   -1.1764   -0.8978   -0.4498 C   0  0  0  0  0  0  0  0  0  0  0  0
   -2.1704    0.2060   -0.0531 C   0  0  0  0  0  0  0  0  0  0  0  0
   -2.8124   -0.2896    1.1460 N   0  0  0  0  0  0  0  0  0  0  0  0
   -4.2242   -0.4248    1.1432 C   0  0  0  0  0  0  0  0  0  0  0  0
   -4.7702   -0.8545    2.1872 O   0  0  0  0  0  0  0  0  0  0  0  0
   -5.0226   -0.0839   -0.0137 C   0  0  0  0  0  0  0  0  0  0  0  0
   -5.5152    1.2118   -0.1621 C   0  0  0  0  0  0  0  0  0  0  0  0
   -6.2775    1.5664   -1.2519 C   0  0  0  0  0  0  0  0  0  0  0  0
   -6.5624    0.6255   -2.2183 C   0  0  0  0  0  0  0  0  0  0  0  0
   -7.3174    1.0347   -3.2673 F   0  0  0  0  0  0  0  0  0  0  0  0
   -6.0871   -0.6629   -2.0950 C   0  0  0  0  0  0  0  0  0  0  0  0
   -5.3177   -0.9965   -0.9825 C   0  0  0  0  0  0  0  0  0  0  0  0
   -4.8487   -2.2603   -0.8564 F   0  0  0  0  0  0  0  0  0  0  0  0
    1.1411   -0.6479    0.3763 C   0  0  0  0  0  0  0  0  0  0  0  0
    2.1473   -1.0196    1.2728 C   0  0  0  0  0  0  0  0  0  0  0  0
    3.4610   -0.6995    1.0331 C   0  0  0  0  0  0  0  0  0  0  0  0
    3.8730   -0.0055   -0.0817 C   0  0  0  0  0  0  0  0  0  0  0  0
    2.8829    0.3605   -0.9641 C   0  0  0  0  0  0  0  0  0  0  0  0
    1.5451    0.0475   -0.7425 C   0  0  0  0  0  0  0  0  0  0  0  0
    5.2774    0.3159   -0.3014 C   0  0  0  0  0  0  0  0  0  0  0  0
    5.7538    0.3977   -1.5926 C   0  0  0  0  0  0  0  0  0  0  0  0
    7.0816    0.7005   -1.8561 C   0  0  0  0  0  0  0  0  0  0  0  0
    7.9645    0.9289   -0.8220 C   0  0  0  0  0  0  0  0  0  0  0  0
    7.5102    0.8524    0.4776 C   0  0  0  0  0  0  0  0  0  0  0  0
    6.1746    0.5473    0.7202 C   0  0  0  0  0  0  0  0  0  0  0  0
   -1.2717    1.4263    2.4829 H   0  0  0  0  0  0  0  0  0  0  0  0
   -2.6139    0.9844    3.5666 H   0  0  0  0  0  0  0  0  0  0  0  0
   -1.0027    0.3275    3.9367 H   0  0  0  0  0  0  0  0  0  0  0  0
   -2.5913   -1.2923    2.9305 H   0  0  0  0  0  0  0  0  0  0  0  0
   -0.0057   -1.1636    2.7426 H   0  0  0  0  0  0  0  0  0  0  0  0
   -0.9619   -2.4458    1.8588 H   0  0  0  0  0  0  0  0  0  0  0  0
   -1.7767   -1.8411   -0.4015 H   0  0  0  0  0  0  0  0  0  0  0  0
   -0.7989   -0.6835   -1.4379 H   0  0  0  0  0  0  0  0  0  0  0  0
   -2.8694    0.3884   -0.8795 H   0  0  0  0  0  0  0  0  0  0  0  0
   -1.6008    1.1175    0.2349 H   0  0  0  0  0  0  0  0  0  0  0  0
   -5.2860    1.9384    0.5999 H   0  0  0  0  0  0  0  0  0  0  0  0
   -6.6614    2.5920   -1.3593 H   0  0  0  0  0  0  0  0  0  0  0  0
   -6.3208   -1.3844   -2.8616 H   0  0  0  0  0  0  0  0  0  0  0  0
    1.8755   -1.5665    2.1590 H   0  0  0  0  0  0  0  0  0  0  0  0
    4.2605   -0.9885    1.7343 H   0  0  0  0  0  0  0  0  0  0  0  0
    3.1275    0.9031   -1.8552 H   0  0  0  0  0  0  0  0  0  0  0  0
    0.8310    0.3920   -1.5063 H   0  0  0  0  0  0  0  0  0  0  0  0
    5.0628    0.2186   -2.4188 H   0  0  0  0  0  0  0  0  0  0  0  0
    7.4749    0.7693   -2.8625 H   0  0  0  0  0  0  0  0  0  0  0  0
    9.0043    1.1671   -0.9806 H   0  0  0  0  0  0  0  0  0  0  0  0
    8.2038    1.0320    1.2974 H   0  0  0  0  0  0  0  0  0  0  0  0
    5.8026    0.4835    1.7306 H   0  0  0  0  0  0  0  0  0  0  0  0
  1  2  1  0
  2  3  1  0
  3  4  1  0
  4  5  1  0
  5  6  1  0
  6  7  1  0
  7  8  1  0
  8  9  2  0
  8 10  1  0
 10 11  2  0
 11 12  1  0
 12 13  2  0
 13 14  1  0
 13 15  1  0
 15 16  2  0
 16 17  1  0
  4 18  1  0
 18 19  2  0
 19 20  1  0
 20 21  2  0
 21 22  1  0
 22 23  2  0
 21 24  1  0
 24 25  2  0
 25 26  1  0
 26 27  2  0
 27 28  1  0
 28 29  2  0
  7  2  1  0
 16 10  1  0
 23 18  1  0
 29 24  1  0
  1 30  1  0
  1 31  1  0
  1 32  1  0
  2 33  1  1
  3 34  1  0
  3 35  1  0
  5 36  1  0
  5 37  1  0
  6 38  1  0
  6 39  1  0
 11 40  1  0
 12 41  1  0
 15 42  1  0
 19 43  1  0
 20 44  1  0
 22 45  1  0
 23 46  1  0
 25 47  1  0
 26 48  1  0
 27 49  1  0
 28 50  1  0
 29 51  1  0
M  END
$$$$
[H]c1c([H])c([H])c(-c2c([H])c([H])c(N3C([H])([H])C([H])([H])N(C(=O)c4c([H])c(OC([H])([H])[H])c(OC([H])([H])[H])c(OC([H])([H])[H])c4[H])C([H])([H])C3([H])[H])c([H])c2[H])c([H])c1[H]
     RDKit          3D

 60 63  0  0  0  0  0  0  0  0999 V2000
   -3.7250    3.2134   -0.9616 C   0  0  0  0  0  0  0  0  0  0  0  0
   -4.9190    2.4613   -0.9833 O   0  0  0  0  0  0  0  0  0  0  0  0
   -4.8955    1.1380   -0.5736 C   0  0  0  0  0  0  0  0  0  0  0  0
   -3.6919    0.5650   -0.1443 C   0  0  0  0  0  0  0  0  0  0  0  0
   -3.6529   -0.7433    0.2646 C   0  0  0  0  0  0  0  0  0  0  0  0
   -4.8473   -1.4986    0.2434 C   0  0  0  0  0  0  0  0  0  0  0  0
   -6.0149   -0.9361   -0.1755 C   0  0  0  0  0  0  0  0  0  0  0  0
   -7.1977   -1.6856   -0.1962 O   0  0  0  0  0  0  0  0  0  0  0  0
   -7.1443   -3.0283    0.2256 C   0  0  0  0  0  0  0  0  0  0  0  0
   -6.0542    0.3943   -0.5907 C   0  0  0  0  0  0  0  0  0  0  0  0
   -7.2428    0.9499   -1.0115 O   0  0  0  0  0  0  0  0  0  0  0  0
   -8.1099    1.5907   -0.1009 C   0  0  0  0  0  0  0  0  0  0  0  0
   -2.4954   -1.4594    0.7503 C   0  0  0  0  0  0  0  0  0  0  0  0
   -2.6469   -2.7341    1.0155 O   0  0  0  0  0  0  0  0  0  0  0  0
   -1.1882   -1.0213    1.0001 N   0  0  0  0  0  0  0  0  0  0  0  0
   -0.6963    0.2970    0.8384 C   0  0  0  0  0  0  0  0  0  0  0  0
    0.7113    0.4051    1.4316 C   0  0  0  0  0  0  0  0  0  0  0  0
    1.5278   -0.6051    0.8012 N   0  0  0  0  0  0  0  0  0  0  0  0
    0.9656   -1.9337    0.5160 C   0  0  0  0  0  0  0  0  0  0  0  0
   -0.2360   -2.0584    1.4680 C   0  0  0  0  0  0  0  0  0  0  0  0
    2.8640   -0.3233    0.4761 C   0  0  0  0  0  0  0  0  0  0  0  0
    3.5452   -1.2088   -0.3493 C   0  0  0  0  0  0  0  0  0  0  0  0
    4.8595   -0.9311   -0.6558 C   0  0  0  0  0  0  0  0  0  0  0  0
    5.5000    0.1995   -0.1608 C   0  0  0  0  0  0  0  0  0  0  0  0
    4.8149    1.0650    0.6533 C   0  0  0  0  0  0  0  0  0  0  0  0
    3.4947    0.7888    0.9631 C   0  0  0  0  0  0  0  0  0  0  0  0
    6.8823    0.5023   -0.4760 C   0  0  0  0  0  0  0  0  0  0  0  0
    7.8014   -0.4946   -0.6892 C   0  0  0  0  0  0  0  0  0  0  0  0
    9.1115   -0.1870   -0.9882 C   0  0  0  0  0  0  0  0  0  0  0  0
    9.5358    1.1318   -1.0815 C   0  0  0  0  0  0  0  0  0  0  0  0
    8.5796    2.1008   -0.8600 C   0  0  0  0  0  0  0  0  0  0  0  0
    7.2799    1.8094   -0.5633 C   0  0  0  0  0  0  0  0  0  0  0  0
   -3.2817    3.3219    0.0326 H   0  0  0  0  0  0  0  0  0  0  0  0
   -3.9582    4.2087   -1.4302 H   0  0  0  0  0  0  0  0  0  0  0  0
   -3.0192    2.7270   -1.6893 H   0  0  0  0  0  0  0  0  0  0  0  0
   -2.8404    1.1843   -0.1669 H   0  0  0  0  0  0  0  0  0  0  0  0
   -4.8652   -2.5334    0.5568 H   0  0  0  0  0  0  0  0  0  0  0  0
   -6.7150   -3.1190    1.2602 H   0  0  0  0  0  0  0  0  0  0  0  0
   -6.4313   -3.5953   -0.4384 H   0  0  0  0  0  0  0  0  0  0  0  0
   -8.1666   -3.4588    0.1861 H   0  0  0  0  0  0  0  0  0  0  0  0
   -8.7422    0.8806    0.4714 H   0  0  0  0  0  0  0  0  0  0  0  0
   -7.4915    2.1207    0.6619 H   0  0  0  0  0  0  0  0  0  0  0  0
   -8.7838    2.2924   -0.6200 H   0  0  0  0  0  0  0  0  0  0  0  0
   -0.6056    0.6717   -0.1858 H   0  0  0  0  0  0  0  0  0  0  0  0
   -1.2846    1.0174    1.4642 H   0  0  0  0  0  0  0  0  0  0  0  0
    1.0987    1.3984    1.1156 H   0  0  0  0  0  0  0  0  0  0  0  0
    0.6200    0.2895    2.5174 H   0  0  0  0  0  0  0  0  0  0  0  0
    1.6941   -2.6799    0.8335 H   0  0  0  0  0  0  0  0  0  0  0  0
    0.5772   -2.0149   -0.4983 H   0  0  0  0  0  0  0  0  0  0  0  0
   -0.6575   -3.0658    1.4154 H   0  0  0  0  0  0  0  0  0  0  0  0
    0.0436   -1.8397    2.5061 H   0  0  0  0  0  0  0  0  0  0  0  0
    3.0539   -2.0958   -0.7418 H   0  0  0  0  0  0  0  0  0  0  0  0
    5.4040   -1.6066   -1.2945 H   0  0  0  0  0  0  0  0  0  0  0  0
    5.2632    1.9635    1.0691 H   0  0  0  0  0  0  0  0  0  0  0  0
    3.0012    1.4993    1.6144 H   0  0  0  0  0  0  0  0  0  0  0  0
    7.4650   -1.5359   -0.6151 H   0  0  0  0  0  0  0  0  0  0  0  0
    9.8307   -0.9697   -1.1551 H   0  0  0  0  0  0  0  0  0  0  0  0
   10.5637    1.3846   -1.3160 H   0  0  0  0  0  0  0  0  0  0  0  0
    8.9035    3.1400   -0.9312 H   0  0  0  0  0  0  0  0  0  0  0  0
    6.6085    2.6513   -0.4072 H   0  0  0  0  0  0  0  0  0  0  0  0
  1  2  1  0
  2  3  1  0
  3  4  2  0
  4  5  1  0
  5  6  2  0
  6  7  1  0
  7  8  1  0
  8  9  1  0
  7 10  2  0
 10 11  1  0
 11 12  1  0
  5 13  1  0
 13 14  2  0
 13 15  1  0
 15 16  1  0
 16 17  1  0
 17 18  1  0
 18 19  1  0
 19 20  1  0
 18 21  1  0
 21 22  2  0
 22 23  1  0
 23 24  2  0
 24 25  1  0
 25 26  2  0
 24 27  1  0
 27 28  2  0
 28 29  1  0
 29 30  2  0
 30 31  1  0
 31 32  2  0
 10  3  1  0
 20 15  1  0
 26 21  1  0
 32 27  1  0
  1 33  1  0
  1 34  1  0
  1 35  1  0
  4 36  1  0
  6 37  1  0
  9 38  1  0
  9 39  1  0
  9 40  1  0
 12 41  1  0
 12 42  1  0
 12 43  1  0
 16 44  1  0
 16 45  1  0
 17 46  1  0
 17 47  1  0
 19 48  1  0
 19 49  1  0
 20 50  1  0
 20 51  1  0
 22 52  1  0
 23 53  1  0
 25 54  1  0
 26 55  1  0
 28 56  1  0
 29 57  1  0
 30 58  1  0
 31 59  1  0
 32 60  1  0
M  END
$$$$
