[H]c1c([H])c([H])c(C(=O)N([H])[C@]([H])(C(=O)N([H])[C@]([H])(C(=O)N([H])[C@]([H])(C(=O)N([H])[C@]([H])(C(F)(F)F)C([H])([H])c2c([H])c([H])c([H])c([H])c2[H])C([H])([H])c2c([H])c([H])c([H])c([H])c2[H])C([H])([H])C([H])(C([H])([H])[H])C([H])([H])[H])C([H])([H])c2c([H])c([H])c([H])c([H])c2[H])c([H])c1[H]
     RDKit          3D

 94 97  0  0  0  0  0  0  0  0999 V2000
   -2.5632   -1.6356    3.8497 C   0  0  0  0  0  0  0  0  0  0  0  0
   -1.1550   -1.1783    3.8911 C   0  0  0  0  0  0  0  0  0  0  0  0
   -0.7324   -1.1676    5.3806 C   0  0  0  0  0  0  0  0  0  0  0  0
   -0.7965    0.1369    3.3623 C   0  0  0  0  0  0  0  0  0  0  0  0
   -1.0081    0.4952    1.9399 C   0  0  2  0  0  0  0  0  0  0  0  0
   -2.2307    0.5350    1.3389 N   0  0  0  0  0  0  0  0  0  0  0  0
   -3.4637    0.5771    0.7308 C   0  0  0  0  0  0  0  0  0  0  0  0
   -3.7422    1.4082   -0.2687 O   0  0  0  0  0  0  0  0  0  0  0  0
   -4.6903   -0.2386    1.0305 C   0  0  2  0  0  0  0  0  0  0  0  0
   -4.6643   -1.6326    0.5152 C   0  0  0  0  0  0  0  0  0  0  0  0
   -4.5342   -1.8498   -0.9056 C   0  0  0  0  0  0  0  0  0  0  0  0
   -3.3097   -2.0529   -1.4913 C   0  0  0  0  0  0  0  0  0  0  0  0
   -3.1760   -2.2648   -2.8489 C   0  0  0  0  0  0  0  0  0  0  0  0
   -4.2813   -2.2808   -3.6718 C   0  0  0  0  0  0  0  0  0  0  0  0
   -5.5130   -2.0796   -3.1033 C   0  0  0  0  0  0  0  0  0  0  0  0
   -5.6256   -1.8697   -1.7500 C   0  0  0  0  0  0  0  0  0  0  0  0
   -5.8213    0.4428    0.3819 N   0  0  0  0  0  0  0  0  0  0  0  0
   -6.8799    1.0470    1.0824 C   0  0  0  0  0  0  0  0  0  0  0  0
   -6.9359    1.0446    2.3334 O   0  0  0  0  0  0  0  0  0  0  0  0
   -7.9766    1.7204    0.3640 C   0  0  0  0  0  0  0  0  0  0  0  0
   -8.8297    2.5623    1.0694 C   0  0  0  0  0  0  0  0  0  0  0  0
   -9.8521    3.2312    0.4997 C   0  0  0  0  0  0  0  0  0  0  0  0
  -10.0731    3.0794   -0.8630 C   0  0  0  0  0  0  0  0  0  0  0  0
   -9.2372    2.2476   -1.5752 C   0  0  0  0  0  0  0  0  0  0  0  0
   -8.1982    1.5687   -0.9867 C   0  0  0  0  0  0  0  0  0  0  0  0
    0.0020   -0.3853    1.1683 C   0  0  0  0  0  0  0  0  0  0  0  0
   -0.3215   -1.5261    0.8323 O   0  0  0  0  0  0  0  0  0  0  0  0
    1.2438    0.1752    0.8716 N   0  0  0  0  0  0  0  0  0  0  0  0
    2.3254   -0.5058    0.1097 C   0  0  1  0  0  0  0  0  0  0  0  0
    1.7615   -0.6916   -1.2977 C   0  0  0  0  0  0  0  0  0  0  0  0
    2.6001   -1.3939   -2.2588 C   0  0  0  0  0  0  0  0  0  0  0  0
    2.6485   -2.8124   -2.1761 C   0  0  0  0  0  0  0  0  0  0  0  0
    3.3554   -3.5632   -3.0721 C   0  0  0  0  0  0  0  0  0  0  0  0
    4.0568   -2.9751   -4.1004 C   0  0  0  0  0  0  0  0  0  0  0  0
    4.0314   -1.5963   -4.2093 C   0  0  0  0  0  0  0  0  0  0  0  0
    3.3142   -0.8441   -3.2998 C   0  0  0  0  0  0  0  0  0  0  0  0
    3.5459    0.2847    0.1970 C   0  0  0  0  0  0  0  0  0  0  0  0
    3.4524    1.3474    0.9677 O   0  0  0  0  0  0  0  0  0  0  0  0
    4.7950    0.1276   -0.3906 N   0  0  0  0  0  0  0  0  0  0  0  0
    5.8658    1.1459   -0.1431 C   0  0  1  0  0  0  0  0  0  0  0  0
    7.1672    0.4123   -0.1335 C   0  0  0  0  0  0  0  0  0  0  0  0
    8.3781    1.2008    0.1086 C   0  0  0  0  0  0  0  0  0  0  0  0
    9.1929    1.7382   -0.8807 C   0  0  0  0  0  0  0  0  0  0  0  0
   10.3161    2.4704   -0.5948 C   0  0  0  0  0  0  0  0  0  0  0  0
   10.6492    2.6782    0.7468 C   0  0  0  0  0  0  0  0  0  0  0  0
    9.8698    2.1613    1.7498 C   0  0  0  0  0  0  0  0  0  0  0  0
    8.7523    1.4354    1.4222 C   0  0  0  0  0  0  0  0  0  0  0  0
    5.7430    2.1905   -1.2517 C   0  0  0  0  0  0  0  0  0  0  0  0
    6.6463    3.1797   -1.0626 F   0  0  0  0  0  0  0  0  0  0  0  0
    4.4773    2.7103   -1.2252 F   0  0  0  0  0  0  0  0  0  0  0  0
    5.8996    1.5791   -2.4968 F   0  0  0  0  0  0  0  0  0  0  0  0
   -2.8510   -2.1249    4.8372 H   0  0  0  0  0  0  0  0  0  0  0  0
   -3.3135   -0.8075    3.7780 H   0  0  0  0  0  0  0  0  0  0  0  0
   -2.7596   -2.4521    3.1158 H   0  0  0  0  0  0  0  0  0  0  0  0
   -0.5253   -2.0003    3.4407 H   0  0  0  0  0  0  0  0  0  0  0  0
    0.0540   -0.4319    5.5396 H   0  0  0  0  0  0  0  0  0  0  0  0
   -0.5382   -2.1709    5.7578 H   0  0  0  0  0  0  0  0  0  0  0  0
   -1.6392   -0.8063    5.9259 H   0  0  0  0  0  0  0  0  0  0  0  0
   -1.2178    0.9335    4.0578 H   0  0  0  0  0  0  0  0  0  0  0  0
    0.3187    0.2626    3.5470 H   0  0  0  0  0  0  0  0  0  0  0  0
   -0.4618    1.5114    1.8546 H   0  0  0  0  0  0  0  0  0  0  0  0
   -1.7595    1.4279    0.4305 H   0  0  0  0  0  0  0  0  0  0  0  0
   -4.8845   -0.1996    2.1110 H   0  0  0  0  0  0  0  0  0  0  0  0
   -3.8080   -2.1573    1.0405 H   0  0  0  0  0  0  0  0  0  0  0  0
   -5.5649   -2.1842    0.9510 H   0  0  0  0  0  0  0  0  0  0  0  0
   -2.3879   -2.0657   -0.8930 H   0  0  0  0  0  0  0  0  0  0  0  0
   -2.2159   -2.4193   -3.2871 H   0  0  0  0  0  0  0  0  0  0  0  0
   -4.2184   -2.4388   -4.7422 H   0  0  0  0  0  0  0  0  0  0  0  0
   -6.4186   -2.0776   -3.7092 H   0  0  0  0  0  0  0  0  0  0  0  0
   -6.6161   -1.7077   -1.3355 H   0  0  0  0  0  0  0  0  0  0  0  0
   -5.8063    0.4820   -0.6550 H   0  0  0  0  0  0  0  0  0  0  0  0
   -8.6423    2.6756    2.1347 H   0  0  0  0  0  0  0  0  0  0  0  0
  -10.4970    3.8774    1.0977 H   0  0  0  0  0  0  0  0  0  0  0  0
  -10.9010    3.6287   -1.2814 H   0  0  0  0  0  0  0  0  0  0  0  0
   -9.3915    2.1113   -2.6609 H   0  0  0  0  0  0  0  0  0  0  0  0
   -7.5400    0.9118   -1.5614 H   0  0  0  0  0  0  0  0  0  0  0  0
    1.4610    1.1417    1.1974 H   0  0  0  0  0  0  0  0  0  0  0  0
    2.3877   -1.5195    0.5096 H   0  0  0  0  0  0  0  0  0  0  0  0
    1.6061    0.3704   -1.6765 H   0  0  0  0  0  0  0  0  0  0  0  0
    0.7737   -1.2109   -1.2700 H   0  0  0  0  0  0  0  0  0  0  0  0
    2.1120   -3.3270   -1.3729 H   0  0  0  0  0  0  0  0  0  0  0  0
    3.3975   -4.6563   -3.0022 H   0  0  0  0  0  0  0  0  0  0  0  0
    4.6213   -3.5683   -4.8190 H   0  0  0  0  0  0  0  0  0  0  0  0
    4.5843   -1.1354   -5.0195 H   0  0  0  0  0  0  0  0  0  0  0  0
    3.3173    0.2240   -3.4102 H   0  0  0  0  0  0  0  0  0  0  0  0
    5.0694   -0.6628   -0.9748 H   0  0  0  0  0  0  0  0  0  0  0  0
    5.6941    1.6909    0.7879 H   0  0  0  0  0  0  0  0  0  0  0  0
    7.1080   -0.3578    0.7015 H   0  0  0  0  0  0  0  0  0  0  0  0
    7.2949   -0.2137   -1.0602 H   0  0  0  0  0  0  0  0  0  0  0  0
    8.9150    1.5703   -1.9353 H   0  0  0  0  0  0  0  0  0  0  0  0
   10.9675    2.9025   -1.3495 H   0  0  0  0  0  0  0  0  0  0  0  0
   11.5348    3.2494    1.0379 H   0  0  0  0  0  0  0  0  0  0  0  0
   10.1179    2.3073    2.8153 H   0  0  0  0  0  0  0  0  0  0  0  0
    8.1445    1.0277    2.2304 H   0  0  0  0  0  0  0  0  0  0  0  0
  1  2  1  0
  2  3  1  0
  2  4  1  0
  4  5  1  0
  5  6  1  0
  6  7  1  0
  7  8  2  0
  7  9  1  0
  9 10  1  0
 10 11  1  0
 11 12  2  0
 12 13  1  0
 13 14  2  0
 14 15  1  0
 15 16  2  0
  9 17  1  0
 17 18  1  0
 18 19  2  0
 18 20  1  0
 20 21  2  0
 21 22  1  0
 22 23  2  0
 23 24  1  0
 24 25  2  0
  5 26  1  0
 26 27  2  0
 26 28  1  0
 28 29  1  0
 29 30  1  0
 30 31  1  0
 31 32  2  0
 32 33  1  0
 33 34  2  0
 34 35  1  0
 35 36  2  0
 29 37  1  0
 37 38  2  0
 37 39  1  0
 39 40  1  0
 40 41  1  0
 41 42  1  0
 42 43  2  0
 43 44  1  0
 44 45  2  0
 45 46  1  0
 46 47  2  0
 40 48  1  0
 48 49  1  0
 48 50  1  0
 48 51  1  0
 16 11  1  0
 25 20  1  0
 36 31  1  0
 47 42  1  0
  1 52  1  0
  1 53  1  0
  1 54  1  0
  2 55  1  0
  3 56  1  0
  3 57  1  0
  3 58  1  0
  4 59  1  0
  4 60  1  0
  5 61  1  1
  6 62  1  0
  9 63  1  1
 10 64  1  0
 10 65  1  0
 12 66  1  0
 13 67  1  0
 14 68  1  0
 15 69  1  0
 16 70  1  0
 17 71  1  0
 21 72  1  0
 22 73  1  0
 23 74  1  0
 24 75  1  0
 25 76  1  0
 28 77  1  0
 29 78  1  1
 30 79  1  0
 30 80  1  0
 32 81  1  0
 33 82  1  0
 34 83  1  0
 35 84  1  0
 36 85  1  0
 39 86  1  0
 40 87  1  1
 41 88  1  0
 41 89  1  0
 43 90  1  0
 44 91  1  0
 45 92  1  0
 46 93  1  0
 47 94  1  0
M  END
$$$$
[H]c1nc(N([H])[H])c2c(-c3c([H])c([H])c(C(=O)N([H])[C@]([H])(c4c([H])c([H])c(C#N)c([H])c4[H])C([H])([H])C([H])(C([H])([H])[H])C([H])([H])[H])c([H])c3[H])c([H])n([H])c2n1
     RDKit          3D

 56 59  0  0  0  0  0  0  0  0999 V2000
   -3.0010    1.2223   -3.0667 C   0  0  0  0  0  0  0  0  0  0  0  0
   -3.0900   -0.1391   -2.4705 C   0  0  0  0  0  0  0  0  0  0  0  0
   -3.8376   -1.0779   -3.4265 C   0  0  0  0  0  0  0  0  0  0  0  0
   -3.8285   -0.1982   -1.1587 C   0  0  0  0  0  0  0  0  0  0  0  0
   -3.2002    0.6457   -0.0932 C   0  0  2  0  0  0  0  0  0  0  0  0
   -1.8343    0.1404    0.0974 N   0  0  0  0  0  0  0  0  0  0  0  0
   -0.7090    0.9956    0.0034 C   0  0  0  0  0  0  0  0  0  0  0  0
   -0.9147    2.2055   -0.2482 O   0  0  0  0  0  0  0  0  0  0  0  0
    0.6634    0.5493    0.1818 C   0  0  0  0  0  0  0  0  0  0  0  0
    1.0104   -0.7425    0.4593 C   0  0  0  0  0  0  0  0  0  0  0  0
    2.3289   -1.1099    0.6183 C   0  0  0  0  0  0  0  0  0  0  0  0
    3.3656   -0.2042    0.5078 C   0  0  0  0  0  0  0  0  0  0  0  0
    3.0069    1.0891    0.2297 C   0  0  0  0  0  0  0  0  0  0  0  0
    1.6895    1.4784    0.0662 C   0  0  0  0  0  0  0  0  0  0  0  0
    4.7439   -0.6062    0.7231 C   0  0  0  0  0  0  0  0  0  0  0  0
    5.2552   -1.1137    1.9403 C   0  0  0  0  0  0  0  0  0  0  0  0
    6.5668   -1.3427    1.8060 N   0  0  0  0  0  0  0  0  0  0  0  0
    6.9840   -1.0251    0.5756 C   0  0  0  0  0  0  0  0  0  0  0  0
    8.1620   -1.0642   -0.0760 N   0  0  0  0  0  0  0  0  0  0  0  0
    8.3195   -0.6868   -1.3534 C   0  0  0  0  0  0  0  0  0  0  0  0
    7.2382   -0.2489   -2.0075 N   0  0  0  0  0  0  0  0  0  0  0  0
    6.0186   -0.1864   -1.4005 C   0  0  0  0  0  0  0  0  0  0  0  0
    4.8805    0.2609   -2.1347 N   0  0  0  0  0  0  0  0  0  0  0  0
    5.8478   -0.5662   -0.1014 C   0  0  0  0  0  0  0  0  0  0  0  0
   -3.8930    0.5033    1.2199 C   0  0  0  0  0  0  0  0  0  0  0  0
   -5.1628   -0.0084    1.3536 C   0  0  0  0  0  0  0  0  0  0  0  0
   -5.7847   -0.1304    2.5753 C   0  0  0  0  0  0  0  0  0  0  0  0
   -5.1013    0.2777    3.6961 C   0  0  0  0  0  0  0  0  0  0  0  0
   -3.8242    0.7932    3.5694 C   0  0  0  0  0  0  0  0  0  0  0  0
   -3.1832    0.9239    2.3546 C   0  0  0  0  0  0  0  0  0  0  0  0
   -5.7588    0.1472    4.9738 C   0  0  0  0  0  0  0  0  0  0  0  0
   -6.2994    0.0487    6.0057 N   0  0  0  0  0  0  0  0  0  0  0  0
   -1.9795    1.6578   -2.9519 H   0  0  0  0  0  0  0  0  0  0  0  0
   -3.1365    1.1129   -4.1820 H   0  0  0  0  0  0  0  0  0  0  0  0
   -3.7937    1.9209   -2.7428 H   0  0  0  0  0  0  0  0  0  0  0  0
   -2.0691   -0.5616   -2.3883 H   0  0  0  0  0  0  0  0  0  0  0  0
   -3.2033   -1.4265   -4.2432 H   0  0  0  0  0  0  0  0  0  0  0  0
   -4.1361   -1.9976   -2.8423 H   0  0  0  0  0  0  0  0  0  0  0  0
   -4.7989   -0.6278   -3.7583 H   0  0  0  0  0  0  0  0  0  0  0  0
   -3.9191   -1.2632   -0.8728 H   0  0  0  0  0  0  0  0  0  0  0  0
   -4.8822    0.1754   -1.3002 H   0  0  0  0  0  0  0  0  0  0  0  0
   -3.1479    1.7050   -0.3307 H   0  0  0  0  0  0  0  0  0  0  0  0
   -1.6678   -0.8660    0.3070 H   0  0  0  0  0  0  0  0  0  0  0  0
    0.2392   -1.4898    0.5560 H   0  0  0  0  0  0  0  0  0  0  0  0
    2.5371   -2.1683    0.8407 H   0  0  0  0  0  0  0  0  0  0  0  0
    3.7706    1.8616    0.1385 H   0  0  0  0  0  0  0  0  0  0  0  0
    1.5011    2.5149   -0.1505 H   0  0  0  0  0  0  0  0  0  0  0  0
    4.6235   -1.2691    2.8114 H   0  0  0  0  0  0  0  0  0  0  0  0
    7.2025   -1.7159    2.5386 H   0  0  0  0  0  0  0  0  0  0  0  0
    9.3066   -0.7381   -1.8404 H   0  0  0  0  0  0  0  0  0  0  0  0
    4.1751   -0.4573   -2.3999 H   0  0  0  0  0  0  0  0  0  0  0  0
    4.7018    1.2402   -2.4233 H   0  0  0  0  0  0  0  0  0  0  0  0
   -5.6999   -0.3296    0.4758 H   0  0  0  0  0  0  0  0  0  0  0  0
   -6.7950   -0.5456    2.6090 H   0  0  0  0  0  0  0  0  0  0  0  0
   -3.3126    1.1056    4.4698 H   0  0  0  0  0  0  0  0  0  0  0  0
   -2.1744    1.3317    2.2599 H   0  0  0  0  0  0  0  0  0  0  0  0
  1  2  1  0
  2  3  1  0
  2  4  1  0
  4  5  1  0
  5  6  1  0
  6  7  1  0
  7  8  2  0
  7  9  1  0
  9 10  2  0
 10 11  1  0
 11 12  2  0
 12 13  1  0
 13 14  2  0
 12 15  1  0
 15 16  2  0
 16 17  1  0
 17 18  1  0
 18 19  2  0
 19 20  1  0
 20 21  2  0
 21 22  1  0
 22 23  1  0
 22 24  2  0
  5 25  1  0
 25 26  2  0
 26 27  1  0
 27 28  2  0
 28 29  1  0
 29 30  2  0
 28 31  1  0
 31 32  3  0
 14  9  1  0
 24 15  1  0
 30 25  1  0
 24 18  1  0
  1 33  1  0
  1 34  1  0
  1 35  1  0
  2 36  1  0
  3 37  1  0
  3 38  1  0
  3 39  1  0
  4 40  1  0
  4 41  1  0
  5 42  1  6
  6 43  1  0
 10 44  1  0
 11 45  1  0
 13 46  1  0
 14 47  1  0
 16 48  1  0
 17 49  1  0
 20 50  1  0
 23 51  1  0
 23 52  1  0
 26 53  1  0
 27 54  1  0
 29 55  1  0
 30 56  1  0
M  END
$$$$
[H]c1nc2c(c([H])c(-c3c([H])nn(C([H])(C([H])([H])[H])C([H])([H])[H])c3[H])n2[H])c(-c2c([H])c([H])c(OC(F)(F)F)c([H])c2[H])c1[H]
     RDKit          3D

 45 48  0  0  0  0  0  0  0  0999 V2000
   -5.0710   -2.6488   -0.3494 C   0  0  0  0  0  0  0  0  0  0  0  0
   -4.8150   -1.8220    0.8868 C   0  0  0  0  0  0  0  0  0  0  0  0
   -6.1542   -1.4951    1.5103 C   0  0  0  0  0  0  0  0  0  0  0  0
   -4.1310   -0.5957    0.5243 N   0  0  0  0  0  0  0  0  0  0  0  0
   -2.7933   -0.4091    0.3314 C   0  0  0  0  0  0  0  0  0  0  0  0
   -2.6414    0.9216    0.0039 C   0  0  0  0  0  0  0  0  0  0  0  0
   -3.8855    1.5173    0.0038 C   0  0  0  0  0  0  0  0  0  0  0  0
   -4.7592    0.5652    0.3235 N   0  0  0  0  0  0  0  0  0  0  0  0
   -1.3808    1.6115   -0.2978 C   0  0  0  0  0  0  0  0  0  0  0  0
   -0.1246    1.0410   -0.3048 C   0  0  0  0  0  0  0  0  0  0  0  0
    0.7985    1.9985   -0.6310 C   0  0  0  0  0  0  0  0  0  0  0  0
    2.1668    1.9585   -0.7773 C   0  0  0  0  0  0  0  0  0  0  0  0
    2.8268    3.1410   -1.1307 C   0  0  0  0  0  0  0  0  0  0  0  0
    2.0953    4.2953   -1.3188 C   0  0  0  0  0  0  0  0  0  0  0  0
    0.7671    4.2794   -1.1636 N   0  0  0  0  0  0  0  0  0  0  0  0
    0.0798    3.1772   -0.8261 C   0  0  0  0  0  0  0  0  0  0  0  0
   -1.2192    2.9003   -0.6166 N   0  0  0  0  0  0  0  0  0  0  0  0
    2.9176    0.7309   -0.5620 C   0  0  0  0  0  0  0  0  0  0  0  0
    3.8525    0.3147   -1.4917 C   0  0  0  0  0  0  0  0  0  0  0  0
    4.5822   -0.8486   -1.2976 C   0  0  0  0  0  0  0  0  0  0  0  0
    4.4045   -1.6333   -0.1731 C   0  0  0  0  0  0  0  0  0  0  0  0
    5.1557   -2.7855   -0.0234 O   0  0  0  0  0  0  0  0  0  0  0  0
    6.4113   -2.8111    0.6239 C   0  0  0  0  0  0  0  0  0  0  0  0
    6.8981   -4.1038    0.6068 F   0  0  0  0  0  0  0  0  0  0  0  0
    7.3448   -2.0192   -0.0328 F   0  0  0  0  0  0  0  0  0  0  0  0
    6.3416   -2.3387    1.9225 F   0  0  0  0  0  0  0  0  0  0  0  0
    3.4747   -1.2212    0.7538 C   0  0  0  0  0  0  0  0  0  0  0  0
    2.7408   -0.0495    0.5568 C   0  0  0  0  0  0  0  0  0  0  0  0
   -5.3249   -2.0324   -1.2183 H   0  0  0  0  0  0  0  0  0  0  0  0
   -5.9304   -3.3154   -0.1152 H   0  0  0  0  0  0  0  0  0  0  0  0
   -4.1673   -3.2459   -0.6240 H   0  0  0  0  0  0  0  0  0  0  0  0
   -4.2232   -2.4283    1.6066 H   0  0  0  0  0  0  0  0  0  0  0  0
   -6.1379   -0.4284    1.8364 H   0  0  0  0  0  0  0  0  0  0  0  0
   -6.9610   -1.5653    0.7527 H   0  0  0  0  0  0  0  0  0  0  0  0
   -6.3660   -2.0941    2.4144 H   0  0  0  0  0  0  0  0  0  0  0  0
   -2.0246   -1.1683    0.4228 H   0  0  0  0  0  0  0  0  0  0  0  0
   -4.1016    2.5542   -0.2141 H   0  0  0  0  0  0  0  0  0  0  0  0
    0.1214    0.0078   -0.0946 H   0  0  0  0  0  0  0  0  0  0  0  0
    3.8861    3.0868   -1.2388 H   0  0  0  0  0  0  0  0  0  0  0  0
    2.6602    5.1913   -1.5940 H   0  0  0  0  0  0  0  0  0  0  0  0
   -1.9996    3.5998   -0.6928 H   0  0  0  0  0  0  0  0  0  0  0  0
    3.9962    0.9196   -2.3684 H   0  0  0  0  0  0  0  0  0  0  0  0
    5.3228   -1.1667   -2.0468 H   0  0  0  0  0  0  0  0  0  0  0  0
    3.3388   -1.8395    1.6336 H   0  0  0  0  0  0  0  0  0  0  0  0
    2.0281    0.2541    1.2921 H   0  0  0  0  0  0  0  0  0  0  0  0
  1  2  1  0
  2  3  1  0
  2  4  1  0
  4  5  1  0
  5  6  2  0
  6  7  1  0
  7  8  2  0
  6  9  1  0
  9 10  2  0
 10 11  1  0
 11 12  2  0
 12 13  1  0
 13 14  2  0
 14 15  1  0
 15 16  2  0
 16 17  1  0
 12 18  1  0
 18 19  2  0
 19 20  1  0
 20 21  2  0
 21 22  1  0
 22 23  1  0
 23 24  1  0
 23 25  1  0
 23 26  1  0
 21 27  1  0
 27 28  2  0
  8  4  1  0
 17  9  1  0
 28 18  1  0
 16 11  1  0
  1 29  1  0
  1 30  1  0
  1 31  1  0
  2 32  1  0
  3 33  1  0
  3 34  1  0
  3 35  1  0
  5 36  1  0
  7 37  1  0
 10 38  1  0
 13 39  1  0
 14 40  1  0
 17 41  1  0
 19 42  1  0
 20 43  1  0
 27 44  1  0
 28 45  1  0
M  END
$$$$
[H]c1nn(C([H])([H])[H])c([H])c1-c1c([H])c([H])c2nc(N([H])c3nc([H])c(N4C([H])([H])C([H])([H])N(C([H])([H])[H])C([H])([H])C4([H])[H])c([H])c3[H])nc([H])c2c1[H]
     RDKit          3D

 54 58  0  0  0  0  0  0  0  0999 V2000
   -6.4553    2.2613    0.3785 C   0  0  0  0  0  0  0  0  0  0  0  0
   -6.9942    1.0406    0.9483 N   0  0  0  0  0  0  0  0  0  0  0  0
   -6.1116    0.6320    2.0285 C   0  0  0  0  0  0  0  0  0  0  0  0
   -4.7514    0.4304    1.4158 C   0  0  0  0  0  0  0  0  0  0  0  0
   -4.8635   -0.7094    0.4909 N   0  0  0  0  0  0  0  0  0  0  0  0
   -6.1926   -1.1719    0.1931 C   0  0  0  0  0  0  0  0  0  0  0  0
   -7.1138    0.0042   -0.0553 C   0  0  0  0  0  0  0  0  0  0  0  0
   -3.6661   -1.2857   -0.0569 C   0  0  0  0  0  0  0  0  0  0  0  0
   -3.6849   -2.4021   -0.8551 C   0  0  0  0  0  0  0  0  0  0  0  0
   -2.4760   -2.8753   -1.3382 C   0  0  0  0  0  0  0  0  0  0  0  0
   -1.2558   -2.2829   -1.0582 C   0  0  0  0  0  0  0  0  0  0  0  0
   -0.0638   -2.8236   -1.5898 N   0  0  0  0  0  0  0  0  0  0  0  0
    1.1817   -2.2051   -1.2957 C   0  0  0  0  0  0  0  0  0  0  0  0
    2.3486   -2.6981   -1.7911 N   0  0  0  0  0  0  0  0  0  0  0  0
    3.5478   -2.1486   -1.5417 C   0  0  0  0  0  0  0  0  0  0  0  0
    3.6309   -1.0189   -0.7403 C   0  0  0  0  0  0  0  0  0  0  0  0
    4.8437   -0.4200   -0.4568 C   0  0  0  0  0  0  0  0  0  0  0  0
    4.9095    0.6989    0.3391 C   0  0  0  0  0  0  0  0  0  0  0  0
    3.7306    1.1892    0.8339 C   0  0  0  0  0  0  0  0  0  0  0  0
    2.5051    0.6109    0.5669 C   0  0  0  0  0  0  0  0  0  0  0  0
    2.4611   -0.5116   -0.2340 C   0  0  0  0  0  0  0  0  0  0  0  0
    1.2773   -1.1111   -0.5214 N   0  0  0  0  0  0  0  0  0  0  0  0
    6.1705    1.3392    0.6445 C   0  0  0  0  0  0  0  0  0  0  0  0
    6.4880    2.0165    1.8062 C   0  0  0  0  0  0  0  0  0  0  0  0
    7.7525    2.4556    1.6794 N   0  0  0  0  0  0  0  0  0  0  0  0
    8.2730    2.1084    0.5154 N   0  0  0  0  0  0  0  0  0  0  0  0
    9.6203    2.4121    0.0334 C   0  0  0  0  0  0  0  0  0  0  0  0
    7.3167    1.4221   -0.1336 C   0  0  0  0  0  0  0  0  0  0  0  0
   -1.2802   -1.1991   -0.2780 N   0  0  0  0  0  0  0  0  0  0  0  0
   -2.4339   -0.7129    0.2076 C   0  0  0  0  0  0  0  0  0  0  0  0
   -5.8806    2.7850    1.1827 H   0  0  0  0  0  0  0  0  0  0  0  0
   -7.2782    2.9397    0.1047 H   0  0  0  0  0  0  0  0  0  0  0  0
   -5.7690    2.0781   -0.4685 H   0  0  0  0  0  0  0  0  0  0  0  0
   -6.4297   -0.3274    2.4675 H   0  0  0  0  0  0  0  0  0  0  0  0
   -6.0425    1.4328    2.7713 H   0  0  0  0  0  0  0  0  0  0  0  0
   -4.3857    1.2824    0.8348 H   0  0  0  0  0  0  0  0  0  0  0  0
   -4.0406    0.1033    2.2095 H   0  0  0  0  0  0  0  0  0  0  0  0
   -6.1994   -1.7541   -0.7510 H   0  0  0  0  0  0  0  0  0  0  0  0
   -6.6026   -1.8179    0.9975 H   0  0  0  0  0  0  0  0  0  0  0  0
   -8.1673   -0.3985    0.0514 H   0  0  0  0  0  0  0  0  0  0  0  0
   -7.0107    0.3837   -1.0696 H   0  0  0  0  0  0  0  0  0  0  0  0
   -4.6196   -2.9083   -1.1038 H   0  0  0  0  0  0  0  0  0  0  0  0
   -2.4657   -3.7675   -1.9794 H   0  0  0  0  0  0  0  0  0  0  0  0
   -0.1023   -3.6680   -2.1918 H   0  0  0  0  0  0  0  0  0  0  0  0
    4.4714   -2.5360   -1.9312 H   0  0  0  0  0  0  0  0  0  0  0  0
    5.7581   -0.8284   -0.8601 H   0  0  0  0  0  0  0  0  0  0  0  0
    3.7319    2.0699    1.4655 H   0  0  0  0  0  0  0  0  0  0  0  0
    1.5702    1.0088    0.9664 H   0  0  0  0  0  0  0  0  0  0  0  0
    5.8815    2.1861    2.6689 H   0  0  0  0  0  0  0  0  0  0  0  0
   10.2378    2.7977    0.8656 H   0  0  0  0  0  0  0  0  0  0  0  0
   10.1161    1.5025   -0.3619 H   0  0  0  0  0  0  0  0  0  0  0  0
    9.5713    3.2204   -0.7284 H   0  0  0  0  0  0  0  0  0  0  0  0
    7.4019    0.9924   -1.1108 H   0  0  0  0  0  0  0  0  0  0  0  0
   -2.4603    0.1782    0.8503 H   0  0  0  0  0  0  0  0  0  0  0  0
  1  2  1  0
  2  3  1  0
  3  4  1  0
  4  5  1  0
  5  6  1  0
  6  7  1  0
  5  8  1  0
  8  9  2  0
  9 10  1  0
 10 11  2  0
 11 12  1  0
 12 13  1  0
 13 14  2  0
 14 15  1  0
 15 16  2  0
 16 17  1  0
 17 18  2  0
 18 19  1  0
 19 20  2  0
 20 21  1  0
 21 22  2  0
 18 23  1  0
 23 24  1  0
 24 25  2  0
 25 26  1  0
 26 27  1  0
 26 28  1  0
 11 29  1  0
 29 30  2  0
  7  2  1  0
 30  8  1  0
 22 13  1  0
 28 23  2  0
 21 16  1  0
  1 31  1  0
  1 32  1  0
  1 33  1  0
  3 34  1  0
  3 35  1  0
  4 36  1  0
  4 37  1  0
  6 38  1  0
  6 39  1  0
  7 40  1  0
  7 41  1  0
  9 42  1  0
 10 43  1  0
 12 44  1  0
 15 45  1  0
 17 46  1  0
 19 47  1  0
 20 48  1  0
 24 49  1  0
 27 50  1  0
 27 51  1  0
 27 52  1  0
 28 53  1  0
 30 54  1  0
M  END
$$$$
[H]c1c([H])c([H])c(C([H])([H])[C@@]2([H])C(=O)N3C([H])([H])C([H])([H])C([H])([H])[C@@]3([H])C(=O)N([H])[C@@]([H])(C([H])([H])c3c([H])n([H])c4c([H])c([H])c([H])c([H])c34)C(=O)N([H])[C@@]([H])(C([H])(C([H])([H])[H])C([H])([H])[H])C(=O)N2[H])c([H])c1[H]
     RDKit          3D

 74 78  0  0  0  0  0  0  0  0999 V2000
    2.1776   -4.2276   -0.9426 C   0  0  0  0  0  0  0  0  0  0  0  0
    1.7548   -3.0253   -0.1670 C   0  0  0  0  0  0  0  0  0  0  0  0
    0.7056   -3.3613    0.8710 C   0  0  0  0  0  0  0  0  0  0  0  0
    1.2781   -1.8968   -1.0335 C   0  0  2  0  0  0  0  0  0  0  0  0
    0.1365   -2.2330   -1.8573 N   0  0  0  0  0  0  0  0  0  0  0  0
   -0.9969   -1.4109   -2.0635 C   0  0  0  0  0  0  0  0  0  0  0  0
   -1.4612   -1.2427   -3.2173 O   0  0  0  0  0  0  0  0  0  0  0  0
   -1.7262   -0.6880   -0.9610 C   0  0  2  0  0  0  0  0  0  0  0  0
   -2.9718   -1.4951   -0.7107 C   0  0  0  0  0  0  0  0  0  0  0  0
   -3.8692   -1.0042    0.3252 C   0  0  0  0  0  0  0  0  0  0  0  0
   -3.8192   -1.4482    1.6524 C   0  0  0  0  0  0  0  0  0  0  0  0
   -4.7440   -0.7815    2.3764 N   0  0  0  0  0  0  0  0  0  0  0  0
   -5.4030    0.0830    1.5849 C   0  0  0  0  0  0  0  0  0  0  0  0
   -6.4253    0.9617    1.8564 C   0  0  0  0  0  0  0  0  0  0  0  0
   -6.9474    1.7429    0.8416 C   0  0  0  0  0  0  0  0  0  0  0  0
   -6.4245    1.6195   -0.4301 C   0  0  0  0  0  0  0  0  0  0  0  0
   -5.4001    0.7325   -0.6780 C   0  0  0  0  0  0  0  0  0  0  0  0
   -4.8610   -0.0547    0.3089 C   0  0  0  0  0  0  0  0  0  0  0  0
   -2.0852    0.6404   -1.3793 N   0  0  0  0  0  0  0  0  0  0  0  0
   -1.6929    1.8422   -0.7242 C   0  0  0  0  0  0  0  0  0  0  0  0
   -2.4358    2.8526   -0.8831 O   0  0  0  0  0  0  0  0  0  0  0  0
   -0.4931    1.9943    0.1194 C   0  0  2  0  0  0  0  0  0  0  0  0
   -0.7349    2.7575    1.3956 C   0  0  0  0  0  0  0  0  0  0  0  0
   -0.6485    4.1905    0.9508 C   0  0  0  0  0  0  0  0  0  0  0  0
    0.1231    4.1802   -0.3390 C   0  0  0  0  0  0  0  0  0  0  0  0
    0.5217    2.7995   -0.5292 N   0  0  0  0  0  0  0  0  0  0  0  0
    1.6326    2.2274   -1.1870 C   0  0  0  0  0  0  0  0  0  0  0  0
    2.0593    2.7233   -2.2864 O   0  0  0  0  0  0  0  0  0  0  0  0
    2.3746    1.0446   -0.6790 C   0  0  2  0  0  0  0  0  0  0  0  0
    3.7357    1.5905   -0.2291 C   0  0  0  0  0  0  0  0  0  0  0  0
    4.6083    0.5448    0.3101 C   0  0  0  0  0  0  0  0  0  0  0  0
    5.4746   -0.1716   -0.4865 C   0  0  0  0  0  0  0  0  0  0  0  0
    6.3000   -1.1623    0.0290 C   0  0  0  0  0  0  0  0  0  0  0  0
    6.2856   -1.4721    1.3740 C   0  0  0  0  0  0  0  0  0  0  0  0
    5.4212   -0.7591    2.1772 C   0  0  0  0  0  0  0  0  0  0  0  0
    4.5998    0.2281    1.6582 C   0  0  0  0  0  0  0  0  0  0  0  0
    2.6597    0.1389   -1.7666 N   0  0  0  0  0  0  0  0  0  0  0  0
    2.3501   -1.2362   -1.7984 C   0  0  0  0  0  0  0  0  0  0  0  0
    3.0627   -1.9615   -2.5555 O   0  0  0  0  0  0  0  0  0  0  0  0
    1.6033   -5.0968   -0.5528 H   0  0  0  0  0  0  0  0  0  0  0  0
    1.9534   -4.0850   -2.0178 H   0  0  0  0  0  0  0  0  0  0  0  0
    3.2722   -4.4144   -0.8077 H   0  0  0  0  0  0  0  0  0  0  0  0
    2.6333   -2.6491    0.4055 H   0  0  0  0  0  0  0  0  0  0  0  0
    1.2377   -3.9561    1.6625 H   0  0  0  0  0  0  0  0  0  0  0  0
    0.3902   -2.4157    1.3313 H   0  0  0  0  0  0  0  0  0  0  0  0
   -0.1189   -3.9608    0.4858 H   0  0  0  0  0  0  0  0  0  0  0  0
    0.8929   -1.1114   -0.3195 H   0  0  0  0  0  0  0  0  0  0  0  0
    0.1725   -3.1717   -2.3368 H   0  0  0  0  0  0  0  0  0  0  0  0
   -1.1046   -0.6832   -0.0364 H   0  0  0  0  0  0  0  0  0  0  0  0
   -2.6952   -2.5711   -0.5796 H   0  0  0  0  0  0  0  0  0  0  0  0
   -3.5387   -1.4963   -1.6940 H   0  0  0  0  0  0  0  0  0  0  0  0
   -3.1575   -2.2000    2.0543 H   0  0  0  0  0  0  0  0  0  0  0  0
   -4.9074   -0.9294    3.3992 H   0  0  0  0  0  0  0  0  0  0  0  0
   -6.8588    1.0843    2.8428 H   0  0  0  0  0  0  0  0  0  0  0  0
   -7.7506    2.4334    1.0512 H   0  0  0  0  0  0  0  0  0  0  0  0
   -6.8586    2.2481   -1.1981 H   0  0  0  0  0  0  0  0  0  0  0  0
   -5.0271    0.6495   -1.6681 H   0  0  0  0  0  0  0  0  0  0  0  0
   -2.6887    0.7745   -2.2471 H   0  0  0  0  0  0  0  0  0  0  0  0
   -0.0335    0.9993    0.3145 H   0  0  0  0  0  0  0  0  0  0  0  0
    0.0841    2.4787    2.0944 H   0  0  0  0  0  0  0  0  0  0  0  0
   -1.7330    2.4884    1.7932 H   0  0  0  0  0  0  0  0  0  0  0  0
   -0.1711    4.8419    1.7190 H   0  0  0  0  0  0  0  0  0  0  0  0
   -1.6835    4.5373    0.7185 H   0  0  0  0  0  0  0  0  0  0  0  0
    0.9467    4.8918   -0.2386 H   0  0  0  0  0  0  0  0  0  0  0  0
   -0.4963    4.5451   -1.1948 H   0  0  0  0  0  0  0  0  0  0  0  0
    1.9354    0.5643    0.1915 H   0  0  0  0  0  0  0  0  0  0  0  0
    3.5186    2.4123    0.5138 H   0  0  0  0  0  0  0  0  0  0  0  0
    4.1596    2.1023   -1.1198 H   0  0  0  0  0  0  0  0  0  0  0  0
    5.5072    0.0492   -1.5439 H   0  0  0  0  0  0  0  0  0  0  0  0
    6.9801   -1.7246   -0.5976 H   0  0  0  0  0  0  0  0  0  0  0  0
    6.9370   -2.2498    1.7642 H   0  0  0  0  0  0  0  0  0  0  0  0
    5.4093   -1.0013    3.2311 H   0  0  0  0  0  0  0  0  0  0  0  0
    3.9211    0.7798    2.3222 H   0  0  0  0  0  0  0  0  0  0  0  0
    3.1470    0.5739   -2.6057 H   0  0  0  0  0  0  0  0  0  0  0  0
  1  2  1  0
  2  3  1  0
  2  4  1  0
  4  5  1  0
  5  6  1  0
  6  7  2  0
  6  8  1  0
  8  9  1  0
  9 10  1  0
 10 11  2  0
 11 12  1  0
 12 13  1  0
 13 14  2  0
 14 15  1  0
 15 16  2  0
 16 17  1  0
 17 18  2  0
  8 19  1  0
 19 20  1  0
 20 21  2  0
 20 22  1  0
 22 23  1  0
 23 24  1  0
 24 25  1  0
 25 26  1  0
 26 27  1  0
 27 28  2  0
 27 29  1  0
 29 30  1  0
 30 31  1  0
 31 32  2  0
 32 33  1  0
 33 34  2  0
 34 35  1  0
 35 36  2  0
 29 37  1  0
 37 38  1  0
 38 39  2  0
 38  4  1  0
 18 10  1  0
 26 22  1  0
 36 31  1  0
 18 13  1  0
  1 40  1  0
  1 41  1  0
  1 42  1  0
  2 43  1  0
  3 44  1  0
  3 45  1  0
  3 46  1  0
  4 47  1  1
  5 48  1  0
  8 49  1  1
  9 50  1  0
  9 51  1  0
 11 52  1  0
 12 53  1  0
 14 54  1  0
 15 55  1  0
 16 56  1  0
 17 57  1  0
 19 58  1  0
 22 59  1  1
 23 60  1  0
 23 61  1  0
 24 62  1  0
 24 63  1  0
 25 64  1  0
 25 65  1  0
 29 66  1  1
 30 67  1  0
 30 68  1  0
 32 69  1  0
 33 70  1  0
 34 71  1  0
 35 72  1  0
 36 73  1  0
 37 74  1  0
M  END
$$$$
[H]c1c(-n2c([H])nnc2[H])c([H])c2c(C3([H])C([H])([H])C([H])([H])N(C([H])([H])[H])C([H])([H])C3([H])[H])c([H])n([H])c2c1[H]
     RDKit          3D

 40 43  0  0  0  0  0  0  0  0999 V2000
    4.6191    0.2727    2.1999 C   0  0  0  0  0  0  0  0  0  0  0  0
    3.3133    0.5147    1.5798 N   0  0  0  0  0  0  0  0  0  0  0  0
    2.6990   -0.7979    1.5108 C   0  0  0  0  0  0  0  0  0  0  0  0
    1.4068   -0.8466    0.7760 C   0  0  0  0  0  0  0  0  0  0  0  0
    1.2071    0.4005   -0.0398 C   0  0  0  0  0  0  0  0  0  0  0  0
    2.6104    0.5510   -0.7240 C   0  0  0  0  0  0  0  0  0  0  0  0
    3.5797    1.0730    0.2625 C   0  0  0  0  0  0  0  0  0  0  0  0
    0.2671    0.2249   -1.1568 C   0  0  0  0  0  0  0  0  0  0  0  0
    0.6302    0.1208   -2.4742 C   0  0  0  0  0  0  0  0  0  0  0  0
   -0.5120    0.1686   -3.2231 N   0  0  0  0  0  0  0  0  0  0  0  0
   -1.5654    0.2907   -2.4259 C   0  0  0  0  0  0  0  0  0  0  0  0
   -2.9426    0.2890   -2.6475 C   0  0  0  0  0  0  0  0  0  0  0  0
   -3.8219    0.3092   -1.5873 C   0  0  0  0  0  0  0  0  0  0  0  0
   -3.3559    0.3301   -0.2798 C   0  0  0  0  0  0  0  0  0  0  0  0
   -1.9838    0.3435   -0.0948 C   0  0  0  0  0  0  0  0  0  0  0  0
   -1.1086    0.3252   -1.1400 C   0  0  0  0  0  0  0  0  0  0  0  0
   -4.2118    0.2077    0.8181 N   0  0  0  0  0  0  0  0  0  0  0  0
   -4.9955   -0.9022    1.0097 C   0  0  0  0  0  0  0  0  0  0  0  0
   -5.6936   -0.7413    2.1551 N   0  0  0  0  0  0  0  0  0  0  0  0
   -5.3595    0.4202    2.6592 N   0  0  0  0  0  0  0  0  0  0  0  0
   -4.4386    1.0106    1.8314 C   0  0  0  0  0  0  0  0  0  0  0  0
    4.9640   -0.6870    1.7399 H   0  0  0  0  0  0  0  0  0  0  0  0
    4.5681    0.2450    3.2862 H   0  0  0  0  0  0  0  0  0  0  0  0
    5.3040    1.0459    1.7879 H   0  0  0  0  0  0  0  0  0  0  0  0
    2.5598   -1.0842    2.6073 H   0  0  0  0  0  0  0  0  0  0  0  0
    3.4452   -1.5316    1.1159 H   0  0  0  0  0  0  0  0  0  0  0  0
    1.3087   -1.7780    0.2322 H   0  0  0  0  0  0  0  0  0  0  0  0
    0.6047   -0.7888    1.6142 H   0  0  0  0  0  0  0  0  0  0  0  0
    0.9850    1.2645    0.5477 H   0  0  0  0  0  0  0  0  0  0  0  0
    2.8922   -0.5016   -1.0569 H   0  0  0  0  0  0  0  0  0  0  0  0
    2.5401    1.1625   -1.6338 H   0  0  0  0  0  0  0  0  0  0  0  0
    4.6167    0.7698   -0.0713 H   0  0  0  0  0  0  0  0  0  0  0  0
    3.5758    2.1708    0.2692 H   0  0  0  0  0  0  0  0  0  0  0  0
    1.5870    0.0132   -2.9557 H   0  0  0  0  0  0  0  0  0  0  0  0
   -0.5384    0.1172   -4.2582 H   0  0  0  0  0  0  0  0  0  0  0  0
   -3.2898    0.2721   -3.6658 H   0  0  0  0  0  0  0  0  0  0  0  0
   -4.8745    0.3097   -1.8060 H   0  0  0  0  0  0  0  0  0  0  0  0
   -1.6063    0.3775    0.8965 H   0  0  0  0  0  0  0  0  0  0  0  0
   -5.0030   -1.7127    0.3299 H   0  0  0  0  0  0  0  0  0  0  0  0
   -3.9824    1.9940    2.0113 H   0  0  0  0  0  0  0  0  0  0  0  0
  1  2  1  0
  2  3  1  0
  3  4  1  0
  4  5  1  0
  5  6  1  0
  6  7  1  0
  5  8  1  0
  8  9  2  0
  9 10  1  0
 10 11  1  0
 11 12  2  0
 12 13  1  0
 13 14  2  0
 14 15  1  0
 15 16  2  0
 14 17  1  0
 17 18  1  0
 18 19  2  0
 19 20  1  0
 20 21  2  0
  7  2  1  0
 16  8  1  0
 21 17  1  0
 16 11  1  0
  1 22  1  0
  1 23  1  0
  1 24  1  0
  3 25  1  0
  3 26  1  0
  4 27  1  0
  4 28  1  0
  5 29  1  0
  6 30  1  0
  6 31  1  0
  7 32  1  0
  7 33  1  0
  9 34  1  0
 10 35  1  0
 12 36  1  0
 13 37  1  0
 15 38  1  0
 18 39  1  0
 21 40  1  0
M  END
$$$$
[H]c1nc(N([H])c2c([H])c([H])c(N3C([H])([H])C([H])([H])C([H])(N4C([H])([H])C([H])([H])C([H])([H])C([H])([H])C4([H])[H])C([H])([H])C3([H])[H])c([H])c2OC([H])([H])[H])nc(N([H])c2c([H])c([H])c([H])c([H])c2C(F)(F)F)c1Cl
     RDKit          3D

 71 75  0  0  0  0  0  0  0  0999 V2000
   -0.5933   -5.3398    1.3282 C   0  0  0  0  0  0  0  0  0  0  0  0
    0.5035   -4.4888    1.5834 O   0  0  0  0  0  0  0  0  0  0  0  0
    0.4048   -3.1556    1.2707 C   0  0  0  0  0  0  0  0  0  0  0  0
   -0.7623   -2.6770    0.7159 C   0  0  0  0  0  0  0  0  0  0  0  0
   -0.9307   -1.3562    0.3767 C   0  0  0  0  0  0  0  0  0  0  0  0
    0.1692   -0.5270    0.6357 C   0  0  0  0  0  0  0  0  0  0  0  0
    1.3317   -1.0152    1.1922 C   0  0  0  0  0  0  0  0  0  0  0  0
    1.5123   -2.3303    1.5334 C   0  0  0  0  0  0  0  0  0  0  0  0
    2.6598   -2.8842    2.1420 N   0  0  0  0  0  0  0  0  0  0  0  0
    3.9439   -2.3338    2.2796 C   0  0  0  0  0  0  0  0  0  0  0  0
    4.8326   -3.1015    2.9729 N   0  0  0  0  0  0  0  0  0  0  0  0
    6.1041   -2.7718    3.1861 C   0  0  0  0  0  0  0  0  0  0  0  0
    6.5795   -1.5959    2.6906 C   0  0  0  0  0  0  0  0  0  0  0  0
    8.2378   -1.0791    2.9198 Cl  0  0  0  0  0  0  0  0  0  0  0  0
    5.6877   -0.7763    1.9667 C   0  0  0  0  0  0  0  0  0  0  0  0
    6.1641    0.4496    1.4870 N   0  0  0  0  0  0  0  0  0  0  0  0
    5.5543    1.4303    0.6796 C   0  0  0  0  0  0  0  0  0  0  0  0
    4.3948    1.2186   -0.0581 C   0  0  0  0  0  0  0  0  0  0  0  0
    3.8423    2.1962   -0.8570 C   0  0  0  0  0  0  0  0  0  0  0  0
    4.4415    3.4249   -0.9421 C   0  0  0  0  0  0  0  0  0  0  0  0
    5.5874    3.6298   -0.2145 C   0  0  0  0  0  0  0  0  0  0  0  0
    6.1824    2.6868    0.6009 C   0  0  0  0  0  0  0  0  0  0  0  0
    7.4246    3.0070    1.3176 C   0  0  0  0  0  0  0  0  0  0  0  0
    7.7212    4.3633    1.0379 F   0  0  0  0  0  0  0  0  0  0  0  0
    7.3810    2.9213    2.6686 F   0  0  0  0  0  0  0  0  0  0  0  0
    8.5419    2.3428    0.8289 F   0  0  0  0  0  0  0  0  0  0  0  0
    4.4278   -1.2016    1.8103 N   0  0  0  0  0  0  0  0  0  0  0  0
   -2.1121   -0.8037   -0.1812 N   0  0  0  0  0  0  0  0  0  0  0  0
   -3.3719   -1.4092    0.0287 C   0  0  0  0  0  0  0  0  0  0  0  0
   -4.4105   -1.0880   -1.0052 C   0  0  0  0  0  0  0  0  0  0  0  0
   -4.2526    0.2351   -1.6804 C   0  0  0  0  0  0  0  0  0  0  0  0
   -2.8390    0.3315   -2.1901 C   0  0  0  0  0  0  0  0  0  0  0  0
   -1.9267    0.4113   -0.9854 C   0  0  0  0  0  0  0  0  0  0  0  0
   -4.5554    1.3690   -0.8512 N   0  0  0  0  0  0  0  0  0  0  0  0
   -5.9355    1.3585   -0.4074 C   0  0  0  0  0  0  0  0  0  0  0  0
   -6.8783    1.1154   -1.5451 C   0  0  0  0  0  0  0  0  0  0  0  0
   -6.7324    2.1457   -2.6397 C   0  0  0  0  0  0  0  0  0  0  0  0
   -5.2996    2.5116   -2.9026 C   0  0  0  0  0  0  0  0  0  0  0  0
   -4.4343    2.5665   -1.6824 C   0  0  0  0  0  0  0  0  0  0  0  0
   -0.4057   -6.3801    1.6053 H   0  0  0  0  0  0  0  0  0  0  0  0
   -1.5352   -4.9813    1.7918 H   0  0  0  0  0  0  0  0  0  0  0  0
   -0.8056   -5.3311    0.2160 H   0  0  0  0  0  0  0  0  0  0  0  0
   -1.5950   -3.3765    0.5282 H   0  0  0  0  0  0  0  0  0  0  0  0
    0.0700    0.5154    0.3862 H   0  0  0  0  0  0  0  0  0  0  0  0
    2.1644   -0.3399    1.4093 H   0  0  0  0  0  0  0  0  0  0  0  0
    2.4963   -3.8742    2.5565 H   0  0  0  0  0  0  0  0  0  0  0  0
    6.7929   -3.4030    3.7436 H   0  0  0  0  0  0  0  0  0  0  0  0
    7.1772    0.6734    1.7903 H   0  0  0  0  0  0  0  0  0  0  0  0
    3.9103    0.2279   -0.0303 H   0  0  0  0  0  0  0  0  0  0  0  0
    2.9351    1.9414   -1.3959 H   0  0  0  0  0  0  0  0  0  0  0  0
    4.0067    4.2065   -1.5759 H   0  0  0  0  0  0  0  0  0  0  0  0
    6.0594    4.6216   -0.2916 H   0  0  0  0  0  0  0  0  0  0  0  0
   -3.7393   -1.0330    1.0345 H   0  0  0  0  0  0  0  0  0  0  0  0
   -3.2708   -2.4945    0.1669 H   0  0  0  0  0  0  0  0  0  0  0  0
   -4.3354   -1.8692   -1.8043 H   0  0  0  0  0  0  0  0  0  0  0  0
   -5.4120   -1.2399   -0.5473 H   0  0  0  0  0  0  0  0  0  0  0  0
   -4.9086    0.2062   -2.5859 H   0  0  0  0  0  0  0  0  0  0  0  0
   -2.6434    1.1417   -2.8856 H   0  0  0  0  0  0  0  0  0  0  0  0
   -2.6122   -0.6643   -2.6724 H   0  0  0  0  0  0  0  0  0  0  0  0
   -2.1421    1.3057   -0.3845 H   0  0  0  0  0  0  0  0  0  0  0  0
   -0.8972    0.4948   -1.3889 H   0  0  0  0  0  0  0  0  0  0  0  0
   -6.1419    2.3849    0.0091 H   0  0  0  0  0  0  0  0  0  0  0  0
   -6.1287    0.6523    0.3993 H   0  0  0  0  0  0  0  0  0  0  0  0
   -6.8534    0.0920   -1.9240 H   0  0  0  0  0  0  0  0  0  0  0  0
   -7.9195    1.2541   -1.1289 H   0  0  0  0  0  0  0  0  0  0  0  0
   -7.1084    1.6600   -3.5751 H   0  0  0  0  0  0  0  0  0  0  0  0
   -7.3990    3.0028   -2.4504 H   0  0  0  0  0  0  0  0  0  0  0  0
   -5.3240    3.5599   -3.3220 H   0  0  0  0  0  0  0  0  0  0  0  0
   -4.8376    1.8963   -3.7285 H   0  0  0  0  0  0  0  0  0  0  0  0
   -4.7779    3.4412   -1.0712 H   0  0  0  0  0  0  0  0  0  0  0  0
   -3.4153    2.7951   -1.9856 H   0  0  0  0  0  0  0  0  0  0  0  0
  1  2  1  0
  2  3  1  0
  3  4  2  0
  4  5  1  0
  5  6  2  0
  6  7  1  0
  7  8  2  0
  8  9  1  0
  9 10  1  0
 10 11  2  0
 11 12  1  0
 12 13  2  0
 13 14  1  0
 13 15  1  0
 15 16  1  0
 16 17  1  0
 17 18  2  0
 18 19  1  0
 19 20  2  0
 20 21  1  0
 21 22  2  0
 22 23  1  0
 23 24  1  0
 23 25  1  0
 23 26  1  0
 15 27  2  0
  5 28  1  0
 28 29  1  0
 29 30  1  0
 30 31  1  0
 31 32  1  0
 32 33  1  0
 31 34  1  0
 34 35  1  0
 35 36  1  0
 36 37  1  0
 37 38  1  0
 38 39  1  0
  8  3  1  0
 27 10  1  0
 33 28  1  0
 39 34  1  0
 22 17  1  0
  1 40  1  0
  1 41  1  0
  1 42  1  0
  4 43  1  0
  6 44  1  0
  7 45  1  0
  9 46  1  0
 12 47  1  0
 16 48  1  0
 18 49  1  0
 19 50  1  0
 20 51  1  0
 21 52  1  0
 29 53  1  0
 29 54  1  0
 30 55  1  0
 30 56  1  0
 31 57  1  0
 32 58  1  0
 32 59  1  0
 33 60  1  0
 33 61  1  0
 35 62  1  0
 35 63  1  0
 36 64  1  0
 36 65  1  0
 37 66  1  0
 37 67  1  0
 38 68  1  0
 38 69  1  0
 39 70  1  0
 39 71  1  0
M  END
$$$$
[H]O[C@]([H])(c1c([H])c([H])c([H])c([H])c1[H])[C@@]1([H])N(C(=O)N([H])c2c([H])c([H])c(Cl)c(C(F)(F)F)c2[H])C([H])([H])[C@]([H])(C([H])([H])[H])C1([H])[H]
     RDKit          3D

 48 50  0  0  0  0  0  0  0  0999 V2000
   -1.3569   -4.3961   -1.1651 C   0  0  0  0  0  0  0  0  0  0  0  0
   -1.6875   -2.9839   -0.7138 C   0  0  2  0  0  0  0  0  0  0  0  0
   -2.2030   -2.1459   -1.8496 C   0  0  0  0  0  0  0  0  0  0  0  0
   -2.0012   -0.7476   -1.3048 C   0  0  2  0  0  0  0  0  0  0  0  0
   -0.6902   -0.8701   -0.6988 N   0  0  0  0  0  0  0  0  0  0  0  0
   -0.4700   -2.2343   -0.2695 C   0  0  0  0  0  0  0  0  0  0  0  0
    0.3156    0.1505   -0.5242 C   0  0  0  0  0  0  0  0  0  0  0  0
    0.0391    1.2718   -0.9506 O   0  0  0  0  0  0  0  0  0  0  0  0
    1.5263   -0.1592    0.1013 N   0  0  0  0  0  0  0  0  0  0  0  0
    2.6203    0.7028    0.3639 C   0  0  0  0  0  0  0  0  0  0  0  0
    2.5369    2.0661    0.2684 C   0  0  0  0  0  0  0  0  0  0  0  0
    3.6609    2.8648    0.5226 C   0  0  0  0  0  0  0  0  0  0  0  0
    4.8694    2.3084    0.8725 C   0  0  0  0  0  0  0  0  0  0  0  0
    6.2898    3.2868    1.1954 Cl  0  0  0  0  0  0  0  0  0  0  0  0
    4.9722    0.9392    0.9740 C   0  0  0  0  0  0  0  0  0  0  0  0
    3.8580    0.1857    0.7197 C   0  0  0  0  0  0  0  0  0  0  0  0
    6.2821    0.3300    1.3538 C   0  0  0  0  0  0  0  0  0  0  0  0
    6.1880   -1.0433    1.4035 F   0  0  0  0  0  0  0  0  0  0  0  0
    6.6998    0.7682    2.5944 F   0  0  0  0  0  0  0  0  0  0  0  0
    7.2209    0.6646    0.4028 F   0  0  0  0  0  0  0  0  0  0  0  0
   -3.1083   -0.4488   -0.3659 C   0  0  2  0  0  0  0  0  0  0  0  0
   -4.3428   -0.3732   -1.0641 O   0  0  0  0  0  0  0  0  0  0  0  0
   -3.0251    0.8301    0.3627 C   0  0  0  0  0  0  0  0  0  0  0  0
   -3.3873    2.0524   -0.1575 C   0  0  0  0  0  0  0  0  0  0  0  0
   -3.2656    3.1969    0.6208 C   0  0  0  0  0  0  0  0  0  0  0  0
   -2.7908    3.1644    1.9117 C   0  0  0  0  0  0  0  0  0  0  0  0
   -2.4242    1.9353    2.4412 C   0  0  0  0  0  0  0  0  0  0  0  0
   -2.5508    0.8105    1.6571 C   0  0  0  0  0  0  0  0  0  0  0  0
   -1.4645   -5.0467   -0.2716 H   0  0  0  0  0  0  0  0  0  0  0  0
   -2.1050   -4.7350   -1.9039 H   0  0  0  0  0  0  0  0  0  0  0  0
   -0.3231   -4.4833   -1.5472 H   0  0  0  0  0  0  0  0  0  0  0  0
   -2.3725   -3.0283    0.1663 H   0  0  0  0  0  0  0  0  0  0  0  0
   -3.2674   -2.3498   -2.0832 H   0  0  0  0  0  0  0  0  0  0  0  0
   -1.5423   -2.3464   -2.7207 H   0  0  0  0  0  0  0  0  0  0  0  0
   -1.9787   -0.0842   -2.1985 H   0  0  0  0  0  0  0  0  0  0  0  0
   -0.2884   -2.3044    0.8225 H   0  0  0  0  0  0  0  0  0  0  0  0
    0.3935   -2.6624   -0.8273 H   0  0  0  0  0  0  0  0  0  0  0  0
    1.6983   -1.1687    0.4517 H   0  0  0  0  0  0  0  0  0  0  0  0
    1.6239    2.5987    0.0086 H   0  0  0  0  0  0  0  0  0  0  0  0
    3.5747    3.9336    0.4418 H   0  0  0  0  0  0  0  0  0  0  0  0
    3.9708   -0.8866    0.8072 H   0  0  0  0  0  0  0  0  0  0  0  0
   -3.2401   -1.2505    0.3605 H   0  0  0  0  0  0  0  0  0  0  0  0
   -4.1722   -0.3150   -2.0345 H   0  0  0  0  0  0  0  0  0  0  0  0
   -3.7558    2.0821   -1.1575 H   0  0  0  0  0  0  0  0  0  0  0  0
   -3.5522    4.1692    0.2113 H   0  0  0  0  0  0  0  0  0  0  0  0
   -2.6837    4.0253    2.5399 H   0  0  0  0  0  0  0  0  0  0  0  0
   -2.0461    1.8623    3.4511 H   0  0  0  0  0  0  0  0  0  0  0  0
   -2.2448   -0.1360    2.1300 H   0  0  0  0  0  0  0  0  0  0  0  0
  1  2  1  0
  2  3  1  0
  3  4  1  0
  4  5  1  0
  5  6  1  0
  5  7  1  0
  7  8  2  0
  7  9  1  0
  9 10  1  0
 10 11  2  0
 11 12  1  0
 12 13  2  0
 13 14  1  0
 13 15  1  0
 15 16  2  0
 15 17  1  0
 17 18  1  0
 17 19  1  0
 17 20  1  0
  4 21  1  0
 21 22  1  0
 21 23  1  0
 23 24  2  0
 24 25  1  0
 25 26  2  0
 26 27  1  0
 27 28  2  0
  6  2  1  0
 16 10  1  0
 28 23  1  0
  1 29  1  0
  1 30  1  0
  1 31  1  0
  2 32  1  1
  3 33  1  0
  3 34  1  0
  4 35  1  6
  6 36  1  0
  6 37  1  0
  9 38  1  0
 11 39  1  0
 12 40  1  0
 16 41  1  0
 21 42  1  1
 22 43  1  0
 24 44  1  0
 25 45  1  0
 26 46  1  0
 27 47  1  0
 28 48  1  0
M  END
$$$$
[H]c1nc2c([H])c(OC([H])([H])C([H])([H])C([H])([H])N3C([H])([H])C([H])([H])OC([H])([H])C3([H])[H])c(OC([H])([H])[H])c([H])c2c(Oc2c([H])c([H])c(N([H])C(=O)c3c([H])n(C([H])([H])[H])c(=O)n(C([H])([H])[H])c3=O)c([H])c2F)c1[H]
     RDKit          3D

 75 79  0  0  0  0  0  0  0  0999 V2000
   -2.7754    3.0945    2.2291 C   0  0  0  0  0  0  0  0  0  0  0  0
   -3.7086    2.1591    1.7465 O   0  0  0  0  0  0  0  0  0  0  0  0
   -3.2624    1.0347    1.0774 C   0  0  0  0  0  0  0  0  0  0  0  0
   -1.9047    0.8388    0.8864 C   0  0  0  0  0  0  0  0  0  0  0  0
   -1.4247   -0.2671    0.2257 C   0  0  0  0  0  0  0  0  0  0  0  0
   -0.0527   -0.4612    0.0355 C   0  0  0  0  0  0  0  0  0  0  0  0
    0.7665    0.5223    0.5478 O   0  0  0  0  0  0  0  0  0  0  0  0
    2.1460    0.5645    0.4380 C   0  0  0  0  0  0  0  0  0  0  0  0
    2.9725    0.5001    1.5369 C   0  0  0  0  0  0  0  0  0  0  0  0
    4.3676    0.5449    1.3928 C   0  0  0  0  0  0  0  0  0  0  0  0
    4.9837    0.6524    0.1767 C   0  0  0  0  0  0  0  0  0  0  0  0
    6.3815    0.6626   -0.0624 N   0  0  0  0  0  0  0  0  0  0  0  0
    7.3630    0.1823    0.7871 C   0  0  0  0  0  0  0  0  0  0  0  0
    7.0374   -0.3394    1.8983 O   0  0  0  0  0  0  0  0  0  0  0  0
    8.7859    0.2163    0.5166 C   0  0  0  0  0  0  0  0  0  0  0  0
    9.6495   -0.6171    1.2703 C   0  0  0  0  0  0  0  0  0  0  0  0
   10.9542   -0.6690    1.0729 N   0  0  0  0  0  0  0  0  0  0  0  0
   11.8307   -1.5407    1.8636 C   0  0  0  0  0  0  0  0  0  0  0  0
   11.5132    0.0961    0.1168 C   0  0  0  0  0  0  0  0  0  0  0  0
   12.7451    0.0701   -0.0955 O   0  0  0  0  0  0  0  0  0  0  0  0
   10.7344    0.8951   -0.6144 N   0  0  0  0  0  0  0  0  0  0  0  0
   11.3693    1.7199   -1.6535 C   0  0  0  0  0  0  0  0  0  0  0  0
    9.3954    0.9649   -0.4296 C   0  0  0  0  0  0  0  0  0  0  0  0
    8.7870    1.7558   -1.1816 O   0  0  0  0  0  0  0  0  0  0  0  0
    4.1152    0.7173   -0.9217 C   0  0  0  0  0  0  0  0  0  0  0  0
    2.7447    0.6755   -0.7982 C   0  0  0  0  0  0  0  0  0  0  0  0
    1.9593    0.7658   -1.9113 F   0  0  0  0  0  0  0  0  0  0  0  0
    0.3376   -1.5794   -0.6253 C   0  0  0  0  0  0  0  0  0  0  0  0
   -0.6108   -2.4739   -1.0819 C   0  0  0  0  0  0  0  0  0  0  0  0
   -1.9270   -2.2800   -0.8951 N   0  0  0  0  0  0  0  0  0  0  0  0
   -2.3493   -1.1746   -0.2391 C   0  0  0  0  0  0  0  0  0  0  0  0
   -3.7218   -0.9715   -0.0422 C   0  0  0  0  0  0  0  0  0  0  0  0
   -4.1935    0.1199    0.6082 C   0  0  0  0  0  0  0  0  0  0  0  0
   -5.5032    0.3691    0.8207 O   0  0  0  0  0  0  0  0  0  0  0  0
   -6.5549   -0.4085    0.3691 C   0  0  0  0  0  0  0  0  0  0  0  0
   -6.7048   -0.4447   -1.1140 C   0  0  0  0  0  0  0  0  0  0  0  0
   -7.8452   -1.3496   -1.5522 C   0  0  0  0  0  0  0  0  0  0  0  0
   -9.0760   -0.9281   -1.0357 N   0  0  0  0  0  0  0  0  0  0  0  0
   -9.6712    0.2591   -1.4840 C   0  0  0  0  0  0  0  0  0  0  0  0
  -10.2816    0.9765   -0.2862 C   0  0  0  0  0  0  0  0  0  0  0  0
  -10.4612    0.1477    0.8044 O   0  0  0  0  0  0  0  0  0  0  0  0
  -10.9151   -1.1158    0.5039 C   0  0  0  0  0  0  0  0  0  0  0  0
   -9.8490   -1.8454   -0.3022 C   0  0  0  0  0  0  0  0  0  0  0  0
   -2.1703    3.5705    1.4079 H   0  0  0  0  0  0  0  0  0  0  0  0
   -3.2719    3.8838    2.8277 H   0  0  0  0  0  0  0  0  0  0  0  0
   -2.0219    2.6232    2.9011 H   0  0  0  0  0  0  0  0  0  0  0  0
   -1.1988    1.5657    1.2610 H   0  0  0  0  0  0  0  0  0  0  0  0
    2.5565    0.4143    2.5322 H   0  0  0  0  0  0  0  0  0  0  0  0
    4.9732    0.5083    2.2919 H   0  0  0  0  0  0  0  0  0  0  0  0
    6.6598    1.0772   -0.9900 H   0  0  0  0  0  0  0  0  0  0  0  0
    9.2109   -1.2354    2.0395 H   0  0  0  0  0  0  0  0  0  0  0  0
   11.6388   -2.6182    1.6358 H   0  0  0  0  0  0  0  0  0  0  0  0
   11.6387   -1.4138    2.9598 H   0  0  0  0  0  0  0  0  0  0  0  0
   12.8936   -1.3106    1.6448 H   0  0  0  0  0  0  0  0  0  0  0  0
   10.7251    2.5558   -1.9369 H   0  0  0  0  0  0  0  0  0  0  0  0
   11.6031    1.0658   -2.5256 H   0  0  0  0  0  0  0  0  0  0  0  0
   12.2872    2.1208   -1.1862 H   0  0  0  0  0  0  0  0  0  0  0  0
    4.5730    0.8045   -1.9139 H   0  0  0  0  0  0  0  0  0  0  0  0
    1.3783   -1.7942   -0.7940 H   0  0  0  0  0  0  0  0  0  0  0  0
   -0.3055   -3.3813   -1.6182 H   0  0  0  0  0  0  0  0  0  0  0  0
   -4.3935   -1.7299   -0.4003 H   0  0  0  0  0  0  0  0  0  0  0  0
   -7.4806   -0.0417    0.8811 H   0  0  0  0  0  0  0  0  0  0  0  0
   -6.4822   -1.4827    0.7135 H   0  0  0  0  0  0  0  0  0  0  0  0
   -6.9914    0.6175   -1.4445 H   0  0  0  0  0  0  0  0  0  0  0  0
   -5.8198   -0.6614   -1.7055 H   0  0  0  0  0  0  0  0  0  0  0  0
   -7.5759   -2.3937   -1.2315 H   0  0  0  0  0  0  0  0  0  0  0  0
   -7.8742   -1.2813   -2.6684 H   0  0  0  0  0  0  0  0  0  0  0  0
  -10.4866    0.0810   -2.2417 H   0  0  0  0  0  0  0  0  0  0  0  0
   -8.9239    0.9532   -1.9156 H   0  0  0  0  0  0  0  0  0  0  0  0
   -9.5917    1.8042    0.0546 H   0  0  0  0  0  0  0  0  0  0  0  0
  -11.2152    1.4467   -0.6237 H   0  0  0  0  0  0  0  0  0  0  0  0
  -11.8718   -1.1081   -0.0710 H   0  0  0  0  0  0  0  0  0  0  0  0
  -11.1019   -1.6471    1.4443 H   0  0  0  0  0  0  0  0  0  0  0  0
  -10.2968   -2.6324   -0.9486 H   0  0  0  0  0  0  0  0  0  0  0  0
   -9.2108   -2.4000    0.4458 H   0  0  0  0  0  0  0  0  0  0  0  0
  1  2  1  0
  2  3  1  0
  3  4  2  0
  4  5  1  0
  5  6  2  0
  6  7  1  0
  7  8  1  0
  8  9  2  0
  9 10  1  0
 10 11  2  0
 11 12  1  0
 12 13  1  0
 13 14  2  0
 13 15  1  0
 15 16  2  0
 16 17  1  0
 17 18  1  0
 17 19  1  0
 19 20  2  0
 19 21  1  0
 21 22  1  0
 21 23  1  0
 23 24  2  0
 11 25  1  0
 25 26  2  0
 26 27  1  0
  6 28  1  0
 28 29  2  0
 29 30  1  0
 30 31  2  0
 31 32  1  0
 32 33  2  0
 33 34  1  0
 34 35  1  0
 35 36  1  0
 36 37  1  0
 37 38  1  0
 38 39  1  0
 39 40  1  0
 40 41  1  0
 41 42  1  0
 42 43  1  0
 33  3  1  0
 43 38  1  0
 31  5  1  0
 26  8  1  0
 23 15  1  0
  1 44  1  0
  1 45  1  0
  1 46  1  0
  4 47  1  0
  9 48  1  0
 10 49  1  0
 12 50  1  0
 16 51  1  0
 18 52  1  0
 18 53  1  0
 18 54  1  0
 22 55  1  0
 22 56  1  0
 22 57  1  0
 25 58  1  0
 28 59  1  0
 29 60  1  0
 32 61  1  0
 35 62  1  0
 35 63  1  0
 36 64  1  0
 36 65  1  0
 37 66  1  0
 37 67  1  0
 39 68  1  0
 39 69  1  0
 40 70  1  0
 40 71  1  0
 42 72  1  0
 42 73  1  0
 43 74  1  0
 43 75  1  0
M  END
$$$$
[H]c1nc2c([H])c(OC([H])([H])[H])c(OC([H])([H])[H])c([H])c2c(Oc2c([H])c([H])c(N([H])C(=O)N([H])c3c([H])c([H])c(F)c([H])c3[H])c([H])c2[H])c1[H]
     RDKit          3D

 52 55  0  0  0  0  0  0  0  0999 V2000
   -7.4612    1.9265   -1.6826 C   0  0  0  0  0  0  0  0  0  0  0  0
   -6.2880    1.9036   -0.8628 O   0  0  0  0  0  0  0  0  0  0  0  0
   -5.4848    0.7745   -0.8578 C   0  0  0  0  0  0  0  0  0  0  0  0
   -5.8089   -0.3113   -1.6298 C   0  0  0  0  0  0  0  0  0  0  0  0
   -4.9950   -1.4191   -1.6074 C   0  0  0  0  0  0  0  0  0  0  0  0
   -5.2840   -2.5189   -2.3310 N   0  0  0  0  0  0  0  0  0  0  0  0
   -4.5389   -3.6341   -2.3319 C   0  0  0  0  0  0  0  0  0  0  0  0
   -3.4128   -3.6567   -1.5497 C   0  0  0  0  0  0  0  0  0  0  0  0
   -3.0464   -2.5581   -0.7738 C   0  0  0  0  0  0  0  0  0  0  0  0
   -1.9298   -2.5775    0.0013 O   0  0  0  0  0  0  0  0  0  0  0  0
   -0.7712   -1.8910   -0.0777 C   0  0  0  0  0  0  0  0  0  0  0  0
    0.1392   -1.9247    0.9483 C   0  0  0  0  0  0  0  0  0  0  0  0
    1.3545   -1.2127    0.8706 C   0  0  0  0  0  0  0  0  0  0  0  0
    1.6731   -0.4673   -0.2192 C   0  0  0  0  0  0  0  0  0  0  0  0
    2.8606    0.2716   -0.4079 N   0  0  0  0  0  0  0  0  0  0  0  0
    4.0216    0.2385    0.4067 C   0  0  0  0  0  0  0  0  0  0  0  0
    4.1357   -0.4724    1.4165 O   0  0  0  0  0  0  0  0  0  0  0  0
    5.1157    1.0563    0.0589 N   0  0  0  0  0  0  0  0  0  0  0  0
    6.3485    1.1912    0.7113 C   0  0  0  0  0  0  0  0  0  0  0  0
    7.4153    1.8069    0.0403 C   0  0  0  0  0  0  0  0  0  0  0  0
    8.6385    1.9961    0.5987 C   0  0  0  0  0  0  0  0  0  0  0  0
    8.8596    1.5695    1.8836 C   0  0  0  0  0  0  0  0  0  0  0  0
   10.0726    1.7513    2.4516 F   0  0  0  0  0  0  0  0  0  0  0  0
    7.8719    0.9653    2.5933 C   0  0  0  0  0  0  0  0  0  0  0  0
    6.6217    0.7819    1.9978 C   0  0  0  0  0  0  0  0  0  0  0  0
    0.7431   -0.4338   -1.2648 C   0  0  0  0  0  0  0  0  0  0  0  0
   -0.4377   -1.1310   -1.1786 C   0  0  0  0  0  0  0  0  0  0  0  0
   -3.8536   -1.4405   -0.8114 C   0  0  0  0  0  0  0  0  0  0  0  0
   -3.5469   -0.3192   -0.0318 C   0  0  0  0  0  0  0  0  0  0  0  0
   -4.3653    0.7962   -0.0538 C   0  0  0  0  0  0  0  0  0  0  0  0
   -4.0876    1.9242    0.7070 O   0  0  0  0  0  0  0  0  0  0  0  0
   -2.9287    1.9055    1.5186 C   0  0  0  0  0  0  0  0  0  0  0  0
   -7.0955    1.7601   -2.7331 H   0  0  0  0  0  0  0  0  0  0  0  0
   -8.1114    1.0932   -1.3676 H   0  0  0  0  0  0  0  0  0  0  0  0
   -7.9620    2.8970   -1.6471 H   0  0  0  0  0  0  0  0  0  0  0  0
   -6.6876   -0.3338   -2.2629 H   0  0  0  0  0  0  0  0  0  0  0  0
   -4.8114   -4.5108   -2.9370 H   0  0  0  0  0  0  0  0  0  0  0  0
   -2.7536   -4.5279   -1.4962 H   0  0  0  0  0  0  0  0  0  0  0  0
   -0.0056   -2.4804    1.8578 H   0  0  0  0  0  0  0  0  0  0  0  0
    2.0366   -1.2605    1.7017 H   0  0  0  0  0  0  0  0  0  0  0  0
    2.9328    0.9466   -1.2472 H   0  0  0  0  0  0  0  0  0  0  0  0
    4.9828    1.6494   -0.8082 H   0  0  0  0  0  0  0  0  0  0  0  0
    7.2292    2.1376   -0.9716 H   0  0  0  0  0  0  0  0  0  0  0  0
    9.4651    2.4735    0.0777 H   0  0  0  0  0  0  0  0  0  0  0  0
    8.0220    0.6237    3.5991 H   0  0  0  0  0  0  0  0  0  0  0  0
    5.8929    0.3079    2.6267 H   0  0  0  0  0  0  0  0  0  0  0  0
    0.9501    0.1375   -2.1392 H   0  0  0  0  0  0  0  0  0  0  0  0
   -1.1299   -1.0672   -2.0312 H   0  0  0  0  0  0  0  0  0  0  0  0
   -2.6854   -0.2831    0.6336 H   0  0  0  0  0  0  0  0  0  0  0  0
   -2.0161    1.6216    0.9492 H   0  0  0  0  0  0  0  0  0  0  0  0
   -2.7955    2.8315    2.0903 H   0  0  0  0  0  0  0  0  0  0  0  0
   -3.0883    1.0934    2.2776 H   0  0  0  0  0  0  0  0  0  0  0  0
  1  2  1  0
  2  3  1  0
  3  4  2  0
  4  5  1  0
  5  6  2  0
  6  7  1  0
  7  8  2  0
  8  9  1  0
  9 10  1  0
 10 11  1  0
 11 12  2  0
 12 13  1  0
 13 14  2  0
 14 15  1  0
 15 16  1  0
 16 17  2  0
 16 18  1  0
 18 19  1  0
 19 20  2  0
 20 21  1  0
 21 22  2  0
 22 23  1  0
 22 24  1  0
 24 25  2  0
 14 26  1  0
 26 27  2  0
  9 28  2  0
 28 29  1  0
 29 30  2  0
 30 31  1  0
 31 32  1  0
 30  3  1  0
 28  5  1  0
 27 11  1  0
 25 19  1  0
  1 33  1  0
  1 34  1  0
  1 35  1  0
  4 36  1  0
  7 37  1  0
  8 38  1  0
 12 39  1  0
 13 40  1  0
 15 41  1  0
 18 42  1  0
 20 43  1  0
 21 44  1  0
 24 45  1  0
 25 46  1  0
 26 47  1  0
 27 48  1  0
 29 49  1  0
 32 50  1  0
 32 51  1  0
 32 52  1  0
M  END
$$$$
[H]c1c([H])c(Oc2c([H])c([H])c(C#N)c([H])c2[H])c(N2C([H])([H])C([H])([H])N(c3c([H])c([H])c(C#N)c([H])c3[H])[C@]([H])(C([H])([H])[H])C2([H])[H])c([H])c1F
     RDKit          3D

 52 55  0  0  0  0  0  0  0  0999 V2000
    1.0297    1.7434   -1.6579 C   0  0  0  0  0  0  0  0  0  0  0  0
    0.9791    0.3799   -1.0175 C   0  0  2  0  0  0  0  0  0  0  0  0
   -0.4381    0.1372   -0.5277 C   0  0  0  0  0  0  0  0  0  0  0  0
   -0.5164   -1.0450    0.2395 N   0  0  0  0  0  0  0  0  0  0  0  0
    0.4798   -1.2034    1.3141 C   0  0  0  0  0  0  0  0  0  0  0  0
    1.4220   -0.0168    1.3856 C   0  0  0  0  0  0  0  0  0  0  0  0
    1.9337    0.2795    0.0779 N   0  0  0  0  0  0  0  0  0  0  0  0
    3.3285    0.4561   -0.1330 C   0  0  0  0  0  0  0  0  0  0  0  0
    3.8485    0.4087   -1.4272 C   0  0  0  0  0  0  0  0  0  0  0  0
    5.1741    0.5866   -1.6592 C   0  0  0  0  0  0  0  0  0  0  0  0
    6.0417    0.8185   -0.6258 C   0  0  0  0  0  0  0  0  0  0  0  0
    5.5622    0.8698    0.6455 C   0  0  0  0  0  0  0  0  0  0  0  0
    4.2018    0.6874    0.8847 C   0  0  0  0  0  0  0  0  0  0  0  0
    7.4612    1.0109   -0.8526 C   0  0  0  0  0  0  0  0  0  0  0  0
    8.5989    1.1556   -1.0265 N   0  0  0  0  0  0  0  0  0  0  0  0
   -1.4347   -2.1116    0.1096 C   0  0  0  0  0  0  0  0  0  0  0  0
   -0.9232   -3.2745   -0.4972 C   0  0  0  0  0  0  0  0  0  0  0  0
   -1.6708   -4.4038   -0.7008 C   0  0  0  0  0  0  0  0  0  0  0  0
   -1.1448   -5.5219   -1.2949 F   0  0  0  0  0  0  0  0  0  0  0  0
   -2.9867   -4.3942   -0.2894 C   0  0  0  0  0  0  0  0  0  0  0  0
   -3.5122   -3.2964    0.2966 C   0  0  0  0  0  0  0  0  0  0  0  0
   -2.7383   -2.1314    0.5058 C   0  0  0  0  0  0  0  0  0  0  0  0
   -3.3309   -1.0711    1.1055 O   0  0  0  0  0  0  0  0  0  0  0  0
   -3.6458    0.1847    0.7247 C   0  0  0  0  0  0  0  0  0  0  0  0
   -4.1942    0.5393   -0.5051 C   0  0  0  0  0  0  0  0  0  0  0  0
   -4.4950    1.8441   -0.8284 C   0  0  0  0  0  0  0  0  0  0  0  0
   -4.2600    2.8703    0.0713 C   0  0  0  0  0  0  0  0  0  0  0  0
   -3.7166    2.5343    1.2949 C   0  0  0  0  0  0  0  0  0  0  0  0
   -3.4140    1.2323    1.6234 C   0  0  0  0  0  0  0  0  0  0  0  0
   -4.5689    4.2394   -0.2513 C   0  0  0  0  0  0  0  0  0  0  0  0
   -4.8128    5.3352   -0.4896 N   0  0  0  0  0  0  0  0  0  0  0  0
    1.9416    2.3042   -1.3475 H   0  0  0  0  0  0  0  0  0  0  0  0
    0.9881    1.7209   -2.7559 H   0  0  0  0  0  0  0  0  0  0  0  0
    0.1722    2.3361   -1.2950 H   0  0  0  0  0  0  0  0  0  0  0  0
    1.2001   -0.3777   -1.7802 H   0  0  0  0  0  0  0  0  0  0  0  0
   -0.6822    1.0428    0.0924 H   0  0  0  0  0  0  0  0  0  0  0  0
   -1.0725    0.1207   -1.4540 H   0  0  0  0  0  0  0  0  0  0  0  0
    1.0304   -2.1295    1.1440 H   0  0  0  0  0  0  0  0  0  0  0  0
   -0.0184   -1.2703    2.3004 H   0  0  0  0  0  0  0  0  0  0  0  0
    0.8870    0.8318    1.8583 H   0  0  0  0  0  0  0  0  0  0  0  0
    2.2616   -0.3611    2.0292 H   0  0  0  0  0  0  0  0  0  0  0  0
    3.1370    0.2215   -2.2205 H   0  0  0  0  0  0  0  0  0  0  0  0
    5.5531    0.5448   -2.6785 H   0  0  0  0  0  0  0  0  0  0  0  0
    6.2390    1.0514    1.4601 H   0  0  0  0  0  0  0  0  0  0  0  0
    3.8853    0.7474    1.9230 H   0  0  0  0  0  0  0  0  0  0  0  0
    0.1279   -3.2965   -0.8315 H   0  0  0  0  0  0  0  0  0  0  0  0
   -3.5418   -5.3101   -0.4703 H   0  0  0  0  0  0  0  0  0  0  0  0
   -4.5433   -3.2791    0.6227 H   0  0  0  0  0  0  0  0  0  0  0  0
   -4.3853   -0.2424   -1.2201 H   0  0  0  0  0  0  0  0  0  0  0  0
   -4.9230    2.1443   -1.7802 H   0  0  0  0  0  0  0  0  0  0  0  0
   -3.5230    3.3127    2.0146 H   0  0  0  0  0  0  0  0  0  0  0  0
   -2.9912    1.0451    2.5985 H   0  0  0  0  0  0  0  0  0  0  0  0
  1  2  1  0
  2  3  1  0
  3  4  1  0
  4  5  1  0
  5  6  1  0
  6  7  1  0
  7  8  1  0
  8  9  2  0
  9 10  1  0
 10 11  2  0
 11 12  1  0
 12 13  2  0
 11 14  1  0
 14 15  3  0
  4 16  1  0
 16 17  2  0
 17 18  1  0
 18 19  1  0
 18 20  2  0
 20 21  1  0
 21 22  2  0
 22 23  1  0
 23 24  1  0
 24 25  2  0
 25 26  1  0
 26 27  2  0
 27 28  1  0
 28 29  2  0
 27 30  1  0
 30 31  3  0
  7  2  1  0
 13  8  1  0
 22 16  1  0
 29 24  1  0
  1 32  1  0
  1 33  1  0
  1 34  1  0
  2 35  1  6
  3 36  1  0
  3 37  1  0
  5 38  1  0
  5 39  1  0
  6 40  1  0
  6 41  1  0
  9 42  1  0
 10 43  1  0
 12 44  1  0
 13 45  1  0
 17 46  1  0
 20 47  1  0
 21 48  1  0
 25 49  1  0
 26 50  1  0
 28 51  1  0
 29 52  1  0
M  END
$$$$
[H]c1c([H])c([H])c(C(=O)N([H])[C@]([H])(C(=O)N([H])[C@]([H])(C(=O)N([H])[C@]([H])(C(=O)N([H])[H])C([H])([H])c2c([H])c([H])c([H])c([H])c2[H])C([H])([H])c2c([H])n([H])c3c([H])c([H])c([H])c([H])c23)C([H])([H])C([H])(C([H])([H])[H])C([H])([H])[H])c([H])c1[H]
     RDKit          3D

 79 82  0  0  0  0  0  0  0  0999 V2000
   -3.5882    0.9625   -4.2700 C   0  0  0  0  0  0  0  0  0  0  0  0
   -3.7687   -0.0159   -3.0610 C   0  0  0  0  0  0  0  0  0  0  0  0
   -4.9804    0.5698   -2.3303 C   0  0  0  0  0  0  0  0  0  0  0  0
   -2.5447    0.1039   -2.1946 C   0  0  0  0  0  0  0  0  0  0  0  0
   -2.4249   -0.7626   -1.0125 C   0  0  2  0  0  0  0  0  0  0  0  0
   -3.5011   -0.6012   -0.0625 N   0  0  0  0  0  0  0  0  0  0  0  0
   -4.2032   -1.6820    0.5191 C   0  0  0  0  0  0  0  0  0  0  0  0
   -3.9344   -2.8900    0.2486 O   0  0  0  0  0  0  0  0  0  0  0  0
   -5.2751   -1.4014    1.4631 C   0  0  0  0  0  0  0  0  0  0  0  0
   -5.7028   -2.4299    2.3000 C   0  0  0  0  0  0  0  0  0  0  0  0
   -6.7167   -2.2010    3.1919 C   0  0  0  0  0  0  0  0  0  0  0  0
   -7.3472   -0.9676    3.3004 C   0  0  0  0  0  0  0  0  0  0  0  0
   -6.9204    0.0365    2.4741 C   0  0  0  0  0  0  0  0  0  0  0  0
   -5.9011   -0.1763    1.5702 C   0  0  0  0  0  0  0  0  0  0  0  0
   -1.1972   -0.3553   -0.2216 C   0  0  0  0  0  0  0  0  0  0  0  0
   -1.2426   -0.5467    0.9986 O   0  0  0  0  0  0  0  0  0  0  0  0
   -0.1015    0.2052   -0.8762 N   0  0  0  0  0  0  0  0  0  0  0  0
    1.1319    0.6800   -0.3388 C   0  0  1  0  0  0  0  0  0  0  0  0
    0.9272    1.4821    0.9055 C   0  0  0  0  0  0  0  0  0  0  0  0
    0.0976    2.6987    0.6628 C   0  0  0  0  0  0  0  0  0  0  0  0
   -1.2133    2.9692    0.9498 C   0  0  0  0  0  0  0  0  0  0  0  0
   -1.4893    4.2076    0.5421 N   0  0  0  0  0  0  0  0  0  0  0  0
   -0.3869    4.7862   -0.0192 C   0  0  0  0  0  0  0  0  0  0  0  0
   -0.1563    6.0221   -0.5783 C   0  0  0  0  0  0  0  0  0  0  0  0
    1.0829    6.3394   -1.0767 C   0  0  0  0  0  0  0  0  0  0  0  0
    2.1061    5.4385   -1.0272 C   0  0  0  0  0  0  0  0  0  0  0  0
    1.8500    4.2068   -0.4619 C   0  0  0  0  0  0  0  0  0  0  0  0
    0.6178    3.8545    0.0479 C   0  0  0  0  0  0  0  0  0  0  0  0
    2.2307   -0.2874   -0.3058 C   0  0  0  0  0  0  0  0  0  0  0  0
    1.9589   -1.4373   -0.7400 O   0  0  0  0  0  0  0  0  0  0  0  0
    3.5191   -0.0291    0.1591 N   0  0  0  0  0  0  0  0  0  0  0  0
    4.6445   -0.9272    0.2226 C   0  0  1  0  0  0  0  0  0  0  0  0
    4.2845   -2.0190    1.2010 C   0  0  0  0  0  0  0  0  0  0  0  0
    5.2978   -3.0464    1.4323 C   0  0  0  0  0  0  0  0  0  0  0  0
    6.2869   -2.8642    2.3839 C   0  0  0  0  0  0  0  0  0  0  0  0
    7.2245   -3.8397    2.6242 C   0  0  0  0  0  0  0  0  0  0  0  0
    7.2325   -5.0431    1.9379 C   0  0  0  0  0  0  0  0  0  0  0  0
    6.2605   -5.2444    0.9898 C   0  0  0  0  0  0  0  0  0  0  0  0
    5.3297   -4.2659    0.7571 C   0  0  0  0  0  0  0  0  0  0  0  0
    5.1092   -1.3660   -1.0814 C   0  0  0  0  0  0  0  0  0  0  0  0
    6.2013   -2.1872   -1.4101 N   0  0  0  0  0  0  0  0  0  0  0  0
    4.4417   -0.9530   -2.0957 O   0  0  0  0  0  0  0  0  0  0  0  0
   -4.5605    1.2481   -4.6777 H   0  0  0  0  0  0  0  0  0  0  0  0
   -2.8576    0.5608   -4.9851 H   0  0  0  0  0  0  0  0  0  0  0  0
   -3.1328    1.8735   -3.8025 H   0  0  0  0  0  0  0  0  0  0  0  0
   -3.9494   -1.0095   -3.4741 H   0  0  0  0  0  0  0  0  0  0  0  0
   -4.6109    1.3647   -1.6742 H   0  0  0  0  0  0  0  0  0  0  0  0
   -5.6971    0.9931   -3.1038 H   0  0  0  0  0  0  0  0  0  0  0  0
   -5.4776   -0.2089   -1.7456 H   0  0  0  0  0  0  0  0  0  0  0  0
   -2.3300    1.1956   -1.9712 H   0  0  0  0  0  0  0  0  0  0  0  0
   -1.6852   -0.1251   -2.9399 H   0  0  0  0  0  0  0  0  0  0  0  0
   -2.2986   -1.8552   -1.2801 H   0  0  0  0  0  0  0  0  0  0  0  0
   -3.7340    0.3736    0.2039 H   0  0  0  0  0  0  0  0  0  0  0  0
   -5.2058   -3.3981    2.2133 H   0  0  0  0  0  0  0  0  0  0  0  0
   -7.0529   -2.9928    3.8447 H   0  0  0  0  0  0  0  0  0  0  0  0
   -8.1363   -0.8228    4.0076 H   0  0  0  0  0  0  0  0  0  0  0  0
   -7.3536    1.0310    2.4843 H   0  0  0  0  0  0  0  0  0  0  0  0
   -5.5751    0.6402    0.9138 H   0  0  0  0  0  0  0  0  0  0  0  0
   -0.1515    0.3059   -1.9562 H   0  0  0  0  0  0  0  0  0  0  0  0
    1.4924    1.4910   -1.0872 H   0  0  0  0  0  0  0  0  0  0  0  0
    1.8912    1.8894    1.3069 H   0  0  0  0  0  0  0  0  0  0  0  0
    0.4604    0.8803    1.6822 H   0  0  0  0  0  0  0  0  0  0  0  0
   -1.8654    2.2431    1.4345 H   0  0  0  0  0  0  0  0  0  0  0  0
   -2.4259    4.6557    0.6442 H   0  0  0  0  0  0  0  0  0  0  0  0
   -0.9593    6.7343   -0.6206 H   0  0  0  0  0  0  0  0  0  0  0  0
    1.3047    7.3094   -1.5280 H   0  0  0  0  0  0  0  0  0  0  0  0
    3.0821    5.7037   -1.4268 H   0  0  0  0  0  0  0  0  0  0  0  0
    2.6392    3.4668   -0.4032 H   0  0  0  0  0  0  0  0  0  0  0  0
    3.6938    0.9590    0.5115 H   0  0  0  0  0  0  0  0  0  0  0  0
    5.5337   -0.4075    0.7044 H   0  0  0  0  0  0  0  0  0  0  0  0
    3.3401   -2.5737    0.9113 H   0  0  0  0  0  0  0  0  0  0  0  0
    4.0241   -1.5970    2.2030 H   0  0  0  0  0  0  0  0  0  0  0  0
    6.3022   -1.9141    2.9459 H   0  0  0  0  0  0  0  0  0  0  0  0
    7.9853   -3.6662    3.3759 H   0  0  0  0  0  0  0  0  0  0  0  0
    7.9989   -5.7938    2.1608 H   0  0  0  0  0  0  0  0  0  0  0  0
    6.2567   -6.1740    0.4513 H   0  0  0  0  0  0  0  0  0  0  0  0
    4.5480   -4.4244   -0.0030 H   0  0  0  0  0  0  0  0  0  0  0  0
    7.0914   -2.0541   -0.8892 H   0  0  0  0  0  0  0  0  0  0  0  0
    6.1758   -2.9252   -2.1492 H   0  0  0  0  0  0  0  0  0  0  0  0
  1  2  1  0
  2  3  1  0
  2  4  1  0
  4  5  1  0
  5  6  1  0
  6  7  1  0
  7  8  2  0
  7  9  1  0
  9 10  2  0
 10 11  1  0
 11 12  2  0
 12 13  1  0
 13 14  2  0
  5 15  1  0
 15 16  2  0
 15 17  1  0
 17 18  1  0
 18 19  1  0
 19 20  1  0
 20 21  2  0
 21 22  1  0
 22 23  1  0
 23 24  2  0
 24 25  1  0
 25 26  2  0
 26 27  1  0
 27 28  2  0
 18 29  1  0
 29 30  2  0
 29 31  1  0
 31 32  1  0
 32 33  1  0
 33 34  1  0
 34 35  2  0
 35 36  1  0
 36 37  2  0
 37 38  1  0
 38 39  2  0
 32 40  1  0
 40 41  1  0
 40 42  2  0
 14  9  1  0
 28 20  1  0
 39 34  1  0
 28 23  1  0
  1 43  1  0
  1 44  1  0
  1 45  1  0
  2 46  1  0
  3 47  1  0
  3 48  1  0
  3 49  1  0
  4 50  1  0
  4 51  1  0
  5 52  1  6
  6 53  1  0
 10 54  1  0
 11 55  1  0
 12 56  1  0
 13 57  1  0
 14 58  1  0
 17 59  1  0
 18 60  1  6
 19 61  1  0
 19 62  1  0
 21 63  1  0
 22 64  1  0
 24 65  1  0
 25 66  1  0
 26 67  1  0
 27 68  1  0
 31 69  1  0
 32 70  1  1
 33 71  1  0
 33 72  1  0
 35 73  1  0
 36 74  1  0
 37 75  1  0
 38 76  1  0
 39 77  1  0
 41 78  1  0
 41 79  1  0
M  END
$$$$
[H]N=C(N([H])[H])N([H])C([H])([H])C([H])([H])C([H])([H])[C@@]([H])(C(=O)N([H])[C@]([H])(C(=O)N([H])[H])C([H])([H])c1c([H])c([H])c([H])c([H])c1[H])N([H])C(=O)[C@@]([H])(N([H])C(=O)[C@@]([H])(N([H])C(=O)[C@@]([H])(N([H])C(=O)[C@@]([H])(N([H])[H])C([H])([H])c1c([H])c([H])c([H])c([H])c1[H])C([H])(C([H])([H])[H])C([H])([H])[H])C([H])([H])C([H])([H])C([H])([H])N([H])C(=N[H])N([H])[H])C([H])([H])c1c([H])c([H])c([H])c([H])c1[H]
     RDKit          3D

126128  0  0  0  0  0  0  0  0999 V2000
   -5.3179    1.1823    2.3757 C   0  0  0  0  0  0  0  0  0  0  0  0
   -5.1051    1.6585    0.9815 C   0  0  0  0  0  0  0  0  0  0  0  0
   -5.7172    2.9778    0.7420 C   0  0  0  0  0  0  0  0  0  0  0  0
   -5.5249    0.6460   -0.0911 C   0  0  2  0  0  0  0  0  0  0  0  0
   -6.8973    0.2863   -0.0286 N   0  0  0  0  0  0  0  0  0  0  0  0
   -7.7583    0.5696   -1.1554 C   0  0  0  0  0  0  0  0  0  0  0  0
   -7.2663    1.1643   -2.1753 O   0  0  0  0  0  0  0  0  0  0  0  0
   -9.1831    0.2072   -1.2110 C   0  0  1  0  0  0  0  0  0  0  0  0
   -9.5491   -0.4499    0.0387 N   0  0  0  0  0  0  0  0  0  0  0  0
  -10.0396    1.3683   -1.5250 C   0  0  0  0  0  0  0  0  0  0  0  0
   -9.9849    2.4790   -0.5777 C   0  0  0  0  0  0  0  0  0  0  0  0
   -9.1848    3.5902   -0.7158 C   0  0  0  0  0  0  0  0  0  0  0  0
   -9.2028    4.5622    0.2357 C   0  0  0  0  0  0  0  0  0  0  0  0
   -9.9932    4.4796    1.3374 C   0  0  0  0  0  0  0  0  0  0  0  0
  -10.7923    3.3732    1.4787 C   0  0  0  0  0  0  0  0  0  0  0  0
  -10.8052    2.3778    0.5499 C   0  0  0  0  0  0  0  0  0  0  0  0
   -4.6984   -0.5942    0.1433 C   0  0  0  0  0  0  0  0  0  0  0  0
   -5.2211   -1.5794    0.6886 O   0  0  0  0  0  0  0  0  0  0  0  0
   -3.3728   -0.5910   -0.2593 N   0  0  0  0  0  0  0  0  0  0  0  0
   -2.4086   -1.6829   -0.0803 C   0  0  1  0  0  0  0  0  0  0  0  0
   -2.0782   -2.3045   -1.4253 C   0  0  0  0  0  0  0  0  0  0  0  0
   -3.3591   -2.7837   -2.0148 C   0  0  0  0  0  0  0  0  0  0  0  0
   -3.2103   -3.4302   -3.3598 C   0  0  0  0  0  0  0  0  0  0  0  0
   -2.6201   -2.5341   -4.3375 N   0  0  0  0  0  0  0  0  0  0  0  0
   -2.4624   -3.0235   -5.6538 C   0  0  0  0  0  0  0  0  0  0  0  0
   -3.5091   -3.7174   -6.2737 N   0  0  0  0  0  0  0  0  0  0  0  0
   -1.3658   -2.8270   -6.2729 N   0  0  0  0  0  0  0  0  0  0  0  0
   -1.1538   -1.1377    0.4511 C   0  0  0  0  0  0  0  0  0  0  0  0
   -1.1210    0.1691    0.5529 O   0  0  0  0  0  0  0  0  0  0  0  0
    0.0092   -1.8023    0.8611 N   0  0  0  0  0  0  0  0  0  0  0  0
    1.1070   -0.9877    1.3201 C   0  0  1  0  0  0  0  0  0  0  0  0
    0.9761   -0.7472    2.8332 C   0  0  0  0  0  0  0  0  0  0  0  0
    0.9587   -1.9811    3.6200 C   0  0  0  0  0  0  0  0  0  0  0  0
   -0.2775   -2.5652    3.8392 C   0  0  0  0  0  0  0  0  0  0  0  0
   -0.4211   -3.7122    4.5786 C   0  0  0  0  0  0  0  0  0  0  0  0
    0.7299   -4.2650    5.0994 C   0  0  0  0  0  0  0  0  0  0  0  0
    1.9654   -3.6981    4.8900 C   0  0  0  0  0  0  0  0  0  0  0  0
    2.0922   -2.5461    4.1451 C   0  0  0  0  0  0  0  0  0  0  0  0
    2.4316   -1.4969    0.9677 C   0  0  0  0  0  0  0  0  0  0  0  0
    2.7595   -2.6911    1.1521 O   0  0  0  0  0  0  0  0  0  0  0  0
    3.4024   -0.6343    0.3927 N   0  0  0  0  0  0  0  0  0  0  0  0
    4.7780   -1.0329    0.0432 C   0  0  1  0  0  0  0  0  0  0  0  0
    4.6705   -1.8258   -1.2703 C   0  0  0  0  0  0  0  0  0  0  0  0
    6.0288   -2.3230   -1.7190 C   0  0  0  0  0  0  0  0  0  0  0  0
    6.6339   -3.2538   -0.7013 C   0  0  0  0  0  0  0  0  0  0  0  0
    7.9130   -3.7100   -1.1763 N   0  0  0  0  0  0  0  0  0  0  0  0
    9.0354   -2.8605   -1.2810 C   0  0  0  0  0  0  0  0  0  0  0  0
    9.9465   -2.7689   -0.2014 N   0  0  0  0  0  0  0  0  0  0  0  0
    9.2166   -2.1804   -2.3461 N   0  0  0  0  0  0  0  0  0  0  0  0
    5.4831    0.2260   -0.1698 C   0  0  0  0  0  0  0  0  0  0  0  0
    4.8498    1.1260   -0.8203 O   0  0  0  0  0  0  0  0  0  0  0  0
    6.7629    0.5455    0.2657 N   0  0  0  0  0  0  0  0  0  0  0  0
    7.3468    1.8713   -0.0212 C   0  0  1  0  0  0  0  0  0  0  0  0
    6.8963    2.7696    1.1227 C   0  0  0  0  0  0  0  0  0  0  0  0
    7.3697    4.1679    1.0153 C   0  0  0  0  0  0  0  0  0  0  0  0
    6.6810    5.0681    0.2079 C   0  0  0  0  0  0  0  0  0  0  0  0
    7.0163    6.3928    0.0674 C   0  0  0  0  0  0  0  0  0  0  0  0
    8.1062    6.8284    0.7820 C   0  0  0  0  0  0  0  0  0  0  0  0
    8.8281    5.9818    1.5991 C   0  0  0  0  0  0  0  0  0  0  0  0
    8.4511    4.6615    1.7061 C   0  0  0  0  0  0  0  0  0  0  0  0
    8.7740    1.8253   -0.1874 C   0  0  0  0  0  0  0  0  0  0  0  0
    9.6495    2.8845   -0.5446 N   0  0  0  0  0  0  0  0  0  0  0  0
    9.3815    0.7036   -0.0043 O   0  0  0  0  0  0  0  0  0  0  0  0
   -6.2309    1.6496    2.8502 H   0  0  0  0  0  0  0  0  0  0  0  0
   -4.4699    1.5859    3.0121 H   0  0  0  0  0  0  0  0  0  0  0  0
   -5.2945    0.0983    2.5237 H   0  0  0  0  0  0  0  0  0  0  0  0
   -3.9873    1.7688    0.7932 H   0  0  0  0  0  0  0  0  0  0  0  0
   -5.0706    3.7639    1.2453 H   0  0  0  0  0  0  0  0  0  0  0  0
   -5.8767    3.2551   -0.2988 H   0  0  0  0  0  0  0  0  0  0  0  0
   -6.6642    3.0200    1.3528 H   0  0  0  0  0  0  0  0  0  0  0  0
   -5.2985    1.1187   -1.0643 H   0  0  0  0  0  0  0  0  0  0  0  0
   -7.3281   -0.1778    0.7855 H   0  0  0  0  0  0  0  0  0  0  0  0
   -9.2645   -0.5441   -2.0623 H   0  0  0  0  0  0  0  0  0  0  0  0
   -9.3169    0.1999    0.8128 H   0  0  0  0  0  0  0  0  0  0  0  0
   -8.8992   -1.2776    0.1046 H   0  0  0  0  0  0  0  0  0  0  0  0
  -11.1033    0.9992   -1.6257 H   0  0  0  0  0  0  0  0  0  0  0  0
   -9.8082    1.8075   -2.5472 H   0  0  0  0  0  0  0  0  0  0  0  0
   -8.5458    3.6859   -1.5750 H   0  0  0  0  0  0  0  0  0  0  0  0
   -8.5651    5.4561    0.1436 H   0  0  0  0  0  0  0  0  0  0  0  0
  -10.0033    5.2597    2.0963 H   0  0  0  0  0  0  0  0  0  0  0  0
  -11.4402    3.2671    2.3429 H   0  0  0  0  0  0  0  0  0  0  0  0
  -11.4396    1.5124    0.6765 H   0  0  0  0  0  0  0  0  0  0  0  0
   -2.9738    0.2360   -0.7540 H   0  0  0  0  0  0  0  0  0  0  0  0
   -2.8623   -2.4175    0.5817 H   0  0  0  0  0  0  0  0  0  0  0  0
   -1.5780   -1.5281   -2.0101 H   0  0  0  0  0  0  0  0  0  0  0  0
   -1.3508   -3.1234   -1.2194 H   0  0  0  0  0  0  0  0  0  0  0  0
   -3.8541   -3.5059   -1.3365 H   0  0  0  0  0  0  0  0  0  0  0  0
   -4.0457   -1.9016   -2.0590 H   0  0  0  0  0  0  0  0  0  0  0  0
   -2.6682   -4.3871   -3.3378 H   0  0  0  0  0  0  0  0  0  0  0  0
   -4.2531   -3.6810   -3.7161 H   0  0  0  0  0  0  0  0  0  0  0  0
   -2.3123   -1.5772   -4.1251 H   0  0  0  0  0  0  0  0  0  0  0  0
   -3.9023   -4.5664   -5.8284 H   0  0  0  0  0  0  0  0  0  0  0  0
   -3.8906   -3.3879   -7.1715 H   0  0  0  0  0  0  0  0  0  0  0  0
   -1.1026   -3.1143   -7.2167 H   0  0  0  0  0  0  0  0  0  0  0  0
    0.0582   -2.8334    0.8284 H   0  0  0  0  0  0  0  0  0  0  0  0
    1.0144    0.0729    0.9161 H   0  0  0  0  0  0  0  0  0  0  0  0
    1.8362   -0.1245    3.1696 H   0  0  0  0  0  0  0  0  0  0  0  0
    0.0683   -0.1398    3.0428 H   0  0  0  0  0  0  0  0  0  0  0  0
   -1.1944   -2.1329    3.4183 H   0  0  0  0  0  0  0  0  0  0  0  0
   -1.3924   -4.1946    4.7695 H   0  0  0  0  0  0  0  0  0  0  0  0
    0.6124   -5.1773    5.6877 H   0  0  0  0  0  0  0  0  0  0  0  0
    2.8669   -4.1312    5.2953 H   0  0  0  0  0  0  0  0  0  0  0  0
    3.0869   -2.0970    3.9791 H   0  0  0  0  0  0  0  0  0  0  0  0
    3.0956    0.3603    0.2047 H   0  0  0  0  0  0  0  0  0  0  0  0
    5.1343   -1.7210    0.7889 H   0  0  0  0  0  0  0  0  0  0  0  0
    4.0498   -2.7116   -1.0533 H   0  0  0  0  0  0  0  0  0  0  0  0
    4.2072   -1.2514   -2.0685 H   0  0  0  0  0  0  0  0  0  0  0  0
    5.9180   -2.9213   -2.6517 H   0  0  0  0  0  0  0  0  0  0  0  0
    6.6737   -1.4547   -1.8504 H   0  0  0  0  0  0  0  0  0  0  0  0
    6.8146   -2.7001    0.2406 H   0  0  0  0  0  0  0  0  0  0  0  0
    6.0072   -4.1564   -0.5326 H   0  0  0  0  0  0  0  0  0  0  0  0
    8.0698   -4.7221   -1.4754 H   0  0  0  0  0  0  0  0  0  0  0  0
   10.0478   -3.5468    0.5028 H   0  0  0  0  0  0  0  0  0  0  0  0
   10.5609   -1.9477   -0.0364 H   0  0  0  0  0  0  0  0  0  0  0  0
    8.6136   -2.1753   -3.1799 H   0  0  0  0  0  0  0  0  0  0  0  0
    7.3328   -0.1209    0.7986 H   0  0  0  0  0  0  0  0  0  0  0  0
    6.7781    2.2397   -0.9195 H   0  0  0  0  0  0  0  0  0  0  0  0
    7.3258    2.3560    2.0827 H   0  0  0  0  0  0  0  0  0  0  0  0
    5.7920    2.7128    1.2415 H   0  0  0  0  0  0  0  0  0  0  0  0
    5.8197    4.7295   -0.3592 H   0  0  0  0  0  0  0  0  0  0  0  0
    6.4994    7.1093   -0.5519 H   0  0  0  0  0  0  0  0  0  0  0  0
    8.4004    7.8698    0.6953 H   0  0  0  0  0  0  0  0  0  0  0  0
    9.7013    6.3410    2.1678 H   0  0  0  0  0  0  0  0  0  0  0  0
    9.0064    3.9948    2.3502 H   0  0  0  0  0  0  0  0  0  0  0  0
   10.5527    2.9872   -0.0741 H   0  0  0  0  0  0  0  0  0  0  0  0
    9.3933    3.5865   -1.2847 H   0  0  0  0  0  0  0  0  0  0  0  0
  1  2  1  0
  2  3  1  0
  2  4  1  0
  4  5  1  0
  5  6  1  0
  6  7  2  0
  6  8  1  0
  8  9  1  0
  8 10  1  0
 10 11  1  0
 11 12  2  0
 12 13  1  0
 13 14  2  0
 14 15  1  0
 15 16  2  0
  4 17  1  0
 17 18  2  0
 17 19  1  0
 19 20  1  0
 20 21  1  0
 21 22  1  0
 22 23  1  0
 23 24  1  0
 24 25  1  0
 25 26  1  0
 25 27  2  3
 20 28  1  0
 28 29  2  0
 28 30  1  0
 30 31  1  0
 31 32  1  0
 32 33  1  0
 33 34  2  0
 34 35  1  0
 35 36  2  0
 36 37  1  0
 37 38  2  0
 31 39  1  0
 39 40  2  0
 39 41  1  0
 41 42  1  0
 42 43  1  0
 43 44  1  0
 44 45  1  0
 45 46  1  0
 46 47  1  0
 47 48  1  0
 47 49  2  3
 42 50  1  0
 50 51  2  0
 50 52  1  0
 52 53  1  0
 53 54  1  0
 54 55  1  0
 55 56  2  0
 56 57  1  0
 57 58  2  0
 58 59  1  0
 59 60  2  0
 53 61  1  0
 61 62  1  0
 61 63  2  0
 16 11  1  0
 38 33  1  0
 60 55  1  0
  1 64  1  0
  1 65  1  0
  1 66  1  0
  2 67  1  0
  3 68  1  0
  3 69  1  0
  3 70  1  0
  4 71  1  6
  5 72  1  0
  8 73  1  6
  9 74  1  0
  9 75  1  0
 10 76  1  0
 10 77  1  0
 12 78  1  0
 13 79  1  0
 14 80  1  0
 15 81  1  0
 16 82  1  0
 19 83  1  0
 20 84  1  1
 21 85  1  0
 21 86  1  0
 22 87  1  0
 22 88  1  0
 23 89  1  0
 23 90  1  0
 24 91  1  0
 26 92  1  0
 26 93  1  0
 27 94  1  0
 30 95  1  0
 31 96  1  6
 32 97  1  0
 32 98  1  0
 34 99  1  0
 35100  1  0
 36101  1  0
 37102  1  0
 38103  1  0
 41104  1  0
 42105  1  1
 43106  1  0
 43107  1  0
 44108  1  0
 44109  1  0
 45110  1  0
 45111  1  0
 46112  1  0
 48113  1  0
 48114  1  0
 49115  1  0
 52116  1  0
 53117  1  6
 54118  1  0
 54119  1  0
 56120  1  0
 57121  1  0
 58122  1  0
 59123  1  0
 60124  1  0
 62125  1  0
 62126  1  0
M  END
$$$$
[H]OC(=O)c1c([H])nc([H])c([C@@]2([H])C([H])([H])C([H])([H])[C@@]3([H])[C@]4([H])C([H])([H])C([H])([H])c5c([H])c(O[H])c([H])c([H])c5[C@@]4([H])C([H])([H])C([H])([H])[C@@]23C([H])([H])[H])c1[H]
     RDKit          3D

 55 59  0  0  0  0  0  0  0  0999 V2000
   -0.4122   -2.5892   -0.5280 C   0  0  0  0  0  0  0  0  0  0  0  0
   -0.7538   -1.1200   -0.5754 C   0  0  1  0  0  0  0  0  0  0  0  0
   -0.6436   -0.4439    0.7419 C   0  0  0  0  0  0  0  0  0  0  0  0
    0.7912   -0.4223    1.2603 C   0  0  0  0  0  0  0  0  0  0  0  0
    1.7538   -0.2469    0.1171 C   0  0  1  0  0  0  0  0  0  0  0  0
    1.0511    0.5050   -0.9823 C   0  0  1  0  0  0  0  0  0  0  0  0
    2.0145    1.0760   -1.9851 C   0  0  0  0  0  0  0  0  0  0  0  0
    3.3826    0.3798   -1.9143 C   0  0  0  0  0  0  0  0  0  0  0  0
    3.8782    0.7356   -0.5341 C   0  0  0  0  0  0  0  0  0  0  0  0
    5.0857    1.3407   -0.3207 C   0  0  0  0  0  0  0  0  0  0  0  0
    5.4696    1.6419    0.9848 C   0  0  0  0  0  0  0  0  0  0  0  0
    6.6768    2.2497    1.2301 O   0  0  0  0  0  0  0  0  0  0  0  0
    4.6181    1.3191    2.0177 C   0  0  0  0  0  0  0  0  0  0  0  0
    3.3948    0.7032    1.7715 C   0  0  0  0  0  0  0  0  0  0  0  0
    3.0071    0.4018    0.4838 C   0  0  0  0  0  0  0  0  0  0  0  0
    0.0863   -0.4626   -1.6478 C   0  0  2  0  0  0  0  0  0  0  0  0
   -0.8302    0.2034   -2.6198 C   0  0  0  0  0  0  0  0  0  0  0  0
   -2.1261    0.3232   -1.8081 C   0  0  0  0  0  0  0  0  0  0  0  0
   -2.1634   -0.9920   -1.1050 C   0  0  2  0  0  0  0  0  0  0  0  0
   -3.2173   -1.0323   -0.0893 C   0  0  0  0  0  0  0  0  0  0  0  0
   -3.8144   -2.2444    0.2151 C   0  0  0  0  0  0  0  0  0  0  0  0
   -4.8109   -2.3532    1.1343 N   0  0  0  0  0  0  0  0  0  0  0  0
   -5.2607   -1.2724    1.7919 C   0  0  0  0  0  0  0  0  0  0  0  0
   -4.7104   -0.0397    1.5358 C   0  0  0  0  0  0  0  0  0  0  0  0
   -3.6879    0.0634    0.5904 C   0  0  0  0  0  0  0  0  0  0  0  0
   -5.1843    1.1290    2.2350 C   0  0  0  0  0  0  0  0  0  0  0  0
   -4.6258    2.3543    1.9695 O   0  0  0  0  0  0  0  0  0  0  0  0
   -6.0937    1.0280    3.0737 O   0  0  0  0  0  0  0  0  0  0  0  0
    0.4755   -2.8398   -1.1743 H   0  0  0  0  0  0  0  0  0  0  0  0
   -0.1595   -2.9434    0.4912 H   0  0  0  0  0  0  0  0  0  0  0  0
   -1.2285   -3.2089   -0.9526 H   0  0  0  0  0  0  0  0  0  0  0  0
   -1.0346    0.5952    0.6714 H   0  0  0  0  0  0  0  0  0  0  0  0
   -1.2510   -0.9775    1.4891 H   0  0  0  0  0  0  0  0  0  0  0  0
    1.0286   -1.3782    1.7677 H   0  0  0  0  0  0  0  0  0  0  0  0
    0.8146    0.4162    1.9851 H   0  0  0  0  0  0  0  0  0  0  0  0
    2.0271   -1.2690   -0.2637 H   0  0  0  0  0  0  0  0  0  0  0  0
    0.4591    1.3304   -0.4937 H   0  0  0  0  0  0  0  0  0  0  0  0
    2.2102    2.1303   -1.6899 H   0  0  0  0  0  0  0  0  0  0  0  0
    1.6192    1.0950   -3.0022 H   0  0  0  0  0  0  0  0  0  0  0  0
    3.1968   -0.6957   -1.9974 H   0  0  0  0  0  0  0  0  0  0  0  0
    4.0086    0.8142   -2.6946 H   0  0  0  0  0  0  0  0  0  0  0  0
    5.7324    1.5809   -1.1618 H   0  0  0  0  0  0  0  0  0  0  0  0
    7.3053    2.4890    0.4802 H   0  0  0  0  0  0  0  0  0  0  0  0
    4.9084    1.5494    3.0343 H   0  0  0  0  0  0  0  0  0  0  0  0
    2.7499    0.4593    2.5765 H   0  0  0  0  0  0  0  0  0  0  0  0
    0.7031   -1.2012   -2.2009 H   0  0  0  0  0  0  0  0  0  0  0  0
   -1.0263   -0.4894   -3.4690 H   0  0  0  0  0  0  0  0  0  0  0  0
   -0.4673    1.1843   -2.9542 H   0  0  0  0  0  0  0  0  0  0  0  0
   -2.9991    0.4938   -2.4701 H   0  0  0  0  0  0  0  0  0  0  0  0
   -1.9461    1.1486   -1.1065 H   0  0  0  0  0  0  0  0  0  0  0  0
   -2.3298   -1.8044   -1.8886 H   0  0  0  0  0  0  0  0  0  0  0  0
   -3.5123   -3.1396   -0.2647 H   0  0  0  0  0  0  0  0  0  0  0  0
   -6.0613   -1.3619    2.5302 H   0  0  0  0  0  0  0  0  0  0  0  0
   -3.2940    1.0327    0.4077 H   0  0  0  0  0  0  0  0  0  0  0  0
   -4.8043    2.7544    1.0406 H   0  0  0  0  0  0  0  0  0  0  0  0
  2  1  1  1
  2  3  1  0
  3  4  1  0
  4  5  1  0
  5  6  1  0
  6  7  1  0
  7  8  1  0
  8  9  1  0
  9 10  2  0
 10 11  1  0
 11 12  1  0
 11 13  2  0
 13 14  1  0
 14 15  2  0
  6 16  1  0
 16 17  1  0
 17 18  1  0
 18 19  1  0
 19 20  1  0
 20 21  2  0
 21 22  1  0
 22 23  2  0
 23 24  1  0
 24 25  2  0
 24 26  1  0
 26 27  1  0
 26 28  2  0
 16  2  1  0
 25 20  1  0
 19  2  1  0
 15  5  1  0
 15  9  1  0
  1 29  1  0
  1 30  1  0
  1 31  1  0
  3 32  1  0
  3 33  1  0
  4 34  1  0
  4 35  1  0
  5 36  1  6
  6 37  1  1
  7 38  1  0
  7 39  1  0
  8 40  1  0
  8 41  1  0
 10 42  1  0
 12 43  1  0
 13 44  1  0
 14 45  1  0
 16 46  1  6
 17 47  1  0
 17 48  1  0
 18 49  1  0
 18 50  1  0
 19 51  1  6
 21 52  1  0
 23 53  1  0
 25 54  1  0
 27 55  1  0
M  END
$$$$
[H]c1nc(N([H])c2c([H])c([H])c(N3C([H])([H])C([H])([H])C([H])(N(C([H])([H])[H])C([H])([H])[H])C([H])([H])C3([H])[H])c([H])c2OC([H])([H])[H])nc(N([H])c2c([H])c([H])c([H])c([H])c2S(=O)(=O)C([H])(C([H])([H])[H])C([H])([H])[H])c1Cl
     RDKit          3D

 73 76  0  0  0  0  0  0  0  0999 V2000
   -1.4887   -3.5880    1.2680 C   0  0  0  0  0  0  0  0  0  0  0  0
   -0.7608   -2.5452    0.6863 O   0  0  0  0  0  0  0  0  0  0  0  0
   -1.4161   -1.4468    0.1649 C   0  0  0  0  0  0  0  0  0  0  0  0
   -2.7697   -1.3138    0.1835 C   0  0  0  0  0  0  0  0  0  0  0  0
   -3.4310   -0.2298   -0.3300 C   0  0  0  0  0  0  0  0  0  0  0  0
   -2.6699    0.7643   -0.8887 C   0  0  0  0  0  0  0  0  0  0  0  0
   -1.2837    0.6857   -0.9374 C   0  0  0  0  0  0  0  0  0  0  0  0
   -0.6456   -0.4090   -0.4169 C   0  0  0  0  0  0  0  0  0  0  0  0
    0.7306   -0.5530   -0.4331 N   0  0  0  0  0  0  0  0  0  0  0  0
    1.7028    0.3458   -0.9492 C   0  0  0  0  0  0  0  0  0  0  0  0
    1.4800    1.5214   -1.5269 N   0  0  0  0  0  0  0  0  0  0  0  0
    2.4593    2.3096   -1.9876 C   0  0  0  0  0  0  0  0  0  0  0  0
    3.7698    1.9304   -1.8818 C   0  0  0  0  0  0  0  0  0  0  0  0
    5.0878    2.9156   -2.4745 Cl  0  0  0  0  0  0  0  0  0  0  0  0
    4.0678    0.6884   -1.2753 C   0  0  0  0  0  0  0  0  0  0  0  0
    5.4172    0.3014   -1.1217 N   0  0  0  0  0  0  0  0  0  0  0  0
    5.8705   -0.9049   -0.5954 C   0  0  0  0  0  0  0  0  0  0  0  0
    5.0906   -2.0601   -0.5353 C   0  0  0  0  0  0  0  0  0  0  0  0
    5.6105   -3.2759   -0.1172 C   0  0  0  0  0  0  0  0  0  0  0  0
    6.9209   -3.3878    0.2545 C   0  0  0  0  0  0  0  0  0  0  0  0
    7.6858   -2.2549    0.1966 C   0  0  0  0  0  0  0  0  0  0  0  0
    7.2100   -1.0030   -0.2158 C   0  0  0  0  0  0  0  0  0  0  0  0
    8.2797    0.3289   -0.1092 S   0  0  0  0  0  0  0  0  0  0  0  0
    9.7039   -0.2341    0.1061 O   0  0  0  0  0  0  0  0  0  0  0  0
    8.4312    1.1263   -1.3815 O   0  0  0  0  0  0  0  0  0  0  0  0
    8.0255    1.4139    1.2573 C   0  0  0  0  0  0  0  0  0  0  0  0
    9.1794    2.4149    1.3719 C   0  0  0  0  0  0  0  0  0  0  0  0
    6.7769    2.1937    1.2396 C   0  0  0  0  0  0  0  0  0  0  0  0
    3.0226    0.0056   -0.8635 N   0  0  0  0  0  0  0  0  0  0  0  0
   -4.8624   -0.0923   -0.3072 N   0  0  0  0  0  0  0  0  0  0  0  0
   -5.5849   -1.1673    0.3276 C   0  0  0  0  0  0  0  0  0  0  0  0
   -7.0407   -0.9434    0.5155 C   0  0  0  0  0  0  0  0  0  0  0  0
   -7.4356    0.4949    0.3818 C   0  0  0  0  0  0  0  0  0  0  0  0
   -6.9640    0.9951   -0.9680 C   0  0  0  0  0  0  0  0  0  0  0  0
   -5.4597    1.0612   -0.8960 C   0  0  0  0  0  0  0  0  0  0  0  0
   -8.8564    0.6589    0.5708 N   0  0  0  0  0  0  0  0  0  0  0  0
   -9.2782    2.0230    0.4605 C   0  0  0  0  0  0  0  0  0  0  0  0
   -9.6390   -0.2430   -0.2416 C   0  0  0  0  0  0  0  0  0  0  0  0
   -0.7931   -4.1921    1.9054 H   0  0  0  0  0  0  0  0  0  0  0  0
   -1.9544   -4.2113    0.4616 H   0  0  0  0  0  0  0  0  0  0  0  0
   -2.2604   -3.2007    1.9817 H   0  0  0  0  0  0  0  0  0  0  0  0
   -3.3514   -2.1246    0.6360 H   0  0  0  0  0  0  0  0  0  0  0  0
   -3.1295    1.6488   -1.3125 H   0  0  0  0  0  0  0  0  0  0  0  0
   -0.7832    1.5103   -1.3929 H   0  0  0  0  0  0  0  0  0  0  0  0
    1.1068   -1.4691    0.0044 H   0  0  0  0  0  0  0  0  0  0  0  0
    2.2213    3.2667   -2.4541 H   0  0  0  0  0  0  0  0  0  0  0  0
    6.1140    0.9939   -1.4647 H   0  0  0  0  0  0  0  0  0  0  0  0
    4.0603   -2.0188   -0.8381 H   0  0  0  0  0  0  0  0  0  0  0  0
    4.9515   -4.1295   -0.0940 H   0  0  0  0  0  0  0  0  0  0  0  0
    7.3564   -4.3431    0.5885 H   0  0  0  0  0  0  0  0  0  0  0  0
    8.7315   -2.3610    0.4975 H   0  0  0  0  0  0  0  0  0  0  0  0
    8.1309    0.7711    2.1790 H   0  0  0  0  0  0  0  0  0  0  0  0
    9.2341    2.9999    0.4280 H   0  0  0  0  0  0  0  0  0  0  0  0
    8.8903    3.1190    2.1704 H   0  0  0  0  0  0  0  0  0  0  0  0
   10.1385    1.9091    1.5465 H   0  0  0  0  0  0  0  0  0  0  0  0
    6.6586    2.6546    0.2401 H   0  0  0  0  0  0  0  0  0  0  0  0
    5.9200    1.5461    1.5414 H   0  0  0  0  0  0  0  0  0  0  0  0
    6.8570    3.0425    1.9945 H   0  0  0  0  0  0  0  0  0  0  0  0
   -5.4057   -2.0834   -0.2985 H   0  0  0  0  0  0  0  0  0  0  0  0
   -5.1129   -1.3839    1.3330 H   0  0  0  0  0  0  0  0  0  0  0  0
   -7.3369   -1.2598    1.5530 H   0  0  0  0  0  0  0  0  0  0  0  0
   -7.5857   -1.5404   -0.2484 H   0  0  0  0  0  0  0  0  0  0  0  0
   -6.9204    1.0822    1.1579 H   0  0  0  0  0  0  0  0  0  0  0  0
   -7.3716    2.0047   -1.1693 H   0  0  0  0  0  0  0  0  0  0  0  0
   -7.2424    0.3151   -1.7855 H   0  0  0  0  0  0  0  0  0  0  0  0
   -5.0229    1.2094   -1.9181 H   0  0  0  0  0  0  0  0  0  0  0  0
   -5.2243    1.9555   -0.2465 H   0  0  0  0  0  0  0  0  0  0  0  0
   -9.3583    2.3936   -0.5797 H   0  0  0  0  0  0  0  0  0  0  0  0
   -8.5425    2.6556    1.0032 H   0  0  0  0  0  0  0  0  0  0  0  0
  -10.3018    2.1167    0.9062 H   0  0  0  0  0  0  0  0  0  0  0  0
  -10.5738    0.3178   -0.5167 H   0  0  0  0  0  0  0  0  0  0  0  0
   -9.1485   -0.5590   -1.1630 H   0  0  0  0  0  0  0  0  0  0  0  0
   -9.8879   -1.1629    0.3397 H   0  0  0  0  0  0  0  0  0  0  0  0
  1  2  1  0
  2  3  1  0
  3  4  2  0
  4  5  1  0
  5  6  2  0
  6  7  1  0
  7  8  2  0
  8  9  1  0
  9 10  1  0
 10 11  2  0
 11 12  1  0
 12 13  2  0
 13 14  1  0
 13 15  1  0
 15 16  1  0
 16 17  1  0
 17 18  2  0
 18 19  1  0
 19 20  2  0
 20 21  1  0
 21 22  2  0
 22 23  1  0
 23 24  2  0
 23 25  2  0
 23 26  1  0
 26 27  1  0
 26 28  1  0
 15 29  2  0
  5 30  1  0
 30 31  1  0
 31 32  1  0
 32 33  1  0
 33 34  1  0
 34 35  1  0
 33 36  1  0
 36 37  1  0
 36 38  1  0
  8  3  1  0
 29 10  1  0
 35 30  1  0
 22 17  1  0
  1 39  1  0
  1 40  1  0
  1 41  1  0
  4 42  1  0
  6 43  1  0
  7 44  1  0
  9 45  1  0
 12 46  1  0
 16 47  1  0
 18 48  1  0
 19 49  1  0
 20 50  1  0
 21 51  1  0
 26 52  1  0
 27 53  1  0
 27 54  1  0
 27 55  1  0
 28 56  1  0
 28 57  1  0
 28 58  1  0
 31 59  1  0
 31 60  1  0
 32 61  1  0
 32 62  1  0
 33 63  1  0
 34 64  1  0
 34 65  1  0
 35 66  1  0
 35 67  1  0
 37 68  1  0
 37 69  1  0
 37 70  1  0
 38 71  1  0
 38 72  1  0
 38 73  1  0
M  END
$$$$
[H]c1nc(N([H])c2c([H])c([H])c(N3C([H])([H])C([H])([H])C([H])(N4C([H])([H])C([H])([H])OC([H])([H])C4([H])[H])C([H])([H])C3([H])[H])c([H])c2OC([H])([H])[H])nc(N([H])c2c([H])c([H])c([H])c([H])c2S(=O)(=O)C([H])(C([H])([H])[H])C([H])([H])[H])c1Cl
     RDKit          3D

 78 82  0  0  0  0  0  0  0  0999 V2000
   -2.7990   -4.7366   -1.3510 C   0  0  0  0  0  0  0  0  0  0  0  0
   -1.4818   -4.2815   -1.0963 O   0  0  0  0  0  0  0  0  0  0  0  0
   -1.2626   -2.9268   -0.9115 C   0  0  0  0  0  0  0  0  0  0  0  0
   -2.2756   -1.9993   -0.9649 C   0  0  0  0  0  0  0  0  0  0  0  0
   -2.0617   -0.6368   -0.7804 C   0  0  0  0  0  0  0  0  0  0  0  0
   -0.7814   -0.2202   -0.5369 C   0  0  0  0  0  0  0  0  0  0  0  0
    0.2811   -1.1355   -0.4738 C   0  0  0  0  0  0  0  0  0  0  0  0
    0.0363   -2.4736   -0.6602 C   0  0  0  0  0  0  0  0  0  0  0  0
    1.0486   -3.4282   -0.5632 N   0  0  0  0  0  0  0  0  0  0  0  0
    2.4501   -3.2971   -0.5441 C   0  0  0  0  0  0  0  0  0  0  0  0
    3.1806   -4.4584   -0.3853 N   0  0  0  0  0  0  0  0  0  0  0  0
    4.4963   -4.5095   -0.3751 C   0  0  0  0  0  0  0  0  0  0  0  0
    5.2173   -3.3469   -0.5311 C   0  0  0  0  0  0  0  0  0  0  0  0
    6.9576   -3.3296   -0.5341 Cl  0  0  0  0  0  0  0  0  0  0  0  0
    4.5356   -2.1282   -0.6989 C   0  0  0  0  0  0  0  0  0  0  0  0
    5.3043   -0.9689   -0.8278 N   0  0  0  0  0  0  0  0  0  0  0  0
    4.9428    0.3708   -1.0715 C   0  0  0  0  0  0  0  0  0  0  0  0
    3.7071    0.7399   -1.5352 C   0  0  0  0  0  0  0  0  0  0  0  0
    3.4274    2.0598   -1.8188 C   0  0  0  0  0  0  0  0  0  0  0  0
    4.3635    3.0489   -1.6512 C   0  0  0  0  0  0  0  0  0  0  0  0
    5.6208    2.6944   -1.1820 C   0  0  0  0  0  0  0  0  0  0  0  0
    5.9101    1.3798   -0.8961 C   0  0  0  0  0  0  0  0  0  0  0  0
    7.5019    1.0371   -0.2945 S   0  0  0  0  0  0  0  0  0  0  0  0
    8.2978    0.1131   -1.1647 O   0  0  0  0  0  0  0  0  0  0  0  0
    8.2966    2.3490   -0.2987 O   0  0  0  0  0  0  0  0  0  0  0  0
    7.4681    0.4327    1.3549 C   0  0  0  0  0  0  0  0  0  0  0  0
    8.8634   -0.1388    1.7159 C   0  0  0  0  0  0  0  0  0  0  0  0
    7.0596    1.4683    2.3670 C   0  0  0  0  0  0  0  0  0  0  0  0
    3.1822   -2.2006   -0.6916 N   0  0  0  0  0  0  0  0  0  0  0  0
   -3.1115    0.3177   -0.8518 N   0  0  0  0  0  0  0  0  0  0  0  0
   -4.3569    0.0033   -1.5564 C   0  0  0  0  0  0  0  0  0  0  0  0
   -5.4456    0.9770   -1.1084 C   0  0  0  0  0  0  0  0  0  0  0  0
   -5.4163    1.0960    0.3875 C   0  0  0  0  0  0  0  0  0  0  0  0
   -4.1724    1.8834    0.7406 C   0  0  0  0  0  0  0  0  0  0  0  0
   -3.0537    1.6221   -0.2518 C   0  0  0  0  0  0  0  0  0  0  0  0
   -6.5566    1.8175    0.8825 N   0  0  0  0  0  0  0  0  0  0  0  0
   -6.4174    2.0469    2.3263 C   0  0  0  0  0  0  0  0  0  0  0  0
   -7.6213    2.8766    2.7374 C   0  0  0  0  0  0  0  0  0  0  0  0
   -8.8104    2.1862    2.5319 O   0  0  0  0  0  0  0  0  0  0  0  0
   -8.9221    1.9916    1.1601 C   0  0  0  0  0  0  0  0  0  0  0  0
   -7.7951    1.0731    0.7374 C   0  0  0  0  0  0  0  0  0  0  0  0
   -2.8361   -5.8616   -1.3099 H   0  0  0  0  0  0  0  0  0  0  0  0
   -3.1900   -4.3824   -2.3292 H   0  0  0  0  0  0  0  0  0  0  0  0
   -3.5377   -4.4041   -0.5867 H   0  0  0  0  0  0  0  0  0  0  0  0
   -3.2912   -2.3704   -1.1607 H   0  0  0  0  0  0  0  0  0  0  0  0
   -0.5304    0.8148   -0.3940 H   0  0  0  0  0  0  0  0  0  0  0  0
    1.2667   -0.7437   -0.2556 H   0  0  0  0  0  0  0  0  0  0  0  0
    0.7052   -4.4618   -0.4798 H   0  0  0  0  0  0  0  0  0  0  0  0
    5.0715   -5.4367   -0.2489 H   0  0  0  0  0  0  0  0  0  0  0  0
    6.3584   -1.1165   -0.7423 H   0  0  0  0  0  0  0  0  0  0  0  0
    2.9114   -0.0041   -1.7193 H   0  0  0  0  0  0  0  0  0  0  0  0
    2.4405    2.3544   -2.1905 H   0  0  0  0  0  0  0  0  0  0  0  0
    4.1803    4.0991   -1.8612 H   0  0  0  0  0  0  0  0  0  0  0  0
    6.3509    3.4879   -1.0554 H   0  0  0  0  0  0  0  0  0  0  0  0
    6.8109   -0.4447    1.4204 H   0  0  0  0  0  0  0  0  0  0  0  0
    8.9078   -1.1290    1.2165 H   0  0  0  0  0  0  0  0  0  0  0  0
    8.8703   -0.2948    2.7926 H   0  0  0  0  0  0  0  0  0  0  0  0
    9.6590    0.5303    1.3215 H   0  0  0  0  0  0  0  0  0  0  0  0
    6.3760    2.2282    1.9706 H   0  0  0  0  0  0  0  0  0  0  0  0
    8.0149    1.9242    2.7543 H   0  0  0  0  0  0  0  0  0  0  0  0
    6.5683    1.0168    3.2596 H   0  0  0  0  0  0  0  0  0  0  0  0
   -4.2295    0.1961   -2.6622 H   0  0  0  0  0  0  0  0  0  0  0  0
   -4.6789   -1.0320   -1.4555 H   0  0  0  0  0  0  0  0  0  0  0  0
   -6.3764    0.6017   -1.5329 H   0  0  0  0  0  0  0  0  0  0  0  0
   -5.2359    1.9773   -1.5346 H   0  0  0  0  0  0  0  0  0  0  0  0
   -5.4040    0.1109    0.8986 H   0  0  0  0  0  0  0  0  0  0  0  0
   -4.4001    2.9747    0.6779 H   0  0  0  0  0  0  0  0  0  0  0  0
   -3.8424    1.6927    1.7865 H   0  0  0  0  0  0  0  0  0  0  0  0
   -3.1634    2.3692   -1.0913 H   0  0  0  0  0  0  0  0  0  0  0  0
   -2.0806    1.8030    0.1914 H   0  0  0  0  0  0  0  0  0  0  0  0
   -6.4486    1.0642    2.8141 H   0  0  0  0  0  0  0  0  0  0  0  0
   -5.5199    2.6190    2.5767 H   0  0  0  0  0  0  0  0  0  0  0  0
   -7.6190    3.7806    2.0982 H   0  0  0  0  0  0  0  0  0  0  0  0
   -7.5723    3.1645    3.7921 H   0  0  0  0  0  0  0  0  0  0  0  0
   -8.6856    2.9938    0.6972 H   0  0  0  0  0  0  0  0  0  0  0  0
   -9.9176    1.6194    0.8580 H   0  0  0  0  0  0  0  0  0  0  0  0
   -7.9512    0.6460   -0.2539 H   0  0  0  0  0  0  0  0  0  0  0  0
   -7.7886    0.2449    1.4991 H   0  0  0  0  0  0  0  0  0  0  0  0
  1  2  1  0
  2  3  1  0
  3  4  2  0
  4  5  1  0
  5  6  2  0
  6  7  1  0
  7  8  2  0
  8  9  1  0
  9 10  1  0
 10 11  2  0
 11 12  1  0
 12 13  2  0
 13 14  1  0
 13 15  1  0
 15 16  1  0
 16 17  1  0
 17 18  2  0
 18 19  1  0
 19 20  2  0
 20 21  1  0
 21 22  2  0
 22 23  1  0
 23 24  2  0
 23 25  2  0
 23 26  1  0
 26 27  1  0
 26 28  1  0
 15 29  2  0
  5 30  1  0
 30 31  1  0
 31 32  1  0
 32 33  1  0
 33 34  1  0
 34 35  1  0
 33 36  1  0
 36 37  1  0
 37 38  1  0
 38 39  1  0
 39 40  1  0
 40 41  1  0
  8  3  1  0
 29 10  1  0
 35 30  1  0
 41 36  1  0
 22 17  1  0
  1 42  1  0
  1 43  1  0
  1 44  1  0
  4 45  1  0
  6 46  1  0
  7 47  1  0
  9 48  1  0
 12 49  1  0
 16 50  1  0
 18 51  1  0
 19 52  1  0
 20 53  1  0
 21 54  1  0
 26 55  1  0
 27 56  1  0
 27 57  1  0
 27 58  1  0
 28 59  1  0
 28 60  1  0
 28 61  1  0
 31 62  1  0
 31 63  1  0
 32 64  1  0
 32 65  1  0
 33 66  1  0
 34 67  1  0
 34 68  1  0
 35 69  1  0
 35 70  1  0
 37 71  1  0
 37 72  1  0
 38 73  1  0
 38 74  1  0
 40 75  1  0
 40 76  1  0
 41 77  1  0
 41 78  1  0
M  END
$$$$
[H]c1c([H])c(N([H])C(=O)N2C([H])([H])C([H])([H])N(C(=O)c3c([H])c([H])c(-c4c([H])c([H])c(S(=O)(=O)C([H])([H])[H])c([H])c4[H])c([H])c3[H])C([H])([H])C2([H])[H])c([H])c([H])c1Cl
     RDKit          3D

 58 61  0  0  0  0  0  0  0  0999 V2000
  -10.2110    0.3574    1.6728 C   0  0  0  0  0  0  0  0  0  0  0  0
   -9.4715    1.4734    0.5007 S   0  0  0  0  0  0  0  0  0  0  0  0
   -9.4761    2.8616    1.0927 O   0  0  0  0  0  0  0  0  0  0  0  0
  -10.2585    1.3989   -0.7674 O   0  0  0  0  0  0  0  0  0  0  0  0
   -7.8185    0.9345    0.2357 C   0  0  0  0  0  0  0  0  0  0  0  0
   -6.7938    1.4195    1.0047 C   0  0  0  0  0  0  0  0  0  0  0  0
   -5.4892    1.0066    0.8108 C   0  0  0  0  0  0  0  0  0  0  0  0
   -5.1726    0.0891   -0.1664 C   0  0  0  0  0  0  0  0  0  0  0  0
   -6.2197   -0.3987   -0.9431 C   0  0  0  0  0  0  0  0  0  0  0  0
   -7.5203    0.0141   -0.7488 C   0  0  0  0  0  0  0  0  0  0  0  0
   -3.7937   -0.3726   -0.4021 C   0  0  0  0  0  0  0  0  0  0  0  0
   -2.7548    0.4620   -0.1809 C   0  0  0  0  0  0  0  0  0  0  0  0
   -1.4422    0.0142   -0.4084 C   0  0  0  0  0  0  0  0  0  0  0  0
   -1.1365   -1.2390   -0.8489 C   0  0  0  0  0  0  0  0  0  0  0  0
   -2.2510   -2.0701   -1.0647 C   0  0  0  0  0  0  0  0  0  0  0  0
   -3.5435   -1.6429   -0.8454 C   0  0  0  0  0  0  0  0  0  0  0  0
    0.1679   -1.7615   -1.0943 C   0  0  0  0  0  0  0  0  0  0  0  0
    0.1399   -3.0133   -1.5419 O   0  0  0  0  0  0  0  0  0  0  0  0
    1.4486   -1.2017   -0.9503 N   0  0  0  0  0  0  0  0  0  0  0  0
    1.8179    0.0790   -0.5018 C   0  0  0  0  0  0  0  0  0  0  0  0
    3.3245    0.3221   -0.4987 C   0  0  0  0  0  0  0  0  0  0  0  0
    4.0560   -0.8234   -0.0805 N   0  0  0  0  0  0  0  0  0  0  0  0
    3.4710   -2.1469   -0.1037 C   0  0  0  0  0  0  0  0  0  0  0  0
    2.5579   -2.1221   -1.3435 C   0  0  0  0  0  0  0  0  0  0  0  0
    5.4080   -0.6670    0.3669 C   0  0  0  0  0  0  0  0  0  0  0  0
    6.0189   -1.7229    0.7424 O   0  0  0  0  0  0  0  0  0  0  0  0
    6.0354    0.5831    0.3929 N   0  0  0  0  0  0  0  0  0  0  0  0
    7.3381    0.8733    0.8114 C   0  0  0  0  0  0  0  0  0  0  0  0
    8.1447    0.0526    1.5545 C   0  0  0  0  0  0  0  0  0  0  0  0
    9.4557    0.4084    1.9174 C   0  0  0  0  0  0  0  0  0  0  0  0
    9.9999    1.6106    1.5415 C   0  0  0  0  0  0  0  0  0  0  0  0
   11.6270    2.0797    1.9776 Cl  0  0  0  0  0  0  0  0  0  0  0  0
    9.1990    2.4452    0.7946 C   0  0  0  0  0  0  0  0  0  0  0  0
    7.9229    2.1039    0.4385 C   0  0  0  0  0  0  0  0  0  0  0  0
   -9.9139    0.5498    2.7072 H   0  0  0  0  0  0  0  0  0  0  0  0
  -11.3233    0.4336    1.5232 H   0  0  0  0  0  0  0  0  0  0  0  0
   -9.9636   -0.6910    1.3335 H   0  0  0  0  0  0  0  0  0  0  0  0
   -7.0332    2.1438    1.7785 H   0  0  0  0  0  0  0  0  0  0  0  0
   -4.6993    1.4066    1.4333 H   0  0  0  0  0  0  0  0  0  0  0  0
   -5.9787   -1.1243   -1.7179 H   0  0  0  0  0  0  0  0  0  0  0  0
   -8.3463   -0.3502   -1.3379 H   0  0  0  0  0  0  0  0  0  0  0  0
   -2.9026    1.4699    0.1679 H   0  0  0  0  0  0  0  0  0  0  0  0
   -0.6583    0.7217   -0.2195 H   0  0  0  0  0  0  0  0  0  0  0  0
   -2.1531   -3.0881   -1.4136 H   0  0  0  0  0  0  0  0  0  0  0  0
   -4.4030   -2.2827   -1.0112 H   0  0  0  0  0  0  0  0  0  0  0  0
    1.4292    0.2795    0.5314 H   0  0  0  0  0  0  0  0  0  0  0  0
    1.4125    0.8648   -1.1634 H   0  0  0  0  0  0  0  0  0  0  0  0
    3.4758    1.1344    0.2502 H   0  0  0  0  0  0  0  0  0  0  0  0
    3.6916    0.7152   -1.4670 H   0  0  0  0  0  0  0  0  0  0  0  0
    4.2116   -2.9412   -0.1664 H   0  0  0  0  0  0  0  0  0  0  0  0
    2.7832   -2.2296    0.7639 H   0  0  0  0  0  0  0  0  0  0  0  0
    3.1464   -1.6811   -2.1588 H   0  0  0  0  0  0  0  0  0  0  0  0
    2.2053   -3.1271   -1.5504 H   0  0  0  0  0  0  0  0  0  0  0  0
    5.4489    1.4051    0.0544 H   0  0  0  0  0  0  0  0  0  0  0  0
    7.7821   -0.9038    1.8987 H   0  0  0  0  0  0  0  0  0  0  0  0
   10.0639   -0.2863    2.5154 H   0  0  0  0  0  0  0  0  0  0  0  0
    9.6390    3.4043    0.4974 H   0  0  0  0  0  0  0  0  0  0  0  0
    7.3054    2.7697   -0.1495 H   0  0  0  0  0  0  0  0  0  0  0  0
  1  2  1  0
  2  3  2  0
  2  4  2  0
  2  5  1  0
  5  6  2  0
  6  7  1  0
  7  8  2  0
  8  9  1  0
  9 10  2  0
  8 11  1  0
 11 12  2  0
 12 13  1  0
 13 14  2  0
 14 15  1  0
 15 16  2  0
 14 17  1  0
 17 18  2  0
 17 19  1  0
 19 20  1  0
 20 21  1  0
 21 22  1  0
 22 23  1  0
 23 24  1  0
 22 25  1  0
 25 26  2  0
 25 27  1  0
 27 28  1  0
 28 29  2  0
 29 30  1  0
 30 31  2  0
 31 32  1  0
 31 33  1  0
 33 34  2  0
 10  5  1  0
 16 11  1  0
 24 19  1  0
 34 28  1  0
  1 35  1  0
  1 36  1  0
  1 37  1  0
  6 38  1  0
  7 39  1  0
  9 40  1  0
 10 41  1  0
 12 42  1  0
 13 43  1  0
 15 44  1  0
 16 45  1  0
 20 46  1  0
 20 47  1  0
 21 48  1  0
 21 49  1  0
 23 50  1  0
 23 51  1  0
 24 52  1  0
 24 53  1  0
 27 54  1  0
 29 55  1  0
 30 56  1  0
 33 57  1  0
 34 58  1  0
M  END
$$$$
[H]O[C@@]1([H])C([H])([H])C([H])([H])[C@@]2(C([H])([H])[H])[C@]1([H])C([H])([H])C([H])([H])[C@@]1([H])[C@]3([H])C([H])([H])C([H])([H])[C@@]([H])(O[H])C([H])([H])[C@@]3(C([H])([H])[H])C([H])([H])C([H])([H])[C@@]12[H]
     RDKit          3D

 53 56  0  0  0  0  0  0  0  0999 V2000
    2.6154   -0.1571    1.5696 C   0  0  0  0  0  0  0  0  0  0  0  0
    2.0875    0.5513    0.3382 C   0  0  2  0  0  0  0  0  0  0  0  0
    1.2301    1.6832    0.7889 C   0  0  0  0  0  0  0  0  0  0  0  0
   -0.2073    1.3834    0.9486 C   0  0  0  0  0  0  0  0  0  0  0  0
   -0.7636    0.4300   -0.0754 C   0  0  1  0  0  0  0  0  0  0  0  0
    0.1128   -0.8067   -0.0737 C   0  0  1  0  0  0  0  0  0  0  0  0
   -0.5969   -1.8894   -0.7794 C   0  0  0  0  0  0  0  0  0  0  0  0
   -1.7895   -1.3775   -1.6007 C   0  0  0  0  0  0  0  0  0  0  0  0
   -2.8340   -0.8823   -0.6241 C   0  0  2  0  0  0  0  0  0  0  0  0
   -3.9778   -0.2449   -1.3397 C   0  0  1  0  0  0  0  0  0  0  0  0
   -5.1732   -0.9497   -1.1141 O   0  0  0  0  0  0  0  0  0  0  0  0
   -4.1581    1.1334   -0.7761 C   0  0  0  0  0  0  0  0  0  0  0  0
   -2.9628    1.4417    0.0513 C   0  0  0  0  0  0  0  0  0  0  0  0
   -2.1874    0.1563    0.2478 C   0  0  2  0  0  0  0  0  0  0  0  0
   -2.3492   -0.2934    1.7007 C   0  0  0  0  0  0  0  0  0  0  0  0
    1.4194   -0.3864   -0.6279 C   0  0  2  0  0  0  0  0  0  0  0  0
    2.3691   -1.4959   -0.9425 C   0  0  0  0  0  0  0  0  0  0  0  0
    3.6454   -0.9601   -1.5035 C   0  0  0  0  0  0  0  0  0  0  0  0
    4.2830    0.1199   -0.7114 C   0  0  1  0  0  0  0  0  0  0  0  0
    5.2612    0.7256   -1.5353 O   0  0  0  0  0  0  0  0  0  0  0  0
    3.2695    1.1746   -0.4016 C   0  0  0  0  0  0  0  0  0  0  0  0
    3.1820    0.6304    2.1455 H   0  0  0  0  0  0  0  0  0  0  0  0
    1.8052   -0.5047    2.2178 H   0  0  0  0  0  0  0  0  0  0  0  0
    3.3309   -0.9471    1.3528 H   0  0  0  0  0  0  0  0  0  0  0  0
    1.3511    2.5805    0.1159 H   0  0  0  0  0  0  0  0  0  0  0  0
    1.6232    2.0423    1.7851 H   0  0  0  0  0  0  0  0  0  0  0  0
   -0.7929    2.3397    0.8365 H   0  0  0  0  0  0  0  0  0  0  0  0
   -0.4595    1.0155    1.9690 H   0  0  0  0  0  0  0  0  0  0  0  0
   -0.7095    0.8679   -1.0903 H   0  0  0  0  0  0  0  0  0  0  0  0
    0.2649   -1.0816    1.0113 H   0  0  0  0  0  0  0  0  0  0  0  0
   -0.0183   -2.5216   -1.4436 H   0  0  0  0  0  0  0  0  0  0  0  0
   -1.0680   -2.5798   -0.0183 H   0  0  0  0  0  0  0  0  0  0  0  0
   -1.4760   -0.6286   -2.3280 H   0  0  0  0  0  0  0  0  0  0  0  0
   -2.2137   -2.2704   -2.1050 H   0  0  0  0  0  0  0  0  0  0  0  0
   -3.1905   -1.7526   -0.0487 H   0  0  0  0  0  0  0  0  0  0  0  0
   -3.8072   -0.1839   -2.4277 H   0  0  0  0  0  0  0  0  0  0  0  0
   -5.7385   -0.4953   -0.4323 H   0  0  0  0  0  0  0  0  0  0  0  0
   -5.0658    1.2299   -0.1470 H   0  0  0  0  0  0  0  0  0  0  0  0
   -4.3026    1.8750   -1.6143 H   0  0  0  0  0  0  0  0  0  0  0  0
   -2.3520    2.2023   -0.5144 H   0  0  0  0  0  0  0  0  0  0  0  0
   -3.1810    1.9040    1.0240 H   0  0  0  0  0  0  0  0  0  0  0  0
   -1.4447   -0.7886    2.0847 H   0  0  0  0  0  0  0  0  0  0  0  0
   -3.2286   -0.9601    1.7894 H   0  0  0  0  0  0  0  0  0  0  0  0
   -2.5667    0.6246    2.2978 H   0  0  0  0  0  0  0  0  0  0  0  0
    1.2423    0.1833   -1.5652 H   0  0  0  0  0  0  0  0  0  0  0  0
    2.5206   -2.1736   -0.0609 H   0  0  0  0  0  0  0  0  0  0  0  0
    1.9681   -2.1856   -1.7439 H   0  0  0  0  0  0  0  0  0  0  0  0
    4.3748   -1.8029   -1.6477 H   0  0  0  0  0  0  0  0  0  0  0  0
    3.4366   -0.5805   -2.5252 H   0  0  0  0  0  0  0  0  0  0  0  0
    4.8399   -0.2315    0.1818 H   0  0  0  0  0  0  0  0  0  0  0  0
    5.8316    1.2513   -0.9479 H   0  0  0  0  0  0  0  0  0  0  0  0
    3.6854    2.0394    0.1454 H   0  0  0  0  0  0  0  0  0  0  0  0
    2.8648    1.5463   -1.3659 H   0  0  0  0  0  0  0  0  0  0  0  0
  2  1  1  1
  2  3  1  0
  3  4  1  0
  4  5  1  0
  5  6  1  0
  6  7  1  0
  7  8  1  0
  8  9  1  0
  9 10  1  0
 10 11  1  0
 10 12  1  0
 12 13  1  0
 13 14  1  0
 14 15  1  1
  6 16  1  0
 16 17  1  0
 17 18  1  0
 18 19  1  0
 19 20  1  0
 19 21  1  0
 16  2  1  0
 21  2  1  0
 14  5  1  0
 14  9  1  0
  1 22  1  0
  1 23  1  0
  1 24  1  0
  3 25  1  0
  3 26  1  0
  4 27  1  0
  4 28  1  0
  5 29  1  6
  6 30  1  1
  7 31  1  0
  7 32  1  0
  8 33  1  0
  8 34  1  0
  9 35  1  1
 10 36  1  6
 11 37  1  0
 12 38  1  0
 12 39  1  0
 13 40  1  0
 13 41  1  0
 15 42  1  0
 15 43  1  0
 15 44  1  0
 16 45  1  6
 17 46  1  0
 17 47  1  0
 18 48  1  0
 18 49  1  0
 19 50  1  1
 20 51  1  0
 21 52  1  0
 21 53  1  0
M  END
$$$$
[H]c1c([H])c(C(=O)N([H])[C@]([H])(c2c([H])c([H])c(OC([H])([H])[H])c(OC([H])([H])[H])c2[H])C([H])([H])c2c(Cl)c([H])[n+]([O-])c([H])c2Cl)c([H])c(C(F)(F)F)c1[H]
     RDKit          3D

 53 55  0  0  0  0  0  0  0  0999 V2000
   -4.9995   -3.2545   -0.7226 C   0  0  0  0  0  0  0  0  0  0  0  0
   -4.4923   -2.5874    0.3986 O   0  0  0  0  0  0  0  0  0  0  0  0
   -3.3787   -1.7554    0.1932 C   0  0  0  0  0  0  0  0  0  0  0  0
   -2.6768   -1.6541   -0.9221 C   0  0  0  0  0  0  0  0  0  0  0  0
   -1.5996   -0.7993   -1.0658 C   0  0  0  0  0  0  0  0  0  0  0  0
   -1.2275    0.0324    0.0533 C   0  0  0  0  0  0  0  0  0  0  0  0
   -1.9491   -0.0931    1.1792 C   0  0  0  0  0  0  0  0  0  0  0  0
   -3.0213   -0.9431    1.3429 C   0  0  0  0  0  0  0  0  0  0  0  0
   -3.7784   -1.1333    2.3837 O   0  0  0  0  0  0  0  0  0  0  0  0
   -4.5371   -1.3230    3.4287 C   0  0  0  0  0  0  0  0  0  0  0  0
   -0.0283    0.7978   -0.2622 C   0  0  2  0  0  0  0  0  0  0  0  0
   -0.0165    1.7428   -1.4002 C   0  0  0  0  0  0  0  0  0  0  0  0
   -0.4185    3.1449   -1.1907 C   0  0  0  0  0  0  0  0  0  0  0  0
   -1.5748    3.7144   -0.9581 C   0  0  0  0  0  0  0  0  0  0  0  0
   -3.0552    2.7777   -0.9928 Cl  0  0  0  0  0  0  0  0  0  0  0  0
   -1.6339    5.0879   -0.7273 C   0  0  0  0  0  0  0  0  0  0  0  0
   -0.5641    5.8838   -0.7245 N   0  0  0  0  0  0  0  0  0  0  0  0
   -0.7206    7.2328   -0.4577 O   0  0  0  0  0  0  0  0  0  0  0  0
    0.6394    5.3312   -0.9620 C   0  0  0  0  0  0  0  0  0  0  0  0
    0.7585    4.0170   -1.1931 C   0  0  0  0  0  0  0  0  0  0  0  0
    2.3370    3.3447   -1.5298 Cl  0  0  0  0  0  0  0  0  0  0  0  0
    1.1994    0.1429   -0.1137 N   0  0  0  0  0  0  0  0  0  0  0  0
    1.8809   -0.6951   -1.0251 C   0  0  0  0  0  0  0  0  0  0  0  0
    1.4810   -0.9681   -2.1893 O   0  0  0  0  0  0  0  0  0  0  0  0
    3.1395   -1.3269   -0.6479 C   0  0  0  0  0  0  0  0  0  0  0  0
    3.6924   -2.2912   -1.4950 C   0  0  0  0  0  0  0  0  0  0  0  0
    4.8254   -2.9726   -1.1892 C   0  0  0  0  0  0  0  0  0  0  0  0
    5.4457   -2.7053    0.0081 C   0  0  0  0  0  0  0  0  0  0  0  0
    4.9353   -1.7656    0.8685 C   0  0  0  0  0  0  0  0  0  0  0  0
    3.7667   -1.0829    0.5150 C   0  0  0  0  0  0  0  0  0  0  0  0
    5.5532   -1.4526    2.2059 C   0  0  0  0  0  0  0  0  0  0  0  0
    6.1544   -2.6166    2.6367 F   0  0  0  0  0  0  0  0  0  0  0  0
    6.3684   -0.3809    2.1228 F   0  0  0  0  0  0  0  0  0  0  0  0
    4.5187   -1.1456    3.0928 F   0  0  0  0  0  0  0  0  0  0  0  0
   -5.6737   -4.1056   -0.5190 H   0  0  0  0  0  0  0  0  0  0  0  0
   -5.5944   -2.4399   -1.2879 H   0  0  0  0  0  0  0  0  0  0  0  0
   -4.2001   -3.5009   -1.4236 H   0  0  0  0  0  0  0  0  0  0  0  0
   -2.8520   -2.2890   -1.8055 H   0  0  0  0  0  0  0  0  0  0  0  0
   -1.0673   -0.7686   -1.9597 H   0  0  0  0  0  0  0  0  0  0  0  0
   -1.6722    0.5488    2.0332 H   0  0  0  0  0  0  0  0  0  0  0  0
   -5.0747   -0.4555    3.8550 H   0  0  0  0  0  0  0  0  0  0  0  0
   -5.4521   -2.0261    3.1750 H   0  0  0  0  0  0  0  0  0  0  0  0
   -4.0708   -1.9063    4.2720 H   0  0  0  0  0  0  0  0  0  0  0  0
   -0.0415    1.5805    0.6548 H   0  0  0  0  0  0  0  0  0  0  0  0
   -0.9106    1.3604   -2.1384 H   0  0  0  0  0  0  0  0  0  0  0  0
    0.8201    1.6658   -2.0978 H   0  0  0  0  0  0  0  0  0  0  0  0
   -2.6417    5.5074   -0.5349 H   0  0  0  0  0  0  0  0  0  0  0  0
    1.4859    6.0177   -0.9611 H   0  0  0  0  0  0  0  0  0  0  0  0
    1.7099    0.2992    0.8229 H   0  0  0  0  0  0  0  0  0  0  0  0
    3.2055   -2.5100   -2.4140 H   0  0  0  0  0  0  0  0  0  0  0  0
    5.2320   -3.7334   -1.8600 H   0  0  0  0  0  0  0  0  0  0  0  0
    6.3449   -3.2157    0.2983 H   0  0  0  0  0  0  0  0  0  0  0  0
    3.4288   -0.3325    1.2303 H   0  0  0  0  0  0  0  0  0  0  0  0
  1  2  1  0
  2  3  1  0
  3  4  2  0
  4  5  1  0
  5  6  2  0
  6  7  1  0
  7  8  2  0
  8  9  1  0
  9 10  1  0
  6 11  1  0
 11 12  1  0
 12 13  1  0
 13 14  2  0
 14 15  1  0
 14 16  1  0
 16 17  2  0
 17 18  1  0
 17 19  1  0
 19 20  2  0
 20 21  1  0
 11 22  1  0
 22 23  1  0
 23 24  2  0
 23 25  1  0
 25 26  2  0
 26 27  1  0
 27 28  2  0
 28 29  1  0
 29 30  2  0
 29 31  1  0
 31 32  1  0
 31 33  1  0
 31 34  1  0
  8  3  1  0
 20 13  1  0
 30 25  1  0
  1 35  1  0
  1 36  1  0
  1 37  1  0
  4 38  1  0
  5 39  1  0
  7 40  1  0
 10 41  1  0
 10 42  1  0
 10 43  1  0
 11 44  1  1
 12 45  1  0
 12 46  1  0
 16 47  1  0
 19 48  1  0
 22 49  1  0
 26 50  1  0
 27 51  1  0
 28 52  1  0
 30 53  1  0
M  CHG  2  17   1  18  -1
M  END
$$$$
[H]c1nc(N([H])C(=O)c2nc(N3C([H])([H])C([H])([H])N(C(=O)N([H])[H])C([H])([H])[C@@]3([H])C([H])([H])[H])nc(-c3c([H])c([H])c(F)c([H])c3[H])c2[H])c([H])c(C(F)(F)F)c1[H]
     RDKit          3D

 57 60  0  0  0  0  0  0  0  0999 V2000
   -4.1788    1.0640   -1.8753 C   0  0  0  0  0  0  0  0  0  0  0  0
   -3.5881    0.0610   -0.9306 C   0  0  2  0  0  0  0  0  0  0  0  0
   -4.3655   -0.0677    0.3697 C   0  0  0  0  0  0  0  0  0  0  0  0
   -4.4261    1.2787    0.9376 N   0  0  0  0  0  0  0  0  0  0  0  0
   -3.3605    2.2515    0.7787 C   0  0  0  0  0  0  0  0  0  0  0  0
   -2.1987    1.8469    0.0005 C   0  0  0  0  0  0  0  0  0  0  0  0
   -2.2534    0.4760   -0.4956 N   0  0  0  0  0  0  0  0  0  0  0  0
   -1.1161   -0.3647   -0.5030 C   0  0  0  0  0  0  0  0  0  0  0  0
    0.0685    0.3001   -0.7057 N   0  0  0  0  0  0  0  0  0  0  0  0
    1.2054   -0.3846   -0.6907 C   0  0  0  0  0  0  0  0  0  0  0  0
    1.2046   -1.7434   -0.4784 C   0  0  0  0  0  0  0  0  0  0  0  0
    0.0143   -2.4513   -0.2738 C   0  0  0  0  0  0  0  0  0  0  0  0
   -1.0855   -1.6872   -0.3029 N   0  0  0  0  0  0  0  0  0  0  0  0
    0.1005   -3.8581   -0.0142 C   0  0  0  0  0  0  0  0  0  0  0  0
    1.2187   -4.5551   -0.5155 C   0  0  0  0  0  0  0  0  0  0  0  0
    1.4334   -5.8700   -0.2459 C   0  0  0  0  0  0  0  0  0  0  0  0
    0.5382   -6.5785    0.5594 C   0  0  0  0  0  0  0  0  0  0  0  0
    0.7808   -7.9052    0.8077 F   0  0  0  0  0  0  0  0  0  0  0  0
   -0.5343   -5.9014    1.0437 C   0  0  0  0  0  0  0  0  0  0  0  0
   -0.7765   -4.5535    0.7665 C   0  0  0  0  0  0  0  0  0  0  0  0
    2.5204    0.2707   -0.8269 C   0  0  0  0  0  0  0  0  0  0  0  0
    3.3571   -0.1653    0.0453 O   0  0  0  0  0  0  0  0  0  0  0  0
    2.9017    1.2528   -1.7546 N   0  0  0  0  0  0  0  0  0  0  0  0
    4.0962    1.9823   -1.4213 C   0  0  0  0  0  0  0  0  0  0  0  0
    4.4272    2.1275   -0.0578 C   0  0  0  0  0  0  0  0  0  0  0  0
    5.6097    2.7072    0.3054 C   0  0  0  0  0  0  0  0  0  0  0  0
    6.4790    3.1561   -0.6838 C   0  0  0  0  0  0  0  0  0  0  0  0
    6.1021    2.9852   -1.9831 C   0  0  0  0  0  0  0  0  0  0  0  0
    4.9294    2.4064   -2.3430 N   0  0  0  0  0  0  0  0  0  0  0  0
    5.8677    2.8662    1.7525 C   0  0  0  0  0  0  0  0  0  0  0  0
    5.4418    1.6574    2.4002 F   0  0  0  0  0  0  0  0  0  0  0  0
    5.0136    3.8365    2.2090 F   0  0  0  0  0  0  0  0  0  0  0  0
    7.1846    3.0373    2.0967 F   0  0  0  0  0  0  0  0  0  0  0  0
   -5.5030    1.6194    1.7454 C   0  0  0  0  0  0  0  0  0  0  0  0
   -6.0623    2.7307    2.3159 N   0  0  0  0  0  0  0  0  0  0  0  0
   -6.2623    0.5170    2.1162 O   0  0  0  0  0  0  0  0  0  0  0  0
   -4.7491    1.8800   -1.4030 H   0  0  0  0  0  0  0  0  0  0  0  0
   -4.8761    0.5471   -2.5421 H   0  0  0  0  0  0  0  0  0  0  0  0
   -3.3510    1.5126   -2.4701 H   0  0  0  0  0  0  0  0  0  0  0  0
   -3.5464   -0.8920   -1.4493 H   0  0  0  0  0  0  0  0  0  0  0  0
   -5.4047   -0.4079    0.1653 H   0  0  0  0  0  0  0  0  0  0  0  0
   -3.8105   -0.7106    1.0434 H   0  0  0  0  0  0  0  0  0  0  0  0
   -3.0364    2.5998    1.8309 H   0  0  0  0  0  0  0  0  0  0  0  0
   -3.8362    3.1845    0.3548 H   0  0  0  0  0  0  0  0  0  0  0  0
   -1.9720    2.4931   -0.8812 H   0  0  0  0  0  0  0  0  0  0  0  0
   -1.2751    1.9129    0.6566 H   0  0  0  0  0  0  0  0  0  0  0  0
    2.1282   -2.2658   -0.4276 H   0  0  0  0  0  0  0  0  0  0  0  0
    1.9237   -4.0360   -1.1578 H   0  0  0  0  0  0  0  0  0  0  0  0
    2.3081   -6.3872   -0.6506 H   0  0  0  0  0  0  0  0  0  0  0  0
   -1.2330   -6.4470    1.6683 H   0  0  0  0  0  0  0  0  0  0  0  0
   -1.6427   -4.0860    1.1902 H   0  0  0  0  0  0  0  0  0  0  0  0
    2.2916    1.6117   -2.5333 H   0  0  0  0  0  0  0  0  0  0  0  0
    3.7256    1.8338    0.6730 H   0  0  0  0  0  0  0  0  0  0  0  0
    7.4122    3.6236   -0.4163 H   0  0  0  0  0  0  0  0  0  0  0  0
    6.7652    3.3454   -2.7980 H   0  0  0  0  0  0  0  0  0  0  0  0
   -6.6908    3.3419    1.7006 H   0  0  0  0  0  0  0  0  0  0  0  0
   -5.9143    3.0014    3.2978 H   0  0  0  0  0  0  0  0  0  0  0  0
  1  2  1  0
  2  3  1  0
  3  4  1  0
  4  5  1  0
  5  6  1  0
  6  7  1  0
  7  8  1  0
  8  9  2  0
  9 10  1  0
 10 11  2  0
 11 12  1  0
 12 13  2  0
 12 14  1  0
 14 15  2  0
 15 16  1  0
 16 17  2  0
 17 18  1  0
 17 19  1  0
 19 20  2  0
 10 21  1  0
 21 22  2  0
 21 23  1  0
 23 24  1  0
 24 25  2  0
 25 26  1  0
 26 27  2  0
 27 28  1  0
 28 29  2  0
 26 30  1  0
 30 31  1  0
 30 32  1  0
 30 33  1  0
  4 34  1  0
 34 35  1  0
 34 36  2  0
  7  2  1  0
 13  8  1  0
 20 14  1  0
 29 24  1  0
  1 37  1  0
  1 38  1  0
  1 39  1  0
  2 40  1  6
  3 41  1  0
  3 42  1  0
  5 43  1  0
  5 44  1  0
  6 45  1  0
  6 46  1  0
 11 47  1  0
 15 48  1  0
 16 49  1  0
 19 50  1  0
 20 51  1  0
 23 52  1  0
 25 53  1  0
 27 54  1  0
 28 55  1  0
 35 56  1  0
 35 57  1  0
M  END
$$$$
[H]c1nn(C(F)(F)F)c([H])c1C(=O)N([H])c1c([H])c([H])c(C([H])([H])[H])c(-c2c([H])nn(C([H])(C([H])([H])[H])C([H])([H])[H])c2[H])c1[H]
     RDKit          3D

 45 47  0  0  0  0  0  0  0  0999 V2000
   -5.5114    2.2392   -0.4807 C   0  0  0  0  0  0  0  0  0  0  0  0
   -4.4313    2.2721    0.5825 C   0  0  0  0  0  0  0  0  0  0  0  0
   -5.0214    2.5489    1.9561 C   0  0  0  0  0  0  0  0  0  0  0  0
   -3.7196    1.0074    0.5884 N   0  0  0  0  0  0  0  0  0  0  0  0
   -2.5881    0.7128   -0.0551 C   0  0  0  0  0  0  0  0  0  0  0  0
   -2.2223   -0.6079    0.2030 C   0  0  0  0  0  0  0  0  0  0  0  0
   -3.2014   -1.0843    1.0381 C   0  0  0  0  0  0  0  0  0  0  0  0
   -4.0807   -0.0818    1.2437 N   0  0  0  0  0  0  0  0  0  0  0  0
   -1.0488   -1.3152   -0.2887 C   0  0  0  0  0  0  0  0  0  0  0  0
    0.2216   -0.7708   -0.1693 C   0  0  0  0  0  0  0  0  0  0  0  0
    1.3451   -1.4592   -0.6296 C   0  0  0  0  0  0  0  0  0  0  0  0
    2.5773   -0.8023   -0.4669 N   0  0  0  0  0  0  0  0  0  0  0  0
    3.8571   -1.3287   -0.6345 C   0  0  0  0  0  0  0  0  0  0  0  0
    4.0792   -2.4991   -0.9599 O   0  0  0  0  0  0  0  0  0  0  0  0
    5.0315   -0.4585   -0.4167 C   0  0  0  0  0  0  0  0  0  0  0  0
    6.3520   -0.7838   -0.5301 C   0  0  0  0  0  0  0  0  0  0  0  0
    7.0802    0.3080   -0.2432 N   0  0  0  0  0  0  0  0  0  0  0  0
    6.2973    1.3133    0.0473 N   0  0  0  0  0  0  0  0  0  0  0  0
    5.0090    0.8798   -0.0484 C   0  0  0  0  0  0  0  0  0  0  0  0
    6.7292    2.6538    0.4080 C   0  0  0  0  0  0  0  0  0  0  0  0
    5.9358    3.1354    1.4240 F   0  0  0  0  0  0  0  0  0  0  0  0
    6.7295    3.4805   -0.6934 F   0  0  0  0  0  0  0  0  0  0  0  0
    8.0281    2.5765    0.8705 F   0  0  0  0  0  0  0  0  0  0  0  0
    1.1806   -2.6842   -1.2038 C   0  0  0  0  0  0  0  0  0  0  0  0
   -0.1114   -3.2320   -1.3225 C   0  0  0  0  0  0  0  0  0  0  0  0
   -1.1994   -2.5416   -0.8654 C   0  0  0  0  0  0  0  0  0  0  0  0
   -2.5483   -3.1361   -1.0156 C   0  0  0  0  0  0  0  0  0  0  0  0
   -6.1292    3.1392   -0.4628 H   0  0  0  0  0  0  0  0  0  0  0  0
   -4.9971    2.2016   -1.4629 H   0  0  0  0  0  0  0  0  0  0  0  0
   -6.0998    1.3103   -0.3525 H   0  0  0  0  0  0  0  0  0  0  0  0
   -3.7685    3.1291    0.3424 H   0  0  0  0  0  0  0  0  0  0  0  0
   -4.1565    2.6094    2.6557 H   0  0  0  0  0  0  0  0  0  0  0  0
   -5.6312    1.6859    2.3107 H   0  0  0  0  0  0  0  0  0  0  0  0
   -5.5782    3.4863    1.9400 H   0  0  0  0  0  0  0  0  0  0  0  0
   -2.0085    1.3682   -0.6913 H   0  0  0  0  0  0  0  0  0  0  0  0
   -3.2730   -2.0774    1.4678 H   0  0  0  0  0  0  0  0  0  0  0  0
    0.3224    0.1962    0.2879 H   0  0  0  0  0  0  0  0  0  0  0  0
    2.5786    0.2490   -0.1790 H   0  0  0  0  0  0  0  0  0  0  0  0
    6.6948   -1.7858   -0.8118 H   0  0  0  0  0  0  0  0  0  0  0  0
    4.1484    1.5030    0.1386 H   0  0  0  0  0  0  0  0  0  0  0  0
    2.0227   -3.2242   -1.5693 H   0  0  0  0  0  0  0  0  0  0  0  0
   -0.1852   -4.2062   -1.7854 H   0  0  0  0  0  0  0  0  0  0  0  0
   -3.3400   -2.3948   -1.2490 H   0  0  0  0  0  0  0  0  0  0  0  0
   -2.8763   -3.7450   -0.1688 H   0  0  0  0  0  0  0  0  0  0  0  0
   -2.4926   -3.7868   -1.9455 H   0  0  0  0  0  0  0  0  0  0  0  0
  1  2  1  0
  2  3  1  0
  2  4  1  0
  4  5  1  0
  5  6  2  0
  6  7  1  0
  7  8  2  0
  6  9  1  0
  9 10  2  0
 10 11  1  0
 11 12  1  0
 12 13  1  0
 13 14  2  0
 13 15  1  0
 15 16  1  0
 16 17  2  0
 17 18  1  0
 18 19  1  0
 18 20  1  0
 20 21  1  0
 20 22  1  0
 20 23  1  0
 11 24  2  0
 24 25  1  0
 25 26  2  0
 26 27  1  0
  8  4  1  0
 26  9  1  0
 19 15  2  0
  1 28  1  0
  1 29  1  0
  1 30  1  0
  2 31  1  0
  3 32  1  0
  3 33  1  0
  3 34  1  0
  5 35  1  0
  7 36  1  0
 10 37  1  0
 12 38  1  0
 16 39  1  0
 19 40  1  0
 24 41  1  0
 25 42  1  0
 27 43  1  0
 27 44  1  0
 27 45  1  0
M  END
$$$$
[H]N=C(N([H])[H])N([H])C([H])([H])C([H])([H])C([H])([H])[C@@]([H])(C(=O)N([H])[C@]([H])(C(=O)N([H])[H])C([H])([H])c1c([H])c([H])c([H])c([H])c1[H])N([H])C(=O)[C@@]([H])(N([H])C(=O)[C@@]([H])(N([H])C(=O)OC([H])([H])c1c([H])c([H])c([H])c([H])c1[H])C([H])([H])C([H])(C([H])([H])[H])C([H])([H])[H])C([H])([H])c1c([H])c([H])c([H])c([H])c1[H]
     RDKit          3D

102104  0  0  0  0  0  0  0  0999 V2000
    6.0213   -1.1593   -1.0715 C   0  0  0  0  0  0  0  0  0  0  0  0
    5.2242   -1.8650    0.0305 C   0  0  0  0  0  0  0  0  0  0  0  0
    5.4795   -3.3534   -0.0220 C   0  0  0  0  0  0  0  0  0  0  0  0
    3.7610   -1.6342   -0.3213 C   0  0  0  0  0  0  0  0  0  0  0  0
    3.4211   -0.1861   -0.3652 C   0  0  2  0  0  0  0  0  0  0  0  0
    3.6329    0.5361    0.8610 N   0  0  0  0  0  0  0  0  0  0  0  0
    4.2720    1.7784    1.0345 C   0  0  0  0  0  0  0  0  0  0  0  0
    4.7387    2.3653    0.0348 O   0  0  0  0  0  0  0  0  0  0  0  0
    4.3923    2.3652    2.2842 O   0  0  0  0  0  0  0  0  0  0  0  0
    4.9979    3.5997    2.5281 C   0  0  0  0  0  0  0  0  0  0  0  0
    6.4158    3.6338    2.1376 C   0  0  0  0  0  0  0  0  0  0  0  0
    7.1198    2.4701    2.0235 C   0  0  0  0  0  0  0  0  0  0  0  0
    8.4390    2.4958    1.6709 C   0  0  0  0  0  0  0  0  0  0  0  0
    9.0753    3.7133    1.4265 C   0  0  0  0  0  0  0  0  0  0  0  0
    8.3458    4.8734    1.5476 C   0  0  0  0  0  0  0  0  0  0  0  0
    7.0306    4.8408    1.8981 C   0  0  0  0  0  0  0  0  0  0  0  0
    1.9982   -0.0202   -0.8023 C   0  0  0  0  0  0  0  0  0  0  0  0
    1.5490    1.1645   -0.6890 O   0  0  0  0  0  0  0  0  0  0  0  0
    1.2485   -1.0853   -1.2822 N   0  0  0  0  0  0  0  0  0  0  0  0
   -0.1445   -0.9108   -1.7137 C   0  0  1  0  0  0  0  0  0  0  0  0
   -0.4703   -1.8294   -2.8187 C   0  0  0  0  0  0  0  0  0  0  0  0
    0.3849   -1.6094   -4.0182 C   0  0  0  0  0  0  0  0  0  0  0  0
   -0.0846   -0.6793   -4.9221 C   0  0  0  0  0  0  0  0  0  0  0  0
    0.5962   -0.3851   -6.0696 C   0  0  0  0  0  0  0  0  0  0  0  0
    1.7849   -1.0356   -6.3290 C   0  0  0  0  0  0  0  0  0  0  0  0
    2.2624   -1.9740   -5.4207 C   0  0  0  0  0  0  0  0  0  0  0  0
    1.5651   -2.2640   -4.2634 C   0  0  0  0  0  0  0  0  0  0  0  0
   -1.0522   -1.0049   -0.5202 C   0  0  0  0  0  0  0  0  0  0  0  0
   -0.5177   -1.1948    0.5807 O   0  0  0  0  0  0  0  0  0  0  0  0
   -2.4274   -0.8714   -0.6780 N   0  0  0  0  0  0  0  0  0  0  0  0
   -3.5011   -0.8702    0.2345 C   0  0  1  0  0  0  0  0  0  0  0  0
   -3.8832   -2.1139    0.9370 C   0  0  0  0  0  0  0  0  0  0  0  0
   -2.8824   -2.7934    1.7898 C   0  0  0  0  0  0  0  0  0  0  0  0
   -3.5445   -4.0101    2.4827 C   0  0  0  0  0  0  0  0  0  0  0  0
   -4.0387   -4.9623    1.5410 N   0  0  0  0  0  0  0  0  0  0  0  0
   -3.1224   -5.7063    0.7585 C   0  0  0  0  0  0  0  0  0  0  0  0
   -3.2109   -5.6456   -0.6493 N   0  0  0  0  0  0  0  0  0  0  0  0
   -2.2211   -6.4297    1.3214 N   0  0  0  0  0  0  0  0  0  0  0  0
   -3.3854    0.3232    1.1233 C   0  0  0  0  0  0  0  0  0  0  0  0
   -2.2713    0.7388    1.4850 O   0  0  0  0  0  0  0  0  0  0  0  0
   -4.5247    0.9960    1.5574 N   0  0  0  0  0  0  0  0  0  0  0  0
   -4.5393    2.1595    2.4078 C   0  0  1  0  0  0  0  0  0  0  0  0
   -4.5837    3.3704    1.4822 C   0  0  0  0  0  0  0  0  0  0  0  0
   -5.7446    3.4209    0.6016 C   0  0  0  0  0  0  0  0  0  0  0  0
   -6.8902    4.0764    0.9798 C   0  0  0  0  0  0  0  0  0  0  0  0
   -7.9907    4.1319    0.1404 C   0  0  0  0  0  0  0  0  0  0  0  0
   -7.9728    3.5351   -1.0926 C   0  0  0  0  0  0  0  0  0  0  0  0
   -6.8243    2.8704   -1.4877 C   0  0  0  0  0  0  0  0  0  0  0  0
   -5.7249    2.8205   -0.6381 C   0  0  0  0  0  0  0  0  0  0  0  0
   -5.5016    2.1647    3.4828 C   0  0  0  0  0  0  0  0  0  0  0  0
   -5.6952    3.1490    4.4527 N   0  0  0  0  0  0  0  0  0  0  0  0
   -6.2741    1.1402    3.5561 O   0  0  0  0  0  0  0  0  0  0  0  0
    5.4007   -1.0034   -1.9753 H   0  0  0  0  0  0  0  0  0  0  0  0
    6.8798   -1.8194   -1.3717 H   0  0  0  0  0  0  0  0  0  0  0  0
    6.3584   -0.1772   -0.6832 H   0  0  0  0  0  0  0  0  0  0  0  0
    5.4313   -1.4052    0.9953 H   0  0  0  0  0  0  0  0  0  0  0  0
    6.5905   -3.4693   -0.0222 H   0  0  0  0  0  0  0  0  0  0  0  0
    5.0207   -3.7636   -0.9305 H   0  0  0  0  0  0  0  0  0  0  0  0
    5.0169   -3.7982    0.8882 H   0  0  0  0  0  0  0  0  0  0  0  0
    3.6070   -2.0520   -1.3623 H   0  0  0  0  0  0  0  0  0  0  0  0
    3.0741   -2.1680    0.3462 H   0  0  0  0  0  0  0  0  0  0  0  0
    4.0498    0.3494   -1.1319 H   0  0  0  0  0  0  0  0  0  0  0  0
    3.2538    0.0645    1.7377 H   0  0  0  0  0  0  0  0  0  0  0  0
    4.4445    4.4484    2.0469 H   0  0  0  0  0  0  0  0  0  0  0  0
    4.9835    3.8199    3.6358 H   0  0  0  0  0  0  0  0  0  0  0  0
    6.6135    1.5094    2.2226 H   0  0  0  0  0  0  0  0  0  0  0  0
    9.0064    1.5628    1.5784 H   0  0  0  0  0  0  0  0  0  0  0  0
   10.1176    3.7219    1.1501 H   0  0  0  0  0  0  0  0  0  0  0  0
    8.8591    5.8194    1.3540 H   0  0  0  0  0  0  0  0  0  0  0  0
    6.4888    5.7892    1.9798 H   0  0  0  0  0  0  0  0  0  0  0  0
    1.6309   -2.0422   -1.3541 H   0  0  0  0  0  0  0  0  0  0  0  0
   -0.1711    0.1659   -2.0654 H   0  0  0  0  0  0  0  0  0  0  0  0
   -1.5406   -1.6812   -3.1033 H   0  0  0  0  0  0  0  0  0  0  0  0
   -0.3926   -2.9036   -2.5594 H   0  0  0  0  0  0  0  0  0  0  0  0
   -1.0269   -0.1412   -4.7494 H   0  0  0  0  0  0  0  0  0  0  0  0
    0.2024    0.3517   -6.7575 H   0  0  0  0  0  0  0  0  0  0  0  0
    2.2818   -0.7725   -7.2364 H   0  0  0  0  0  0  0  0  0  0  0  0
    3.2016   -2.4852   -5.6321 H   0  0  0  0  0  0  0  0  0  0  0  0
    1.9104   -2.9931   -3.5364 H   0  0  0  0  0  0  0  0  0  0  0  0
   -2.7291   -0.7459   -1.7186 H   0  0  0  0  0  0  0  0  0  0  0  0
   -4.4474   -0.6686   -0.4370 H   0  0  0  0  0  0  0  0  0  0  0  0
   -4.3025   -2.8436    0.1762 H   0  0  0  0  0  0  0  0  0  0  0  0
   -4.7756   -1.8990    1.5802 H   0  0  0  0  0  0  0  0  0  0  0  0
   -2.1687   -3.3294    1.0775 H   0  0  0  0  0  0  0  0  0  0  0  0
   -2.3934   -2.2213    2.5612 H   0  0  0  0  0  0  0  0  0  0  0  0
   -2.8280   -4.4149    3.2325 H   0  0  0  0  0  0  0  0  0  0  0  0
   -4.3993   -3.5683    3.0370 H   0  0  0  0  0  0  0  0  0  0  0  0
   -5.0835   -5.1203    1.4198 H   0  0  0  0  0  0  0  0  0  0  0  0
   -4.0669   -6.0176   -1.1610 H   0  0  0  0  0  0  0  0  0  0  0  0
   -2.4220   -5.2298   -1.1812 H   0  0  0  0  0  0  0  0  0  0  0  0
   -1.5278   -6.9943    0.7482 H   0  0  0  0  0  0  0  0  0  0  0  0
   -5.4682    0.6525    1.2619 H   0  0  0  0  0  0  0  0  0  0  0  0
   -3.4998    2.2117    2.8486 H   0  0  0  0  0  0  0  0  0  0  0  0
   -3.6299    3.2892    0.8711 H   0  0  0  0  0  0  0  0  0  0  0  0
   -4.4312    4.2777    2.1006 H   0  0  0  0  0  0  0  0  0  0  0  0
   -6.9838    4.5804    1.9457 H   0  0  0  0  0  0  0  0  0  0  0  0
   -8.8862    4.6651    0.4737 H   0  0  0  0  0  0  0  0  0  0  0  0
   -8.8362    3.5705   -1.7668 H   0  0  0  0  0  0  0  0  0  0  0  0
   -6.8398    2.4108   -2.4674 H   0  0  0  0  0  0  0  0  0  0  0  0
   -4.8611    2.2848   -1.0063 H   0  0  0  0  0  0  0  0  0  0  0  0
   -6.4974    3.8154    4.5171 H   0  0  0  0  0  0  0  0  0  0  0  0
   -4.9468    3.2276    5.2060 H   0  0  0  0  0  0  0  0  0  0  0  0
  1  2  1  0
  2  3  1  0
  2  4  1  0
  4  5  1  0
  5  6  1  0
  6  7  1  0
  7  8  2  0
  7  9  1  0
  9 10  1  0
 10 11  1  0
 11 12  2  0
 12 13  1  0
 13 14  2  0
 14 15  1  0
 15 16  2  0
  5 17  1  0
 17 18  2  0
 17 19  1  0
 19 20  1  0
 20 21  1  0
 21 22  1  0
 22 23  2  0
 23 24  1  0
 24 25  2  0
 25 26  1  0
 26 27  2  0
 20 28  1  0
 28 29  2  0
 28 30  1  0
 30 31  1  0
 31 32  1  0
 32 33  1  0
 33 34  1  0
 34 35  1  0
 35 36  1  0
 36 37  1  0
 36 38  2  3
 31 39  1  0
 39 40  2  0
 39 41  1  0
 41 42  1  0
 42 43  1  0
 43 44  1  0
 44 45  2  0
 45 46  1  0
 46 47  2  0
 47 48  1  0
 48 49  2  0
 42 50  1  0
 50 51  1  0
 50 52  2  0
 16 11  1  0
 27 22  1  0
 49 44  1  0
  1 53  1  0
  1 54  1  0
  1 55  1  0
  2 56  1  0
  3 57  1  0
  3 58  1  0
  3 59  1  0
  4 60  1  0
  4 61  1  0
  5 62  1  6
  6 63  1  0
 10 64  1  0
 10 65  1  0
 12 66  1  0
 13 67  1  0
 14 68  1  0
 15 69  1  0
 16 70  1  0
 19 71  1  0
 20 72  1  6
 21 73  1  0
 21 74  1  0
 23 75  1  0
 24 76  1  0
 25 77  1  0
 26 78  1  0
 27 79  1  0
 30 80  1  0
 31 81  1  6
 32 82  1  0
 32 83  1  0
 33 84  1  0
 33 85  1  0
 34 86  1  0
 34 87  1  0
 35 88  1  0
 37 89  1  0
 37 90  1  0
 38 91  1  0
 41 92  1  0
 42 93  1  1
 43 94  1  0
 43 95  1  0
 45 96  1  0
 46 97  1  0
 47 98  1  0
 48 99  1  0
 49100  1  0
 51101  1  0
 51102  1  0
M  END
$$$$
[H]c1c([H])c(S(=O)(=O)N2C([H])([H])C([H])([H])C([H])(N([H])C(=O)c3c([H])n([H])c4c([H])c([H])c(Cl)c([H])c34)C([H])([H])C2([H])[H])c([H])c([H])c1OC([H])([H])[H]
     RDKit          3D

 52 55  0  0  0  0  0  0  0  0999 V2000
   -6.9335    3.2586   -0.6922 C   0  0  0  0  0  0  0  0  0  0  0  0
   -6.3066    2.3580   -1.5862 O   0  0  0  0  0  0  0  0  0  0  0  0
   -5.5696    1.2992   -1.0594 C   0  0  0  0  0  0  0  0  0  0  0  0
   -5.4481    1.1246    0.3028 C   0  0  0  0  0  0  0  0  0  0  0  0
   -4.7298    0.0927    0.8620 C   0  0  0  0  0  0  0  0  0  0  0  0
   -4.0845   -0.8344    0.0496 C   0  0  0  0  0  0  0  0  0  0  0  0
   -4.2111   -0.6525   -1.3117 C   0  0  0  0  0  0  0  0  0  0  0  0
   -4.9342    0.3864   -1.8744 C   0  0  0  0  0  0  0  0  0  0  0  0
   -3.1663   -2.1572    0.7213 S   0  0  0  0  0  0  0  0  0  0  0  0
   -3.1785   -3.2930   -0.2893 O   0  0  0  0  0  0  0  0  0  0  0  0
   -3.8623   -2.6455    1.9400 O   0  0  0  0  0  0  0  0  0  0  0  0
   -1.5355   -1.7452    1.0012 N   0  0  0  0  0  0  0  0  0  0  0  0
   -0.8177   -1.3830   -0.1769 C   0  0  0  0  0  0  0  0  0  0  0  0
    0.4006   -2.2548   -0.4060 C   0  0  0  0  0  0  0  0  0  0  0  0
    1.3093   -2.1436    0.7940 C   0  0  0  0  0  0  0  0  0  0  0  0
    0.5806   -2.3444    2.0821 C   0  0  0  0  0  0  0  0  0  0  0  0
   -0.8467   -2.7310    1.7731 C   0  0  0  0  0  0  0  0  0  0  0  0
    1.9765   -0.8570    0.7052 N   0  0  0  0  0  0  0  0  0  0  0  0
    3.3564   -0.7024    0.5364 C   0  0  0  0  0  0  0  0  0  0  0  0
    4.1052   -1.7015    0.4511 O   0  0  0  0  0  0  0  0  0  0  0  0
    3.9371    0.6254    0.4579 C   0  0  0  0  0  0  0  0  0  0  0  0
    3.5701    1.7696    1.1505 C   0  0  0  0  0  0  0  0  0  0  0  0
    4.3744    2.7692    0.7695 N   0  0  0  0  0  0  0  0  0  0  0  0
    5.2605    2.3752   -0.1348 C   0  0  0  0  0  0  0  0  0  0  0  0
    6.2759    3.0108   -0.8186 C   0  0  0  0  0  0  0  0  0  0  0  0
    7.0415    2.2943   -1.7217 C   0  0  0  0  0  0  0  0  0  0  0  0
    6.7663    0.9425   -1.9188 C   0  0  0  0  0  0  0  0  0  0  0  0
    7.7349    0.0296   -3.0634 Cl  0  0  0  0  0  0  0  0  0  0  0  0
    5.7546    0.2910   -1.2433 C   0  0  0  0  0  0  0  0  0  0  0  0
    5.0067    1.0368   -0.3462 C   0  0  0  0  0  0  0  0  0  0  0  0
   -6.2060    3.7129    0.0212 H   0  0  0  0  0  0  0  0  0  0  0  0
   -7.5623    3.9838   -1.2094 H   0  0  0  0  0  0  0  0  0  0  0  0
   -7.6226    2.6266   -0.0593 H   0  0  0  0  0  0  0  0  0  0  0  0
   -5.9628    1.8638    0.9265 H   0  0  0  0  0  0  0  0  0  0  0  0
   -4.6515   -0.0199    1.9172 H   0  0  0  0  0  0  0  0  0  0  0  0
   -3.6986   -1.3909   -1.9472 H   0  0  0  0  0  0  0  0  0  0  0  0
   -5.0068    0.4907   -2.9488 H   0  0  0  0  0  0  0  0  0  0  0  0
   -0.4656   -0.3395   -0.0628 H   0  0  0  0  0  0  0  0  0  0  0  0
   -1.4727   -1.3932   -1.0691 H   0  0  0  0  0  0  0  0  0  0  0  0
    0.8961   -1.8660   -1.3160 H   0  0  0  0  0  0  0  0  0  0  0  0
    0.1399   -3.3082   -0.5938 H   0  0  0  0  0  0  0  0  0  0  0  0
    2.1073   -2.9107    0.7022 H   0  0  0  0  0  0  0  0  0  0  0  0
    0.5825   -1.4401    2.7241 H   0  0  0  0  0  0  0  0  0  0  0  0
    1.0205   -3.1868    2.6536 H   0  0  0  0  0  0  0  0  0  0  0  0
   -0.8330   -3.6861    1.1737 H   0  0  0  0  0  0  0  0  0  0  0  0
   -1.4304   -2.9403    2.7060 H   0  0  0  0  0  0  0  0  0  0  0  0
    1.3676   -0.0255    0.7745 H   0  0  0  0  0  0  0  0  0  0  0  0
    2.7480    1.8015    1.8813 H   0  0  0  0  0  0  0  0  0  0  0  0
    4.3202    3.7549    1.1366 H   0  0  0  0  0  0  0  0  0  0  0  0
    6.5031    4.0654   -0.6759 H   0  0  0  0  0  0  0  0  0  0  0  0
    7.8556    2.7533   -2.2864 H   0  0  0  0  0  0  0  0  0  0  0  0
    5.5457   -0.7642   -1.4023 H   0  0  0  0  0  0  0  0  0  0  0  0
  1  2  1  0
  2  3  1  0
  3  4  2  0
  4  5  1  0
  5  6  2  0
  6  7  1  0
  7  8  2  0
  6  9  1  0
  9 10  2  0
  9 11  2  0
  9 12  1  0
 12 13  1  0
 13 14  1  0
 14 15  1  0
 15 16  1  0
 16 17  1  0
 15 18  1  0
 18 19  1  0
 19 20  2  0
 19 21  1  0
 21 22  2  0
 22 23  1  0
 23 24  1  0
 24 25  2  0
 25 26  1  0
 26 27  2  0
 27 28  1  0
 27 29  1  0
 29 30  2  0
  8  3  1  0
 17 12  1  0
 30 21  1  0
 30 24  1  0
  1 31  1  0
  1 32  1  0
  1 33  1  0
  4 34  1  0
  5 35  1  0
  7 36  1  0
  8 37  1  0
 13 38  1  0
 13 39  1  0
 14 40  1  0
 14 41  1  0
 15 42  1  0
 16 43  1  0
 16 44  1  0
 17 45  1  0
 17 46  1  0
 18 47  1  0
 22 48  1  0
 23 49  1  0
 25 50  1  0
 26 51  1  0
 29 52  1  0
M  END
$$$$
[H]O[C@@]1([H])C([H])([H])C([H])([H])[C@]2(C([H])([H])[H])[C@@]3([H])C([H])([H])C([H])([H])[C@]4(C([H])([H])[H])[C@@]([H])(O[H])C([H])([H])C([H])([H])[C@@]4([H])[C@]3([H])C([H])([H])[C@]2([H])C1([H])[H]
     RDKit          3D

 50 53  0  0  0  0  0  0  0  0999 V2000
    2.7285   -0.0962    1.4644 C   0  0  0  0  0  0  0  0  0  0  0  0
    2.5392    0.5596    0.1266 C   0  0  2  0  0  0  0  0  0  0  0  0
    1.8536    1.8779    0.1866 C   0  0  0  0  0  0  0  0  0  0  0  0
    0.4466    1.7165    0.7279 C   0  0  0  0  0  0  0  0  0  0  0  0
   -0.2927    0.7559   -0.1015 C   0  0  1  0  0  0  0  0  0  0  0  0
    0.4481   -0.5922   -0.0727 C   0  0  1  0  0  0  0  0  0  0  0  0
   -0.5423   -1.4698   -0.7387 C   0  0  0  0  0  0  0  0  0  0  0  0
   -1.8581   -1.0044   -0.0985 C   0  0  2  0  0  0  0  0  0  0  0  0
   -2.9284   -1.2662   -1.1153 C   0  0  0  0  0  0  0  0  0  0  0  0
   -4.2281   -0.6863   -0.6078 C   0  0  1  0  0  0  0  0  0  0  0  0
   -4.5098   -1.2608    0.6250 O   0  0  0  0  0  0  0  0  0  0  0  0
   -4.0535    0.8075   -0.5241 C   0  0  0  0  0  0  0  0  0  0  0  0
   -2.6340    1.2562   -0.6337 C   0  0  0  0  0  0  0  0  0  0  0  0
   -1.6801    0.4505    0.2270 C   0  0  2  0  0  0  0  0  0  0  0  0
   -2.0810    0.6618    1.6604 C   0  0  0  0  0  0  0  0  0  0  0  0
    1.7045   -0.3353   -0.8061 C   0  0  2  0  0  0  0  0  0  0  0  0
    2.5810   -1.4759   -1.0883 C   0  0  0  0  0  0  0  0  0  0  0  0
    3.9891   -0.9337   -0.9300 C   0  0  0  0  0  0  0  0  0  0  0  0
    3.8346    0.5535   -0.6002 C   0  0  2  0  0  0  0  0  0  0  0  0
    4.8884    0.9018    0.2346 O   0  0  0  0  0  0  0  0  0  0  0  0
    2.1560    0.3405    2.2784 H   0  0  0  0  0  0  0  0  0  0  0  0
    2.5727   -1.1925    1.3262 H   0  0  0  0  0  0  0  0  0  0  0  0
    3.8131   -0.0021    1.7546 H   0  0  0  0  0  0  0  0  0  0  0  0
    1.8480    2.3159   -0.8253 H   0  0  0  0  0  0  0  0  0  0  0  0
    2.4407    2.5274    0.8954 H   0  0  0  0  0  0  0  0  0  0  0  0
    0.5346    1.4755    1.7893 H   0  0  0  0  0  0  0  0  0  0  0  0
   -0.0344    2.7304    0.6061 H   0  0  0  0  0  0  0  0  0  0  0  0
   -0.2253    1.0847   -1.1703 H   0  0  0  0  0  0  0  0  0  0  0  0
    0.5847   -0.8901    0.9839 H   0  0  0  0  0  0  0  0  0  0  0  0
   -0.5684   -1.2948   -1.8304 H   0  0  0  0  0  0  0  0  0  0  0  0
   -0.4174   -2.5210   -0.4595 H   0  0  0  0  0  0  0  0  0  0  0  0
   -2.0345   -1.6066    0.8197 H   0  0  0  0  0  0  0  0  0  0  0  0
   -3.0125   -2.3641   -1.2340 H   0  0  0  0  0  0  0  0  0  0  0  0
   -2.6224   -0.8451   -2.0842 H   0  0  0  0  0  0  0  0  0  0  0  0
   -5.0248   -0.9979   -1.3011 H   0  0  0  0  0  0  0  0  0  0  0  0
   -4.1157   -2.1717    0.6372 H   0  0  0  0  0  0  0  0  0  0  0  0
   -4.5965    1.2308   -1.4203 H   0  0  0  0  0  0  0  0  0  0  0  0
   -4.5957    1.2232    0.3511 H   0  0  0  0  0  0  0  0  0  0  0  0
   -2.5940    2.3327   -0.3965 H   0  0  0  0  0  0  0  0  0  0  0  0
   -2.3477    1.1784   -1.7182 H   0  0  0  0  0  0  0  0  0  0  0  0
   -1.4570    1.3594    2.2129 H   0  0  0  0  0  0  0  0  0  0  0  0
   -2.0747   -0.3107    2.2344 H   0  0  0  0  0  0  0  0  0  0  0  0
   -3.1380    1.0262    1.7640 H   0  0  0  0  0  0  0  0  0  0  0  0
    1.5043    0.2989   -1.6993 H   0  0  0  0  0  0  0  0  0  0  0  0
    2.4771   -1.7478   -2.1777 H   0  0  0  0  0  0  0  0  0  0  0  0
    2.4037   -2.3850   -0.4971 H   0  0  0  0  0  0  0  0  0  0  0  0
    4.4136   -1.4232   -0.0165 H   0  0  0  0  0  0  0  0  0  0  0  0
    4.6052   -1.0899   -1.8225 H   0  0  0  0  0  0  0  0  0  0  0  0
    3.8224    1.1524   -1.5394 H   0  0  0  0  0  0  0  0  0  0  0  0
    5.4773    0.1455    0.4670 H   0  0  0  0  0  0  0  0  0  0  0  0
  2  1  1  1
  2  3  1  0
  3  4  1  0
  4  5  1  0
  5  6  1  0
  6  7  1  0
  7  8  1  0
  8  9  1  0
  9 10  1  0
 10 11  1  0
 10 12  1  0
 12 13  1  0
 13 14  1  0
 14 15  1  1
  6 16  1  0
 16 17  1  0
 17 18  1  0
 18 19  1  0
 19 20  1  0
 16  2  1  0
 19  2  1  0
 14  5  1  0
 14  8  1  0
  1 21  1  0
  1 22  1  0
  1 23  1  0
  3 24  1  0
  3 25  1  0
  4 26  1  0
  4 27  1  0
  5 28  1  6
  6 29  1  1
  7 30  1  0
  7 31  1  0
  8 32  1  1
  9 33  1  0
  9 34  1  0
 10 35  1  6
 11 36  1  0
 12 37  1  0
 12 38  1  0
 13 39  1  0
 13 40  1  0
 15 41  1  0
 15 42  1  0
 15 43  1  0
 16 44  1  6
 17 45  1  0
 17 46  1  0
 18 47  1  0
 18 48  1  0
 19 49  1  6
 20 50  1  0
M  END
$$$$
[H]c1c(C#N)c([H])c2c(C3([H])C([H])([H])C([H])([H])N(C([H])([H])[H])C([H])([H])C3([H])[H])c([H])n([H])c2c1[H]
     RDKit          3D

 35 37  0  0  0  0  0  0  0  0999 V2000
    4.2446   -0.4693   -0.2081 C   0  0  0  0  0  0  0  0  0  0  0  0
    3.2437    0.5106    0.1236 N   0  0  0  0  0  0  0  0  0  0  0  0
    2.5803    1.0833   -0.9693 C   0  0  0  0  0  0  0  0  0  0  0  0
    1.1019    0.8626   -1.0288 C   0  0  0  0  0  0  0  0  0  0  0  0
    0.7123   -0.1013    0.0559 C   0  0  0  0  0  0  0  0  0  0  0  0
    1.1242    0.3605    1.3801 C   0  0  0  0  0  0  0  0  0  0  0  0
    2.6449    0.4817    1.3726 C   0  0  0  0  0  0  0  0  0  0  0  0
   -0.5188   -0.8185   -0.1652 C   0  0  0  0  0  0  0  0  0  0  0  0
   -0.6666   -2.1580   -0.4675 C   0  0  0  0  0  0  0  0  0  0  0  0
   -1.9718   -2.5086   -0.4914 N   0  0  0  0  0  0  0  0  0  0  0  0
   -2.6813   -1.3863   -0.2068 C   0  0  0  0  0  0  0  0  0  0  0  0
   -4.0574   -1.2018   -0.1959 C   0  0  0  0  0  0  0  0  0  0  0  0
   -4.5443    0.0949    0.0189 C   0  0  0  0  0  0  0  0  0  0  0  0
   -3.6717    1.1469    0.2180 C   0  0  0  0  0  0  0  0  0  0  0  0
   -2.3073    0.8906    0.2015 C   0  0  0  0  0  0  0  0  0  0  0  0
   -1.8137   -0.3543   -0.0084 C   0  0  0  0  0  0  0  0  0  0  0  0
   -4.2280    2.4422    0.3738 C   0  0  0  0  0  0  0  0  0  0  0  0
   -4.6818    3.5243    0.4776 N   0  0  0  0  0  0  0  0  0  0  0  0
    5.2521    0.0263   -0.0744 H   0  0  0  0  0  0  0  0  0  0  0  0
    4.1587   -1.2807    0.5229 H   0  0  0  0  0  0  0  0  0  0  0  0
    4.0876   -0.8410   -1.2423 H   0  0  0  0  0  0  0  0  0  0  0  0
    3.0012    0.6147   -1.9132 H   0  0  0  0  0  0  0  0  0  0  0  0
    2.8620    2.1590   -1.1041 H   0  0  0  0  0  0  0  0  0  0  0  0
    0.7011    0.5704   -2.0145 H   0  0  0  0  0  0  0  0  0  0  0  0
    0.6883    1.9025   -0.7380 H   0  0  0  0  0  0  0  0  0  0  0  0
    1.5390   -0.9525   -0.1483 H   0  0  0  0  0  0  0  0  0  0  0  0
    0.8169   -0.4595    2.1149 H   0  0  0  0  0  0  0  0  0  0  0  0
    0.6588    1.2806    1.7577 H   0  0  0  0  0  0  0  0  0  0  0  0
    2.9256    1.3820    1.9900 H   0  0  0  0  0  0  0  0  0  0  0  0
    3.0238   -0.3722    1.9773 H   0  0  0  0  0  0  0  0  0  0  0  0
    0.1346   -2.8918   -0.6602 H   0  0  0  0  0  0  0  0  0  0  0  0
   -2.3267   -3.4556   -0.6907 H   0  0  0  0  0  0  0  0  0  0  0  0
   -4.7399   -2.0207   -0.3310 H   0  0  0  0  0  0  0  0  0  0  0  0
   -5.6295    0.2439    0.0125 H   0  0  0  0  0  0  0  0  0  0  0  0
   -1.6628    1.6951    0.3595 H   0  0  0  0  0  0  0  0  0  0  0  0
  1  2  1  0
  2  3  1  0
  3  4  1  0
  4  5  1  0
  5  6  1  0
  6  7  1  0
  5  8  1  0
  8  9  2  0
  9 10  1  0
 10 11  1  0
 11 12  2  0
 12 13  1  0
 13 14  2  0
 14 15  1  0
 15 16  2  0
 14 17  1  0
 17 18  3  0
  7  2  1  0
 16  8  1  0
 16 11  1  0
  1 19  1  0
  1 20  1  0
  1 21  1  0
  3 22  1  0
  3 23  1  0
  4 24  1  0
  4 25  1  0
  5 26  1  0
  6 27  1  0
  6 28  1  0
  7 29  1  0
  7 30  1  0
  9 31  1  0
 10 32  1  0
 12 33  1  0
 13 34  1  0
 15 35  1  0
M  END
$$$$
[H]c1c([H])c([H])c(-c2c([H])c([H])c(N([H])C(=O)N([H])c3c([H])c([H])c(C(=O)N([H])[H])c([H])c3[H])c([H])c2[H])c([H])c1[H]
     RDKit          3D

 42 44  0  0  0  0  0  0  0  0999 V2000
    8.7225    0.8485   -0.1727 N   0  0  0  0  0  0  0  0  0  0  0  0
    7.8990   -0.2665    0.0310 C   0  0  0  0  0  0  0  0  0  0  0  0
    8.4161   -1.3946    0.2214 O   0  0  0  0  0  0  0  0  0  0  0  0
    6.4388   -0.1300    0.0232 C   0  0  0  0  0  0  0  0  0  0  0  0
    5.8108    1.0803    0.0309 C   0  0  0  0  0  0  0  0  0  0  0  0
    4.3975    1.1792    0.0097 C   0  0  0  0  0  0  0  0  0  0  0  0
    3.6226    0.0537   -0.0195 C   0  0  0  0  0  0  0  0  0  0  0  0
    2.2084    0.0142   -0.0045 N   0  0  0  0  0  0  0  0  0  0  0  0
    1.4125    1.0609    0.6486 C   0  0  0  0  0  0  0  0  0  0  0  0
    2.0549    1.9624    1.1850 O   0  0  0  0  0  0  0  0  0  0  0  0
    0.0804    0.8827    0.5728 N   0  0  0  0  0  0  0  0  0  0  0  0
   -1.2349    0.7068    0.4979 C   0  0  0  0  0  0  0  0  0  0  0  0
   -2.2722    1.2387    1.2444 C   0  0  0  0  0  0  0  0  0  0  0  0
   -3.5930    0.9054    1.0845 C   0  0  0  0  0  0  0  0  0  0  0  0
   -3.9533    0.0008    0.1440 C   0  0  0  0  0  0  0  0  0  0  0  0
   -2.9627   -0.5669   -0.6386 C   0  0  0  0  0  0  0  0  0  0  0  0
   -1.6683   -0.2481   -0.4884 C   0  0  0  0  0  0  0  0  0  0  0  0
   -5.3194   -0.4279   -0.0759 C   0  0  0  0  0  0  0  0  0  0  0  0
   -5.7147   -0.7988   -1.3563 C   0  0  0  0  0  0  0  0  0  0  0  0
   -7.0055   -1.2239   -1.5921 C   0  0  0  0  0  0  0  0  0  0  0  0
   -7.8915   -1.2664   -0.5087 C   0  0  0  0  0  0  0  0  0  0  0  0
   -7.4747   -0.8955    0.7359 C   0  0  0  0  0  0  0  0  0  0  0  0
   -6.2131   -0.4754    0.9951 C   0  0  0  0  0  0  0  0  0  0  0  0
    4.3183   -1.1810   -0.0277 C   0  0  0  0  0  0  0  0  0  0  0  0
    5.6836   -1.2690   -0.0069 C   0  0  0  0  0  0  0  0  0  0  0  0
    9.7405    0.8381    0.0473 H   0  0  0  0  0  0  0  0  0  0  0  0
    8.3566    1.7540   -0.5594 H   0  0  0  0  0  0  0  0  0  0  0  0
    6.3978    1.9841    0.0546 H   0  0  0  0  0  0  0  0  0  0  0  0
    3.9811    2.1733   -0.0044 H   0  0  0  0  0  0  0  0  0  0  0  0
    1.6793   -0.7709   -0.4638 H   0  0  0  0  0  0  0  0  0  0  0  0
   -0.0713    2.1351    1.1199 H   0  0  0  0  0  0  0  0  0  0  0  0
   -2.0024    1.9726    2.0257 H   0  0  0  0  0  0  0  0  0  0  0  0
   -4.3177    1.3765    1.7227 H   0  0  0  0  0  0  0  0  0  0  0  0
   -3.2304   -1.2993   -1.4015 H   0  0  0  0  0  0  0  0  0  0  0  0
   -0.8686   -0.6810   -1.0860 H   0  0  0  0  0  0  0  0  0  0  0  0
   -5.0539   -0.7715   -2.2130 H   0  0  0  0  0  0  0  0  0  0  0  0
   -7.3848   -1.5278   -2.5460 H   0  0  0  0  0  0  0  0  0  0  0  0
   -8.9110   -1.5914   -0.6516 H   0  0  0  0  0  0  0  0  0  0  0  0
   -8.1610   -0.9260    1.6005 H   0  0  0  0  0  0  0  0  0  0  0  0
   -5.8277   -0.1678    1.9433 H   0  0  0  0  0  0  0  0  0  0  0  0
    3.7078   -2.0476   -0.0520 H   0  0  0  0  0  0  0  0  0  0  0  0
    6.2036   -2.2402   -0.0114 H   0  0  0  0  0  0  0  0  0  0  0  0
  1  2  1  0
  2  3  2  0
  2  4  1  0
  4  5  2  0
  5  6  1  0
  6  7  2  0
  7  8  1  0
  8  9  1  0
  9 10  2  0
  9 11  1  0
 11 12  1  0
 12 13  2  0
 13 14  1  0
 14 15  2  0
 15 16  1  0
 16 17  2  0
 15 18  1  0
 18 19  2  0
 19 20  1  0
 20 21  2  0
 21 22  1  0
 22 23  2  0
  7 24  1  0
 24 25  2  0
 25  4  1  0
 17 12  1  0
 23 18  1  0
  1 26  1  0
  1 27  1  0
  5 28  1  0
  6 29  1  0
  8 30  1  0
 11 31  1  0
 13 32  1  0
 14 33  1  0
 16 34  1  0
 17 35  1  0
 19 36  1  0
 20 37  1  0
 21 38  1  0
 22 39  1  0
 23 40  1  0
 24 41  1  0
 25 42  1  0
M  END
$$$$
[H]c1nc(N([H])c2c([H])c([H])c(N3C([H])([H])C([H])([H])N(S(=O)(=O)C([H])([H])[H])C([H])([H])C3([H])[H])c([H])c2OC([H])([H])[H])nc(N([H])c2c([H])c([H])c([H])c([H])c2S(=O)(=O)C([H])(C([H])([H])[H])C([H])([H])[H])c1Cl
     RDKit          3D

 70 73  0  0  0  0  0  0  0  0999 V2000
    2.2299   -3.5693    0.8034 C   0  0  0  0  0  0  0  0  0  0  0  0
    1.4892   -2.3958    0.5562 O   0  0  0  0  0  0  0  0  0  0  0  0
    2.1431   -1.1941    0.3743 C   0  0  0  0  0  0  0  0  0  0  0  0
    3.4979   -1.1656    0.4368 C   0  0  0  0  0  0  0  0  0  0  0  0
    4.1666    0.0503    0.2524 C   0  0  0  0  0  0  0  0  0  0  0  0
    3.4299    1.1530    0.0189 C   0  0  0  0  0  0  0  0  0  0  0  0
    2.0186    1.1210   -0.0455 C   0  0  0  0  0  0  0  0  0  0  0  0
    1.3650   -0.0428    0.1296 C   0  0  0  0  0  0  0  0  0  0  0  0
   -0.0264   -0.1872    0.0903 N   0  0  0  0  0  0  0  0  0  0  0  0
   -0.9767    0.8083   -0.1706 C   0  0  0  0  0  0  0  0  0  0  0  0
   -0.6629    2.0671   -0.4284 N   0  0  0  0  0  0  0  0  0  0  0  0
   -1.5850    2.9903   -0.6746 C   0  0  0  0  0  0  0  0  0  0  0  0
   -2.8967    2.6366   -0.6628 C   0  0  0  0  0  0  0  0  0  0  0  0
   -4.0822    3.8551   -0.9847 Cl  0  0  0  0  0  0  0  0  0  0  0  0
   -3.3042    1.3128   -0.3954 C   0  0  0  0  0  0  0  0  0  0  0  0
   -4.6769    1.0066   -0.3969 N   0  0  0  0  0  0  0  0  0  0  0  0
   -5.3308   -0.2044   -0.1671 C   0  0  0  0  0  0  0  0  0  0  0  0
   -4.6281   -1.3643    0.1022 C   0  0  0  0  0  0  0  0  0  0  0  0
   -5.2714   -2.5868    0.3304 C   0  0  0  0  0  0  0  0  0  0  0  0
   -6.6341   -2.6468    0.2881 C   0  0  0  0  0  0  0  0  0  0  0  0
   -7.3216   -1.4920    0.0206 C   0  0  0  0  0  0  0  0  0  0  0  0
   -6.7380   -0.2793   -0.2078 C   0  0  0  0  0  0  0  0  0  0  0  0
   -7.6354    1.1614   -0.5397 S   0  0  0  0  0  0  0  0  0  0  0  0
   -7.3098    1.6676   -1.9138 O   0  0  0  0  0  0  0  0  0  0  0  0
   -7.4049    2.2625    0.4404 O   0  0  0  0  0  0  0  0  0  0  0  0
   -9.3941    0.8309   -0.5470 C   0  0  0  0  0  0  0  0  0  0  0  0
  -10.0658    2.1328   -1.0011 C   0  0  0  0  0  0  0  0  0  0  0  0
   -9.9246    0.5102    0.8135 C   0  0  0  0  0  0  0  0  0  0  0  0
   -2.3102    0.4684   -0.1628 N   0  0  0  0  0  0  0  0  0  0  0  0
    5.5978    0.1053    0.2971 N   0  0  0  0  0  0  0  0  0  0  0  0
    6.2918   -1.1399    0.1813 C   0  0  0  0  0  0  0  0  0  0  0  0
    7.7261   -1.0321   -0.2120 C   0  0  0  0  0  0  0  0  0  0  0  0
    8.3203    0.1250    0.3909 N   0  0  0  0  0  0  0  0  0  0  0  0
    7.6485    1.2960   -0.1728 C   0  0  0  0  0  0  0  0  0  0  0  0
    6.2791    1.3507    0.4776 C   0  0  0  0  0  0  0  0  0  0  0  0
   10.0108    0.1849   -0.0009 S   0  0  0  0  0  0  0  0  0  0  0  0
   10.7779   -1.2638    0.6637 C   0  0  0  0  0  0  0  0  0  0  0  0
   10.5991    1.3835    0.6860 O   0  0  0  0  0  0  0  0  0  0  0  0
   10.2363    0.2577   -1.4663 O   0  0  0  0  0  0  0  0  0  0  0  0
    2.8730   -3.4628    1.7112 H   0  0  0  0  0  0  0  0  0  0  0  0
    2.8932   -3.8605   -0.0191 H   0  0  0  0  0  0  0  0  0  0  0  0
    1.4827   -4.3841    1.0078 H   0  0  0  0  0  0  0  0  0  0  0  0
    4.1136   -2.0336    0.6287 H   0  0  0  0  0  0  0  0  0  0  0  0
    3.8654    2.1545   -0.1401 H   0  0  0  0  0  0  0  0  0  0  0  0
    1.5286    2.0798   -0.2372 H   0  0  0  0  0  0  0  0  0  0  0  0
   -0.4291   -1.1936    0.2864 H   0  0  0  0  0  0  0  0  0  0  0  0
   -1.2454    4.0031   -0.8773 H   0  0  0  0  0  0  0  0  0  0  0  0
   -5.3112    1.8438   -0.6115 H   0  0  0  0  0  0  0  0  0  0  0  0
   -3.5505   -1.4230    0.1569 H   0  0  0  0  0  0  0  0  0  0  0  0
   -4.6794   -3.4651    0.5368 H   0  0  0  0  0  0  0  0  0  0  0  0
   -7.1747   -3.5983    0.4643 H   0  0  0  0  0  0  0  0  0  0  0  0
   -8.4108   -1.5291   -0.0160 H   0  0  0  0  0  0  0  0  0  0  0  0
   -9.5960    0.0856   -1.3236 H   0  0  0  0  0  0  0  0  0  0  0  0
   -9.8660    2.3265   -2.0557 H   0  0  0  0  0  0  0  0  0  0  0  0
  -11.1519    2.1183   -0.7607 H   0  0  0  0  0  0  0  0  0  0  0  0
   -9.5872    2.9375   -0.3744 H   0  0  0  0  0  0  0  0  0  0  0  0
   -9.1141    0.3446    1.5609 H   0  0  0  0  0  0  0  0  0  0  0  0
  -10.5340   -0.4295    0.7111 H   0  0  0  0  0  0  0  0  0  0  0  0
  -10.6090    1.2718    1.2197 H   0  0  0  0  0  0  0  0  0  0  0  0
    5.7145   -1.7954   -0.5288 H   0  0  0  0  0  0  0  0  0  0  0  0
    6.2529   -1.6174    1.2021 H   0  0  0  0  0  0  0  0  0  0  0  0
    8.2449   -1.9499    0.1874 H   0  0  0  0  0  0  0  0  0  0  0  0
    7.8434   -1.0365   -1.3175 H   0  0  0  0  0  0  0  0  0  0  0  0
    7.5254    1.2269   -1.2627 H   0  0  0  0  0  0  0  0  0  0  0  0
    8.1899    2.2104    0.0865 H   0  0  0  0  0  0  0  0  0  0  0  0
    6.4307    1.5004    1.5751 H   0  0  0  0  0  0  0  0  0  0  0  0
    5.7673    2.2379    0.0565 H   0  0  0  0  0  0  0  0  0  0  0  0
   11.8248   -1.0329    0.8812 H   0  0  0  0  0  0  0  0  0  0  0  0
   10.2965   -1.6271    1.5791 H   0  0  0  0  0  0  0  0  0  0  0  0
   10.7643   -2.0762   -0.1001 H   0  0  0  0  0  0  0  0  0  0  0  0
  1  2  1  0
  2  3  1  0
  3  4  2  0
  4  5  1  0
  5  6  2  0
  6  7  1  0
  7  8  2  0
  8  9  1  0
  9 10  1  0
 10 11  2  0
 11 12  1  0
 12 13  2  0
 13 14  1  0
 13 15  1  0
 15 16  1  0
 16 17  1  0
 17 18  2  0
 18 19  1  0
 19 20  2  0
 20 21  1  0
 21 22  2  0
 22 23  1  0
 23 24  2  0
 23 25  2  0
 23 26  1  0
 26 27  1  0
 26 28  1  0
 15 29  2  0
  5 30  1  0
 30 31  1  0
 31 32  1  0
 32 33  1  0
 33 34  1  0
 34 35  1  0
 33 36  1  0
 36 37  1  0
 36 38  2  0
 36 39  2  0
  8  3  1  0
 29 10  1  0
 35 30  1  0
 22 17  1  0
  1 40  1  0
  1 41  1  0
  1 42  1  0
  4 43  1  0
  6 44  1  0
  7 45  1  0
  9 46  1  0
 12 47  1  0
 16 48  1  0
 18 49  1  0
 19 50  1  0
 20 51  1  0
 21 52  1  0
 26 53  1  0
 27 54  1  0
 27 55  1  0
 27 56  1  0
 28 57  1  0
 28 58  1  0
 28 59  1  0
 31 60  1  0
 31 61  1  0
 32 62  1  0
 32 63  1  0
 34 64  1  0
 34 65  1  0
 35 66  1  0
 35 67  1  0
 37 68  1  0
 37 69  1  0
 37 70  1  0
M  END
$$$$
[H]c1c([H])c([H])c(-c2nc(-c3c([H])c([H])c(N4C([H])([H])C([H])([H])N(C([H])([H])[H])C([H])([H])C4([H])[H])c([H])c3[H])c([H])c(=O)n2[H])c([H])c1[H]
     RDKit          3D

 48 51  0  0  0  0  0  0  0  0999 V2000
    6.1000   -0.7834    2.3371 C   0  0  0  0  0  0  0  0  0  0  0  0
    5.6583    0.2719    1.4414 N   0  0  0  0  0  0  0  0  0  0  0  0
    4.4714    0.8650    2.0219 C   0  0  0  0  0  0  0  0  0  0  0  0
    3.7517    1.7644    1.0727 C   0  0  0  0  0  0  0  0  0  0  0  0
    3.4641    0.9600   -0.1195 N   0  0  0  0  0  0  0  0  0  0  0  0
    4.6732    0.5583   -0.8138 C   0  0  0  0  0  0  0  0  0  0  0  0
    5.4661   -0.2935    0.1492 C   0  0  0  0  0  0  0  0  0  0  0  0
    2.1552    0.6224   -0.5099 C   0  0  0  0  0  0  0  0  0  0  0  0
    1.9050    0.1042   -1.7584 C   0  0  0  0  0  0  0  0  0  0  0  0
    0.6058   -0.2504   -2.1661 C   0  0  0  0  0  0  0  0  0  0  0  0
   -0.4744   -0.0929   -1.3295 C   0  0  0  0  0  0  0  0  0  0  0  0
   -0.2054    0.4288   -0.0799 C   0  0  0  0  0  0  0  0  0  0  0  0
    1.0825    0.7795    0.3226 C   0  0  0  0  0  0  0  0  0  0  0  0
   -1.8398   -0.4410   -1.6944 C   0  0  0  0  0  0  0  0  0  0  0  0
   -2.1923   -0.9628   -2.9111 C   0  0  0  0  0  0  0  0  0  0  0  0
   -3.5135   -1.2833   -3.2217 C   0  0  0  0  0  0  0  0  0  0  0  0
   -3.8262   -1.7661   -4.3527 O   0  0  0  0  0  0  0  0  0  0  0  0
   -4.4453   -1.0619   -2.2779 N   0  0  0  0  0  0  0  0  0  0  0  0
   -4.1371   -0.5523   -1.0756 C   0  0  0  0  0  0  0  0  0  0  0  0
   -2.8298   -0.2512   -0.8098 N   0  0  0  0  0  0  0  0  0  0  0  0
   -5.1116   -0.2942   -0.0197 C   0  0  0  0  0  0  0  0  0  0  0  0
   -4.7006    0.2317    1.1845 C   0  0  0  0  0  0  0  0  0  0  0  0
   -5.6208    0.4706    2.1690 C   0  0  0  0  0  0  0  0  0  0  0  0
   -6.9613    0.1917    1.9741 C   0  0  0  0  0  0  0  0  0  0  0  0
   -7.3944   -0.3351    0.7765 C   0  0  0  0  0  0  0  0  0  0  0  0
   -6.4513   -0.5742   -0.2175 C   0  0  0  0  0  0  0  0  0  0  0  0
    5.2149   -1.4291    2.5260 H   0  0  0  0  0  0  0  0  0  0  0  0
    6.3879   -0.3360    3.3142 H   0  0  0  0  0  0  0  0  0  0  0  0
    6.9471   -1.3588    1.8870 H   0  0  0  0  0  0  0  0  0  0  0  0
    3.8262    0.0515    2.4279 H   0  0  0  0  0  0  0  0  0  0  0  0
    4.7832    1.4659    2.9003 H   0  0  0  0  0  0  0  0  0  0  0  0
    2.8990    2.2282    1.5341 H   0  0  0  0  0  0  0  0  0  0  0  0
    4.4700    2.5545    0.7605 H   0  0  0  0  0  0  0  0  0  0  0  0
    5.2419    1.4853   -1.0419 H   0  0  0  0  0  0  0  0  0  0  0  0
    4.5345   -0.0119   -1.7202 H   0  0  0  0  0  0  0  0  0  0  0  0
    5.0073   -1.3146    0.2040 H   0  0  0  0  0  0  0  0  0  0  0  0
    6.4694   -0.4397   -0.3131 H   0  0  0  0  0  0  0  0  0  0  0  0
    2.7138   -0.0391   -2.4615 H   0  0  0  0  0  0  0  0  0  0  0  0
    0.4590   -0.6496   -3.1455 H   0  0  0  0  0  0  0  0  0  0  0  0
   -1.0636    0.5588    0.5973 H   0  0  0  0  0  0  0  0  0  0  0  0
    1.2285    1.1763    1.3064 H   0  0  0  0  0  0  0  0  0  0  0  0
   -1.4300   -1.1297   -3.6463 H   0  0  0  0  0  0  0  0  0  0  0  0
   -5.4317   -1.2965   -2.4977 H   0  0  0  0  0  0  0  0  0  0  0  0
   -3.6524    0.4408    1.3134 H   0  0  0  0  0  0  0  0  0  0  0  0
   -5.2926    0.8868    3.1205 H   0  0  0  0  0  0  0  0  0  0  0  0
   -7.6502    0.3975    2.7813 H   0  0  0  0  0  0  0  0  0  0  0  0
   -8.4458   -0.5596    0.6089 H   0  0  0  0  0  0  0  0  0  0  0  0
   -6.8461   -0.9873   -1.1349 H   0  0  0  0  0  0  0  0  0  0  0  0
  1  2  1  0
  2  3  1  0
  3  4  1  0
  4  5  1  0
  5  6  1  0
  6  7  1  0
  5  8  1  0
  8  9  2  0
  9 10  1  0
 10 11  2  0
 11 12  1  0
 12 13  2  0
 11 14  1  0
 14 15  2  0
 15 16  1  0
 16 17  2  0
 16 18  1  0
 18 19  1  0
 19 20  2  0
 19 21  1  0
 21 22  2  0
 22 23  1  0
 23 24  2  0
 24 25  1  0
 25 26  2  0
  7  2  1  0
 13  8  1  0
 20 14  1  0
 26 21  1  0
  1 27  1  0
  1 28  1  0
  1 29  1  0
  3 30  1  0
  3 31  1  0
  4 32  1  0
  4 33  1  0
  6 34  1  0
  6 35  1  0
  7 36  1  0
  7 37  1  0
  9 38  1  0
 10 39  1  0
 12 40  1  0
 13 41  1  0
 15 42  1  0
 18 43  1  0
 22 44  1  0
 23 45  1  0
 24 46  1  0
 25 47  1  0
 26 48  1  0
M  END
$$$$
[H]c1c([H])c([H])c(C(=O)N2C([H])([H])C([H])([H])N(C(=O)c3nc4c([H])c(-c5c([H])c([H])c(S(=O)(=O)N([H])[H])c([H])c5[H])c([H])c([H])c4n3[H])C([H])([H])C2([H])[H])c([H])c1[H]
     RDKit          3D

 58 62  0  0  0  0  0  0  0  0999 V2000
   11.1490    0.4398    0.3967 N   0  0  0  0  0  0  0  0  0  0  0  0
   10.3015   -0.8263   -0.4155 S   0  0  0  0  0  0  0  0  0  0  0  0
   10.7118   -2.1767    0.0577 O   0  0  0  0  0  0  0  0  0  0  0  0
   10.5905   -0.7252   -1.8856 O   0  0  0  0  0  0  0  0  0  0  0  0
    8.5752   -0.6449   -0.1581 C   0  0  0  0  0  0  0  0  0  0  0  0
    7.9290   -1.2327    0.9093 C   0  0  0  0  0  0  0  0  0  0  0  0
    6.5703   -1.0694    1.0821 C   0  0  0  0  0  0  0  0  0  0  0  0
    5.8079   -0.3226    0.2093 C   0  0  0  0  0  0  0  0  0  0  0  0
    6.4473    0.2653   -0.8563 C   0  0  0  0  0  0  0  0  0  0  0  0
    7.8058    0.0934   -1.0164 C   0  0  0  0  0  0  0  0  0  0  0  0
    4.3558   -0.1636    0.4211 C   0  0  0  0  0  0  0  0  0  0  0  0
    3.8412   -0.1470    1.6973 C   0  0  0  0  0  0  0  0  0  0  0  0
    2.4718    0.0033    1.8888 C   0  0  0  0  0  0  0  0  0  0  0  0
    1.6093    0.1374    0.8229 C   0  0  0  0  0  0  0  0  0  0  0  0
    0.2525    0.2956    0.7277 N   0  0  0  0  0  0  0  0  0  0  0  0
   -0.0611    0.3748   -0.5578 C   0  0  0  0  0  0  0  0  0  0  0  0
    1.0966    0.2665   -1.2994 N   0  0  0  0  0  0  0  0  0  0  0  0
    2.1098    0.1221   -0.4477 C   0  0  0  0  0  0  0  0  0  0  0  0
    3.4922   -0.0297   -0.6411 C   0  0  0  0  0  0  0  0  0  0  0  0
   -1.3599    0.5647   -1.1804 C   0  0  0  0  0  0  0  0  0  0  0  0
   -1.3644    0.5510   -2.5043 O   0  0  0  0  0  0  0  0  0  0  0  0
   -2.6077    0.7585   -0.6052 N   0  0  0  0  0  0  0  0  0  0  0  0
   -2.9842    0.8728    0.7704 C   0  0  0  0  0  0  0  0  0  0  0  0
   -3.7068   -0.4461    1.1137 C   0  0  0  0  0  0  0  0  0  0  0  0
   -4.8956   -0.3803    0.1885 N   0  0  0  0  0  0  0  0  0  0  0  0
   -4.5440   -0.4613   -1.1795 C   0  0  0  0  0  0  0  0  0  0  0  0
   -3.7968    0.8176   -1.5306 C   0  0  0  0  0  0  0  0  0  0  0  0
   -6.1214   -0.3030    0.8022 C   0  0  0  0  0  0  0  0  0  0  0  0
   -6.1725   -0.3725    2.1158 O   0  0  0  0  0  0  0  0  0  0  0  0
   -7.4237   -0.1504    0.1883 C   0  0  0  0  0  0  0  0  0  0  0  0
   -7.6780    0.2338   -1.0929 C   0  0  0  0  0  0  0  0  0  0  0  0
   -8.9616    0.2752   -1.5888 C   0  0  0  0  0  0  0  0  0  0  0  0
  -10.0584   -0.0624   -0.8323 C   0  0  0  0  0  0  0  0  0  0  0  0
   -9.8195   -0.4501    0.4628 C   0  0  0  0  0  0  0  0  0  0  0  0
   -8.5499   -0.4914    0.9510 C   0  0  0  0  0  0  0  0  0  0  0  0
   10.5307    1.2456    0.6207 H   0  0  0  0  0  0  0  0  0  0  0  0
   11.6843    0.0940    1.2205 H   0  0  0  0  0  0  0  0  0  0  0  0
    8.5342   -1.8215    1.5966 H   0  0  0  0  0  0  0  0  0  0  0  0
    6.0511   -1.5259    1.9155 H   0  0  0  0  0  0  0  0  0  0  0  0
    5.8841    0.8492   -1.5486 H   0  0  0  0  0  0  0  0  0  0  0  0
    8.3149    0.5563   -1.8565 H   0  0  0  0  0  0  0  0  0  0  0  0
    4.4981   -0.2503    2.5496 H   0  0  0  0  0  0  0  0  0  0  0  0
    2.0493    0.0186    2.8885 H   0  0  0  0  0  0  0  0  0  0  0  0
   -0.3416    0.3224    1.5831 H   0  0  0  0  0  0  0  0  0  0  0  0
    3.8987   -0.0435   -1.6288 H   0  0  0  0  0  0  0  0  0  0  0  0
   -3.8219    1.6717    0.7909 H   0  0  0  0  0  0  0  0  0  0  0  0
   -2.2699    1.1955    1.4930 H   0  0  0  0  0  0  0  0  0  0  0  0
   -4.0115   -0.5075    2.1493 H   0  0  0  0  0  0  0  0  0  0  0  0
   -3.0863   -1.2574    0.7164 H   0  0  0  0  0  0  0  0  0  0  0  0
   -5.2789   -0.7914   -1.9008 H   0  0  0  0  0  0  0  0  0  0  0  0
   -3.7053   -1.2509   -1.2239 H   0  0  0  0  0  0  0  0  0  0  0  0
   -4.3449    1.7327   -1.2932 H   0  0  0  0  0  0  0  0  0  0  0  0
   -3.4081    0.7711   -2.5527 H   0  0  0  0  0  0  0  0  0  0  0  0
   -6.8968    0.5558   -1.7386 H   0  0  0  0  0  0  0  0  0  0  0  0
   -9.1292    0.5894   -2.6292 H   0  0  0  0  0  0  0  0  0  0  0  0
  -11.0673   -0.0308   -1.2188 H   0  0  0  0  0  0  0  0  0  0  0  0
  -10.6915   -0.7224    1.0799 H   0  0  0  0  0  0  0  0  0  0  0  0
   -8.4042   -0.8038    1.9733 H   0  0  0  0  0  0  0  0  0  0  0  0
  1  2  1  0
  2  3  2  0
  2  4  2  0
  2  5  1  0
  5  6  2  0
  6  7  1  0
  7  8  2  0
  8  9  1  0
  9 10  2  0
  8 11  1  0
 11 12  2  0
 12 13  1  0
 13 14  2  0
 14 15  1  0
 15 16  1  0
 16 17  2  0
 17 18  1  0
 18 19  2  0
 16 20  1  0
 20 21  2  0
 20 22  1  0
 22 23  1  0
 23 24  1  0
 24 25  1  0
 25 26  1  0
 26 27  1  0
 25 28  1  0
 28 29  2  0
 28 30  1  0
 30 31  2  0
 31 32  1  0
 32 33  2  0
 33 34  1  0
 34 35  2  0
 10  5  1  0
 19 11  1  0
 27 22  1  0
 35 30  1  0
 18 14  1  0
  1 36  1  0
  1 37  1  0
  6 38  1  0
  7 39  1  0
  9 40  1  0
 10 41  1  0
 12 42  1  0
 13 43  1  0
 15 44  1  0
 19 45  1  0
 23 46  1  0
 23 47  1  0
 24 48  1  0
 24 49  1  0
 26 50  1  0
 26 51  1  0
 27 52  1  0
 27 53  1  0
 31 54  1  0
 32 55  1  0
 33 56  1  0
 34 57  1  0
 35 58  1  0
M  END
$$$$
[H]c1c([H])c(Cl)c(N2C([H])([H])C([H])([H])N(c3c([H])c([H])c(Cl)c(Cl)c3[H])[C@]([H])(C([H])([H])[H])C2([H])[H])c([H])c1Cl
     RDKit          3D

 39 41  0  0  0  0  0  0  0  0999 V2000
    0.2285    1.9478    0.4003 C   0  0  0  0  0  0  0  0  0  0  0  0
    0.5559    0.9339   -0.7033 C   0  0  2  0  0  0  0  0  0  0  0  0
   -0.7335    0.5295   -1.3606 C   0  0  0  0  0  0  0  0  0  0  0  0
   -1.3523   -0.6071   -0.7282 N   0  0  0  0  0  0  0  0  0  0  0  0
   -0.5541   -1.7736   -0.4256 C   0  0  0  0  0  0  0  0  0  0  0  0
    0.8117   -1.4781    0.0629 C   0  0  0  0  0  0  0  0  0  0  0  0
    1.2974   -0.1474   -0.1478 N   0  0  0  0  0  0  0  0  0  0  0  0
    2.6562    0.1029    0.2391 C   0  0  0  0  0  0  0  0  0  0  0  0
    3.4244   -0.8880    0.8520 C   0  0  0  0  0  0  0  0  0  0  0  0
    4.7346   -0.6851    1.2357 C   0  0  0  0  0  0  0  0  0  0  0  0
    5.2720    0.5468    0.9916 C   0  0  0  0  0  0  0  0  0  0  0  0
    6.9445    0.8121    1.4791 Cl  0  0  0  0  0  0  0  0  0  0  0  0
    4.5563    1.5436    0.3948 C   0  0  0  0  0  0  0  0  0  0  0  0
    5.3450    3.1052    0.1226 Cl  0  0  0  0  0  0  0  0  0  0  0  0
    3.2583    1.3218    0.0219 C   0  0  0  0  0  0  0  0  0  0  0  0
   -2.7308   -0.5449   -0.4212 C   0  0  0  0  0  0  0  0  0  0  0  0
   -3.2415   -0.6562    0.8661 C   0  0  0  0  0  0  0  0  0  0  0  0
   -4.5945   -0.5886    1.1141 C   0  0  0  0  0  0  0  0  0  0  0  0
   -5.2159   -0.7301    2.7346 Cl  0  0  0  0  0  0  0  0  0  0  0  0
   -5.4835   -0.4073    0.0825 C   0  0  0  0  0  0  0  0  0  0  0  0
   -5.0027   -0.2956   -1.1902 C   0  0  0  0  0  0  0  0  0  0  0  0
   -3.6319   -0.3641   -1.4415 C   0  0  0  0  0  0  0  0  0  0  0  0
   -3.1336   -0.2105   -3.0971 Cl  0  0  0  0  0  0  0  0  0  0  0  0
   -0.8442    1.8396    0.6731 H   0  0  0  0  0  0  0  0  0  0  0  0
    0.4182    2.9765    0.0794 H   0  0  0  0  0  0  0  0  0  0  0  0
    0.8034    1.7449    1.3196 H   0  0  0  0  0  0  0  0  0  0  0  0
    1.1425    1.4709   -1.4726 H   0  0  0  0  0  0  0  0  0  0  0  0
   -0.5755    0.2879   -2.4317 H   0  0  0  0  0  0  0  0  0  0  0  0
   -1.4233    1.3945   -1.3228 H   0  0  0  0  0  0  0  0  0  0  0  0
   -1.0957   -2.3404    0.3846 H   0  0  0  0  0  0  0  0  0  0  0  0
   -0.4931   -2.4808   -1.2814 H   0  0  0  0  0  0  0  0  0  0  0  0
    1.5747   -2.1614   -0.4189 H   0  0  0  0  0  0  0  0  0  0  0  0
    0.9333   -1.6881    1.1662 H   0  0  0  0  0  0  0  0  0  0  0  0
    2.9586   -1.8596    1.0313 H   0  0  0  0  0  0  0  0  0  0  0  0
    5.2460   -1.5058    1.7000 H   0  0  0  0  0  0  0  0  0  0  0  0
    2.7326    2.1574   -0.4534 H   0  0  0  0  0  0  0  0  0  0  0  0
   -2.5073   -0.7986    1.6547 H   0  0  0  0  0  0  0  0  0  0  0  0
   -6.5689   -0.3505    0.2585 H   0  0  0  0  0  0  0  0  0  0  0  0
   -5.7115   -0.1533   -1.9938 H   0  0  0  0  0  0  0  0  0  0  0  0
  1  2  1  0
  2  3  1  0
  3  4  1  0
  4  5  1  0
  5  6  1  0
  6  7  1  0
  7  8  1  0
  8  9  2  0
  9 10  1  0
 10 11  2  0
 11 12  1  0
 11 13  1  0
 13 14  1  0
 13 15  2  0
  4 16  1  0
 16 17  2  0
 17 18  1  0
 18 19  1  0
 18 20  2  0
 20 21  1  0
 21 22  2  0
 22 23  1  0
  7  2  1  0
 15  8  1  0
 22 16  1  0
  1 24  1  0
  1 25  1  0
  1 26  1  0
  2 27  1  6
  3 28  1  0
  3 29  1  0
  5 30  1  0
  5 31  1  0
  6 32  1  0
  6 33  1  0
  9 34  1  0
 10 35  1  0
 15 36  1  0
 17 37  1  0
 20 38  1  0
 21 39  1  0
M  END
$$$$
[H]N(C(=O)[C@@]([H])(N([H])C(=O)[C@@]([H])(N([H])C(=O)[C@@]([H])(N([H])C(=O)[C@@]([H])(C(=O)C([H])([H])[H])C([H])([H])[H])C([H])([H])[H])C([H])([H])[H])C([H])([H])[H])[C@]([H])(C(=O)N([H])[C@]([H])(C(=O)N([H])[C@]([H])(C(=O)N([H])[C@]([H])(C(=O)N([H])[C@]([H])(C(=O)N1C([H])([H])C([H])([H])C([H])([H])[C@@]1([H])C(=O)N(C([H])([H])[H])C([H])([H])[H])C([H])([H])C([H])(C([H])([H])[H])C([H])([H])[H])C([H])([H])[H])C([H])([H])[H])C([H])([H])[H])C([H])([H])[H]
     RDKit          3D

126126  0  0  0  0  0  0  0  0999 V2000
  -10.8110   -2.7641   -2.8112 C   0  0  0  0  0  0  0  0  0  0  0  0
  -11.1767   -3.1702   -1.3912 C   0  0  0  0  0  0  0  0  0  0  0  0
  -10.1831   -4.1189   -0.8420 C   0  0  0  0  0  0  0  0  0  0  0  0
  -11.5748   -2.0125   -0.5489 C   0  0  0  0  0  0  0  0  0  0  0  0
  -10.6139   -0.9181   -0.3760 C   0  0  2  0  0  0  0  0  0  0  0  0
   -9.3851   -1.3842    0.2405 N   0  0  0  0  0  0  0  0  0  0  0  0
   -8.1210   -0.8941   -0.1695 C   0  0  0  0  0  0  0  0  0  0  0  0
   -8.1146   -0.0252   -1.1127 O   0  0  0  0  0  0  0  0  0  0  0  0
   -6.8444   -1.3308    0.4405 C   0  0  2  0  0  0  0  0  0  0  0  0
   -6.9684   -1.8162    1.8534 C   0  0  0  0  0  0  0  0  0  0  0  0
   -5.7916   -0.3605    0.2221 N   0  0  0  0  0  0  0  0  0  0  0  0
   -4.5066   -0.6146   -0.2674 C   0  0  0  0  0  0  0  0  0  0  0  0
   -4.1178   -1.7539   -0.5760 O   0  0  0  0  0  0  0  0  0  0  0  0
   -3.5008    0.4957   -0.4538 C   0  0  2  0  0  0  0  0  0  0  0  0
   -3.9996    1.4721   -1.4852 C   0  0  0  0  0  0  0  0  0  0  0  0
   -2.2466   -0.0503   -0.9221 N   0  0  0  0  0  0  0  0  0  0  0  0
   -1.0270    0.1248   -0.2279 C   0  0  0  0  0  0  0  0  0  0  0  0
   -1.1234    0.8205    0.8492 O   0  0  0  0  0  0  0  0  0  0  0  0
    0.2457   -0.4302   -0.6805 C   0  0  2  0  0  0  0  0  0  0  0  0
    0.1299   -1.9422   -0.9218 C   0  0  0  0  0  0  0  0  0  0  0  0
    1.3816   -0.1493    0.1545 N   0  0  0  0  0  0  0  0  0  0  0  0
    2.6673    0.1001   -0.3488 C   0  0  0  0  0  0  0  0  0  0  0  0
    2.8547    0.0519   -1.6073 O   0  0  0  0  0  0  0  0  0  0  0  0
    3.8376    0.4192    0.4805 C   0  0  2  0  0  0  0  0  0  0  0  0
    3.5798    1.8113    1.0636 C   0  0  0  0  0  0  0  0  0  0  0  0
    5.0698    0.4195   -0.2917 N   0  0  0  0  0  0  0  0  0  0  0  0
    6.2970   -0.1031    0.1955 C   0  0  0  0  0  0  0  0  0  0  0  0
    6.2678   -0.5663    1.3941 O   0  0  0  0  0  0  0  0  0  0  0  0
    7.5172   -0.1235   -0.5882 C   0  0  2  0  0  0  0  0  0  0  0  0
    7.3689   -1.1034   -1.7869 C   0  0  0  0  0  0  0  0  0  0  0  0
    8.6926   -0.5410    0.1625 N   0  0  0  0  0  0  0  0  0  0  0  0
    9.9565   -0.0386   -0.2115 C   0  0  0  0  0  0  0  0  0  0  0  0
   10.0123    0.7722   -1.2219 O   0  0  0  0  0  0  0  0  0  0  0  0
   11.2317   -0.3321    0.4209 C   0  0  2  0  0  0  0  0  0  0  0  0
   11.5697    0.8093    1.4168 C   0  0  0  0  0  0  0  0  0  0  0  0
   12.2994   -0.4041   -0.5608 N   0  0  0  0  0  0  0  0  0  0  0  0
   13.6545   -0.7642   -0.2476 C   0  0  0  0  0  0  0  0  0  0  0  0
   13.8940   -1.0032    0.9811 O   0  0  0  0  0  0  0  0  0  0  0  0
   14.6932   -0.8497   -1.2747 C   0  0  2  0  0  0  0  0  0  0  0  0
   14.8791   -2.3212   -1.7082 C   0  0  0  0  0  0  0  0  0  0  0  0
   15.9641   -0.3458   -0.7546 N   0  0  0  0  0  0  0  0  0  0  0  0
   16.8245    0.4482   -1.5322 C   0  0  0  0  0  0  0  0  0  0  0  0
   16.4938    0.7288   -2.7122 O   0  0  0  0  0  0  0  0  0  0  0  0
   18.1018    0.9330   -0.9340 C   0  0  2  0  0  0  0  0  0  0  0  0
   18.9408   -0.1802   -0.3597 C   0  0  0  0  0  0  0  0  0  0  0  0
   17.9605    2.0897   -0.0705 C   0  0  0  0  0  0  0  0  0  0  0  0
   17.1286    2.1573    1.1649 C   0  0  0  0  0  0  0  0  0  0  0  0
   18.5641    3.1406   -0.3414 O   0  0  0  0  0  0  0  0  0  0  0  0
  -11.1032    0.1880    0.5266 C   0  0  0  0  0  0  0  0  0  0  0  0
  -10.4078    0.4112    1.5657 O   0  0  0  0  0  0  0  0  0  0  0  0
  -12.2589    0.9667    0.2734 N   0  0  0  0  0  0  0  0  0  0  0  0
  -13.2059    0.9091   -0.8013 C   0  0  0  0  0  0  0  0  0  0  0  0
  -13.8589    2.2942   -0.8835 C   0  0  0  0  0  0  0  0  0  0  0  0
  -13.1474    3.0863    0.1694 C   0  0  0  0  0  0  0  0  0  0  0  0
  -12.7043    2.0624    1.1444 C   0  0  1  0  0  0  0  0  0  0  0  0
  -13.7303    1.6365    2.1214 C   0  0  0  0  0  0  0  0  0  0  0  0
  -14.1724    0.4533    2.0123 O   0  0  0  0  0  0  0  0  0  0  0  0
  -14.2298    2.4544    3.1433 N   0  0  0  0  0  0  0  0  0  0  0  0
  -13.7603    3.8256    3.3286 C   0  0  0  0  0  0  0  0  0  0  0  0
  -15.2355    1.9627    4.0440 C   0  0  0  0  0  0  0  0  0  0  0  0
  -10.3774   -3.5872   -3.4018 H   0  0  0  0  0  0  0  0  0  0  0  0
  -10.0160   -1.9819   -2.7309 H   0  0  0  0  0  0  0  0  0  0  0  0
  -11.6695   -2.3469   -3.3494 H   0  0  0  0  0  0  0  0  0  0  0  0
  -12.1297   -3.7867   -1.5385 H   0  0  0  0  0  0  0  0  0  0  0  0
  -10.1800   -5.0065   -1.5563 H   0  0  0  0  0  0  0  0  0  0  0  0
  -10.4732   -4.5399    0.1335 H   0  0  0  0  0  0  0  0  0  0  0  0
   -9.1328   -3.7610   -0.8964 H   0  0  0  0  0  0  0  0  0  0  0  0
  -11.9403   -2.4313    0.4388 H   0  0  0  0  0  0  0  0  0  0  0  0
  -12.5332   -1.6163   -1.0032 H   0  0  0  0  0  0  0  0  0  0  0  0
  -10.2919   -0.4095   -1.3150 H   0  0  0  0  0  0  0  0  0  0  0  0
   -9.3754   -2.0869    1.0176 H   0  0  0  0  0  0  0  0  0  0  0  0
   -6.5170   -2.2504   -0.1482 H   0  0  0  0  0  0  0  0  0  0  0  0
   -7.5186   -1.1402    2.5084 H   0  0  0  0  0  0  0  0  0  0  0  0
   -7.3332   -2.8699    1.8346 H   0  0  0  0  0  0  0  0  0  0  0  0
   -5.9128   -1.9015    2.2585 H   0  0  0  0  0  0  0  0  0  0  0  0
   -6.0203    0.6647    0.4470 H   0  0  0  0  0  0  0  0  0  0  0  0
   -3.4048    1.0233    0.5081 H   0  0  0  0  0  0  0  0  0  0  0  0
   -5.0907    1.6734   -1.4072 H   0  0  0  0  0  0  0  0  0  0  0  0
   -3.8145    1.0628   -2.4950 H   0  0  0  0  0  0  0  0  0  0  0  0
   -3.5060    2.4432   -1.3115 H   0  0  0  0  0  0  0  0  0  0  0  0
   -2.2841   -0.6009   -1.8308 H   0  0  0  0  0  0  0  0  0  0  0  0
    0.4776   -0.0263   -1.7103 H   0  0  0  0  0  0  0  0  0  0  0  0
   -0.7859   -2.0557   -1.5436 H   0  0  0  0  0  0  0  0  0  0  0  0
    0.9996   -2.2051   -1.5346 H   0  0  0  0  0  0  0  0  0  0  0  0
   -0.0227   -2.5177   -0.0165 H   0  0  0  0  0  0  0  0  0  0  0  0
    1.2221   -0.1259    1.1901 H   0  0  0  0  0  0  0  0  0  0  0  0
    4.0029   -0.2700    1.3420 H   0  0  0  0  0  0  0  0  0  0  0  0
    4.4760    2.2345    1.5042 H   0  0  0  0  0  0  0  0  0  0  0  0
    3.1403    2.5061    0.3463 H   0  0  0  0  0  0  0  0  0  0  0  0
    2.8357    1.6452    1.8789 H   0  0  0  0  0  0  0  0  0  0  0  0
    5.0326    0.8263   -1.2297 H   0  0  0  0  0  0  0  0  0  0  0  0
    7.7307    0.8323   -1.0731 H   0  0  0  0  0  0  0  0  0  0  0  0
    7.2519   -2.1171   -1.4004 H   0  0  0  0  0  0  0  0  0  0  0  0
    8.2615   -1.0151   -2.3987 H   0  0  0  0  0  0  0  0  0  0  0  0
    6.4983   -0.7359   -2.3490 H   0  0  0  0  0  0  0  0  0  0  0  0
    8.5513   -1.1902    0.9575 H   0  0  0  0  0  0  0  0  0  0  0  0
   11.2330   -1.2248    1.0376 H   0  0  0  0  0  0  0  0  0  0  0  0
   10.6130    1.2171    1.7505 H   0  0  0  0  0  0  0  0  0  0  0  0
   12.2788    1.5236    0.9741 H   0  0  0  0  0  0  0  0  0  0  0  0
   12.0544    0.3493    2.2802 H   0  0  0  0  0  0  0  0  0  0  0  0
   12.0807   -0.1919   -1.5653 H   0  0  0  0  0  0  0  0  0  0  0  0
   14.4892   -0.3175   -2.2155 H   0  0  0  0  0  0  0  0  0  0  0  0
   15.7083   -2.3327   -2.4262 H   0  0  0  0  0  0  0  0  0  0  0  0
   15.0748   -2.9606   -0.8286 H   0  0  0  0  0  0  0  0  0  0  0  0
   13.9512   -2.5902   -2.2580 H   0  0  0  0  0  0  0  0  0  0  0  0
   16.2326   -0.5845    0.2250 H   0  0  0  0  0  0  0  0  0  0  0  0
   18.6928    1.2896   -1.8498 H   0  0  0  0  0  0  0  0  0  0  0  0
   18.6151   -0.4604    0.6627 H   0  0  0  0  0  0  0  0  0  0  0  0
   18.8751   -1.1003   -1.0001 H   0  0  0  0  0  0  0  0  0  0  0  0
   20.0189    0.1308   -0.4142 H   0  0  0  0  0  0  0  0  0  0  0  0
   16.9044    3.2058    1.4507 H   0  0  0  0  0  0  0  0  0  0  0  0
   17.5140    1.5568    1.9822 H   0  0  0  0  0  0  0  0  0  0  0  0
   16.1291    1.7112    0.9053 H   0  0  0  0  0  0  0  0  0  0  0  0
  -12.7588    0.6271   -1.7588 H   0  0  0  0  0  0  0  0  0  0  0  0
  -13.9957    0.1629   -0.5328 H   0  0  0  0  0  0  0  0  0  0  0  0
  -13.6006    2.7009   -1.8942 H   0  0  0  0  0  0  0  0  0  0  0  0
  -14.9397    2.2288   -0.7496 H   0  0  0  0  0  0  0  0  0  0  0  0
  -13.7803    3.9080    0.5805 H   0  0  0  0  0  0  0  0  0  0  0  0
  -12.2493    3.5971   -0.2300 H   0  0  0  0  0  0  0  0  0  0  0  0
  -11.8419    2.4470    1.7589 H   0  0  0  0  0  0  0  0  0  0  0  0
  -13.5404    4.0191    4.4045 H   0  0  0  0  0  0  0  0  0  0  0  0
  -12.8717    4.0666    2.7261 H   0  0  0  0  0  0  0  0  0  0  0  0
  -14.5644    4.5285    3.0371 H   0  0  0  0  0  0  0  0  0  0  0  0
  -15.0646    0.9195    4.3804 H   0  0  0  0  0  0  0  0  0  0  0  0
  -16.2365    1.9821    3.5367 H   0  0  0  0  0  0  0  0  0  0  0  0
  -15.3296    2.6225    4.9512 H   0  0  0  0  0  0  0  0  0  0  0  0
  1  2  1  0
  2  3  1  0
  2  4  1  0
  4  5  1  0
  5  6  1  0
  6  7  1  0
  7  8  2  0
  7  9  1  0
  9 10  1  0
  9 11  1  0
 11 12  1  0
 12 13  2  0
 12 14  1  0
 14 15  1  0
 14 16  1  0
 16 17  1  0
 17 18  2  0
 17 19  1  0
 19 20  1  0
 19 21  1  0
 21 22  1  0
 22 23  2  0
 22 24  1  0
 24 25  1  0
 24 26  1  0
 26 27  1  0
 27 28  2  0
 27 29  1  0
 29 30  1  0
 29 31  1  0
 31 32  1  0
 32 33  2  0
 32 34  1  0
 34 35  1  0
 34 36  1  0
 36 37  1  0
 37 38  2  0
 37 39  1  0
 39 40  1  0
 39 41  1  0
 41 42  1  0
 42 43  2  0
 42 44  1  0
 44 45  1  0
 44 46  1  0
 46 47  1  0
 46 48  2  0
  5 49  1  0
 49 50  2  0
 49 51  1  0
 51 52  1  0
 52 53  1  0
 53 54  1  0
 54 55  1  0
 55 56  1  0
 56 57  2  0
 56 58  1  0
 58 59  1  0
 58 60  1  0
 55 51  1  0
  1 61  1  0
  1 62  1  0
  1 63  1  0
  2 64  1  0
  3 65  1  0
  3 66  1  0
  3 67  1  0
  4 68  1  0
  4 69  1  0
  5 70  1  6
  6 71  1  0
  9 72  1  6
 10 73  1  0
 10 74  1  0
 10 75  1  0
 11 76  1  0
 14 77  1  1
 15 78  1  0
 15 79  1  0
 15 80  1  0
 16 81  1  0
 19 82  1  6
 20 83  1  0
 20 84  1  0
 20 85  1  0
 21 86  1  0
 24 87  1  1
 25 88  1  0
 25 89  1  0
 25 90  1  0
 26 91  1  0
 29 92  1  6
 30 93  1  0
 30 94  1  0
 30 95  1  0
 31 96  1  0
 34 97  1  1
 35 98  1  0
 35 99  1  0
 35100  1  0
 36101  1  0
 39102  1  6
 40103  1  0
 40104  1  0
 40105  1  0
 41106  1  0
 44107  1  6
 45108  1  0
 45109  1  0
 45110  1  0
 47111  1  0
 47112  1  0
 47113  1  0
 52114  1  0
 52115  1  0
 53116  1  0
 53117  1  0
 54118  1  0
 54119  1  0
 55120  1  1
 59121  1  0
 59122  1  0
 59123  1  0
 60124  1  0
 60125  1  0
 60126  1  0
M  END
$$$$
[H]c1c([H])c([C@]2([H])N(C(=O)N([H])c3c([H])c([H])c(Cl)c(C(F)(F)F)c3[H])C([H])([H])[C@@]([H])(C([H])([H])[H])C2([H])[H])c([H])c([H])c1Cl
     RDKit          3D

 44 46  0  0  0  0  0  0  0  0999 V2000
    2.4047    2.1078    3.4410 C   0  0  0  0  0  0  0  0  0  0  0  0
    2.0916    1.5251    2.0923 C   0  0  1  0  0  0  0  0  0  0  0  0
    3.1368    0.5340    1.6262 C   0  0  0  0  0  0  0  0  0  0  0  0
    2.3969   -0.4467    0.7471 C   0  0  1  0  0  0  0  0  0  0  0  0
    1.0083   -0.1764    0.9617 N   0  0  0  0  0  0  0  0  0  0  0  0
    0.8722    0.5891    2.1652 C   0  0  0  0  0  0  0  0  0  0  0  0
   -0.1093   -0.5950    0.1321 C   0  0  0  0  0  0  0  0  0  0  0  0
    0.1782   -1.2665   -0.8901 O   0  0  0  0  0  0  0  0  0  0  0  0
   -1.4192   -0.2742    0.4472 N   0  0  0  0  0  0  0  0  0  0  0  0
   -2.6225   -0.5656   -0.1956 C   0  0  0  0  0  0  0  0  0  0  0  0
   -2.6824   -1.2837   -1.3513 C   0  0  0  0  0  0  0  0  0  0  0  0
   -3.9021   -1.5700   -1.9880 C   0  0  0  0  0  0  0  0  0  0  0  0
   -5.0738   -1.1338   -1.4639 C   0  0  0  0  0  0  0  0  0  0  0  0
   -6.5790   -1.5038   -2.2762 Cl  0  0  0  0  0  0  0  0  0  0  0  0
   -5.0531   -0.3999   -0.2887 C   0  0  0  0  0  0  0  0  0  0  0  0
   -3.8547   -0.1306    0.3177 C   0  0  0  0  0  0  0  0  0  0  0  0
   -6.3567    0.0512    0.2397 C   0  0  0  0  0  0  0  0  0  0  0  0
   -7.1163   -1.1006    0.4835 F   0  0  0  0  0  0  0  0  0  0  0  0
   -7.0376    0.7208   -0.7854 F   0  0  0  0  0  0  0  0  0  0  0  0
   -6.2500    0.8133    1.3631 F   0  0  0  0  0  0  0  0  0  0  0  0
    2.8265   -0.3515   -0.6633 C   0  0  0  0  0  0  0  0  0  0  0  0
    3.6112   -1.3335   -1.2265 C   0  0  0  0  0  0  0  0  0  0  0  0
    4.0296   -1.2545   -2.5551 C   0  0  0  0  0  0  0  0  0  0  0  0
    3.6636   -0.1822   -3.3404 C   0  0  0  0  0  0  0  0  0  0  0  0
    4.1936   -0.0810   -5.0253 Cl  0  0  0  0  0  0  0  0  0  0  0  0
    2.8840    0.7971   -2.7870 C   0  0  0  0  0  0  0  0  0  0  0  0
    2.4670    0.7146   -1.4565 C   0  0  0  0  0  0  0  0  0  0  0  0
    1.9273    3.1264    3.4766 H   0  0  0  0  0  0  0  0  0  0  0  0
    1.9642    1.5403    4.2804 H   0  0  0  0  0  0  0  0  0  0  0  0
    3.4908    2.2930    3.5512 H   0  0  0  0  0  0  0  0  0  0  0  0
    1.9318    2.2652    1.3075 H   0  0  0  0  0  0  0  0  0  0  0  0
    3.6278    0.0622    2.4867 H   0  0  0  0  0  0  0  0  0  0  0  0
    3.8984    1.0520    1.0050 H   0  0  0  0  0  0  0  0  0  0  0  0
    2.6292   -1.4623    1.1602 H   0  0  0  0  0  0  0  0  0  0  0  0
   -0.0372    1.1784    2.2700 H   0  0  0  0  0  0  0  0  0  0  0  0
    1.0290   -0.1140    3.0194 H   0  0  0  0  0  0  0  0  0  0  0  0
   -1.5402    0.3048    1.3569 H   0  0  0  0  0  0  0  0  0  0  0  0
   -1.8297   -1.6892   -1.8735 H   0  0  0  0  0  0  0  0  0  0  0  0
   -3.9316   -2.1421   -2.9058 H   0  0  0  0  0  0  0  0  0  0  0  0
   -3.8740    0.4442    1.2327 H   0  0  0  0  0  0  0  0  0  0  0  0
    3.9146   -2.1799   -0.6480 H   0  0  0  0  0  0  0  0  0  0  0  0
    4.6462   -2.0166   -3.0140 H   0  0  0  0  0  0  0  0  0  0  0  0
    2.5961    1.6429   -3.4088 H   0  0  0  0  0  0  0  0  0  0  0  0
    1.8497    1.4911   -1.0204 H   0  0  0  0  0  0  0  0  0  0  0  0
  1  2  1  0
  2  3  1  0
  3  4  1  0
  4  5  1  0
  5  6  1  0
  5  7  1  0
  7  8  2  0
  7  9  1  0
  9 10  1  0
 10 11  2  0
 11 12  1  0
 12 13  2  0
 13 14  1  0
 13 15  1  0
 15 16  2  0
 15 17  1  0
 17 18  1  0
 17 19  1  0
 17 20  1  0
  4 21  1  0
 21 22  2  0
 22 23  1  0
 23 24  2  0
 24 25  1  0
 24 26  1  0
 26 27  2  0
  6  2  1  0
 16 10  1  0
 27 21  1  0
  1 28  1  0
  1 29  1  0
  1 30  1  0
  2 31  1  6
  3 32  1  0
  3 33  1  0
  4 34  1  1
  6 35  1  0
  6 36  1  0
  9 37  1  0
 11 38  1  0
 12 39  1  0
 16 40  1  0
 22 41  1  0
 23 42  1  0
 26 43  1  0
 27 44  1  0
M  END
$$$$
[H]OC([H])([H])[C@]1([H])O[C@@]([H])(n2c([H])nc3c(N([H])[H])nc([H])nc32)[C@]([H])(O[H])[C@@]1([H])O[H]
     RDKit          3D

 32 34  0  0  0  0  0  0  0  0999 V2000
    5.2993    1.2493   -0.0364 N   0  0  0  0  0  0  0  0  0  0  0  0
    4.2460    0.3275   -0.2484 C   0  0  0  0  0  0  0  0  0  0  0  0
    4.4790   -0.9552   -0.5877 N   0  0  0  0  0  0  0  0  0  0  0  0
    3.4999   -1.8544   -0.7957 C   0  0  0  0  0  0  0  0  0  0  0  0
    2.2316   -1.4323   -0.6529 N   0  0  0  0  0  0  0  0  0  0  0  0
    1.9202   -0.1711   -0.3170 C   0  0  0  0  0  0  0  0  0  0  0  0
    0.7163    0.4061   -0.1355 N   0  0  0  0  0  0  0  0  0  0  0  0
    0.9940    1.6851    0.1895 C   0  0  0  0  0  0  0  0  0  0  0  0
    2.3234    1.8933    0.2088 N   0  0  0  0  0  0  0  0  0  0  0  0
    2.9172    0.7380   -0.1069 C   0  0  0  0  0  0  0  0  0  0  0  0
   -0.5647   -0.2263   -0.2663 C   0  0  2  0  0  0  0  0  0  0  0  0
   -1.5038    0.5002   -0.9388 O   0  0  0  0  0  0  0  0  0  0  0  0
   -2.7192    0.3829   -0.3189 C   0  0  1  0  0  0  0  0  0  0  0  0
   -3.8662    0.2050   -1.2858 C   0  0  0  0  0  0  0  0  0  0  0  0
   -3.9013    1.3212   -2.1162 O   0  0  0  0  0  0  0  0  0  0  0  0
   -2.6338   -0.7637    0.6663 C   0  0  2  0  0  0  0  0  0  0  0  0
   -3.4894   -0.6334    1.7258 O   0  0  0  0  0  0  0  0  0  0  0  0
   -1.1622   -0.6194    1.0797 C   0  0  1  0  0  0  0  0  0  0  0  0
   -0.6391   -1.7900    1.5636 O   0  0  0  0  0  0  0  0  0  0  0  0
    6.1955    0.9045    0.3770 H   0  0  0  0  0  0  0  0  0  0  0  0
    5.1455    2.2471   -0.3011 H   0  0  0  0  0  0  0  0  0  0  0  0
    3.7456   -2.8685   -1.0656 H   0  0  0  0  0  0  0  0  0  0  0  0
    0.2782    2.4624    0.4102 H   0  0  0  0  0  0  0  0  0  0  0  0
   -0.4279   -1.1947   -0.8247 H   0  0  0  0  0  0  0  0  0  0  0  0
   -2.9028    1.3045    0.2839 H   0  0  0  0  0  0  0  0  0  0  0  0
   -4.8005    0.1479   -0.6936 H   0  0  0  0  0  0  0  0  0  0  0  0
   -3.7117   -0.7069   -1.8913 H   0  0  0  0  0  0  0  0  0  0  0  0
   -4.2562    2.1090   -1.6255 H   0  0  0  0  0  0  0  0  0  0  0  0
   -2.7044   -1.7448    0.1399 H   0  0  0  0  0  0  0  0  0  0  0  0
   -3.5867   -1.5147    2.1686 H   0  0  0  0  0  0  0  0  0  0  0  0
   -1.0648    0.2442    1.7645 H   0  0  0  0  0  0  0  0  0  0  0  0
   -0.0571   -1.6528    2.3746 H   0  0  0  0  0  0  0  0  0  0  0  0
  1  2  1  0
  2  3  2  0
  3  4  1  0
  4  5  2  0
  5  6  1  0
  6  7  1  0
  7  8  1  0
  8  9  2  0
  9 10  1  0
  7 11  1  0
 11 12  1  0
 12 13  1  0
 13 14  1  0
 14 15  1  0
 13 16  1  0
 16 17  1  0
 16 18  1  0
 18 19  1  0
 10  2  1  0
 18 11  1  0
 10  6  2  0
  1 20  1  0
  1 21  1  0
  4 22  1  0
  8 23  1  0
 11 24  1  6
 13 25  1  1
 14 26  1  0
 14 27  1  0
 15 28  1  0
 16 29  1  6
 17 30  1  0
 18 31  1  1
 19 32  1  0
M  END
$$$$
[H]c1nc(N([H])[H])c2c(n1)N1C([H])([H])C([H])([H])N(C([H])([H])C(C(=O)N([H])C(C([H])([H])[H])(C([H])([H])[H])C([H])([H])[H])=C2c2sc3c(OC([H])([H])[H])c([H])c(C([H])([H])[H])c([H])c3c2[H])C([H])([H])C1([H])[H]
     RDKit          3D

 67 71  0  0  0  0  0  0  0  0999 V2000
    5.6004   -0.1627    4.0107 C   0  0  0  0  0  0  0  0  0  0  0  0
    4.5370    0.1474    3.1322 O   0  0  0  0  0  0  0  0  0  0  0  0
    4.2332   -0.6812    2.0610 C   0  0  0  0  0  0  0  0  0  0  0  0
    4.9804   -1.8209    1.8537 C   0  0  0  0  0  0  0  0  0  0  0  0
    4.6191   -2.5926    0.7708 C   0  0  0  0  0  0  0  0  0  0  0  0
    5.4543   -3.8323    0.5698 C   0  0  0  0  0  0  0  0  0  0  0  0
    3.5873   -2.2921   -0.0819 C   0  0  0  0  0  0  0  0  0  0  0  0
    2.8299   -1.1249    0.1388 C   0  0  0  0  0  0  0  0  0  0  0  0
    1.7878   -0.6966   -0.6105 C   0  0  0  0  0  0  0  0  0  0  0  0
    1.1706    0.4617   -0.2446 C   0  0  0  0  0  0  0  0  0  0  0  0
    2.0715    0.9242    1.1478 S   0  0  0  0  0  0  0  0  0  0  0  0
    3.1807   -0.3570    1.2071 C   0  0  0  0  0  0  0  0  0  0  0  0
    0.0030    1.1699   -0.8599 C   0  0  0  0  0  0  0  0  0  0  0  0
   -1.1288    0.5060   -0.9639 C   0  0  0  0  0  0  0  0  0  0  0  0
   -2.3407    1.1893   -1.5966 C   0  0  0  0  0  0  0  0  0  0  0  0
   -3.3016    1.5327   -0.6260 N   0  0  0  0  0  0  0  0  0  0  0  0
   -2.9372    1.6675    0.7340 C   0  0  0  0  0  0  0  0  0  0  0  0
   -1.9566    2.7898    0.9060 C   0  0  0  0  0  0  0  0  0  0  0  0
   -1.8912    3.5329   -0.4076 N   0  0  0  0  0  0  0  0  0  0  0  0
   -3.2336    3.8968   -0.6970 C   0  0  0  0  0  0  0  0  0  0  0  0
   -4.1201    2.6677   -0.9714 C   0  0  0  0  0  0  0  0  0  0  0  0
   -0.6248    3.6758   -1.0319 C   0  0  0  0  0  0  0  0  0  0  0  0
   -0.0827    4.8623   -1.4787 N   0  0  0  0  0  0  0  0  0  0  0  0
    1.0460    5.0891   -2.0690 C   0  0  0  0  0  0  0  0  0  0  0  0
    1.8484    4.0590   -2.3089 N   0  0  0  0  0  0  0  0  0  0  0  0
    1.4274    2.8303   -1.9139 C   0  0  0  0  0  0  0  0  0  0  0  0
    2.3934    1.8136   -2.2674 N   0  0  0  0  0  0  0  0  0  0  0  0
    0.2276    2.5757   -1.2812 C   0  0  0  0  0  0  0  0  0  0  0  0
   -1.4551   -0.7992   -0.4347 C   0  0  0  0  0  0  0  0  0  0  0  0
   -0.7154   -1.5352    0.2794 O   0  0  0  0  0  0  0  0  0  0  0  0
   -2.7494   -1.3851   -0.7163 N   0  0  0  0  0  0  0  0  0  0  0  0
   -3.0487   -2.7223   -0.1647 C   0  0  0  0  0  0  0  0  0  0  0  0
   -2.0561   -3.7348   -0.6839 C   0  0  0  0  0  0  0  0  0  0  0  0
   -4.4158   -3.1500   -0.6371 C   0  0  0  0  0  0  0  0  0  0  0  0
   -3.0694   -2.6878    1.3467 C   0  0  0  0  0  0  0  0  0  0  0  0
    5.5410    0.4842    4.9077 H   0  0  0  0  0  0  0  0  0  0  0  0
    6.5960   -0.0329    3.5315 H   0  0  0  0  0  0  0  0  0  0  0  0
    5.5342   -1.2349    4.3409 H   0  0  0  0  0  0  0  0  0  0  0  0
    5.7963   -2.0931    2.4970 H   0  0  0  0  0  0  0  0  0  0  0  0
    6.5241   -3.6117    0.7689 H   0  0  0  0  0  0  0  0  0  0  0  0
    5.1105   -4.5452    1.3482 H   0  0  0  0  0  0  0  0  0  0  0  0
    5.3517   -4.2159   -0.4525 H   0  0  0  0  0  0  0  0  0  0  0  0
    3.3962   -2.9704   -0.8962 H   0  0  0  0  0  0  0  0  0  0  0  0
    1.3975   -1.2166   -1.5312 H   0  0  0  0  0  0  0  0  0  0  0  0
   -2.0291    1.9706   -2.3203 H   0  0  0  0  0  0  0  0  0  0  0  0
   -2.8444    0.4601   -2.3174 H   0  0  0  0  0  0  0  0  0  0  0  0
   -2.5672    0.8133    1.2801 H   0  0  0  0  0  0  0  0  0  0  0  0
   -3.8766    1.9768    1.3028 H   0  0  0  0  0  0  0  0  0  0  0  0
   -1.0106    2.4119    1.2354 H   0  0  0  0  0  0  0  0  0  0  0  0
   -2.3259    3.4951    1.6761 H   0  0  0  0  0  0  0  0  0  0  0  0
   -3.5152    4.5915   -1.4824 H   0  0  0  0  0  0  0  0  0  0  0  0
   -3.6919    4.3584    0.2385 H   0  0  0  0  0  0  0  0  0  0  0  0
   -4.4770    2.6402   -2.0118 H   0  0  0  0  0  0  0  0  0  0  0  0
   -4.9910    2.6827   -0.3107 H   0  0  0  0  0  0  0  0  0  0  0  0
    1.3348    6.1116   -2.3659 H   0  0  0  0  0  0  0  0  0  0  0  0
    3.2531    1.8164   -1.6942 H   0  0  0  0  0  0  0  0  0  0  0  0
    2.1545    1.1905   -3.0461 H   0  0  0  0  0  0  0  0  0  0  0  0
   -3.4771   -0.9234   -1.2750 H   0  0  0  0  0  0  0  0  0  0  0  0
   -2.5687   -4.6564   -1.0538 H   0  0  0  0  0  0  0  0  0  0  0  0
   -1.4620   -3.3489   -1.5338 H   0  0  0  0  0  0  0  0  0  0  0  0
   -1.3460   -4.0403    0.1085 H   0  0  0  0  0  0  0  0  0  0  0  0
   -5.1703   -2.3452   -0.5042 H   0  0  0  0  0  0  0  0  0  0  0  0
   -4.3917   -3.5025   -1.6878 H   0  0  0  0  0  0  0  0  0  0  0  0
   -4.7624   -3.9916    0.0061 H   0  0  0  0  0  0  0  0  0  0  0  0
   -2.0819   -2.9153    1.7966 H   0  0  0  0  0  0  0  0  0  0  0  0
   -3.7941   -3.4688    1.6788 H   0  0  0  0  0  0  0  0  0  0  0  0
   -3.4777   -1.7072    1.6554 H   0  0  0  0  0  0  0  0  0  0  0  0
  1  2  1  0
  2  3  1  0
  3  4  1  0
  4  5  2  0
  5  6  1  0
  5  7  1  0
  7  8  2  0
  8  9  1  0
  9 10  2  0
 10 11  1  0
 11 12  1  0
 10 13  1  0
 13 14  2  0
 14 15  1  0
 15 16  1  0
 16 17  1  0
 17 18  1  0
 18 19  1  0
 19 20  1  0
 20 21  1  0
 19 22  1  0
 22 23  2  0
 23 24  1  0
 24 25  2  0
 25 26  1  0
 26 27  1  0
 26 28  2  0
 14 29  1  0
 29 30  2  0
 29 31  1  0
 31 32  1  0
 32 33  1  0
 32 34  1  0
 32 35  1  0
 12  3  2  0
 28 13  1  0
 12  8  1  0
 21 16  1  0
 28 22  1  0
  1 36  1  0
  1 37  1  0
  1 38  1  0
  4 39  1  0
  6 40  1  0
  6 41  1  0
  6 42  1  0
  7 43  1  0
  9 44  1  0
 15 45  1  0
 15 46  1  0
 17 47  1  0
 17 48  1  0
 18 49  1  0
 18 50  1  0
 20 51  1  0
 20 52  1  0
 21 53  1  0
 21 54  1  0
 24 55  1  0
 27 56  1  0
 27 57  1  0
 31 58  1  0
 33 59  1  0
 33 60  1  0
 33 61  1  0
 34 62  1  0
 34 63  1  0
 34 64  1  0
 35 65  1  0
 35 66  1  0
 35 67  1  0
M  END
$$$$
[H]c1c([H])c(N([H])S(=O)(=O)c2c([H])c([H])c(N3C([H])([H])C([H])([H])N(C([H])([H])[H])C([H])([H])C3([H])[H])c([H])c2[H])c([H])c([H])c1C#N
     RDKit          3D

 45 47  0  0  0  0  0  0  0  0999 V2000
    6.1553   -0.2784   -0.8923 C   0  0  0  0  0  0  0  0  0  0  0  0
    5.0616   -0.9154   -1.5948 N   0  0  0  0  0  0  0  0  0  0  0  0
    4.1960    0.0341   -2.2420 C   0  0  0  0  0  0  0  0  0  0  0  0
    2.7343   -0.3539   -2.1244 C   0  0  0  0  0  0  0  0  0  0  0  0
    2.3984   -0.4059   -0.7275 N   0  0  0  0  0  0  0  0  0  0  0  0
    3.3159   -1.1999    0.1051 C   0  0  0  0  0  0  0  0  0  0  0  0
    4.3431   -1.8497   -0.7586 C   0  0  0  0  0  0  0  0  0  0  0  0
    1.2838    0.2320   -0.1249 C   0  0  0  0  0  0  0  0  0  0  0  0
    0.3847    0.9640   -0.8574 C   0  0  0  0  0  0  0  0  0  0  0  0
   -0.7157    1.5962   -0.2646 C   0  0  0  0  0  0  0  0  0  0  0  0
   -0.9078    1.4809    1.1135 C   0  0  0  0  0  0  0  0  0  0  0  0
   -0.0143    0.7521    1.8485 C   0  0  0  0  0  0  0  0  0  0  0  0
    1.0604    0.1388    1.2464 C   0  0  0  0  0  0  0  0  0  0  0  0
   -2.2416    2.2361    1.9043 S   0  0  0  0  0  0  0  0  0  0  0  0
   -2.7977    3.3837    1.0836 O   0  0  0  0  0  0  0  0  0  0  0  0
   -1.7304    2.8971    3.1855 O   0  0  0  0  0  0  0  0  0  0  0  0
   -3.4423    1.1189    2.3204 N   0  0  0  0  0  0  0  0  0  0  0  0
   -4.2093    0.2870    1.4778 C   0  0  0  0  0  0  0  0  0  0  0  0
   -5.6136    0.3705    1.5935 C   0  0  0  0  0  0  0  0  0  0  0  0
   -6.4058   -0.4011    0.7790 C   0  0  0  0  0  0  0  0  0  0  0  0
   -5.8477   -1.2558   -0.1497 C   0  0  0  0  0  0  0  0  0  0  0  0
   -4.4840   -1.3196   -0.2428 C   0  0  0  0  0  0  0  0  0  0  0  0
   -3.6343   -0.5538    0.5650 C   0  0  0  0  0  0  0  0  0  0  0  0
   -6.6975   -2.0578   -0.9968 C   0  0  0  0  0  0  0  0  0  0  0  0
   -7.3718   -2.6951   -1.6902 N   0  0  0  0  0  0  0  0  0  0  0  0
    7.0989   -0.6841   -1.3176 H   0  0  0  0  0  0  0  0  0  0  0  0
    6.1484   -0.4891    0.1875 H   0  0  0  0  0  0  0  0  0  0  0  0
    6.0982    0.8416   -1.0202 H   0  0  0  0  0  0  0  0  0  0  0  0
    4.4336    0.0064   -3.3319 H   0  0  0  0  0  0  0  0  0  0  0  0
    4.3530    1.0224   -1.7846 H   0  0  0  0  0  0  0  0  0  0  0  0
    2.1002    0.3044   -2.7133 H   0  0  0  0  0  0  0  0  0  0  0  0
    2.6437   -1.3901   -2.5175 H   0  0  0  0  0  0  0  0  0  0  0  0
    3.8013   -0.5426    0.8586 H   0  0  0  0  0  0  0  0  0  0  0  0
    2.7303   -2.0210    0.5956 H   0  0  0  0  0  0  0  0  0  0  0  0
    5.0938   -2.3539   -0.1179 H   0  0  0  0  0  0  0  0  0  0  0  0
    3.8442   -2.6008   -1.4001 H   0  0  0  0  0  0  0  0  0  0  0  0
    0.4694    1.0953   -1.9265 H   0  0  0  0  0  0  0  0  0  0  0  0
   -1.4279    2.1693   -0.8059 H   0  0  0  0  0  0  0  0  0  0  0  0
   -0.1367    0.6426    2.9290 H   0  0  0  0  0  0  0  0  0  0  0  0
    1.7888   -0.4461    1.7922 H   0  0  0  0  0  0  0  0  0  0  0  0
   -3.6540    1.0261    3.3768 H   0  0  0  0  0  0  0  0  0  0  0  0
   -6.0661    1.0401    2.3215 H   0  0  0  0  0  0  0  0  0  0  0  0
   -7.5052   -0.3665    0.8367 H   0  0  0  0  0  0  0  0  0  0  0  0
   -4.0612   -1.9903   -0.9713 H   0  0  0  0  0  0  0  0  0  0  0  0
   -2.5720   -0.6661    0.4524 H   0  0  0  0  0  0  0  0  0  0  0  0
  1  2  1  0
  2  3  1  0
  3  4  1  0
  4  5  1  0
  5  6  1  0
  6  7  1  0
  5  8  1  0
  8  9  2  0
  9 10  1  0
 10 11  2  0
 11 12  1  0
 12 13  2  0
 11 14  1  0
 14 15  2  0
 14 16  2  0
 14 17  1  0
 17 18  1  0
 18 19  2  0
 19 20  1  0
 20 21  2  0
 21 22  1  0
 22 23  2  0
 21 24  1  0
 24 25  3  0
  7  2  1  0
 13  8  1  0
 23 18  1  0
  1 26  1  0
  1 27  1  0
  1 28  1  0
  3 29  1  0
  3 30  1  0
  4 31  1  0
  4 32  1  0
  6 33  1  0
  6 34  1  0
  7 35  1  0
  7 36  1  0
  9 37  1  0
 10 38  1  0
 12 39  1  0
 13 40  1  0
 17 41  1  0
 19 42  1  0
 20 43  1  0
 22 44  1  0
 23 45  1  0
M  END
$$$$
[H]O[C@]1([H])[C@]([H])(n2c([H])nc3c(N([H])[H])nc([H])nc32)O[C@]([H])(C([H])([H])OP(=O)(O[H])OP(=O)(O[H])OP(=O)(O[H])O[H])[C@]1([H])O[H]
     RDKit          3D

 47 49  0  0  0  0  0  0  0  0999 V2000
   -7.6030    0.8604   -0.0098 N   0  0  0  0  0  0  0  0  0  0  0  0
   -6.3376    0.3686    0.4236 C   0  0  0  0  0  0  0  0  0  0  0  0
   -6.0364    0.2032    1.7127 N   0  0  0  0  0  0  0  0  0  0  0  0
   -4.8287   -0.2641    2.0744 C   0  0  0  0  0  0  0  0  0  0  0  0
   -3.8977   -0.5750    1.1392 N   0  0  0  0  0  0  0  0  0  0  0  0
   -4.1429   -0.4303   -0.1592 C   0  0  0  0  0  0  0  0  0  0  0  0
   -3.4086   -0.6608   -1.2589 N   0  0  0  0  0  0  0  0  0  0  0  0
   -4.1748   -0.3307   -2.3137 C   0  0  0  0  0  0  0  0  0  0  0  0
   -5.3852    0.1050   -1.8719 N   0  0  0  0  0  0  0  0  0  0  0  0
   -5.3772    0.0477   -0.5377 C   0  0  0  0  0  0  0  0  0  0  0  0
   -2.0715   -1.1579   -1.3557 C   0  0  2  0  0  0  0  0  0  0  0  0
   -1.4230   -1.2482   -0.1536 O   0  0  0  0  0  0  0  0  0  0  0  0
   -0.0686   -1.1372   -0.3578 C   0  0  2  0  0  0  0  0  0  0  0  0
    0.4722   -0.1208    0.6154 C   0  0  0  0  0  0  0  0  0  0  0  0
    1.8212    0.0867    0.5173 O   0  0  0  0  0  0  0  0  0  0  0  0
    2.2900    1.2320    1.6476 P   0  0  0  0  0  0  0  0  0  0  0  0
    2.8684    2.6482    0.9012 O   0  0  0  0  0  0  0  0  0  0  0  0
    1.0882    1.6678    2.4902 O   0  0  0  0  0  0  0  0  0  0  0  0
    3.4649    0.6938    2.7033 O   0  0  0  0  0  0  0  0  0  0  0  0
    4.7045   -0.1460    1.9671 P   0  0  0  0  0  0  0  0  0  0  0  0
    5.9322   -0.3710    3.1375 O   0  0  0  0  0  0  0  0  0  0  0  0
    4.2971   -1.5357    1.5214 O   0  0  0  0  0  0  0  0  0  0  0  0
    5.4147    0.7221    0.6982 O   0  0  0  0  0  0  0  0  0  0  0  0
    6.7876   -0.1705    0.2119 P   0  0  0  0  0  0  0  0  0  0  0  0
    7.1373    0.1038   -1.4198 O   0  0  0  0  0  0  0  0  0  0  0  0
    8.1367    0.2075    1.1164 O   0  0  0  0  0  0  0  0  0  0  0  0
    6.5209   -1.6622    0.3633 O   0  0  0  0  0  0  0  0  0  0  0  0
    0.1791   -0.7861   -1.7852 C   0  0  2  0  0  0  0  0  0  0  0  0
    1.1876    0.1107   -1.9982 O   0  0  0  0  0  0  0  0  0  0  0  0
   -1.1890   -0.2229   -2.1937 C   0  0  2  0  0  0  0  0  0  0  0  0
   -1.3604    1.0649   -1.6987 O   0  0  0  0  0  0  0  0  0  0  0  0
   -7.6704    1.7504   -0.5609 H   0  0  0  0  0  0  0  0  0  0  0  0
   -8.4382    0.2917    0.2503 H   0  0  0  0  0  0  0  0  0  0  0  0
   -4.5738   -0.4023    3.1218 H   0  0  0  0  0  0  0  0  0  0  0  0
   -3.9325   -0.3787   -3.3657 H   0  0  0  0  0  0  0  0  0  0  0  0
   -2.0251   -2.1491   -1.8865 H   0  0  0  0  0  0  0  0  0  0  0  0
    0.3821   -2.1384   -0.1687 H   0  0  0  0  0  0  0  0  0  0  0  0
   -0.0829    0.8301    0.4570 H   0  0  0  0  0  0  0  0  0  0  0  0
    0.2273   -0.4983    1.6375 H   0  0  0  0  0  0  0  0  0  0  0  0
    2.8336    2.5812   -0.0800 H   0  0  0  0  0  0  0  0  0  0  0  0
    5.7845    0.1906    3.9311 H   0  0  0  0  0  0  0  0  0  0  0  0
    6.2643    0.1473   -1.8917 H   0  0  0  0  0  0  0  0  0  0  0  0
    8.1429   -0.1641    2.0259 H   0  0  0  0  0  0  0  0  0  0  0  0
    0.2862   -1.7311   -2.3940 H   0  0  0  0  0  0  0  0  0  0  0  0
    1.2353    0.3168   -2.9507 H   0  0  0  0  0  0  0  0  0  0  0  0
   -1.3781   -0.3201   -3.2600 H   0  0  0  0  0  0  0  0  0  0  0  0
   -2.0531    1.0967   -0.9924 H   0  0  0  0  0  0  0  0  0  0  0  0
  1  2  1  0
  2  3  2  0
  3  4  1  0
  4  5  2  0
  5  6  1  0
  6  7  1  0
  7  8  1  0
  8  9  2  0
  9 10  1  0
  7 11  1  0
 11 12  1  0
 12 13  1  0
 13 14  1  0
 14 15  1  0
 15 16  1  0
 16 17  1  0
 16 18  2  0
 16 19  1  0
 19 20  1  0
 20 21  1  0
 20 22  2  0
 20 23  1  0
 23 24  1  0
 24 25  1  0
 24 26  1  0
 24 27  2  0
 13 28  1  0
 28 29  1  0
 28 30  1  0
 30 31  1  0
 10  2  1  0
 30 11  1  0
 10  6  2  0
  1 32  1  0
  1 33  1  0
  4 34  1  0
  8 35  1  0
 11 36  1  6
 13 37  1  1
 14 38  1  0
 14 39  1  0
 17 40  1  0
 21 41  1  0
 25 42  1  0
 26 43  1  0
 28 44  1  6
 29 45  1  0
 30 46  1  6
 31 47  1  0
M  END
$$$$
[H]c1c([H])c(S(=O)(=O)N2C([H])([H])C([H])([H])N(C(=O)c3c([H])c(C(F)(F)F)c([H])c(C(F)(F)F)c3[H])C([H])([H])C2([H])[H])c([H])c([H])c1OC([H])([H])[H]
     RDKit          3D

 51 53  0  0  0  0  0  0  0  0999 V2000
    8.6467   -0.7823    0.6316 C   0  0  0  0  0  0  0  0  0  0  0  0
    8.1444   -0.3776   -0.6314 O   0  0  0  0  0  0  0  0  0  0  0  0
    6.7750   -0.0851   -0.7961 C   0  0  0  0  0  0  0  0  0  0  0  0
    5.8790   -0.1678    0.2351 C   0  0  0  0  0  0  0  0  0  0  0  0
    4.5387    0.1312    0.0480 C   0  0  0  0  0  0  0  0  0  0  0  0
    4.1078    0.5252   -1.1973 C   0  0  0  0  0  0  0  0  0  0  0  0
    5.0728    0.6009   -2.2385 C   0  0  0  0  0  0  0  0  0  0  0  0
    6.4043    0.3038   -2.0584 C   0  0  0  0  0  0  0  0  0  0  0  0
    2.5096    1.0163   -1.5716 S   0  0  0  0  0  0  0  0  0  0  0  0
    2.2418    0.3853   -2.9987 O   0  0  0  0  0  0  0  0  0  0  0  0
    2.5046    2.5134   -1.9185 O   0  0  0  0  0  0  0  0  0  0  0  0
    1.2128    0.5576   -0.6552 N   0  0  0  0  0  0  0  0  0  0  0  0
    0.1950   -0.2187   -1.2579 C   0  0  0  0  0  0  0  0  0  0  0  0
   -1.1894    0.2147   -0.7652 C   0  0  0  0  0  0  0  0  0  0  0  0
   -1.2353    0.3630    0.6083 N   0  0  0  0  0  0  0  0  0  0  0  0
   -0.0483    0.4975    1.4259 C   0  0  0  0  0  0  0  0  0  0  0  0
    1.2476    0.4798    0.7477 C   0  0  0  0  0  0  0  0  0  0  0  0
   -2.4387    0.4263    1.4115 C   0  0  0  0  0  0  0  0  0  0  0  0
   -2.2795    0.7039    2.6146 O   0  0  0  0  0  0  0  0  0  0  0  0
   -3.7888    0.2031    0.9360 C   0  0  0  0  0  0  0  0  0  0  0  0
   -4.8212    0.9354    1.6011 C   0  0  0  0  0  0  0  0  0  0  0  0
   -6.1468    0.7815    1.3827 C   0  0  0  0  0  0  0  0  0  0  0  0
   -6.5301   -0.1678    0.4348 C   0  0  0  0  0  0  0  0  0  0  0  0
   -5.6090   -0.9000   -0.2261 C   0  0  0  0  0  0  0  0  0  0  0  0
   -4.2362   -0.6997    0.0373 C   0  0  0  0  0  0  0  0  0  0  0  0
   -6.0309   -1.9160   -1.2254 C   0  0  0  0  0  0  0  0  0  0  0  0
   -7.2826   -2.4134   -0.9888 F   0  0  0  0  0  0  0  0  0  0  0  0
   -6.0763   -1.2711   -2.4723 F   0  0  0  0  0  0  0  0  0  0  0  0
   -5.0931   -2.8960   -1.3173 F   0  0  0  0  0  0  0  0  0  0  0  0
   -7.1700    1.5921    2.0945 C   0  0  0  0  0  0  0  0  0  0  0  0
   -7.2215    2.8297    1.4512 F   0  0  0  0  0  0  0  0  0  0  0  0
   -6.7921    1.6922    3.4085 F   0  0  0  0  0  0  0  0  0  0  0  0
   -8.4354    1.0605    1.9947 F   0  0  0  0  0  0  0  0  0  0  0  0
    7.9912   -1.6053    0.9600 H   0  0  0  0  0  0  0  0  0  0  0  0
    9.6441   -1.2041    0.4852 H   0  0  0  0  0  0  0  0  0  0  0  0
    8.5940    0.0982    1.2754 H   0  0  0  0  0  0  0  0  0  0  0  0
    6.1979   -0.4620    1.2253 H   0  0  0  0  0  0  0  0  0  0  0  0
    3.8700    0.0739    0.9119 H   0  0  0  0  0  0  0  0  0  0  0  0
    4.7308    0.9015   -3.2361 H   0  0  0  0  0  0  0  0  0  0  0  0
    7.1207    0.3591   -2.8517 H   0  0  0  0  0  0  0  0  0  0  0  0
    0.1482    0.0160   -2.3177 H   0  0  0  0  0  0  0  0  0  0  0  0
    0.2746   -1.3024   -1.1583 H   0  0  0  0  0  0  0  0  0  0  0  0
   -1.8922   -0.4842   -1.2421 H   0  0  0  0  0  0  0  0  0  0  0  0
   -1.4627    1.2029   -1.2965 H   0  0  0  0  0  0  0  0  0  0  0  0
   -0.1423   -0.3094    2.2280 H   0  0  0  0  0  0  0  0  0  0  0  0
   -0.1228    1.4666    2.0290 H   0  0  0  0  0  0  0  0  0  0  0  0
    1.9210    1.2631    1.1552 H   0  0  0  0  0  0  0  0  0  0  0  0
    1.6973   -0.5389    1.0095 H   0  0  0  0  0  0  0  0  0  0  0  0
   -4.4780    1.6345    2.3331 H   0  0  0  0  0  0  0  0  0  0  0  0
   -7.5714   -0.2968    0.2634 H   0  0  0  0  0  0  0  0  0  0  0  0
   -3.5752   -1.3704   -0.5185 H   0  0  0  0  0  0  0  0  0  0  0  0
  1  2  1  0
  2  3  1  0
  3  4  2  0
  4  5  1  0
  5  6  2  0
  6  7  1  0
  7  8  2  0
  6  9  1  0
  9 10  2  0
  9 11  2  0
  9 12  1  0
 12 13  1  0
 13 14  1  0
 14 15  1  0
 15 16  1  0
 16 17  1  0
 15 18  1  0
 18 19  2  0
 18 20  1  0
 20 21  2  0
 21 22  1  0
 22 23  2  0
 23 24  1  0
 24 25  2  0
 24 26  1  0
 26 27  1  0
 26 28  1  0
 26 29  1  0
 22 30  1  0
 30 31  1  0
 30 32  1  0
 30 33  1  0
  8  3  1  0
 17 12  1  0
 25 20  1  0
  1 34  1  0
  1 35  1  0
  1 36  1  0
  4 37  1  0
  5 38  1  0
  7 39  1  0
  8 40  1  0
 13 41  1  0
 13 42  1  0
 14 43  1  0
 14 44  1  0
 16 45  1  0
 16 46  1  0
 17 47  1  0
 17 48  1  0
 21 49  1  0
 23 50  1  0
 25 51  1  0
M  END
$$$$
[H]c1c([H])c(S(=O)(=O)N2C([H])([H])C([H])([H])N(C(=O)c3c([H])c(Cl)c([H])c([H])c3C([H])([H])[H])C([H])([H])[C@@]2([H])C([H])([H])[H])c([H])c([H])c1Cl
     RDKit          3D

 47 49  0  0  0  0  0  0  0  0999 V2000
    0.6664    1.5641    0.6728 C   0  0  0  0  0  0  0  0  0  0  0  0
    0.6758    0.1578    0.0590 C   0  0  2  0  0  0  0  0  0  0  0  0
   -0.7398   -0.3101   -0.1934 C   0  0  0  0  0  0  0  0  0  0  0  0
   -1.4059   -0.5544    1.0689 N   0  0  0  0  0  0  0  0  0  0  0  0
   -0.7412   -1.1061    2.2197 C   0  0  0  0  0  0  0  0  0  0  0  0
    0.7410   -1.0347    2.1698 C   0  0  0  0  0  0  0  0  0  0  0  0
    1.3322   -0.7012    0.9474 N   0  0  0  0  0  0  0  0  0  0  0  0
    2.6082   -1.6150    0.3807 S   0  0  0  0  0  0  0  0  0  0  0  0
    2.2651   -2.5236   -0.7819 O   0  0  0  0  0  0  0  0  0  0  0  0
    3.2315   -2.4787    1.4343 O   0  0  0  0  0  0  0  0  0  0  0  0
    3.8858   -0.5271   -0.1831 C   0  0  0  0  0  0  0  0  0  0  0  0
    4.8567   -0.1187    0.7142 C   0  0  0  0  0  0  0  0  0  0  0  0
    5.8910    0.7234    0.3802 C   0  0  0  0  0  0  0  0  0  0  0  0
    5.9492    1.1747   -0.9183 C   0  0  0  0  0  0  0  0  0  0  0  0
    7.2661    2.2490   -1.3513 Cl  0  0  0  0  0  0  0  0  0  0  0  0
    4.9874    0.7822   -1.8455 C   0  0  0  0  0  0  0  0  0  0  0  0
    3.9535   -0.0742   -1.4652 C   0  0  0  0  0  0  0  0  0  0  0  0
   -2.7802   -0.2336    1.1757 C   0  0  0  0  0  0  0  0  0  0  0  0
   -3.4259   -0.4221    2.2530 O   0  0  0  0  0  0  0  0  0  0  0  0
   -3.5293    0.3328    0.0477 C   0  0  0  0  0  0  0  0  0  0  0  0
   -3.5990    1.6985   -0.1234 C   0  0  0  0  0  0  0  0  0  0  0  0
   -4.3054    2.2290   -1.1878 C   0  0  0  0  0  0  0  0  0  0  0  0
   -4.4055    3.9631   -1.4221 Cl  0  0  0  0  0  0  0  0  0  0  0  0
   -4.9412    1.3791   -2.0789 C   0  0  0  0  0  0  0  0  0  0  0  0
   -4.8775    0.0172   -1.9167 C   0  0  0  0  0  0  0  0  0  0  0  0
   -4.1678   -0.5010   -0.8483 C   0  0  0  0  0  0  0  0  0  0  0  0
   -4.0970   -1.9769   -0.6704 C   0  0  0  0  0  0  0  0  0  0  0  0
    0.3079    1.4728    1.7230 H   0  0  0  0  0  0  0  0  0  0  0  0
   -0.0230    2.2331    0.1244 H   0  0  0  0  0  0  0  0  0  0  0  0
    1.7169    1.9100    0.6532 H   0  0  0  0  0  0  0  0  0  0  0  0
    1.2204    0.2291   -0.8845 H   0  0  0  0  0  0  0  0  0  0  0  0
   -1.2400    0.4763   -0.7849 H   0  0  0  0  0  0  0  0  0  0  0  0
   -0.6872   -1.2531   -0.7557 H   0  0  0  0  0  0  0  0  0  0  0  0
   -1.0695   -2.1526    2.3233 H   0  0  0  0  0  0  0  0  0  0  0  0
   -1.1669   -0.5655    3.1121 H   0  0  0  0  0  0  0  0  0  0  0  0
    1.2014   -1.9954    2.5431 H   0  0  0  0  0  0  0  0  0  0  0  0
    1.0631   -0.2768    2.9437 H   0  0  0  0  0  0  0  0  0  0  0  0
    4.7931   -0.4872    1.7369 H   0  0  0  0  0  0  0  0  0  0  0  0
    6.6019    0.9884    1.1451 H   0  0  0  0  0  0  0  0  0  0  0  0
    5.0628    1.1508   -2.8420 H   0  0  0  0  0  0  0  0  0  0  0  0
    3.2030   -0.3807   -2.1886 H   0  0  0  0  0  0  0  0  0  0  0  0
   -3.1119    2.4026    0.5566 H   0  0  0  0  0  0  0  0  0  0  0  0
   -5.5006    1.7924   -2.9217 H   0  0  0  0  0  0  0  0  0  0  0  0
   -5.3664   -0.6300   -2.6026 H   0  0  0  0  0  0  0  0  0  0  0  0
   -4.2551   -2.1801    0.4259 H   0  0  0  0  0  0  0  0  0  0  0  0
   -3.1207   -2.3782   -1.0076 H   0  0  0  0  0  0  0  0  0  0  0  0
   -4.9234   -2.4494   -1.2452 H   0  0  0  0  0  0  0  0  0  0  0  0
  1  2  1  0
  2  3  1  0
  3  4  1  0
  4  5  1  0
  5  6  1  0
  6  7  1  0
  7  8  1  0
  8  9  2  0
  8 10  2  0
  8 11  1  0
 11 12  2  0
 12 13  1  0
 13 14  2  0
 14 15  1  0
 14 16  1  0
 16 17  2  0
  4 18  1  0
 18 19  2  0
 18 20  1  0
 20 21  2  0
 21 22  1  0
 22 23  1  0
 22 24  2  0
 24 25  1  0
 25 26  2  0
 26 27  1  0
  7  2  1  0
 17 11  1  0
 26 20  1  0
  1 28  1  0
  1 29  1  0
  1 30  1  0
  2 31  1  6
  3 32  1  0
  3 33  1  0
  5 34  1  0
  5 35  1  0
  6 36  1  0
  6 37  1  0
 12 38  1  0
 13 39  1  0
 16 40  1  0
 17 41  1  0
 21 42  1  0
 24 43  1  0
 25 44  1  0
 27 45  1  0
 27 46  1  0
 27 47  1  0
M  END
$$$$
[H]C(=O)[C@@]([H])(N([H])C(=O)[C@@]([H])(N([H])C(=O)[C@@]([H])(N([H])C(=O)OC([H])([H])c1c([H])c([H])c([H])c([H])c1[H])C([H])([H])C([H])(C([H])([H])[H])C([H])([H])[H])C([H])([H])c1c([H])c([H])c([H])c([H])c1[H])C([H])([H])c1c([H])c([H])c([H])c([H])c1[H]
     RDKit          3D

 77 79  0  0  0  0  0  0  0  0999 V2000
    4.0452   -2.4845    2.5384 C   0  0  0  0  0  0  0  0  0  0  0  0
    3.3478   -2.2835    1.1891 C   0  0  0  0  0  0  0  0  0  0  0  0
    4.2715   -2.8971    0.1272 C   0  0  0  0  0  0  0  0  0  0  0  0
    3.2045   -0.8308    0.9263 C   0  0  0  0  0  0  0  0  0  0  0  0
    2.5325   -0.3935   -0.3031 C   0  0  2  0  0  0  0  0  0  0  0  0
    2.6565    1.0869   -0.3441 N   0  0  0  0  0  0  0  0  0  0  0  0
    3.4925    1.6943   -1.2877 C   0  0  0  0  0  0  0  0  0  0  0  0
    4.1383    0.9235   -2.0865 O   0  0  0  0  0  0  0  0  0  0  0  0
    3.6869    3.0321   -1.4420 O   0  0  0  0  0  0  0  0  0  0  0  0
    4.5218    3.6422   -2.3781 C   0  0  0  0  0  0  0  0  0  0  0  0
    5.9542    3.3255   -2.2549 C   0  0  0  0  0  0  0  0  0  0  0  0
    6.4846    2.6957   -1.1555 C   0  0  0  0  0  0  0  0  0  0  0  0
    7.8403    2.4029   -1.0634 C   0  0  0  0  0  0  0  0  0  0  0  0
    8.6840    2.7432   -2.0808 C   0  0  0  0  0  0  0  0  0  0  0  0
    8.1772    3.3728   -3.1866 C   0  0  0  0  0  0  0  0  0  0  0  0
    6.8217    3.6715   -3.2942 C   0  0  0  0  0  0  0  0  0  0  0  0
    1.1194   -0.6944   -0.5226 C   0  0  0  0  0  0  0  0  0  0  0  0
    0.6077    0.0266   -1.4997 O   0  0  0  0  0  0  0  0  0  0  0  0
    0.2703   -1.5577    0.0968 N   0  0  0  0  0  0  0  0  0  0  0  0
   -1.1695   -1.7054   -0.2881 C   0  0  1  0  0  0  0  0  0  0  0  0
   -1.4416   -3.1287   -0.4679 C   0  0  0  0  0  0  0  0  0  0  0  0
   -2.8263   -3.5151   -0.8553 C   0  0  0  0  0  0  0  0  0  0  0  0
   -3.2275   -3.2599   -2.1608 C   0  0  0  0  0  0  0  0  0  0  0  0
   -4.4689   -3.6361   -2.5653 C   0  0  0  0  0  0  0  0  0  0  0  0
   -5.3757   -4.2776   -1.7215 C   0  0  0  0  0  0  0  0  0  0  0  0
   -4.9432   -4.5155   -0.4345 C   0  0  0  0  0  0  0  0  0  0  0  0
   -3.6983   -4.1429   -0.0103 C   0  0  0  0  0  0  0  0  0  0  0  0
   -1.9915   -0.7704    0.4040 C   0  0  0  0  0  0  0  0  0  0  0  0
   -1.3364    0.1297    1.1049 O   0  0  0  0  0  0  0  0  0  0  0  0
   -3.3624   -0.6341    0.4675 N   0  0  0  0  0  0  0  0  0  0  0  0
   -3.9364    0.4894    1.2511 C   0  0  1  0  0  0  0  0  0  0  0  0
   -5.2220    0.9221    0.6238 C   0  0  0  0  0  0  0  0  0  0  0  0
   -5.8368    2.0705    1.3261 C   0  0  0  0  0  0  0  0  0  0  0  0
   -5.4630    3.3516    0.8728 C   0  0  0  0  0  0  0  0  0  0  0  0
   -6.0000    4.4660    1.4761 C   0  0  0  0  0  0  0  0  0  0  0  0
   -6.9086    4.3177    2.5314 C   0  0  0  0  0  0  0  0  0  0  0  0
   -7.2414    3.0634    2.9380 C   0  0  0  0  0  0  0  0  0  0  0  0
   -6.7148    1.9364    2.3456 C   0  0  0  0  0  0  0  0  0  0  0  0
   -4.2002    0.0302    2.6469 C   0  0  0  0  0  0  0  0  0  0  0  0
   -3.9534   -1.1129    2.9453 O   0  0  0  0  0  0  0  0  0  0  0  0
    4.0621   -3.5841    2.7751 H   0  0  0  0  0  0  0  0  0  0  0  0
    5.0861   -2.1484    2.4933 H   0  0  0  0  0  0  0  0  0  0  0  0
    3.4998   -1.9527    3.3254 H   0  0  0  0  0  0  0  0  0  0  0  0
    2.4546   -2.8645    1.2155 H   0  0  0  0  0  0  0  0  0  0  0  0
    3.7886   -2.8281   -0.8524 H   0  0  0  0  0  0  0  0  0  0  0  0
    4.4126   -3.9330    0.4210 H   0  0  0  0  0  0  0  0  0  0  0  0
    5.2179   -2.3275    0.1266 H   0  0  0  0  0  0  0  0  0  0  0  0
    4.2526   -0.3704    0.8971 H   0  0  0  0  0  0  0  0  0  0  0  0
    2.6762   -0.3651    1.8142 H   0  0  0  0  0  0  0  0  0  0  0  0
    3.1625   -0.7431   -1.1782 H   0  0  0  0  0  0  0  0  0  0  0  0
    2.1022    1.6184    0.3399 H   0  0  0  0  0  0  0  0  0  0  0  0
    4.1948    3.3687   -3.4307 H   0  0  0  0  0  0  0  0  0  0  0  0
    4.4167    4.7593   -2.3614 H   0  0  0  0  0  0  0  0  0  0  0  0
    5.8335    2.4253   -0.3239 H   0  0  0  0  0  0  0  0  0  0  0  0
    8.2176    1.9068   -0.1926 H   0  0  0  0  0  0  0  0  0  0  0  0
    9.7628    2.5233   -2.0336 H   0  0  0  0  0  0  0  0  0  0  0  0
    8.8396    3.6490   -3.9975 H   0  0  0  0  0  0  0  0  0  0  0  0
    6.4141    4.1633   -4.1612 H   0  0  0  0  0  0  0  0  0  0  0  0
    0.4982   -2.1762    0.8788 H   0  0  0  0  0  0  0  0  0  0  0  0
   -1.0800   -1.2938   -1.4046 H   0  0  0  0  0  0  0  0  0  0  0  0
   -1.1583   -3.7448    0.4170 H   0  0  0  0  0  0  0  0  0  0  0  0
   -0.8003   -3.5107   -1.3145 H   0  0  0  0  0  0  0  0  0  0  0  0
   -2.5473   -2.7573   -2.8453 H   0  0  0  0  0  0  0  0  0  0  0  0
   -4.8424   -3.4587   -3.5782 H   0  0  0  0  0  0  0  0  0  0  0  0
   -6.3496   -4.5682   -2.0402 H   0  0  0  0  0  0  0  0  0  0  0  0
   -5.6273   -5.0140    0.2580 H   0  0  0  0  0  0  0  0  0  0  0  0
   -3.3690   -4.3452    1.0201 H   0  0  0  0  0  0  0  0  0  0  0  0
   -4.0609   -1.2230    0.0214 H   0  0  0  0  0  0  0  0  0  0  0  0
   -3.2104    1.3120    1.2822 H   0  0  0  0  0  0  0  0  0  0  0  0
   -5.1030    1.1557   -0.4558 H   0  0  0  0  0  0  0  0  0  0  0  0
   -5.9227    0.0514    0.6754 H   0  0  0  0  0  0  0  0  0  0  0  0
   -4.7686    3.4458    0.0700 H   0  0  0  0  0  0  0  0  0  0  0  0
   -5.7194    5.4485    1.1303 H   0  0  0  0  0  0  0  0  0  0  0  0
   -7.3052    5.2056    2.9751 H   0  0  0  0  0  0  0  0  0  0  0  0
   -7.9456    2.9246    3.7586 H   0  0  0  0  0  0  0  0  0  0  0  0
   -7.0156    0.9512    2.7011 H   0  0  0  0  0  0  0  0  0  0  0  0
   -4.6064    0.7460    3.3514 H   0  0  0  0  0  0  0  0  0  0  0  0
  1  2  1  0
  2  3  1  0
  2  4  1  0
  4  5  1  0
  5  6  1  0
  6  7  1  0
  7  8  2  0
  7  9  1  0
  9 10  1  0
 10 11  1  0
 11 12  2  0
 12 13  1  0
 13 14  2  0
 14 15  1  0
 15 16  2  0
  5 17  1  0
 17 18  2  0
 17 19  1  0
 19 20  1  0
 20 21  1  0
 21 22  1  0
 22 23  2  0
 23 24  1  0
 24 25  2  0
 25 26  1  0
 26 27  2  0
 20 28  1  0
 28 29  2  0
 28 30  1  0
 30 31  1  0
 31 32  1  0
 32 33  1  0
 33 34  2  0
 34 35  1  0
 35 36  2  0
 36 37  1  0
 37 38  2  0
 31 39  1  0
 39 40  2  0
 16 11  1  0
 27 22  1  0
 38 33  1  0
  1 41  1  0
  1 42  1  0
  1 43  1  0
  2 44  1  0
  3 45  1  0
  3 46  1  0
  3 47  1  0
  4 48  1  0
  4 49  1  0
  5 50  1  6
  6 51  1  0
 10 52  1  0
 10 53  1  0
 12 54  1  0
 13 55  1  0
 14 56  1  0
 15 57  1  0
 16 58  1  0
 19 59  1  0
 20 60  1  6
 21 61  1  0
 21 62  1  0
 23 63  1  0
 24 64  1  0
 25 65  1  0
 26 66  1  0
 27 67  1  0
 30 68  1  0
 31 69  1  1
 32 70  1  0
 32 71  1  0
 34 72  1  0
 35 73  1  0
 36 74  1  0
 37 75  1  0
 38 76  1  0
 39 77  1  0
M  END
$$$$
[H]c1c([H])c(C(=O)N2C([H])([H])C([H])([H])N(S(=O)(=O)c3c([H])c([H])c(Cl)c([H])c3Cl)C([H])([H])[C@@]2([H])C([H])([H])[H])c([H])c(C(F)(F)F)c1[H]
     RDKit          3D

 47 49  0  0  0  0  0  0  0  0999 V2000
    0.3926   -2.4919   -1.4152 C   0  0  0  0  0  0  0  0  0  0  0  0
   -0.0371   -1.6304   -0.3218 C   0  0  2  0  0  0  0  0  0  0  0  0
   -1.2105   -0.6846   -0.5301 C   0  0  0  0  0  0  0  0  0  0  0  0
   -1.7653   -0.5448    0.7988 N   0  0  0  0  0  0  0  0  0  0  0  0
   -0.9312   -0.7992    1.8788 C   0  0  0  0  0  0  0  0  0  0  0  0
    0.5442   -0.4467    1.6997 C   0  0  0  0  0  0  0  0  0  0  0  0
    0.9772   -0.8200    0.3712 N   0  0  0  0  0  0  0  0  0  0  0  0
    2.1469   -0.4434   -0.2188 C   0  0  0  0  0  0  0  0  0  0  0  0
    2.2656   -0.8182   -1.4844 O   0  0  0  0  0  0  0  0  0  0  0  0
    3.2863    0.2777    0.2380 C   0  0  0  0  0  0  0  0  0  0  0  0
    3.5106    0.6703    1.5146 C   0  0  0  0  0  0  0  0  0  0  0  0
    4.6306    1.4054    1.8948 C   0  0  0  0  0  0  0  0  0  0  0  0
    5.5667    1.7603    0.9664 C   0  0  0  0  0  0  0  0  0  0  0  0
    5.3989    1.3906   -0.3479 C   0  0  0  0  0  0  0  0  0  0  0  0
    4.2920    0.6750   -0.6775 C   0  0  0  0  0  0  0  0  0  0  0  0
    6.4145    1.7732   -1.3718 C   0  0  0  0  0  0  0  0  0  0  0  0
    6.6779    0.7163   -2.2469 F   0  0  0  0  0  0  0  0  0  0  0  0
    7.5893    2.1017   -0.7871 F   0  0  0  0  0  0  0  0  0  0  0  0
    5.9526    2.8633   -2.0720 F   0  0  0  0  0  0  0  0  0  0  0  0
   -3.3495   -1.0815    0.9674 S   0  0  0  0  0  0  0  0  0  0  0  0
   -3.7883   -1.0760    2.4198 O   0  0  0  0  0  0  0  0  0  0  0  0
   -3.4810   -2.5365    0.4853 O   0  0  0  0  0  0  0  0  0  0  0  0
   -4.4855   -0.1622    0.0060 C   0  0  0  0  0  0  0  0  0  0  0  0
   -5.0723   -0.6582   -1.1117 C   0  0  0  0  0  0  0  0  0  0  0  0
   -5.9880    0.1281   -1.8324 C   0  0  0  0  0  0  0  0  0  0  0  0
   -6.2987    1.3896   -1.4210 C   0  0  0  0  0  0  0  0  0  0  0  0
   -7.4607    2.3450   -2.3389 Cl  0  0  0  0  0  0  0  0  0  0  0  0
   -5.7120    1.9191   -0.2827 C   0  0  0  0  0  0  0  0  0  0  0  0
   -4.8174    1.1454    0.4137 C   0  0  0  0  0  0  0  0  0  0  0  0
   -4.0705    1.7782    1.8740 Cl  0  0  0  0  0  0  0  0  0  0  0  0
    1.3778   -2.9793   -1.1539 H   0  0  0  0  0  0  0  0  0  0  0  0
    0.4721   -2.0870   -2.4361 H   0  0  0  0  0  0  0  0  0  0  0  0
   -0.2999   -3.4091   -1.4198 H   0  0  0  0  0  0  0  0  0  0  0  0
   -0.4005   -2.3552    0.5058 H   0  0  0  0  0  0  0  0  0  0  0  0
   -1.8930   -1.0690   -1.2850 H   0  0  0  0  0  0  0  0  0  0  0  0
   -0.8656    0.3157   -0.8546 H   0  0  0  0  0  0  0  0  0  0  0  0
   -1.0078   -1.7956    2.3988 H   0  0  0  0  0  0  0  0  0  0  0  0
   -1.2480   -0.0779    2.7221 H   0  0  0  0  0  0  0  0  0  0  0  0
    1.0779   -1.0929    2.4234 H   0  0  0  0  0  0  0  0  0  0  0  0
    0.6905    0.6260    1.9338 H   0  0  0  0  0  0  0  0  0  0  0  0
    2.8511    0.4036    2.3176 H   0  0  0  0  0  0  0  0  0  0  0  0
    4.7363    1.6840    2.9409 H   0  0  0  0  0  0  0  0  0  0  0  0
    6.4098    2.3191    1.2764 H   0  0  0  0  0  0  0  0  0  0  0  0
    4.1678    0.3915   -1.6973 H   0  0  0  0  0  0  0  0  0  0  0  0
   -4.8486   -1.6353   -1.4784 H   0  0  0  0  0  0  0  0  0  0  0  0
   -6.4295   -0.2962   -2.7120 H   0  0  0  0  0  0  0  0  0  0  0  0
   -5.9684    2.9118    0.0414 H   0  0  0  0  0  0  0  0  0  0  0  0
  1  2  1  0
  2  3  1  0
  3  4  1  0
  4  5  1  0
  5  6  1  0
  6  7  1  0
  7  8  1  0
  8  9  2  0
  8 10  1  0
 10 11  2  0
 11 12  1  0
 12 13  2  0
 13 14  1  0
 14 15  2  0
 14 16  1  0
 16 17  1  0
 16 18  1  0
 16 19  1  0
  4 20  1  0
 20 21  2  0
 20 22  2  0
 20 23  1  0
 23 24  2  0
 24 25  1  0
 25 26  2  0
 26 27  1  0
 26 28  1  0
 28 29  2  0
 29 30  1  0
  7  2  1  0
 15 10  1  0
 29 23  1  0
  1 31  1  0
  1 32  1  0
  1 33  1  0
  2 34  1  1
  3 35  1  0
  3 36  1  0
  5 37  1  0
  5 38  1  0
  6 39  1  0
  6 40  1  0
 11 41  1  0
 12 42  1  0
 13 43  1  0
 15 44  1  0
 24 45  1  0
 25 46  1  0
 28 47  1  0
M  END
$$$$
[H]N=C(N([H])[H])N([H])C([H])([H])C([H])([H])C([H])([H])[C@@]([H])(C(=O)N([H])[C@]([H])(C(=O)N([H])[H])C([H])([H])c1c([H])c([H])c(O[H])c([H])c1[H])N([H])C(=O)[C@@]([H])(N([H])C(=O)[C@@]([H])(N([H])[H])C([H])([H])c1c([H])c([H])c(O[H])c([H])c1[H])C([H])([H])C([H])(C([H])([H])[H])C([H])([H])[H]
     RDKit          3D

 88 89  0  0  0  0  0  0  0  0999 V2000
   -3.8402    1.3490    3.6092 C   0  0  0  0  0  0  0  0  0  0  0  0
   -2.4248    1.7314    3.8304 C   0  0  0  0  0  0  0  0  0  0  0  0
   -2.3978    3.2241    4.1474 C   0  0  0  0  0  0  0  0  0  0  0  0
   -1.4193    1.3309    2.8353 C   0  0  0  0  0  0  0  0  0  0  0  0
   -1.5664    1.8135    1.4450 C   0  0  2  0  0  0  0  0  0  0  0  0
   -2.7978    1.3642    0.8538 N   0  0  0  0  0  0  0  0  0  0  0  0
   -3.1372    0.0017    0.6302 C   0  0  0  0  0  0  0  0  0  0  0  0
   -2.3098   -0.8753    0.9731 O   0  0  0  0  0  0  0  0  0  0  0  0
   -4.4127   -0.4221    0.0177 C   0  0  1  0  0  0  0  0  0  0  0  0
   -5.2210    0.6674   -0.4612 N   0  0  0  0  0  0  0  0  0  0  0  0
   -4.1916   -1.4051   -1.0847 C   0  0  0  0  0  0  0  0  0  0  0  0
   -5.4714   -1.8444   -1.7140 C   0  0  0  0  0  0  0  0  0  0  0  0
   -6.0465   -1.2271   -2.7974 C   0  0  0  0  0  0  0  0  0  0  0  0
   -7.2415   -1.6574   -3.3580 C   0  0  0  0  0  0  0  0  0  0  0  0
   -7.8990   -2.7458   -2.8262 C   0  0  0  0  0  0  0  0  0  0  0  0
   -9.1045   -3.1901   -3.3819 O   0  0  0  0  0  0  0  0  0  0  0  0
   -7.3419   -3.3830   -1.7366 C   0  0  0  0  0  0  0  0  0  0  0  0
   -6.1629   -2.9428   -1.1993 C   0  0  0  0  0  0  0  0  0  0  0  0
   -0.4455    1.4455    0.5460 C   0  0  0  0  0  0  0  0  0  0  0  0
   -0.6914    0.9007   -0.5481 O   0  0  0  0  0  0  0  0  0  0  0  0
    0.8985    1.6997    0.9036 N   0  0  0  0  0  0  0  0  0  0  0  0
    2.0510    1.3985    0.1095 C   0  0  1  0  0  0  0  0  0  0  0  0
    2.9507    2.5755    0.0401 C   0  0  0  0  0  0  0  0  0  0  0  0
    2.2646    3.7609   -0.5720 C   0  0  0  0  0  0  0  0  0  0  0  0
    1.8118    3.5052   -1.9872 C   0  0  0  0  0  0  0  0  0  0  0  0
    1.1782    4.7042   -2.5005 N   0  0  0  0  0  0  0  0  0  0  0  0
   -0.0543    5.1785   -2.0078 C   0  0  0  0  0  0  0  0  0  0  0  0
   -0.1510    6.4871   -1.4654 N   0  0  0  0  0  0  0  0  0  0  0  0
   -1.1192    4.4569   -2.0325 N   0  0  0  0  0  0  0  0  0  0  0  0
    2.7592    0.1740    0.6051 C   0  0  0  0  0  0  0  0  0  0  0  0
    2.3085   -0.4681    1.5855 O   0  0  0  0  0  0  0  0  0  0  0  0
    3.9358   -0.2746   -0.0172 N   0  0  0  0  0  0  0  0  0  0  0  0
    4.6927   -1.4609    0.3911 C   0  0  1  0  0  0  0  0  0  0  0  0
    4.7464   -2.3611   -0.7914 C   0  0  0  0  0  0  0  0  0  0  0  0
    5.4514   -3.6296   -0.6702 C   0  0  0  0  0  0  0  0  0  0  0  0
    6.7653   -3.7635   -1.0637 C   0  0  0  0  0  0  0  0  0  0  0  0
    7.3653   -4.9923   -0.9238 C   0  0  0  0  0  0  0  0  0  0  0  0
    6.6878   -6.0746   -0.4059 C   0  0  0  0  0  0  0  0  0  0  0  0
    7.3689   -7.3006   -0.2933 O   0  0  0  0  0  0  0  0  0  0  0  0
    5.3725   -5.9630   -0.0062 C   0  0  0  0  0  0  0  0  0  0  0  0
    4.7885   -4.7232   -0.1540 C   0  0  0  0  0  0  0  0  0  0  0  0
    5.9826   -1.1011    0.9645 C   0  0  0  0  0  0  0  0  0  0  0  0
    6.8414   -2.0579    1.5166 N   0  0  0  0  0  0  0  0  0  0  0  0
    6.3891    0.1120    0.9936 O   0  0  0  0  0  0  0  0  0  0  0  0
   -4.3820    1.8675    2.8189 H   0  0  0  0  0  0  0  0  0  0  0  0
   -4.3857    1.6616    4.5583 H   0  0  0  0  0  0  0  0  0  0  0  0
   -4.0073    0.2292    3.6181 H   0  0  0  0  0  0  0  0  0  0  0  0
   -2.1196    1.2457    4.8073 H   0  0  0  0  0  0  0  0  0  0  0  0
   -3.0552    3.7474    3.4412 H   0  0  0  0  0  0  0  0  0  0  0  0
   -1.3745    3.6161    4.1860 H   0  0  0  0  0  0  0  0  0  0  0  0
   -2.8390    3.3722    5.1677 H   0  0  0  0  0  0  0  0  0  0  0  0
   -0.4233    1.7359    3.2060 H   0  0  0  0  0  0  0  0  0  0  0  0
   -1.2673    0.2303    2.8790 H   0  0  0  0  0  0  0  0  0  0  0  0
   -1.5859    2.9437    1.3871 H   0  0  0  0  0  0  0  0  0  0  0  0
   -3.5204    2.0580    0.5564 H   0  0  0  0  0  0  0  0  0  0  0  0
   -4.9959   -0.9468    0.8144 H   0  0  0  0  0  0  0  0  0  0  0  0
   -6.2203    0.3535   -0.5308 H   0  0  0  0  0  0  0  0  0  0  0  0
   -4.8741    1.0835   -1.3548 H   0  0  0  0  0  0  0  0  0  0  0  0
   -3.7158   -2.3556   -0.7103 H   0  0  0  0  0  0  0  0  0  0  0  0
   -3.5477   -0.9786   -1.8984 H   0  0  0  0  0  0  0  0  0  0  0  0
   -5.5477   -0.3720   -3.2301 H   0  0  0  0  0  0  0  0  0  0  0  0
   -7.6815   -1.1557   -4.2148 H   0  0  0  0  0  0  0  0  0  0  0  0
   -8.9894   -3.8917   -4.1258 H   0  0  0  0  0  0  0  0  0  0  0  0
   -7.8650   -4.2378   -1.3224 H   0  0  0  0  0  0  0  0  0  0  0  0
   -5.7641   -3.4804   -0.3416 H   0  0  0  0  0  0  0  0  0  0  0  0
    1.0758    2.1502    1.8343 H   0  0  0  0  0  0  0  0  0  0  0  0
    1.6971    1.1368   -0.9107 H   0  0  0  0  0  0  0  0  0  0  0  0
    3.8620    2.3962   -0.5793 H   0  0  0  0  0  0  0  0  0  0  0  0
    3.3054    2.8710    1.0645 H   0  0  0  0  0  0  0  0  0  0  0  0
    2.9006    4.6731   -0.5110 H   0  0  0  0  0  0  0  0  0  0  0  0
    1.3377    4.0248    0.0093 H   0  0  0  0  0  0  0  0  0  0  0  0
    2.6407    3.1728   -2.6431 H   0  0  0  0  0  0  0  0  0  0  0  0
    1.0552    2.6952   -1.9655 H   0  0  0  0  0  0  0  0  0  0  0  0
    1.6537    5.2279   -3.2568 H   0  0  0  0  0  0  0  0  0  0  0  0
    0.4710    6.7410   -0.6649 H   0  0  0  0  0  0  0  0  0  0  0  0
   -0.8065    7.2134   -1.8162 H   0  0  0  0  0  0  0  0  0  0  0  0
   -2.0295    4.7679   -1.6841 H   0  0  0  0  0  0  0  0  0  0  0  0
    4.3130    0.2598   -0.8278 H   0  0  0  0  0  0  0  0  0  0  0  0
    4.0783   -1.9229    1.2043 H   0  0  0  0  0  0  0  0  0  0  0  0
    3.7013   -2.5833   -1.1728 H   0  0  0  0  0  0  0  0  0  0  0  0
    5.2220   -1.8258   -1.6714 H   0  0  0  0  0  0  0  0  0  0  0  0
    7.3232   -2.9091   -1.4810 H   0  0  0  0  0  0  0  0  0  0  0  0
    8.4185   -5.0874   -1.2425 H   0  0  0  0  0  0  0  0  0  0  0  0
    7.8606   -7.4458    0.5914 H   0  0  0  0  0  0  0  0  0  0  0  0
    4.8603   -6.8178    0.3958 H   0  0  0  0  0  0  0  0  0  0  0  0
    3.7348   -4.6440    0.1683 H   0  0  0  0  0  0  0  0  0  0  0  0
    6.4601   -2.8486    2.0658 H   0  0  0  0  0  0  0  0  0  0  0  0
    7.8641   -1.9883    1.3831 H   0  0  0  0  0  0  0  0  0  0  0  0
  1  2  1  0
  2  3  1  0
  2  4  1  0
  4  5  1  0
  5  6  1  0
  6  7  1  0
  7  8  2  0
  7  9  1  0
  9 10  1  0
  9 11  1  0
 11 12  1  0
 12 13  2  0
 13 14  1  0
 14 15  2  0
 15 16  1  0
 15 17  1  0
 17 18  2  0
  5 19  1  0
 19 20  2  0
 19 21  1  0
 21 22  1  0
 22 23  1  0
 23 24  1  0
 24 25  1  0
 25 26  1  0
 26 27  1  0
 27 28  1  0
 27 29  2  3
 22 30  1  0
 30 31  2  0
 30 32  1  0
 32 33  1  0
 33 34  1  0
 34 35  1  0
 35 36  2  0
 36 37  1  0
 37 38  2  0
 38 39  1  0
 38 40  1  0
 40 41  2  0
 33 42  1  0
 42 43  1  0
 42 44  2  0
 18 12  1  0
 41 35  1  0
  1 45  1  0
  1 46  1  0
  1 47  1  0
  2 48  1  0
  3 49  1  0
  3 50  1  0
  3 51  1  0
  4 52  1  0
  4 53  1  0
  5 54  1  1
  6 55  1  0
  9 56  1  1
 10 57  1  0
 10 58  1  0
 11 59  1  0
 11 60  1  0
 13 61  1  0
 14 62  1  0
 16 63  1  0
 17 64  1  0
 18 65  1  0
 21 66  1  0
 22 67  1  6
 23 68  1  0
 23 69  1  0
 24 70  1  0
 24 71  1  0
 25 72  1  0
 25 73  1  0
 26 74  1  0
 28 75  1  0
 28 76  1  0
 29 77  1  0
 32 78  1  0
 33 79  1  1
 34 80  1  0
 34 81  1  0
 36 82  1  0
 37 83  1  0
 39 84  1  0
 40 85  1  0
 41 86  1  0
 43 87  1  0
 43 88  1  0
M  END
$$$$
[H]c1c([H])c(S(=O)(=O)N2C([H])([H])C([H])([H])N(C(=O)c3c([H])c([H])c(Cl)c([H])c3[H])[C@]([H])(C([H])([H])[H])C2([H])[H])c(F)c([H])c1F
     RDKit          3D

 44 46  0  0  0  0  0  0  0  0999 V2000
   -1.1184    0.7162   -1.8056 C   0  0  0  0  0  0  0  0  0  0  0  0
   -0.5718    0.9930   -0.4814 C   0  0  2  0  0  0  0  0  0  0  0  0
    0.5699    0.0475   -0.1249 C   0  0  0  0  0  0  0  0  0  0  0  0
    1.2987    0.5589    1.0065 N   0  0  0  0  0  0  0  0  0  0  0  0
    0.5951    1.1018    2.0854 C   0  0  0  0  0  0  0  0  0  0  0  0
   -0.5669    1.9989    1.7317 C   0  0  0  0  0  0  0  0  0  0  0  0
   -1.3710    1.2536    0.6614 N   0  0  0  0  0  0  0  0  0  0  0  0
   -2.6162    0.8725    1.0274 C   0  0  0  0  0  0  0  0  0  0  0  0
   -3.0246    1.5089    2.1458 O   0  0  0  0  0  0  0  0  0  0  0  0
   -3.6214   -0.0375    0.5349 C   0  0  0  0  0  0  0  0  0  0  0  0
   -3.4308   -1.1108   -0.2642 C   0  0  0  0  0  0  0  0  0  0  0  0
   -4.4561   -1.9094   -0.7917 C   0  0  0  0  0  0  0  0  0  0  0  0
   -5.7523   -1.5903   -0.4791 C   0  0  0  0  0  0  0  0  0  0  0  0
   -7.0533   -2.5647   -1.1200 Cl  0  0  0  0  0  0  0  0  0  0  0  0
   -5.9924   -0.5054    0.3351 C   0  0  0  0  0  0  0  0  0  0  0  0
   -4.9623    0.2577    0.8345 C   0  0  0  0  0  0  0  0  0  0  0  0
    2.8355    1.1655    0.6769 S   0  0  0  0  0  0  0  0  0  0  0  0
    3.5297    1.6850    1.9265 O   0  0  0  0  0  0  0  0  0  0  0  0
    2.8094    2.3394   -0.2872 O   0  0  0  0  0  0  0  0  0  0  0  0
    3.8701   -0.0881    0.0413 C   0  0  0  0  0  0  0  0  0  0  0  0
    3.4755   -1.3978   -0.0868 C   0  0  0  0  0  0  0  0  0  0  0  0
    4.3259   -2.3905   -0.5875 C   0  0  0  0  0  0  0  0  0  0  0  0
    5.5872   -2.0344   -0.9576 C   0  0  0  0  0  0  0  0  0  0  0  0
    6.4019   -3.0101   -1.4423 F   0  0  0  0  0  0  0  0  0  0  0  0
    6.0334   -0.7407   -0.8504 C   0  0  0  0  0  0  0  0  0  0  0  0
    5.1743    0.2056   -0.3562 C   0  0  0  0  0  0  0  0  0  0  0  0
    5.5854    1.4876   -0.2391 F   0  0  0  0  0  0  0  0  0  0  0  0
   -0.4456    1.1959   -2.5957 H   0  0  0  0  0  0  0  0  0  0  0  0
   -2.1471    1.1065   -1.9889 H   0  0  0  0  0  0  0  0  0  0  0  0
   -1.0256   -0.3779   -2.0887 H   0  0  0  0  0  0  0  0  0  0  0  0
   -0.0014    2.0269   -0.6352 H   0  0  0  0  0  0  0  0  0  0  0  0
    1.2471   -0.0103   -0.9849 H   0  0  0  0  0  0  0  0  0  0  0  0
    0.1391   -0.9295    0.1155 H   0  0  0  0  0  0  0  0  0  0  0  0
    1.2904    1.7177    2.6944 H   0  0  0  0  0  0  0  0  0  0  0  0
    0.1617    0.2621    2.6979 H   0  0  0  0  0  0  0  0  0  0  0  0
   -1.2164    2.2261    2.5493 H   0  0  0  0  0  0  0  0  0  0  0  0
   -0.2009    2.9010    1.2272 H   0  0  0  0  0  0  0  0  0  0  0  0
   -2.4010   -1.4328   -0.4803 H   0  0  0  0  0  0  0  0  0  0  0  0
   -4.1830   -2.7575   -1.4331 H   0  0  0  0  0  0  0  0  0  0  0  0
   -7.0369   -0.2769    0.5672 H   0  0  0  0  0  0  0  0  0  0  0  0
   -5.2287    1.0920    1.4637 H   0  0  0  0  0  0  0  0  0  0  0  0
    2.4794   -1.6808    0.2144 H   0  0  0  0  0  0  0  0  0  0  0  0
    3.9626   -3.3995   -0.6658 H   0  0  0  0  0  0  0  0  0  0  0  0
    7.0518   -0.4754   -1.1535 H   0  0  0  0  0  0  0  0  0  0  0  0
  1  2  1  0
  2  3  1  0
  3  4  1  0
  4  5  1  0
  5  6  1  0
  6  7  1  0
  7  8  1  0
  8  9  2  0
  8 10  1  0
 10 11  2  0
 11 12  1  0
 12 13  2  0
 13 14  1  0
 13 15  1  0
 15 16  2  0
  4 17  1  0
 17 18  2  0
 17 19  2  0
 17 20  1  0
 20 21  2  0
 21 22  1  0
 22 23  2  0
 23 24  1  0
 23 25  1  0
 25 26  2  0
 26 27  1  0
  7  2  1  0
 16 10  1  0
 26 20  1  0
  1 28  1  0
  1 29  1  0
  1 30  1  0
  2 31  1  6
  3 32  1  0
  3 33  1  0
  5 34  1  0
  5 35  1  0
  6 36  1  0
  6 37  1  0
 11 38  1  0
 12 39  1  0
 15 40  1  0
 16 41  1  0
 21 42  1  0
 22 43  1  0
 25 44  1  0
M  END
$$$$
[H]c1nc(N([H])c2c([H])c([H])c(F)c(C(F)(F)F)c2[H])c2c([H])c(OC([H])([H])[H])c(OC([H])([H])[H])c([H])c2n1
     RDKit          3D

 39 41  0  0  0  0  0  0  0  0999 V2000
   -6.1886   -0.5958    0.6371 C   0  0  0  0  0  0  0  0  0  0  0  0
   -5.2676    0.1414   -0.1297 O   0  0  0  0  0  0  0  0  0  0  0  0
   -3.9168   -0.0925    0.0614 C   0  0  0  0  0  0  0  0  0  0  0  0
   -3.4707   -1.0314    0.9864 C   0  0  0  0  0  0  0  0  0  0  0  0
   -2.1220   -1.2624    1.1748 C   0  0  0  0  0  0  0  0  0  0  0  0
   -1.7158   -2.1908    2.0882 N   0  0  0  0  0  0  0  0  0  0  0  0
   -0.4142   -2.4336    2.2875 C   0  0  0  0  0  0  0  0  0  0  0  0
    0.4674   -1.7419    1.5679 N   0  0  0  0  0  0  0  0  0  0  0  0
    0.1383   -0.8043    0.6428 C   0  0  0  0  0  0  0  0  0  0  0  0
    1.1054   -0.0839   -0.0687 N   0  0  0  0  0  0  0  0  0  0  0  0
    2.5216   -0.2333   -0.0020 C   0  0  0  0  0  0  0  0  0  0  0  0
    3.1708   -1.3381    0.4317 C   0  0  0  0  0  0  0  0  0  0  0  0
    4.5676   -1.4416    0.5091 C   0  0  0  0  0  0  0  0  0  0  0  0
    5.3456   -0.3758    0.1286 C   0  0  0  0  0  0  0  0  0  0  0  0
    6.6952   -0.4700    0.2013 F   0  0  0  0  0  0  0  0  0  0  0  0
    4.7158    0.7678   -0.3200 C   0  0  0  0  0  0  0  0  0  0  0  0
    3.3420    0.8442   -0.3862 C   0  0  0  0  0  0  0  0  0  0  0  0
    5.5811    1.9065   -0.7261 C   0  0  0  0  0  0  0  0  0  0  0  0
    6.3941    1.4885   -1.7567 F   0  0  0  0  0  0  0  0  0  0  0  0
    4.8285    2.9905   -1.1329 F   0  0  0  0  0  0  0  0  0  0  0  0
    6.3981    2.2777    0.3368 F   0  0  0  0  0  0  0  0  0  0  0  0
   -1.2072   -0.5469    0.4301 C   0  0  0  0  0  0  0  0  0  0  0  0
   -1.6594    0.3979   -0.5009 C   0  0  0  0  0  0  0  0  0  0  0  0
   -3.0207    0.6277   -0.6876 C   0  0  0  0  0  0  0  0  0  0  0  0
   -3.4723    1.5578   -1.6037 O   0  0  0  0  0  0  0  0  0  0  0  0
   -2.6070    2.3335   -2.4079 C   0  0  0  0  0  0  0  0  0  0  0  0
   -7.2346   -0.4531    0.2922 H   0  0  0  0  0  0  0  0  0  0  0  0
   -5.9579   -1.6619    0.6025 H   0  0  0  0  0  0  0  0  0  0  0  0
   -6.0955   -0.2243    1.6956 H   0  0  0  0  0  0  0  0  0  0  0  0
   -4.1687   -1.6039    1.5813 H   0  0  0  0  0  0  0  0  0  0  0  0
   -0.0542   -3.1571    2.9978 H   0  0  0  0  0  0  0  0  0  0  0  0
    0.7824    0.6723   -0.7502 H   0  0  0  0  0  0  0  0  0  0  0  0
    2.6639   -2.2250    0.7339 H   0  0  0  0  0  0  0  0  0  0  0  0
    5.0497   -2.3427    0.8622 H   0  0  0  0  0  0  0  0  0  0  0  0
    2.8408    1.7285   -0.7325 H   0  0  0  0  0  0  0  0  0  0  0  0
   -0.9627    0.9647   -1.0929 H   0  0  0  0  0  0  0  0  0  0  0  0
   -1.7507    1.7211   -2.8124 H   0  0  0  0  0  0  0  0  0  0  0  0
   -2.1741    3.1695   -1.8189 H   0  0  0  0  0  0  0  0  0  0  0  0
   -3.1476    2.7208   -3.3200 H   0  0  0  0  0  0  0  0  0  0  0  0
  1  2  1  0
  2  3  1  0
  3  4  2  0
  4  5  1  0
  5  6  2  0
  6  7  1  0
  7  8  2  0
  8  9  1  0
  9 10  1  0
 10 11  1  0
 11 12  2  0
 12 13  1  0
 13 14  2  0
 14 15  1  0
 14 16  1  0
 16 17  2  0
 16 18  1  0
 18 19  1  0
 18 20  1  0
 18 21  1  0
  9 22  2  0
 22 23  1  0
 23 24  2  0
 24 25  1  0
 25 26  1  0
 24  3  1  0
 22  5  1  0
 17 11  1  0
  1 27  1  0
  1 28  1  0
  1 29  1  0
  4 30  1  0
  7 31  1  0
 10 32  1  0
 12 33  1  0
 13 34  1  0
 17 35  1  0
 23 36  1  0
 26 37  1  0
 26 38  1  0
 26 39  1  0
M  END
$$$$
[H]c1c([H])c(C(=O)N2C([H])([H])C([H])([H])N(S(=O)(=O)c3c([H])c([H])c(Cl)c([H])c3[H])C([H])([H])[C@@]2([H])C([H])([H])[H])c([H])c(C(F)(F)F)c1[H]
     RDKit          3D

 47 49  0  0  0  0  0  0  0  0999 V2000
   -0.3142    1.6212   -1.2808 C   0  0  0  0  0  0  0  0  0  0  0  0
   -0.0802    0.1054   -1.3769 C   0  0  2  0  0  0  0  0  0  0  0  0
   -1.3909   -0.5451   -1.3230 C   0  0  0  0  0  0  0  0  0  0  0  0
   -1.7091   -1.3614   -0.2364 N   0  0  0  0  0  0  0  0  0  0  0  0
   -0.6864   -2.0702    0.3822 C   0  0  0  0  0  0  0  0  0  0  0  0
    0.5994   -1.3251    0.5477 C   0  0  0  0  0  0  0  0  0  0  0  0
    0.9252   -0.3177   -0.3893 N   0  0  0  0  0  0  0  0  0  0  0  0
    2.1854    0.3276   -0.4965 C   0  0  0  0  0  0  0  0  0  0  0  0
    2.2344    1.1595   -1.5023 O   0  0  0  0  0  0  0  0  0  0  0  0
    3.3798    0.2468    0.2579 C   0  0  0  0  0  0  0  0  0  0  0  0
    3.5692   -0.4945    1.3894 C   0  0  0  0  0  0  0  0  0  0  0  0
    4.8000   -0.5199    2.0868 C   0  0  0  0  0  0  0  0  0  0  0  0
    5.8594    0.2192    1.6293 C   0  0  0  0  0  0  0  0  0  0  0  0
    5.7029    0.9727    0.4991 C   0  0  0  0  0  0  0  0  0  0  0  0
    4.5160    0.9784   -0.1455 C   0  0  0  0  0  0  0  0  0  0  0  0
    6.8365    1.8116   -0.0321 C   0  0  0  0  0  0  0  0  0  0  0  0
    6.7094    1.9636   -1.3998 F   0  0  0  0  0  0  0  0  0  0  0  0
    6.8127    3.0673    0.5681 F   0  0  0  0  0  0  0  0  0  0  0  0
    8.0270    1.2074    0.2363 F   0  0  0  0  0  0  0  0  0  0  0  0
   -3.2578   -1.9393   -0.1418 S   0  0  0  0  0  0  0  0  0  0  0  0
   -3.3945   -2.8623    1.0666 O   0  0  0  0  0  0  0  0  0  0  0  0
   -3.6661   -2.8153   -1.3174 O   0  0  0  0  0  0  0  0  0  0  0  0
   -4.5054   -0.7189    0.0125 C   0  0  0  0  0  0  0  0  0  0  0  0
   -5.0184   -0.0895   -1.0839 C   0  0  0  0  0  0  0  0  0  0  0  0
   -6.0118    0.8533   -0.9210 C   0  0  0  0  0  0  0  0  0  0  0  0
   -6.4752    1.1496    0.3417 C   0  0  0  0  0  0  0  0  0  0  0  0
   -7.7530    2.3541    0.5636 Cl  0  0  0  0  0  0  0  0  0  0  0  0
   -5.9783    0.5320    1.4717 C   0  0  0  0  0  0  0  0  0  0  0  0
   -4.9881   -0.4021    1.2648 C   0  0  0  0  0  0  0  0  0  0  0  0
    0.1995    2.1835   -2.0860 H   0  0  0  0  0  0  0  0  0  0  0  0
   -0.0515    1.9217   -0.2605 H   0  0  0  0  0  0  0  0  0  0  0  0
   -1.4050    1.7773   -1.4949 H   0  0  0  0  0  0  0  0  0  0  0  0
    0.4517   -0.0686   -2.3653 H   0  0  0  0  0  0  0  0  0  0  0  0
   -2.2337    0.2074   -1.5086 H   0  0  0  0  0  0  0  0  0  0  0  0
   -1.4554   -1.2082   -2.2577 H   0  0  0  0  0  0  0  0  0  0  0  0
   -0.4828   -3.0144   -0.2027 H   0  0  0  0  0  0  0  0  0  0  0  0
   -0.9645   -2.4566    1.4119 H   0  0  0  0  0  0  0  0  0  0  0  0
    0.6482   -0.8750    1.5628 H   0  0  0  0  0  0  0  0  0  0  0  0
    1.4138   -2.1070    0.4959 H   0  0  0  0  0  0  0  0  0  0  0  0
    2.8296   -1.0965    1.8468 H   0  0  0  0  0  0  0  0  0  0  0  0
    4.9128   -1.1263    2.9856 H   0  0  0  0  0  0  0  0  0  0  0  0
    6.8253    0.2438    2.1116 H   0  0  0  0  0  0  0  0  0  0  0  0
    4.4226    1.5746   -1.0219 H   0  0  0  0  0  0  0  0  0  0  0  0
   -4.6613   -0.3125   -2.1093 H   0  0  0  0  0  0  0  0  0  0  0  0
   -6.4249    1.3676   -1.8020 H   0  0  0  0  0  0  0  0  0  0  0  0
   -6.3605    0.7834    2.4495 H   0  0  0  0  0  0  0  0  0  0  0  0
   -4.5915   -0.9025    2.1650 H   0  0  0  0  0  0  0  0  0  0  0  0
  1  2  1  0
  2  3  1  0
  3  4  1  0
  4  5  1  0
  5  6  1  0
  6  7  1  0
  7  8  1  0
  8  9  2  0
  8 10  1  0
 10 11  2  0
 11 12  1  0
 12 13  2  0
 13 14  1  0
 14 15  2  0
 14 16  1  0
 16 17  1  0
 16 18  1  0
 16 19  1  0
  4 20  1  0
 20 21  2  0
 20 22  2  0
 20 23  1  0
 23 24  2  0
 24 25  1  0
 25 26  2  0
 26 27  1  0
 26 28  1  0
 28 29  2  0
  7  2  1  0
 15 10  1  0
 29 23  1  0
  1 30  1  0
  1 31  1  0
  1 32  1  0
  2 33  1  6
  3 34  1  0
  3 35  1  0
  5 36  1  0
  5 37  1  0
  6 38  1  0
  6 39  1  0
 11 40  1  0
 12 41  1  0
 13 42  1  0
 15 43  1  0
 24 44  1  0
 25 45  1  0
 28 46  1  0
 29 47  1  0
M  END
$$$$
[H]N=C(N([H])[H])N([H])C([H])([H])C([H])([H])C([H])([H])[C@@]([H])(C(=O)N([H])[C@]([H])(C(=O)N([H])C([H])([H])c1c([H])c([H])c([H])c([H])c1[H])C([H])([H])c1c([H])n([H])c2c([H])c([H])c([H])c([H])c12)N([H])C(=O)[C@@]([H])(N([H])C(=O)[C@@]([H])(N([H])[H])C([H])([H])c1c([H])c([H])c([H])c([H])c1[H])C([H])(C([H])([H])[H])C([H])([H])[H]
     RDKit          3D

100103  0  0  0  0  0  0  0  0999 V2000
    1.4999   -1.2766   -2.7106 C   0  0  0  0  0  0  0  0  0  0  0  0
    1.9585    0.1431   -2.7686 C   0  0  0  0  0  0  0  0  0  0  0  0
    2.7582    0.4443   -4.0120 C   0  0  0  0  0  0  0  0  0  0  0  0
    2.6346    0.5983   -1.5161 C   0  0  2  0  0  0  0  0  0  0  0  0
    3.8297   -0.1933   -1.1955 N   0  0  0  0  0  0  0  0  0  0  0  0
    5.1130    0.3989   -1.1531 C   0  0  0  0  0  0  0  0  0  0  0  0
    5.2114    1.6242   -1.4041 O   0  0  0  0  0  0  0  0  0  0  0  0
    6.3203   -0.3730   -0.8256 C   0  0  1  0  0  0  0  0  0  0  0  0
    7.5110    0.4508   -0.9286 N   0  0  0  0  0  0  0  0  0  0  0  0
    6.2259   -1.0143    0.5480 C   0  0  0  0  0  0  0  0  0  0  0  0
    7.4744   -1.7562    0.7968 C   0  0  0  0  0  0  0  0  0  0  0  0
    8.5239   -1.0932    1.3994 C   0  0  0  0  0  0  0  0  0  0  0  0
    9.7139   -1.7514    1.6513 C   0  0  0  0  0  0  0  0  0  0  0  0
    9.8794   -3.0757    1.3090 C   0  0  0  0  0  0  0  0  0  0  0  0
    8.8231   -3.7227    0.7085 C   0  0  0  0  0  0  0  0  0  0  0  0
    7.6237   -3.0745    0.4502 C   0  0  0  0  0  0  0  0  0  0  0  0
    1.6818    0.5058   -0.3930 C   0  0  0  0  0  0  0  0  0  0  0  0
    1.9526   -0.2178    0.5891 O   0  0  0  0  0  0  0  0  0  0  0  0
    0.4431    1.2174   -0.3724 N   0  0  0  0  0  0  0  0  0  0  0  0
   -0.4779    1.1208    0.7299 C   0  0  1  0  0  0  0  0  0  0  0  0
   -1.0424    2.4319    1.1370 C   0  0  0  0  0  0  0  0  0  0  0  0
   -0.1906    3.5279    1.6028 C   0  0  0  0  0  0  0  0  0  0  0  0
    0.7963    4.1062    0.6430 C   0  0  0  0  0  0  0  0  0  0  0  0
    1.4991    5.2081    1.3066 N   0  0  0  0  0  0  0  0  0  0  0  0
    0.7995    6.3804    1.6199 C   0  0  0  0  0  0  0  0  0  0  0  0
    0.2215    7.1559    0.5787 N   0  0  0  0  0  0  0  0  0  0  0  0
    0.6542    6.7959    2.8320 N   0  0  0  0  0  0  0  0  0  0  0  0
   -1.6793    0.2822    0.2976 C   0  0  0  0  0  0  0  0  0  0  0  0
   -1.6941   -0.1214   -0.8668 O   0  0  0  0  0  0  0  0  0  0  0  0
   -2.7059    0.0017    1.2046 N   0  0  0  0  0  0  0  0  0  0  0  0
   -3.9062   -0.7286    0.9923 C   0  0  1  0  0  0  0  0  0  0  0  0
   -4.6178   -0.3966   -0.3156 C   0  0  0  0  0  0  0  0  0  0  0  0
   -5.0238    1.0328   -0.3708 C   0  0  0  0  0  0  0  0  0  0  0  0
   -4.4835    2.1084   -1.0333 C   0  0  0  0  0  0  0  0  0  0  0  0
   -5.1971    3.2169   -0.7808 N   0  0  0  0  0  0  0  0  0  0  0  0
   -6.2348    2.9266    0.0549 C   0  0  0  0  0  0  0  0  0  0  0  0
   -7.2408    3.6981    0.6039 C   0  0  0  0  0  0  0  0  0  0  0  0
   -8.1864    3.1380    1.4356 C   0  0  0  0  0  0  0  0  0  0  0  0
   -8.0797    1.7880    1.6883 C   0  0  0  0  0  0  0  0  0  0  0  0
   -7.0783    1.0185    1.1422 C   0  0  0  0  0  0  0  0  0  0  0  0
   -6.1254    1.5783    0.3059 C   0  0  0  0  0  0  0  0  0  0  0  0
   -3.8076   -2.1702    1.2512 C   0  0  0  0  0  0  0  0  0  0  0  0
   -2.6954   -2.6461    1.6043 O   0  0  0  0  0  0  0  0  0  0  0  0
   -4.8966   -3.0707    1.1274 N   0  0  0  0  0  0  0  0  0  0  0  0
   -4.8535   -4.4756    1.3623 C   0  0  0  0  0  0  0  0  0  0  0  0
   -4.2519   -5.2817    0.3114 C   0  0  0  0  0  0  0  0  0  0  0  0
   -3.6898   -4.6905   -0.7930 C   0  0  0  0  0  0  0  0  0  0  0  0
   -3.1160   -5.4673   -1.8072 C   0  0  0  0  0  0  0  0  0  0  0  0
   -3.1091   -6.8410   -1.7084 C   0  0  0  0  0  0  0  0  0  0  0  0
   -3.6683   -7.4375   -0.6094 C   0  0  0  0  0  0  0  0  0  0  0  0
   -4.2393   -6.6523    0.4000 C   0  0  0  0  0  0  0  0  0  0  0  0
    2.3206   -2.0087   -2.6110 H   0  0  0  0  0  0  0  0  0  0  0  0
    0.8017   -1.3948   -1.8589 H   0  0  0  0  0  0  0  0  0  0  0  0
    0.8871   -1.4778   -3.6289 H   0  0  0  0  0  0  0  0  0  0  0  0
    1.0256    0.7702   -2.8568 H   0  0  0  0  0  0  0  0  0  0  0  0
    2.7596    1.5475   -4.1874 H   0  0  0  0  0  0  0  0  0  0  0  0
    2.2769   -0.1111   -4.8464 H   0  0  0  0  0  0  0  0  0  0  0  0
    3.8057    0.1244   -3.9641 H   0  0  0  0  0  0  0  0  0  0  0  0
    2.9900    1.6544   -1.6558 H   0  0  0  0  0  0  0  0  0  0  0  0
    3.7527   -1.2114   -0.9927 H   0  0  0  0  0  0  0  0  0  0  0  0
    6.4205   -1.1945   -1.5609 H   0  0  0  0  0  0  0  0  0  0  0  0
    7.9304    0.3171   -1.8929 H   0  0  0  0  0  0  0  0  0  0  0  0
    7.3425    1.4491   -0.7163 H   0  0  0  0  0  0  0  0  0  0  0  0
    5.3401   -1.6785    0.5894 H   0  0  0  0  0  0  0  0  0  0  0  0
    6.0507   -0.2002    1.2734 H   0  0  0  0  0  0  0  0  0  0  0  0
    8.4450   -0.0421    1.6913 H   0  0  0  0  0  0  0  0  0  0  0  0
   10.5070   -1.1902    2.1259 H   0  0  0  0  0  0  0  0  0  0  0  0
   10.8382   -3.5754    1.5219 H   0  0  0  0  0  0  0  0  0  0  0  0
    8.9588   -4.7585    0.4434 H   0  0  0  0  0  0  0  0  0  0  0  0
    6.8358   -3.6380   -0.0221 H   0  0  0  0  0  0  0  0  0  0  0  0
    0.1764    1.8344   -1.1746 H   0  0  0  0  0  0  0  0  0  0  0  0
   -0.0176    0.6087    1.6127 H   0  0  0  0  0  0  0  0  0  0  0  0
   -1.6878    2.8441    0.2952 H   0  0  0  0  0  0  0  0  0  0  0  0
   -1.8512    2.2726    1.9442 H   0  0  0  0  0  0  0  0  0  0  0  0
    0.3765    3.2494    2.5571 H   0  0  0  0  0  0  0  0  0  0  0  0
   -0.8325    4.4108    1.9428 H   0  0  0  0  0  0  0  0  0  0  0  0
    0.2346    4.5378   -0.2336 H   0  0  0  0  0  0  0  0  0  0  0  0
    1.5271    3.4051    0.2429 H   0  0  0  0  0  0  0  0  0  0  0  0
    2.4923    5.1036    1.5305 H   0  0  0  0  0  0  0  0  0  0  0  0
    0.8535    7.6819   -0.0590 H   0  0  0  0  0  0  0  0  0  0  0  0
   -0.7969    7.2090    0.4408 H   0  0  0  0  0  0  0  0  0  0  0  0
    0.1342    7.6681    3.0665 H   0  0  0  0  0  0  0  0  0  0  0  0
   -2.5578    0.3864    2.1936 H   0  0  0  0  0  0  0  0  0  0  0  0
   -4.6544   -0.3146    1.7596 H   0  0  0  0  0  0  0  0  0  0  0  0
   -4.0296   -0.6158   -1.2142 H   0  0  0  0  0  0  0  0  0  0  0  0
   -5.5165   -1.0604   -0.3802 H   0  0  0  0  0  0  0  0  0  0  0  0
   -3.5943    2.0304   -1.6698 H   0  0  0  0  0  0  0  0  0  0  0  0
   -5.0295    4.1753   -1.1404 H   0  0  0  0  0  0  0  0  0  0  0  0
   -7.3174    4.7535    0.4011 H   0  0  0  0  0  0  0  0  0  0  0  0
   -8.9903    3.7338    1.8801 H   0  0  0  0  0  0  0  0  0  0  0  0
   -8.8082    1.2993    2.3421 H   0  0  0  0  0  0  0  0  0  0  0  0
   -6.9832   -0.0457    1.3314 H   0  0  0  0  0  0  0  0  0  0  0  0
   -5.8253   -2.6467    0.8315 H   0  0  0  0  0  0  0  0  0  0  0  0
   -5.8820   -4.8170    1.6450 H   0  0  0  0  0  0  0  0  0  0  0  0
   -4.2670   -4.6087    2.3242 H   0  0  0  0  0  0  0  0  0  0  0  0
   -3.6453   -3.6266   -0.9643 H   0  0  0  0  0  0  0  0  0  0  0  0
   -2.6661   -5.0305   -2.6878 H   0  0  0  0  0  0  0  0  0  0  0  0
   -2.6705   -7.4808   -2.4800 H   0  0  0  0  0  0  0  0  0  0  0  0
   -3.6579   -8.5184   -0.5406 H   0  0  0  0  0  0  0  0  0  0  0  0
   -4.6603   -7.1918    1.2326 H   0  0  0  0  0  0  0  0  0  0  0  0
  1  2  1  0
  2  3  1  0
  2  4  1  0
  4  5  1  0
  5  6  1  0
  6  7  2  0
  6  8  1  0
  8  9  1  0
  8 10  1  0
 10 11  1  0
 11 12  2  0
 12 13  1  0
 13 14  2  0
 14 15  1  0
 15 16  2  0
  4 17  1  0
 17 18  2  0
 17 19  1  0
 19 20  1  0
 20 21  1  0
 21 22  1  0
 22 23  1  0
 23 24  1  0
 24 25  1  0
 25 26  1  0
 25 27  2  3
 20 28  1  0
 28 29  2  0
 28 30  1  0
 30 31  1  0
 31 32  1  0
 32 33  1  0
 33 34  2  0
 34 35  1  0
 35 36  1  0
 36 37  2  0
 37 38  1  0
 38 39  2  0
 39 40  1  0
 40 41  2  0
 31 42  1  0
 42 43  2  0
 42 44  1  0
 44 45  1  0
 45 46  1  0
 46 47  2  0
 47 48  1  0
 48 49  2  0
 49 50  1  0
 50 51  2  0
 16 11  1  0
 41 33  1  0
 51 46  1  0
 41 36  1  0
  1 52  1  0
  1 53  1  0
  1 54  1  0
  2 55  1  0
  3 56  1  0
  3 57  1  0
  3 58  1  0
  4 59  1  6
  5 60  1  0
  8 61  1  6
  9 62  1  0
  9 63  1  0
 10 64  1  0
 10 65  1  0
 12 66  1  0
 13 67  1  0
 14 68  1  0
 15 69  1  0
 16 70  1  0
 19 71  1  0
 20 72  1  1
 21 73  1  0
 21 74  1  0
 22 75  1  0
 22 76  1  0
 23 77  1  0
 23 78  1  0
 24 79  1  0
 26 80  1  0
 26 81  1  0
 27 82  1  0
 30 83  1  0
 31 84  1  1
 32 85  1  0
 32 86  1  0
 34 87  1  0
 35 88  1  0
 37 89  1  0
 38 90  1  0
 39 91  1  0
 40 92  1  0
 44 93  1  0
 45 94  1  0
 45 95  1  0
 47 96  1  0
 48 97  1  0
 49 98  1  0
 50 99  1  0
 51100  1  0
M  END
$$$$
[H]OC(=O)[C@@]([H])(N([H])C(=O)[C@@]([H])(N([H])C(=O)[C@@]([H])(N([H])C(=O)[C@@]([H])(N([H])[H])C([H])([H])c1c([H])c([H])c([H])c([H])c1[H])C([H])(C([H])([H])[H])C([H])([H])[H])C([H])([H])C([H])([H])C([H])([H])C([H])([H])N([H])[H])C([H])([H])c1c([H])n([H])c2c([H])c([H])c([H])c([H])c12
     RDKit          3D

 84 86  0  0  0  0  0  0  0  0999 V2000
   -3.0031    1.4479   -2.8423 C   0  0  0  0  0  0  0  0  0  0  0  0
   -1.9738    0.9080   -1.8758 C   0  0  0  0  0  0  0  0  0  0  0  0
   -0.6789    0.6549   -2.5600 C   0  0  0  0  0  0  0  0  0  0  0  0
   -2.5480   -0.2233   -1.0903 C   0  0  2  0  0  0  0  0  0  0  0  0
   -3.7256    0.2420   -0.3304 N   0  0  0  0  0  0  0  0  0  0  0  0
   -4.9584   -0.4420   -0.4990 C   0  0  0  0  0  0  0  0  0  0  0  0
   -4.9846   -1.4014   -1.3109 O   0  0  0  0  0  0  0  0  0  0  0  0
   -6.1242   -0.0032    0.2766 C   0  0  1  0  0  0  0  0  0  0  0  0
   -5.7132    1.0533    1.1872 N   0  0  0  0  0  0  0  0  0  0  0  0
   -7.3575    0.3236   -0.4686 C   0  0  0  0  0  0  0  0  0  0  0  0
   -7.2590    1.4253   -1.4490 C   0  0  0  0  0  0  0  0  0  0  0  0
   -6.9592    1.2390   -2.7792 C   0  0  0  0  0  0  0  0  0  0  0  0
   -6.8708    2.2736   -3.6770 C   0  0  0  0  0  0  0  0  0  0  0  0
   -7.0871    3.5698   -3.2569 C   0  0  0  0  0  0  0  0  0  0  0  0
   -7.3891    3.7527   -1.9128 C   0  0  0  0  0  0  0  0  0  0  0  0
   -7.4785    2.7265   -1.0165 C   0  0  0  0  0  0  0  0  0  0  0  0
   -1.6213   -0.7124   -0.0291 C   0  0  0  0  0  0  0  0  0  0  0  0
   -1.8071   -0.5257    1.1804 O   0  0  0  0  0  0  0  0  0  0  0  0
   -0.4684   -1.4299   -0.4381 N   0  0  0  0  0  0  0  0  0  0  0  0
    0.4443   -1.8868    0.6369 C   0  0  1  0  0  0  0  0  0  0  0  0
    0.3558   -3.4078    0.6977 C   0  0  0  0  0  0  0  0  0  0  0  0
    1.2923   -3.8315    1.8188 C   0  0  0  0  0  0  0  0  0  0  0  0
    1.2566   -5.3632    1.9093 C   0  0  0  0  0  0  0  0  0  0  0  0
    2.1902   -5.7829    3.0476 C   0  0  0  0  0  0  0  0  0  0  0  0
    3.5037   -5.2838    2.6871 N   0  0  0  0  0  0  0  0  0  0  0  0
    1.7786   -1.4413    0.2133 C   0  0  0  0  0  0  0  0  0  0  0  0
    2.1728   -1.4894   -0.9878 O   0  0  0  0  0  0  0  0  0  0  0  0
    2.6815   -0.9273    1.1753 N   0  0  0  0  0  0  0  0  0  0  0  0
    4.0395   -0.4840    0.7280 C   0  0  1  0  0  0  0  0  0  0  0  0
    3.8662    0.9648    0.4646 C   0  0  0  0  0  0  0  0  0  0  0  0
    5.0042    1.7383    0.0105 C   0  0  0  0  0  0  0  0  0  0  0  0
    5.4125    1.9696   -1.3191 C   0  0  0  0  0  0  0  0  0  0  0  0
    6.5336    2.7077   -1.2961 N   0  0  0  0  0  0  0  0  0  0  0  0
    6.8994    2.9845   -0.0452 C   0  0  0  0  0  0  0  0  0  0  0  0
    7.9360    3.7165    0.4804 C   0  0  0  0  0  0  0  0  0  0  0  0
    8.0351    3.8600    1.8407 C   0  0  0  0  0  0  0  0  0  0  0  0
    7.1242    3.2903    2.7246 C   0  0  0  0  0  0  0  0  0  0  0  0
    6.1121    2.5698    2.1318 C   0  0  0  0  0  0  0  0  0  0  0  0
    5.9433    2.3791    0.7787 C   0  0  0  0  0  0  0  0  0  0  0  0
    5.0015   -0.9442    1.6839 C   0  0  0  0  0  0  0  0  0  0  0  0
    6.3843   -0.8616    1.5688 O   0  0  0  0  0  0  0  0  0  0  0  0
    4.6076   -1.4997    2.7706 O   0  0  0  0  0  0  0  0  0  0  0  0
   -2.5883    1.2950   -3.8847 H   0  0  0  0  0  0  0  0  0  0  0  0
   -3.2328    2.5129   -2.6568 H   0  0  0  0  0  0  0  0  0  0  0  0
   -3.8992    0.7977   -2.8157 H   0  0  0  0  0  0  0  0  0  0  0  0
   -1.7821    1.7358   -1.1266 H   0  0  0  0  0  0  0  0  0  0  0  0
    0.2018    0.6475   -1.9082 H   0  0  0  0  0  0  0  0  0  0  0  0
   -0.7241   -0.2333   -3.2566 H   0  0  0  0  0  0  0  0  0  0  0  0
   -0.5115    1.5078   -3.2903 H   0  0  0  0  0  0  0  0  0  0  0  0
   -2.8264   -1.0665   -1.7188 H   0  0  0  0  0  0  0  0  0  0  0  0
   -3.6812    1.0477    0.3187 H   0  0  0  0  0  0  0  0  0  0  0  0
   -6.3851   -0.8726    0.9538 H   0  0  0  0  0  0  0  0  0  0  0  0
   -6.3349    1.1234    2.0145 H   0  0  0  0  0  0  0  0  0  0  0  0
   -5.4898    1.9461    0.7121 H   0  0  0  0  0  0  0  0  0  0  0  0
   -7.6512   -0.5872   -1.0567 H   0  0  0  0  0  0  0  0  0  0  0  0
   -8.1636    0.5056    0.2751 H   0  0  0  0  0  0  0  0  0  0  0  0
   -6.7862    0.2165   -3.1209 H   0  0  0  0  0  0  0  0  0  0  0  0
   -6.6361    2.1120   -4.7117 H   0  0  0  0  0  0  0  0  0  0  0  0
   -7.0241    4.4105   -3.9527 H   0  0  0  0  0  0  0  0  0  0  0  0
   -7.5619    4.7922   -1.5777 H   0  0  0  0  0  0  0  0  0  0  0  0
   -7.7173    2.8747    0.0464 H   0  0  0  0  0  0  0  0  0  0  0  0
   -0.2357   -1.6535   -1.4214 H   0  0  0  0  0  0  0  0  0  0  0  0
    0.1657   -1.4671    1.5855 H   0  0  0  0  0  0  0  0  0  0  0  0
   -0.6694   -3.6694    0.9530 H   0  0  0  0  0  0  0  0  0  0  0  0
    0.6215   -3.8729   -0.2583 H   0  0  0  0  0  0  0  0  0  0  0  0
    0.8903   -3.4287    2.7701 H   0  0  0  0  0  0  0  0  0  0  0  0
    2.3097   -3.4417    1.6948 H   0  0  0  0  0  0  0  0  0  0  0  0
    0.2226   -5.6643    2.1372 H   0  0  0  0  0  0  0  0  0  0  0  0
    1.5622   -5.8337    0.9568 H   0  0  0  0  0  0  0  0  0  0  0  0
    1.8812   -5.2315    3.9567 H   0  0  0  0  0  0  0  0  0  0  0  0
    2.1712   -6.8658    3.1261 H   0  0  0  0  0  0  0  0  0  0  0  0
    3.6526   -5.2998    1.6454 H   0  0  0  0  0  0  0  0  0  0  0  0
    3.6110   -4.3054    3.0387 H   0  0  0  0  0  0  0  0  0  0  0  0
    2.4857   -0.8235    2.1881 H   0  0  0  0  0  0  0  0  0  0  0  0
    4.1662   -1.0261   -0.2677 H   0  0  0  0  0  0  0  0  0  0  0  0
    3.4315    1.4126    1.4173 H   0  0  0  0  0  0  0  0  0  0  0  0
    2.9770    1.0521   -0.2408 H   0  0  0  0  0  0  0  0  0  0  0  0
    4.8511    1.5777   -2.1518 H   0  0  0  0  0  0  0  0  0  0  0  0
    7.0397    3.0159   -2.1543 H   0  0  0  0  0  0  0  0  0  0  0  0
    8.6821    4.1835   -0.1395 H   0  0  0  0  0  0  0  0  0  0  0  0
    8.8417    4.4355    2.3049 H   0  0  0  0  0  0  0  0  0  0  0  0
    7.1608    3.3752    3.7812 H   0  0  0  0  0  0  0  0  0  0  0  0
    5.3600    2.0987    2.7666 H   0  0  0  0  0  0  0  0  0  0  0  0
    7.0476   -1.1896    2.2396 H   0  0  0  0  0  0  0  0  0  0  0  0
  1  2  1  0
  2  3  1  0
  2  4  1  0
  4  5  1  0
  5  6  1  0
  6  7  2  0
  6  8  1  0
  8  9  1  0
  8 10  1  0
 10 11  1  0
 11 12  2  0
 12 13  1  0
 13 14  2  0
 14 15  1  0
 15 16  2  0
  4 17  1  0
 17 18  2  0
 17 19  1  0
 19 20  1  0
 20 21  1  0
 21 22  1  0
 22 23  1  0
 23 24  1  0
 24 25  1  0
 20 26  1  0
 26 27  2  0
 26 28  1  0
 28 29  1  0
 29 30  1  0
 30 31  1  0
 31 32  2  0
 32 33  1  0
 33 34  1  0
 34 35  2  0
 35 36  1  0
 36 37  2  0
 37 38  1  0
 38 39  2  0
 29 40  1  0
 40 41  1  0
 40 42  2  0
 16 11  1  0
 39 31  1  0
 39 34  1  0
  1 43  1  0
  1 44  1  0
  1 45  1  0
  2 46  1  0
  3 47  1  0
  3 48  1  0
  3 49  1  0
  4 50  1  6
  5 51  1  0
  8 52  1  1
  9 53  1  0
  9 54  1  0
 10 55  1  0
 10 56  1  0
 12 57  1  0
 13 58  1  0
 14 59  1  0
 15 60  1  0
 16 61  1  0
 19 62  1  0
 20 63  1  1
 21 64  1  0
 21 65  1  0
 22 66  1  0
 22 67  1  0
 23 68  1  0
 23 69  1  0
 24 70  1  0
 24 71  1  0
 25 72  1  0
 25 73  1  0
 28 74  1  0
 29 75  1  6
 30 76  1  0
 30 77  1  0
 32 78  1  0
 33 79  1  0
 35 80  1  0
 36 81  1  0
 37 82  1  0
 38 83  1  0
 41 84  1  0
M  END
$$$$
[H]c1nc(C([H])([H])[H])c([H])c([H])c1C(=O)N1C([H])([H])[C@]([H])(c2c([H])c([H])c([H])c(F)c2[H])[C@]([H])(C([H])([H])[H])C1([H])[H]
     RDKit          3D

 41 43  0  0  0  0  0  0  0  0999 V2000
   -1.7131   -1.0042   -2.1009 C   0  0  0  0  0  0  0  0  0  0  0  0
   -1.2587    0.3047   -1.5036 C   0  0  2  0  0  0  0  0  0  0  0  0
    0.2308    0.1599   -1.2433 C   0  0  0  0  0  0  0  0  0  0  0  0
    0.3488   -0.2485    0.1307 N   0  0  0  0  0  0  0  0  0  0  0  0
   -1.0343   -0.4469    0.6640 C   0  0  0  0  0  0  0  0  0  0  0  0
   -1.7735    0.5752   -0.1304 C   0  0  2  0  0  0  0  0  0  0  0  0
   -3.2255    0.5507    0.0263 C   0  0  0  0  0  0  0  0  0  0  0  0
   -3.8802    1.7462    0.2339 C   0  0  0  0  0  0  0  0  0  0  0  0
   -5.2620    1.8004    0.3992 C   0  0  0  0  0  0  0  0  0  0  0  0
   -6.0234    0.6529    0.3603 C   0  0  0  0  0  0  0  0  0  0  0  0
   -5.3769   -0.5435    0.1536 C   0  0  0  0  0  0  0  0  0  0  0  0
   -6.1396   -1.6609    0.1181 F   0  0  0  0  0  0  0  0  0  0  0  0
   -4.0075   -0.5818   -0.0084 C   0  0  0  0  0  0  0  0  0  0  0  0
    1.4269   -0.4796    1.0011 C   0  0  0  0  0  0  0  0  0  0  0  0
    1.1400   -0.8502    2.2107 O   0  0  0  0  0  0  0  0  0  0  0  0
    2.8151   -0.3586    0.7261 C   0  0  0  0  0  0  0  0  0  0  0  0
    3.3208    0.0174   -0.4779 C   0  0  0  0  0  0  0  0  0  0  0  0
    4.7144    0.1015   -0.6305 C   0  0  0  0  0  0  0  0  0  0  0  0
    5.5685   -0.1855    0.4011 C   0  0  0  0  0  0  0  0  0  0  0  0
    7.0622   -0.0930    0.2290 C   0  0  0  0  0  0  0  0  0  0  0  0
    5.0692   -0.5555    1.5854 N   0  0  0  0  0  0  0  0  0  0  0  0
    3.7545   -0.6376    1.7388 C   0  0  0  0  0  0  0  0  0  0  0  0
   -1.1455   -1.2095   -3.0588 H   0  0  0  0  0  0  0  0  0  0  0  0
   -1.5292   -1.8605   -1.4383 H   0  0  0  0  0  0  0  0  0  0  0  0
   -2.7896   -1.0054   -2.3636 H   0  0  0  0  0  0  0  0  0  0  0  0
   -1.4646    1.1573   -2.1931 H   0  0  0  0  0  0  0  0  0  0  0  0
    0.6771   -0.5796   -1.9471 H   0  0  0  0  0  0  0  0  0  0  0  0
    0.6313    1.2044   -1.4165 H   0  0  0  0  0  0  0  0  0  0  0  0
   -1.3522   -1.4838    0.5403 H   0  0  0  0  0  0  0  0  0  0  0  0
   -1.1015   -0.1849    1.7190 H   0  0  0  0  0  0  0  0  0  0  0  0
   -1.3715    1.5821    0.1527 H   0  0  0  0  0  0  0  0  0  0  0  0
   -3.3644    2.6964    0.2795 H   0  0  0  0  0  0  0  0  0  0  0  0
   -5.7588    2.7504    0.5615 H   0  0  0  0  0  0  0  0  0  0  0  0
   -7.1072    0.6779    0.4879 H   0  0  0  0  0  0  0  0  0  0  0  0
   -3.5236   -1.5598   -0.1669 H   0  0  0  0  0  0  0  0  0  0  0  0
    2.7378    0.2626   -1.3452 H   0  0  0  0  0  0  0  0  0  0  0  0
    5.1227    0.3998   -1.5851 H   0  0  0  0  0  0  0  0  0  0  0  0
    7.4658    0.1771    1.2260 H   0  0  0  0  0  0  0  0  0  0  0  0
    7.2528    0.7278   -0.4954 H   0  0  0  0  0  0  0  0  0  0  0  0
    7.4538   -1.0720   -0.1282 H   0  0  0  0  0  0  0  0  0  0  0  0
    3.4102   -0.9434    2.7240 H   0  0  0  0  0  0  0  0  0  0  0  0
  1  2  1  0
  2  3  1  0
  3  4  1  0
  4  5  1  0
  5  6  1  0
  6  7  1  0
  7  8  2  0
  8  9  1  0
  9 10  2  0
 10 11  1  0
 11 12  1  0
 11 13  2  0
  4 14  1  0
 14 15  2  0
 14 16  1  0
 16 17  2  0
 17 18  1  0
 18 19  2  0
 19 20  1  0
 19 21  1  0
 21 22  2  0
  6  2  1  0
 13  7  1  0
 22 16  1  0
  1 23  1  0
  1 24  1  0
  1 25  1  0
  2 26  1  6
  3 27  1  0
  3 28  1  0
  5 29  1  0
  5 30  1  0
  6 31  1  1
  8 32  1  0
  9 33  1  0
 10 34  1  0
 13 35  1  0
 17 36  1  0
 18 37  1  0
 20 38  1  0
 20 39  1  0
 20 40  1  0
 22 41  1  0
M  END
$$$$
[H]OC(=O)C([H])([H])[C@@]([H])(C(=O)N([H])[C@]([H])(C(=O)N1C([H])([H])C([H])([H])C([H])([H])[C@@]1([H])C(=O)N([H])[C@@]([H])(C(=O)N([H])[C@@]([H])(C([H])([H])C([H])(C([H])([H])[H])C([H])([H])[H])C(C([H])([H])[H])(C([H])([H])[H])C([H])([H])[H])C([H])([H])c1c([H])c([H])c(O[H])c([H])c1[H])C([H])([H])c1c([H])c([H])c([H])c([H])c1[H])N([H])C(=O)[C@]([H])(N([H])C(=O)OC([H])([H])c1c([H])c([H])c([H])c([H])c1[H])C([H])([H])c1c([H])c([H])c([H])c([H])c1[H]
     RDKit          3D

135139  0  0  0  0  0  0  0  0999 V2000
  -10.5360    1.2438    0.3500 C   0  0  0  0  0  0  0  0  0  0  0  0
   -9.3823    0.9965    1.2986 C   0  0  0  0  0  0  0  0  0  0  0  0
  -10.0078    0.6483    2.6437 C   0  0  0  0  0  0  0  0  0  0  0  0
   -8.4645    2.1609    1.4111 C   0  0  0  0  0  0  0  0  0  0  0  0
   -7.8147    2.5664    0.1158 C   0  0  2  0  0  0  0  0  0  0  0  0
   -6.9992    1.5485   -0.5066 N   0  0  0  0  0  0  0  0  0  0  0  0
   -6.2321    0.5558    0.0765 C   0  0  0  0  0  0  0  0  0  0  0  0
   -6.1921    0.5429    1.3787 O   0  0  0  0  0  0  0  0  0  0  0  0
   -5.4250   -0.5197   -0.5092 C   0  0  1  0  0  0  0  0  0  0  0  0
   -5.5043   -0.9142   -1.9059 C   0  0  0  0  0  0  0  0  0  0  0  0
   -6.7985   -1.4560   -2.3791 C   0  0  0  0  0  0  0  0  0  0  0  0
   -7.0541   -2.7943   -2.0518 C   0  0  0  0  0  0  0  0  0  0  0  0
   -8.2182   -3.3615   -2.4802 C   0  0  0  0  0  0  0  0  0  0  0  0
   -9.1538   -2.6522   -3.2269 C   0  0  0  0  0  0  0  0  0  0  0  0
  -10.3266   -3.2732   -3.6405 O   0  0  0  0  0  0  0  0  0  0  0  0
   -8.8870   -1.3276   -3.5431 C   0  0  0  0  0  0  0  0  0  0  0  0
   -7.6997   -0.7662   -3.1024 C   0  0  0  0  0  0  0  0  0  0  0  0
   -4.1280   -0.5657    0.1469 N   0  0  0  0  0  0  0  0  0  0  0  0
   -3.8226   -1.3968    1.2360 C   0  0  0  0  0  0  0  0  0  0  0  0
   -4.7081   -2.2047    1.6966 O   0  0  0  0  0  0  0  0  0  0  0  0
   -2.5199   -1.4404    1.9551 C   0  0  2  0  0  0  0  0  0  0  0  0
   -2.7210   -1.1267    3.4355 C   0  0  0  0  0  0  0  0  0  0  0  0
   -2.5978    0.3477    3.5532 C   0  0  0  0  0  0  0  0  0  0  0  0
   -2.1915    0.8399    2.1959 C   0  0  0  0  0  0  0  0  0  0  0  0
   -1.6242   -0.3992    1.5543 N   0  0  0  0  0  0  0  0  0  0  0  0
   -0.4709   -0.3707    0.8162 C   0  0  0  0  0  0  0  0  0  0  0  0
    0.0185    0.8769    0.6833 O   0  0  0  0  0  0  0  0  0  0  0  0
    0.3539   -1.3858    0.1516 C   0  0  2  0  0  0  0  0  0  0  0  0
    0.2506   -2.7638    0.6846 C   0  0  0  0  0  0  0  0  0  0  0  0
    1.1463   -3.7537   -0.0177 C   0  0  0  0  0  0  0  0  0  0  0  0
    2.4044   -3.9928    0.4831 C   0  0  0  0  0  0  0  0  0  0  0  0
    3.2252   -4.8910   -0.1489 C   0  0  0  0  0  0  0  0  0  0  0  0
    2.8468   -5.5806   -1.2819 C   0  0  0  0  0  0  0  0  0  0  0  0
    1.5727   -5.3242   -1.7695 C   0  0  0  0  0  0  0  0  0  0  0  0
    0.7316   -4.4183   -1.1414 C   0  0  0  0  0  0  0  0  0  0  0  0
    1.7026   -0.8279    0.1418 N   0  0  0  0  0  0  0  0  0  0  0  0
    2.6453   -0.7853   -0.8794 C   0  0  0  0  0  0  0  0  0  0  0  0
    2.3622   -1.3312   -1.9749 O   0  0  0  0  0  0  0  0  0  0  0  0
    3.9253   -0.0994   -0.6122 C   0  0  2  0  0  0  0  0  0  0  0  0
    3.9341    1.3364   -1.0794 C   0  0  0  0  0  0  0  0  0  0  0  0
    3.7159    1.5908   -2.4956 C   0  0  0  0  0  0  0  0  0  0  0  0
    3.6776    2.9375   -2.9401 O   0  0  0  0  0  0  0  0  0  0  0  0
    3.5565    0.7328   -3.3758 O   0  0  0  0  0  0  0  0  0  0  0  0
    5.0764   -0.8257   -1.0671 N   0  0  0  0  0  0  0  0  0  0  0  0
    6.3072   -0.5339   -0.4423 C   0  0  0  0  0  0  0  0  0  0  0  0
    6.3480    0.3756    0.4215 O   0  0  0  0  0  0  0  0  0  0  0  0
    7.5424   -1.2589   -0.7503 C   0  0  1  0  0  0  0  0  0  0  0  0
    7.8692   -1.6955   -2.1066 C   0  0  0  0  0  0  0  0  0  0  0  0
    8.0026   -0.6252   -3.0924 C   0  0  0  0  0  0  0  0  0  0  0  0
    9.2499   -0.0054   -3.2380 C   0  0  0  0  0  0  0  0  0  0  0  0
    9.4644    1.0063   -4.1599 C   0  0  0  0  0  0  0  0  0  0  0  0
    8.4155    1.4189   -4.9646 C   0  0  0  0  0  0  0  0  0  0  0  0
    7.1724    0.8369   -4.8565 C   0  0  0  0  0  0  0  0  0  0  0  0
    7.0059   -0.1642   -3.9264 C   0  0  0  0  0  0  0  0  0  0  0  0
    8.6172   -0.5355   -0.0579 N   0  0  0  0  0  0  0  0  0  0  0  0
    8.7514   -0.6583    1.3405 C   0  0  0  0  0  0  0  0  0  0  0  0
    8.0278   -1.3412    2.0675 O   0  0  0  0  0  0  0  0  0  0  0  0
    9.7955    0.0578    1.9761 O   0  0  0  0  0  0  0  0  0  0  0  0
    9.9760   -0.0035    3.3797 C   0  0  0  0  0  0  0  0  0  0  0  0
   11.1325    0.8952    3.6890 C   0  0  0  0  0  0  0  0  0  0  0  0
   12.3565    0.5829    3.1522 C   0  0  0  0  0  0  0  0  0  0  0  0
   13.4495    1.4140    3.4147 C   0  0  0  0  0  0  0  0  0  0  0  0
   13.2505    2.5028    4.1967 C   0  0  0  0  0  0  0  0  0  0  0  0
   12.0155    2.7970    4.7252 C   0  0  0  0  0  0  0  0  0  0  0  0
   10.9117    2.0070    4.4927 C   0  0  0  0  0  0  0  0  0  0  0  0
   -7.0391    3.8314    0.2085 C   0  0  0  0  0  0  0  0  0  0  0  0
   -5.9012    3.7317    1.2282 C   0  0  0  0  0  0  0  0  0  0  0  0
   -6.3963    4.2577   -1.0913 C   0  0  0  0  0  0  0  0  0  0  0  0
   -7.8662    5.0185    0.6736 C   0  0  0  0  0  0  0  0  0  0  0  0
  -11.0200    2.2065    0.4949 H   0  0  0  0  0  0  0  0  0  0  0  0
  -11.2961    0.4346    0.5730 H   0  0  0  0  0  0  0  0  0  0  0  0
  -10.2120    1.0724   -0.7138 H   0  0  0  0  0  0  0  0  0  0  0  0
   -8.9086    0.0586    0.9469 H   0  0  0  0  0  0  0  0  0  0  0  0
  -10.3457    1.5905    3.0978 H   0  0  0  0  0  0  0  0  0  0  0  0
  -10.8905    0.0027    2.4947 H   0  0  0  0  0  0  0  0  0  0  0  0
   -9.2677    0.2076    3.3426 H   0  0  0  0  0  0  0  0  0  0  0  0
   -7.7460    2.0119    2.2150 H   0  0  0  0  0  0  0  0  0  0  0  0
   -9.1189    3.0137    1.7876 H   0  0  0  0  0  0  0  0  0  0  0  0
   -8.6600    2.7550   -0.6463 H   0  0  0  0  0  0  0  0  0  0  0  0
   -6.9575    1.6076   -1.5713 H   0  0  0  0  0  0  0  0  0  0  0  0
   -5.9617   -1.4842    0.0124 H   0  0  0  0  0  0  0  0  0  0  0  0
   -5.1854   -0.0894   -2.6173 H   0  0  0  0  0  0  0  0  0  0  0  0
   -4.7516   -1.7185   -2.1103 H   0  0  0  0  0  0  0  0  0  0  0  0
   -6.3258   -3.3618   -1.4552 H   0  0  0  0  0  0  0  0  0  0  0  0
   -8.4127   -4.4190   -2.2228 H   0  0  0  0  0  0  0  0  0  0  0  0
  -10.4778   -4.2354   -3.3851 H   0  0  0  0  0  0  0  0  0  0  0  0
   -9.6296   -0.8022   -4.1233 H   0  0  0  0  0  0  0  0  0  0  0  0
   -7.5514    0.2905   -3.4006 H   0  0  0  0  0  0  0  0  0  0  0  0
   -3.3404    0.0444   -0.2231 H   0  0  0  0  0  0  0  0  0  0  0  0
   -2.0517   -2.4147    1.9260 H   0  0  0  0  0  0  0  0  0  0  0  0
   -1.9277   -1.6127    4.0496 H   0  0  0  0  0  0  0  0  0  0  0  0
   -3.7439   -1.4279    3.7568 H   0  0  0  0  0  0  0  0  0  0  0  0
   -1.7616    0.6309    4.2513 H   0  0  0  0  0  0  0  0  0  0  0  0
   -3.5553    0.8140    3.8976 H   0  0  0  0  0  0  0  0  0  0  0  0
   -3.0321    1.2426    1.6580 H   0  0  0  0  0  0  0  0  0  0  0  0
   -1.4027    1.6164    2.2647 H   0  0  0  0  0  0  0  0  0  0  0  0
    0.0287   -1.4241   -0.9527 H   0  0  0  0  0  0  0  0  0  0  0  0
    0.2943   -2.8965    1.7579 H   0  0  0  0  0  0  0  0  0  0  0  0
   -0.7829   -3.1296    0.3547 H   0  0  0  0  0  0  0  0  0  0  0  0
    2.7651   -3.4713    1.3909 H   0  0  0  0  0  0  0  0  0  0  0  0
    4.2172   -5.0572    0.2693 H   0  0  0  0  0  0  0  0  0  0  0  0
    3.5230   -6.2958   -1.7654 H   0  0  0  0  0  0  0  0  0  0  0  0
    1.2592   -5.8620   -2.6721 H   0  0  0  0  0  0  0  0  0  0  0  0
   -0.2682   -4.2474   -1.5732 H   0  0  0  0  0  0  0  0  0  0  0  0
    1.9665   -0.4019    1.0992 H   0  0  0  0  0  0  0  0  0  0  0  0
    4.0592    0.0358    0.5276 H   0  0  0  0  0  0  0  0  0  0  0  0
    3.1190    1.8828   -0.5220 H   0  0  0  0  0  0  0  0  0  0  0  0
    4.8711    1.8654   -0.7249 H   0  0  0  0  0  0  0  0  0  0  0  0
    4.5471    3.4583   -2.9486 H   0  0  0  0  0  0  0  0  0  0  0  0
    4.9978   -1.5201   -1.8120 H   0  0  0  0  0  0  0  0  0  0  0  0
    7.4360   -2.2118   -0.0540 H   0  0  0  0  0  0  0  0  0  0  0  0
    7.0443   -2.3868   -2.4625 H   0  0  0  0  0  0  0  0  0  0  0  0
    8.8396   -2.3055   -2.1054 H   0  0  0  0  0  0  0  0  0  0  0  0
   10.0941   -0.3066   -2.6529 H   0  0  0  0  0  0  0  0  0  0  0  0
   10.4501    1.4600   -4.2339 H   0  0  0  0  0  0  0  0  0  0  0  0
    8.6399    2.2131   -5.6769 H   0  0  0  0  0  0  0  0  0  0  0  0
    6.3842    1.1689   -5.4915 H   0  0  0  0  0  0  0  0  0  0  0  0
    6.0387   -0.6270   -3.8592 H   0  0  0  0  0  0  0  0  0  0  0  0
    9.2973    0.0733   -0.5525 H   0  0  0  0  0  0  0  0  0  0  0  0
    9.0736    0.3168    3.9135 H   0  0  0  0  0  0  0  0  0  0  0  0
   10.2093   -1.0643    3.6299 H   0  0  0  0  0  0  0  0  0  0  0  0
   12.5390   -0.2772    2.5248 H   0  0  0  0  0  0  0  0  0  0  0  0
   14.4088    1.1502    2.9756 H   0  0  0  0  0  0  0  0  0  0  0  0
   14.0742    3.1610    4.4126 H   0  0  0  0  0  0  0  0  0  0  0  0
   11.9045    3.6803    5.3479 H   0  0  0  0  0  0  0  0  0  0  0  0
    9.9331    2.1833    4.8694 H   0  0  0  0  0  0  0  0  0  0  0  0
   -5.5668    4.7914    1.4035 H   0  0  0  0  0  0  0  0  0  0  0  0
   -6.2628    3.3810    2.1995 H   0  0  0  0  0  0  0  0  0  0  0  0
   -5.0329    3.1916    0.8210 H   0  0  0  0  0  0  0  0  0  0  0  0
   -7.1536    4.5600   -1.8593 H   0  0  0  0  0  0  0  0  0  0  0  0
   -5.8550    3.3815   -1.5074 H   0  0  0  0  0  0  0  0  0  0  0  0
   -5.7001    5.1140   -0.9424 H   0  0  0  0  0  0  0  0  0  0  0  0
   -8.3068    4.8612    1.6772 H   0  0  0  0  0  0  0  0  0  0  0  0
   -8.5591    5.3864   -0.0930 H   0  0  0  0  0  0  0  0  0  0  0  0
   -7.1170    5.8468    0.8290 H   0  0  0  0  0  0  0  0  0  0  0  0
  1  2  1  0
  2  3  1  0
  2  4  1  0
  4  5  1  0
  5  6  1  0
  6  7  1  0
  7  8  2  0
  7  9  1  0
  9 10  1  0
 10 11  1  0
 11 12  2  0
 12 13  1  0
 13 14  2  0
 14 15  1  0
 14 16  1  0
 16 17  2  0
  9 18  1  0
 18 19  1  0
 19 20  2  0
 19 21  1  0
 21 22  1  0
 22 23  1  0
 23 24  1  0
 24 25  1  0
 25 26  1  0
 26 27  2  0
 26 28  1  0
 28 29  1  0
 29 30  1  0
 30 31  2  0
 31 32  1  0
 32 33  2  0
 33 34  1  0
 34 35  2  0
 28 36  1  0
 36 37  1  0
 37 38  2  0
 37 39  1  0
 39 40  1  0
 40 41  1  0
 41 42  1  0
 41 43  2  0
 39 44  1  0
 44 45  1  0
 45 46  2  0
 45 47  1  0
 47 48  1  0
 48 49  1  0
 49 50  2  0
 50 51  1  0
 51 52  2  0
 52 53  1  0
 53 54  2  0
 47 55  1  0
 55 56  1  0
 56 57  2  0
 56 58  1  0
 58 59  1  0
 59 60  1  0
 60 61  2  0
 61 62  1  0
 62 63  2  0
 63 64  1  0
 64 65  2  0
  5 66  1  0
 66 67  1  0
 66 68  1  0
 66 69  1  0
 17 11  1  0
 25 21  1  0
 35 30  1  0
 54 49  1  0
 65 60  1  0
  1 70  1  0
  1 71  1  0
  1 72  1  0
  2 73  1  0
  3 74  1  0
  3 75  1  0
  3 76  1  0
  4 77  1  0
  4 78  1  0
  5 79  1  6
  6 80  1  0
  9 81  1  1
 10 82  1  0
 10 83  1  0
 12 84  1  0
 13 85  1  0
 15 86  1  0
 16 87  1  0
 17 88  1  0
 18 89  1  0
 21 90  1  1
 22 91  1  0
 22 92  1  0
 23 93  1  0
 23 94  1  0
 24 95  1  0
 24 96  1  0
 28 97  1  6
 29 98  1  0
 29 99  1  0
 31100  1  0
 32101  1  0
 33102  1  0
 34103  1  0
 35104  1  0
 36105  1  0
 39106  1  1
 40107  1  0
 40108  1  0
 42109  1  0
 44110  1  0
 47111  1  1
 48112  1  0
 48113  1  0
 50114  1  0
 51115  1  0
 52116  1  0
 53117  1  0
 54118  1  0
 55119  1  0
 59120  1  0
 59121  1  0
 61122  1  0
 62123  1  0
 63124  1  0
 64125  1  0
 65126  1  0
 67127  1  0
 67128  1  0
 67129  1  0
 68130  1  0
 68131  1  0
 68132  1  0
 69133  1  0
 69134  1  0
 69135  1  0
M  END
$$$$
[H]ON([H])C(=O)[C@@]1([H])N(S(=O)(=O)c2c([H])c([H])c(OC([H])([H])[H])c([H])c2[H])C([H])([H])[C@@]([H])(c2c([H])c([H])c([H])c([H])c2[H])C1([H])[H]
     RDKit          3D

 46 48  0  0  0  0  0  0  0  0999 V2000
    6.4315   -0.7021    1.2167 C   0  0  0  0  0  0  0  0  0  0  0  0
    6.0151    0.5524    0.7394 O   0  0  0  0  0  0  0  0  0  0  0  0
    4.7715    0.6378    0.1121 C   0  0  0  0  0  0  0  0  0  0  0  0
    4.2820    1.8242   -0.3859 C   0  0  0  0  0  0  0  0  0  0  0  0
    3.0511    1.8802   -1.0005 C   0  0  0  0  0  0  0  0  0  0  0  0
    2.2445    0.7684   -1.1531 C   0  0  0  0  0  0  0  0  0  0  0  0
    2.7364   -0.4130   -0.6549 C   0  0  0  0  0  0  0  0  0  0  0  0
    3.9629   -0.4845   -0.0391 C   0  0  0  0  0  0  0  0  0  0  0  0
    0.6766    0.8680   -1.9413 S   0  0  0  0  0  0  0  0  0  0  0  0
    0.3423   -0.3550   -2.7061 O   0  0  0  0  0  0  0  0  0  0  0  0
    0.7843    2.0221   -2.9314 O   0  0  0  0  0  0  0  0  0  0  0  0
   -0.5704    1.2056   -0.8217 N   0  0  0  0  0  0  0  0  0  0  0  0
   -0.7284    0.1981    0.1915 C   0  0  0  0  0  0  0  0  0  0  0  0
   -1.5525   -0.8592   -0.4488 C   0  0  2  0  0  0  0  0  0  0  0  0
   -2.4751   -0.1121   -1.3703 C   0  0  0  0  0  0  0  0  0  0  0  0
   -1.8327    1.2431   -1.5212 C   0  0  1  0  0  0  0  0  0  0  0  0
   -2.6919    2.3036   -0.9553 C   0  0  0  0  0  0  0  0  0  0  0  0
   -3.8316    2.4797   -1.4400 O   0  0  0  0  0  0  0  0  0  0  0  0
   -2.2690    3.1256    0.1152 N   0  0  0  0  0  0  0  0  0  0  0  0
   -3.0655    4.0886    0.6193 O   0  0  0  0  0  0  0  0  0  0  0  0
   -2.3924   -1.6129    0.5051 C   0  0  0  0  0  0  0  0  0  0  0  0
   -3.3324   -1.0084    1.3159 C   0  0  0  0  0  0  0  0  0  0  0  0
   -4.0753   -1.7769    2.1777 C   0  0  0  0  0  0  0  0  0  0  0  0
   -3.9259   -3.1609    2.2772 C   0  0  0  0  0  0  0  0  0  0  0  0
   -2.9838   -3.7518    1.4621 C   0  0  0  0  0  0  0  0  0  0  0  0
   -2.2403   -2.9738    0.5979 C   0  0  0  0  0  0  0  0  0  0  0  0
    5.6361   -1.0792    1.9091 H   0  0  0  0  0  0  0  0  0  0  0  0
    7.4225   -0.7016    1.6657 H   0  0  0  0  0  0  0  0  0  0  0  0
    6.4530   -1.4148    0.3532 H   0  0  0  0  0  0  0  0  0  0  0  0
    4.8549    2.7302   -0.3031 H   0  0  0  0  0  0  0  0  0  0  0  0
    2.6424    2.8175   -1.4051 H   0  0  0  0  0  0  0  0  0  0  0  0
    2.1389   -1.2991   -0.7545 H   0  0  0  0  0  0  0  0  0  0  0  0
    4.3549   -1.4280    0.3582 H   0  0  0  0  0  0  0  0  0  0  0  0
   -1.2144    0.6522    1.0788 H   0  0  0  0  0  0  0  0  0  0  0  0
    0.2668   -0.1896    0.5437 H   0  0  0  0  0  0  0  0  0  0  0  0
   -0.8869   -1.5584   -0.9685 H   0  0  0  0  0  0  0  0  0  0  0  0
   -3.4673    0.0284   -0.8837 H   0  0  0  0  0  0  0  0  0  0  0  0
   -2.6547   -0.6246   -2.3266 H   0  0  0  0  0  0  0  0  0  0  0  0
   -1.6193    1.4117   -2.6009 H   0  0  0  0  0  0  0  0  0  0  0  0
   -1.3131    2.9934    0.5376 H   0  0  0  0  0  0  0  0  0  0  0  0
   -2.8029    4.9952    0.3190 H   0  0  0  0  0  0  0  0  0  0  0  0
   -3.4359    0.0638    1.2269 H   0  0  0  0  0  0  0  0  0  0  0  0
   -4.8184   -1.3021    2.8192 H   0  0  0  0  0  0  0  0  0  0  0  0
   -4.5195   -3.7484    2.9611 H   0  0  0  0  0  0  0  0  0  0  0  0
   -2.8604   -4.8317    1.5338 H   0  0  0  0  0  0  0  0  0  0  0  0
   -1.5078   -3.5018   -0.0242 H   0  0  0  0  0  0  0  0  0  0  0  0
  1  2  1  0
  2  3  1  0
  3  4  2  0
  4  5  1  0
  5  6  2  0
  6  7  1  0
  7  8  2  0
  6  9  1  0
  9 10  2  0
  9 11  2  0
  9 12  1  0
 12 13  1  0
 13 14  1  0
 14 15  1  0
 15 16  1  0
 16 17  1  0
 17 18  2  0
 17 19  1  0
 19 20  1  0
 14 21  1  0
 21 22  2  0
 22 23  1  0
 23 24  2  0
 24 25  1  0
 25 26  2  0
  8  3  1  0
 16 12  1  0
 26 21  1  0
  1 27  1  0
  1 28  1  0
  1 29  1  0
  4 30  1  0
  5 31  1  0
  7 32  1  0
  8 33  1  0
 13 34  1  0
 13 35  1  0
 14 36  1  6
 15 37  1  0
 15 38  1  0
 16 39  1  6
 19 40  1  0
 20 41  1  0
 22 42  1  0
 23 43  1  0
 24 44  1  0
 25 45  1  0
 26 46  1  0
M  END
$$$$
[H]c1nc(N2C([H])([H])C([H])([H])N(c3nc(C(F)(F)F)nc(N([H])C(=O)c4c([H])c([H])c(N5C([H])([H])C([H])([H])N(C([H])([H])[H])C([H])([H])C5([H])[H])c([H])c4[H])c3[H])C([H])([H])C2([H])[H])c2c([H])c([H])n([H])c2n1
     RDKit          3D

 70 75  0  0  0  0  0  0  0  0999 V2000
   -8.4640    2.7451   -0.1751 C   0  0  0  0  0  0  0  0  0  0  0  0
   -9.3760    1.6430    0.0032 N   0  0  0  0  0  0  0  0  0  0  0  0
   -9.1677    1.0644    1.3075 C   0  0  0  0  0  0  0  0  0  0  0  0
   -7.7059    0.7407    1.5518 C   0  0  0  0  0  0  0  0  0  0  0  0
   -7.1986    0.0450    0.4033 N   0  0  0  0  0  0  0  0  0  0  0  0
   -8.1759   -0.4037   -0.5624 C   0  0  0  0  0  0  0  0  0  0  0  0
   -9.1437    0.6615   -1.0004 C   0  0  0  0  0  0  0  0  0  0  0  0
   -5.8118   -0.1829    0.2568 C   0  0  0  0  0  0  0  0  0  0  0  0
   -4.9200    0.4097    1.1326 C   0  0  0  0  0  0  0  0  0  0  0  0
   -3.5417    0.2268    1.0674 C   0  0  0  0  0  0  0  0  0  0  0  0
   -3.0238   -0.5911    0.0735 C   0  0  0  0  0  0  0  0  0  0  0  0
   -3.8918   -1.1890   -0.8068 C   0  0  0  0  0  0  0  0  0  0  0  0
   -5.2732   -0.9940   -0.7247 C   0  0  0  0  0  0  0  0  0  0  0  0
   -1.5580   -0.7916    0.0166 C   0  0  0  0  0  0  0  0  0  0  0  0
   -0.9026    0.0311    0.7018 O   0  0  0  0  0  0  0  0  0  0  0  0
   -0.9719   -1.8025   -0.7305 N   0  0  0  0  0  0  0  0  0  0  0  0
    0.3958   -2.0947   -0.8573 C   0  0  0  0  0  0  0  0  0  0  0  0
    1.4177   -1.3899   -0.2835 C   0  0  0  0  0  0  0  0  0  0  0  0
    2.7685   -1.7592   -0.4197 C   0  0  0  0  0  0  0  0  0  0  0  0
    3.0206   -2.8545   -1.1512 N   0  0  0  0  0  0  0  0  0  0  0  0
    2.0483   -3.5737   -1.7322 C   0  0  0  0  0  0  0  0  0  0  0  0
    0.7789   -3.2031   -1.5881 N   0  0  0  0  0  0  0  0  0  0  0  0
    2.4452   -4.7834   -2.5493 C   0  0  0  0  0  0  0  0  0  0  0  0
    1.8168   -5.9209   -2.0857 F   0  0  0  0  0  0  0  0  0  0  0  0
    3.8117   -4.9182   -2.5687 F   0  0  0  0  0  0  0  0  0  0  0  0
    2.0283   -4.5427   -3.8427 F   0  0  0  0  0  0  0  0  0  0  0  0
    3.7775   -0.9849    0.1758 N   0  0  0  0  0  0  0  0  0  0  0  0
    4.8721   -1.6127    0.8693 C   0  0  0  0  0  0  0  0  0  0  0  0
    5.8958   -0.5587    1.2856 C   0  0  0  0  0  0  0  0  0  0  0  0
    6.1629    0.3360    0.1769 N   0  0  0  0  0  0  0  0  0  0  0  0
    5.0933    0.7888   -0.6468 C   0  0  0  0  0  0  0  0  0  0  0  0
    3.7681    0.4553    0.0733 C   0  0  0  0  0  0  0  0  0  0  0  0
    7.5257    0.7020   -0.0023 C   0  0  0  0  0  0  0  0  0  0  0  0
    8.4755   -0.1851   -0.3175 N   0  0  0  0  0  0  0  0  0  0  0  0
    9.7784    0.1159   -0.4749 C   0  0  0  0  0  0  0  0  0  0  0  0
   10.1322    1.3974   -0.3004 N   0  0  0  0  0  0  0  0  0  0  0  0
    9.2010    2.3507    0.0236 C   0  0  0  0  0  0  0  0  0  0  0  0
    9.3174    3.6824    0.2447 N   0  0  0  0  0  0  0  0  0  0  0  0
    8.1153    4.2004    0.5330 C   0  0  0  0  0  0  0  0  0  0  0  0
    7.2037    3.1763    0.4969 C   0  0  0  0  0  0  0  0  0  0  0  0
    7.8786    2.0251    0.1801 C   0  0  0  0  0  0  0  0  0  0  0  0
   -8.1350    3.0802    0.8242 H   0  0  0  0  0  0  0  0  0  0  0  0
   -9.0601    3.5774   -0.6506 H   0  0  0  0  0  0  0  0  0  0  0  0
   -7.6370    2.4315   -0.8476 H   0  0  0  0  0  0  0  0  0  0  0  0
   -9.7597    0.1112    1.3221 H   0  0  0  0  0  0  0  0  0  0  0  0
   -9.5264    1.7520    2.0991 H   0  0  0  0  0  0  0  0  0  0  0  0
   -7.6602    0.0216    2.4152 H   0  0  0  0  0  0  0  0  0  0  0  0
   -7.1667    1.6456    1.8518 H   0  0  0  0  0  0  0  0  0  0  0  0
   -7.7604   -0.8740   -1.4622 H   0  0  0  0  0  0  0  0  0  0  0  0
   -8.7937   -1.1866   -0.0264 H   0  0  0  0  0  0  0  0  0  0  0  0
  -10.1232    0.2153   -1.3292 H   0  0  0  0  0  0  0  0  0  0  0  0
   -8.7870    1.2086   -1.9207 H   0  0  0  0  0  0  0  0  0  0  0  0
   -5.3284    1.0559    1.9176 H   0  0  0  0  0  0  0  0  0  0  0  0
   -2.9034    0.7301    1.7999 H   0  0  0  0  0  0  0  0  0  0  0  0
   -3.4931   -1.8216   -1.5778 H   0  0  0  0  0  0  0  0  0  0  0  0
   -5.8907   -1.4901   -1.4390 H   0  0  0  0  0  0  0  0  0  0  0  0
   -1.6259   -2.4545   -1.2819 H   0  0  0  0  0  0  0  0  0  0  0  0
    1.2357   -0.5117    0.3035 H   0  0  0  0  0  0  0  0  0  0  0  0
    5.3213   -2.4316    0.2953 H   0  0  0  0  0  0  0  0  0  0  0  0
    4.4554   -2.0436    1.8184 H   0  0  0  0  0  0  0  0  0  0  0  0
    5.5399   -0.0541    2.1852 H   0  0  0  0  0  0  0  0  0  0  0  0
    6.8227   -1.0881    1.5350 H   0  0  0  0  0  0  0  0  0  0  0  0
    5.1390    1.8250   -0.9804 H   0  0  0  0  0  0  0  0  0  0  0  0
    5.0716    0.0819   -1.5371 H   0  0  0  0  0  0  0  0  0  0  0  0
    2.9092    0.8426   -0.4839 H   0  0  0  0  0  0  0  0  0  0  0  0
    3.8361    0.8555    1.1133 H   0  0  0  0  0  0  0  0  0  0  0  0
   10.4981   -0.6495   -0.7320 H   0  0  0  0  0  0  0  0  0  0  0  0
   10.2045    4.2141    0.1985 H   0  0  0  0  0  0  0  0  0  0  0  0
    7.8910    5.2553    0.7565 H   0  0  0  0  0  0  0  0  0  0  0  0
    6.1236    3.2403    0.6829 H   0  0  0  0  0  0  0  0  0  0  0  0
  1  2  1  0
  2  3  1  0
  3  4  1  0
  4  5  1  0
  5  6  1  0
  6  7  1  0
  5  8  1  0
  8  9  2  0
  9 10  1  0
 10 11  2  0
 11 12  1  0
 12 13  2  0
 11 14  1  0
 14 15  2  0
 14 16  1  0
 16 17  1  0
 17 18  2  0
 18 19  1  0
 19 20  2  0
 20 21  1  0
 21 22  2  0
 21 23  1  0
 23 24  1  0
 23 25  1  0
 23 26  1  0
 19 27  1  0
 27 28  1  0
 28 29  1  0
 29 30  1  0
 30 31  1  0
 31 32  1  0
 30 33  1  0
 33 34  2  0
 34 35  1  0
 35 36  2  0
 36 37  1  0
 37 38  1  0
 38 39  1  0
 39 40  2  0
 40 41  1  0
  7  2  1  0
 13  8  1  0
 22 17  1  0
 32 27  1  0
 41 33  1  0
 41 37  2  0
  1 42  1  0
  1 43  1  0
  1 44  1  0
  3 45  1  0
  3 46  1  0
  4 47  1  0
  4 48  1  0
  6 49  1  0
  6 50  1  0
  7 51  1  0
  7 52  1  0
  9 53  1  0
 10 54  1  0
 12 55  1  0
 13 56  1  0
 16 57  1  0
 18 58  1  0
 28 59  1  0
 28 60  1  0
 29 61  1  0
 29 62  1  0
 31 63  1  0
 31 64  1  0
 32 65  1  0
 32 66  1  0
 35 67  1  0
 38 68  1  0
 39 69  1  0
 40 70  1  0
M  END
$$$$
[H]N=C(N([H])[H])N([H])C([H])([H])C([H])([H])C([H])([H])[C@@]([H])(C(=O)N([H])[C@]([H])(C(=O)O[H])C([H])([H])c1c([H])n([H])c2c([H])c([H])c([H])c([H])c12)N([H])C(=O)[C@@]([H])(N([H])C(=O)[C@@]([H])(N([H])C(=O)[C@@]([H])(N([H])[H])C([H])([H])c1c([H])c([H])c(O[H])c([H])c1[H])[C@@]([H])(C([H])([H])[H])C([H])([H])C([H])([H])[H])C([H])([H])c1c([H])c([H])c([H])c([H])c1[H]
     RDKit          3D

110113  0  0  0  0  0  0  0  0999 V2000
    4.2569   -3.1061    2.0734 C   0  0  0  0  0  0  0  0  0  0  0  0
    4.5058   -1.7976    1.3051 C   0  0  0  0  0  0  0  0  0  0  0  0
    4.4371   -2.0872   -0.1569 C   0  0  2  0  0  0  0  0  0  0  0  0
    5.5125   -3.1219   -0.5119 C   0  0  0  0  0  0  0  0  0  0  0  0
    4.4999   -0.8979   -1.0360 C   0  0  2  0  0  0  0  0  0  0  0  0
    5.6569   -0.1007   -0.9380 N   0  0  0  0  0  0  0  0  0  0  0  0
    6.0055    0.9147   -0.0469 C   0  0  0  0  0  0  0  0  0  0  0  0
    5.2437    1.2617    0.8775 O   0  0  0  0  0  0  0  0  0  0  0  0
    7.3139    1.6622   -0.1330 C   0  0  1  0  0  0  0  0  0  0  0  0
    7.2992    2.7770    0.7999 N   0  0  0  0  0  0  0  0  0  0  0  0
    8.3513    0.6782    0.3678 C   0  0  0  0  0  0  0  0  0  0  0  0
    9.7236    1.2061    0.3717 C   0  0  0  0  0  0  0  0  0  0  0  0
   10.1257    1.8809    1.5255 C   0  0  0  0  0  0  0  0  0  0  0  0
   11.3814    2.4243    1.6770 C   0  0  0  0  0  0  0  0  0  0  0  0
   12.2697    2.2855    0.6291 C   0  0  0  0  0  0  0  0  0  0  0  0
   13.5555    2.8406    0.7795 O   0  0  0  0  0  0  0  0  0  0  0  0
   11.9015    1.6246   -0.5223 C   0  0  0  0  0  0  0  0  0  0  0  0
   10.6159    1.0843   -0.6414 C   0  0  0  0  0  0  0  0  0  0  0  0
    3.2281   -0.1082   -1.0222 C   0  0  0  0  0  0  0  0  0  0  0  0
    3.2895    1.1444   -0.9645 O   0  0  0  0  0  0  0  0  0  0  0  0
    1.9468   -0.7010   -1.0714 N   0  0  0  0  0  0  0  0  0  0  0  0
    0.7692    0.1362   -1.0454 C   0  0  1  0  0  0  0  0  0  0  0  0
    0.2586    0.2560   -2.5106 C   0  0  0  0  0  0  0  0  0  0  0  0
   -0.0458   -1.1053   -3.0235 C   0  0  0  0  0  0  0  0  0  0  0  0
    0.9830   -1.7795   -3.6696 C   0  0  0  0  0  0  0  0  0  0  0  0
    0.7948   -3.0461   -4.1718 C   0  0  0  0  0  0  0  0  0  0  0  0
   -0.4348   -3.6359   -4.0224 C   0  0  0  0  0  0  0  0  0  0  0  0
   -1.4537   -2.9943   -3.3943 C   0  0  0  0  0  0  0  0  0  0  0  0
   -1.2572   -1.7187   -2.8910 C   0  0  0  0  0  0  0  0  0  0  0  0
   -0.3207   -0.3542   -0.1917 C   0  0  0  0  0  0  0  0  0  0  0  0
   -0.2594   -1.4973    0.3038 O   0  0  0  0  0  0  0  0  0  0  0  0
   -1.4360    0.4643    0.0709 N   0  0  0  0  0  0  0  0  0  0  0  0
   -2.5786    0.0033    0.9144 C   0  0  1  0  0  0  0  0  0  0  0  0
   -2.3332    0.2497    2.3382 C   0  0  0  0  0  0  0  0  0  0  0  0
   -3.3624   -0.3255    3.2434 C   0  0  0  0  0  0  0  0  0  0  0  0
   -3.4424   -1.8495    3.0668 C   0  0  0  0  0  0  0  0  0  0  0  0
   -4.4650   -2.3193    3.9766 N   0  0  0  0  0  0  0  0  0  0  0  0
   -5.8375   -2.0499    3.8416 C   0  0  0  0  0  0  0  0  0  0  0  0
   -6.5837   -2.5684    2.7444 N   0  0  0  0  0  0  0  0  0  0  0  0
   -6.4380   -1.3290    4.7119 N   0  0  0  0  0  0  0  0  0  0  0  0
   -3.7814    0.5848    0.3154 C   0  0  0  0  0  0  0  0  0  0  0  0
   -3.9429    0.4600   -0.9716 O   0  0  0  0  0  0  0  0  0  0  0  0
   -4.7956    1.2817    0.9516 N   0  0  0  0  0  0  0  0  0  0  0  0
   -5.9602    1.8178    0.2045 C   0  0  1  0  0  0  0  0  0  0  0  0
   -7.2031    1.1801    0.7609 C   0  0  0  0  0  0  0  0  0  0  0  0
   -8.4335    1.6402    0.1031 C   0  0  0  0  0  0  0  0  0  0  0  0
   -9.3728    2.4840    0.6448 C   0  0  0  0  0  0  0  0  0  0  0  0
  -10.3462    2.6484   -0.2634 N   0  0  0  0  0  0  0  0  0  0  0  0
  -10.0510    1.9257   -1.3814 C   0  0  0  0  0  0  0  0  0  0  0  0
  -10.7414    1.7811   -2.5755 C   0  0  0  0  0  0  0  0  0  0  0  0
  -10.2085    0.9803   -3.5590 C   0  0  0  0  0  0  0  0  0  0  0  0
   -9.0122    0.3486   -3.3314 C   0  0  0  0  0  0  0  0  0  0  0  0
   -8.3241    0.4851   -2.1571 C   0  0  0  0  0  0  0  0  0  0  0  0
   -8.8548    1.2919   -1.1585 C   0  0  0  0  0  0  0  0  0  0  0  0
   -5.9630    3.2723    0.4370 C   0  0  0  0  0  0  0  0  0  0  0  0
   -6.9088    4.0950   -0.1564 O   0  0  0  0  0  0  0  0  0  0  0  0
   -5.1084    3.8499    1.1847 O   0  0  0  0  0  0  0  0  0  0  0  0
    3.3558   -3.6258    1.6796 H   0  0  0  0  0  0  0  0  0  0  0  0
    5.1069   -3.8166    1.9415 H   0  0  0  0  0  0  0  0  0  0  0  0
    4.1753   -2.9075    3.1578 H   0  0  0  0  0  0  0  0  0  0  0  0
    5.5543   -1.5171    1.6160 H   0  0  0  0  0  0  0  0  0  0  0  0
    3.7487   -1.0917    1.6618 H   0  0  0  0  0  0  0  0  0  0  0  0
    3.4796   -2.6219   -0.3410 H   0  0  0  0  0  0  0  0  0  0  0  0
    5.5381   -3.2051   -1.6318 H   0  0  0  0  0  0  0  0  0  0  0  0
    6.4925   -2.7362   -0.2099 H   0  0  0  0  0  0  0  0  0  0  0  0
    5.3022   -4.0985   -0.0730 H   0  0  0  0  0  0  0  0  0  0  0  0
    4.4854   -1.3132   -2.1120 H   0  0  0  0  0  0  0  0  0  0  0  0
    6.4236   -0.3027   -1.6761 H   0  0  0  0  0  0  0  0  0  0  0  0
    7.5044    2.0499   -1.1293 H   0  0  0  0  0  0  0  0  0  0  0  0
    6.3301    3.0466    1.0937 H   0  0  0  0  0  0  0  0  0  0  0  0
    7.7089    3.6401    0.3673 H   0  0  0  0  0  0  0  0  0  0  0  0
    8.2283   -0.2550   -0.2210 H   0  0  0  0  0  0  0  0  0  0  0  0
    8.0657    0.4348    1.4110 H   0  0  0  0  0  0  0  0  0  0  0  0
    9.4373    2.0056    2.3735 H   0  0  0  0  0  0  0  0  0  0  0  0
   11.6441    2.9473    2.6102 H   0  0  0  0  0  0  0  0  0  0  0  0
   13.6721    3.7941    0.4754 H   0  0  0  0  0  0  0  0  0  0  0  0
   12.6016    1.5250   -1.3240 H   0  0  0  0  0  0  0  0  0  0  0  0
   10.3076    0.5597   -1.5373 H   0  0  0  0  0  0  0  0  0  0  0  0
    1.8447   -1.7191   -1.1263 H   0  0  0  0  0  0  0  0  0  0  0  0
    0.9924    1.1954   -0.7824 H   0  0  0  0  0  0  0  0  0  0  0  0
    1.0518    0.7051   -3.1149 H   0  0  0  0  0  0  0  0  0  0  0  0
   -0.6040    0.9138   -2.4707 H   0  0  0  0  0  0  0  0  0  0  0  0
    1.9602   -1.2844   -3.7759 H   0  0  0  0  0  0  0  0  0  0  0  0
    1.6154   -3.5289   -4.6629 H   0  0  0  0  0  0  0  0  0  0  0  0
   -0.5921   -4.6467   -4.4205 H   0  0  0  0  0  0  0  0  0  0  0  0
   -2.4481   -3.4496   -3.2628 H   0  0  0  0  0  0  0  0  0  0  0  0
   -2.0873   -1.2040   -2.3838 H   0  0  0  0  0  0  0  0  0  0  0  0
   -1.5302    1.4261   -0.3004 H   0  0  0  0  0  0  0  0  0  0  0  0
   -2.5456   -1.1169    0.7691 H   0  0  0  0  0  0  0  0  0  0  0  0
   -2.2296    1.3529    2.5423 H   0  0  0  0  0  0  0  0  0  0  0  0
   -1.3424   -0.2078    2.6020 H   0  0  0  0  0  0  0  0  0  0  0  0
   -2.9305   -0.2265    4.2981 H   0  0  0  0  0  0  0  0  0  0  0  0
   -4.3468    0.0471    3.2866 H   0  0  0  0  0  0  0  0  0  0  0  0
   -2.4649   -2.3156    3.2900 H   0  0  0  0  0  0  0  0  0  0  0  0
   -3.7565   -2.1374    2.0522 H   0  0  0  0  0  0  0  0  0  0  0  0
   -4.1654   -2.8980    4.7897 H   0  0  0  0  0  0  0  0  0  0  0  0
   -6.1866   -3.2835    2.0912 H   0  0  0  0  0  0  0  0  0  0  0  0
   -7.5653   -2.2451    2.5559 H   0  0  0  0  0  0  0  0  0  0  0  0
   -5.9097   -0.9478    5.5114 H   0  0  0  0  0  0  0  0  0  0  0  0
   -4.8023    1.5120    1.9498 H   0  0  0  0  0  0  0  0  0  0  0  0
   -5.8179    1.5822   -0.8686 H   0  0  0  0  0  0  0  0  0  0  0  0
   -7.1667    0.0722    0.6510 H   0  0  0  0  0  0  0  0  0  0  0  0
   -7.2244    1.4344    1.8598 H   0  0  0  0  0  0  0  0  0  0  0  0
   -9.3425    2.9478    1.6434 H   0  0  0  0  0  0  0  0  0  0  0  0
  -11.2094    3.2330   -0.1617 H   0  0  0  0  0  0  0  0  0  0  0  0
  -11.6886    2.2940   -2.7315 H   0  0  0  0  0  0  0  0  0  0  0  0
  -10.7594    0.8749   -4.4909 H   0  0  0  0  0  0  0  0  0  0  0  0
   -8.6206   -0.2773   -4.1301 H   0  0  0  0  0  0  0  0  0  0  0  0
   -7.3845   -0.0020   -1.9596 H   0  0  0  0  0  0  0  0  0  0  0  0
   -6.5760    4.8604   -0.7276 H   0  0  0  0  0  0  0  0  0  0  0  0
  1  2  1  0
  2  3  1  0
  3  4  1  0
  3  5  1  0
  5  6  1  0
  6  7  1  0
  7  8  2  0
  7  9  1  0
  9 10  1  0
  9 11  1  0
 11 12  1  0
 12 13  2  0
 13 14  1  0
 14 15  2  0
 15 16  1  0
 15 17  1  0
 17 18  2  0
  5 19  1  0
 19 20  2  0
 19 21  1  0
 21 22  1  0
 22 23  1  0
 23 24  1  0
 24 25  2  0
 25 26  1  0
 26 27  2  0
 27 28  1  0
 28 29  2  0
 22 30  1  0
 30 31  2  0
 30 32  1  0
 32 33  1  0
 33 34  1  0
 34 35  1  0
 35 36  1  0
 36 37  1  0
 37 38  1  0
 38 39  1  0
 38 40  2  3
 33 41  1  0
 41 42  2  0
 41 43  1  0
 43 44  1  0
 44 45  1  0
 45 46  1  0
 46 47  2  0
 47 48  1  0
 48 49  1  0
 49 50  2  0
 50 51  1  0
 51 52  2  0
 52 53  1  0
 53 54  2  0
 44 55  1  0
 55 56  1  0
 55 57  2  0
 18 12  1  0
 29 24  1  0
 54 46  1  0
 54 49  1  0
  1 58  1  0
  1 59  1  0
  1 60  1  0
  2 61  1  0
  2 62  1  0
  3 63  1  1
  4 64  1  0
  4 65  1  0
  4 66  1  0
  5 67  1  6
  6 68  1  0
  9 69  1  6
 10 70  1  0
 10 71  1  0
 11 72  1  0
 11 73  1  0
 13 74  1  0
 14 75  1  0
 16 76  1  0
 17 77  1  0
 18 78  1  0
 21 79  1  0
 22 80  1  1
 23 81  1  0
 23 82  1  0
 25 83  1  0
 26 84  1  0
 27 85  1  0
 28 86  1  0
 29 87  1  0
 32 88  1  0
 33 89  1  1
 34 90  1  0
 34 91  1  0
 35 92  1  0
 35 93  1  0
 36 94  1  0
 36 95  1  0
 37 96  1  0
 39 97  1  0
 39 98  1  0
 40 99  1  0
 43100  1  0
 44101  1  6
 45102  1  0
 45103  1  0
 47104  1  0
 48105  1  0
 50106  1  0
 51107  1  0
 52108  1  0
 53109  1  0
 56110  1  0
M  END
$$$$
[H]Oc1c([H])c([H])c2c3c1O[C@@]1([H])C(=O)C([H])([H])C([H])([H])[C@@]4(N([H])C(=O)c5c([H])c([H])c(Cl)c([H])c5[H])[C@]([H])(N(C([H])([H])C5([H])C([H])([H])C5([H])[H])C([H])([H])C([H])([H])[C@@]341)C2([H])[H]
     RDKit          3D

 61 67  0  0  0  0  0  0  0  0999 V2000
   -2.4441    5.3291   -1.7192 O   0  0  0  0  0  0  0  0  0  0  0  0
   -2.4185    4.1270   -1.0473 C   0  0  0  0  0  0  0  0  0  0  0  0
   -3.4548    3.7512   -0.1909 C   0  0  0  0  0  0  0  0  0  0  0  0
   -3.4074    2.5383    0.4744 C   0  0  0  0  0  0  0  0  0  0  0  0
   -2.3156    1.6973    0.2801 C   0  0  0  0  0  0  0  0  0  0  0  0
   -2.1807    0.3982    0.9715 C   0  0  0  0  0  0  0  0  0  0  0  0
   -0.8950   -0.3378    0.6308 C   0  0  1  0  0  0  0  0  0  0  0  0
   -1.1433   -1.2276   -0.4096 N   0  0  0  0  0  0  0  0  0  0  0  0
   -1.3061   -2.5891   -0.2093 C   0  0  0  0  0  0  0  0  0  0  0  0
   -2.5438   -2.9912    0.5475 C   0  0  0  0  0  0  0  0  0  0  0  0
   -2.7601   -4.4867    0.7770 C   0  0  0  0  0  0  0  0  0  0  0  0
   -3.5741   -3.7721   -0.2342 C   0  0  0  0  0  0  0  0  0  0  0  0
   -1.4942   -0.6522   -1.6706 C   0  0  0  0  0  0  0  0  0  0  0  0
   -0.5561    0.4666   -2.0640 C   0  0  0  0  0  0  0  0  0  0  0  0
   -0.1385    1.3236   -0.9034 C   0  0  1  0  0  0  0  0  0  0  0  0
    0.7871    2.3885   -1.3645 C   0  0  1  0  0  0  0  0  0  0  0  0
   -0.1505    3.3028   -1.9803 O   0  0  0  0  0  0  0  0  0  0  0  0
   -1.3170    3.2820   -1.2458 C   0  0  0  0  0  0  0  0  0  0  0  0
   -1.3505    2.1130   -0.5562 C   0  0  0  0  0  0  0  0  0  0  0  0
    1.2607    3.1264   -0.1553 C   0  0  0  0  0  0  0  0  0  0  0  0
    2.2174    3.8659   -0.2923 O   0  0  0  0  0  0  0  0  0  0  0  0
    0.6098    2.9783    1.1571 C   0  0  0  0  0  0  0  0  0  0  0  0
    0.2330    1.5971    1.5126 C   0  0  0  0  0  0  0  0  0  0  0  0
    0.2459    0.5957    0.3500 C   0  0  1  0  0  0  0  0  0  0  0  0
    1.4928   -0.0563    0.3855 N   0  0  0  0  0  0  0  0  0  0  0  0
    2.2018   -1.0100   -0.2902 C   0  0  0  0  0  0  0  0  0  0  0  0
    1.8314   -1.6248   -1.2851 O   0  0  0  0  0  0  0  0  0  0  0  0
    3.5685   -1.4159    0.1457 C   0  0  0  0  0  0  0  0  0  0  0  0
    4.3838   -0.6211    0.8913 C   0  0  0  0  0  0  0  0  0  0  0  0
    5.6469   -1.0548    1.2852 C   0  0  0  0  0  0  0  0  0  0  0  0
    6.1171   -2.2967    0.9375 C   0  0  0  0  0  0  0  0  0  0  0  0
    7.7007   -2.8698    1.4184 Cl  0  0  0  0  0  0  0  0  0  0  0  0
    5.3180   -3.1073    0.1918 C   0  0  0  0  0  0  0  0  0  0  0  0
    4.0725   -2.6648   -0.1897 C   0  0  0  0  0  0  0  0  0  0  0  0
   -1.7109    5.6156   -2.3363 H   0  0  0  0  0  0  0  0  0  0  0  0
   -4.2816    4.4256   -0.0652 H   0  0  0  0  0  0  0  0  0  0  0  0
   -4.2130    2.2577    1.1337 H   0  0  0  0  0  0  0  0  0  0  0  0
   -3.0167   -0.2231    0.5705 H   0  0  0  0  0  0  0  0  0  0  0  0
   -2.3646    0.4802    2.0586 H   0  0  0  0  0  0  0  0  0  0  0  0
   -0.6323   -0.9190    1.5529 H   0  0  0  0  0  0  0  0  0  0  0  0
   -0.4442   -2.9656    0.4232 H   0  0  0  0  0  0  0  0  0  0  0  0
   -1.2420   -3.1877   -1.1553 H   0  0  0  0  0  0  0  0  0  0  0  0
   -2.8548   -2.3576    1.4107 H   0  0  0  0  0  0  0  0  0  0  0  0
   -1.9681   -5.1785    0.4571 H   0  0  0  0  0  0  0  0  0  0  0  0
   -3.2687   -4.7667    1.7194 H   0  0  0  0  0  0  0  0  0  0  0  0
   -3.3309   -4.0291   -1.2915 H   0  0  0  0  0  0  0  0  0  0  0  0
   -4.6438   -3.5413   -0.0758 H   0  0  0  0  0  0  0  0  0  0  0  0
   -1.4367   -1.4454   -2.4394 H   0  0  0  0  0  0  0  0  0  0  0  0
   -2.5529   -0.3342   -1.6105 H   0  0  0  0  0  0  0  0  0  0  0  0
    0.2379    0.1611   -2.7500 H   0  0  0  0  0  0  0  0  0  0  0  0
   -1.1981    1.1373   -2.7225 H   0  0  0  0  0  0  0  0  0  0  0  0
    1.5809    2.0875   -2.0429 H   0  0  0  0  0  0  0  0  0  0  0  0
   -0.2096    3.7352    1.2699 H   0  0  0  0  0  0  0  0  0  0  0  0
    1.3638    3.3392    1.9270 H   0  0  0  0  0  0  0  0  0  0  0  0
   -0.6733    1.5801    2.1149 H   0  0  0  0  0  0  0  0  0  0  0  0
    1.0116    1.1780    2.2497 H   0  0  0  0  0  0  0  0  0  0  0  0
    2.0984    0.3301    1.2541 H   0  0  0  0  0  0  0  0  0  0  0  0
    4.0838    0.3576    1.1927 H   0  0  0  0  0  0  0  0  0  0  0  0
    6.2758   -0.4146    1.8727 H   0  0  0  0  0  0  0  0  0  0  0  0
    5.6903   -4.0934   -0.0850 H   0  0  0  0  0  0  0  0  0  0  0  0
    3.4629   -3.3319   -0.7813 H   0  0  0  0  0  0  0  0  0  0  0  0
  1  2  1  0
  2  3  2  0
  3  4  1  0
  4  5  2  0
  5  6  1  0
  6  7  1  0
  7  8  1  0
  8  9  1  0
  9 10  1  0
 10 11  1  0
 11 12  1  0
  8 13  1  0
 13 14  1  0
 15 14  1  6
 15 16  1  0
 16 17  1  0
 17 18  1  0
 18 19  2  0
 16 20  1  0
 20 21  2  0
 20 22  1  0
 22 23  1  0
 23 24  1  0
 24 25  1  6
 25 26  1  0
 26 27  2  0
 26 28  1  0
 28 29  2  0
 29 30  1  0
 30 31  2  0
 31 32  1  0
 31 33  1  0
 33 34  2  0
 18  2  1  0
 34 28  1  0
 19  5  1  0
 24  7  1  0
 12 10  1  0
 19 15  1  0
 24 15  1  0
  1 35  1  0
  3 36  1  0
  4 37  1  0
  6 38  1  0
  6 39  1  0
  7 40  1  1
  9 41  1  0
  9 42  1  0
 10 43  1  0
 11 44  1  0
 11 45  1  0
 12 46  1  0
 12 47  1  0
 13 48  1  0
 13 49  1  0
 14 50  1  0
 14 51  1  0
 16 52  1  6
 22 53  1  0
 22 54  1  0
 23 55  1  0
 23 56  1  0
 25 57  1  0
 29 58  1  0
 30 59  1  0
 33 60  1  0
 34 61  1  0
M  END
$$$$
[H]N=C(N([H])[H])N([H])C([H])([H])C([H])([H])C([H])([H])[C@@]([H])(C(=O)N([H])[C@]([H])(C(=O)O[H])C([H])([H])c1c([H])c([H])c(O[H])c([H])c1[H])N([H])C(=O)[C@@]([H])(N([H])C(=O)[C@@]([H])(N([H])[H])C([H])([H])C([H])(C([H])([H])[H])C([H])([H])[H])C([H])([H])c1c([H])c([H])c([H])c([H])c1[H]
     RDKit          3D

 86 87  0  0  0  0  0  0  0  0999 V2000
    8.1136    1.7443   -0.1847 C   0  0  0  0  0  0  0  0  0  0  0  0
    7.3577    0.4500   -0.1940 C   0  0  0  0  0  0  0  0  0  0  0  0
    8.1482   -0.5140   -1.0529 C   0  0  0  0  0  0  0  0  0  0  0  0
    5.9184    0.5553   -0.5519 C   0  0  0  0  0  0  0  0  0  0  0  0
    5.6379    1.1123   -1.9259 C   0  0  2  0  0  0  0  0  0  0  0  0
    6.2330    2.4631   -1.9735 N   0  0  0  0  0  0  0  0  0  0  0  0
    4.1766    1.2540   -2.1659 C   0  0  0  0  0  0  0  0  0  0  0  0
    3.6831    2.4281   -2.3700 O   0  0  0  0  0  0  0  0  0  0  0  0
    3.2401    0.2019   -2.1914 N   0  0  0  0  0  0  0  0  0  0  0  0
    1.8314    0.4800   -2.4288 C   0  0  1  0  0  0  0  0  0  0  0  0
    1.3467   -0.1827   -3.6984 C   0  0  0  0  0  0  0  0  0  0  0  0
    1.4743   -1.6339   -3.6827 C   0  0  0  0  0  0  0  0  0  0  0  0
    2.6571   -2.2478   -4.1005 C   0  0  0  0  0  0  0  0  0  0  0  0
    2.7902   -3.6193   -4.0902 C   0  0  0  0  0  0  0  0  0  0  0  0
    1.7499   -4.4266   -3.6640 C   0  0  0  0  0  0  0  0  0  0  0  0
    0.5978   -3.8466   -3.2563 C   0  0  0  0  0  0  0  0  0  0  0  0
    0.4663   -2.4676   -3.2677 C   0  0  0  0  0  0  0  0  0  0  0  0
    1.0043    0.1317   -1.2530 C   0  0  0  0  0  0  0  0  0  0  0  0
    1.5207   -0.4807   -0.2930 O   0  0  0  0  0  0  0  0  0  0  0  0
   -0.3598    0.4763   -1.1791 N   0  0  0  0  0  0  0  0  0  0  0  0
   -1.1659    0.1009    0.0371 C   0  0  1  0  0  0  0  0  0  0  0  0
   -0.9030    1.1462    1.0832 C   0  0  0  0  0  0  0  0  0  0  0  0
   -1.4835    0.9513    2.4203 C   0  0  0  0  0  0  0  0  0  0  0  0
   -1.0035   -0.3669    3.0560 C   0  0  0  0  0  0  0  0  0  0  0  0
   -1.5613   -0.5627    4.3634 N   0  0  0  0  0  0  0  0  0  0  0  0
   -1.2131   -1.7066    5.1395 C   0  0  0  0  0  0  0  0  0  0  0  0
   -1.5368   -3.0118    4.7268 N   0  0  0  0  0  0  0  0  0  0  0  0
   -0.5774   -1.5557    6.2618 N   0  0  0  0  0  0  0  0  0  0  0  0
   -2.5347    0.0999   -0.4533 C   0  0  0  0  0  0  0  0  0  0  0  0
   -2.6427   -0.4738   -1.6409 O   0  0  0  0  0  0  0  0  0  0  0  0
   -3.7355    0.5802    0.0612 N   0  0  0  0  0  0  0  0  0  0  0  0
   -4.9956    0.4329   -0.6808 C   0  0  1  0  0  0  0  0  0  0  0  0
   -6.0177   -0.2438    0.1568 C   0  0  0  0  0  0  0  0  0  0  0  0
   -6.3792    0.4448    1.4086 C   0  0  0  0  0  0  0  0  0  0  0  0
   -5.7354    0.2099    2.6142 C   0  0  0  0  0  0  0  0  0  0  0  0
   -6.0998    0.8617    3.7777 C   0  0  0  0  0  0  0  0  0  0  0  0
   -7.1237    1.7760    3.7800 C   0  0  0  0  0  0  0  0  0  0  0  0
   -7.4912    2.4380    4.9721 O   0  0  0  0  0  0  0  0  0  0  0  0
   -7.7825    2.0338    2.6061 C   0  0  0  0  0  0  0  0  0  0  0  0
   -7.4042    1.3649    1.4281 C   0  0  0  0  0  0  0  0  0  0  0  0
   -5.4317    1.7476   -1.2238 C   0  0  0  0  0  0  0  0  0  0  0  0
   -6.6075    1.7610   -1.9792 O   0  0  0  0  0  0  0  0  0  0  0  0
   -4.8278    2.8292   -1.0545 O   0  0  0  0  0  0  0  0  0  0  0  0
    8.9657    1.6044    0.5483 H   0  0  0  0  0  0  0  0  0  0  0  0
    7.5521    2.6020    0.2236 H   0  0  0  0  0  0  0  0  0  0  0  0
    8.6050    1.9727   -1.1400 H   0  0  0  0  0  0  0  0  0  0  0  0
    7.3959    0.0226    0.8511 H   0  0  0  0  0  0  0  0  0  0  0  0
    7.8773   -1.5604   -0.9454 H   0  0  0  0  0  0  0  0  0  0  0  0
    9.2158   -0.4072   -0.7003 H   0  0  0  0  0  0  0  0  0  0  0  0
    8.1512   -0.1734   -2.1227 H   0  0  0  0  0  0  0  0  0  0  0  0
    5.3967   -0.4308   -0.4987 H   0  0  0  0  0  0  0  0  0  0  0  0
    5.4207    1.1861    0.2120 H   0  0  0  0  0  0  0  0  0  0  0  0
    6.0707    0.5511   -2.7523 H   0  0  0  0  0  0  0  0  0  0  0  0
    6.4775    2.7071   -2.9600 H   0  0  0  0  0  0  0  0  0  0  0  0
    5.6507    3.1591   -1.4907 H   0  0  0  0  0  0  0  0  0  0  0  0
    3.5669   -0.7722   -2.0398 H   0  0  0  0  0  0  0  0  0  0  0  0
    1.7397    1.5718   -2.5716 H   0  0  0  0  0  0  0  0  0  0  0  0
    1.9090    0.2218   -4.5621 H   0  0  0  0  0  0  0  0  0  0  0  0
    0.2819    0.1386   -3.8657 H   0  0  0  0  0  0  0  0  0  0  0  0
    3.4864   -1.6572   -4.4386 H   0  0  0  0  0  0  0  0  0  0  0  0
    3.7031   -4.1301   -4.4076 H   0  0  0  0  0  0  0  0  0  0  0  0
    1.8902   -5.5110   -3.6703 H   0  0  0  0  0  0  0  0  0  0  0  0
   -0.2328   -4.4732   -2.9176 H   0  0  0  0  0  0  0  0  0  0  0  0
   -0.4666   -2.0741   -2.9366 H   0  0  0  0  0  0  0  0  0  0  0  0
   -0.7931    0.9851   -1.9642 H   0  0  0  0  0  0  0  0  0  0  0  0
   -0.7659   -0.8369    0.4452 H   0  0  0  0  0  0  0  0  0  0  0  0
    0.2047    1.2999    1.2212 H   0  0  0  0  0  0  0  0  0  0  0  0
   -1.2525    2.1663    0.7242 H   0  0  0  0  0  0  0  0  0  0  0  0
   -0.9826    1.7269    3.1202 H   0  0  0  0  0  0  0  0  0  0  0  0
   -2.5140    1.0360    2.6345 H   0  0  0  0  0  0  0  0  0  0  0  0
    0.0891   -0.2860    3.1376 H   0  0  0  0  0  0  0  0  0  0  0  0
   -1.2505   -1.2222    2.3905 H   0  0  0  0  0  0  0  0  0  0  0  0
   -2.2226    0.1332    4.7488 H   0  0  0  0  0  0  0  0  0  0  0  0
   -0.7408   -3.6851    4.6205 H   0  0  0  0  0  0  0  0  0  0  0  0
   -2.5331   -3.2770    4.5423 H   0  0  0  0  0  0  0  0  0  0  0  0
   -0.3188   -2.3636    6.8332 H   0  0  0  0  0  0  0  0  0  0  0  0
   -3.7931    1.0671    0.9616 H   0  0  0  0  0  0  0  0  0  0  0  0
   -4.7785   -0.1910   -1.5689 H   0  0  0  0  0  0  0  0  0  0  0  0
   -6.9199   -0.4390   -0.4895 H   0  0  0  0  0  0  0  0  0  0  0  0
   -5.6203   -1.2646    0.3910 H   0  0  0  0  0  0  0  0  0  0  0  0
   -4.9190   -0.5124    2.6307 H   0  0  0  0  0  0  0  0  0  0  0  0
   -5.6026    0.6855    4.7329 H   0  0  0  0  0  0  0  0  0  0  0  0
   -8.2057    1.9697    5.5284 H   0  0  0  0  0  0  0  0  0  0  0  0
   -8.5865    2.7501    2.5828 H   0  0  0  0  0  0  0  0  0  0  0  0
   -7.9720    1.6216    0.5473 H   0  0  0  0  0  0  0  0  0  0  0  0
   -6.5131    1.3540   -2.9218 H   0  0  0  0  0  0  0  0  0  0  0  0
  1  2  1  0
  2  3  1  0
  2  4  1  0
  4  5  1  0
  5  6  1  0
  5  7  1  0
  7  8  2  0
  7  9  1  0
  9 10  1  0
 10 11  1  0
 11 12  1  0
 12 13  2  0
 13 14  1  0
 14 15  2  0
 15 16  1  0
 16 17  2  0
 10 18  1  0
 18 19  2  0
 18 20  1  0
 20 21  1  0
 21 22  1  0
 22 23  1  0
 23 24  1  0
 24 25  1  0
 25 26  1  0
 26 27  1  0
 26 28  2  3
 21 29  1  0
 29 30  2  0
 29 31  1  0
 31 32  1  0
 32 33  1  0
 33 34  1  0
 34 35  2  0
 35 36  1  0
 36 37  2  0
 37 38  1  0
 37 39  1  0
 39 40  2  0
 32 41  1  0
 41 42  1  0
 41 43  2  0
 17 12  1  0
 40 34  1  0
  1 44  1  0
  1 45  1  0
  1 46  1  0
  2 47  1  0
  3 48  1  0
  3 49  1  0
  3 50  1  0
  4 51  1  0
  4 52  1  0
  5 53  1  6
  6 54  1  0
  6 55  1  0
  9 56  1  0
 10 57  1  6
 11 58  1  0
 11 59  1  0
 13 60  1  0
 14 61  1  0
 15 62  1  0
 16 63  1  0
 17 64  1  0
 20 65  1  0
 21 66  1  1
 22 67  1  0
 22 68  1  0
 23 69  1  0
 23 70  1  0
 24 71  1  0
 24 72  1  0
 25 73  1  0
 27 74  1  0
 27 75  1  0
 28 76  1  0
 31 77  1  0
 32 78  1  6
 33 79  1  0
 33 80  1  0
 35 81  1  0
 36 82  1  0
 38 83  1  0
 39 84  1  0
 40 85  1  0
 42 86  1  0
M  END
$$$$
[H]c1nc(N2C([H])([H])C([H])([H])OC([H])([H])C2([H])[H])nc(N2C([H])([H])C([H])([H])OC([H])([H])[C@@]2([H])C([H])([H])[H])c1C(=O)N([H])c1c([H])c([H])c(Cl)c(C(F)(F)F)c1[H]
     RDKit          3D

 56 59  0  0  0  0  0  0  0  0999 V2000
    1.1280    2.5380   -1.5481 C   0  0  0  0  0  0  0  0  0  0  0  0
   -0.2507    1.9167   -1.3382 C   0  0  2  0  0  0  0  0  0  0  0  0
   -1.3295    2.9637   -1.6434 C   0  0  0  0  0  0  0  0  0  0  0  0
   -1.9138    3.4622   -0.5151 O   0  0  0  0  0  0  0  0  0  0  0  0
   -1.1234    3.6819    0.5883 C   0  0  0  0  0  0  0  0  0  0  0  0
   -0.3605    2.4588    1.0624 C   0  0  0  0  0  0  0  0  0  0  0  0
   -0.4694    1.4535    0.0037 N   0  0  0  0  0  0  0  0  0  0  0  0
   -0.8225    0.1431    0.3656 C   0  0  0  0  0  0  0  0  0  0  0  0
   -2.1256   -0.1723    0.0545 N   0  0  0  0  0  0  0  0  0  0  0  0
   -2.6166   -1.3617    0.3628 C   0  0  0  0  0  0  0  0  0  0  0  0
   -1.8473   -2.2719    0.9834 N   0  0  0  0  0  0  0  0  0  0  0  0
   -0.5498   -2.0003    1.3090 C   0  0  0  0  0  0  0  0  0  0  0  0
   -0.0322   -0.7667    0.9894 C   0  0  0  0  0  0  0  0  0  0  0  0
    1.3821   -0.4267    1.2321 C   0  0  0  0  0  0  0  0  0  0  0  0
    1.7444   -0.0433    2.3730 O   0  0  0  0  0  0  0  0  0  0  0  0
    2.2528   -0.5707    0.1192 N   0  0  0  0  0  0  0  0  0  0  0  0
    3.6298   -0.2690    0.2112 C   0  0  0  0  0  0  0  0  0  0  0  0
    4.0515    0.8014    0.9574 C   0  0  0  0  0  0  0  0  0  0  0  0
    5.4253    1.0432    1.0315 C   0  0  0  0  0  0  0  0  0  0  0  0
    6.3305    0.2409    0.3833 C   0  0  0  0  0  0  0  0  0  0  0  0
    8.0368    0.5620    0.4805 Cl  0  0  0  0  0  0  0  0  0  0  0  0
    5.9034   -0.8432   -0.3712 C   0  0  0  0  0  0  0  0  0  0  0  0
    4.5622   -1.0830   -0.4474 C   0  0  0  0  0  0  0  0  0  0  0  0
    6.8772   -1.7305   -1.0700 C   0  0  0  0  0  0  0  0  0  0  0  0
    7.7080   -2.2743   -0.0905 F   0  0  0  0  0  0  0  0  0  0  0  0
    6.1741   -2.7387   -1.6709 F   0  0  0  0  0  0  0  0  0  0  0  0
    7.5762   -0.9850   -1.9948 F   0  0  0  0  0  0  0  0  0  0  0  0
   -3.9678   -1.6218    0.0047 N   0  0  0  0  0  0  0  0  0  0  0  0
   -5.0175   -1.2190    0.8864 C   0  0  0  0  0  0  0  0  0  0  0  0
   -6.3088   -1.9608    0.6524 C   0  0  0  0  0  0  0  0  0  0  0  0
   -6.4770   -2.4265   -0.6340 O   0  0  0  0  0  0  0  0  0  0  0  0
   -5.3934   -3.2436   -0.9591 C   0  0  0  0  0  0  0  0  0  0  0  0
   -4.2374   -2.2729   -1.2508 C   0  0  0  0  0  0  0  0  0  0  0  0
    1.6863    2.6383   -0.6152 H   0  0  0  0  0  0  0  0  0  0  0  0
    0.9766    3.5097   -2.0790 H   0  0  0  0  0  0  0  0  0  0  0  0
    1.7390    1.9221   -2.2398 H   0  0  0  0  0  0  0  0  0  0  0  0
   -0.3566    1.1317   -2.1016 H   0  0  0  0  0  0  0  0  0  0  0  0
   -0.8513    3.7457   -2.2521 H   0  0  0  0  0  0  0  0  0  0  0  0
   -2.0999    2.4544   -2.2494 H   0  0  0  0  0  0  0  0  0  0  0  0
   -0.4397    4.5446    0.3999 H   0  0  0  0  0  0  0  0  0  0  0  0
   -1.7820    3.9937    1.4248 H   0  0  0  0  0  0  0  0  0  0  0  0
   -0.8063    2.1091    2.0086 H   0  0  0  0  0  0  0  0  0  0  0  0
    0.6764    2.7586    1.2039 H   0  0  0  0  0  0  0  0  0  0  0  0
    0.0825   -2.7329    1.8096 H   0  0  0  0  0  0  0  0  0  0  0  0
    1.8633   -0.9147   -0.8178 H   0  0  0  0  0  0  0  0  0  0  0  0
    3.4028    1.4701    1.4842 H   0  0  0  0  0  0  0  0  0  0  0  0
    5.7564    1.9039    1.6291 H   0  0  0  0  0  0  0  0  0  0  0  0
    4.1832   -1.9218   -1.0247 H   0  0  0  0  0  0  0  0  0  0  0  0
   -5.1776   -0.1134    0.7352 H   0  0  0  0  0  0  0  0  0  0  0  0
   -4.6492   -1.3527    1.9214 H   0  0  0  0  0  0  0  0  0  0  0  0
   -6.3102   -2.8197    1.3546 H   0  0  0  0  0  0  0  0  0  0  0  0
   -7.1395   -1.2813    0.9576 H   0  0  0  0  0  0  0  0  0  0  0  0
   -5.6042   -3.9058   -1.8120 H   0  0  0  0  0  0  0  0  0  0  0  0
   -5.1109   -3.7972   -0.0500 H   0  0  0  0  0  0  0  0  0  0  0  0
   -4.5905   -1.4962   -1.9921 H   0  0  0  0  0  0  0  0  0  0  0  0
   -3.3880   -2.8294   -1.6711 H   0  0  0  0  0  0  0  0  0  0  0  0
  1  2  1  0
  2  3  1  0
  3  4  1  0
  4  5  1  0
  5  6  1  0
  6  7  1  0
  7  8  1  0
  8  9  2  0
  9 10  1  0
 10 11  2  0
 11 12  1  0
 12 13  2  0
 13 14  1  0
 14 15  2  0
 14 16  1  0
 16 17  1  0
 17 18  2  0
 18 19  1  0
 19 20  2  0
 20 21  1  0
 20 22  1  0
 22 23  2  0
 22 24  1  0
 24 25  1  0
 24 26  1  0
 24 27  1  0
 10 28  1  0
 28 29  1  0
 29 30  1  0
 30 31  1  0
 31 32  1  0
 32 33  1  0
  7  2  1  0
 13  8  1  0
 23 17  1  0
 33 28  1  0
  1 34  1  0
  1 35  1  0
  1 36  1  0
  2 37  1  6
  3 38  1  0
  3 39  1  0
  5 40  1  0
  5 41  1  0
  6 42  1  0
  6 43  1  0
 12 44  1  0
 16 45  1  0
 18 46  1  0
 19 47  1  0
 23 48  1  0
 29 49  1  0
 29 50  1  0
 30 51  1  0
 30 52  1  0
 32 53  1  0
 32 54  1  0
 33 55  1  0
 33 56  1  0
M  END
$$$$
[H]OC([H])([H])[C@@]1([H])O[C@]([H])(n2c([H])nc3c(N([H])C([H])([H])c4c([H])c([H])c([H])c(Cl)c4[H])nc([H])nc32)[C@]([H])(O[H])[C@]1([H])O[H]
     RDKit          3D

 45 48  0  0  0  0  0  0  0  0999 V2000
   -6.2942    0.7084    2.2969 O   0  0  0  0  0  0  0  0  0  0  0  0
   -4.9062    0.6497    2.3716 C   0  0  0  0  0  0  0  0  0  0  0  0
   -4.3630    0.3092    1.0062 C   0  0  1  0  0  0  0  0  0  0  0  0
   -2.9956    0.2254    0.9651 O   0  0  0  0  0  0  0  0  0  0  0  0
   -2.6332   -0.8415    0.1757 C   0  0  1  0  0  0  0  0  0  0  0  0
   -3.8462   -1.3065   -0.5669 C   0  0  2  0  0  0  0  0  0  0  0  0
   -4.1685   -0.4737   -1.6424 O   0  0  0  0  0  0  0  0  0  0  0  0
   -4.9151   -1.0064    0.4979 C   0  0  2  0  0  0  0  0  0  0  0  0
   -6.1694   -0.8962   -0.0485 O   0  0  0  0  0  0  0  0  0  0  0  0
   -1.5024   -0.5712   -0.6754 N   0  0  0  0  0  0  0  0  0  0  0  0
   -1.2986   -0.7995   -1.9720 C   0  0  0  0  0  0  0  0  0  0  0  0
   -0.0713   -0.3637   -2.3083 N   0  0  0  0  0  0  0  0  0  0  0  0
    0.5158    0.1481   -1.2170 C   0  0  0  0  0  0  0  0  0  0  0  0
    1.7474    0.7303   -0.9559 C   0  0  0  0  0  0  0  0  0  0  0  0
    2.6569    0.8638   -2.0290 N   0  0  0  0  0  0  0  0  0  0  0  0
    3.9467    1.4498   -1.8053 C   0  0  0  0  0  0  0  0  0  0  0  0
    4.7831    0.6347   -0.8941 C   0  0  0  0  0  0  0  0  0  0  0  0
    5.8905    1.2460   -0.3255 C   0  0  0  0  0  0  0  0  0  0  0  0
    6.6957    0.5154    0.5190 C   0  0  0  0  0  0  0  0  0  0  0  0
    6.3880   -0.8063    0.7835 C   0  0  0  0  0  0  0  0  0  0  0  0
    5.2894   -1.4082    0.2177 C   0  0  0  0  0  0  0  0  0  0  0  0
    4.9489   -3.0852    0.5891 Cl  0  0  0  0  0  0  0  0  0  0  0  0
    4.4908   -0.6753   -0.6229 C   0  0  0  0  0  0  0  0  0  0  0  0
    2.0517    1.1632    0.3016 N   0  0  0  0  0  0  0  0  0  0  0  0
    1.1648    1.0313    1.2996 C   0  0  0  0  0  0  0  0  0  0  0  0
   -0.0251    0.4663    1.0371 N   0  0  0  0  0  0  0  0  0  0  0  0
   -0.3744    0.0185   -0.2037 C   0  0  0  0  0  0  0  0  0  0  0  0
   -6.6271    1.0285    1.4222 H   0  0  0  0  0  0  0  0  0  0  0  0
   -4.5067    1.5741    2.7788 H   0  0  0  0  0  0  0  0  0  0  0  0
   -4.6625   -0.1869    3.0834 H   0  0  0  0  0  0  0  0  0  0  0  0
   -4.6738    1.1199    0.3031 H   0  0  0  0  0  0  0  0  0  0  0  0
   -2.3269   -1.6692    0.8612 H   0  0  0  0  0  0  0  0  0  0  0  0
   -3.8326   -2.3703   -0.8281 H   0  0  0  0  0  0  0  0  0  0  0  0
   -3.6872    0.3889   -1.5700 H   0  0  0  0  0  0  0  0  0  0  0  0
   -4.8339   -1.7783    1.2935 H   0  0  0  0  0  0  0  0  0  0  0  0
   -6.3807   -1.5398   -0.7421 H   0  0  0  0  0  0  0  0  0  0  0  0
   -2.0334   -1.2664   -2.6207 H   0  0  0  0  0  0  0  0  0  0  0  0
    2.3946    0.5396   -2.9772 H   0  0  0  0  0  0  0  0  0  0  0  0
    3.8763    2.4684   -1.3393 H   0  0  0  0  0  0  0  0  0  0  0  0
    4.4990    1.6335   -2.7686 H   0  0  0  0  0  0  0  0  0  0  0  0
    6.1125    2.2721   -0.5430 H   0  0  0  0  0  0  0  0  0  0  0  0
    7.5557    0.9918    0.9599 H   0  0  0  0  0  0  0  0  0  0  0  0
    7.0588   -1.3370    1.4583 H   0  0  0  0  0  0  0  0  0  0  0  0
    3.6281   -1.1804   -1.0552 H   0  0  0  0  0  0  0  0  0  0  0  0
    1.4334    1.3850    2.2921 H   0  0  0  0  0  0  0  0  0  0  0  0
  1  2  1  0
  2  3  1  0
  3  4  1  0
  4  5  1  0
  5  6  1  0
  6  7  1  0
  6  8  1  0
  8  9  1  0
  5 10  1  0
 10 11  1  0
 11 12  2  0
 12 13  1  0
 13 14  2  0
 14 15  1  0
 15 16  1  0
 16 17  1  0
 17 18  2  0
 18 19  1  0
 19 20  2  0
 20 21  1  0
 21 22  1  0
 21 23  2  0
 14 24  1  0
 24 25  2  0
 25 26  1  0
 26 27  2  0
  8  3  1  0
 27 10  1  0
 27 13  1  0
 23 17  1  0
  1 28  1  0
  2 29  1  0
  2 30  1  0
  3 31  1  6
  5 32  1  1
  6 33  1  6
  7 34  1  0
  8 35  1  1
  9 36  1  0
 11 37  1  0
 15 38  1  0
 16 39  1  0
 16 40  1  0
 18 41  1  0
 19 42  1  0
 20 43  1  0
 23 44  1  0
 25 45  1  0
M  END
$$$$
[H]N([H])[C@]([H])(C(=O)N([H])[C@]1([H])C([H])([H])C([H])([H])[C@@]([H])(C(=O)N([H])[C@@]2([H])C([H])([H])C([H])([H])[C@]3([H])C([H])([H])C([H])([H])[C@]2([H])C3([H])[H])C([H])([H])C1([H])[H])C([H])([H])C([H])(C([H])([H])[H])C([H])([H])[H]
     RDKit          2D

 63 65  0  0  0  0  0  0  0  0999 V2000
    4.6774   -6.4654    0.0000 C   0  0  0  0  0  0  0  0  0  0  0  0
    3.4638   -5.5837    0.0000 C   0  0  0  0  0  0  0  0  0  0  0  0
    4.3455   -4.3702    0.0000 C   0  0  0  0  0  0  0  0  0  0  0  0
    2.5822   -6.7972    0.0000 C   0  0  0  0  0  0  0  0  0  0  0  0
    1.7005   -8.0108    0.0000 C   0  0  0  0  0  0  0  0  0  0  0  0
    2.9140   -8.8924    0.0000 N   0  0  0  0  0  0  0  0  0  0  0  0
    0.4869   -7.1291    0.0000 C   0  0  0  0  0  0  0  0  0  0  0  0
    0.6139   -5.9207    0.0000 O   0  0  0  0  0  0  0  0  0  0  0  0
   -0.8834   -7.7392    0.0000 N   0  0  0  0  0  0  0  0  0  0  0  0
   -2.0969   -6.8575    0.0000 C   0  0  0  0  0  0  0  0  0  0  0  0
   -1.0179   -5.8155    0.0000 C   0  0  0  0  0  0  0  0  0  0  0  0
   -1.3808   -4.3601    0.0000 C   0  0  0  0  0  0  0  0  0  0  0  0
   -2.8227   -3.9466    0.0000 C   0  0  0  0  0  0  0  0  0  0  0  0
   -3.9017   -4.9886    0.0000 C   0  0  0  0  0  0  0  0  0  0  0  0
   -3.5388   -6.4441    0.0000 C   0  0  0  0  0  0  0  0  0  0  0  0
   -2.1651   -2.5984    0.0000 C   0  0  0  0  0  0  0  0  0  0  0  0
   -0.6688   -2.4938    0.0000 O   0  0  0  0  0  0  0  0  0  0  0  0
   -3.0039   -1.3549    0.0000 N   0  0  0  0  0  0  0  0  0  0  0  0
   -2.3463   -0.0067    0.0000 C   0  0  0  0  0  0  0  0  0  0  0  0
   -2.1895    1.4851    0.0000 C   0  0  0  0  0  0  0  0  0  0  0  0
   -0.8192    2.0952    0.0000 C   0  0  0  0  0  0  0  0  0  0  0  0
    0.3943    1.2135    0.0000 C   0  0  0  0  0  0  0  0  0  0  0  0
    1.2760    0.0000    0.0000 C   0  0  0  0  0  0  0  0  0  0  0  0
    0.3943   -1.2135    0.0000 C   0  0  0  0  0  0  0  0  0  0  0  0
   -1.0323   -0.7500    0.0000 C   0  0  0  0  0  0  0  0  0  0  0  0
   -1.0323    0.7500    0.0000 C   0  0  0  0  0  0  0  0  0  0  0  0
    5.2814   -5.8176    0.0000 H   0  0  0  0  0  0  0  0  0  0  0  0
    4.3087   -7.3779    0.0000 H   0  0  0  0  0  0  0  0  0  0  0  0
    5.8909   -7.3471    0.0000 H   0  0  0  0  0  0  0  0  0  0  0  0
    2.2503   -4.7020    0.0000 H   0  0  0  0  0  0  0  0  0  0  0  0
    3.1320   -3.4885    0.0000 H   0  0  0  0  0  0  0  0  0  0  0  0
    5.1202   -4.7996    0.0000 H   0  0  0  0  0  0  0  0  0  0  0  0
    5.2272   -3.1567    0.0000 H   0  0  0  0  0  0  0  0  0  0  0  0
    3.3783   -7.3757    0.0000 H   0  0  0  0  0  0  0  0  0  0  0  0
    1.5948   -5.8765    0.0000 H   0  0  0  0  0  0  0  0  0  0  0  0
    0.8188   -9.2243    0.0000 H   0  0  0  0  0  0  0  0  0  0  0  0
    2.7572  -10.3842    0.0000 H   0  0  0  0  0  0  0  0  0  0  0  0
    4.3912   -8.6320    0.0000 H   0  0  0  0  0  0  0  0  0  0  0  0
   -1.0402   -9.2310    0.0000 H   0  0  0  0  0  0  0  0  0  0  0  0
   -2.7545   -8.2057    0.0000 H   0  0  0  0  0  0  0  0  0  0  0  0
   -0.2052   -6.5472    0.0000 H   0  0  0  0  0  0  0  0  0  0  0  0
    0.0236   -5.1897    0.0000 H   0  0  0  0  0  0  0  0  0  0  0  0
   -0.0341   -4.2659    0.0000 H   0  0  0  0  0  0  0  0  0  0  0  0
   -1.0433   -2.8985    0.0000 H   0  0  0  0  0  0  0  0  0  0  0  0
   -4.0362   -3.0649    0.0000 H   0  0  0  0  0  0  0  0  0  0  0  0
   -4.7405   -3.7451    0.0000 H   0  0  0  0  0  0  0  0  0  0  0  0
   -5.2720   -5.5987    0.0000 H   0  0  0  0  0  0  0  0  0  0  0  0
   -5.0351   -6.5487    0.0000 H   0  0  0  0  0  0  0  0  0  0  0  0
   -3.6956   -7.9358    0.0000 H   0  0  0  0  0  0  0  0  0  0  0  0
   -4.5002   -1.4595    0.0000 H   0  0  0  0  0  0  0  0  0  0  0  0
   -3.7882    0.4068    0.0000 H   0  0  0  0  0  0  0  0  0  0  0  0
   -2.5524    2.9405    0.0000 H   0  0  0  0  0  0  0  0  0  0  0  0
   -3.6859    1.3805    0.0000 H   0  0  0  0  0  0  0  0  0  0  0  0
    0.1247    3.2609    0.0000 H   0  0  0  0  0  0  0  0  0  0  0  0
   -1.6580    3.3388    0.0000 H   0  0  0  0  0  0  0  0  0  0  0  0
    1.0283    2.5730    0.0000 H   0  0  0  0  0  0  0  0  0  0  0  0
    2.3907    1.0037    0.0000 H   0  0  0  0  0  0  0  0  0  0  0  0
    2.3907   -1.0037    0.0000 H   0  0  0  0  0  0  0  0  0  0  0  0
    1.6933   -1.9635    0.0000 H   0  0  0  0  0  0  0  0  0  0  0  0
   -0.0442   -2.6480    0.0000 H   0  0  0  0  0  0  0  0  0  0  0  0
   -1.9964   -1.8991    0.0000 H   0  0  0  0  0  0  0  0  0  0  0  0
   -2.5177    0.9588    0.0000 H   0  0  0  0  0  0  0  0  0  0  0  0
   -1.6899    2.0982    0.0000 H   0  0  0  0  0  0  0  0  0  0  0  0
  1  2  1  0
  2  3  1  0
  2  4  1  0
  4  5  1  0
  5  6  1  0
  5  7  1  0
  7  8  2  0
  7  9  1  0
  9 10  1  0
 10 11  1  0
 11 12  1  0
 12 13  1  0
 13 14  1  0
 14 15  1  0
 13 16  1  0
 16 17  2  0
 16 18  1  0
 18 19  1  0
 19 20  1  0
 20 21  1  0
 21 22  1  0
 22 23  1  0
 23 24  1  0
 24 25  1  0
 25 26  1  0
 15 10  1  0
 25 19  1  0
 26 22  1  0
  1 27  1  0
  1 28  1  0
  1 29  1  0
  2 30  1  0
  3 31  1  0
  3 32  1  0
  3 33  1  0
  4 34  1  0
  4 35  1  0
  5 36  1  1
  6 37  1  0
  6 38  1  0
  9 39  1  0
 10 40  1  1
 11 41  1  0
 11 42  1  0
 12 43  1  0
 12 44  1  0
 13 45  1  6
 14 46  1  0
 14 47  1  0
 15 48  1  0
 15 49  1  0
 18 50  1  0
 19 51  1  6
 20 52  1  0
 20 53  1  0
 21 54  1  0
 21 55  1  0
 22 56  1  1
 23 57  1  0
 23 58  1  0
 24 59  1  0
 24 60  1  0
 25 61  1  6
 26 62  1  0
 26 63  1  0
M  END
$$$$
[H]OC(=O)C([H])([H])[C@@]([H])(C(=O)O[H])N([H])C(=O)[C@@]([H])(N([H])C(=O)[C@@]([H])(N([H])C(=O)[C@@]([H])(N([H])C(=O)[C@@]([H])(N([H])C(=O)[C@@]([H])(N([H])C(=O)[C@@]([H])(N([H])[H])C([H])([H])C([H])(C([H])([H])[H])C([H])([H])[H])C([H])([H])c1c([H])c([H])c([H])c([H])c1[H])C([H])([H])C(=O)O[H])C([H])([H])C([H])(C([H])([H])[H])C([H])([H])[H])C([H])([H])C(=O)O[H])C([H])([H])C(=O)O[H]
     RDKit          3D

113113  0  0  0  0  0  0  0  0999 V2000
  -11.3898   -1.0413   -2.4819 C   0  0  0  0  0  0  0  0  0  0  0  0
  -10.1886   -1.8473   -2.1388 C   0  0  0  0  0  0  0  0  0  0  0  0
  -10.0455   -3.0073   -3.1047 C   0  0  0  0  0  0  0  0  0  0  0  0
  -10.1142   -2.3726   -0.7416 C   0  0  0  0  0  0  0  0  0  0  0  0
  -10.1168   -1.2497    0.2914 C   0  0  2  0  0  0  0  0  0  0  0  0
  -11.3493   -0.4855    0.1717 N   0  0  0  0  0  0  0  0  0  0  0  0
   -8.9517   -0.3687    0.1083 C   0  0  0  0  0  0  0  0  0  0  0  0
   -9.1493    0.7361   -0.4824 O   0  0  0  0  0  0  0  0  0  0  0  0
   -7.6608   -0.6797    0.5443 N   0  0  0  0  0  0  0  0  0  0  0  0
   -6.5085    0.2206    0.3244 C   0  0  1  0  0  0  0  0  0  0  0  0
   -6.6050    1.2270    1.4783 C   0  0  0  0  0  0  0  0  0  0  0  0
   -5.5530    2.2413    1.4989 C   0  0  0  0  0  0  0  0  0  0  0  0
   -5.6410    3.3974    0.7493 C   0  0  0  0  0  0  0  0  0  0  0  0
   -4.6900    4.3867    0.7846 C   0  0  0  0  0  0  0  0  0  0  0  0
   -3.5787    4.2717    1.5854 C   0  0  0  0  0  0  0  0  0  0  0  0
   -3.4565    3.1369    2.3449 C   0  0  0  0  0  0  0  0  0  0  0  0
   -4.4301    2.1315    2.3039 C   0  0  0  0  0  0  0  0  0  0  0  0
   -5.2739   -0.5596    0.3351 C   0  0  0  0  0  0  0  0  0  0  0  0
   -5.3605   -1.7371    0.8247 O   0  0  0  0  0  0  0  0  0  0  0  0
   -4.0143   -0.1371   -0.1423 N   0  0  0  0  0  0  0  0  0  0  0  0
   -2.8276   -1.0247   -0.0613 C   0  0  1  0  0  0  0  0  0  0  0  0
   -2.7995   -1.8611   -1.3179 C   0  0  0  0  0  0  0  0  0  0  0  0
   -2.7049   -1.1033   -2.5486 C   0  0  0  0  0  0  0  0  0  0  0  0
   -2.7150   -1.6971   -3.8004 O   0  0  0  0  0  0  0  0  0  0  0  0
   -2.6096    0.1550   -2.5151 O   0  0  0  0  0  0  0  0  0  0  0  0
   -1.6668   -0.1957    0.1538 C   0  0  0  0  0  0  0  0  0  0  0  0
   -1.6539    1.0680    0.1223 O   0  0  0  0  0  0  0  0  0  0  0  0
   -0.3950   -0.7887    0.4356 N   0  0  0  0  0  0  0  0  0  0  0  0
    0.7773    0.0162    0.6722 C   0  0  1  0  0  0  0  0  0  0  0  0
    1.3345   -0.1137    2.0460 C   0  0  0  0  0  0  0  0  0  0  0  0
    0.4745    0.2690    3.1905 C   0  0  0  0  0  0  0  0  0  0  0  0
    1.3470    0.0438    4.4519 C   0  0  0  0  0  0  0  0  0  0  0  0
   -0.7510   -0.5599    3.4160 C   0  0  0  0  0  0  0  0  0  0  0  0
    1.8551   -0.1955   -0.3529 C   0  0  0  0  0  0  0  0  0  0  0  0
    1.6745   -1.0511   -1.2384 O   0  0  0  0  0  0  0  0  0  0  0  0
    3.0364    0.5498   -0.3146 N   0  0  0  0  0  0  0  0  0  0  0  0
    4.1509    0.3883   -1.2862 C   0  0  1  0  0  0  0  0  0  0  0  0
    3.9954    1.5969   -2.2143 C   0  0  0  0  0  0  0  0  0  0  0  0
    5.0037    1.5974   -3.2682 C   0  0  0  0  0  0  0  0  0  0  0  0
    4.9789    2.6678   -4.1810 O   0  0  0  0  0  0  0  0  0  0  0  0
    5.8406    0.6905   -3.3461 O   0  0  0  0  0  0  0  0  0  0  0  0
    5.4112    0.3999   -0.5106 C   0  0  0  0  0  0  0  0  0  0  0  0
    5.4550    1.2918    0.4353 O   0  0  0  0  0  0  0  0  0  0  0  0
    6.5400   -0.4071   -0.6450 N   0  0  0  0  0  0  0  0  0  0  0  0
    7.7135   -0.2522    0.2586 C   0  0  1  0  0  0  0  0  0  0  0  0
    7.7166   -1.3403    1.2687 C   0  0  0  0  0  0  0  0  0  0  0  0
    8.7630   -1.3062    2.2897 C   0  0  0  0  0  0  0  0  0  0  0  0
    8.9576   -0.1347    3.0688 O   0  0  0  0  0  0  0  0  0  0  0  0
    9.5424   -2.2627    2.5522 O   0  0  0  0  0  0  0  0  0  0  0  0
    8.8909   -0.1695   -0.5729 C   0  0  0  0  0  0  0  0  0  0  0  0
    8.7140   -0.1153   -1.8607 O   0  0  0  0  0  0  0  0  0  0  0  0
   10.2364   -0.1385   -0.1879 N   0  0  0  0  0  0  0  0  0  0  0  0
   11.3001   -0.0193   -1.1959 C   0  0  1  0  0  0  0  0  0  0  0  0
   12.4260    0.7636   -0.6118 C   0  0  0  0  0  0  0  0  0  0  0  0
   11.9560    2.0924   -0.1929 C   0  0  0  0  0  0  0  0  0  0  0  0
   12.8055    2.9838    0.4176 O   0  0  0  0  0  0  0  0  0  0  0  0
   10.7468    2.4375   -0.3900 O   0  0  0  0  0  0  0  0  0  0  0  0
   11.7917   -1.3946   -1.5591 C   0  0  0  0  0  0  0  0  0  0  0  0
   12.7918   -1.5907   -2.4925 O   0  0  0  0  0  0  0  0  0  0  0  0
   11.2852   -2.3851   -1.0033 O   0  0  0  0  0  0  0  0  0  0  0  0
  -11.3391    0.0305   -2.3266 H   0  0  0  0  0  0  0  0  0  0  0  0
  -12.3241   -1.4456   -2.0237 H   0  0  0  0  0  0  0  0  0  0  0  0
  -11.5658   -1.1792   -3.5946 H   0  0  0  0  0  0  0  0  0  0  0  0
   -9.2948   -1.1910   -2.3171 H   0  0  0  0  0  0  0  0  0  0  0  0
   -8.9883   -3.0722   -3.4831 H   0  0  0  0  0  0  0  0  0  0  0  0
  -10.4205   -3.9593   -2.7263 H   0  0  0  0  0  0  0  0  0  0  0  0
  -10.6464   -2.7353   -4.0039 H   0  0  0  0  0  0  0  0  0  0  0  0
  -10.9626   -3.0278   -0.5326 H   0  0  0  0  0  0  0  0  0  0  0  0
   -9.1729   -2.9408   -0.6457 H   0  0  0  0  0  0  0  0  0  0  0  0
  -10.0814   -1.7047    1.2885 H   0  0  0  0  0  0  0  0  0  0  0  0
  -11.3001    0.3992    0.7168 H   0  0  0  0  0  0  0  0  0  0  0  0
  -12.1601   -1.0791    0.4939 H   0  0  0  0  0  0  0  0  0  0  0  0
   -7.4624   -1.5661    1.0414 H   0  0  0  0  0  0  0  0  0  0  0  0
   -6.7083    0.7527   -0.6260 H   0  0  0  0  0  0  0  0  0  0  0  0
   -7.6262    1.6839    1.3266 H   0  0  0  0  0  0  0  0  0  0  0  0
   -6.6637    0.6435    2.3997 H   0  0  0  0  0  0  0  0  0  0  0  0
   -6.5124    3.4936    0.1195 H   0  0  0  0  0  0  0  0  0  0  0  0
   -4.7729    5.2918    0.1814 H   0  0  0  0  0  0  0  0  0  0  0  0
   -2.8067    5.0305    1.6376 H   0  0  0  0  0  0  0  0  0  0  0  0
   -2.5748    3.0497    2.9746 H   0  0  0  0  0  0  0  0  0  0  0  0
   -4.3189    1.2408    2.9078 H   0  0  0  0  0  0  0  0  0  0  0  0
   -3.9349    0.8114   -0.5525 H   0  0  0  0  0  0  0  0  0  0  0  0
   -3.0213   -1.6876    0.8056 H   0  0  0  0  0  0  0  0  0  0  0  0
   -1.9788   -2.5883   -1.2212 H   0  0  0  0  0  0  0  0  0  0  0  0
   -3.7544   -2.4645   -1.2816 H   0  0  0  0  0  0  0  0  0  0  0  0
   -1.8296   -1.7068   -4.3030 H   0  0  0  0  0  0  0  0  0  0  0  0
   -0.2841   -1.8172    0.4762 H   0  0  0  0  0  0  0  0  0  0  0  0
    0.4658    1.0865    0.5579 H   0  0  0  0  0  0  0  0  0  0  0  0
    1.6672   -1.1780    2.2497 H   0  0  0  0  0  0  0  0  0  0  0  0
    2.3004    0.4631    2.1517 H   0  0  0  0  0  0  0  0  0  0  0  0
    0.2248    1.3740    3.2337 H   0  0  0  0  0  0  0  0  0  0  0  0
    2.1775    0.7570    4.4865 H   0  0  0  0  0  0  0  0  0  0  0  0
    0.6633    0.1115    5.3141 H   0  0  0  0  0  0  0  0  0  0  0  0
    1.6941   -1.0029    4.3565 H   0  0  0  0  0  0  0  0  0  0  0  0
   -0.8776   -0.8461    4.5145 H   0  0  0  0  0  0  0  0  0  0  0  0
   -0.8172   -1.4902    2.8740 H   0  0  0  0  0  0  0  0  0  0  0  0
   -1.7060    0.0173    3.2337 H   0  0  0  0  0  0  0  0  0  0  0  0
    3.1647    1.2712    0.4270 H   0  0  0  0  0  0  0  0  0  0  0  0
    4.0470   -0.5023   -1.8902 H   0  0  0  0  0  0  0  0  0  0  0  0
    3.0052    1.4010   -2.7349 H   0  0  0  0  0  0  0  0  0  0  0  0
    3.9534    2.5375   -1.6111 H   0  0  0  0  0  0  0  0  0  0  0  0
    4.6207    2.4401   -5.1244 H   0  0  0  0  0  0  0  0  0  0  0  0
    6.6015   -1.1440   -1.3601 H   0  0  0  0  0  0  0  0  0  0  0  0
    7.5835    0.7045    0.8426 H   0  0  0  0  0  0  0  0  0  0  0  0
    6.7363   -1.4573    1.7915 H   0  0  0  0  0  0  0  0  0  0  0  0
    7.8516   -2.3424    0.7389 H   0  0  0  0  0  0  0  0  0  0  0  0
    9.8667    0.3617    3.0441 H   0  0  0  0  0  0  0  0  0  0  0  0
   10.5496   -0.1971    0.7828 H   0  0  0  0  0  0  0  0  0  0  0  0
   10.9575    0.4097   -2.1422 H   0  0  0  0  0  0  0  0  0  0  0  0
   12.8884    0.2058    0.2184 H   0  0  0  0  0  0  0  0  0  0  0  0
   13.2275    0.8785   -1.3872 H   0  0  0  0  0  0  0  0  0  0  0  0
   13.6815    2.6906    0.7924 H   0  0  0  0  0  0  0  0  0  0  0  0
   12.6661   -1.2783   -3.4568 H   0  0  0  0  0  0  0  0  0  0  0  0
  1  2  1  0
  2  3  1  0
  2  4  1  0
  4  5  1  0
  5  6  1  0
  5  7  1  0
  7  8  2  0
  7  9  1  0
  9 10  1  0
 10 11  1  0
 11 12  1  0
 12 13  2  0
 13 14  1  0
 14 15  2  0
 15 16  1  0
 16 17  2  0
 10 18  1  0
 18 19  2  0
 18 20  1  0
 20 21  1  0
 21 22  1  0
 22 23  1  0
 23 24  1  0
 23 25  2  0
 21 26  1  0
 26 27  2  0
 26 28  1  0
 28 29  1  0
 29 30  1  0
 30 31  1  0
 31 32  1  0
 31 33  1  0
 29 34  1  0
 34 35  2  0
 34 36  1  0
 36 37  1  0
 37 38  1  0
 38 39  1  0
 39 40  1  0
 39 41  2  0
 37 42  1  0
 42 43  2  0
 42 44  1  0
 44 45  1  0
 45 46  1  0
 46 47  1  0
 47 48  1  0
 47 49  2  0
 45 50  1  0
 50 51  2  0
 50 52  1  0
 52 53  1  0
 53 54  1  0
 54 55  1  0
 55 56  1  0
 55 57  2  0
 53 58  1  0
 58 59  1  0
 58 60  2  0
 17 12  1  0
  1 61  1  0
  1 62  1  0
  1 63  1  0
  2 64  1  0
  3 65  1  0
  3 66  1  0
  3 67  1  0
  4 68  1  0
  4 69  1  0
  5 70  1  1
  6 71  1  0
  6 72  1  0
  9 73  1  0
 10 74  1  6
 11 75  1  0
 11 76  1  0
 13 77  1  0
 14 78  1  0
 15 79  1  0
 16 80  1  0
 17 81  1  0
 20 82  1  0
 21 83  1  1
 22 84  1  0
 22 85  1  0
 24 86  1  0
 28 87  1  0
 29 88  1  1
 30 89  1  0
 30 90  1  0
 31 91  1  0
 32 92  1  0
 32 93  1  0
 32 94  1  0
 33 95  1  0
 33 96  1  0
 33 97  1  0
 36 98  1  0
 37 99  1  6
 38100  1  0
 38101  1  0
 40102  1  0
 44103  1  0
 45104  1  1
 46105  1  0
 46106  1  0
 48107  1  0
 52108  1  0
 53109  1  6
 54110  1  0
 54111  1  0
 56112  1  0
 59113  1  0
M  END
$$$$
[H]OC([H])([H])[C@@]1([H])O[C@]([H])(n2c([H])nc3c(N([H])[H])nc([H])nc32)[C@]([H])(O[H])[C@]1([H])O[H]
     RDKit          3D

 32 34  0  0  0  0  0  0  0  0999 V2000
   -3.4993    2.2213    0.5892 O   0  0  0  0  0  0  0  0  0  0  0  0
   -3.2947    0.9348    1.0789 C   0  0  0  0  0  0  0  0  0  0  0  0
   -2.8217    0.0771   -0.0746 C   0  0  1  0  0  0  0  0  0  0  0  0
   -1.6497    0.6173   -0.5537 O   0  0  0  0  0  0  0  0  0  0  0  0
   -0.6321   -0.0965    0.0330 C   0  0  1  0  0  0  0  0  0  0  0  0
   -1.1240   -1.5336   -0.1938 C   0  0  2  0  0  0  0  0  0  0  0  0
   -1.2309   -1.8159   -1.5348 O   0  0  0  0  0  0  0  0  0  0  0  0
   -2.5537   -1.3409    0.3343 C   0  0  2  0  0  0  0  0  0  0  0  0
   -3.4283   -2.2588   -0.1818 O   0  0  0  0  0  0  0  0  0  0  0  0
    0.6581    0.1328   -0.5126 N   0  0  0  0  0  0  0  0  0  0  0  0
    1.0172    0.2464   -1.7883 C   0  0  0  0  0  0  0  0  0  0  0  0
    2.3497    0.4613   -1.8546 N   0  0  0  0  0  0  0  0  0  0  0  0
    2.8508    0.4858   -0.6057 C   0  0  0  0  0  0  0  0  0  0  0  0
    4.1116    0.6638   -0.0941 C   0  0  0  0  0  0  0  0  0  0  0  0
    5.2320    0.8787   -0.9225 N   0  0  0  0  0  0  0  0  0  0  0  0
    4.2755    0.6311    1.2334 N   0  0  0  0  0  0  0  0  0  0  0  0
    3.2530    0.4309    2.0834 C   0  0  0  0  0  0  0  0  0  0  0  0
    2.0268    0.2589    1.5621 N   0  0  0  0  0  0  0  0  0  0  0  0
    1.7813    0.2783    0.2390 C   0  0  0  0  0  0  0  0  0  0  0  0
   -4.4352    2.5143    0.7572 H   0  0  0  0  0  0  0  0  0  0  0  0
   -2.5049    1.0029    1.8750 H   0  0  0  0  0  0  0  0  0  0  0  0
   -4.2435    0.5668    1.5185 H   0  0  0  0  0  0  0  0  0  0  0  0
   -3.6389    0.0636   -0.8235 H   0  0  0  0  0  0  0  0  0  0  0  0
   -0.6690    0.0836    1.1265 H   0  0  0  0  0  0  0  0  0  0  0  0
   -0.5653   -2.2586    0.3929 H   0  0  0  0  0  0  0  0  0  0  0  0
   -0.4040   -2.0865   -1.9765 H   0  0  0  0  0  0  0  0  0  0  0  0
   -2.5011   -1.4190    1.4192 H   0  0  0  0  0  0  0  0  0  0  0  0
   -3.5067   -2.2578   -1.1480 H   0  0  0  0  0  0  0  0  0  0  0  0
    0.3840    0.1845   -2.6668 H   0  0  0  0  0  0  0  0  0  0  0  0
    5.6957    0.0515   -1.3941 H   0  0  0  0  0  0  0  0  0  0  0  0
    5.5863    1.8613   -1.0559 H   0  0  0  0  0  0  0  0  0  0  0  0
    3.4811    0.4205    3.1387 H   0  0  0  0  0  0  0  0  0  0  0  0
  1  2  1  0
  2  3  1  0
  3  4  1  0
  4  5  1  0
  5  6  1  0
  6  7  1  0
  6  8  1  0
  8  9  1  0
  5 10  1  0
 10 11  1  0
 11 12  2  0
 12 13  1  0
 13 14  2  0
 14 15  1  0
 14 16  1  0
 16 17  2  0
 17 18  1  0
 18 19  2  0
  8  3  1  0
 19 10  1  0
 19 13  1  0
  1 20  1  0
  2 21  1  0
  2 22  1  0
  3 23  1  6
  5 24  1  1
  6 25  1  1
  7 26  1  0
  8 27  1  1
  9 28  1  0
 11 29  1  0
 15 30  1  0
 15 31  1  0
 17 32  1  0
M  END
$$$$
[H]OC(=O)[C@]1(C([H])([H])[H])C([H])([H])C([H])([H])[C@]2([H])[C@]1(C([H])([H])[H])C([H])([H])C([H])([H])[C@]1([H])[C@]3(C([H])([H])[H])C(=C([H])C(=O)C([H])([H])C3([H])[H])C([H])([H])C([H])([H])[C@@]21[H]
     RDKit          3D

 54 57  0  0  0  0  0  0  0  0999 V2000
    1.8636    1.7479   -0.8832 C   0  0  0  0  0  0  0  0  0  0  0  0
    1.9423    0.2991   -0.4482 C   0  0  2  0  0  0  0  0  0  0  0  0
    1.2558   -0.6036   -1.4264 C   0  0  0  0  0  0  0  0  0  0  0  0
   -0.2252   -0.3735   -1.5026 C   0  0  0  0  0  0  0  0  0  0  0  0
   -0.8696   -0.4249   -0.1360 C   0  0  1  0  0  0  0  0  0  0  0  0
   -0.1525    0.5912    0.7124 C   0  0  1  0  0  0  0  0  0  0  0  0
   -0.8454    0.8952    2.0122 C   0  0  0  0  0  0  0  0  0  0  0  0
   -2.1244    1.5959    1.5988 C   0  0  0  0  0  0  0  0  0  0  0  0
   -2.9237    0.5521    0.8773 C   0  0  0  0  0  0  0  0  0  0  0  0
   -4.1949    0.4048    1.2066 C   0  0  0  0  0  0  0  0  0  0  0  0
   -5.0364   -0.5875    0.5509 C   0  0  0  0  0  0  0  0  0  0  0  0
   -6.2519   -0.3668    0.4132 O   0  0  0  0  0  0  0  0  0  0  0  0
   -4.3627   -1.8188    0.0844 C   0  0  0  0  0  0  0  0  0  0  0  0
   -2.9096   -1.7129   -0.0791 C   0  0  0  0  0  0  0  0  0  0  0  0
   -2.3591   -0.3029   -0.1699 C   0  0  2  0  0  0  0  0  0  0  0  0
   -2.7539    0.1985   -1.5676 C   0  0  0  0  0  0  0  0  0  0  0  0
    1.2392    0.0821    0.8775 C   0  0  2  0  0  0  0  0  0  0  0  0
    2.1023    0.7453    1.8460 C   0  0  0  0  0  0  0  0  0  0  0  0
    3.5007    0.3745    1.3625 C   0  0  0  0  0  0  0  0  0  0  0  0
    3.3320   -0.0758   -0.0989 C   0  0  2  0  0  0  0  0  0  0  0  0
    4.3725    0.7280   -0.8673 C   0  0  0  0  0  0  0  0  0  0  0  0
    3.6487   -1.5007   -0.2499 C   0  0  0  0  0  0  0  0  0  0  0  0
    3.0178   -2.4900    0.4865 O   0  0  0  0  0  0  0  0  0  0  0  0
    4.5264   -1.8507   -1.0783 O   0  0  0  0  0  0  0  0  0  0  0  0
    1.8238    2.3867    0.0302 H   0  0  0  0  0  0  0  0  0  0  0  0
    0.9987    1.9665   -1.5115 H   0  0  0  0  0  0  0  0  0  0  0  0
    2.7552    2.0891   -1.4474 H   0  0  0  0  0  0  0  0  0  0  0  0
    1.6687   -0.3438   -2.4408 H   0  0  0  0  0  0  0  0  0  0  0  0
    1.4211   -1.6496   -1.1769 H   0  0  0  0  0  0  0  0  0  0  0  0
   -0.6227   -1.2196   -2.1412 H   0  0  0  0  0  0  0  0  0  0  0  0
   -0.3791    0.5716   -2.0385 H   0  0  0  0  0  0  0  0  0  0  0  0
   -0.5514   -1.4312    0.2799 H   0  0  0  0  0  0  0  0  0  0  0  0
   -0.1144    1.5391    0.1371 H   0  0  0  0  0  0  0  0  0  0  0  0
   -0.2114    1.5683    2.5873 H   0  0  0  0  0  0  0  0  0  0  0  0
   -1.0808   -0.0598    2.5266 H   0  0  0  0  0  0  0  0  0  0  0  0
   -1.8961    2.3819    0.8470 H   0  0  0  0  0  0  0  0  0  0  0  0
   -2.6101    1.9514    2.4993 H   0  0  0  0  0  0  0  0  0  0  0  0
   -4.6084    1.0577    1.9975 H   0  0  0  0  0  0  0  0  0  0  0  0
   -4.6656   -2.6473    0.7755 H   0  0  0  0  0  0  0  0  0  0  0  0
   -4.8236   -2.0884   -0.8988 H   0  0  0  0  0  0  0  0  0  0  0  0
   -2.5094   -2.2962   -0.9491 H   0  0  0  0  0  0  0  0  0  0  0  0
   -2.4107   -2.1793    0.8180 H   0  0  0  0  0  0  0  0  0  0  0  0
   -3.8540    0.3646   -1.6383 H   0  0  0  0  0  0  0  0  0  0  0  0
   -2.5509   -0.6221   -2.2850 H   0  0  0  0  0  0  0  0  0  0  0  0
   -2.3018    1.1605   -1.8102 H   0  0  0  0  0  0  0  0  0  0  0  0
    1.1809   -0.9922    1.0780 H   0  0  0  0  0  0  0  0  0  0  0  0
    1.9916    0.2446    2.8505 H   0  0  0  0  0  0  0  0  0  0  0  0
    1.9791    1.8236    1.9850 H   0  0  0  0  0  0  0  0  0  0  0  0
    4.1091    1.2780    1.4603 H   0  0  0  0  0  0  0  0  0  0  0  0
    3.9169   -0.4827    1.9186 H   0  0  0  0  0  0  0  0  0  0  0  0
    4.5005    1.7361   -0.4224 H   0  0  0  0  0  0  0  0  0  0  0  0
    4.2093    0.7246   -1.9426 H   0  0  0  0  0  0  0  0  0  0  0  0
    5.3519    0.2020   -0.6849 H   0  0  0  0  0  0  0  0  0  0  0  0
    3.4917   -3.1407    1.0911 H   0  0  0  0  0  0  0  0  0  0  0  0
  2  1  1  6
  2  3  1  0
  3  4  1  0
  4  5  1  0
  5  6  1  0
  6  7  1  0
  7  8  1  0
  8  9  1  0
  9 10  2  0
 10 11  1  0
 11 12  2  0
 11 13  1  0
 13 14  1  0
 14 15  1  0
 15 16  1  6
  6 17  1  0
 17 18  1  0
 18 19  1  0
 19 20  1  0
 20 21  1  0
 20 22  1  1
 22 23  1  0
 22 24  2  0
 17  2  1  0
 20  2  1  0
 15  5  1  0
 15  9  1  0
  1 25  1  0
  1 26  1  0
  1 27  1  0
  3 28  1  0
  3 29  1  0
  4 30  1  0
  4 31  1  0
  5 32  1  1
  6 33  1  6
  7 34  1  0
  7 35  1  0
  8 36  1  0
  8 37  1  0
 10 38  1  0
 13 39  1  0
 13 40  1  0
 14 41  1  0
 14 42  1  0
 16 43  1  0
 16 44  1  0
 16 45  1  0
 17 46  1  1
 18 47  1  0
 18 48  1  0
 19 49  1  0
 19 50  1  0
 21 51  1  0
 21 52  1  0
 21 53  1  0
 23 54  1  0
M  END
$$$$
[H]OC(=O)C([H])([H])[C@@]([H])(C(=O)N([H])[C@@]([H])(C(=O)N1C([H])([H])C([H])([H])C([H])([H])[C@@]1([H])C(=O)N([H])[C@]([H])(C(=O)N([H])[H])C([H])([H])[H])C([H])([H])c1c([H])c([H])c(O[H])c([H])c1[H])N([H])C(=O)[C@@]([H])(N([H])C(=O)[C@]([H])(N([H])C(=O)[C@@]([H])(N([H])C(=O)[C@]([H])(N([H])C(=O)[C@@]([H])(N([H])C(=O)C([H])([H])[H])C([H])([H])[H])C([H])([H])[H])C([H])([H])c1c([H])c([H])c([H])c([H])c1[H])C([H])([H])[H])C([H])([H])c1c([H])c([H])c([H])c([H])c1[H]
     RDKit          3D

137140  0  0  0  0  0  0  0  0999 V2000
  -13.5411   -2.4468    4.2595 C   0  0  0  0  0  0  0  0  0  0  0  0
  -12.7516   -2.4495    2.9778 C   0  0  2  0  0  0  0  0  0  0  0  0
  -12.1039   -1.1505    2.8120 N   0  0  0  0  0  0  0  0  0  0  0  0
  -10.7072   -1.0027    2.8450 C   0  0  0  0  0  0  0  0  0  0  0  0
  -10.0036   -2.0407    3.0148 O   0  0  0  0  0  0  0  0  0  0  0  0
  -10.0460    0.2979    2.6899 C   0  0  2  0  0  0  0  0  0  0  0  0
  -11.0503    1.4137    2.7686 C   0  0  0  0  0  0  0  0  0  0  0  0
  -11.4496    1.6546    1.3482 C   0  0  0  0  0  0  0  0  0  0  0  0
  -10.5939    0.7069    0.5095 C   0  0  0  0  0  0  0  0  0  0  0  0
   -9.4738    0.4622    1.3623 N   0  0  0  0  0  0  0  0  0  0  0  0
   -8.0966    0.3517    1.0685 C   0  0  0  0  0  0  0  0  0  0  0  0
   -7.2895    0.0697    2.0050 O   0  0  0  0  0  0  0  0  0  0  0  0
   -7.5375    0.5418   -0.2937 C   0  0  1  0  0  0  0  0  0  0  0  0
   -7.5549    2.0083   -0.7068 C   0  0  0  0  0  0  0  0  0  0  0  0
   -7.0360    2.1766   -2.0905 C   0  0  0  0  0  0  0  0  0  0  0  0
   -5.7618    2.5285   -2.4261 C   0  0  0  0  0  0  0  0  0  0  0  0
   -5.3184    2.6387   -3.7524 C   0  0  0  0  0  0  0  0  0  0  0  0
   -6.1820    2.3878   -4.7931 C   0  0  0  0  0  0  0  0  0  0  0  0
   -5.8083    2.4783   -6.1245 O   0  0  0  0  0  0  0  0  0  0  0  0
   -7.4699    2.0340   -4.4666 C   0  0  0  0  0  0  0  0  0  0  0  0
   -7.9122    1.9234   -3.1651 C   0  0  0  0  0  0  0  0  0  0  0  0
   -6.2029   -0.0169   -0.3390 N   0  0  0  0  0  0  0  0  0  0  0  0
   -5.0327    0.4399    0.2592 C   0  0  0  0  0  0  0  0  0  0  0  0
   -5.1018    1.5048    0.9762 O   0  0  0  0  0  0  0  0  0  0  0  0
   -3.7521   -0.2420    0.0901 C   0  0  2  0  0  0  0  0  0  0  0  0
   -3.4942   -1.1781    1.2866 C   0  0  0  0  0  0  0  0  0  0  0  0
   -4.4979   -2.2325    1.4415 C   0  0  0  0  0  0  0  0  0  0  0  0
   -4.7227   -3.0998    0.3701 O   0  0  0  0  0  0  0  0  0  0  0  0
   -5.1906   -2.4295    2.4810 O   0  0  0  0  0  0  0  0  0  0  0  0
   -2.6245    0.6805    0.1262 N   0  0  0  0  0  0  0  0  0  0  0  0
   -1.3579    0.4235   -0.4374 C   0  0  0  0  0  0  0  0  0  0  0  0
   -1.1330   -0.6448   -1.0120 O   0  0  0  0  0  0  0  0  0  0  0  0
   -0.2442    1.4393   -0.3483 C   0  0  2  0  0  0  0  0  0  0  0  0
   -0.2354    2.3128   -1.5533 C   0  0  0  0  0  0  0  0  0  0  0  0
    0.7533    3.3747   -1.6350 C   0  0  0  0  0  0  0  0  0  0  0  0
    1.9422    3.2554   -2.2823 C   0  0  0  0  0  0  0  0  0  0  0  0
    2.8949    4.2454   -2.3979 C   0  0  0  0  0  0  0  0  0  0  0  0
    2.6546    5.4628   -1.8261 C   0  0  0  0  0  0  0  0  0  0  0  0
    1.4492    5.6395   -1.1496 C   0  0  0  0  0  0  0  0  0  0  0  0
    0.5174    4.6293   -1.0512 C   0  0  0  0  0  0  0  0  0  0  0  0
    0.9625    0.8192    0.0464 N   0  0  0  0  0  0  0  0  0  0  0  0
    1.8146   -0.0010   -0.7219 C   0  0  0  0  0  0  0  0  0  0  0  0
    1.5920   -0.2683   -1.9168 O   0  0  0  0  0  0  0  0  0  0  0  0
    3.0185   -0.5663   -0.0797 C   0  0  1  0  0  0  0  0  0  0  0  0
    2.5464   -1.7944    0.7540 C   0  0  0  0  0  0  0  0  0  0  0  0
    4.0697   -0.9713   -0.9625 N   0  0  0  0  0  0  0  0  0  0  0  0
    5.4172   -0.7148   -0.4794 C   0  0  0  0  0  0  0  0  0  0  0  0
    5.5286   -0.1652    0.6734 O   0  0  0  0  0  0  0  0  0  0  0  0
    6.6257   -1.0441   -1.2109 C   0  0  2  0  0  0  0  0  0  0  0  0
    6.7514   -2.5254   -1.5601 C   0  0  0  0  0  0  0  0  0  0  0  0
    6.7813   -3.3561   -0.3461 C   0  0  0  0  0  0  0  0  0  0  0  0
    5.6703   -3.9651    0.2022 C   0  0  0  0  0  0  0  0  0  0  0  0
    5.7089   -4.7181    1.3498 C   0  0  0  0  0  0  0  0  0  0  0  0
    6.9019   -4.9006    2.0230 C   0  0  0  0  0  0  0  0  0  0  0  0
    8.0275   -4.2901    1.4760 C   0  0  0  0  0  0  0  0  0  0  0  0
    7.9783   -3.5451    0.3353 C   0  0  0  0  0  0  0  0  0  0  0  0
    7.7740   -0.7007   -0.3627 N   0  0  0  0  0  0  0  0  0  0  0  0
    8.9107   -0.0783   -0.8941 C   0  0  0  0  0  0  0  0  0  0  0  0
    8.9525    0.1671   -2.1209 O   0  0  0  0  0  0  0  0  0  0  0  0
   10.0482    0.2804   -0.0246 C   0  0  1  0  0  0  0  0  0  0  0  0
    9.9464   -0.3623    1.3729 C   0  0  0  0  0  0  0  0  0  0  0  0
   11.2972   -0.0400   -0.6336 N   0  0  0  0  0  0  0  0  0  0  0  0
   12.4681    0.7203   -0.3598 C   0  0  0  0  0  0  0  0  0  0  0  0
   12.3845    1.6915    0.4241 O   0  0  0  0  0  0  0  0  0  0  0  0
   13.7701    0.3744   -0.9724 C   0  0  2  0  0  0  0  0  0  0  0  0
   13.7684   -1.0933   -1.4016 C   0  0  0  0  0  0  0  0  0  0  0  0
   14.7902    0.5583    0.0204 N   0  0  0  0  0  0  0  0  0  0  0  0
   15.8815    1.4022   -0.1284 C   0  0  0  0  0  0  0  0  0  0  0  0
   16.8794    1.4963    1.0020 C   0  0  0  0  0  0  0  0  0  0  0  0
   16.0881    2.0892   -1.1454 O   0  0  0  0  0  0  0  0  0  0  0  0
  -13.5129   -2.8553    1.7977 C   0  0  0  0  0  0  0  0  0  0  0  0
  -14.2233   -4.0912    1.8178 N   0  0  0  0  0  0  0  0  0  0  0  0
  -13.5917   -2.1740    0.7334 O   0  0  0  0  0  0  0  0  0  0  0  0
  -14.5551   -2.0164    4.0666 H   0  0  0  0  0  0  0  0  0  0  0  0
  -13.0387   -1.7051    4.9430 H   0  0  0  0  0  0  0  0  0  0  0  0
  -13.6078   -3.4428    4.7432 H   0  0  0  0  0  0  0  0  0  0  0  0
  -11.9259   -3.2033    3.1245 H   0  0  0  0  0  0  0  0  0  0  0  0
  -12.7201   -0.3429    2.6651 H   0  0  0  0  0  0  0  0  0  0  0  0
   -9.2346    0.4362    3.4679 H   0  0  0  0  0  0  0  0  0  0  0  0
  -11.8729    1.2210    3.4721 H   0  0  0  0  0  0  0  0  0  0  0  0
  -10.4575    2.3204    3.0880 H   0  0  0  0  0  0  0  0  0  0  0  0
  -12.5203    1.4740    1.1440 H   0  0  0  0  0  0  0  0  0  0  0  0
  -11.1932    2.6923    1.0026 H   0  0  0  0  0  0  0  0  0  0  0  0
  -10.4114    1.0784   -0.4836 H   0  0  0  0  0  0  0  0  0  0  0  0
  -11.1417   -0.2874    0.4463 H   0  0  0  0  0  0  0  0  0  0  0  0
   -8.2090    0.0150   -1.0072 H   0  0  0  0  0  0  0  0  0  0  0  0
   -8.5717    2.3976   -0.6475 H   0  0  0  0  0  0  0  0  0  0  0  0
   -6.8946    2.6412   -0.0566 H   0  0  0  0  0  0  0  0  0  0  0  0
   -5.0554    2.7593   -1.6411 H   0  0  0  0  0  0  0  0  0  0  0  0
   -4.3140    2.9130   -3.9979 H   0  0  0  0  0  0  0  0  0  0  0  0
   -4.9201    2.7286   -6.4877 H   0  0  0  0  0  0  0  0  0  0  0  0
   -8.1573    1.8342   -5.2978 H   0  0  0  0  0  0  0  0  0  0  0  0
   -8.9185    1.6469   -2.9223 H   0  0  0  0  0  0  0  0  0  0  0  0
   -6.1118   -0.9112   -0.9192 H   0  0  0  0  0  0  0  0  0  0  0  0
   -3.7570   -0.9168   -0.7673 H   0  0  0  0  0  0  0  0  0  0  0  0
   -2.4954   -1.6595    1.1640 H   0  0  0  0  0  0  0  0  0  0  0  0
   -3.4736   -0.5716    2.2139 H   0  0  0  0  0  0  0  0  0  0  0  0
   -3.9398   -3.3943   -0.2262 H   0  0  0  0  0  0  0  0  0  0  0  0
   -2.7844    1.5819    0.6073 H   0  0  0  0  0  0  0  0  0  0  0  0
   -0.5432    2.1299    0.5125 H   0  0  0  0  0  0  0  0  0  0  0  0
   -0.0839    1.5973   -2.4329 H   0  0  0  0  0  0  0  0  0  0  0  0
   -1.2864    2.6987   -1.7755 H   0  0  0  0  0  0  0  0  0  0  0  0
    2.2048    2.3240   -2.7730 H   0  0  0  0  0  0  0  0  0  0  0  0
    3.8256    4.0834   -2.9299 H   0  0  0  0  0  0  0  0  0  0  0  0
    3.3902    6.2863   -1.8936 H   0  0  0  0  0  0  0  0  0  0  0  0
    1.3262    6.6345   -0.7241 H   0  0  0  0  0  0  0  0  0  0  0  0
   -0.3978    4.8466   -0.5107 H   0  0  0  0  0  0  0  0  0  0  0  0
    1.3303    0.9575    1.0623 H   0  0  0  0  0  0  0  0  0  0  0  0
    3.3602    0.1326    0.7160 H   0  0  0  0  0  0  0  0  0  0  0  0
    2.3253   -2.6505    0.0798 H   0  0  0  0  0  0  0  0  0  0  0  0
    3.3881   -2.0006    1.4348 H   0  0  0  0  0  0  0  0  0  0  0  0
    1.6654   -1.4901    1.3410 H   0  0  0  0  0  0  0  0  0  0  0  0
    3.8994   -1.4110   -1.8632 H   0  0  0  0  0  0  0  0  0  0  0  0
    6.7217   -0.4310   -2.1214 H   0  0  0  0  0  0  0  0  0  0  0  0
    7.6306   -2.6614   -2.2045 H   0  0  0  0  0  0  0  0  0  0  0  0
    5.8094   -2.7892   -2.1159 H   0  0  0  0  0  0  0  0  0  0  0  0
    4.7303   -3.8386   -0.3087 H   0  0  0  0  0  0  0  0  0  0  0  0
    4.8282   -5.1893    1.7504 H   0  0  0  0  0  0  0  0  0  0  0  0
    6.9785   -5.4771    2.9234 H   0  0  0  0  0  0  0  0  0  0  0  0
    8.9830   -4.4145    1.9903 H   0  0  0  0  0  0  0  0  0  0  0  0
    8.8878   -3.0861   -0.0556 H   0  0  0  0  0  0  0  0  0  0  0  0
    7.7197   -0.9378    0.6436 H   0  0  0  0  0  0  0  0  0  0  0  0
   10.0413    1.3862    0.1977 H   0  0  0  0  0  0  0  0  0  0  0  0
    8.9954   -0.0050    1.8023 H   0  0  0  0  0  0  0  0  0  0  0  0
   10.0832   -1.4385    1.3495 H   0  0  0  0  0  0  0  0  0  0  0  0
   10.7822    0.1291    1.9657 H   0  0  0  0  0  0  0  0  0  0  0  0
   11.4033   -0.8488   -1.3109 H   0  0  0  0  0  0  0  0  0  0  0  0
   13.9355    0.9618   -1.8833 H   0  0  0  0  0  0  0  0  0  0  0  0
   14.8301   -1.3992   -1.4795 H   0  0  0  0  0  0  0  0  0  0  0  0
   13.2844   -1.1876   -2.3996 H   0  0  0  0  0  0  0  0  0  0  0  0
   13.2441   -1.7332   -0.6590 H   0  0  0  0  0  0  0  0  0  0  0  0
   14.6681    0.0064    0.9077 H   0  0  0  0  0  0  0  0  0  0  0  0
   16.3402    1.2175    1.9366 H   0  0  0  0  0  0  0  0  0  0  0  0
   17.2559    2.5276    1.1401 H   0  0  0  0  0  0  0  0  0  0  0  0
   17.7376    0.8517    0.7808 H   0  0  0  0  0  0  0  0  0  0  0  0
  -15.1071   -4.1695    2.3597 H   0  0  0  0  0  0  0  0  0  0  0  0
  -13.8653   -4.9151    1.3046 H   0  0  0  0  0  0  0  0  0  0  0  0
  1  2  1  0
  2  3  1  0
  3  4  1  0
  4  5  2  0
  4  6  1  0
  6  7  1  0
  7  8  1  0
  8  9  1  0
  9 10  1  0
 10 11  1  0
 11 12  2  0
 11 13  1  0
 13 14  1  0
 14 15  1  0
 15 16  2  0
 16 17  1  0
 17 18  2  0
 18 19  1  0
 18 20  1  0
 20 21  2  0
 13 22  1  0
 22 23  1  0
 23 24  2  0
 23 25  1  0
 25 26  1  0
 26 27  1  0
 27 28  1  0
 27 29  2  0
 25 30  1  0
 30 31  1  0
 31 32  2  0
 31 33  1  0
 33 34  1  0
 34 35  1  0
 35 36  2  0
 36 37  1  0
 37 38  2  0
 38 39  1  0
 39 40  2  0
 33 41  1  0
 41 42  1  0
 42 43  2  0
 42 44  1  0
 44 45  1  0
 44 46  1  0
 46 47  1  0
 47 48  2  0
 47 49  1  0
 49 50  1  0
 50 51  1  0
 51 52  2  0
 52 53  1  0
 53 54  2  0
 54 55  1  0
 55 56  2  0
 49 57  1  0
 57 58  1  0
 58 59  2  0
 58 60  1  0
 60 61  1  0
 60 62  1  0
 62 63  1  0
 63 64  2  0
 63 65  1  0
 65 66  1  0
 65 67  1  0
 67 68  1  0
 68 69  1  0
 68 70  2  0
  2 71  1  0
 71 72  1  0
 71 73  2  0
 10  6  1  0
 21 15  1  0
 40 35  1  0
 56 51  1  0
  1 74  1  0
  1 75  1  0
  1 76  1  0
  2 77  1  1
  3 78  1  0
  6 79  1  1
  7 80  1  0
  7 81  1  0
  8 82  1  0
  8 83  1  0
  9 84  1  0
  9 85  1  0
 13 86  1  6
 14 87  1  0
 14 88  1  0
 16 89  1  0
 17 90  1  0
 19 91  1  0
 20 92  1  0
 21 93  1  0
 22 94  1  0
 25 95  1  6
 26 96  1  0
 26 97  1  0
 28 98  1  0
 30 99  1  0
 33100  1  1
 34101  1  0
 34102  1  0
 36103  1  0
 37104  1  0
 38105  1  0
 39106  1  0
 40107  1  0
 41108  1  0
 44109  1  1
 45110  1  0
 45111  1  0
 45112  1  0
 46113  1  0
 49114  1  6
 50115  1  0
 50116  1  0
 52117  1  0
 53118  1  0
 54119  1  0
 55120  1  0
 56121  1  0
 57122  1  0
 60123  1  1
 61124  1  0
 61125  1  0
 61126  1  0
 62127  1  0
 65128  1  6
 66129  1  0
 66130  1  0
 66131  1  0
 67132  1  0
 69133  1  0
 69134  1  0
 69135  1  0
 72136  1  0
 72137  1  0
M  END
$$$$
[H]OC(=O)C([H])([H])[C@@]([H])(C(=O)N([H])[C@]([H])(C(=O)N([H])[H])C([H])([H])c1c([H])c([H])c([H])c([H])c1[H])N([H])C(=O)[C@@]([H])(N([H])C(=O)[C@@]([H])(N([H])C(=O)[C@@]([H])(N([H])C(=O)[C@@]([H])(N([H])[H])C([H])([H])c1c([H])c([H])c([H])c([H])c1[H])[C@@]([H])(C([H])([H])[H])C([H])([H])C([H])([H])[H])C([H])([H])c1c([H])c([H])c([H])c([H])c1[H])C([H])([H])c1c([H])c([H])c([H])c([H])c1[H]
     RDKit          3D

116119  0  0  0  0  0  0  0  0999 V2000
    3.2173    2.6885   -1.7715 C   0  0  0  0  0  0  0  0  0  0  0  0
    4.3987    3.0359   -0.9404 C   0  0  0  0  0  0  0  0  0  0  0  0
    5.5534    2.1114   -0.9789 C   0  0  2  0  0  0  0  0  0  0  0  0
    6.1494    1.9026   -2.3565 C   0  0  0  0  0  0  0  0  0  0  0  0
    5.4453    0.8490   -0.1685 C   0  0  2  0  0  0  0  0  0  0  0  0
    6.7119    0.1030   -0.3741 N   0  0  0  0  0  0  0  0  0  0  0  0
    7.6903   -0.0001    0.6095 C   0  0  0  0  0  0  0  0  0  0  0  0
    7.4697    0.5825    1.7246 O   0  0  0  0  0  0  0  0  0  0  0  0
    8.9683   -0.7173    0.5016 C   0  0  1  0  0  0  0  0  0  0  0  0
    9.1140   -1.3959   -0.7763 N   0  0  0  0  0  0  0  0  0  0  0  0
   10.0737    0.2994    0.7111 C   0  0  0  0  0  0  0  0  0  0  0  0
   11.4256   -0.2572    0.6375 C   0  0  0  0  0  0  0  0  0  0  0  0
   12.0997   -0.3301   -0.5641 C   0  0  0  0  0  0  0  0  0  0  0  0
   13.3864   -0.8580   -0.5978 C   0  0  0  0  0  0  0  0  0  0  0  0
   14.0147   -1.3178    0.5594 C   0  0  0  0  0  0  0  0  0  0  0  0
   13.3399   -1.2439    1.7580 C   0  0  0  0  0  0  0  0  0  0  0  0
   12.0564   -0.7158    1.7834 C   0  0  0  0  0  0  0  0  0  0  0  0
    4.2986   -0.0002   -0.4544 C   0  0  0  0  0  0  0  0  0  0  0  0
    4.3459   -0.8261   -1.3932 O   0  0  0  0  0  0  0  0  0  0  0  0
    3.1176    0.0829    0.3148 N   0  0  0  0  0  0  0  0  0  0  0  0
    1.9530   -0.7899    0.0051 C   0  0  1  0  0  0  0  0  0  0  0  0
    2.0985   -1.9223    0.9692 C   0  0  0  0  0  0  0  0  0  0  0  0
    1.0983   -2.9834    0.8954 C   0  0  0  0  0  0  0  0  0  0  0  0
    1.2538   -4.0462    0.0078 C   0  0  0  0  0  0  0  0  0  0  0  0
    0.3569   -5.0937   -0.0689 C   0  0  0  0  0  0  0  0  0  0  0  0
   -0.7359   -5.0600    0.7863 C   0  0  0  0  0  0  0  0  0  0  0  0
   -0.9145   -4.0247    1.6714 C   0  0  0  0  0  0  0  0  0  0  0  0
    0.0030   -2.9961    1.7187 C   0  0  0  0  0  0  0  0  0  0  0  0
    0.7481    0.0119    0.0801 C   0  0  0  0  0  0  0  0  0  0  0  0
    0.8740    1.1919    0.5774 O   0  0  0  0  0  0  0  0  0  0  0  0
   -0.5668   -0.3186   -0.3301 N   0  0  0  0  0  0  0  0  0  0  0  0
   -1.6632    0.6704   -0.1807 C   0  0  1  0  0  0  0  0  0  0  0  0
   -1.6897    1.4108   -1.4674 C   0  0  0  0  0  0  0  0  0  0  0  0
   -2.6620    2.4873   -1.6321 C   0  0  0  0  0  0  0  0  0  0  0  0
   -3.8547    2.3534   -2.3015 C   0  0  0  0  0  0  0  0  0  0  0  0
   -4.7528    3.3964   -2.4368 C   0  0  0  0  0  0  0  0  0  0  0  0
   -4.4953    4.6356   -1.9017 C   0  0  0  0  0  0  0  0  0  0  0  0
   -3.2982    4.8020   -1.2197 C   0  0  0  0  0  0  0  0  0  0  0  0
   -2.4158    3.7516   -1.0956 C   0  0  0  0  0  0  0  0  0  0  0  0
   -2.8586    0.0944    0.3649 C   0  0  0  0  0  0  0  0  0  0  0  0
   -2.8423   -1.1992    0.5130 O   0  0  0  0  0  0  0  0  0  0  0  0
   -4.0563    0.6807    0.7854 N   0  0  0  0  0  0  0  0  0  0  0  0
   -5.1731   -0.1301    1.3762 C   0  0  1  0  0  0  0  0  0  0  0  0
   -5.2743    0.2041    2.8315 C   0  0  0  0  0  0  0  0  0  0  0  0
   -6.2734   -0.6259    3.5191 C   0  0  0  0  0  0  0  0  0  0  0  0
   -6.6953   -1.8677    3.0430 O   0  0  0  0  0  0  0  0  0  0  0  0
   -6.8143   -0.2435    4.6134 O   0  0  0  0  0  0  0  0  0  0  0  0
   -6.3472    0.2793    0.6115 C   0  0  0  0  0  0  0  0  0  0  0  0
   -6.1992    0.3970   -0.6660 O   0  0  0  0  0  0  0  0  0  0  0  0
   -7.6435    0.5810    1.0617 N   0  0  0  0  0  0  0  0  0  0  0  0
   -8.6950    1.0086    0.1299 C   0  0  1  0  0  0  0  0  0  0  0  0
   -9.9686    0.2591    0.2728 C   0  0  0  0  0  0  0  0  0  0  0  0
   -9.9055   -1.1903    0.0357 C   0  0  0  0  0  0  0  0  0  0  0  0
   -9.6612   -2.0913    1.0406 C   0  0  0  0  0  0  0  0  0  0  0  0
   -9.6318   -3.4493    0.7583 C   0  0  0  0  0  0  0  0  0  0  0  0
   -9.8471   -3.9083   -0.5320 C   0  0  0  0  0  0  0  0  0  0  0  0
  -10.0928   -3.0182   -1.5490 C   0  0  0  0  0  0  0  0  0  0  0  0
  -10.1149   -1.6798   -1.2344 C   0  0  0  0  0  0  0  0  0  0  0  0
   -8.9122    2.4740    0.4218 C   0  0  0  0  0  0  0  0  0  0  0  0
   -9.8754    3.2077   -0.3052 N   0  0  0  0  0  0  0  0  0  0  0  0
   -8.2529    3.0771    1.3069 O   0  0  0  0  0  0  0  0  0  0  0  0
    2.2416    2.8833   -1.2798 H   0  0  0  0  0  0  0  0  0  0  0  0
    3.1996    3.4080   -2.6553 H   0  0  0  0  0  0  0  0  0  0  0  0
    3.3091    1.7033   -2.2452 H   0  0  0  0  0  0  0  0  0  0  0  0
    4.6995    4.0982   -1.1752 H   0  0  0  0  0  0  0  0  0  0  0  0
    4.0667    3.0933    0.1396 H   0  0  0  0  0  0  0  0  0  0  0  0
    6.3968    2.6924   -0.4423 H   0  0  0  0  0  0  0  0  0  0  0  0
    7.2170    1.6249   -2.2499 H   0  0  0  0  0  0  0  0  0  0  0  0
    5.9352    2.7124   -3.0473 H   0  0  0  0  0  0  0  0  0  0  0  0
    5.6379    0.9812   -2.7658 H   0  0  0  0  0  0  0  0  0  0  0  0
    5.4854    1.1813    0.9067 H   0  0  0  0  0  0  0  0  0  0  0  0
    6.8253   -0.3400   -1.2988 H   0  0  0  0  0  0  0  0  0  0  0  0
    8.9935   -1.4997    1.2858 H   0  0  0  0  0  0  0  0  0  0  0  0
    8.1809   -1.8327   -0.9861 H   0  0  0  0  0  0  0  0  0  0  0  0
    9.8543   -2.1288   -0.7508 H   0  0  0  0  0  0  0  0  0  0  0  0
    9.8969    0.7628    1.7142 H   0  0  0  0  0  0  0  0  0  0  0  0
    9.9530    1.1402   -0.0076 H   0  0  0  0  0  0  0  0  0  0  0  0
   11.6540    0.0141   -1.4962 H   0  0  0  0  0  0  0  0  0  0  0  0
   13.9011   -0.9068   -1.5514 H   0  0  0  0  0  0  0  0  0  0  0  0
   15.0348   -1.7312    0.5072 H   0  0  0  0  0  0  0  0  0  0  0  0
   13.8513   -1.6074    2.6441 H   0  0  0  0  0  0  0  0  0  0  0  0
   11.5634   -0.6788    2.7560 H   0  0  0  0  0  0  0  0  0  0  0  0
    3.0270    0.7430    1.1037 H   0  0  0  0  0  0  0  0  0  0  0  0
    2.1169   -1.1981   -1.0063 H   0  0  0  0  0  0  0  0  0  0  0  0
    3.0891   -2.4140    0.7069 H   0  0  0  0  0  0  0  0  0  0  0  0
    2.2763   -1.5676    2.0162 H   0  0  0  0  0  0  0  0  0  0  0  0
    2.1005   -4.0941   -0.6699 H   0  0  0  0  0  0  0  0  0  0  0  0
    0.4539   -5.9278   -0.7449 H   0  0  0  0  0  0  0  0  0  0  0  0
   -1.4576   -5.8641    0.7525 H   0  0  0  0  0  0  0  0  0  0  0  0
   -1.7574   -3.9818    2.3419 H   0  0  0  0  0  0  0  0  0  0  0  0
   -0.1766   -2.1900    2.4361 H   0  0  0  0  0  0  0  0  0  0  0  0
   -0.7871   -1.2210   -0.7319 H   0  0  0  0  0  0  0  0  0  0  0  0
   -1.2351    1.4246    0.5679 H   0  0  0  0  0  0  0  0  0  0  0  0
   -0.6593    1.8821   -1.5700 H   0  0  0  0  0  0  0  0  0  0  0  0
   -1.7170    0.7168   -2.3557 H   0  0  0  0  0  0  0  0  0  0  0  0
   -4.0793    1.3781   -2.7344 H   0  0  0  0  0  0  0  0  0  0  0  0
   -5.6875    3.2549   -2.9730 H   0  0  0  0  0  0  0  0  0  0  0  0
   -5.2063    5.4424   -2.0151 H   0  0  0  0  0  0  0  0  0  0  0  0
   -3.1138    5.7867   -0.8057 H   0  0  0  0  0  0  0  0  0  0  0  0
   -1.4825    3.9032   -0.5555 H   0  0  0  0  0  0  0  0  0  0  0  0
   -4.2279    1.6843    0.7164 H   0  0  0  0  0  0  0  0  0  0  0  0
   -4.9016   -1.2015    1.3102 H   0  0  0  0  0  0  0  0  0  0  0  0
   -5.6042    1.2663    2.9800 H   0  0  0  0  0  0  0  0  0  0  0  0
   -4.2736    0.0954    3.3459 H   0  0  0  0  0  0  0  0  0  0  0  0
   -6.5865   -2.1269    2.0597 H   0  0  0  0  0  0  0  0  0  0  0  0
   -7.8938    0.5254    2.0544 H   0  0  0  0  0  0  0  0  0  0  0  0
   -8.2635    0.9659   -0.8833 H   0  0  0  0  0  0  0  0  0  0  0  0
  -10.4019    0.3954    1.3108 H   0  0  0  0  0  0  0  0  0  0  0  0
  -10.7320    0.7517   -0.3978 H   0  0  0  0  0  0  0  0  0  0  0  0
   -9.4867   -1.7552    2.0762 H   0  0  0  0  0  0  0  0  0  0  0  0
   -9.4364   -4.1488    1.5727 H   0  0  0  0  0  0  0  0  0  0  0  0
   -9.8223   -4.9868   -0.7408 H   0  0  0  0  0  0  0  0  0  0  0  0
  -10.2576   -3.4020   -2.5463 H   0  0  0  0  0  0  0  0  0  0  0  0
  -10.3088   -0.9806   -2.0414 H   0  0  0  0  0  0  0  0  0  0  0  0
  -10.1334    4.1860   -0.0657 H   0  0  0  0  0  0  0  0  0  0  0  0
  -10.3499    2.7592   -1.1113 H   0  0  0  0  0  0  0  0  0  0  0  0
  1  2  1  0
  2  3  1  0
  3  4  1  0
  3  5  1  0
  5  6  1  0
  6  7  1  0
  7  8  2  0
  7  9  1  0
  9 10  1  0
  9 11  1  0
 11 12  1  0
 12 13  2  0
 13 14  1  0
 14 15  2  0
 15 16  1  0
 16 17  2  0
  5 18  1  0
 18 19  2  0
 18 20  1  0
 20 21  1  0
 21 22  1  0
 22 23  1  0
 23 24  2  0
 24 25  1  0
 25 26  2  0
 26 27  1  0
 27 28  2  0
 21 29  1  0
 29 30  2  0
 29 31  1  0
 31 32  1  0
 32 33  1  0
 33 34  1  0
 34 35  2  0
 35 36  1  0
 36 37  2  0
 37 38  1  0
 38 39  2  0
 32 40  1  0
 40 41  2  0
 40 42  1  0
 42 43  1  0
 43 44  1  0
 44 45  1  0
 45 46  1  0
 45 47  2  0
 43 48  1  0
 48 49  2  0
 48 50  1  0
 50 51  1  0
 51 52  1  0
 52 53  1  0
 53 54  2  0
 54 55  1  0
 55 56  2  0
 56 57  1  0
 57 58  2  0
 51 59  1  0
 59 60  1  0
 59 61  2  0
 17 12  1  0
 28 23  1  0
 39 34  1  0
 58 53  1  0
  1 62  1  0
  1 63  1  0
  1 64  1  0
  2 65  1  0
  2 66  1  0
  3 67  1  1
  4 68  1  0
  4 69  1  0
  4 70  1  0
  5 71  1  1
  6 72  1  0
  9 73  1  1
 10 74  1  0
 10 75  1  0
 11 76  1  0
 11 77  1  0
 13 78  1  0
 14 79  1  0
 15 80  1  0
 16 81  1  0
 17 82  1  0
 20 83  1  0
 21 84  1  6
 22 85  1  0
 22 86  1  0
 24 87  1  0
 25 88  1  0
 26 89  1  0
 27 90  1  0
 28 91  1  0
 31 92  1  0
 32 93  1  1
 33 94  1  0
 33 95  1  0
 35 96  1  0
 36 97  1  0
 37 98  1  0
 38 99  1  0
 39100  1  0
 42101  1  0
 43102  1  1
 44103  1  0
 44104  1  0
 46105  1  0
 50106  1  0
 51107  1  6
 52108  1  0
 52109  1  0
 54110  1  0
 55111  1  0
 56112  1  0
 57113  1  0
 58114  1  0
 60115  1  0
 60116  1  0
M  END
$$$$
[H]N=C(N([H])[H])N([H])C([H])([H])C([H])([H])C([H])([H])[C@@]([H])(C(=N[H])N([H])[H])N([H])C(=O)[C@@]([H])(N([H])C(=O)[C@@]([H])(N([H])C(=O)[C@@]([H])(N([H])C(=O)[C@@]([H])(N([H])[H])C([H])([H])c1c([H])c([H])c(O[H])c([H])c1[H])C([H])([H])C([H])(C([H])([H])[H])C([H])([H])[H])C([H])([H])c1c([H])c([H])c([H])c([H])c1[H])C([H])([H])c1c([H])c([H])c([H])c([H])c1[H]
     RDKit          3D

108110  0  0  0  0  0  0  0  0999 V2000
    3.0107    4.4354   -1.2018 C   0  0  0  0  0  0  0  0  0  0  0  0
    2.9796    3.4530   -0.0191 C   0  0  0  0  0  0  0  0  0  0  0  0
    3.4344    4.2523    1.1806 C   0  0  0  0  0  0  0  0  0  0  0  0
    3.9150    2.3411   -0.3510 C   0  0  0  0  0  0  0  0  0  0  0  0
    4.0831    1.2481    0.6330 C   0  0  2  0  0  0  0  0  0  0  0  0
    5.0811    0.3198    0.0192 N   0  0  0  0  0  0  0  0  0  0  0  0
    6.0208   -0.3500    0.8228 C   0  0  0  0  0  0  0  0  0  0  0  0
    5.9722   -0.1342    2.0741 O   0  0  0  0  0  0  0  0  0  0  0  0
    7.0203   -1.2650    0.2578 C   0  0  1  0  0  0  0  0  0  0  0  0
    7.6391   -2.0453    1.3035 N   0  0  0  0  0  0  0  0  0  0  0  0
    6.4446   -2.1174   -0.8369 C   0  0  0  0  0  0  0  0  0  0  0  0
    7.5363   -3.0030   -1.3187 C   0  0  0  0  0  0  0  0  0  0  0  0
    8.4085   -2.5566   -2.2861 C   0  0  0  0  0  0  0  0  0  0  0  0
    9.4244   -3.3436   -2.7702 C   0  0  0  0  0  0  0  0  0  0  0  0
    9.5674   -4.6346   -2.2581 C   0  0  0  0  0  0  0  0  0  0  0  0
   10.5678   -5.5042   -2.6875 O   0  0  0  0  0  0  0  0  0  0  0  0
    8.7010   -5.1047   -1.2842 C   0  0  0  0  0  0  0  0  0  0  0  0
    7.6764   -4.2774   -0.8119 C   0  0  0  0  0  0  0  0  0  0  0  0
    2.8614    0.4562    0.9392 C   0  0  0  0  0  0  0  0  0  0  0  0
    2.8823   -0.7700    0.5851 O   0  0  0  0  0  0  0  0  0  0  0  0
    1.7107    0.9241    1.5742 N   0  0  0  0  0  0  0  0  0  0  0  0
    0.5866   -0.0003    1.8126 C   0  0  1  0  0  0  0  0  0  0  0  0
   -0.0421    0.1656    3.1251 C   0  0  0  0  0  0  0  0  0  0  0  0
   -0.6195    1.4765    3.4443 C   0  0  0  0  0  0  0  0  0  0  0  0
    0.0737    2.4976    4.0289 C   0  0  0  0  0  0  0  0  0  0  0  0
   -0.5294    3.6880    4.2983 C   0  0  0  0  0  0  0  0  0  0  0  0
   -1.8559    3.9466    4.0071 C   0  0  0  0  0  0  0  0  0  0  0  0
   -2.5620    2.9257    3.4192 C   0  0  0  0  0  0  0  0  0  0  0  0
   -1.9570    1.7008    3.1380 C   0  0  0  0  0  0  0  0  0  0  0  0
   -0.2792   -0.0994    0.6255 C   0  0  0  0  0  0  0  0  0  0  0  0
    0.0571    0.5954   -0.3895 O   0  0  0  0  0  0  0  0  0  0  0  0
   -1.4187   -0.8798    0.5049 N   0  0  0  0  0  0  0  0  0  0  0  0
   -2.2732   -1.0361   -0.6456 C   0  0  1  0  0  0  0  0  0  0  0  0
   -2.6093   -2.4626   -0.8397 C   0  0  0  0  0  0  0  0  0  0  0  0
   -1.4558   -3.3537   -1.0508 C   0  0  0  0  0  0  0  0  0  0  0  0
   -0.8860   -3.9510    0.0628 C   0  0  0  0  0  0  0  0  0  0  0  0
    0.1952   -4.7873   -0.1138 C   0  0  0  0  0  0  0  0  0  0  0  0
    0.6872   -5.0119   -1.3893 C   0  0  0  0  0  0  0  0  0  0  0  0
    0.1239   -4.4187   -2.5095 C   0  0  0  0  0  0  0  0  0  0  0  0
   -0.9597   -3.5833   -2.3153 C   0  0  0  0  0  0  0  0  0  0  0  0
   -3.4905   -0.1764   -0.5525 C   0  0  0  0  0  0  0  0  0  0  0  0
   -3.3539    0.9874   -0.1067 O   0  0  0  0  0  0  0  0  0  0  0  0
   -4.7791   -0.6137   -0.9376 N   0  0  0  0  0  0  0  0  0  0  0  0
   -5.9249    0.3136   -0.8055 C   0  0  1  0  0  0  0  0  0  0  0  0
   -6.8188    0.1865   -1.9876 C   0  0  0  0  0  0  0  0  0  0  0  0
   -7.9852    1.1125   -1.9036 C   0  0  0  0  0  0  0  0  0  0  0  0
   -7.6154    2.5737   -1.8427 C   0  0  0  0  0  0  0  0  0  0  0  0
   -8.7942    3.4131   -1.7925 N   0  0  0  0  0  0  0  0  0  0  0  0
   -9.6822    3.4897   -0.7012 C   0  0  0  0  0  0  0  0  0  0  0  0
  -10.6299    2.4637   -0.5019 N   0  0  0  0  0  0  0  0  0  0  0  0
   -9.6427    4.4800    0.1079 N   0  0  0  0  0  0  0  0  0  0  0  0
   -6.5925   -0.0233    0.4947 C   0  0  0  0  0  0  0  0  0  0  0  0
   -7.2132   -1.2604    0.7045 N   0  0  0  0  0  0  0  0  0  0  0  0
   -6.5743    0.8604    1.4422 N   0  0  0  0  0  0  0  0  0  0  0  0
    2.1872    4.1609   -1.8973 H   0  0  0  0  0  0  0  0  0  0  0  0
    3.9843    4.3588   -1.7109 H   0  0  0  0  0  0  0  0  0  0  0  0
    2.8071    5.4466   -0.8232 H   0  0  0  0  0  0  0  0  0  0  0  0
    1.9468    3.1343    0.0845 H   0  0  0  0  0  0  0  0  0  0  0  0
    4.3909    4.7771    0.9805 H   0  0  0  0  0  0  0  0  0  0  0  0
    2.6892    5.0390    1.4079 H   0  0  0  0  0  0  0  0  0  0  0  0
    3.5472    3.6215    2.0790 H   0  0  0  0  0  0  0  0  0  0  0  0
    4.9514    2.7594   -0.5373 H   0  0  0  0  0  0  0  0  0  0  0  0
    3.6438    1.8969   -1.3425 H   0  0  0  0  0  0  0  0  0  0  0  0
    4.4737    1.5682    1.6146 H   0  0  0  0  0  0  0  0  0  0  0  0
    5.0577    0.1890   -1.0165 H   0  0  0  0  0  0  0  0  0  0  0  0
    7.8723   -0.6605   -0.1843 H   0  0  0  0  0  0  0  0  0  0  0  0
    8.5367   -2.4897    0.9803 H   0  0  0  0  0  0  0  0  0  0  0  0
    7.7913   -1.4807    2.1693 H   0  0  0  0  0  0  0  0  0  0  0  0
    6.0910   -1.4330   -1.6428 H   0  0  0  0  0  0  0  0  0  0  0  0
    5.5872   -2.7187   -0.4906 H   0  0  0  0  0  0  0  0  0  0  0  0
    8.2811   -1.5466   -2.6709 H   0  0  0  0  0  0  0  0  0  0  0  0
   10.1124   -2.9941   -3.5296 H   0  0  0  0  0  0  0  0  0  0  0  0
   11.1980   -5.1413   -3.4016 H   0  0  0  0  0  0  0  0  0  0  0  0
    8.7994   -6.0935   -0.8859 H   0  0  0  0  0  0  0  0  0  0  0  0
    7.0052   -4.6362   -0.0650 H   0  0  0  0  0  0  0  0  0  0  0  0
    1.5575    1.8946    1.9303 H   0  0  0  0  0  0  0  0  0  0  0  0
    1.1067   -1.0266    1.8262 H   0  0  0  0  0  0  0  0  0  0  0  0
   -0.8648   -0.5863    3.2227 H   0  0  0  0  0  0  0  0  0  0  0  0
    0.6807   -0.1186    3.9302 H   0  0  0  0  0  0  0  0  0  0  0  0
    1.1047    2.3550    4.2792 H   0  0  0  0  0  0  0  0  0  0  0  0
    0.0097    4.5267    4.7703 H   0  0  0  0  0  0  0  0  0  0  0  0
   -2.3158    4.8947    4.2266 H   0  0  0  0  0  0  0  0  0  0  0  0
   -3.6194    3.1022    3.1781 H   0  0  0  0  0  0  0  0  0  0  0  0
   -2.5944    0.9565    2.6768 H   0  0  0  0  0  0  0  0  0  0  0  0
   -1.7145   -1.4387    1.3697 H   0  0  0  0  0  0  0  0  0  0  0  0
   -1.7100   -0.5835   -1.5014 H   0  0  0  0  0  0  0  0  0  0  0  0
   -3.2440   -2.8914   -0.0391 H   0  0  0  0  0  0  0  0  0  0  0  0
   -3.2282   -2.5453   -1.7858 H   0  0  0  0  0  0  0  0  0  0  0  0
   -1.2574   -3.7914    1.0776 H   0  0  0  0  0  0  0  0  0  0  0  0
    0.7020   -5.2942    0.6968 H   0  0  0  0  0  0  0  0  0  0  0  0
    1.5369   -5.6720   -1.5120 H   0  0  0  0  0  0  0  0  0  0  0  0
    0.4752   -4.5653   -3.5162 H   0  0  0  0  0  0  0  0  0  0  0  0
   -1.4258   -3.1040   -3.1398 H   0  0  0  0  0  0  0  0  0  0  0  0
   -4.9957   -1.5579   -1.3126 H   0  0  0  0  0  0  0  0  0  0  0  0
   -5.5427    1.3392   -0.7182 H   0  0  0  0  0  0  0  0  0  0  0  0
   -7.2217   -0.8513   -2.1042 H   0  0  0  0  0  0  0  0  0  0  0  0
   -6.2293    0.4797   -2.8894 H   0  0  0  0  0  0  0  0  0  0  0  0
   -8.5587    0.9917   -2.8702 H   0  0  0  0  0  0  0  0  0  0  0  0
   -8.6997    0.8593   -1.1045 H   0  0  0  0  0  0  0  0  0  0  0  0
   -6.9656    2.8810   -2.6672 H   0  0  0  0  0  0  0  0  0  0  0  0
   -7.0660    2.7714   -0.8830 H   0  0  0  0  0  0  0  0  0  0  0  0
   -8.9983    4.0071   -2.6486 H   0  0  0  0  0  0  0  0  0  0  0  0
  -10.9442    1.8273   -1.2640 H   0  0  0  0  0  0  0  0  0  0  0  0
  -11.0351    2.3316    0.4468 H   0  0  0  0  0  0  0  0  0  0  0  0
   -8.9508    5.2437   -0.0311 H   0  0  0  0  0  0  0  0  0  0  0  0
   -7.0348   -1.8804    1.5345 H   0  0  0  0  0  0  0  0  0  0  0  0
   -7.9067   -1.6222    0.0077 H   0  0  0  0  0  0  0  0  0  0  0  0
   -6.1198    1.7665    1.3017 H   0  0  0  0  0  0  0  0  0  0  0  0
  1  2  1  0
  2  3  1  0
  2  4  1  0
  4  5  1  0
  5  6  1  0
  6  7  1  0
  7  8  2  0
  7  9  1  0
  9 10  1  0
  9 11  1  0
 11 12  1  0
 12 13  2  0
 13 14  1  0
 14 15  2  0
 15 16  1  0
 15 17  1  0
 17 18  2  0
  5 19  1  0
 19 20  2  0
 19 21  1  0
 21 22  1  0
 22 23  1  0
 23 24  1  0
 24 25  2  0
 25 26  1  0
 26 27  2  0
 27 28  1  0
 28 29  2  0
 22 30  1  0
 30 31  2  0
 30 32  1  0
 32 33  1  0
 33 34  1  0
 34 35  1  0
 35 36  2  0
 36 37  1  0
 37 38  2  0
 38 39  1  0
 39 40  2  0
 33 41  1  0
 41 42  2  0
 41 43  1  0
 43 44  1  0
 44 45  1  0
 45 46  1  0
 46 47  1  0
 47 48  1  0
 48 49  1  0
 49 50  1  0
 49 51  2  3
 44 52  1  0
 52 53  1  0
 52 54  2  3
 18 12  1  0
 29 24  1  0
 40 35  1  0
  1 55  1  0
  1 56  1  0
  1 57  1  0
  2 58  1  0
  3 59  1  0
  3 60  1  0
  3 61  1  0
  4 62  1  0
  4 63  1  0
  5 64  1  1
  6 65  1  0
  9 66  1  6
 10 67  1  0
 10 68  1  0
 11 69  1  0
 11 70  1  0
 13 71  1  0
 14 72  1  0
 16 73  1  0
 17 74  1  0
 18 75  1  0
 21 76  1  0
 22 77  1  1
 23 78  1  0
 23 79  1  0
 25 80  1  0
 26 81  1  0
 27 82  1  0
 28 83  1  0
 29 84  1  0
 32 85  1  0
 33 86  1  6
 34 87  1  0
 34 88  1  0
 36 89  1  0
 37 90  1  0
 38 91  1  0
 39 92  1  0
 40 93  1  0
 43 94  1  0
 44 95  1  1
 45 96  1  0
 45 97  1  0
 46 98  1  0
 46 99  1  0
 47100  1  0
 47101  1  0
 48102  1  0
 50103  1  0
 50104  1  0
 51105  1  0
 53106  1  0
 53107  1  0
 54108  1  0
M  END
$$$$
[H]O[C@@]1([H])C([H])([H])C([H])([H])[C@]2([H])[C@]1(C([H])([H])[H])C([H])([H])C([H])([H])[C@]1([H])[C@]3(C([H])([H])[H])C(=C([H])C(=O)C([H])([H])C3([H])[H])C([H])([H])C([H])([H])[C@@]21[H]
     RDKit          3D

 49 52  0  0  0  0  0  0  0  0999 V2000
    2.6003    1.3949    0.7370 C   0  0  0  0  0  0  0  0  0  0  0  0
    2.3315    0.4990   -0.4424 C   0  0  2  0  0  0  0  0  0  0  0  0
    1.5103    1.1614   -1.4949 C   0  0  0  0  0  0  0  0  0  0  0  0
    0.1483    1.4556   -0.9170 C   0  0  0  0  0  0  0  0  0  0  0  0
   -0.5369    0.1560   -0.5507 C   0  0  1  0  0  0  0  0  0  0  0  0
    0.2754   -0.6369    0.4710 C   0  0  1  0  0  0  0  0  0  0  0  0
   -0.3169   -2.0384    0.5263 C   0  0  0  0  0  0  0  0  0  0  0  0
   -1.7749   -2.0482    0.8169 C   0  0  0  0  0  0  0  0  0  0  0  0
   -2.5405   -0.9871    0.1457 C   0  0  0  0  0  0  0  0  0  0  0  0
   -3.7658   -1.2727   -0.2625 C   0  0  0  0  0  0  0  0  0  0  0  0
   -4.6079   -0.3042   -0.9341 C   0  0  0  0  0  0  0  0  0  0  0  0
   -5.6066   -0.6232   -1.6118 O   0  0  0  0  0  0  0  0  0  0  0  0
   -4.2087    1.1393   -0.7699 C   0  0  0  0  0  0  0  0  0  0  0  0
   -2.7163    1.1869   -1.0278 C   0  0  0  0  0  0  0  0  0  0  0  0
   -1.9296    0.3620   -0.0560 C   0  0  2  0  0  0  0  0  0  0  0  0
   -1.9459    1.0713    1.2829 C   0  0  0  0  0  0  0  0  0  0  0  0
    1.6457   -0.7900   -0.0472 C   0  0  2  0  0  0  0  0  0  0  0  0
    2.6444   -1.3862    0.8737 C   0  0  0  0  0  0  0  0  0  0  0  0
    3.9631   -1.0731    0.1623 C   0  0  0  0  0  0  0  0  0  0  0  0
    3.6050   -0.1289   -0.9688 C   0  0  2  0  0  0  0  0  0  0  0  0
    4.5812    0.7519   -1.2889 O   0  0  0  0  0  0  0  0  0  0  0  0
    3.6756    1.2716    1.0471 H   0  0  0  0  0  0  0  0  0  0  0  0
    1.9625    1.2047    1.6015 H   0  0  0  0  0  0  0  0  0  0  0  0
    2.4819    2.4492    0.4115 H   0  0  0  0  0  0  0  0  0  0  0  0
    1.9872    2.1545   -1.7263 H   0  0  0  0  0  0  0  0  0  0  0  0
    1.4562    0.5158   -2.3781 H   0  0  0  0  0  0  0  0  0  0  0  0
   -0.4734    1.9510   -1.6671 H   0  0  0  0  0  0  0  0  0  0  0  0
    0.2714    2.1214   -0.0498 H   0  0  0  0  0  0  0  0  0  0  0  0
   -0.5888   -0.4547   -1.4753 H   0  0  0  0  0  0  0  0  0  0  0  0
    0.1940   -0.1895    1.4684 H   0  0  0  0  0  0  0  0  0  0  0  0
   -0.0876   -2.5040   -0.4691 H   0  0  0  0  0  0  0  0  0  0  0  0
    0.2474   -2.5825    1.3004 H   0  0  0  0  0  0  0  0  0  0  0  0
   -2.1698   -3.0559    0.5263 H   0  0  0  0  0  0  0  0  0  0  0  0
   -1.9002   -2.0016    1.9294 H   0  0  0  0  0  0  0  0  0  0  0  0
   -4.1853   -2.2671   -0.1012 H   0  0  0  0  0  0  0  0  0  0  0  0
   -4.4637    1.4087    0.2637 H   0  0  0  0  0  0  0  0  0  0  0  0
   -4.7180    1.7173   -1.5432 H   0  0  0  0  0  0  0  0  0  0  0  0
   -2.5697    0.8169   -2.0700 H   0  0  0  0  0  0  0  0  0  0  0  0
   -2.4147    2.2480   -0.9356 H   0  0  0  0  0  0  0  0  0  0  0  0
   -2.6695    1.9362    1.2729 H   0  0  0  0  0  0  0  0  0  0  0  0
   -2.2828    0.4031    2.1004 H   0  0  0  0  0  0  0  0  0  0  0  0
   -0.9566    1.5164    1.5155 H   0  0  0  0  0  0  0  0  0  0  0  0
    1.6091   -1.4204   -0.9702 H   0  0  0  0  0  0  0  0  0  0  0  0
    2.6340   -0.7940    1.8359 H   0  0  0  0  0  0  0  0  0  0  0  0
    2.5188   -2.4554    1.0564 H   0  0  0  0  0  0  0  0  0  0  0  0
    4.3735   -2.0337   -0.2265 H   0  0  0  0  0  0  0  0  0  0  0  0
    4.6899   -0.6220    0.8558 H   0  0  0  0  0  0  0  0  0  0  0  0
    3.3380   -0.7531   -1.8418 H   0  0  0  0  0  0  0  0  0  0  0  0
    4.6855    1.5297   -0.7163 H   0  0  0  0  0  0  0  0  0  0  0  0
  2  1  1  1
  2  3  1  0
  3  4  1  0
  4  5  1  0
  5  6  1  0
  6  7  1  0
  7  8  1  0
  8  9  1  0
  9 10  2  0
 10 11  1  0
 11 12  2  0
 11 13  1  0
 13 14  1  0
 14 15  1  0
 15 16  1  1
  6 17  1  0
 17 18  1  0
 18 19  1  0
 19 20  1  0
 20 21  1  0
 17  2  1  0
 20  2  1  0
 15  5  1  0
 15  9  1  0
  1 22  1  0
  1 23  1  0
  1 24  1  0
  3 25  1  0
  3 26  1  0
  4 27  1  0
  4 28  1  0
  5 29  1  6
  6 30  1  1
  7 31  1  0
  7 32  1  0
  8 33  1  0
  8 34  1  0
 10 35  1  0
 13 36  1  0
 13 37  1  0
 14 38  1  0
 14 39  1  0
 16 40  1  0
 16 41  1  0
 16 42  1  0
 17 43  1  6
 18 44  1  0
 18 45  1  0
 19 46  1  0
 19 47  1  0
 20 48  1  6
 21 49  1  0
M  END
$$$$
[H]c1c([H])c([H])c(N([H])C(=O)N([H])[C@]2([H])C([H])([H])C([H])([H])[C@]([H])(N([H])C(=O)N([H])c3c([H])c([H])c(C(F)(F)F)c([H])c3[H])C([H])([H])C2([H])[H])c([H])c1[H]
     RDKit          3D

 53 55  0  0  0  0  0  0  0  0999 V2000
   -7.7637   -1.7084    3.6085 F   0  0  0  0  0  0  0  0  0  0  0  0
   -8.2971   -1.9786    2.3490 C   0  0  0  0  0  0  0  0  0  0  0  0
   -9.5136   -1.2989    2.2455 F   0  0  0  0  0  0  0  0  0  0  0  0
   -8.5168   -3.3425    2.3472 F   0  0  0  0  0  0  0  0  0  0  0  0
   -7.3347   -1.5320    1.3283 C   0  0  0  0  0  0  0  0  0  0  0  0
   -6.1954   -2.2331    1.0387 C   0  0  0  0  0  0  0  0  0  0  0  0
   -5.3188   -1.7466    0.0874 C   0  0  0  0  0  0  0  0  0  0  0  0
   -5.5630   -0.5859   -0.5688 C   0  0  0  0  0  0  0  0  0  0  0  0
   -4.5471   -0.0825   -1.4401 N   0  0  0  0  0  0  0  0  0  0  0  0
   -3.2011   -0.1729   -0.9487 C   0  0  0  0  0  0  0  0  0  0  0  0
   -3.0535   -0.6374    0.2064 O   0  0  0  0  0  0  0  0  0  0  0  0
   -2.1298    0.2416   -1.7314 N   0  0  0  0  0  0  0  0  0  0  0  0
   -0.7570    0.1599   -1.2474 C   0  0  2  0  0  0  0  0  0  0  0  0
   -0.4800   -0.9696   -0.3349 C   0  0  0  0  0  0  0  0  0  0  0  0
    0.9858   -0.9950    0.1245 C   0  0  0  0  0  0  0  0  0  0  0  0
    1.6767    0.2475   -0.2778 C   0  0  1  0  0  0  0  0  0  0  0  0
    0.8666    1.4985   -0.0066 C   0  0  0  0  0  0  0  0  0  0  0  0
   -0.5027    1.4717   -0.5689 C   0  0  0  0  0  0  0  0  0  0  0  0
    2.8870    0.3968    0.5523 N   0  0  0  0  0  0  0  0  0  0  0  0
    4.1508    0.5224    0.0246 C   0  0  0  0  0  0  0  0  0  0  0  0
    4.2273    0.4815   -1.2624 O   0  0  0  0  0  0  0  0  0  0  0  0
    5.3185    0.6951    0.7416 N   0  0  0  0  0  0  0  0  0  0  0  0
    6.6002    0.8430    0.1843 C   0  0  0  0  0  0  0  0  0  0  0  0
    7.6903    0.3809    0.9124 C   0  0  0  0  0  0  0  0  0  0  0  0
    8.9585    0.5599    0.4091 C   0  0  0  0  0  0  0  0  0  0  0  0
    9.2154    1.1775   -0.7867 C   0  0  0  0  0  0  0  0  0  0  0  0
    8.1301    1.6215   -1.4801 C   0  0  0  0  0  0  0  0  0  0  0  0
    6.8488    1.4794   -1.0448 C   0  0  0  0  0  0  0  0  0  0  0  0
   -6.6967    0.1170   -0.2930 C   0  0  0  0  0  0  0  0  0  0  0  0
   -7.5961   -0.3284    0.6501 C   0  0  0  0  0  0  0  0  0  0  0  0
   -5.9695   -3.1779    1.5417 H   0  0  0  0  0  0  0  0  0  0  0  0
   -4.4604   -2.3515   -0.1229 H   0  0  0  0  0  0  0  0  0  0  0  0
   -4.7184    0.3372   -2.3639 H   0  0  0  0  0  0  0  0  0  0  0  0
   -2.2772    0.6365   -2.7082 H   0  0  0  0  0  0  0  0  0  0  0  0
   -0.0711    0.0050   -2.1412 H   0  0  0  0  0  0  0  0  0  0  0  0
   -0.7445   -1.9358   -0.8044 H   0  0  0  0  0  0  0  0  0  0  0  0
   -1.0468   -0.9076    0.5939 H   0  0  0  0  0  0  0  0  0  0  0  0
    1.4451   -1.8653   -0.3428 H   0  0  0  0  0  0  0  0  0  0  0  0
    1.0181   -1.1278    1.2240 H   0  0  0  0  0  0  0  0  0  0  0  0
    1.9528    0.2901   -1.3450 H   0  0  0  0  0  0  0  0  0  0  0  0
    1.4243    2.3943   -0.4367 H   0  0  0  0  0  0  0  0  0  0  0  0
    0.8292    1.7368    1.0796 H   0  0  0  0  0  0  0  0  0  0  0  0
   -1.2386    1.6006    0.2706 H   0  0  0  0  0  0  0  0  0  0  0  0
   -0.6333    2.3287   -1.2974 H   0  0  0  0  0  0  0  0  0  0  0  0
    2.6974    0.4039    1.5791 H   0  0  0  0  0  0  0  0  0  0  0  0
    5.3021    0.7508    1.8330 H   0  0  0  0  0  0  0  0  0  0  0  0
    7.5141   -0.1086    1.8602 H   0  0  0  0  0  0  0  0  0  0  0  0
    9.7712    0.1541    1.0397 H   0  0  0  0  0  0  0  0  0  0  0  0
   10.1888    1.3280   -1.1720 H   0  0  0  0  0  0  0  0  0  0  0  0
    8.2836    2.1236   -2.4568 H   0  0  0  0  0  0  0  0  0  0  0  0
    6.0260    1.8602   -1.5909 H   0  0  0  0  0  0  0  0  0  0  0  0
   -6.8949    1.0451   -0.8374 H   0  0  0  0  0  0  0  0  0  0  0  0
   -8.4871    0.1973    0.8834 H   0  0  0  0  0  0  0  0  0  0  0  0
  1  2  1  0
  2  3  1  0
  2  4  1  0
  2  5  1  0
  5  6  2  0
  6  7  1  0
  7  8  2  0
  8  9  1  0
  9 10  1  0
 10 11  2  0
 10 12  1  0
 12 13  1  0
 13 14  1  0
 14 15  1  0
 15 16  1  0
 16 17  1  0
 17 18  1  0
 16 19  1  0
 19 20  1  0
 20 21  2  0
 20 22  1  0
 22 23  1  0
 23 24  2  0
 24 25  1  0
 25 26  2  0
 26 27  1  0
 27 28  2  0
  8 29  1  0
 29 30  2  0
 30  5  1  0
 18 13  1  0
 28 23  1  0
  6 31  1  0
  7 32  1  0
  9 33  1  0
 12 34  1  0
 13 35  1  6
 14 36  1  0
 14 37  1  0
 15 38  1  0
 15 39  1  0
 16 40  1  6
 17 41  1  0
 17 42  1  0
 18 43  1  0
 18 44  1  0
 19 45  1  0
 22 46  1  0
 24 47  1  0
 25 48  1  0
 26 49  1  0
 27 50  1  0
 28 51  1  0
 29 52  1  0
 30 53  1  0
M  END
$$$$
[H]c1c([H])c(C(F)(F)F)c([H])c([H])c1C(=O)N([H])[C@@]([H])(C(=O)N([H])[C@]1([H])C([H])([H])C([H])([H])[C@@]([H])(N([H])C(=O)C([H])([H])[H])C([H])([H])C1([H])[H])C([H])([H])[H]
     RDKit          3D

 52 53  0  0  0  0  0  0  0  0999 V2000
    0.8261    1.5754   -1.2511 C   0  0  0  0  0  0  0  0  0  0  0  0
    1.3204    0.1889   -0.8199 C   0  0  1  0  0  0  0  0  0  0  0  0
    2.6260    0.2748   -0.2403 N   0  0  0  0  0  0  0  0  0  0  0  0
    3.7605   -0.1230   -0.9696 C   0  0  0  0  0  0  0  0  0  0  0  0
    3.6319   -0.5574   -2.1300 O   0  0  0  0  0  0  0  0  0  0  0  0
    5.0765   -0.0123   -0.3402 C   0  0  0  0  0  0  0  0  0  0  0  0
    6.1808    0.2035   -1.1344 C   0  0  0  0  0  0  0  0  0  0  0  0
    7.4402    0.3209   -0.5979 C   0  0  0  0  0  0  0  0  0  0  0  0
    7.6192    0.2234    0.7617 C   0  0  0  0  0  0  0  0  0  0  0  0
    6.5290    0.0084    1.5653 C   0  0  0  0  0  0  0  0  0  0  0  0
    5.2708   -0.1081    1.0125 C   0  0  0  0  0  0  0  0  0  0  0  0
    9.0119    0.3626    1.3090 C   0  0  0  0  0  0  0  0  0  0  0  0
    9.0158    0.1805    2.6725 F   0  0  0  0  0  0  0  0  0  0  0  0
    9.8005   -0.6007    0.7206 F   0  0  0  0  0  0  0  0  0  0  0  0
    9.5190    1.6205    1.0365 F   0  0  0  0  0  0  0  0  0  0  0  0
    0.3267   -0.3425    0.1022 C   0  0  0  0  0  0  0  0  0  0  0  0
    0.5910   -0.7472    1.2865 O   0  0  0  0  0  0  0  0  0  0  0  0
   -1.0510   -0.4345   -0.2993 N   0  0  0  0  0  0  0  0  0  0  0  0
   -2.0841   -0.9522    0.5925 C   0  0  1  0  0  0  0  0  0  0  0  0
   -2.7823    0.2605    1.1685 C   0  0  0  0  0  0  0  0  0  0  0  0
   -4.2084   -0.1566    1.4868 C   0  0  0  0  0  0  0  0  0  0  0  0
   -4.8700   -0.2995    0.1105 C   0  0  1  0  0  0  0  0  0  0  0  0
   -4.2897   -1.5254   -0.5071 C   0  0  0  0  0  0  0  0  0  0  0  0
   -2.9682   -1.9692    0.0035 C   0  0  0  0  0  0  0  0  0  0  0  0
   -6.2834   -0.2347    0.1893 N   0  0  0  0  0  0  0  0  0  0  0  0
   -7.0003    0.8156   -0.4209 C   0  0  0  0  0  0  0  0  0  0  0  0
   -8.4860    0.9328   -0.3658 C   0  0  0  0  0  0  0  0  0  0  0  0
   -6.3759    1.7039   -1.0437 O   0  0  0  0  0  0  0  0  0  0  0  0
    0.9343    2.2863   -0.4336 H   0  0  0  0  0  0  0  0  0  0  0  0
    1.4041    1.8447   -2.1606 H   0  0  0  0  0  0  0  0  0  0  0  0
   -0.2224    1.4722   -1.5267 H   0  0  0  0  0  0  0  0  0  0  0  0
    1.3477   -0.4121   -1.7480 H   0  0  0  0  0  0  0  0  0  0  0  0
    2.7157    0.6465    0.7544 H   0  0  0  0  0  0  0  0  0  0  0  0
    6.0432    0.2822   -2.2208 H   0  0  0  0  0  0  0  0  0  0  0  0
    8.2942    0.4925   -1.2559 H   0  0  0  0  0  0  0  0  0  0  0  0
    6.6815   -0.0688    2.6266 H   0  0  0  0  0  0  0  0  0  0  0  0
    4.3991   -0.2854    1.6580 H   0  0  0  0  0  0  0  0  0  0  0  0
   -1.3759   -0.1421   -1.2435 H   0  0  0  0  0  0  0  0  0  0  0  0
   -1.5480   -1.4016    1.4798 H   0  0  0  0  0  0  0  0  0  0  0  0
   -2.3057    0.6325    2.0959 H   0  0  0  0  0  0  0  0  0  0  0  0
   -2.8385    1.0957    0.4354 H   0  0  0  0  0  0  0  0  0  0  0  0
   -4.7453    0.5924    2.1035 H   0  0  0  0  0  0  0  0  0  0  0  0
   -4.1599   -1.1589    1.9537 H   0  0  0  0  0  0  0  0  0  0  0  0
   -4.4984    0.5785   -0.4937 H   0  0  0  0  0  0  0  0  0  0  0  0
   -4.2921   -1.4186   -1.6201 H   0  0  0  0  0  0  0  0  0  0  0  0
   -5.0295   -2.3537   -0.3072 H   0  0  0  0  0  0  0  0  0  0  0  0
   -3.0883   -2.8471    0.7000 H   0  0  0  0  0  0  0  0  0  0  0  0
   -2.4239   -2.4294   -0.8783 H   0  0  0  0  0  0  0  0  0  0  0  0
   -6.8164   -0.9652    0.7051 H   0  0  0  0  0  0  0  0  0  0  0  0
   -8.7897    1.9415   -0.0017 H   0  0  0  0  0  0  0  0  0  0  0  0
   -8.9290    0.1373    0.2671 H   0  0  0  0  0  0  0  0  0  0  0  0
   -8.9037    0.8723   -1.4041 H   0  0  0  0  0  0  0  0  0  0  0  0
  1  2  1  0
  2  3  1  0
  3  4  1  0
  4  5  2  0
  4  6  1  0
  6  7  2  0
  7  8  1  0
  8  9  2  0
  9 10  1  0
 10 11  2  0
  9 12  1  0
 12 13  1  0
 12 14  1  0
 12 15  1  0
  2 16  1  0
 16 17  2  0
 16 18  1  0
 18 19  1  0
 19 20  1  0
 20 21  1  0
 21 22  1  0
 22 23  1  0
 23 24  1  0
 22 25  1  0
 25 26  1  0
 26 27  1  0
 26 28  2  0
 11  6  1  0
 24 19  1  0
  1 29  1  0
  1 30  1  0
  1 31  1  0
  2 32  1  6
  3 33  1  0
  7 34  1  0
  8 35  1  0
 10 36  1  0
 11 37  1  0
 18 38  1  0
 19 39  1  1
 20 40  1  0
 20 41  1  0
 21 42  1  0
 21 43  1  0
 22 44  1  6
 23 45  1  0
 23 46  1  0
 24 47  1  0
 24 48  1  0
 25 49  1  0
 27 50  1  0
 27 51  1  0
 27 52  1  0
M  END
$$$$
[H]c1c([H])c(N2C([H])([H])C([H])([H])N(S(=O)(=O)c3c([H])c([H])c(C(F)(F)F)c([H])c3[H])C([H])([H])C2([H])[H])c([H])c([H])c1C#N
     RDKit          3D

 43 45  0  0  0  0  0  0  0  0999 V2000
    8.0158   -0.0575   -0.8239 F   0  0  0  0  0  0  0  0  0  0  0  0
    7.2817   -0.2572    0.3342 C   0  0  0  0  0  0  0  0  0  0  0  0
    7.6478   -1.4792    0.9433 F   0  0  0  0  0  0  0  0  0  0  0  0
    7.5513    0.7930    1.1924 F   0  0  0  0  0  0  0  0  0  0  0  0
    5.8365   -0.3312    0.0309 C   0  0  0  0  0  0  0  0  0  0  0  0
    5.0425   -1.4292    0.4021 C   0  0  0  0  0  0  0  0  0  0  0  0
    3.6910   -1.4101    0.0663 C   0  0  0  0  0  0  0  0  0  0  0  0
    3.1488   -0.3582   -0.6029 C   0  0  0  0  0  0  0  0  0  0  0  0
    3.9518    0.7140   -0.9562 C   0  0  0  0  0  0  0  0  0  0  0  0
    5.2957    0.7262   -0.6426 C   0  0  0  0  0  0  0  0  0  0  0  0
    1.4895   -0.2640   -1.1186 S   0  0  0  0  0  0  0  0  0  0  0  0
    1.1123   -1.6814   -1.7277 O   0  0  0  0  0  0  0  0  0  0  0  0
    1.3497    0.6014   -2.3526 O   0  0  0  0  0  0  0  0  0  0  0  0
    0.4296    0.0951    0.0987 N   0  0  0  0  0  0  0  0  0  0  0  0
   -0.1798   -0.9097    0.8874 C   0  0  0  0  0  0  0  0  0  0  0  0
   -1.6442   -1.0383    0.4366 C   0  0  0  0  0  0  0  0  0  0  0  0
   -2.2541    0.2233    0.1279 N   0  0  0  0  0  0  0  0  0  0  0  0
   -1.5613    1.4914   -0.0679 C   0  0  0  0  0  0  0  0  0  0  0  0
   -0.0868    1.4160    0.2233 C   0  0  0  0  0  0  0  0  0  0  0  0
   -3.6846    0.2324   -0.0196 C   0  0  0  0  0  0  0  0  0  0  0  0
   -4.3289   -0.9619   -0.2698 C   0  0  0  0  0  0  0  0  0  0  0  0
   -5.7140   -0.9849   -0.4241 C   0  0  0  0  0  0  0  0  0  0  0  0
   -6.4247    0.1742   -0.3186 C   0  0  0  0  0  0  0  0  0  0  0  0
   -5.7969    1.3763   -0.0670 C   0  0  0  0  0  0  0  0  0  0  0  0
   -4.4237    1.3750    0.0812 C   0  0  0  0  0  0  0  0  0  0  0  0
   -7.8538    0.1973   -0.4730 C   0  0  0  0  0  0  0  0  0  0  0  0
   -8.9965    0.2067   -0.5992 N   0  0  0  0  0  0  0  0  0  0  0  0
    5.5217   -2.2521    0.9237 H   0  0  0  0  0  0  0  0  0  0  0  0
    3.0851   -2.2899    0.3678 H   0  0  0  0  0  0  0  0  0  0  0  0
    3.5131    1.5503   -1.5060 H   0  0  0  0  0  0  0  0  0  0  0  0
    5.9396    1.5811   -0.9105 H   0  0  0  0  0  0  0  0  0  0  0  0
   -0.2348   -0.5961    1.9429 H   0  0  0  0  0  0  0  0  0  0  0  0
    0.2957   -1.8721    0.6972 H   0  0  0  0  0  0  0  0  0  0  0  0
   -1.6059   -1.6430   -0.5280 H   0  0  0  0  0  0  0  0  0  0  0  0
   -2.1675   -1.5932    1.2395 H   0  0  0  0  0  0  0  0  0  0  0  0
   -1.6377    1.6997   -1.1562 H   0  0  0  0  0  0  0  0  0  0  0  0
   -2.0081    2.2918    0.5379 H   0  0  0  0  0  0  0  0  0  0  0  0
    0.1624    1.8264    1.2425 H   0  0  0  0  0  0  0  0  0  0  0  0
    0.4663    2.0477   -0.5313 H   0  0  0  0  0  0  0  0  0  0  0  0
   -3.8093   -1.9042   -0.3631 H   0  0  0  0  0  0  0  0  0  0  0  0
   -6.1916   -1.9625   -0.6373 H   0  0  0  0  0  0  0  0  0  0  0  0
   -6.3028    2.3410    0.0423 H   0  0  0  0  0  0  0  0  0  0  0  0
   -3.9207    2.3150    0.3057 H   0  0  0  0  0  0  0  0  0  0  0  0
  1  2  1  0
  2  3  1  0
  2  4  1  0
  2  5  1  0
  5  6  2  0
  6  7  1  0
  7  8  2  0
  8  9  1  0
  9 10  2  0
  8 11  1  0
 11 12  2  0
 11 13  2  0
 11 14  1  0
 14 15  1  0
 15 16  1  0
 16 17  1  0
 17 18  1  0
 18 19  1  0
 17 20  1  0
 20 21  2  0
 21 22  1  0
 22 23  2  0
 23 24  1  0
 24 25  2  0
 23 26  1  0
 26 27  3  0
 10  5  1  0
 19 14  1  0
 25 20  1  0
  6 28  1  0
  7 29  1  0
  9 30  1  0
 10 31  1  0
 15 32  1  0
 15 33  1  0
 16 34  1  0
 16 35  1  0
 18 36  1  0
 18 37  1  0
 19 38  1  0
 19 39  1  0
 21 40  1  0
 22 41  1  0
 24 42  1  0
 25 43  1  0
M  END
$$$$
[H]N=C(N([H])[H])N([H])C([H])([H])C([H])([H])C([H])([H])[C@@]([H])(C(=O)N([H])[C@]([H])(C(=O)N([H])[C@]([H])(C(=O)N([H])[H])C([H])([H])c1c([H])c([H])c([H])c([H])c1[H])C([H])([H])c1c([H])c([H])c([H])c([H])c1[H])N([H])C(=O)[C@@]([H])(N([H])C(=O)[C@@]([H])(N([H])[H])C([H])([H])c1c([H])c([H])c(O[H])c([H])c1[H])C([H])([H])C([H])(C([H])([H])[H])C([H])([H])[H]
     RDKit          3D

107109  0  0  0  0  0  0  0  0999 V2000
   -3.9597    1.1548    4.1491 C   0  0  0  0  0  0  0  0  0  0  0  0
   -3.5962    0.6544    2.7281 C   0  0  0  0  0  0  0  0  0  0  0  0
   -3.9256   -0.8052    2.7534 C   0  0  0  0  0  0  0  0  0  0  0  0
   -4.3475    1.5136    1.8087 C   0  0  0  0  0  0  0  0  0  0  0  0
   -4.2441    1.3511    0.3537 C   0  0  2  0  0  0  0  0  0  0  0  0
   -4.6318    0.0824   -0.2010 N   0  0  0  0  0  0  0  0  0  0  0  0
   -5.6276   -0.1825   -1.1389 C   0  0  0  0  0  0  0  0  0  0  0  0
   -6.3463    0.7055   -1.6475 O   0  0  0  0  0  0  0  0  0  0  0  0
   -5.8940   -1.6026   -1.5974 C   0  0  1  0  0  0  0  0  0  0  0  0
   -6.8918   -1.6308   -2.6269 N   0  0  0  0  0  0  0  0  0  0  0  0
   -4.6288   -2.2706   -2.0095 C   0  0  0  0  0  0  0  0  0  0  0  0
   -4.8285   -3.6699   -2.4442 C   0  0  0  0  0  0  0  0  0  0  0  0
   -5.1210   -3.9725   -3.7723 C   0  0  0  0  0  0  0  0  0  0  0  0
   -5.2578   -5.2655   -4.2045 C   0  0  0  0  0  0  0  0  0  0  0  0
   -5.1086   -6.3222   -3.3345 C   0  0  0  0  0  0  0  0  0  0  0  0
   -5.2572   -7.5935   -3.8376 O   0  0  0  0  0  0  0  0  0  0  0  0
   -4.8180   -6.0237   -2.0121 C   0  0  0  0  0  0  0  0  0  0  0  0
   -4.6829   -4.7276   -1.5824 C   0  0  0  0  0  0  0  0  0  0  0  0
   -2.9628    1.7816   -0.2633 C   0  0  0  0  0  0  0  0  0  0  0  0
   -2.8406    1.5524   -1.4991 O   0  0  0  0  0  0  0  0  0  0  0  0
   -1.8956    2.4008    0.3880 N   0  0  0  0  0  0  0  0  0  0  0  0
   -0.6595    2.7914   -0.3094 C   0  0  1  0  0  0  0  0  0  0  0  0
    0.0276    3.7641    0.5608 C   0  0  0  0  0  0  0  0  0  0  0  0
    1.3260    4.3288    0.1297 C   0  0  0  0  0  0  0  0  0  0  0  0
    1.7621    5.3495    1.2049 C   0  0  0  0  0  0  0  0  0  0  0  0
    0.7978    6.4058    1.2977 N   0  0  0  0  0  0  0  0  0  0  0  0
    0.9208    7.4705    2.2521 C   0  0  0  0  0  0  0  0  0  0  0  0
    1.1494    8.7811    1.7432 N   0  0  0  0  0  0  0  0  0  0  0  0
    0.8262    7.2124    3.5322 N   0  0  0  0  0  0  0  0  0  0  0  0
    0.0536    1.5109   -0.5523 C   0  0  0  0  0  0  0  0  0  0  0  0
   -0.3898    0.4531   -0.0714 O   0  0  0  0  0  0  0  0  0  0  0  0
    1.2135    1.4637   -1.3199 N   0  0  0  0  0  0  0  0  0  0  0  0
    1.9455    0.2687   -1.6121 C   0  0  1  0  0  0  0  0  0  0  0  0
    2.6842    0.2145   -2.8699 C   0  0  0  0  0  0  0  0  0  0  0  0
    3.7431    1.1844   -3.1261 C   0  0  0  0  0  0  0  0  0  0  0  0
    5.0769    0.9636   -2.8416 C   0  0  0  0  0  0  0  0  0  0  0  0
    6.0448    1.9063   -3.1106 C   0  0  0  0  0  0  0  0  0  0  0  0
    5.7186    3.1266   -3.6815 C   0  0  0  0  0  0  0  0  0  0  0  0
    4.3987    3.3635   -3.9703 C   0  0  0  0  0  0  0  0  0  0  0  0
    3.4279    2.4015   -3.6937 C   0  0  0  0  0  0  0  0  0  0  0  0
    2.6136   -0.2816   -0.3972 C   0  0  0  0  0  0  0  0  0  0  0  0
    2.3731    0.3215    0.7016 O   0  0  0  0  0  0  0  0  0  0  0  0
    3.4612   -1.3911   -0.3647 N   0  0  0  0  0  0  0  0  0  0  0  0
    4.0180   -1.8769    0.9241 C   0  0  1  0  0  0  0  0  0  0  0  0
    3.9595   -3.3712    0.8744 C   0  0  0  0  0  0  0  0  0  0  0  0
    4.4188   -4.1184    2.0253 C   0  0  0  0  0  0  0  0  0  0  0  0
    5.6986   -4.5869    2.1806 C   0  0  0  0  0  0  0  0  0  0  0  0
    6.0811   -5.3100    3.2896 C   0  0  0  0  0  0  0  0  0  0  0  0
    5.1840   -5.5902    4.2908 C   0  0  0  0  0  0  0  0  0  0  0  0
    3.8963   -5.1289    4.1536 C   0  0  0  0  0  0  0  0  0  0  0  0
    3.5089   -4.4121    3.0573 C   0  0  0  0  0  0  0  0  0  0  0  0
    5.3690   -1.3654    1.1729 C   0  0  0  0  0  0  0  0  0  0  0  0
    6.1020   -1.5367    2.3697 N   0  0  0  0  0  0  0  0  0  0  0  0
    5.9527   -0.7084    0.2616 O   0  0  0  0  0  0  0  0  0  0  0  0
   -3.6742    2.1859    4.3153 H   0  0  0  0  0  0  0  0  0  0  0  0
   -5.0757    1.0719    4.1895 H   0  0  0  0  0  0  0  0  0  0  0  0
   -3.5507    0.4371    4.8771 H   0  0  0  0  0  0  0  0  0  0  0  0
   -2.4912    0.7286    2.7056 H   0  0  0  0  0  0  0  0  0  0  0  0
   -3.1870   -1.4577    2.2378 H   0  0  0  0  0  0  0  0  0  0  0  0
   -4.9676   -0.9754    2.3999 H   0  0  0  0  0  0  0  0  0  0  0  0
   -3.8986   -1.1550    3.8065 H   0  0  0  0  0  0  0  0  0  0  0  0
   -5.4245    1.4895    2.0882 H   0  0  0  0  0  0  0  0  0  0  0  0
   -4.0483    2.5821    2.0367 H   0  0  0  0  0  0  0  0  0  0  0  0
   -4.9980    2.0834   -0.0874 H   0  0  0  0  0  0  0  0  0  0  0  0
   -4.0776   -0.7653    0.1491 H   0  0  0  0  0  0  0  0  0  0  0  0
   -6.3234   -2.1063   -0.6951 H   0  0  0  0  0  0  0  0  0  0  0  0
   -7.7939   -1.1828   -2.3052 H   0  0  0  0  0  0  0  0  0  0  0  0
   -6.5544   -1.2125   -3.5252 H   0  0  0  0  0  0  0  0  0  0  0  0
   -4.1159   -1.7293   -2.8361 H   0  0  0  0  0  0  0  0  0  0  0  0
   -3.9225   -2.2680   -1.1221 H   0  0  0  0  0  0  0  0  0  0  0  0
   -5.2423   -3.1523   -4.4865 H   0  0  0  0  0  0  0  0  0  0  0  0
   -5.4899   -5.4285   -5.2663 H   0  0  0  0  0  0  0  0  0  0  0  0
   -5.1609   -8.4354   -3.2846 H   0  0  0  0  0  0  0  0  0  0  0  0
   -4.6959   -6.8568   -1.3211 H   0  0  0  0  0  0  0  0  0  0  0  0
   -4.4535   -4.5002   -0.5399 H   0  0  0  0  0  0  0  0  0  0  0  0
   -1.9504    2.6078    1.3986 H   0  0  0  0  0  0  0  0  0  0  0  0
   -0.9298    3.2275   -1.3046 H   0  0  0  0  0  0  0  0  0  0  0  0
   -0.6794    4.5941    0.8184 H   0  0  0  0  0  0  0  0  0  0  0  0
    0.2549    3.2005    1.5378 H   0  0  0  0  0  0  0  0  0  0  0  0
    1.2936    4.8487   -0.8379 H   0  0  0  0  0  0  0  0  0  0  0  0
    2.1449    3.5605    0.0797 H   0  0  0  0  0  0  0  0  0  0  0  0
    2.7840    5.6995    1.0006 H   0  0  0  0  0  0  0  0  0  0  0  0
    1.7569    4.8352    2.2081 H   0  0  0  0  0  0  0  0  0  0  0  0
   -0.0233    6.4579    0.6823 H   0  0  0  0  0  0  0  0  0  0  0  0
    0.4001    9.4879    1.8105 H   0  0  0  0  0  0  0  0  0  0  0  0
    2.0891    8.9369    1.3254 H   0  0  0  0  0  0  0  0  0  0  0  0
    0.9265    8.0417    4.1699 H   0  0  0  0  0  0  0  0  0  0  0  0
    1.5813    2.3600   -1.7405 H   0  0  0  0  0  0  0  0  0  0  0  0
    1.0841   -0.5200   -1.7274 H   0  0  0  0  0  0  0  0  0  0  0  0
    1.9283    0.3675   -3.7143 H   0  0  0  0  0  0  0  0  0  0  0  0
    3.0630   -0.8140   -3.0651 H   0  0  0  0  0  0  0  0  0  0  0  0
    5.3711    0.0410   -2.4112 H   0  0  0  0  0  0  0  0  0  0  0  0
    7.0821    1.6860   -2.8730 H   0  0  0  0  0  0  0  0  0  0  0  0
    6.4961    3.8776   -3.8933 H   0  0  0  0  0  0  0  0  0  0  0  0
    4.1551    4.3310   -4.4248 H   0  0  0  0  0  0  0  0  0  0  0  0
    2.4253    2.6896   -3.9591 H   0  0  0  0  0  0  0  0  0  0  0  0
    3.7492   -1.9338   -1.2039 H   0  0  0  0  0  0  0  0  0  0  0  0
    3.3536   -1.4329    1.7049 H   0  0  0  0  0  0  0  0  0  0  0  0
    4.5253   -3.7088   -0.0464 H   0  0  0  0  0  0  0  0  0  0  0  0
    2.8783   -3.6347    0.6947 H   0  0  0  0  0  0  0  0  0  0  0  0
    6.4787   -4.4075    1.4320 H   0  0  0  0  0  0  0  0  0  0  0  0
    7.0901   -5.6906    3.4272 H   0  0  0  0  0  0  0  0  0  0  0  0
    5.4826   -6.1620    5.1675 H   0  0  0  0  0  0  0  0  0  0  0  0
    3.2022   -5.3646    4.9688 H   0  0  0  0  0  0  0  0  0  0  0  0
    2.4895   -4.0568    2.9571 H   0  0  0  0  0  0  0  0  0  0  0  0
    5.6557   -1.5338    3.3073 H   0  0  0  0  0  0  0  0  0  0  0  0
    7.1493   -1.6784    2.3372 H   0  0  0  0  0  0  0  0  0  0  0  0
  1  2  1  0
  2  3  1  0
  2  4  1  0
  4  5  1  0
  5  6  1  0
  6  7  1  0
  7  8  2  0
  7  9  1  0
  9 10  1  0
  9 11  1  0
 11 12  1  0
 12 13  2  0
 13 14  1  0
 14 15  2  0
 15 16  1  0
 15 17  1  0
 17 18  2  0
  5 19  1  0
 19 20  2  0
 19 21  1  0
 21 22  1  0
 22 23  1  0
 23 24  1  0
 24 25  1  0
 25 26  1  0
 26 27  1  0
 27 28  1  0
 27 29  2  3
 22 30  1  0
 30 31  2  0
 30 32  1  0
 32 33  1  0
 33 34  1  0
 34 35  1  0
 35 36  2  0
 36 37  1  0
 37 38  2  0
 38 39  1  0
 39 40  2  0
 33 41  1  0
 41 42  2  0
 41 43  1  0
 43 44  1  0
 44 45  1  0
 45 46  1  0
 46 47  2  0
 47 48  1  0
 48 49  2  0
 49 50  1  0
 50 51  2  0
 44 52  1  0
 52 53  1  0
 52 54  2  0
 18 12  1  0
 40 35  1  0
 51 46  1  0
  1 55  1  0
  1 56  1  0
  1 57  1  0
  2 58  1  0
  3 59  1  0
  3 60  1  0
  3 61  1  0
  4 62  1  0
  4 63  1  0
  5 64  1  6
  6 65  1  0
  9 66  1  1
 10 67  1  0
 10 68  1  0
 11 69  1  0
 11 70  1  0
 13 71  1  0
 14 72  1  0
 16 73  1  0
 17 74  1  0
 18 75  1  0
 21 76  1  0
 22 77  1  6
 23 78  1  0
 23 79  1  0
 24 80  1  0
 24 81  1  0
 25 82  1  0
 25 83  1  0
 26 84  1  0
 28 85  1  0
 28 86  1  0
 29 87  1  0
 32 88  1  0
 33 89  1  6
 34 90  1  0
 34 91  1  0
 36 92  1  0
 37 93  1  0
 38 94  1  0
 39 95  1  0
 40 96  1  0
 43 97  1  0
 44 98  1  1
 45 99  1  0
 45100  1  0
 47101  1  0
 48102  1  0
 49103  1  0
 50104  1  0
 51105  1  0
 53106  1  0
 53107  1  0
M  END
$$$$
[H]c1nc(N2C([H])([H])C([H])([H])OC([H])([H])C2([H])[H])c([H])c(-c2noc(-c3c([H])c([H])c(C(=O)N([H])[C@]([H])(c4c([H])c([H])c([H])c([H])c4[H])C([H])([H])C([H])(C([H])([H])[H])C([H])([H])[H])c([H])c3[H])n2)c1[H]
     RDKit          3D

 68 72  0  0  0  0  0  0  0  0999 V2000
   -8.2136    2.1172    1.6477 C   0  0  0  0  0  0  0  0  0  0  0  0
   -8.0189    1.9569    0.1495 C   0  0  0  0  0  0  0  0  0  0  0  0
   -9.0428    1.1207   -0.5140 C   0  0  0  0  0  0  0  0  0  0  0  0
   -6.5941    1.6831   -0.1498 C   0  0  0  0  0  0  0  0  0  0  0  0
   -5.9713    0.4777    0.4553 C   0  0  2  0  0  0  0  0  0  0  0  0
   -4.5542    0.4033    0.0355 N   0  0  0  0  0  0  0  0  0  0  0  0
   -3.5570    0.3855    1.0150 C   0  0  0  0  0  0  0  0  0  0  0  0
   -3.8874    0.4311    2.2354 O   0  0  0  0  0  0  0  0  0  0  0  0
   -2.1318    0.3164    0.7270 C   0  0  0  0  0  0  0  0  0  0  0  0
   -1.1945    0.1592    1.7302 C   0  0  0  0  0  0  0  0  0  0  0  0
    0.1646    0.0960    1.4856 C   0  0  0  0  0  0  0  0  0  0  0  0
    0.6353    0.1910    0.1947 C   0  0  0  0  0  0  0  0  0  0  0  0
   -0.2731    0.3471   -0.8186 C   0  0  0  0  0  0  0  0  0  0  0  0
   -1.6193    0.4078   -0.5560 C   0  0  0  0  0  0  0  0  0  0  0  0
    2.0851    0.1256   -0.0860 C   0  0  0  0  0  0  0  0  0  0  0  0
    3.0964   -0.0325    0.7767 N   0  0  0  0  0  0  0  0  0  0  0  0
    4.2814   -0.0403    0.1182 C   0  0  0  0  0  0  0  0  0  0  0  0
    3.9153    0.1226   -1.1877 N   0  0  0  0  0  0  0  0  0  0  0  0
    2.6233    0.2169   -1.2778 O   0  0  0  0  0  0  0  0  0  0  0  0
    5.6173   -0.1865    0.6383 C   0  0  0  0  0  0  0  0  0  0  0  0
    5.8509   -0.3578    1.9777 C   0  0  0  0  0  0  0  0  0  0  0  0
    7.1522   -0.4991    2.4741 C   0  0  0  0  0  0  0  0  0  0  0  0
    8.1522   -0.4594    1.5859 N   0  0  0  0  0  0  0  0  0  0  0  0
    7.9859   -0.2954    0.2734 C   0  0  0  0  0  0  0  0  0  0  0  0
    6.6898   -0.1548   -0.2207 C   0  0  0  0  0  0  0  0  0  0  0  0
    9.0780   -0.2607   -0.6273 N   0  0  0  0  0  0  0  0  0  0  0  0
    8.8328   -0.0260   -2.0461 C   0  0  0  0  0  0  0  0  0  0  0  0
   10.1783    0.1026   -2.7210 C   0  0  0  0  0  0  0  0  0  0  0  0
   10.9524    0.9825   -1.9339 O   0  0  0  0  0  0  0  0  0  0  0  0
   11.4820    0.2583   -0.8669 C   0  0  0  0  0  0  0  0  0  0  0  0
   10.4151   -0.4628   -0.1101 C   0  0  0  0  0  0  0  0  0  0  0  0
   -6.5318   -0.8208    0.0752 C   0  0  0  0  0  0  0  0  0  0  0  0
   -6.3276   -1.4295   -1.1445 C   0  0  0  0  0  0  0  0  0  0  0  0
   -6.8531   -2.6590   -1.4831 C   0  0  0  0  0  0  0  0  0  0  0  0
   -7.6261   -3.3370   -0.5748 C   0  0  0  0  0  0  0  0  0  0  0  0
   -7.8535   -2.7558    0.6632 C   0  0  0  0  0  0  0  0  0  0  0  0
   -7.3117   -1.5155    0.9782 C   0  0  0  0  0  0  0  0  0  0  0  0
   -8.9030    1.3056    2.0239 H   0  0  0  0  0  0  0  0  0  0  0  0
   -7.2473    2.0897    2.1924 H   0  0  0  0  0  0  0  0  0  0  0  0
   -8.7137    3.0639    1.9289 H   0  0  0  0  0  0  0  0  0  0  0  0
   -8.1896    3.0231   -0.2435 H   0  0  0  0  0  0  0  0  0  0  0  0
   -9.5911    0.4182    0.1467 H   0  0  0  0  0  0  0  0  0  0  0  0
   -9.8555    1.7961   -0.9079 H   0  0  0  0  0  0  0  0  0  0  0  0
   -8.6319    0.6457   -1.4336 H   0  0  0  0  0  0  0  0  0  0  0  0
   -6.0151    2.5718    0.2495 H   0  0  0  0  0  0  0  0  0  0  0  0
   -6.4113    1.7566   -1.2573 H   0  0  0  0  0  0  0  0  0  0  0  0
   -5.9399    0.5179    1.5628 H   0  0  0  0  0  0  0  0  0  0  0  0
   -4.3243    0.3647   -0.9923 H   0  0  0  0  0  0  0  0  0  0  0  0
   -1.5504    0.0836    2.7507 H   0  0  0  0  0  0  0  0  0  0  0  0
    0.8602   -0.0302    2.3278 H   0  0  0  0  0  0  0  0  0  0  0  0
    0.0712    0.4229   -1.8300 H   0  0  0  0  0  0  0  0  0  0  0  0
   -2.3499    0.5331   -1.3634 H   0  0  0  0  0  0  0  0  0  0  0  0
    5.0577   -0.3920    2.7074 H   0  0  0  0  0  0  0  0  0  0  0  0
    7.2992   -0.6321    3.5310 H   0  0  0  0  0  0  0  0  0  0  0  0
    6.5903   -0.0241   -1.2888 H   0  0  0  0  0  0  0  0  0  0  0  0
    8.1975   -0.8019   -2.4977 H   0  0  0  0  0  0  0  0  0  0  0  0
    8.3401    0.9697   -2.1401 H   0  0  0  0  0  0  0  0  0  0  0  0
   10.7004   -0.8516   -2.8568 H   0  0  0  0  0  0  0  0  0  0  0  0
   10.0744    0.5613   -3.7484 H   0  0  0  0  0  0  0  0  0  0  0  0
   12.2837   -0.4267   -1.2562 H   0  0  0  0  0  0  0  0  0  0  0  0
   11.9796    0.9804   -0.1876 H   0  0  0  0  0  0  0  0  0  0  0  0
   10.6834   -1.5594   -0.1461 H   0  0  0  0  0  0  0  0  0  0  0  0
   10.3980   -0.2161    0.9694 H   0  0  0  0  0  0  0  0  0  0  0  0
   -5.7312   -0.9199   -1.8631 H   0  0  0  0  0  0  0  0  0  0  0  0
   -6.6631   -3.1003   -2.4625 H   0  0  0  0  0  0  0  0  0  0  0  0
   -8.0386   -4.3071   -0.8468 H   0  0  0  0  0  0  0  0  0  0  0  0
   -8.4671   -3.3180    1.3522 H   0  0  0  0  0  0  0  0  0  0  0  0
   -7.5389   -1.1337    1.9667 H   0  0  0  0  0  0  0  0  0  0  0  0
  1  2  1  0
  2  3  1  0
  2  4  1  0
  4  5  1  0
  5  6  1  0
  6  7  1  0
  7  8  2  0
  7  9  1  0
  9 10  2  0
 10 11  1  0
 11 12  2  0
 12 13  1  0
 13 14  2  0
 12 15  1  0
 15 16  2  0
 16 17  1  0
 17 18  2  0
 18 19  1  0
 17 20  1  0
 20 21  2  0
 21 22  1  0
 22 23  2  0
 23 24  1  0
 24 25  2  0
 24 26  1  0
 26 27  1  0
 27 28  1  0
 28 29  1  0
 29 30  1  0
 30 31  1  0
  5 32  1  0
 32 33  2  0
 33 34  1  0
 34 35  2  0
 35 36  1  0
 36 37  2  0
 14  9  1  0
 19 15  1  0
 25 20  1  0
 31 26  1  0
 37 32  1  0
  1 38  1  0
  1 39  1  0
  1 40  1  0
  2 41  1  0
  3 42  1  0
  3 43  1  0
  3 44  1  0
  4 45  1  0
  4 46  1  0
  5 47  1  1
  6 48  1  0
 10 49  1  0
 11 50  1  0
 13 51  1  0
 14 52  1  0
 21 53  1  0
 22 54  1  0
 25 55  1  0
 27 56  1  0
 27 57  1  0
 28 58  1  0
 28 59  1  0
 30 60  1  0
 30 61  1  0
 31 62  1  0
 31 63  1  0
 33 64  1  0
 34 65  1  0
 35 66  1  0
 36 67  1  0
 37 68  1  0
M  END
$$$$
[H]c1nc(N([H])c2c([H])c([H])c(-c3c([H])c([H])c(C([H])([H])[H])c([H])c3[H])c([H])c2OC([H])([H])[H])nc(N([H])c2c([H])c([H])c([H])c([H])c2S(=O)(=O)C([H])(C([H])([H])[H])C([H])([H])[H])c1Cl
     RDKit          3D

 63 66  0  0  0  0  0  0  0  0999 V2000
    3.0294   -3.5832    1.0081 C   0  0  0  0  0  0  0  0  0  0  0  0
    2.3135   -2.4176    0.6449 O   0  0  0  0  0  0  0  0  0  0  0  0
    3.0275   -1.2628    0.3702 C   0  0  0  0  0  0  0  0  0  0  0  0
    4.3971   -1.2231    0.4407 C   0  0  0  0  0  0  0  0  0  0  0  0
    5.1418   -0.1149    0.1806 C   0  0  0  0  0  0  0  0  0  0  0  0
    4.4482    1.0169   -0.1715 C   0  0  0  0  0  0  0  0  0  0  0  0
    3.0549    1.0208   -0.2554 C   0  0  0  0  0  0  0  0  0  0  0  0
    2.3080   -0.1007    0.0081 C   0  0  0  0  0  0  0  0  0  0  0  0
    0.9039   -0.1980   -0.0432 N   0  0  0  0  0  0  0  0  0  0  0  0
   -0.0018    0.7978   -0.4023 C   0  0  0  0  0  0  0  0  0  0  0  0
    0.3154    2.0226   -0.7648 N   0  0  0  0  0  0  0  0  0  0  0  0
   -0.5797    2.9612   -1.1066 C   0  0  0  0  0  0  0  0  0  0  0  0
   -1.9047    2.5945   -1.0672 C   0  0  0  0  0  0  0  0  0  0  0  0
   -3.0984    3.7662   -1.4983 Cl  0  0  0  0  0  0  0  0  0  0  0  0
   -2.3199    1.3024   -0.6893 C   0  0  0  0  0  0  0  0  0  0  0  0
   -3.7009    1.0477   -0.6865 N   0  0  0  0  0  0  0  0  0  0  0  0
   -4.2948   -0.1707   -0.3418 C   0  0  0  0  0  0  0  0  0  0  0  0
   -3.6348   -1.3151    0.0176 C   0  0  0  0  0  0  0  0  0  0  0  0
   -4.2936   -2.5124    0.3479 C   0  0  0  0  0  0  0  0  0  0  0  0
   -5.6610   -2.5578    0.3147 C   0  0  0  0  0  0  0  0  0  0  0  0
   -6.3665   -1.4311   -0.0413 C   0  0  0  0  0  0  0  0  0  0  0  0
   -5.6976   -0.2548   -0.3645 C   0  0  0  0  0  0  0  0  0  0  0  0
   -6.6264    1.1301   -0.8199 S   0  0  0  0  0  0  0  0  0  0  0  0
   -6.3513    1.5051   -2.2522 O   0  0  0  0  0  0  0  0  0  0  0  0
   -6.4270    2.3208    0.0781 O   0  0  0  0  0  0  0  0  0  0  0  0
   -8.3710    0.7366   -0.6750 C   0  0  0  0  0  0  0  0  0  0  0  0
   -9.1226    1.9270   -1.2801 C   0  0  0  0  0  0  0  0  0  0  0  0
   -8.7960    0.5521    0.7526 C   0  0  0  0  0  0  0  0  0  0  0  0
   -1.3368    0.4827   -0.3794 N   0  0  0  0  0  0  0  0  0  0  0  0
    6.5935   -0.1166    0.2663 C   0  0  0  0  0  0  0  0  0  0  0  0
    7.3810   -1.2133   -0.0156 C   0  0  0  0  0  0  0  0  0  0  0  0
    8.7551   -1.2113    0.0683 C   0  0  0  0  0  0  0  0  0  0  0  0
    9.3872   -0.0501    0.4557 C   0  0  0  0  0  0  0  0  0  0  0  0
   10.8652   -0.0520    0.5444 C   0  0  0  0  0  0  0  0  0  0  0  0
    8.6508    1.0944    0.7551 C   0  0  0  0  0  0  0  0  0  0  0  0
    7.2784    1.0221    0.6501 C   0  0  0  0  0  0  0  0  0  0  0  0
    3.7546   -3.8947    0.2088 H   0  0  0  0  0  0  0  0  0  0  0  0
    3.6437   -3.3652    1.9053 H   0  0  0  0  0  0  0  0  0  0  0  0
    2.3556   -4.4536    1.1539 H   0  0  0  0  0  0  0  0  0  0  0  0
    4.8989   -2.1391    0.7219 H   0  0  0  0  0  0  0  0  0  0  0  0
    4.9825    1.9381   -0.3930 H   0  0  0  0  0  0  0  0  0  0  0  0
    2.5865    1.9284   -0.5304 H   0  0  0  0  0  0  0  0  0  0  0  0
    0.5068   -1.1660    0.2337 H   0  0  0  0  0  0  0  0  0  0  0  0
   -0.2551    3.9512   -1.3959 H   0  0  0  0  0  0  0  0  0  0  0  0
   -4.3654    1.8369   -0.9717 H   0  0  0  0  0  0  0  0  0  0  0  0
   -2.5538   -1.3666    0.0670 H   0  0  0  0  0  0  0  0  0  0  0  0
   -3.7198   -3.3880    0.6249 H   0  0  0  0  0  0  0  0  0  0  0  0
   -6.1701   -3.4928    0.5726 H   0  0  0  0  0  0  0  0  0  0  0  0
   -7.4513   -1.5044   -0.0673 H   0  0  0  0  0  0  0  0  0  0  0  0
   -8.6528   -0.1461   -1.2704 H   0  0  0  0  0  0  0  0  0  0  0  0
  -10.1938    1.6910   -1.3614 H   0  0  0  0  0  0  0  0  0  0  0  0
   -8.9087    2.8041   -0.6355 H   0  0  0  0  0  0  0  0  0  0  0  0
   -8.6746    2.0872   -2.2884 H   0  0  0  0  0  0  0  0  0  0  0  0
   -7.9151    0.4910    1.4427 H   0  0  0  0  0  0  0  0  0  0  0  0
   -9.4462   -0.3588    0.8552 H   0  0  0  0  0  0  0  0  0  0  0  0
   -9.4069    1.4232    1.0898 H   0  0  0  0  0  0  0  0  0  0  0  0
    6.8908   -2.1216   -0.3192 H   0  0  0  0  0  0  0  0  0  0  0  0
    9.3524   -2.1028   -0.1634 H   0  0  0  0  0  0  0  0  0  0  0  0
   11.1823    0.9311    0.9803 H   0  0  0  0  0  0  0  0  0  0  0  0
   11.2137   -0.8980    1.1473 H   0  0  0  0  0  0  0  0  0  0  0  0
   11.2550   -0.1046   -0.4971 H   0  0  0  0  0  0  0  0  0  0  0  0
    9.1684    2.0033    1.0600 H   0  0  0  0  0  0  0  0  0  0  0  0
    6.6562    1.9013    0.8765 H   0  0  0  0  0  0  0  0  0  0  0  0
  1  2  1  0
  2  3  1  0
  3  4  2  0
  4  5  1  0
  5  6  2  0
  6  7  1  0
  7  8  2  0
  8  9  1  0
  9 10  1  0
 10 11  2  0
 11 12  1  0
 12 13  2  0
 13 14  1  0
 13 15  1  0
 15 16  1  0
 16 17  1  0
 17 18  2  0
 18 19  1  0
 19 20  2  0
 20 21  1  0
 21 22  2  0
 22 23  1  0
 23 24  2  0
 23 25  2  0
 23 26  1  0
 26 27  1  0
 26 28  1  0
 15 29  2  0
  5 30  1  0
 30 31  2  0
 31 32  1  0
 32 33  2  0
 33 34  1  0
 33 35  1  0
 35 36  2  0
  8  3  1  0
 29 10  1  0
 36 30  1  0
 22 17  1  0
  1 37  1  0
  1 38  1  0
  1 39  1  0
  4 40  1  0
  6 41  1  0
  7 42  1  0
  9 43  1  0
 12 44  1  0
 16 45  1  0
 18 46  1  0
 19 47  1  0
 20 48  1  0
 21 49  1  0
 26 50  1  0
 27 51  1  0
 27 52  1  0
 27 53  1  0
 28 54  1  0
 28 55  1  0
 28 56  1  0
 31 57  1  0
 32 58  1  0
 34 59  1  0
 34 60  1  0
 34 61  1  0
 35 62  1  0
 36 63  1  0
M  END
$$$$
[H]c1nc(N([H])c2c([H])c([H])c(N3C([H])([H])C([H])([H])N(C(=O)C([H])([H])[H])C([H])([H])C3([H])[H])c([H])c2OC([H])([H])[H])nc(N([H])c2c([H])c([H])c([H])c([H])c2S(=O)(=O)C([H])(C([H])([H])[H])C([H])([H])[H])c1Cl
     RDKit          3D

 69 72  0  0  0  0  0  0  0  0999 V2000
    2.2630   -2.7895   -2.4447 C   0  0  0  0  0  0  0  0  0  0  0  0
    1.5733   -1.7652   -1.7969 O   0  0  0  0  0  0  0  0  0  0  0  0
    2.1533   -0.7026   -1.1563 C   0  0  0  0  0  0  0  0  0  0  0  0
    3.5188   -0.5794   -1.1129 C   0  0  0  0  0  0  0  0  0  0  0  0
    4.1658    0.4595   -0.4883 C   0  0  0  0  0  0  0  0  0  0  0  0
    3.3761    1.4073    0.1147 C   0  0  0  0  0  0  0  0  0  0  0  0
    1.9680    1.2896    0.0759 C   0  0  0  0  0  0  0  0  0  0  0  0
    1.3418    0.2559   -0.5464 C   0  0  0  0  0  0  0  0  0  0  0  0
   -0.0328    0.0909   -0.6131 N   0  0  0  0  0  0  0  0  0  0  0  0
   -1.0461    0.9428   -0.0984 C   0  0  0  0  0  0  0  0  0  0  0  0
   -0.8268    2.0721    0.5497 N   0  0  0  0  0  0  0  0  0  0  0  0
   -1.8196    2.8375    1.0070 C   0  0  0  0  0  0  0  0  0  0  0  0
   -3.1276    2.4466    0.8021 C   0  0  0  0  0  0  0  0  0  0  0  0
   -4.3954    3.4859    1.4229 Cl  0  0  0  0  0  0  0  0  0  0  0  0
   -3.4147    1.2500    0.1165 C   0  0  0  0  0  0  0  0  0  0  0  0
   -4.7625    0.8884   -0.0695 N   0  0  0  0  0  0  0  0  0  0  0  0
   -5.3110   -0.2323   -0.7111 C   0  0  0  0  0  0  0  0  0  0  0  0
   -4.5338   -1.1321   -1.3913 C   0  0  0  0  0  0  0  0  0  0  0  0
   -5.1592   -2.2087   -2.0442 C   0  0  0  0  0  0  0  0  0  0  0  0
   -6.5167   -2.3974   -2.0295 C   0  0  0  0  0  0  0  0  0  0  0  0
   -7.2780   -1.4862   -1.3425 C   0  0  0  0  0  0  0  0  0  0  0  0
   -6.6983   -0.3988   -0.6771 C   0  0  0  0  0  0  0  0  0  0  0  0
   -7.7173    0.6976    0.2136 S   0  0  0  0  0  0  0  0  0  0  0  0
   -9.1616    0.2705   -0.0195 O   0  0  0  0  0  0  0  0  0  0  0  0
   -7.6425    2.1115   -0.3098 O   0  0  0  0  0  0  0  0  0  0  0  0
   -7.4339    0.6974    1.9478 C   0  0  0  0  0  0  0  0  0  0  0  0
   -7.8218   -0.6650    2.5466 C   0  0  0  0  0  0  0  0  0  0  0  0
   -8.4174    1.7068    2.5498 C   0  0  0  0  0  0  0  0  0  0  0  0
   -2.3453    0.5831   -0.2850 N   0  0  0  0  0  0  0  0  0  0  0  0
    5.5675    0.5454   -0.4872 N   0  0  0  0  0  0  0  0  0  0  0  0
    6.3602   -0.2074   -1.4375 C   0  0  0  0  0  0  0  0  0  0  0  0
    7.0790   -1.2610   -0.5878 C   0  0  0  0  0  0  0  0  0  0  0  0
    7.9066   -0.5761    0.3968 N   0  0  0  0  0  0  0  0  0  0  0  0
    7.5493    0.6764    0.9908 C   0  0  0  0  0  0  0  0  0  0  0  0
    6.3491    1.3578    0.4450 C   0  0  0  0  0  0  0  0  0  0  0  0
    9.1183   -1.1893    0.7729 C   0  0  0  0  0  0  0  0  0  0  0  0
    9.9977   -0.5476    1.7646 C   0  0  0  0  0  0  0  0  0  0  0  0
    9.4533   -2.2774    0.2697 O   0  0  0  0  0  0  0  0  0  0  0  0
    2.6631   -2.4060   -3.4061 H   0  0  0  0  0  0  0  0  0  0  0  0
    1.5150   -3.5770   -2.7239 H   0  0  0  0  0  0  0  0  0  0  0  0
    3.0941   -3.1888   -1.8338 H   0  0  0  0  0  0  0  0  0  0  0  0
    4.0884   -1.3625   -1.6021 H   0  0  0  0  0  0  0  0  0  0  0  0
    3.8417    2.2433    0.6159 H   0  0  0  0  0  0  0  0  0  0  0  0
    1.4761    2.0931    0.5851 H   0  0  0  0  0  0  0  0  0  0  0  0
   -0.3908   -0.7942   -1.1173 H   0  0  0  0  0  0  0  0  0  0  0  0
   -1.5527    3.7411    1.5240 H   0  0  0  0  0  0  0  0  0  0  0  0
   -5.4512    1.6146    0.3437 H   0  0  0  0  0  0  0  0  0  0  0  0
   -3.4618   -1.0670   -1.4631 H   0  0  0  0  0  0  0  0  0  0  0  0
   -4.5499   -2.9280   -2.5862 H   0  0  0  0  0  0  0  0  0  0  0  0
   -6.9794   -3.2415   -2.5448 H   0  0  0  0  0  0  0  0  0  0  0  0
   -8.3700   -1.6025   -1.3070 H   0  0  0  0  0  0  0  0  0  0  0  0
   -6.4318    0.9614    2.2829 H   0  0  0  0  0  0  0  0  0  0  0  0
   -8.8919   -0.7229    2.7519 H   0  0  0  0  0  0  0  0  0  0  0  0
   -7.2984   -0.7908    3.5352 H   0  0  0  0  0  0  0  0  0  0  0  0
   -7.4824   -1.4748    1.8783 H   0  0  0  0  0  0  0  0  0  0  0  0
   -8.8248    1.3221    3.4920 H   0  0  0  0  0  0  0  0  0  0  0  0
   -9.2575    1.9142    1.8481 H   0  0  0  0  0  0  0  0  0  0  0  0
   -7.8960    2.6982    2.6756 H   0  0  0  0  0  0  0  0  0  0  0  0
    5.8202   -0.6676   -2.2516 H   0  0  0  0  0  0  0  0  0  0  0  0
    7.1250    0.5144   -1.8266 H   0  0  0  0  0  0  0  0  0  0  0  0
    7.7006   -1.8467   -1.2848 H   0  0  0  0  0  0  0  0  0  0  0  0
    6.3037   -1.8729   -0.1014 H   0  0  0  0  0  0  0  0  0  0  0  0
    7.4547    0.6012    2.1118 H   0  0  0  0  0  0  0  0  0  0  0  0
    8.4424    1.3559    0.8519 H   0  0  0  0  0  0  0  0  0  0  0  0
    6.6487    2.2625   -0.1628 H   0  0  0  0  0  0  0  0  0  0  0  0
    5.6871    1.7702    1.2420 H   0  0  0  0  0  0  0  0  0  0  0  0
    9.5328   -0.6867    2.7627 H   0  0  0  0  0  0  0  0  0  0  0  0
   11.0065   -1.0540    1.7696 H   0  0  0  0  0  0  0  0  0  0  0  0
   10.1598    0.5348    1.5838 H   0  0  0  0  0  0  0  0  0  0  0  0
  1  2  1  0
  2  3  1  0
  3  4  2  0
  4  5  1  0
  5  6  2  0
  6  7  1  0
  7  8  2  0
  8  9  1  0
  9 10  1  0
 10 11  2  0
 11 12  1  0
 12 13  2  0
 13 14  1  0
 13 15  1  0
 15 16  1  0
 16 17  1  0
 17 18  2  0
 18 19  1  0
 19 20  2  0
 20 21  1  0
 21 22  2  0
 22 23  1  0
 23 24  2  0
 23 25  2  0
 23 26  1  0
 26 27  1  0
 26 28  1  0
 15 29  2  0
  5 30  1  0
 30 31  1  0
 31 32  1  0
 32 33  1  0
 33 34  1  0
 34 35  1  0
 33 36  1  0
 36 37  1  0
 36 38  2  0
  8  3  1  0
 29 10  1  0
 35 30  1  0
 22 17  1  0
  1 39  1  0
  1 40  1  0
  1 41  1  0
  4 42  1  0
  6 43  1  0
  7 44  1  0
  9 45  1  0
 12 46  1  0
 16 47  1  0
 18 48  1  0
 19 49  1  0
 20 50  1  0
 21 51  1  0
 26 52  1  0
 27 53  1  0
 27 54  1  0
 27 55  1  0
 28 56  1  0
 28 57  1  0
 28 58  1  0
 31 59  1  0
 31 60  1  0
 32 61  1  0
 32 62  1  0
 34 63  1  0
 34 64  1  0
 35 65  1  0
 35 66  1  0
 37 67  1  0
 37 68  1  0
 37 69  1  0
M  END
$$$$
[H]c1c([H])c([H])c(C([H])([H])[C@@]([H])(C(=O)N([H])[C@]([H])(C(=O)N([H])[H])C([H])([H])C([H])(C([H])([H])[H])C([H])([H])[H])N([H])C(=O)[C@@]2([H])N(C(=O)[C@@]([H])(N([H])[H])C([H])([H])c3c([H])n([H])c4c([H])c([H])c([H])c([H])c34)C([H])([H])C([H])([H])C2([H])[H])c([H])c1[H]
     RDKit          3D

 81 84  0  0  0  0  0  0  0  0999 V2000
   -3.1759    2.7727    1.5839 C   0  0  0  0  0  0  0  0  0  0  0  0
   -4.2448    2.7961    0.5436 C   0  0  0  0  0  0  0  0  0  0  0  0
   -4.6456    4.2322    0.2387 C   0  0  0  0  0  0  0  0  0  0  0  0
   -5.4743    2.0333    0.8803 C   0  0  0  0  0  0  0  0  0  0  0  0
   -5.1633    0.5481    1.0957 C   0  0  2  0  0  0  0  0  0  0  0  0
   -4.6014   -0.0300   -0.0959 N   0  0  0  0  0  0  0  0  0  0  0  0
   -3.3460   -0.6802   -0.0523 C   0  0  0  0  0  0  0  0  0  0  0  0
   -2.7648   -0.7458    1.0843 O   0  0  0  0  0  0  0  0  0  0  0  0
   -2.6427   -1.2815   -1.1997 C   0  0  2  0  0  0  0  0  0  0  0  0
   -3.3793   -2.3391   -1.9505 C   0  0  0  0  0  0  0  0  0  0  0  0
   -3.7518   -3.5299   -1.1896 C   0  0  0  0  0  0  0  0  0  0  0  0
   -4.9814   -3.6700   -0.5860 C   0  0  0  0  0  0  0  0  0  0  0  0
   -5.3196   -4.7948    0.1412 C   0  0  0  0  0  0  0  0  0  0  0  0
   -4.4142   -5.8116    0.2745 C   0  0  0  0  0  0  0  0  0  0  0  0
   -3.1784   -5.6773   -0.3296 C   0  0  0  0  0  0  0  0  0  0  0  0
   -2.8361   -4.5574   -1.0556 C   0  0  0  0  0  0  0  0  0  0  0  0
   -1.3409   -1.7569   -0.7497 N   0  0  0  0  0  0  0  0  0  0  0  0
   -0.1088   -1.1282   -1.1431 C   0  0  0  0  0  0  0  0  0  0  0  0
   -0.2431   -0.1505   -1.8919 O   0  0  0  0  0  0  0  0  0  0  0  0
    1.1062   -1.6900   -0.6357 C   0  0  2  0  0  0  0  0  0  0  0  0
    1.0563   -1.9036    0.9009 C   0  0  0  0  0  0  0  0  0  0  0  0
    2.5237   -2.2198    1.2327 C   0  0  0  0  0  0  0  0  0  0  0  0
    3.2461   -2.1038   -0.0878 C   0  0  0  0  0  0  0  0  0  0  0  0
    2.3657   -1.0567   -0.7495 N   0  0  0  0  0  0  0  0  0  0  0  0
    2.8606    0.1329   -1.2732 C   0  0  0  0  0  0  0  0  0  0  0  0
    2.1419    0.9665   -1.8466 O   0  0  0  0  0  0  0  0  0  0  0  0
    4.3114    0.4968   -1.1832 C   0  0  1  0  0  0  0  0  0  0  0  0
    4.5919    1.5688   -2.1020 N   0  0  0  0  0  0  0  0  0  0  0  0
    4.6857    0.9362    0.2052 C   0  0  0  0  0  0  0  0  0  0  0  0
    6.1193    1.2913    0.2522 C   0  0  0  0  0  0  0  0  0  0  0  0
    7.1613    0.4070    0.5620 C   0  0  0  0  0  0  0  0  0  0  0  0
    8.3296    1.0545    0.4485 N   0  0  0  0  0  0  0  0  0  0  0  0
    8.1110    2.3272    0.0792 C   0  0  0  0  0  0  0  0  0  0  0  0
    8.9972    3.3787   -0.1495 C   0  0  0  0  0  0  0  0  0  0  0  0
    8.5328    4.6222   -0.5081 C   0  0  0  0  0  0  0  0  0  0  0  0
    7.1752    4.7663   -0.6250 C   0  0  0  0  0  0  0  0  0  0  0  0
    6.2793    3.7231   -0.3994 C   0  0  0  0  0  0  0  0  0  0  0  0
    6.7404    2.4807   -0.0434 C   0  0  0  0  0  0  0  0  0  0  0  0
   -6.4447   -0.0511    1.5282 C   0  0  0  0  0  0  0  0  0  0  0  0
   -7.1039    0.4176    2.7261 N   0  0  0  0  0  0  0  0  0  0  0  0
   -7.0046   -0.9537    0.9124 O   0  0  0  0  0  0  0  0  0  0  0  0
   -2.7932    3.8090    1.7947 H   0  0  0  0  0  0  0  0  0  0  0  0
   -2.2956    2.1460    1.2856 H   0  0  0  0  0  0  0  0  0  0  0  0
   -3.5643    2.2981    2.5090 H   0  0  0  0  0  0  0  0  0  0  0  0
   -3.7938    2.4001   -0.4052 H   0  0  0  0  0  0  0  0  0  0  0  0
   -3.7267    4.8469    0.3804 H   0  0  0  0  0  0  0  0  0  0  0  0
   -4.9740    4.3558   -0.8053 H   0  0  0  0  0  0  0  0  0  0  0  0
   -5.4100    4.6052    0.9499 H   0  0  0  0  0  0  0  0  0  0  0  0
   -6.2224    2.0658    0.0703 H   0  0  0  0  0  0  0  0  0  0  0  0
   -5.9629    2.3712    1.8152 H   0  0  0  0  0  0  0  0  0  0  0  0
   -4.4527    0.4713    1.9480 H   0  0  0  0  0  0  0  0  0  0  0  0
   -5.1496    0.0479   -0.9833 H   0  0  0  0  0  0  0  0  0  0  0  0
   -2.4903   -0.4302   -1.9272 H   0  0  0  0  0  0  0  0  0  0  0  0
   -4.2512   -1.8503   -2.4447 H   0  0  0  0  0  0  0  0  0  0  0  0
   -2.7180   -2.6523   -2.7930 H   0  0  0  0  0  0  0  0  0  0  0  0
   -5.7512   -2.9170   -0.6557 H   0  0  0  0  0  0  0  0  0  0  0  0
   -6.2974   -4.8813    0.6093 H   0  0  0  0  0  0  0  0  0  0  0  0
   -4.6432   -6.7202    0.8424 H   0  0  0  0  0  0  0  0  0  0  0  0
   -2.4411   -6.4858   -0.2310 H   0  0  0  0  0  0  0  0  0  0  0  0
   -1.8543   -4.5299   -1.4947 H   0  0  0  0  0  0  0  0  0  0  0  0
   -1.3167   -2.5755   -0.1244 H   0  0  0  0  0  0  0  0  0  0  0  0
    1.2760   -2.7480   -1.0524 H   0  0  0  0  0  0  0  0  0  0  0  0
    0.6768   -1.0301    1.4249 H   0  0  0  0  0  0  0  0  0  0  0  0
    0.4669   -2.8082    1.1116 H   0  0  0  0  0  0  0  0  0  0  0  0
    2.8494   -1.4374    1.9361 H   0  0  0  0  0  0  0  0  0  0  0  0
    2.6066   -3.2426    1.6601 H   0  0  0  0  0  0  0  0  0  0  0  0
    4.2714   -1.7912   -0.0547 H   0  0  0  0  0  0  0  0  0  0  0  0
    3.0384   -3.0075   -0.7046 H   0  0  0  0  0  0  0  0  0  0  0  0
    4.9353   -0.3897   -1.4818 H   0  0  0  0  0  0  0  0  0  0  0  0
    4.6331    1.2919   -3.0964 H   0  0  0  0  0  0  0  0  0  0  0  0
    3.8273    2.2948   -1.9581 H   0  0  0  0  0  0  0  0  0  0  0  0
    4.3751    0.2860    1.0177 H   0  0  0  0  0  0  0  0  0  0  0  0
    4.1006    1.8985    0.3741 H   0  0  0  0  0  0  0  0  0  0  0  0
    7.0135   -0.6437    0.8484 H   0  0  0  0  0  0  0  0  0  0  0  0
    9.2880    0.6687    0.6122 H   0  0  0  0  0  0  0  0  0  0  0  0
   10.0625    3.2166   -0.0445 H   0  0  0  0  0  0  0  0  0  0  0  0
    9.1856    5.4611   -0.6938 H   0  0  0  0  0  0  0  0  0  0  0  0
    6.7610    5.7254   -0.9037 H   0  0  0  0  0  0  0  0  0  0  0  0
    5.2267    3.8920   -0.4826 H   0  0  0  0  0  0  0  0  0  0  0  0
   -6.5117    0.6899    3.5424 H   0  0  0  0  0  0  0  0  0  0  0  0
   -8.1439    0.4784    2.7626 H   0  0  0  0  0  0  0  0  0  0  0  0
  1  2  1  0
  2  3  1  0
  2  4  1  0
  4  5  1  0
  5  6  1  0
  6  7  1  0
  7  8  2  0
  7  9  1  0
  9 10  1  0
 10 11  1  0
 11 12  2  0
 12 13  1  0
 13 14  2  0
 14 15  1  0
 15 16  2  0
  9 17  1  0
 17 18  1  0
 18 19  2  0
 18 20  1  0
 20 21  1  0
 21 22  1  0
 22 23  1  0
 23 24  1  0
 24 25  1  0
 25 26  2  0
 25 27  1  0
 27 28  1  0
 27 29  1  0
 29 30  1  0
 30 31  2  0
 31 32  1  0
 32 33  1  0
 33 34  2  0
 34 35  1  0
 35 36  2  0
 36 37  1  0
 37 38  2  0
  5 39  1  0
 39 40  1  0
 39 41  2  0
 16 11  1  0
 24 20  1  0
 38 30  1  0
 38 33  1  0
  1 42  1  0
  1 43  1  0
  1 44  1  0
  2 45  1  0
  3 46  1  0
  3 47  1  0
  3 48  1  0
  4 49  1  0
  4 50  1  0
  5 51  1  1
  6 52  1  0
  9 53  1  6
 10 54  1  0
 10 55  1  0
 12 56  1  0
 13 57  1  0
 14 58  1  0
 15 59  1  0
 16 60  1  0
 17 61  1  0
 20 62  1  6
 21 63  1  0
 21 64  1  0
 22 65  1  0
 22 66  1  0
 23 67  1  0
 23 68  1  0
 27 69  1  6
 28 70  1  0
 28 71  1  0
 29 72  1  0
 29 73  1  0
 31 74  1  0
 32 75  1  0
 34 76  1  0
 35 77  1  0
 36 78  1  0
 37 79  1  0
 40 80  1  0
 40 81  1  0
M  END
$$$$
[H]N=C(N([H])[H])N([H])C([H])([H])C([H])([H])C([H])([H])[C@@]([H])(C(=O)N([H])[C@]([H])(C(=O)N([H])[C@]([H])(C(=O)N([H])[H])C([H])([H])c1c([H])c([H])c([H])c([H])c1[H])C([H])([H])c1c([H])c([H])c([H])c([H])c1[H])N([H])C(=O)[C@@]([H])(N([H])C(=O)OC(C([H])([H])[H])(C([H])([H])[H])C([H])([H])[H])C([H])([H])c1c([H])c([H])c([H])c([H])c1[H]
     RDKit          3D

102104  0  0  0  0  0  0  0  0999 V2000
   -8.6322    1.0332    3.0399 C   0  0  0  0  0  0  0  0  0  0  0  0
   -7.9392    0.4381    1.8267 C   0  0  0  0  0  0  0  0  0  0  0  0
   -8.6143    0.9322    0.5954 C   0  0  0  0  0  0  0  0  0  0  0  0
   -8.1369   -1.0693    1.9440 C   0  0  0  0  0  0  0  0  0  0  0  0
   -6.5736    0.7405    1.8888 O   0  0  0  0  0  0  0  0  0  0  0  0
   -5.6280    0.3785    0.9599 C   0  0  0  0  0  0  0  0  0  0  0  0
   -6.0299   -0.2855   -0.0412 O   0  0  0  0  0  0  0  0  0  0  0  0
   -4.2656    0.6900    1.0406 N   0  0  0  0  0  0  0  0  0  0  0  0
   -3.2290    0.3616    0.1288 C   0  0  1  0  0  0  0  0  0  0  0  0
   -2.3289    1.4687   -0.2772 C   0  0  0  0  0  0  0  0  0  0  0  0
   -2.9616    2.6173   -0.9461 C   0  0  0  0  0  0  0  0  0  0  0  0
   -3.1415    2.6731   -2.3107 C   0  0  0  0  0  0  0  0  0  0  0  0
   -3.7193    3.7769   -2.8687 C   0  0  0  0  0  0  0  0  0  0  0  0
   -4.1469    4.8731   -2.1201 C   0  0  0  0  0  0  0  0  0  0  0  0
   -3.9528    4.7869   -0.7494 C   0  0  0  0  0  0  0  0  0  0  0  0
   -3.3708    3.6792   -0.1731 C   0  0  0  0  0  0  0  0  0  0  0  0
   -2.3692   -0.6955    0.7689 C   0  0  0  0  0  0  0  0  0  0  0  0
   -2.6496   -1.1505    1.8963 O   0  0  0  0  0  0  0  0  0  0  0  0
   -1.2152   -1.2001    0.1053 N   0  0  0  0  0  0  0  0  0  0  0  0
   -0.3257   -2.1943    0.6089 C   0  0  1  0  0  0  0  0  0  0  0  0
   -0.2150   -3.4810   -0.0743 C   0  0  0  0  0  0  0  0  0  0  0  0
    0.2188   -3.6045   -1.4669 C   0  0  0  0  0  0  0  0  0  0  0  0
   -0.5726   -2.9723   -2.5488 C   0  0  0  0  0  0  0  0  0  0  0  0
   -1.9396   -3.4010   -2.6360 N   0  0  0  0  0  0  0  0  0  0  0  0
   -2.7847   -2.8419   -3.6177 C   0  0  0  0  0  0  0  0  0  0  0  0
   -3.6601   -3.6591   -4.3536 N   0  0  0  0  0  0  0  0  0  0  0  0
   -2.7448   -1.5803   -3.8354 N   0  0  0  0  0  0  0  0  0  0  0  0
    0.9502   -1.5230    0.9851 C   0  0  0  0  0  0  0  0  0  0  0  0
    0.8581   -0.3454    1.4955 O   0  0  0  0  0  0  0  0  0  0  0  0
    2.2384   -2.0500    0.8319 N   0  0  0  0  0  0  0  0  0  0  0  0
    3.4331   -1.3289    1.2326 C   0  0  1  0  0  0  0  0  0  0  0  0
    4.5304   -2.2527    1.5589 C   0  0  0  0  0  0  0  0  0  0  0  0
    4.3036   -3.2046    2.6465 C   0  0  0  0  0  0  0  0  0  0  0  0
    3.7913   -4.4775    2.4381 C   0  0  0  0  0  0  0  0  0  0  0  0
    3.5872   -5.3698    3.4989 C   0  0  0  0  0  0  0  0  0  0  0  0
    3.8907   -5.0037    4.7780 C   0  0  0  0  0  0  0  0  0  0  0  0
    4.3975   -3.7503    5.0033 C   0  0  0  0  0  0  0  0  0  0  0  0
    4.5958   -2.8782    3.9550 C   0  0  0  0  0  0  0  0  0  0  0  0
    3.8436   -0.3698    0.1485 C   0  0  0  0  0  0  0  0  0  0  0  0
    3.1199   -0.2887   -0.8629 O   0  0  0  0  0  0  0  0  0  0  0  0
    4.9970    0.4195    0.2530 N   0  0  0  0  0  0  0  0  0  0  0  0
    5.3848    1.3737   -0.7946 C   0  0  1  0  0  0  0  0  0  0  0  0
    5.6380    2.6800   -0.1356 C   0  0  0  0  0  0  0  0  0  0  0  0
    6.0294    3.8104   -0.9776 C   0  0  0  0  0  0  0  0  0  0  0  0
    7.3246    4.1633   -1.2524 C   0  0  0  0  0  0  0  0  0  0  0  0
    7.6504    5.2555   -2.0508 C   0  0  0  0  0  0  0  0  0  0  0  0
    6.6236    6.0204   -2.5914 C   0  0  0  0  0  0  0  0  0  0  0  0
    5.3024    5.6930   -2.3342 C   0  0  0  0  0  0  0  0  0  0  0  0
    5.0305    4.6089   -1.5432 C   0  0  0  0  0  0  0  0  0  0  0  0
    6.4852    0.8348   -1.6062 C   0  0  0  0  0  0  0  0  0  0  0  0
    7.0667    1.4389   -2.7329 N   0  0  0  0  0  0  0  0  0  0  0  0
    6.9547   -0.3007   -1.2487 O   0  0  0  0  0  0  0  0  0  0  0  0
   -7.9887    1.8666    3.4109 H   0  0  0  0  0  0  0  0  0  0  0  0
   -8.7265    0.3048    3.8480 H   0  0  0  0  0  0  0  0  0  0  0  0
   -9.5946    1.5081    2.7547 H   0  0  0  0  0  0  0  0  0  0  0  0
   -9.6252    1.2993    0.8601 H   0  0  0  0  0  0  0  0  0  0  0  0
   -8.7524    0.0715   -0.1086 H   0  0  0  0  0  0  0  0  0  0  0  0
   -8.0934    1.7778    0.1047 H   0  0  0  0  0  0  0  0  0  0  0  0
   -9.1504   -1.2605    2.2938 H   0  0  0  0  0  0  0  0  0  0  0  0
   -7.9216   -1.5719    0.9911 H   0  0  0  0  0  0  0  0  0  0  0  0
   -7.4189   -1.4597    2.7080 H   0  0  0  0  0  0  0  0  0  0  0  0
   -3.9806    1.2492    1.9050 H   0  0  0  0  0  0  0  0  0  0  0  0
   -3.6650   -0.1614   -0.7533 H   0  0  0  0  0  0  0  0  0  0  0  0
   -1.5578    1.1032   -0.9912 H   0  0  0  0  0  0  0  0  0  0  0  0
   -1.7338    1.8541    0.5852 H   0  0  0  0  0  0  0  0  0  0  0  0
   -2.8055    1.8133   -2.8756 H   0  0  0  0  0  0  0  0  0  0  0  0
   -3.8542    3.8043   -3.9574 H   0  0  0  0  0  0  0  0  0  0  0  0
   -4.6014    5.7331   -2.5985 H   0  0  0  0  0  0  0  0  0  0  0  0
   -4.2704    5.6204   -0.1299 H   0  0  0  0  0  0  0  0  0  0  0  0
   -3.2512    3.6857    0.9164 H   0  0  0  0  0  0  0  0  0  0  0  0
   -1.0019   -0.7879   -0.8311 H   0  0  0  0  0  0  0  0  0  0  0  0
   -0.7996   -2.4656    1.6434 H   0  0  0  0  0  0  0  0  0  0  0  0
   -1.2146   -4.0059    0.0417 H   0  0  0  0  0  0  0  0  0  0  0  0
    0.4835   -4.1248    0.5501 H   0  0  0  0  0  0  0  0  0  0  0  0
    0.2231   -4.7242   -1.7028 H   0  0  0  0  0  0  0  0  0  0  0  0
    1.2884   -3.3249   -1.6468 H   0  0  0  0  0  0  0  0  0  0  0  0
   -0.4152   -1.8916   -2.6857 H   0  0  0  0  0  0  0  0  0  0  0  0
   -0.0766   -3.3863   -3.5228 H   0  0  0  0  0  0  0  0  0  0  0  0
   -2.3210   -4.1147   -1.9932 H   0  0  0  0  0  0  0  0  0  0  0  0
   -3.2578   -4.3372   -5.0355 H   0  0  0  0  0  0  0  0  0  0  0  0
   -4.6930   -3.6157   -4.2438 H   0  0  0  0  0  0  0  0  0  0  0  0
   -2.1008   -0.9506   -3.3039 H   0  0  0  0  0  0  0  0  0  0  0  0
    2.3825   -2.9916    0.4220 H   0  0  0  0  0  0  0  0  0  0  0  0
    3.1034   -0.6395    2.0549 H   0  0  0  0  0  0  0  0  0  0  0  0
    4.8580   -2.8672    0.6701 H   0  0  0  0  0  0  0  0  0  0  0  0
    5.4671   -1.6582    1.7971 H   0  0  0  0  0  0  0  0  0  0  0  0
    3.5401   -4.8108    1.4521 H   0  0  0  0  0  0  0  0  0  0  0  0
    3.1823   -6.3779    3.3277 H   0  0  0  0  0  0  0  0  0  0  0  0
    3.7565   -5.6447    5.6421 H   0  0  0  0  0  0  0  0  0  0  0  0
    4.6538   -3.4106    5.9916 H   0  0  0  0  0  0  0  0  0  0  0  0
    4.9930   -1.9082    4.1584 H   0  0  0  0  0  0  0  0  0  0  0  0
    5.6190    0.3569    1.0753 H   0  0  0  0  0  0  0  0  0  0  0  0
    4.5053    1.4454   -1.4761 H   0  0  0  0  0  0  0  0  0  0  0  0
    4.6705    2.9648    0.3944 H   0  0  0  0  0  0  0  0  0  0  0  0
    6.3437    2.5584    0.7480 H   0  0  0  0  0  0  0  0  0  0  0  0
    8.0991    3.5450   -0.8079 H   0  0  0  0  0  0  0  0  0  0  0  0
    8.6787    5.5198   -2.2590 H   0  0  0  0  0  0  0  0  0  0  0  0
    6.9260    6.8605   -3.2041 H   0  0  0  0  0  0  0  0  0  0  0  0
    4.5510    6.3216   -2.7782 H   0  0  0  0  0  0  0  0  0  0  0  0
    3.9877    4.3600   -1.3466 H   0  0  0  0  0  0  0  0  0  0  0  0
    6.4067    1.9889   -3.3573 H   0  0  0  0  0  0  0  0  0  0  0  0
    8.0535    1.4095   -3.0188 H   0  0  0  0  0  0  0  0  0  0  0  0
  1  2  1  0
  2  3  1  0
  2  4  1  0
  2  5  1  0
  5  6  1  0
  6  7  2  0
  6  8  1  0
  8  9  1  0
  9 10  1  0
 10 11  1  0
 11 12  2  0
 12 13  1  0
 13 14  2  0
 14 15  1  0
 15 16  2  0
  9 17  1  0
 17 18  2  0
 17 19  1  0
 19 20  1  0
 20 21  1  0
 21 22  1  0
 22 23  1  0
 23 24  1  0
 24 25  1  0
 25 26  1  0
 25 27  2  3
 20 28  1  0
 28 29  2  0
 28 30  1  0
 30 31  1  0
 31 32  1  0
 32 33  1  0
 33 34  2  0
 34 35  1  0
 35 36  2  0
 36 37  1  0
 37 38  2  0
 31 39  1  0
 39 40  2  0
 39 41  1  0
 41 42  1  0
 42 43  1  0
 43 44  1  0
 44 45  2  0
 45 46  1  0
 46 47  2  0
 47 48  1  0
 48 49  2  0
 42 50  1  0
 50 51  1  0
 50 52  2  0
 16 11  1  0
 38 33  1  0
 49 44  1  0
  1 53  1  0
  1 54  1  0
  1 55  1  0
  3 56  1  0
  3 57  1  0
  3 58  1  0
  4 59  1  0
  4 60  1  0
  4 61  1  0
  8 62  1  0
  9 63  1  6
 10 64  1  0
 10 65  1  0
 12 66  1  0
 13 67  1  0
 14 68  1  0
 15 69  1  0
 16 70  1  0
 19 71  1  0
 20 72  1  1
 21 73  1  0
 21 74  1  0
 22 75  1  0
 22 76  1  0
 23 77  1  0
 23 78  1  0
 24 79  1  0
 26 80  1  0
 26 81  1  0
 27 82  1  0
 30 83  1  0
 31 84  1  1
 32 85  1  0
 32 86  1  0
 34 87  1  0
 35 88  1  0
 36 89  1  0
 37 90  1  0
 38 91  1  0
 41 92  1  0
 42 93  1  6
 43 94  1  0
 43 95  1  0
 45 96  1  0
 46 97  1  0
 47 98  1  0
 48 99  1  0
 49100  1  0
 51101  1  0
 51102  1  0
M  END
$$$$
[H]N=C(N([H])[H])N([H])C([H])([H])C([H])([H])C([H])([H])[C@@]1([H])C(=O)N([H])[C@@]([H])(C([H])([H])c2c([H])c([H])c([H])c([H])c2[H])C(=O)N([H])[C@]([H])(C([H])([H])c2c([H])c([H])c([H])c([H])c2[H])C(=O)N2C([H])([H])C([H])([H])C([H])([H])[C@@]2([H])C(=O)N([H])[C@@]([H])(C([H])([H])c2c([H])c([H])c([H])c([H])c2[H])C(=O)N([H])[C@@]([H])(C([H])([H])c2c([H])c([H])c([H])c([H])c2[H])C(=O)N1[H]
     RDKit          3D

117122  0  0  0  0  0  0  0  0999 V2000
    0.2252    7.6192   -4.9386 N   0  0  0  0  0  0  0  0  0  0  0  0
    0.4487    7.4204   -3.5497 C   0  0  0  0  0  0  0  0  0  0  0  0
    1.1595    8.2327   -2.8616 N   0  0  0  0  0  0  0  0  0  0  0  0
   -0.1257    6.2888   -2.8667 N   0  0  0  0  0  0  0  0  0  0  0  0
   -0.4347    6.3857   -1.4728 C   0  0  0  0  0  0  0  0  0  0  0  0
   -1.0080    5.0667   -1.0073 C   0  0  0  0  0  0  0  0  0  0  0  0
   -0.0183    3.9365   -1.1934 C   0  0  0  0  0  0  0  0  0  0  0  0
   -0.6297    2.6172   -0.7249 C   0  0  2  0  0  0  0  0  0  0  0  0
   -0.9844    2.6803    0.6625 N   0  0  0  0  0  0  0  0  0  0  0  0
   -1.9325    1.8290    1.2481 C   0  0  0  0  0  0  0  0  0  0  0  0
   -2.0104    1.6857    2.5286 O   0  0  0  0  0  0  0  0  0  0  0  0
   -2.9018    1.0393    0.4840 C   0  0  2  0  0  0  0  0  0  0  0  0
   -4.0780    1.8814    0.1320 C   0  0  0  0  0  0  0  0  0  0  0  0
   -4.8224    2.4505    1.2998 C   0  0  0  0  0  0  0  0  0  0  0  0
   -5.9149    1.8438    1.8386 C   0  0  0  0  0  0  0  0  0  0  0  0
   -6.5683    2.3805    2.9088 C   0  0  0  0  0  0  0  0  0  0  0  0
   -6.1257    3.5779    3.4799 C   0  0  0  0  0  0  0  0  0  0  0  0
   -5.0192    4.1760    2.9197 C   0  0  0  0  0  0  0  0  0  0  0  0
   -4.3678    3.6277    1.8422 C   0  0  0  0  0  0  0  0  0  0  0  0
   -3.2602   -0.2050    1.1632 N   0  0  0  0  0  0  0  0  0  0  0  0
   -2.4933   -1.3369    1.3601 C   0  0  0  0  0  0  0  0  0  0  0  0
   -2.2799   -1.7018    2.5798 O   0  0  0  0  0  0  0  0  0  0  0  0
   -1.8438   -2.2470    0.3868 C   0  0  2  0  0  0  0  0  0  0  0  0
   -2.6330   -3.5332    0.4273 C   0  0  0  0  0  0  0  0  0  0  0  0
   -4.0375   -3.4559    0.0736 C   0  0  0  0  0  0  0  0  0  0  0  0
   -4.9798   -3.2506    1.0610 C   0  0  0  0  0  0  0  0  0  0  0  0
   -6.3325   -3.1678    0.8064 C   0  0  0  0  0  0  0  0  0  0  0  0
   -6.8159   -3.2889   -0.4728 C   0  0  0  0  0  0  0  0  0  0  0  0
   -5.8721   -3.4969   -1.4789 C   0  0  0  0  0  0  0  0  0  0  0  0
   -4.5223   -3.5785   -1.2182 C   0  0  0  0  0  0  0  0  0  0  0  0
   -0.4723   -2.5219    0.7972 N   0  0  0  0  0  0  0  0  0  0  0  0
    0.4030   -3.4665    0.2257 C   0  0  0  0  0  0  0  0  0  0  0  0
    1.1201   -4.1111    1.0229 O   0  0  0  0  0  0  0  0  0  0  0  0
    0.5022   -3.7126   -1.1793 C   0  0  2  0  0  0  0  0  0  0  0  0
    0.6308   -5.2702   -1.2863 C   0  0  0  0  0  0  0  0  0  0  0  0
    0.6367   -5.3808   -2.7669 C   0  0  0  0  0  0  0  0  0  0  0  0
    1.3110   -4.1421   -3.2204 C   0  0  0  0  0  0  0  0  0  0  0  0
    1.6037   -3.3537   -1.9704 N   0  0  0  0  0  0  0  0  0  0  0  0
    2.7153   -2.5359   -1.8544 C   0  0  0  0  0  0  0  0  0  0  0  0
    3.4745   -2.3024   -2.9073 O   0  0  0  0  0  0  0  0  0  0  0  0
    3.2957   -1.7961   -0.7120 C   0  0  1  0  0  0  0  0  0  0  0  0
    4.6702   -2.4242   -0.4336 C   0  0  0  0  0  0  0  0  0  0  0  0
    4.6907   -3.8107   -0.0671 C   0  0  0  0  0  0  0  0  0  0  0  0
    4.7634   -4.8219   -0.9891 C   0  0  0  0  0  0  0  0  0  0  0  0
    4.8054   -6.1661   -0.6033 C   0  0  0  0  0  0  0  0  0  0  0  0
    4.7744   -6.4941    0.7224 C   0  0  0  0  0  0  0  0  0  0  0  0
    4.7016   -5.4936    1.6869 C   0  0  0  0  0  0  0  0  0  0  0  0
    4.6615   -4.1806    1.2755 C   0  0  0  0  0  0  0  0  0  0  0  0
    3.6451   -0.4443   -1.1573 N   0  0  0  0  0  0  0  0  0  0  0  0
    3.5687    0.7629   -0.4773 C   0  0  0  0  0  0  0  0  0  0  0  0
    4.6270    1.4947   -0.3883 O   0  0  0  0  0  0  0  0  0  0  0  0
    2.3840    1.3656    0.1940 C   0  0  2  0  0  0  0  0  0  0  0  0
    2.4099    1.0948    1.6790 C   0  0  0  0  0  0  0  0  0  0  0  0
    3.5983    1.6360    2.3373 C   0  0  0  0  0  0  0  0  0  0  0  0
    4.7097    0.8498    2.5643 C   0  0  0  0  0  0  0  0  0  0  0  0
    5.8507    1.3456    3.1748 C   0  0  0  0  0  0  0  0  0  0  0  0
    5.9205    2.6529    3.5820 C   0  0  0  0  0  0  0  0  0  0  0  0
    4.8214    3.4682    3.3682 C   0  0  0  0  0  0  0  0  0  0  0  0
    3.6962    2.9623    2.7618 C   0  0  0  0  0  0  0  0  0  0  0  0
    1.1563    0.8065   -0.3531 N   0  0  0  0  0  0  0  0  0  0  0  0
    0.1940    1.4599   -1.1114 C   0  0  0  0  0  0  0  0  0  0  0  0
   -0.0044    0.9970   -2.2968 O   0  0  0  0  0  0  0  0  0  0  0  0
   -0.3249    8.4351   -5.2618 H   0  0  0  0  0  0  0  0  0  0  0  0
    0.6157    6.9454   -5.6235 H   0  0  0  0  0  0  0  0  0  0  0  0
    1.6220    9.0772   -3.2289 H   0  0  0  0  0  0  0  0  0  0  0  0
   -0.3073    5.4301   -3.3925 H   0  0  0  0  0  0  0  0  0  0  0  0
    0.5212    6.5707   -0.9030 H   0  0  0  0  0  0  0  0  0  0  0  0
   -1.0985    7.2347   -1.2246 H   0  0  0  0  0  0  0  0  0  0  0  0
   -1.9684    4.8505   -1.5336 H   0  0  0  0  0  0  0  0  0  0  0  0
   -1.1961    5.1400    0.0863 H   0  0  0  0  0  0  0  0  0  0  0  0
    0.8157    4.1582   -0.4854 H   0  0  0  0  0  0  0  0  0  0  0  0
    0.2749    3.8809   -2.2391 H   0  0  0  0  0  0  0  0  0  0  0  0
   -1.6065    2.5857   -1.2804 H   0  0  0  0  0  0  0  0  0  0  0  0
   -0.5151    3.3921    1.2625 H   0  0  0  0  0  0  0  0  0  0  0  0
   -2.4679    0.6838   -0.5004 H   0  0  0  0  0  0  0  0  0  0  0  0
   -4.8602    1.2937   -0.4386 H   0  0  0  0  0  0  0  0  0  0  0  0
   -3.8004    2.7169   -0.5225 H   0  0  0  0  0  0  0  0  0  0  0  0
   -6.3084    0.9124    1.4195 H   0  0  0  0  0  0  0  0  0  0  0  0
   -7.4502    1.9087    3.3589 H   0  0  0  0  0  0  0  0  0  0  0  0
   -6.6532    3.9839    4.3209 H   0  0  0  0  0  0  0  0  0  0  0  0
   -4.6844    5.1134    3.3780 H   0  0  0  0  0  0  0  0  0  0  0  0
   -3.5014    4.1548    1.4468 H   0  0  0  0  0  0  0  0  0  0  0  0
   -4.2596   -0.1977    1.5515 H   0  0  0  0  0  0  0  0  0  0  0  0
   -1.7813   -1.8212   -0.6299 H   0  0  0  0  0  0  0  0  0  0  0  0
   -2.5672   -4.0076    1.4521 H   0  0  0  0  0  0  0  0  0  0  0  0
   -2.1369   -4.2763   -0.2264 H   0  0  0  0  0  0  0  0  0  0  0  0
   -4.7012   -3.1467    2.1129 H   0  0  0  0  0  0  0  0  0  0  0  0
   -7.0430   -3.0056    1.6154 H   0  0  0  0  0  0  0  0  0  0  0  0
   -7.8628   -3.2241   -0.6677 H   0  0  0  0  0  0  0  0  0  0  0  0
   -6.2740   -3.5929   -2.4918 H   0  0  0  0  0  0  0  0  0  0  0  0
   -3.7901   -3.7397   -1.9885 H   0  0  0  0  0  0  0  0  0  0  0  0
   -0.1443   -1.9104    1.6251 H   0  0  0  0  0  0  0  0  0  0  0  0
   -0.4688   -3.5447   -1.7368 H   0  0  0  0  0  0  0  0  0  0  0  0
   -0.2691   -5.6837   -0.8126 H   0  0  0  0  0  0  0  0  0  0  0  0
    1.5694   -5.5580   -0.8084 H   0  0  0  0  0  0  0  0  0  0  0  0
   -0.4375   -5.3355   -3.1132 H   0  0  0  0  0  0  0  0  0  0  0  0
    1.0959   -6.3167   -3.1475 H   0  0  0  0  0  0  0  0  0  0  0  0
    0.6804   -3.5176   -3.8954 H   0  0  0  0  0  0  0  0  0  0  0  0
    2.2113   -4.4170   -3.7585 H   0  0  0  0  0  0  0  0  0  0  0  0
    2.7474   -1.8502    0.2046 H   0  0  0  0  0  0  0  0  0  0  0  0
    5.2183   -1.7863    0.3249 H   0  0  0  0  0  0  0  0  0  0  0  0
    5.2512   -2.2117   -1.3824 H   0  0  0  0  0  0  0  0  0  0  0  0
    4.7984   -4.6652   -2.0558 H   0  0  0  0  0  0  0  0  0  0  0  0
    4.8630   -6.9421   -1.3506 H   0  0  0  0  0  0  0  0  0  0  0  0
    4.8043   -7.5156    1.0267 H   0  0  0  0  0  0  0  0  0  0  0  0
    4.6811   -5.8131    2.7182 H   0  0  0  0  0  0  0  0  0  0  0  0
    4.6050   -3.3959    2.0017 H   0  0  0  0  0  0  0  0  0  0  0  0
    4.0218   -0.4165   -2.1586 H   0  0  0  0  0  0  0  0  0  0  0  0
    2.3997    2.4789    0.1083 H   0  0  0  0  0  0  0  0  0  0  0  0
    1.4890    1.5393    2.1402 H   0  0  0  0  0  0  0  0  0  0  0  0
    2.4206   -0.0102    1.7929 H   0  0  0  0  0  0  0  0  0  0  0  0
    4.7342   -0.1976    2.2731 H   0  0  0  0  0  0  0  0  0  0  0  0
    6.7284    0.7368    3.3583 H   0  0  0  0  0  0  0  0  0  0  0  0
    6.8317    3.0357    4.0646 H   0  0  0  0  0  0  0  0  0  0  0  0
    4.8903    4.5086    3.6963 H   0  0  0  0  0  0  0  0  0  0  0  0
    2.8496    3.6178    2.6036 H   0  0  0  0  0  0  0  0  0  0  0  0
    1.0522   -0.2295   -0.1201 H   0  0  0  0  0  0  0  0  0  0  0  0
  1  2  1  0
  2  3  2  3
  2  4  1  0
  4  5  1  0
  5  6  1  0
  6  7  1  0
  7  8  1  0
  8  9  1  0
  9 10  1  0
 10 11  2  0
 10 12  1  0
 12 13  1  0
 13 14  1  0
 14 15  2  0
 15 16  1  0
 16 17  2  0
 17 18  1  0
 18 19  2  0
 12 20  1  0
 20 21  1  0
 21 22  2  0
 21 23  1  0
 23 24  1  0
 24 25  1  0
 25 26  2  0
 26 27  1  0
 27 28  2  0
 28 29  1  0
 29 30  2  0
 23 31  1  0
 31 32  1  0
 32 33  2  0
 32 34  1  0
 34 35  1  0
 35 36  1  0
 36 37  1  0
 37 38  1  0
 38 39  1  0
 39 40  2  0
 39 41  1  0
 41 42  1  0
 42 43  1  0
 43 44  2  0
 44 45  1  0
 45 46  2  0
 46 47  1  0
 47 48  2  0
 41 49  1  0
 49 50  1  0
 50 51  2  0
 50 52  1  0
 52 53  1  0
 53 54  1  0
 54 55  2  0
 55 56  1  0
 56 57  2  0
 57 58  1  0
 58 59  2  0
 52 60  1  0
 60 61  1  0
 61 62  2  0
 61  8  1  0
 19 14  1  0
 30 25  1  0
 38 34  1  0
 48 43  1  0
 59 54  1  0
  1 63  1  0
  1 64  1  0
  3 65  1  0
  4 66  1  0
  5 67  1  0
  5 68  1  0
  6 69  1  0
  6 70  1  0
  7 71  1  0
  7 72  1  0
  8 73  1  6
  9 74  1  0
 12 75  1  6
 13 76  1  0
 13 77  1  0
 15 78  1  0
 16 79  1  0
 17 80  1  0
 18 81  1  0
 19 82  1  0
 20 83  1  0
 23 84  1  6
 24 85  1  0
 24 86  1  0
 26 87  1  0
 27 88  1  0
 28 89  1  0
 29 90  1  0
 30 91  1  0
 31 92  1  0
 34 93  1  6
 35 94  1  0
 35 95  1  0
 36 96  1  0
 36 97  1  0
 37 98  1  0
 37 99  1  0
 41100  1  1
 42101  1  0
 42102  1  0
 44103  1  0
 45104  1  0
 46105  1  0
 47106  1  0
 48107  1  0
 49108  1  0
 52109  1  1
 53110  1  0
 53111  1  0
 55112  1  0
 56113  1  0
 57114  1  0
 58115  1  0
 59116  1  0
 60117  1  0
M  END
$$$$
[H]Oc1c([H])c(-c2c([H])nc3c(c(N([H])[H])nn3[H])c2[H])c([H])c(O[H])c1O[H]
     RDKit          3D

 29 31  0  0  0  0  0  0  0  0999 V2000
   -4.0006    1.7258   -1.0605 N   0  0  0  0  0  0  0  0  0  0  0  0
   -3.8764    0.7556   -0.0347 C   0  0  0  0  0  0  0  0  0  0  0  0
   -4.8535    0.2370    0.7483 N   0  0  0  0  0  0  0  0  0  0  0  0
   -4.3290   -0.6485    1.5953 N   0  0  0  0  0  0  0  0  0  0  0  0
   -3.0027   -0.7438    1.4027 C   0  0  0  0  0  0  0  0  0  0  0  0
   -2.0052   -1.4533    1.9537 N   0  0  0  0  0  0  0  0  0  0  0  0
   -0.7392   -1.3194    1.5271 C   0  0  0  0  0  0  0  0  0  0  0  0
   -0.3951   -0.4478    0.5015 C   0  0  0  0  0  0  0  0  0  0  0  0
   -1.4033    0.2745   -0.0620 C   0  0  0  0  0  0  0  0  0  0  0  0
   -2.7113    0.1329    0.3831 C   0  0  0  0  0  0  0  0  0  0  0  0
    0.9857   -0.2990    0.0349 C   0  0  0  0  0  0  0  0  0  0  0  0
    1.8606   -1.3921    0.0689 C   0  0  0  0  0  0  0  0  0  0  0  0
    3.1559   -1.3049   -0.3439 C   0  0  0  0  0  0  0  0  0  0  0  0
    3.9506   -2.4403   -0.2744 O   0  0  0  0  0  0  0  0  0  0  0  0
    3.6231   -0.0995   -0.8117 C   0  0  0  0  0  0  0  0  0  0  0  0
    4.9396   -0.0308   -1.2254 O   0  0  0  0  0  0  0  0  0  0  0  0
    2.7725    1.0101   -0.8576 C   0  0  0  0  0  0  0  0  0  0  0  0
    3.3175    2.1898   -1.3415 O   0  0  0  0  0  0  0  0  0  0  0  0
    1.4690    0.8812   -0.4312 C   0  0  0  0  0  0  0  0  0  0  0  0
   -3.9574    2.7275   -0.8026 H   0  0  0  0  0  0  0  0  0  0  0  0
   -4.1299    1.4364   -2.0342 H   0  0  0  0  0  0  0  0  0  0  0  0
   -4.8093   -1.2262    2.3319 H   0  0  0  0  0  0  0  0  0  0  0  0
    0.0911   -1.8840    1.9590 H   0  0  0  0  0  0  0  0  0  0  0  0
   -1.2198    0.9717   -0.8640 H   0  0  0  0  0  0  0  0  0  0  0  0
    1.4324   -2.3137    0.4478 H   0  0  0  0  0  0  0  0  0  0  0  0
    4.9286   -2.4271   -0.5715 H   0  0  0  0  0  0  0  0  0  0  0  0
    5.2712    0.8817   -1.5711 H   0  0  0  0  0  0  0  0  0  0  0  0
    2.8212    3.0592   -1.4275 H   0  0  0  0  0  0  0  0  0  0  0  0
    0.8137    1.7465   -0.4711 H   0  0  0  0  0  0  0  0  0  0  0  0
  1  2  1  0
  2  3  2  0
  3  4  1  0
  4  5  1  0
  5  6  2  0
  6  7  1  0
  7  8  2  0
  8  9  1  0
  9 10  2  0
  8 11  1  0
 11 12  2  0
 12 13  1  0
 13 14  1  0
 13 15  2  0
 15 16  1  0
 15 17  1  0
 17 18  1  0
 17 19  2  0
 10  2  1  0
 19 11  1  0
 10  5  1  0
  1 20  1  0
  1 21  1  0
  4 22  1  0
  7 23  1  0
  9 24  1  0
 12 25  1  0
 14 26  1  0
 16 27  1  0
 18 28  1  0
 19 29  1  0
M  END
$$$$
[H]c1nc(N([H])c2c([H])c([H])c(N3C([H])([H])C([H])([H])C([H])([H])C3([H])[H])c([H])c2OC([H])([H])[H])nc(N([H])c2c([H])c([H])c([H])c([H])c2S(=O)(=O)C([H])(C([H])([H])[H])C([H])([H])[H])c1Cl
     RDKit          3D

 62 65  0  0  0  0  0  0  0  0999 V2000
    3.2096   -2.0609    2.6947 C   0  0  0  0  0  0  0  0  0  0  0  0
    2.4224   -1.4133    1.7127 O   0  0  0  0  0  0  0  0  0  0  0  0
    2.9677   -0.3618    0.9953 C   0  0  0  0  0  0  0  0  0  0  0  0
    4.2572    0.0530    1.2291 C   0  0  0  0  0  0  0  0  0  0  0  0
    4.8235    1.0886    0.5366 C   0  0  0  0  0  0  0  0  0  0  0  0
    4.0752    1.7161   -0.4079 C   0  0  0  0  0  0  0  0  0  0  0  0
    2.7540    1.2879   -0.6446 C   0  0  0  0  0  0  0  0  0  0  0  0
    2.1664    0.2666    0.0243 C   0  0  0  0  0  0  0  0  0  0  0  0
    0.8696   -0.1802   -0.1856 N   0  0  0  0  0  0  0  0  0  0  0  0
   -0.1084    0.2853   -1.0961 C   0  0  0  0  0  0  0  0  0  0  0  0
    0.0610    1.2910   -1.9564 N   0  0  0  0  0  0  0  0  0  0  0  0
   -0.8873    1.7043   -2.8056 C   0  0  0  0  0  0  0  0  0  0  0  0
   -2.1134    1.0929   -2.8294 C   0  0  0  0  0  0  0  0  0  0  0  0
   -3.3915    1.5675   -3.9002 Cl  0  0  0  0  0  0  0  0  0  0  0  0
   -2.3447    0.0208   -1.9370 C   0  0  0  0  0  0  0  0  0  0  0  0
   -3.6191   -0.5623   -1.9497 N   0  0  0  0  0  0  0  0  0  0  0  0
   -4.0331   -1.6625   -1.1801 C   0  0  0  0  0  0  0  0  0  0  0  0
   -3.0825   -2.5500   -0.6621 C   0  0  0  0  0  0  0  0  0  0  0  0
   -3.4800   -3.7098   -0.0047 C   0  0  0  0  0  0  0  0  0  0  0  0
   -4.8200   -3.9597    0.1206 C   0  0  0  0  0  0  0  0  0  0  0  0
   -5.7733   -3.1221   -0.3685 C   0  0  0  0  0  0  0  0  0  0  0  0
   -5.4002   -1.9313   -1.0412 C   0  0  0  0  0  0  0  0  0  0  0  0
   -6.6384   -0.8507   -1.5489 S   0  0  0  0  0  0  0  0  0  0  0  0
   -7.9900   -1.6248   -1.4519 O   0  0  0  0  0  0  0  0  0  0  0  0
   -6.4774   -0.4460   -2.9853 O   0  0  0  0  0  0  0  0  0  0  0  0
   -6.8303    0.5130   -0.4913 C   0  0  0  0  0  0  0  0  0  0  0  0
   -7.3705    0.0426    0.8690 C   0  0  0  0  0  0  0  0  0  0  0  0
   -5.5901    1.2834   -0.2036 C   0  0  0  0  0  0  0  0  0  0  0  0
   -1.3250   -0.2996   -1.1400 N   0  0  0  0  0  0  0  0  0  0  0  0
    6.1674    1.4448    0.8462 N   0  0  0  0  0  0  0  0  0  0  0  0
    6.8682    2.5381    0.1883 C   0  0  0  0  0  0  0  0  0  0  0  0
    8.2520    2.5587    0.7521 C   0  0  0  0  0  0  0  0  0  0  0  0
    8.4449    1.1679    1.3147 C   0  0  0  0  0  0  0  0  0  0  0  0
    7.0530    0.8320    1.8113 C   0  0  0  0  0  0  0  0  0  0  0  0
    4.0894   -2.5362    2.1987 H   0  0  0  0  0  0  0  0  0  0  0  0
    2.6755   -2.8565    3.2164 H   0  0  0  0  0  0  0  0  0  0  0  0
    3.5743   -1.2577    3.3766 H   0  0  0  0  0  0  0  0  0  0  0  0
    4.8446   -0.4612    1.9910 H   0  0  0  0  0  0  0  0  0  0  0  0
    4.5234    2.5305   -0.9509 H   0  0  0  0  0  0  0  0  0  0  0  0
    2.2714    1.8655   -1.4148 H   0  0  0  0  0  0  0  0  0  0  0  0
    0.5351   -1.0076    0.4279 H   0  0  0  0  0  0  0  0  0  0  0  0
   -0.7109    2.5334   -3.4969 H   0  0  0  0  0  0  0  0  0  0  0  0
   -4.3140   -0.1463   -2.6066 H   0  0  0  0  0  0  0  0  0  0  0  0
   -2.0227   -2.3788   -0.7743 H   0  0  0  0  0  0  0  0  0  0  0  0
   -2.7473   -4.3997    0.3987 H   0  0  0  0  0  0  0  0  0  0  0  0
   -5.1686   -4.8689    0.6336 H   0  0  0  0  0  0  0  0  0  0  0  0
   -6.8436   -3.3243   -0.2661 H   0  0  0  0  0  0  0  0  0  0  0  0
   -7.6366    1.2216   -0.8449 H   0  0  0  0  0  0  0  0  0  0  0  0
   -8.2066   -0.6669    0.7112 H   0  0  0  0  0  0  0  0  0  0  0  0
   -7.7906    0.9344    1.3833 H   0  0  0  0  0  0  0  0  0  0  0  0
   -6.5680   -0.3436    1.5138 H   0  0  0  0  0  0  0  0  0  0  0  0
   -4.8537    0.7097    0.3759 H   0  0  0  0  0  0  0  0  0  0  0  0
   -5.8201    2.1632    0.4907 H   0  0  0  0  0  0  0  0  0  0  0  0
   -5.2221    1.7511   -1.1308 H   0  0  0  0  0  0  0  0  0  0  0  0
    6.3066    3.4803    0.3755 H   0  0  0  0  0  0  0  0  0  0  0  0
    6.8731    2.3300   -0.9042 H   0  0  0  0  0  0  0  0  0  0  0  0
    8.4205    3.3305    1.5265 H   0  0  0  0  0  0  0  0  0  0  0  0
    8.9618    2.7046   -0.1146 H   0  0  0  0  0  0  0  0  0  0  0  0
    8.6951    0.5113    0.4519 H   0  0  0  0  0  0  0  0  0  0  0  0
    9.2055    1.1239    2.1031 H   0  0  0  0  0  0  0  0  0  0  0  0
    6.8957   -0.2634    1.8903 H   0  0  0  0  0  0  0  0  0  0  0  0
    6.9158    1.3020    2.8021 H   0  0  0  0  0  0  0  0  0  0  0  0
  1  2  1  0
  2  3  1  0
  3  4  2  0
  4  5  1  0
  5  6  2  0
  6  7  1  0
  7  8  2  0
  8  9  1  0
  9 10  1  0
 10 11  2  0
 11 12  1  0
 12 13  2  0
 13 14  1  0
 13 15  1  0
 15 16  1  0
 16 17  1  0
 17 18  2  0
 18 19  1  0
 19 20  2  0
 20 21  1  0
 21 22  2  0
 22 23  1  0
 23 24  2  0
 23 25  2  0
 23 26  1  0
 26 27  1  0
 26 28  1  0
 15 29  2  0
  5 30  1  0
 30 31  1  0
 31 32  1  0
 32 33  1  0
 33 34  1  0
  8  3  1  0
 29 10  1  0
 34 30  1  0
 22 17  1  0
  1 35  1  0
  1 36  1  0
  1 37  1  0
  4 38  1  0
  6 39  1  0
  7 40  1  0
  9 41  1  0
 12 42  1  0
 16 43  1  0
 18 44  1  0
 19 45  1  0
 20 46  1  0
 21 47  1  0
 26 48  1  0
 27 49  1  0
 27 50  1  0
 27 51  1  0
 28 52  1  0
 28 53  1  0
 28 54  1  0
 31 55  1  0
 31 56  1  0
 32 57  1  0
 32 58  1  0
 33 59  1  0
 33 60  1  0
 34 61  1  0
 34 62  1  0
M  END
$$$$
[H]O[C@]([H])(c1c([H])c([H])c(Cl)c([H])c1[H])[C@]1([H])N(C(=O)N([H])c2c([H])c([H])c(Cl)c(C(F)(F)F)c2[H])C([H])([H])[C@@]([H])(C([H])([H])[H])C1([H])[H]
     RDKit          3D

 48 50  0  0  0  0  0  0  0  0999 V2000
   -1.6405   -3.4202   -1.7272 C   0  0  0  0  0  0  0  0  0  0  0  0
   -1.8499   -1.9525   -1.9675 C   0  0  1  0  0  0  0  0  0  0  0  0
   -2.7591   -1.4058   -0.8629 C   0  0  0  0  0  0  0  0  0  0  0  0
   -1.7946   -1.5765    0.3214 C   0  0  1  0  0  0  0  0  0  0  0  0
   -0.5569   -1.1143   -0.1798 N   0  0  0  0  0  0  0  0  0  0  0  0
   -0.5863   -1.1881   -1.6263 C   0  0  0  0  0  0  0  0  0  0  0  0
    0.6450   -0.6637    0.5054 C   0  0  0  0  0  0  0  0  0  0  0  0
    0.6827   -0.6810    1.7590 O   0  0  0  0  0  0  0  0  0  0  0  0
    1.7627   -0.2101   -0.2108 N   0  0  0  0  0  0  0  0  0  0  0  0
    2.9918    0.2547    0.2073 C   0  0  0  0  0  0  0  0  0  0  0  0
    3.4087    0.2011    1.5096 C   0  0  0  0  0  0  0  0  0  0  0  0
    4.6587    0.6883    1.9327 C   0  0  0  0  0  0  0  0  0  0  0  0
    5.5103    1.2441    1.0170 C   0  0  0  0  0  0  0  0  0  0  0  0
    7.0856    1.8736    1.4687 Cl  0  0  0  0  0  0  0  0  0  0  0  0
    5.1336    1.3181   -0.2988 C   0  0  0  0  0  0  0  0  0  0  0  0
    3.9110    0.8354   -0.6791 C   0  0  0  0  0  0  0  0  0  0  0  0
    6.0721    1.9284   -1.2953 C   0  0  0  0  0  0  0  0  0  0  0  0
    7.2696    1.2285   -1.3392 F   0  0  0  0  0  0  0  0  0  0  0  0
    5.4677    1.9942   -2.5356 F   0  0  0  0  0  0  0  0  0  0  0  0
    6.3624    3.2052   -0.8830 F   0  0  0  0  0  0  0  0  0  0  0  0
   -2.4005   -0.9360    1.4930 C   0  0  2  0  0  0  0  0  0  0  0  0
   -3.5941   -1.6695    1.7798 O   0  0  0  0  0  0  0  0  0  0  0  0
   -2.8739    0.4566    1.3613 C   0  0  0  0  0  0  0  0  0  0  0  0
   -2.1667    1.5283    1.8156 C   0  0  0  0  0  0  0  0  0  0  0  0
   -2.6596    2.8167    1.7056 C   0  0  0  0  0  0  0  0  0  0  0  0
   -3.8729    3.0936    1.1412 C   0  0  0  0  0  0  0  0  0  0  0  0
   -4.4800    4.7332    1.0111 Cl  0  0  0  0  0  0  0  0  0  0  0  0
   -4.6082    2.0314    0.6743 C   0  0  0  0  0  0  0  0  0  0  0  0
   -4.1185    0.7554    0.7839 C   0  0  0  0  0  0  0  0  0  0  0  0
   -2.4154   -3.8870   -1.0983 H   0  0  0  0  0  0  0  0  0  0  0  0
   -0.6615   -3.5845   -1.2224 H   0  0  0  0  0  0  0  0  0  0  0  0
   -1.5600   -3.9576   -2.7043 H   0  0  0  0  0  0  0  0  0  0  0  0
   -2.1916   -1.7214   -2.9726 H   0  0  0  0  0  0  0  0  0  0  0  0
   -3.6719   -1.9807   -0.7572 H   0  0  0  0  0  0  0  0  0  0  0  0
   -2.8901   -0.3374   -1.1427 H   0  0  0  0  0  0  0  0  0  0  0  0
   -1.7574   -2.7133    0.4350 H   0  0  0  0  0  0  0  0  0  0  0  0
    0.3046   -1.7880   -1.9279 H   0  0  0  0  0  0  0  0  0  0  0  0
   -0.5380   -0.1992   -2.1070 H   0  0  0  0  0  0  0  0  0  0  0  0
    1.6333   -0.2322   -1.2884 H   0  0  0  0  0  0  0  0  0  0  0  0
    2.8334   -0.2168    2.3153 H   0  0  0  0  0  0  0  0  0  0  0  0
    4.9791    0.6419    2.9630 H   0  0  0  0  0  0  0  0  0  0  0  0
    3.6292    0.9001   -1.7130 H   0  0  0  0  0  0  0  0  0  0  0  0
   -1.8214   -0.9962    2.4320 H   0  0  0  0  0  0  0  0  0  0  0  0
   -3.3462   -2.5168    2.2488 H   0  0  0  0  0  0  0  0  0  0  0  0
   -1.1893    1.4095    2.2850 H   0  0  0  0  0  0  0  0  0  0  0  0
   -2.0644    3.6339    2.0793 H   0  0  0  0  0  0  0  0  0  0  0  0
   -5.5679    2.2449    0.2274 H   0  0  0  0  0  0  0  0  0  0  0  0
   -4.7050   -0.0681    0.4139 H   0  0  0  0  0  0  0  0  0  0  0  0
  1  2  1  0
  2  3  1  0
  3  4  1  0
  4  5  1  0
  5  6  1  0
  5  7  1  0
  7  8  2  0
  7  9  1  0
  9 10  1  0
 10 11  2  0
 11 12  1  0
 12 13  2  0
 13 14  1  0
 13 15  1  0
 15 16  2  0
 15 17  1  0
 17 18  1  0
 17 19  1  0
 17 20  1  0
  4 21  1  0
 21 22  1  0
 21 23  1  0
 23 24  2  0
 24 25  1  0
 25 26  2  0
 26 27  1  0
 26 28  1  0
 28 29  2  0
  6  2  1  0
 16 10  1  0
 29 23  1  0
  1 30  1  0
  1 31  1  0
  1 32  1  0
  2 33  1  6
  3 34  1  0
  3 35  1  0
  4 36  1  1
  6 37  1  0
  6 38  1  0
  9 39  1  0
 11 40  1  0
 12 41  1  0
 16 42  1  0
 21 43  1  1
 22 44  1  0
 24 45  1  0
 25 46  1  0
 28 47  1  0
 29 48  1  0
M  END
$$$$
[H]c1c([H])c([H])c(-c2c([H])c([H])c3c(c2[H])c([C@]2([H])C([H])([H])[C@@]4([H])N(S(=O)(=O)c5c([H])c([H])c(OC([H])([H])[H])c([H])c5[H])C([H])([H])[C@@]24[H])c([H])n3[H])c([H])c1[H]
     RDKit          3D

 56 61  0  0  0  0  0  0  0  0999 V2000
    9.5462    0.1924   -0.3587 C   0  0  0  0  0  0  0  0  0  0  0  0
    8.5922   -0.7526   -0.6113 O   0  0  0  0  0  0  0  0  0  0  0  0
    7.3065   -0.7872   -0.1639 C   0  0  0  0  0  0  0  0  0  0  0  0
    6.4832   -1.8617   -0.5897 C   0  0  0  0  0  0  0  0  0  0  0  0
    5.1838   -1.9387   -0.1620 C   0  0  0  0  0  0  0  0  0  0  0  0
    4.6257   -0.9707    0.7038 C   0  0  0  0  0  0  0  0  0  0  0  0
    5.4021    0.0357    1.1009 C   0  0  0  0  0  0  0  0  0  0  0  0
    6.7261    0.1342    0.6763 C   0  0  0  0  0  0  0  0  0  0  0  0
    2.9555   -1.1579    1.0979 S   0  0  0  0  0  0  0  0  0  0  0  0
    2.7846   -1.0054    2.5935 O   0  0  0  0  0  0  0  0  0  0  0  0
    2.4990   -2.5974    0.8112 O   0  0  0  0  0  0  0  0  0  0  0  0
    1.8939   -0.1336    0.3087 N   0  0  0  0  0  0  0  0  0  0  0  0
    1.8785    1.2804    0.4568 C   0  0  0  0  0  0  0  0  0  0  0  0
    0.4155    1.2212    0.6748 C   0  0  1  0  0  0  0  0  0  0  0  0
   -0.5468    1.2726   -0.4497 C   0  0  1  0  0  0  0  0  0  0  0  0
   -0.3042   -0.0763   -0.8724 C   0  0  0  0  0  0  0  0  0  0  0  0
    0.5134   -0.3031    0.3987 C   0  0  1  0  0  0  0  0  0  0  0  0
   -1.7832    1.9830   -0.2347 C   0  0  0  0  0  0  0  0  0  0  0  0
   -1.8069    3.4010   -0.1743 C   0  0  0  0  0  0  0  0  0  0  0  0
   -3.0572    3.8164   -0.1993 N   0  0  0  0  0  0  0  0  0  0  0  0
   -3.8703    2.7537   -0.2656 C   0  0  0  0  0  0  0  0  0  0  0  0
   -5.2604    2.6830   -0.2216 C   0  0  0  0  0  0  0  0  0  0  0  0
   -5.8481    1.4479   -0.1880 C   0  0  0  0  0  0  0  0  0  0  0  0
   -5.0583    0.2878   -0.2001 C   0  0  0  0  0  0  0  0  0  0  0  0
   -3.6917    0.3946   -0.2509 C   0  0  0  0  0  0  0  0  0  0  0  0
   -3.0966    1.6338   -0.2869 C   0  0  0  0  0  0  0  0  0  0  0  0
   -5.6618   -1.0173   -0.0273 C   0  0  0  0  0  0  0  0  0  0  0  0
   -6.8170   -1.1112    0.7617 C   0  0  0  0  0  0  0  0  0  0  0  0
   -7.3914   -2.3265    1.0423 C   0  0  0  0  0  0  0  0  0  0  0  0
   -6.8370   -3.5023    0.5465 C   0  0  0  0  0  0  0  0  0  0  0  0
   -5.7127   -3.4147   -0.2270 C   0  0  0  0  0  0  0  0  0  0  0  0
   -5.1465   -2.1689   -0.4978 C   0  0  0  0  0  0  0  0  0  0  0  0
    9.9442    0.2032    0.6543 H   0  0  0  0  0  0  0  0  0  0  0  0
    9.0877    1.2097   -0.5604 H   0  0  0  0  0  0  0  0  0  0  0  0
   10.4431    0.0867   -1.0438 H   0  0  0  0  0  0  0  0  0  0  0  0
    6.9483   -2.5926   -1.2450 H   0  0  0  0  0  0  0  0  0  0  0  0
    4.5727   -2.7677   -0.5109 H   0  0  0  0  0  0  0  0  0  0  0  0
    5.0684    0.8364    1.7681 H   0  0  0  0  0  0  0  0  0  0  0  0
    7.3449    0.9628    1.0306 H   0  0  0  0  0  0  0  0  0  0  0  0
    2.4295    1.6620    1.3591 H   0  0  0  0  0  0  0  0  0  0  0  0
    2.1594    1.8818   -0.4547 H   0  0  0  0  0  0  0  0  0  0  0  0
   -0.0005    1.4254    1.6882 H   0  0  0  0  0  0  0  0  0  0  0  0
    0.0660    1.9519   -1.2651 H   0  0  0  0  0  0  0  0  0  0  0  0
    0.4639   -0.2219   -1.7313 H   0  0  0  0  0  0  0  0  0  0  0  0
   -1.0379   -0.8523   -1.0174 H   0  0  0  0  0  0  0  0  0  0  0  0
    0.0454   -0.9312    1.1696 H   0  0  0  0  0  0  0  0  0  0  0  0
   -0.9378    4.0476   -0.1139 H   0  0  0  0  0  0  0  0  0  0  0  0
   -3.3666    4.8327   -0.1722 H   0  0  0  0  0  0  0  0  0  0  0  0
   -5.8561    3.5720   -0.2240 H   0  0  0  0  0  0  0  0  0  0  0  0
   -6.9023    1.3454   -0.1529 H   0  0  0  0  0  0  0  0  0  0  0  0
   -3.0615   -0.4720   -0.2542 H   0  0  0  0  0  0  0  0  0  0  0  0
   -7.2350   -0.2244    1.1491 H   0  0  0  0  0  0  0  0  0  0  0  0
   -8.2785   -2.4061    1.6517 H   0  0  0  0  0  0  0  0  0  0  0  0
   -7.2943   -4.4679    0.7853 H   0  0  0  0  0  0  0  0  0  0  0  0
   -5.2782   -4.3216   -0.6177 H   0  0  0  0  0  0  0  0  0  0  0  0
   -4.2411   -2.1721   -1.1232 H   0  0  0  0  0  0  0  0  0  0  0  0
  1  2  1  0
  2  3  1  0
  3  4  2  0
  4  5  1  0
  5  6  2  0
  6  7  1  0
  7  8  2  0
  6  9  1  0
  9 10  2  0
  9 11  2  0
  9 12  1  0
 12 13  1  0
 13 14  1  0
 14 15  1  0
 15 16  1  0
 16 17  1  0
 15 18  1  0
 18 19  2  0
 19 20  1  0
 20 21  1  0
 21 22  2  0
 22 23  1  0
 23 24  2  0
 24 25  1  0
 25 26  2  0
 24 27  1  0
 27 28  2  0
 28 29  1  0
 29 30  2  0
 30 31  1  0
 31 32  2  0
  8  3  1  0
 17 12  1  0
 26 18  1  0
 32 27  1  0
 17 14  1  0
 26 21  1  0
  1 33  1  0
  1 34  1  0
  1 35  1  0
  4 36  1  0
  5 37  1  0
  7 38  1  0
  8 39  1  0
 13 40  1  0
 13 41  1  0
 14 42  1  1
 15 43  1  6
 16 44  1  0
 16 45  1  0
 17 46  1  1
 19 47  1  0
 20 48  1  0
 22 49  1  0
 23 50  1  0
 25 51  1  0
 28 52  1  0
 29 53  1  0
 30 54  1  0
 31 55  1  0
 32 56  1  0
M  END
$$$$
[H]N=C(N([H])[H])N([H])C([H])([H])C([H])([H])C([H])([H])[C@@]1([H])C(=O)N([H])[C@]([H])(C([H])([H])c2c([H])c([H])c([H])c([H])c2[H])C(=O)N2C([H])([H])C([H])([H])C([H])([H])[C@@]2([H])C(=O)N([H])[C@]([H])(C([H])([H])c2c([H])c([H])c([H])c([H])c2[H])C(=O)N([H])[C@@]([H])(C([H])([H])c2c([H])c([H])c([H])c([H])c2[H])C(=O)N([H])[C@@]([H])(C([H])([H])c2c([H])c([H])c([H])c([H])c2[H])C(=O)N([H])[C@@]([H])(C([H])([H])c2c([H])c([H])c([H])c([H])c2[H])C(=O)N1[H]
     RDKit          3D

137143  0  0  0  0  0  0  0  0999 V2000
    6.9861   -0.4509    4.2843 N   0  0  0  0  0  0  0  0  0  0  0  0
    6.8586   -0.2354    2.8771 C   0  0  0  0  0  0  0  0  0  0  0  0
    6.9775    0.9610    2.4441 N   0  0  0  0  0  0  0  0  0  0  0  0
    6.6113   -1.3425    2.0381 N   0  0  0  0  0  0  0  0  0  0  0  0
    5.4418   -2.1629    2.2646 C   0  0  0  0  0  0  0  0  0  0  0  0
    4.1631   -1.3750    1.9333 C   0  0  0  0  0  0  0  0  0  0  0  0
    4.2713   -1.0057    0.4929 C   0  0  0  0  0  0  0  0  0  0  0  0
    3.1563   -0.2205   -0.0802 C   0  0  2  0  0  0  0  0  0  0  0  0
    1.8407   -0.8073   -0.0760 N   0  0  0  0  0  0  0  0  0  0  0  0
    1.3162   -1.9668    0.4321 C   0  0  0  0  0  0  0  0  0  0  0  0
    0.5052   -1.8609    1.4410 O   0  0  0  0  0  0  0  0  0  0  0  0
    1.4950   -3.3921    0.0468 C   0  0  2  0  0  0  0  0  0  0  0  0
    1.9810   -3.5994   -1.3322 C   0  0  0  0  0  0  0  0  0  0  0  0
    2.1911   -5.0052   -1.7520 C   0  0  0  0  0  0  0  0  0  0  0  0
    1.2846   -5.7642   -2.4222 C   0  0  0  0  0  0  0  0  0  0  0  0
    1.5877   -7.0609   -2.7541 C   0  0  0  0  0  0  0  0  0  0  0  0
    2.8001   -7.6088   -2.4183 C   0  0  0  0  0  0  0  0  0  0  0  0
    3.7096   -6.8504   -1.7471 C   0  0  0  0  0  0  0  0  0  0  0  0
    3.4350   -5.5535   -1.4026 C   0  0  0  0  0  0  0  0  0  0  0  0
    0.4913   -4.2880    0.5512 N   0  0  0  0  0  0  0  0  0  0  0  0
   -0.8266   -4.1684    0.9537 C   0  0  0  0  0  0  0  0  0  0  0  0
   -1.0294   -4.2372    2.2555 O   0  0  0  0  0  0  0  0  0  0  0  0
   -2.1109   -3.9780    0.2333 C   0  0  2  0  0  0  0  0  0  0  0  0
   -2.4199   -5.2245   -0.6284 C   0  0  0  0  0  0  0  0  0  0  0  0
   -3.6483   -5.1759   -1.3828 C   0  0  0  0  0  0  0  0  0  0  0  0
   -4.8407   -5.6691   -0.8523 C   0  0  0  0  0  0  0  0  0  0  0  0
   -6.0237   -5.6594   -1.5352 C   0  0  0  0  0  0  0  0  0  0  0  0
   -6.0418   -5.1389   -2.8064 C   0  0  0  0  0  0  0  0  0  0  0  0
   -4.8626   -4.6469   -3.3410 C   0  0  0  0  0  0  0  0  0  0  0  0
   -3.6632   -4.6491   -2.6670 C   0  0  0  0  0  0  0  0  0  0  0  0
   -2.2360   -2.7636   -0.5246 N   0  0  0  0  0  0  0  0  0  0  0  0
   -2.9929   -1.6185   -0.3641 C   0  0  0  0  0  0  0  0  0  0  0  0
   -3.8596   -1.3334   -1.2744 O   0  0  0  0  0  0  0  0  0  0  0  0
   -2.9585   -0.6099    0.7526 C   0  0  2  0  0  0  0  0  0  0  0  0
   -3.7675   -1.0602    1.9542 C   0  0  0  0  0  0  0  0  0  0  0  0
   -5.1923   -1.2565    1.7558 C   0  0  0  0  0  0  0  0  0  0  0  0
   -5.7573   -2.4040    1.2571 C   0  0  0  0  0  0  0  0  0  0  0  0
   -7.1209   -2.6010    1.1007 C   0  0  0  0  0  0  0  0  0  0  0  0
   -7.9636   -1.5788    1.4699 C   0  0  0  0  0  0  0  0  0  0  0  0
   -7.4611   -0.4065    1.9755 C   0  0  0  0  0  0  0  0  0  0  0  0
   -6.1097   -0.2622    2.1099 C   0  0  0  0  0  0  0  0  0  0  0  0
   -3.4753    0.6561    0.2908 N   0  0  0  0  0  0  0  0  0  0  0  0
   -2.8522    1.8366   -0.1206 C   0  0  0  0  0  0  0  0  0  0  0  0
   -3.0728    2.2272   -1.3532 O   0  0  0  0  0  0  0  0  0  0  0  0
   -1.9582    2.7349    0.6465 C   0  0  1  0  0  0  0  0  0  0  0  0
   -2.6940    3.3489    1.7799 C   0  0  0  0  0  0  0  0  0  0  0  0
   -3.8262    4.2044    1.2639 C   0  0  0  0  0  0  0  0  0  0  0  0
   -5.0755    3.6731    1.1320 C   0  0  0  0  0  0  0  0  0  0  0  0
   -6.1362    4.4479    0.6391 C   0  0  0  0  0  0  0  0  0  0  0  0
   -5.8814    5.7560    0.2942 C   0  0  0  0  0  0  0  0  0  0  0  0
   -4.6072    6.2841    0.4337 C   0  0  0  0  0  0  0  0  0  0  0  0
   -3.5579    5.5375    0.9146 C   0  0  0  0  0  0  0  0  0  0  0  0
   -0.6727    2.1926    0.8608 N   0  0  0  0  0  0  0  0  0  0  0  0
    0.4489    2.6687    1.5471 C   0  0  0  0  0  0  0  0  0  0  0  0
    0.9981    1.7544    2.3006 O   0  0  0  0  0  0  0  0  0  0  0  0
    1.1264    3.9152    1.6124 C   0  0  2  0  0  0  0  0  0  0  0  0
    0.4402    5.1662    1.1311 C   0  0  0  0  0  0  0  0  0  0  0  0
    1.5502    6.1946    1.4372 C   0  0  0  0  0  0  0  0  0  0  0  0
    2.8061    5.3675    1.6979 C   0  0  0  0  0  0  0  0  0  0  0  0
    2.4058    4.1088    0.9959 N   0  0  0  0  0  0  0  0  0  0  0  0
    3.0958    3.3901    0.0367 C   0  0  0  0  0  0  0  0  0  0  0  0
    4.3527    3.2416    0.2632 O   0  0  0  0  0  0  0  0  0  0  0  0
    2.6041    2.7673   -1.2124 C   0  0  1  0  0  0  0  0  0  0  0  0
    2.2820    3.7842   -2.2994 C   0  0  0  0  0  0  0  0  0  0  0  0
    3.3756    4.6161   -2.7471 C   0  0  0  0  0  0  0  0  0  0  0  0
    4.2106    4.2730   -3.7896 C   0  0  0  0  0  0  0  0  0  0  0  0
    5.2537    5.0961   -4.1994 C   0  0  0  0  0  0  0  0  0  0  0  0
    5.4845    6.2969   -3.5641 C   0  0  0  0  0  0  0  0  0  0  0  0
    4.6668    6.6496   -2.5318 C   0  0  0  0  0  0  0  0  0  0  0  0
    3.6335    5.8169   -2.1380 C   0  0  0  0  0  0  0  0  0  0  0  0
    3.5123    1.7596   -1.6926 N   0  0  0  0  0  0  0  0  0  0  0  0
    3.4883    0.3745   -1.4021 C   0  0  0  0  0  0  0  0  0  0  0  0
    3.7650   -0.4849   -2.3049 O   0  0  0  0  0  0  0  0  0  0  0  0
    6.1744   -0.6000    4.9139 H   0  0  0  0  0  0  0  0  0  0  0  0
    7.9427   -0.4587    4.6973 H   0  0  0  0  0  0  0  0  0  0  0  0
    6.9148    1.2871    1.4757 H   0  0  0  0  0  0  0  0  0  0  0  0
    7.2781   -1.5499    1.2669 H   0  0  0  0  0  0  0  0  0  0  0  0
    5.5334   -3.0629    1.6303 H   0  0  0  0  0  0  0  0  0  0  0  0
    5.3844   -2.5265    3.3112 H   0  0  0  0  0  0  0  0  0  0  0  0
    3.2737   -1.9175    2.2370 H   0  0  0  0  0  0  0  0  0  0  0  0
    4.2671   -0.4217    2.5264 H   0  0  0  0  0  0  0  0  0  0  0  0
    4.5273   -1.9265   -0.0647 H   0  0  0  0  0  0  0  0  0  0  0  0
    5.1943   -0.3682    0.3899 H   0  0  0  0  0  0  0  0  0  0  0  0
    3.0928    0.6923    0.6283 H   0  0  0  0  0  0  0  0  0  0  0  0
    1.1462   -0.1556   -0.5802 H   0  0  0  0  0  0  0  0  0  0  0  0
    2.4546   -3.6372    0.6552 H   0  0  0  0  0  0  0  0  0  0  0  0
    1.3658   -3.1400   -2.1283 H   0  0  0  0  0  0  0  0  0  0  0  0
    2.9664   -3.0912   -1.4467 H   0  0  0  0  0  0  0  0  0  0  0  0
    0.3450   -5.3587   -2.6954 H   0  0  0  0  0  0  0  0  0  0  0  0
    0.8565   -7.6381   -3.2827 H   0  0  0  0  0  0  0  0  0  0  0  0
    2.9633   -8.6396   -2.7163 H   0  0  0  0  0  0  0  0  0  0  0  0
    4.6802   -7.2905   -1.4792 H   0  0  0  0  0  0  0  0  0  0  0  0
    4.1751   -4.9851   -0.8749 H   0  0  0  0  0  0  0  0  0  0  0  0
    0.8825   -5.3046    0.6640 H   0  0  0  0  0  0  0  0  0  0  0  0
   -2.9813   -4.0469    0.9670 H   0  0  0  0  0  0  0  0  0  0  0  0
   -2.4615   -6.0608    0.1360 H   0  0  0  0  0  0  0  0  0  0  0  0
   -1.5411   -5.3725   -1.2633 H   0  0  0  0  0  0  0  0  0  0  0  0
   -4.8365   -6.0874    0.1653 H   0  0  0  0  0  0  0  0  0  0  0  0
   -6.9554   -6.0445   -1.1188 H   0  0  0  0  0  0  0  0  0  0  0  0
   -6.9630   -5.1229   -3.3581 H   0  0  0  0  0  0  0  0  0  0  0  0
   -4.8653   -4.2375   -4.3352 H   0  0  0  0  0  0  0  0  0  0  0  0
   -2.7402   -4.2697   -3.0708 H   0  0  0  0  0  0  0  0  0  0  0  0
   -1.5967   -2.7957   -1.4056 H   0  0  0  0  0  0  0  0  0  0  0  0
   -1.9375   -0.4109    1.1194 H   0  0  0  0  0  0  0  0  0  0  0  0
   -3.6373   -0.2116    2.6962 H   0  0  0  0  0  0  0  0  0  0  0  0
   -3.2673   -1.9113    2.4765 H   0  0  0  0  0  0  0  0  0  0  0  0
   -5.1282   -3.2207    0.9625 H   0  0  0  0  0  0  0  0  0  0  0  0
   -7.5589   -3.5059    0.7073 H   0  0  0  0  0  0  0  0  0  0  0  0
   -9.0324   -1.6861    1.3658 H   0  0  0  0  0  0  0  0  0  0  0  0
   -8.0921    0.4255    2.2790 H   0  0  0  0  0  0  0  0  0  0  0  0
   -5.6659    0.6402    2.5134 H   0  0  0  0  0  0  0  0  0  0  0  0
   -4.5462    0.6659    0.2388 H   0  0  0  0  0  0  0  0  0  0  0  0
   -1.7412    3.6552   -0.0396 H   0  0  0  0  0  0  0  0  0  0  0  0
   -3.2009    2.6007    2.4356 H   0  0  0  0  0  0  0  0  0  0  0  0
   -2.0863    3.9757    2.4514 H   0  0  0  0  0  0  0  0  0  0  0  0
   -5.3286    2.6667    1.3962 H   0  0  0  0  0  0  0  0  0  0  0  0
   -7.1152    4.0083    0.5418 H   0  0  0  0  0  0  0  0  0  0  0  0
   -6.7057    6.3436   -0.0842 H   0  0  0  0  0  0  0  0  0  0  0  0
   -4.4893    7.3132    0.1428 H   0  0  0  0  0  0  0  0  0  0  0  0
   -2.5865    5.9430    1.0214 H   0  0  0  0  0  0  0  0  0  0  0  0
   -0.4920    1.2313    0.4034 H   0  0  0  0  0  0  0  0  0  0  0  0
    1.3028    4.1292    2.7286 H   0  0  0  0  0  0  0  0  0  0  0  0
    0.2551    5.1866    0.0556 H   0  0  0  0  0  0  0  0  0  0  0  0
   -0.3856    5.4887    1.7634 H   0  0  0  0  0  0  0  0  0  0  0  0
    1.7026    6.8792    0.5920 H   0  0  0  0  0  0  0  0  0  0  0  0
    1.3614    6.7601    2.3496 H   0  0  0  0  0  0  0  0  0  0  0  0
    3.7187    5.7988    1.3283 H   0  0  0  0  0  0  0  0  0  0  0  0
    2.8593    5.0707    2.7616 H   0  0  0  0  0  0  0  0  0  0  0  0
    1.6197    2.2400   -1.0567 H   0  0  0  0  0  0  0  0  0  0  0  0
    1.3597    4.3601   -2.0312 H   0  0  0  0  0  0  0  0  0  0  0  0
    1.9502    3.1569   -3.1785 H   0  0  0  0  0  0  0  0  0  0  0  0
    4.1043    3.3520   -4.3468 H   0  0  0  0  0  0  0  0  0  0  0  0
    5.9037    4.8184   -5.0183 H   0  0  0  0  0  0  0  0  0  0  0  0
    6.3185    6.9099   -3.9226 H   0  0  0  0  0  0  0  0  0  0  0  0
    4.8535    7.6041   -2.0299 H   0  0  0  0  0  0  0  0  0  0  0  0
    3.0190    6.1521   -1.3200 H   0  0  0  0  0  0  0  0  0  0  0  0
    4.2830    2.0770   -2.3319 H   0  0  0  0  0  0  0  0  0  0  0  0
  1  2  1  0
  2  3  2  3
  2  4  1  0
  4  5  1  0
  5  6  1  0
  6  7  1  0
  7  8  1  0
  8  9  1  0
  9 10  1  0
 10 11  2  0
 10 12  1  0
 12 13  1  0
 13 14  1  0
 14 15  2  0
 15 16  1  0
 16 17  2  0
 17 18  1  0
 18 19  2  0
 12 20  1  0
 20 21  1  0
 21 22  2  0
 21 23  1  0
 23 24  1  0
 24 25  1  0
 25 26  2  0
 26 27  1  0
 27 28  2  0
 28 29  1  0
 29 30  2  0
 23 31  1  0
 31 32  1  0
 32 33  2  0
 32 34  1  0
 34 35  1  0
 35 36  1  0
 36 37  2  0
 37 38  1  0
 38 39  2  0
 39 40  1  0
 40 41  2  0
 34 42  1  0
 42 43  1  0
 43 44  2  0
 43 45  1  0
 45 46  1  0
 46 47  1  0
 47 48  2  0
 48 49  1  0
 49 50  2  0
 50 51  1  0
 51 52  2  0
 45 53  1  0
 53 54  1  0
 54 55  2  0
 54 56  1  0
 56 57  1  0
 57 58  1  0
 58 59  1  0
 59 60  1  0
 60 61  1  0
 61 62  2  0
 61 63  1  0
 63 64  1  0
 64 65  1  0
 65 66  2  0
 66 67  1  0
 67 68  2  0
 68 69  1  0
 69 70  2  0
 63 71  1  0
 71 72  1  0
 72 73  2  0
 72  8  1  0
 19 14  1  0
 30 25  1  0
 41 36  1  0
 52 47  1  0
 60 56  1  0
 70 65  1  0
  1 74  1  0
  1 75  1  0
  3 76  1  0
  4 77  1  0
  5 78  1  0
  5 79  1  0
  6 80  1  0
  6 81  1  0
  7 82  1  0
  7 83  1  0
  8 84  1  1
  9 85  1  0
 12 86  1  1
 13 87  1  0
 13 88  1  0
 15 89  1  0
 16 90  1  0
 17 91  1  0
 18 92  1  0
 19 93  1  0
 20 94  1  0
 23 95  1  1
 24 96  1  0
 24 97  1  0
 26 98  1  0
 27 99  1  0
 28100  1  0
 29101  1  0
 30102  1  0
 31103  1  0
 34104  1  1
 35105  1  0
 35106  1  0
 37107  1  0
 38108  1  0
 39109  1  0
 40110  1  0
 41111  1  0
 42112  1  0
 45113  1  6
 46114  1  0
 46115  1  0
 48116  1  0
 49117  1  0
 50118  1  0
 51119  1  0
 52120  1  0
 53121  1  0
 56122  1  1
 57123  1  0
 57124  1  0
 58125  1  0
 58126  1  0
 59127  1  0
 59128  1  0
 63129  1  1
 64130  1  0
 64131  1  0
 66132  1  0
 67133  1  0
 68134  1  0
 69135  1  0
 70136  1  0
 71137  1  0
M  END
$$$$
[H]OC([H])([H])[C@@]1([H])O[C@@]([H])(O[H])[C@@]([H])(O[H])[C@]1([H])O[H]
     RDKit          3D

 20 20  0  0  0  0  0  0  0  0999 V2000
   -2.9609    0.4344    0.5469 O   0  0  0  0  0  0  0  0  0  0  0  0
   -1.9641   -0.5407    0.6054 C   0  0  0  0  0  0  0  0  0  0  0  0
   -0.7639   -0.0054   -0.1077 C   0  0  1  0  0  0  0  0  0  0  0  0
   -0.2705    1.1674    0.4547 O   0  0  0  0  0  0  0  0  0  0  0  0
    0.8808    1.3957   -0.2940 C   0  0  1  0  0  0  0  0  0  0  0  0
    1.7861    2.2088    0.3808 O   0  0  0  0  0  0  0  0  0  0  0  0
    1.4940    0.0485   -0.5823 C   0  0  1  0  0  0  0  0  0  0  0  0
    2.7325   -0.1127   -0.0111 O   0  0  0  0  0  0  0  0  0  0  0  0
    0.4526   -0.8979    0.0262 C   0  0  2  0  0  0  0  0  0  0  0  0
    0.3488   -2.0759   -0.6619 O   0  0  0  0  0  0  0  0  0  0  0  0
   -3.6869    0.2841    1.1874 H   0  0  0  0  0  0  0  0  0  0  0  0
   -1.7467   -0.8086    1.6442 H   0  0  0  0  0  0  0  0  0  0  0  0
   -2.3435   -1.4048    0.0197 H   0  0  0  0  0  0  0  0  0  0  0  0
   -0.9588    0.1707   -1.1655 H   0  0  0  0  0  0  0  0  0  0  0  0
    0.5427    1.8774   -1.2434 H   0  0  0  0  0  0  0  0  0  0  0  0
    1.3314    2.5489    1.2106 H   0  0  0  0  0  0  0  0  0  0  0  0
    1.4826   -0.1786   -1.6842 H   0  0  0  0  0  0  0  0  0  0  0  0
    2.9711   -1.0503    0.1380 H   0  0  0  0  0  0  0  0  0  0  0  0
    0.7256   -1.0779    1.0759 H   0  0  0  0  0  0  0  0  0  0  0  0
   -0.0529   -1.9834   -1.5397 H   0  0  0  0  0  0  0  0  0  0  0  0
  1  2  1  0
  2  3  1  0
  3  4  1  0
  4  5  1  0
  5  6  1  0
  5  7  1  0
  7  8  1  0
  7  9  1  0
  9 10  1  0
  9  3  1  0
  1 11  1  0
  2 12  1  0
  2 13  1  0
  3 14  1  6
  5 15  1  6
  6 16  1  0
  7 17  1  6
  8 18  1  0
  9 19  1  1
 10 20  1  0
M  END
$$$$
[H]OC(=O)[C@@]([H])(N([H])C(=O)[C@@]([H])(N([H])C(=O)[C@@]([H])(N([H])C(=O)[C@@]([H])(N([H])C(=O)[C@@]([H])(N([H])C(=O)[C@]([H])(N([H])C(=O)N([H])c1c([H])c([H])c(C(F)(F)F)c([H])c1F)C([H])([H])C([H])(C([H])([H])[H])C([H])([H])[H])C([H])(C([H])([H])[H])C([H])([H])[H])C([H])([H])[H])C([H])(C([H])([H])[H])C([H])([H])[H])C([H])([H])[H])C([H])(C([H])([H])[H])C([H])([H])[H]
     RDKit          3D

107107  0  0  0  0  0  0  0  0999 V2000
    7.5924    3.3266    1.5004 C   0  0  0  0  0  0  0  0  0  0  0  0
    6.1455    3.5568    1.1847 C   0  0  0  0  0  0  0  0  0  0  0  0
    5.5107    4.2681    2.3809 C   0  0  0  0  0  0  0  0  0  0  0  0
    5.3775    2.3295    0.8328 C   0  0  0  0  0  0  0  0  0  0  0  0
    5.8065    1.5816   -0.3500 C   0  0  1  0  0  0  0  0  0  0  0  0
    7.1139    1.0334   -0.3500 N   0  0  0  0  0  0  0  0  0  0  0  0
    8.3198    0.8128   -0.8293 C   0  0  0  0  0  0  0  0  0  0  0  0
    8.7137    1.3204   -1.9422 O   0  0  0  0  0  0  0  0  0  0  0  0
    9.2841   -0.0187   -0.1460 N   0  0  0  0  0  0  0  0  0  0  0  0
   10.5755   -0.3727   -0.4970 C   0  0  0  0  0  0  0  0  0  0  0  0
   11.3377    0.1579   -1.5067 C   0  0  0  0  0  0  0  0  0  0  0  0
   12.6406   -0.2843   -1.7554 C   0  0  0  0  0  0  0  0  0  0  0  0
   13.2331   -1.2706   -1.0100 C   0  0  0  0  0  0  0  0  0  0  0  0
   12.4796   -1.8114    0.0103 C   0  0  0  0  0  0  0  0  0  0  0  0
   11.2099   -1.3888    0.2636 C   0  0  0  0  0  0  0  0  0  0  0  0
   10.4980   -1.9523    1.2669 F   0  0  0  0  0  0  0  0  0  0  0  0
   14.6095   -1.7438   -1.2871 C   0  0  0  0  0  0  0  0  0  0  0  0
   15.3716   -1.6963   -0.1441 F   0  0  0  0  0  0  0  0  0  0  0  0
   15.2456   -0.9992   -2.2317 F   0  0  0  0  0  0  0  0  0  0  0  0
   14.4941   -3.0491   -1.7409 F   0  0  0  0  0  0  0  0  0  0  0  0
    4.8153    0.5546   -0.8398 C   0  0  0  0  0  0  0  0  0  0  0  0
    5.1735   -0.0634   -1.8619 O   0  0  0  0  0  0  0  0  0  0  0  0
    3.6030    0.3039   -0.2131 N   0  0  0  0  0  0  0  0  0  0  0  0
    2.6132   -0.6739   -0.6762 C   0  0  1  0  0  0  0  0  0  0  0  0
    2.8139   -1.9893    0.0879 C   0  0  0  0  0  0  0  0  0  0  0  0
    1.7815   -3.0071   -0.3728 C   0  0  0  0  0  0  0  0  0  0  0  0
    4.2058   -2.5523   -0.0967 C   0  0  0  0  0  0  0  0  0  0  0  0
    1.2594   -0.1764   -0.3977 C   0  0  0  0  0  0  0  0  0  0  0  0
    1.1299    0.6216    0.6092 O   0  0  0  0  0  0  0  0  0  0  0  0
    0.1359   -0.5187   -1.1566 N   0  0  0  0  0  0  0  0  0  0  0  0
   -1.1677    0.0136   -0.8023 C   0  0  1  0  0  0  0  0  0  0  0  0
   -1.5163    1.1030   -1.8112 C   0  0  0  0  0  0  0  0  0  0  0  0
   -2.1771   -1.0486   -0.7271 C   0  0  0  0  0  0  0  0  0  0  0  0
   -1.8365   -2.2193   -1.0742 O   0  0  0  0  0  0  0  0  0  0  0  0
   -3.4790   -0.7471   -0.2770 N   0  0  0  0  0  0  0  0  0  0  0  0
   -4.5714   -1.6769   -0.1536 C   0  0  1  0  0  0  0  0  0  0  0  0
   -4.8459   -2.1248    1.2363 C   0  0  0  0  0  0  0  0  0  0  0  0
   -3.6551   -2.8368    1.8725 C   0  0  0  0  0  0  0  0  0  0  0  0
   -5.2665   -1.0311    2.1875 C   0  0  0  0  0  0  0  0  0  0  0  0
   -5.7786   -1.1025   -0.7733 C   0  0  0  0  0  0  0  0  0  0  0  0
   -5.7495    0.0162   -1.3790 O   0  0  0  0  0  0  0  0  0  0  0  0
   -7.0003   -1.8048   -0.6999 N   0  0  0  0  0  0  0  0  0  0  0  0
   -8.1871   -1.2600   -1.3353 C   0  0  1  0  0  0  0  0  0  0  0  0
   -8.9483   -2.3831   -1.9489 C   0  0  0  0  0  0  0  0  0  0  0  0
   -8.9893   -0.5313   -0.3038 C   0  0  0  0  0  0  0  0  0  0  0  0
   -8.5900   -0.4860    0.8596 O   0  0  0  0  0  0  0  0  0  0  0  0
  -10.2132    0.1291   -0.6142 N   0  0  0  0  0  0  0  0  0  0  0  0
  -10.9710    0.8498    0.3891 C   0  0  1  0  0  0  0  0  0  0  0  0
  -11.2152    2.2370   -0.1829 C   0  0  0  0  0  0  0  0  0  0  0  0
   -9.9032    2.9225   -0.4779 C   0  0  0  0  0  0  0  0  0  0  0  0
  -12.0596    3.1172    0.6660 C   0  0  0  0  0  0  0  0  0  0  0  0
  -12.3076    0.2232    0.5541 C   0  0  0  0  0  0  0  0  0  0  0  0
  -13.1737    0.7350    1.4723 O   0  0  0  0  0  0  0  0  0  0  0  0
  -12.6451   -0.7751   -0.1500 O   0  0  0  0  0  0  0  0  0  0  0  0
    8.1999    3.5702    0.6004 H   0  0  0  0  0  0  0  0  0  0  0  0
    7.7864    2.3077    1.8337 H   0  0  0  0  0  0  0  0  0  0  0  0
    7.9557    3.9870    2.3528 H   0  0  0  0  0  0  0  0  0  0  0  0
    6.0576    4.2771    0.3246 H   0  0  0  0  0  0  0  0  0  0  0  0
    4.5239    4.6506    2.0470 H   0  0  0  0  0  0  0  0  0  0  0  0
    6.1629    5.1275    2.6934 H   0  0  0  0  0  0  0  0  0  0  0  0
    5.3399    3.6014    3.2360 H   0  0  0  0  0  0  0  0  0  0  0  0
    5.3928    1.6590    1.7281 H   0  0  0  0  0  0  0  0  0  0  0  0
    4.2815    2.6199    0.7502 H   0  0  0  0  0  0  0  0  0  0  0  0
    5.8274    2.3847   -1.2123 H   0  0  0  0  0  0  0  0  0  0  0  0
    7.0994    0.3668    0.7020 H   0  0  0  0  0  0  0  0  0  0  0  0
    8.9070   -0.3987    0.7921 H   0  0  0  0  0  0  0  0  0  0  0  0
   10.9365    0.9391   -2.1114 H   0  0  0  0  0  0  0  0  0  0  0  0
   13.2035    0.1664   -2.5636 H   0  0  0  0  0  0  0  0  0  0  0  0
   12.9635   -2.5882    0.6015 H   0  0  0  0  0  0  0  0  0  0  0  0
    3.3423    0.8274    0.6504 H   0  0  0  0  0  0  0  0  0  0  0  0
    2.7549   -0.9218   -1.7278 H   0  0  0  0  0  0  0  0  0  0  0  0
    2.6734   -1.8376    1.1680 H   0  0  0  0  0  0  0  0  0  0  0  0
    0.7853   -2.7720    0.0646 H   0  0  0  0  0  0  0  0  0  0  0  0
    1.6864   -2.9033   -1.4704 H   0  0  0  0  0  0  0  0  0  0  0  0
    2.1049   -4.0462   -0.1624 H   0  0  0  0  0  0  0  0  0  0  0  0
    4.4365   -2.7479   -1.1720 H   0  0  0  0  0  0  0  0  0  0  0  0
    4.9092   -1.8367    0.3532 H   0  0  0  0  0  0  0  0  0  0  0  0
    4.2675   -3.4716    0.5088 H   0  0  0  0  0  0  0  0  0  0  0  0
    0.2062   -1.1405   -1.9750 H   0  0  0  0  0  0  0  0  0  0  0  0
   -1.1454    0.5482    0.1786 H   0  0  0  0  0  0  0  0  0  0  0  0
   -2.3789    1.6587   -1.4035 H   0  0  0  0  0  0  0  0  0  0  0  0
   -0.6587    1.8322   -1.7360 H   0  0  0  0  0  0  0  0  0  0  0  0
   -1.6254    0.7284   -2.8331 H   0  0  0  0  0  0  0  0  0  0  0  0
   -3.6910    0.2412   -0.0069 H   0  0  0  0  0  0  0  0  0  0  0  0
   -4.2659   -2.6123   -0.7125 H   0  0  0  0  0  0  0  0  0  0  0  0
   -5.6594   -2.8789    1.2153 H   0  0  0  0  0  0  0  0  0  0  0  0
   -4.0753   -3.4464    2.7206 H   0  0  0  0  0  0  0  0  0  0  0  0
   -3.1743   -3.5380    1.1745 H   0  0  0  0  0  0  0  0  0  0  0  0
   -2.9731   -2.1252    2.3724 H   0  0  0  0  0  0  0  0  0  0  0  0
   -4.4588   -0.8422    2.9300 H   0  0  0  0  0  0  0  0  0  0  0  0
   -5.5458   -0.0999    1.6846 H   0  0  0  0  0  0  0  0  0  0  0  0
   -6.1519   -1.3446    2.8095 H   0  0  0  0  0  0  0  0  0  0  0  0
   -7.0406   -2.7157   -0.1890 H   0  0  0  0  0  0  0  0  0  0  0  0
   -7.9204   -0.4755   -2.0947 H   0  0  0  0  0  0  0  0  0  0  0  0
   -9.4761   -2.0536   -2.8423 H   0  0  0  0  0  0  0  0  0  0  0  0
   -9.6683   -2.7788   -1.1686 H   0  0  0  0  0  0  0  0  0  0  0  0
   -8.2523   -3.2421   -2.1491 H   0  0  0  0  0  0  0  0  0  0  0  0
  -10.5715    0.0913   -1.5848 H   0  0  0  0  0  0  0  0  0  0  0  0
  -10.3854    0.8594    1.3307 H   0  0  0  0  0  0  0  0  0  0  0  0
  -11.7197    2.0659   -1.1572 H   0  0  0  0  0  0  0  0  0  0  0  0
   -9.2909    3.0594    0.4182 H   0  0  0  0  0  0  0  0  0  0  0  0
  -10.1414    3.9417   -0.8612 H   0  0  0  0  0  0  0  0  0  0  0  0
   -9.3184    2.3911   -1.2611 H   0  0  0  0  0  0  0  0  0  0  0  0
  -11.8014    4.1926    0.4295 H   0  0  0  0  0  0  0  0  0  0  0  0
  -12.0189    2.9323    1.7464 H   0  0  0  0  0  0  0  0  0  0  0  0
  -13.1463    3.0595    0.3372 H   0  0  0  0  0  0  0  0  0  0  0  0
  -14.0925    1.1128    1.2885 H   0  0  0  0  0  0  0  0  0  0  0  0
  1  2  1  0
  2  3  1  0
  2  4  1  0
  4  5  1  0
  5  6  1  0
  6  7  1  0
  7  8  2  0
  7  9  1  0
  9 10  1  0
 10 11  2  0
 11 12  1  0
 12 13  2  0
 13 14  1  0
 14 15  2  0
 15 16  1  0
 13 17  1  0
 17 18  1  0
 17 19  1  0
 17 20  1  0
  5 21  1  0
 21 22  2  0
 21 23  1  0
 23 24  1  0
 24 25  1  0
 25 26  1  0
 25 27  1  0
 24 28  1  0
 28 29  2  0
 28 30  1  0
 30 31  1  0
 31 32  1  0
 31 33  1  0
 33 34  2  0
 33 35  1  0
 35 36  1  0
 36 37  1  0
 37 38  1  0
 37 39  1  0
 36 40  1  0
 40 41  2  0
 40 42  1  0
 42 43  1  0
 43 44  1  0
 43 45  1  0
 45 46  2  0
 45 47  1  0
 47 48  1  0
 48 49  1  0
 49 50  1  0
 49 51  1  0
 48 52  1  0
 52 53  1  0
 52 54  2  0
 15 10  1  0
  1 55  1  0
  1 56  1  0
  1 57  1  0
  2 58  1  0
  3 59  1  0
  3 60  1  0
  3 61  1  0
  4 62  1  0
  4 63  1  0
  5 64  1  6
  6 65  1  0
  9 66  1  0
 11 67  1  0
 12 68  1  0
 14 69  1  0
 23 70  1  0
 24 71  1  6
 25 72  1  0
 26 73  1  0
 26 74  1  0
 26 75  1  0
 27 76  1  0
 27 77  1  0
 27 78  1  0
 30 79  1  0
 31 80  1  1
 32 81  1  0
 32 82  1  0
 32 83  1  0
 35 84  1  0
 36 85  1  6
 37 86  1  0
 38 87  1  0
 38 88  1  0
 38 89  1  0
 39 90  1  0
 39 91  1  0
 39 92  1  0
 42 93  1  0
 43 94  1  6
 44 95  1  0
 44 96  1  0
 44 97  1  0
 47 98  1  0
 48 99  1  1
 49100  1  0
 50101  1  0
 50102  1  0
 50103  1  0
 51104  1  0
 51105  1  0
 51106  1  0
 53107  1  0
M  END
$$$$
[H]OC(=O)c1c([H])c([H])c([H])c(C(=O)N([H])[C@]([H])(c2c([H])c([H])c(OC([H])([H])[H])c(OC([H])([H])[H])c2[H])C([H])([H])c2c([H])n([H])c3c([H])c([H])c([H])c([H])c23)c1[H]
     RDKit          3D

 57 60  0  0  0  0  0  0  0  0999 V2000
    4.5860   -3.4046    0.9897 C   0  0  0  0  0  0  0  0  0  0  0  0
    3.4869   -2.8044    1.6298 O   0  0  0  0  0  0  0  0  0  0  0  0
    2.6299   -1.9293    1.0072 C   0  0  0  0  0  0  0  0  0  0  0  0
    2.7269   -1.5340   -0.3085 C   0  0  0  0  0  0  0  0  0  0  0  0
    1.8006   -0.6409   -0.8442 C   0  0  0  0  0  0  0  0  0  0  0  0
    0.7772   -0.1341   -0.0896 C   0  0  0  0  0  0  0  0  0  0  0  0
    0.6611   -0.5143    1.2289 C   0  0  0  0  0  0  0  0  0  0  0  0
    1.5768   -1.3966    1.7594 C   0  0  0  0  0  0  0  0  0  0  0  0
    1.4804   -1.7910    3.0754 O   0  0  0  0  0  0  0  0  0  0  0  0
    0.4470   -1.2907    3.8827 C   0  0  0  0  0  0  0  0  0  0  0  0
   -0.2197    0.8447   -0.6726 C   0  0  2  0  0  0  0  0  0  0  0  0
   -0.0599    2.1923   -0.1041 C   0  0  0  0  0  0  0  0  0  0  0  0
    1.1911    2.8891   -0.3133 C   0  0  0  0  0  0  0  0  0  0  0  0
    2.3008    2.8489    0.4867 C   0  0  0  0  0  0  0  0  0  0  0  0
    3.2808    3.5695   -0.0393 N   0  0  0  0  0  0  0  0  0  0  0  0
    2.8819    4.1201   -1.1975 C   0  0  0  0  0  0  0  0  0  0  0  0
    3.5159    4.9526   -2.1095 C   0  0  0  0  0  0  0  0  0  0  0  0
    2.8645    5.3971   -3.2343 C   0  0  0  0  0  0  0  0  0  0  0  0
    1.5441    4.9760   -3.4213 C   0  0  0  0  0  0  0  0  0  0  0  0
    0.9184    4.1466   -2.5072 C   0  0  0  0  0  0  0  0  0  0  0  0
    1.5758    3.6984   -1.3737 C   0  0  0  0  0  0  0  0  0  0  0  0
   -1.5150    0.3247   -0.2747 N   0  0  0  0  0  0  0  0  0  0  0  0
   -1.8913   -0.9405   -0.8066 C   0  0  0  0  0  0  0  0  0  0  0  0
   -1.1311   -1.6051   -1.5710 O   0  0  0  0  0  0  0  0  0  0  0  0
   -3.1844   -1.5639   -0.5184 C   0  0  0  0  0  0  0  0  0  0  0  0
   -4.3134   -1.0421   -1.1554 C   0  0  0  0  0  0  0  0  0  0  0  0
   -5.5625   -1.5769   -0.9348 C   0  0  0  0  0  0  0  0  0  0  0  0
   -5.7265   -2.6416   -0.0805 C   0  0  0  0  0  0  0  0  0  0  0  0
   -4.6273   -3.1785    0.5670 C   0  0  0  0  0  0  0  0  0  0  0  0
   -3.3675   -2.6225    0.3313 C   0  0  0  0  0  0  0  0  0  0  0  0
   -4.7561   -4.2907    1.4845 C   0  0  0  0  0  0  0  0  0  0  0  0
   -6.0016   -4.8327    1.7232 O   0  0  0  0  0  0  0  0  0  0  0  0
   -3.7365   -4.7758    2.0745 O   0  0  0  0  0  0  0  0  0  0  0  0
    5.1249   -2.7038    0.2920 H   0  0  0  0  0  0  0  0  0  0  0  0
    4.3291   -4.2951    0.3874 H   0  0  0  0  0  0  0  0  0  0  0  0
    5.3044   -3.6916    1.8108 H   0  0  0  0  0  0  0  0  0  0  0  0
    3.5370   -1.9382   -0.9029 H   0  0  0  0  0  0  0  0  0  0  0  0
    1.9250   -0.3723   -1.8789 H   0  0  0  0  0  0  0  0  0  0  0  0
   -0.1157   -0.1485    1.8522 H   0  0  0  0  0  0  0  0  0  0  0  0
    0.6941   -1.5510    4.9469 H   0  0  0  0  0  0  0  0  0  0  0  0
    0.3091   -0.1928    3.8303 H   0  0  0  0  0  0  0  0  0  0  0  0
   -0.5495   -1.7573    3.6683 H   0  0  0  0  0  0  0  0  0  0  0  0
   -0.0902    0.6983   -1.7543 H   0  0  0  0  0  0  0  0  0  0  0  0
   -0.2933    2.1191    0.9950 H   0  0  0  0  0  0  0  0  0  0  0  0
   -0.9059    2.8345   -0.4948 H   0  0  0  0  0  0  0  0  0  0  0  0
    2.3560    2.2883    1.4252 H   0  0  0  0  0  0  0  0  0  0  0  0
    4.2419    3.6977    0.3823 H   0  0  0  0  0  0  0  0  0  0  0  0
    4.5408    5.2675   -1.9417 H   0  0  0  0  0  0  0  0  0  0  0  0
    3.3440    6.0529   -3.9665 H   0  0  0  0  0  0  0  0  0  0  0  0
    1.0080    5.3083   -4.2900 H   0  0  0  0  0  0  0  0  0  0  0  0
   -0.1030    3.8408   -2.6721 H   0  0  0  0  0  0  0  0  0  0  0  0
   -2.1552    0.8422    0.3607 H   0  0  0  0  0  0  0  0  0  0  0  0
   -4.1601   -0.2034   -1.8275 H   0  0  0  0  0  0  0  0  0  0  0  0
   -6.4580   -1.1663   -1.4329 H   0  0  0  0  0  0  0  0  0  0  0  0
   -6.7202   -3.0462    0.0636 H   0  0  0  0  0  0  0  0  0  0  0  0
   -2.4758   -3.0223    0.8254 H   0  0  0  0  0  0  0  0  0  0  0  0
   -6.8406   -4.3101    1.6381 H   0  0  0  0  0  0  0  0  0  0  0  0
  1  2  1  0
  2  3  1  0
  3  4  2  0
  4  5  1  0
  5  6  2  0
  6  7  1  0
  7  8  2  0
  8  9  1  0
  9 10  1  0
  6 11  1  0
 11 12  1  0
 12 13  1  0
 13 14  2  0
 14 15  1  0
 15 16  1  0
 16 17  2  0
 17 18  1  0
 18 19  2  0
 19 20  1  0
 20 21  2  0
 11 22  1  0
 22 23  1  0
 23 24  2  0
 23 25  1  0
 25 26  2  0
 26 27  1  0
 27 28  2  0
 28 29  1  0
 29 30  2  0
 29 31  1  0
 31 32  1  0
 31 33  2  0
  8  3  1  0
 21 13  1  0
 30 25  1  0
 21 16  1  0
  1 34  1  0
  1 35  1  0
  1 36  1  0
  4 37  1  0
  5 38  1  0
  7 39  1  0
 10 40  1  0
 10 41  1  0
 10 42  1  0
 11 43  1  6
 12 44  1  0
 12 45  1  0
 14 46  1  0
 15 47  1  0
 17 48  1  0
 18 49  1  0
 19 50  1  0
 20 51  1  0
 22 52  1  0
 26 53  1  0
 27 54  1  0
 28 55  1  0
 30 56  1  0
 32 57  1  0
M  END
$$$$
[H]O[C@@]1([H])[C@]([H])(C([H])([H])OP(=O)(O[H])OP(=O)(O[H])OP(=O)(O[H])O[H])O[C@@]1([H])n1c([H])nc2c(N([H])[H])nc([H])nc21
     RDKit          3D

 43 45  0  0  0  0  0  0  0  0999 V2000
   -7.5602    0.0609    0.8522 N   0  0  0  0  0  0  0  0  0  0  0  0
   -6.5234    0.0804   -0.1118 C   0  0  0  0  0  0  0  0  0  0  0  0
   -6.7183    0.0627   -1.4254 N   0  0  0  0  0  0  0  0  0  0  0  0
   -5.6826    0.1347   -2.2946 C   0  0  0  0  0  0  0  0  0  0  0  0
   -4.4032    0.2208   -1.8660 N   0  0  0  0  0  0  0  0  0  0  0  0
   -4.1881    0.2307   -0.5471 C   0  0  0  0  0  0  0  0  0  0  0  0
   -3.0625    0.2984    0.1955 N   0  0  0  0  0  0  0  0  0  0  0  0
   -3.4209    0.2571    1.4855 C   0  0  0  0  0  0  0  0  0  0  0  0
   -4.7279    0.1771    1.5837 N   0  0  0  0  0  0  0  0  0  0  0  0
   -5.2326    0.1622    0.3594 C   0  0  0  0  0  0  0  0  0  0  0  0
   -1.6845    0.5078   -0.2348 C   0  0  2  0  0  0  0  0  0  0  0  0
   -1.4362    0.3410   -1.5355 O   0  0  0  0  0  0  0  0  0  0  0  0
   -0.2660   -0.2419   -1.3416 C   0  0  1  0  0  0  0  0  0  0  0  0
    1.0449    0.3956   -1.0248 C   0  0  0  0  0  0  0  0  0  0  0  0
    1.2762    0.5783    0.3382 O   0  0  0  0  0  0  0  0  0  0  0  0
    2.6767   -0.3788    0.6925 P   0  0  0  0  0  0  0  0  0  0  0  0
    2.9328   -0.3049    2.3354 O   0  0  0  0  0  0  0  0  0  0  0  0
    2.2084   -1.8642    0.4034 O   0  0  0  0  0  0  0  0  0  0  0  0
    3.9895   -0.1759   -0.2209 O   0  0  0  0  0  0  0  0  0  0  0  0
    4.6025    1.3594   -0.4002 P   0  0  0  0  0  0  0  0  0  0  0  0
    4.6305    1.6865   -2.0681 O   0  0  0  0  0  0  0  0  0  0  0  0
    3.6644    2.3801    0.2476 O   0  0  0  0  0  0  0  0  0  0  0  0
    6.1156    1.5301    0.3178 O   0  0  0  0  0  0  0  0  0  0  0  0
    6.9078    0.1103    0.6590 P   0  0  0  0  0  0  0  0  0  0  0  0
    5.9459   -1.0752    1.3711 O   0  0  0  0  0  0  0  0  0  0  0  0
    8.1444    0.4652    1.7987 O   0  0  0  0  0  0  0  0  0  0  0  0
    7.5968   -0.4833   -0.5739 O   0  0  0  0  0  0  0  0  0  0  0  0
   -0.8778   -0.7212    0.0497 C   0  0  2  0  0  0  0  0  0  0  0  0
   -1.4776   -1.9290   -0.0833 O   0  0  0  0  0  0  0  0  0  0  0  0
   -7.4129   -0.2509    1.8278 H   0  0  0  0  0  0  0  0  0  0  0  0
   -8.5545    0.3874    0.6215 H   0  0  0  0  0  0  0  0  0  0  0  0
   -5.9446    0.1103   -3.3378 H   0  0  0  0  0  0  0  0  0  0  0  0
   -2.7399    0.2917    2.3562 H   0  0  0  0  0  0  0  0  0  0  0  0
   -1.2423    1.4435    0.2354 H   0  0  0  0  0  0  0  0  0  0  0  0
   -0.0617   -1.2106   -1.8847 H   0  0  0  0  0  0  0  0  0  0  0  0
    1.8851    0.3492   -1.6329 H   0  0  0  0  0  0  0  0  0  0  0  0
    0.7046    1.5626   -1.2545 H   0  0  0  0  0  0  0  0  0  0  0  0
    2.0759   -0.2379    2.8374 H   0  0  0  0  0  0  0  0  0  0  0  0
    4.0056    1.0529   -2.5585 H   0  0  0  0  0  0  0  0  0  0  0  0
    5.8319   -0.8672    2.3413 H   0  0  0  0  0  0  0  0  0  0  0  0
    8.9542   -0.0605    1.6005 H   0  0  0  0  0  0  0  0  0  0  0  0
   -0.2492   -0.5472    0.9121 H   0  0  0  0  0  0  0  0  0  0  0  0
   -1.7269   -2.0511   -1.0253 H   0  0  0  0  0  0  0  0  0  0  0  0
  1  2  1  0
  2  3  2  0
  3  4  1  0
  4  5  2  0
  5  6  1  0
  6  7  1  0
  7  8  1  0
  8  9  2  0
  9 10  1  0
  7 11  1  0
 11 12  1  0
 12 13  1  0
 13 14  1  0
 14 15  1  0
 15 16  1  0
 16 17  1  0
 16 18  2  0
 16 19  1  0
 19 20  1  0
 20 21  1  0
 20 22  2  0
 20 23  1  0
 23 24  1  0
 24 25  1  0
 24 26  1  0
 24 27  2  0
 13 28  1  0
 28 29  1  0
 10  2  1  0
 28 11  1  0
 10  6  2  0
  1 30  1  0
  1 31  1  0
  4 32  1  0
  8 33  1  0
 11 34  1  1
 13 35  1  6
 14 36  1  0
 14 37  1  0
 17 38  1  0
 21 39  1  0
 25 40  1  0
 26 41  1  0
 28 42  1  1
 29 43  1  0
M  END
$$$$
[H]c1c([H])c([H])c(-c2c([H])c([H])c([H])c(S(=O)(=O)N3C([H])([H])C([H])([H])N(C(=O)c4c([H])c([H])c(Cl)c([H])c4[H])[C@]([H])(C([H])([H])[H])C3([H])[H])c2[H])c([H])c1[H]
     RDKit          3D

 54 57  0  0  0  0  0  0  0  0999 V2000
    1.8645   -1.5387   -2.4149 C   0  0  0  0  0  0  0  0  0  0  0  0
    1.3545   -1.2991   -1.0161 C   0  0  2  0  0  0  0  0  0  0  0  0
    0.1688   -0.3762   -1.0402 C   0  0  0  0  0  0  0  0  0  0  0  0
    0.4859    1.0099   -1.1254 N   0  0  0  0  0  0  0  0  0  0  0  0
    1.4470    1.4846   -0.1785 C   0  0  0  0  0  0  0  0  0  0  0  0
    2.0768    0.3561    0.5933 C   0  0  0  0  0  0  0  0  0  0  0  0
    2.4615   -0.7264   -0.2399 N   0  0  0  0  0  0  0  0  0  0  0  0
    3.7024   -1.3038   -0.2988 C   0  0  0  0  0  0  0  0  0  0  0  0
    3.7433   -2.4260   -0.9767 O   0  0  0  0  0  0  0  0  0  0  0  0
    4.9754   -0.8999    0.2515 C   0  0  0  0  0  0  0  0  0  0  0  0
    5.9822   -1.8651    0.3388 C   0  0  0  0  0  0  0  0  0  0  0  0
    7.2507   -1.5897    0.7791 C   0  0  0  0  0  0  0  0  0  0  0  0
    7.5796   -0.3204    1.1585 C   0  0  0  0  0  0  0  0  0  0  0  0
    9.1732    0.1006    1.7287 Cl  0  0  0  0  0  0  0  0  0  0  0  0
    6.6194    0.6559    1.0865 C   0  0  0  0  0  0  0  0  0  0  0  0
    5.3394    0.3574    0.6364 C   0  0  0  0  0  0  0  0  0  0  0  0
   -0.8709    1.9891   -1.3365 S   0  0  0  0  0  0  0  0  0  0  0  0
   -1.5587    1.5485   -2.6230 O   0  0  0  0  0  0  0  0  0  0  0  0
   -0.4881    3.4371   -1.5934 O   0  0  0  0  0  0  0  0  0  0  0  0
   -2.0442    1.9444   -0.0741 C   0  0  0  0  0  0  0  0  0  0  0  0
   -2.0455    2.7609    1.0260 C   0  0  0  0  0  0  0  0  0  0  0  0
   -3.0003    2.7052    2.0170 C   0  0  0  0  0  0  0  0  0  0  0  0
   -4.0153    1.7594    1.8774 C   0  0  0  0  0  0  0  0  0  0  0  0
   -4.0569    0.9184    0.7924 C   0  0  0  0  0  0  0  0  0  0  0  0
   -3.0806    1.0116   -0.1718 C   0  0  0  0  0  0  0  0  0  0  0  0
   -5.1377   -0.0463    0.6939 C   0  0  0  0  0  0  0  0  0  0  0  0
   -6.4001    0.1960    1.1883 C   0  0  0  0  0  0  0  0  0  0  0  0
   -7.3818   -0.7421    1.0719 C   0  0  0  0  0  0  0  0  0  0  0  0
   -7.1675   -1.9681    0.4612 C   0  0  0  0  0  0  0  0  0  0  0  0
   -5.9093   -2.2273   -0.0394 C   0  0  0  0  0  0  0  0  0  0  0  0
   -4.9199   -1.2648    0.0855 C   0  0  0  0  0  0  0  0  0  0  0  0
    1.0842   -1.1615   -3.1303 H   0  0  0  0  0  0  0  0  0  0  0  0
    2.0150   -2.6063   -2.6681 H   0  0  0  0  0  0  0  0  0  0  0  0
    2.7751   -0.9914   -2.6752 H   0  0  0  0  0  0  0  0  0  0  0  0
    1.0950   -2.2495   -0.5507 H   0  0  0  0  0  0  0  0  0  0  0  0
   -0.4334   -0.6381   -1.9319 H   0  0  0  0  0  0  0  0  0  0  0  0
   -0.4849   -0.5429   -0.1643 H   0  0  0  0  0  0  0  0  0  0  0  0
    2.2367    2.0294   -0.7120 H   0  0  0  0  0  0  0  0  0  0  0  0
    0.9667    2.1697    0.5319 H   0  0  0  0  0  0  0  0  0  0  0  0
    1.2020   -0.0888    1.2425 H   0  0  0  0  0  0  0  0  0  0  0  0
    2.7840    0.6318    1.3328 H   0  0  0  0  0  0  0  0  0  0  0  0
    5.7465   -2.8932    0.0451 H   0  0  0  0  0  0  0  0  0  0  0  0
    8.0298   -2.3576    0.8420 H   0  0  0  0  0  0  0  0  0  0  0  0
    6.8022    1.6893    1.3701 H   0  0  0  0  0  0  0  0  0  0  0  0
    4.6139    1.1707    0.5450 H   0  0  0  0  0  0  0  0  0  0  0  0
   -1.2464    3.4813    1.1032 H   0  0  0  0  0  0  0  0  0  0  0  0
   -2.9442    3.3735    2.8536 H   0  0  0  0  0  0  0  0  0  0  0  0
   -4.7475    1.7405    2.6688 H   0  0  0  0  0  0  0  0  0  0  0  0
   -3.1482    0.3328   -1.0093 H   0  0  0  0  0  0  0  0  0  0  0  0
   -6.5486    1.1651    1.6639 H   0  0  0  0  0  0  0  0  0  0  0  0
   -8.3731   -0.5537    1.4591 H   0  0  0  0  0  0  0  0  0  0  0  0
   -7.9407   -2.7137    0.3663 H   0  0  0  0  0  0  0  0  0  0  0  0
   -5.7181   -3.1818   -0.5219 H   0  0  0  0  0  0  0  0  0  0  0  0
   -3.9138   -1.4470   -0.3039 H   0  0  0  0  0  0  0  0  0  0  0  0
  1  2  1  0
  2  3  1  0
  3  4  1  0
  4  5  1  0
  5  6  1  0
  6  7  1  0
  7  8  1  0
  8  9  2  0
  8 10  1  0
 10 11  2  0
 11 12  1  0
 12 13  2  0
 13 14  1  0
 13 15  1  0
 15 16  2  0
  4 17  1  0
 17 18  2  0
 17 19  2  0
 17 20  1  0
 20 21  2  0
 21 22  1  0
 22 23  2  0
 23 24  1  0
 24 25  2  0
 24 26  1  0
 26 27  2  0
 27 28  1  0
 28 29  2  0
 29 30  1  0
 30 31  2  0
  7  2  1  0
 16 10  1  0
 25 20  1  0
 31 26  1  0
  1 32  1  0
  1 33  1  0
  1 34  1  0
  2 35  1  1
  3 36  1  0
  3 37  1  0
  5 38  1  0
  5 39  1  0
  6 40  1  0
  6 41  1  0
 11 42  1  0
 12 43  1  0
 15 44  1  0
 16 45  1  0
 21 46  1  0
 22 47  1  0
 23 48  1  0
 25 49  1  0
 27 50  1  0
 28 51  1  0
 29 52  1  0
 30 53  1  0
 31 54  1  0
M  END
$$$$
[H]c1c([H])c(S(=O)(=O)N2C([H])([H])C([H])([H])N(C(=O)c3c([H])c([H])c(Cl)c([H])c3Cl)C([H])([H])[C@@]2([H])C([H])([H])[H])c([H])c([H])c1Cl
     RDKit          3D

 44 46  0  0  0  0  0  0  0  0999 V2000
    1.4131   -1.7604   -0.8414 C   0  0  0  0  0  0  0  0  0  0  0  0
    0.9298   -0.8302    0.2814 C   0  0  2  0  0  0  0  0  0  0  0  0
   -0.3313   -1.3954    0.8020 C   0  0  0  0  0  0  0  0  0  0  0  0
   -1.5427   -0.8023    0.3365 N   0  0  0  0  0  0  0  0  0  0  0  0
   -1.4367    0.1807   -0.7168 C   0  0  0  0  0  0  0  0  0  0  0  0
   -0.3536    1.1412   -0.2622 C   0  0  0  0  0  0  0  0  0  0  0  0
    0.8997    0.4826   -0.2282 N   0  0  0  0  0  0  0  0  0  0  0  0
    2.0427    1.5334    0.5489 S   0  0  0  0  0  0  0  0  0  0  0  0
    1.8976    2.9439    0.0505 O   0  0  0  0  0  0  0  0  0  0  0  0
    1.7077    1.5848    2.0341 O   0  0  0  0  0  0  0  0  0  0  0  0
    3.6877    0.9861    0.3177 C   0  0  0  0  0  0  0  0  0  0  0  0
    4.3153    0.1286    1.1974 C   0  0  0  0  0  0  0  0  0  0  0  0
    5.6133   -0.3057    1.0173 C   0  0  0  0  0  0  0  0  0  0  0  0
    6.3317    0.1121   -0.0651 C   0  0  0  0  0  0  0  0  0  0  0  0
    7.9868   -0.4547   -0.2754 Cl  0  0  0  0  0  0  0  0  0  0  0  0
    5.7437    0.9715   -0.9727 C   0  0  0  0  0  0  0  0  0  0  0  0
    4.4449    1.3953   -0.7766 C   0  0  0  0  0  0  0  0  0  0  0  0
   -2.7771   -1.1938    0.9153 C   0  0  0  0  0  0  0  0  0  0  0  0
   -2.8468   -2.0490    1.8290 O   0  0  0  0  0  0  0  0  0  0  0  0
   -4.0146   -0.5745    0.4258 C   0  0  0  0  0  0  0  0  0  0  0  0
   -4.7158   -1.1300   -0.6151 C   0  0  0  0  0  0  0  0  0  0  0  0
   -5.8897   -0.5209   -1.0613 C   0  0  0  0  0  0  0  0  0  0  0  0
   -6.3234    0.6345   -0.4424 C   0  0  0  0  0  0  0  0  0  0  0  0
   -7.7950    1.4674   -0.9434 Cl  0  0  0  0  0  0  0  0  0  0  0  0
   -5.6189    1.1927    0.6035 C   0  0  0  0  0  0  0  0  0  0  0  0
   -4.4532    0.5817    1.0413 C   0  0  0  0  0  0  0  0  0  0  0  0
   -3.5260    1.2477    2.3600 Cl  0  0  0  0  0  0  0  0  0  0  0  0
    1.9096   -2.6554   -0.4174 H   0  0  0  0  0  0  0  0  0  0  0  0
    2.1020   -1.1596   -1.4683 H   0  0  0  0  0  0  0  0  0  0  0  0
    0.5421   -2.1157   -1.4251 H   0  0  0  0  0  0  0  0  0  0  0  0
    1.7215   -0.9048    1.0847 H   0  0  0  0  0  0  0  0  0  0  0  0
   -0.4092   -2.4977    0.5591 H   0  0  0  0  0  0  0  0  0  0  0  0
   -0.2975   -1.4000    1.9334 H   0  0  0  0  0  0  0  0  0  0  0  0
   -2.3921    0.7072   -0.9052 H   0  0  0  0  0  0  0  0  0  0  0  0
   -1.0600   -0.3442   -1.6198 H   0  0  0  0  0  0  0  0  0  0  0  0
   -0.6590    1.5697    0.7125 H   0  0  0  0  0  0  0  0  0  0  0  0
   -0.2965    1.9728   -0.9958 H   0  0  0  0  0  0  0  0  0  0  0  0
    3.8011   -0.2307    2.0633 H   0  0  0  0  0  0  0  0  0  0  0  0
    6.0970   -0.9812    1.7170 H   0  0  0  0  0  0  0  0  0  0  0  0
    6.3457    1.2790   -1.8161 H   0  0  0  0  0  0  0  0  0  0  0  0
    3.9748    2.0661   -1.4780 H   0  0  0  0  0  0  0  0  0  0  0  0
   -4.3741   -2.0446   -1.1063 H   0  0  0  0  0  0  0  0  0  0  0  0
   -6.4623   -0.9314   -1.8749 H   0  0  0  0  0  0  0  0  0  0  0  0
   -5.9324    2.1028    1.1139 H   0  0  0  0  0  0  0  0  0  0  0  0
  1  2  1  0
  2  3  1  0
  3  4  1  0
  4  5  1  0
  5  6  1  0
  6  7  1  0
  7  8  1  0
  8  9  2  0
  8 10  2  0
  8 11  1  0
 11 12  2  0
 12 13  1  0
 13 14  2  0
 14 15  1  0
 14 16  1  0
 16 17  2  0
  4 18  1  0
 18 19  2  0
 18 20  1  0
 20 21  2  0
 21 22  1  0
 22 23  2  0
 23 24  1  0
 23 25  1  0
 25 26  2  0
 26 27  1  0
  7  2  1  0
 17 11  1  0
 26 20  1  0
  1 28  1  0
  1 29  1  0
  1 30  1  0
  2 31  1  1
  3 32  1  0
  3 33  1  0
  5 34  1  0
  5 35  1  0
  6 36  1  0
  6 37  1  0
 12 38  1  0
 13 39  1  0
 16 40  1  0
 17 41  1  0
 21 42  1  0
 22 43  1  0
 25 44  1  0
M  END
$$$$
[H]c1c([H])c(C(=O)N2C([H])([H])[C@]([H])(c3c([H])c([H])c(Cl)c([H])c3[H])[C@]([H])(C([H])([H])[H])C2([H])[H])c([H])c([H])c1Cl
     RDKit          3D

 39 41  0  0  0  0  0  0  0  0999 V2000
   -1.3717   -2.2173   -0.5195 C   0  0  0  0  0  0  0  0  0  0  0  0
   -0.9609   -0.8961   -1.0796 C   0  0  2  0  0  0  0  0  0  0  0  0
    0.5645   -0.7801   -0.9049 C   0  0  0  0  0  0  0  0  0  0  0  0
    0.8026    0.0332    0.2344 N   0  0  0  0  0  0  0  0  0  0  0  0
   -0.5098    0.2403    0.8842 C   0  0  0  0  0  0  0  0  0  0  0  0
   -1.4256    0.2925   -0.3098 C   0  0  2  0  0  0  0  0  0  0  0  0
   -2.8504    0.3441    0.0085 C   0  0  0  0  0  0  0  0  0  0  0  0
   -3.6619    1.2834   -0.6365 C   0  0  0  0  0  0  0  0  0  0  0  0
   -5.0119    1.3886   -0.3686 C   0  0  0  0  0  0  0  0  0  0  0  0
   -5.6133    0.5604    0.5558 C   0  0  0  0  0  0  0  0  0  0  0  0
   -7.3307    0.6767    0.9126 Cl  0  0  0  0  0  0  0  0  0  0  0  0
   -4.8180   -0.3668    1.1941 C   0  0  0  0  0  0  0  0  0  0  0  0
   -3.4485   -0.4729    0.9220 C   0  0  0  0  0  0  0  0  0  0  0  0
    1.9634    0.5901    0.7832 C   0  0  0  0  0  0  0  0  0  0  0  0
    1.7714    1.3238    1.8626 O   0  0  0  0  0  0  0  0  0  0  0  0
    3.3414    0.4901    0.3553 C   0  0  0  0  0  0  0  0  0  0  0  0
    3.7818   -0.2770   -0.6823 C   0  0  0  0  0  0  0  0  0  0  0  0
    5.1420   -0.3039   -1.0512 C   0  0  0  0  0  0  0  0  0  0  0  0
    6.0208    0.4581   -0.3451 C   0  0  0  0  0  0  0  0  0  0  0  0
    7.7201    0.4230   -0.8078 Cl  0  0  0  0  0  0  0  0  0  0  0  0
    5.6376    1.2503    0.7098 C   0  0  0  0  0  0  0  0  0  0  0  0
    4.3058    1.2557    1.0452 C   0  0  0  0  0  0  0  0  0  0  0  0
   -2.4588   -2.4201   -0.5654 H   0  0  0  0  0  0  0  0  0  0  0  0
   -1.0240   -2.3369    0.5263 H   0  0  0  0  0  0  0  0  0  0  0  0
   -0.9065   -3.0313   -1.1672 H   0  0  0  0  0  0  0  0  0  0  0  0
   -1.1948   -0.8001   -2.1634 H   0  0  0  0  0  0  0  0  0  0  0  0
    0.9884   -0.3501   -1.8536 H   0  0  0  0  0  0  0  0  0  0  0  0
    0.9951   -1.7888   -0.7807 H   0  0  0  0  0  0  0  0  0  0  0  0
   -0.6589   -0.6332    1.5394 H   0  0  0  0  0  0  0  0  0  0  0  0
   -0.5174    1.1942    1.4582 H   0  0  0  0  0  0  0  0  0  0  0  0
   -1.0946    1.1939   -0.8975 H   0  0  0  0  0  0  0  0  0  0  0  0
   -3.1880    1.9226   -1.3526 H   0  0  0  0  0  0  0  0  0  0  0  0
   -5.6449    2.1213   -0.8718 H   0  0  0  0  0  0  0  0  0  0  0  0
   -5.2963   -1.0238    1.9279 H   0  0  0  0  0  0  0  0  0  0  0  0
   -2.9007   -1.2144    1.4596 H   0  0  0  0  0  0  0  0  0  0  0  0
    3.1027   -0.8941   -1.2418 H   0  0  0  0  0  0  0  0  0  0  0  0
    5.4233   -0.9378   -1.8890 H   0  0  0  0  0  0  0  0  0  0  0  0
    6.3607    1.8350    1.2400 H   0  0  0  0  0  0  0  0  0  0  0  0
    3.9659    1.8673    1.8691 H   0  0  0  0  0  0  0  0  0  0  0  0
  1  2  1  0
  2  3  1  0
  3  4  1  0
  4  5  1  0
  5  6  1  0
  6  7  1  0
  7  8  2  0
  8  9  1  0
  9 10  2  0
 10 11  1  0
 10 12  1  0
 12 13  2  0
  4 14  1  0
 14 15  2  0
 14 16  1  0
 16 17  2  0
 17 18  1  0
 18 19  2  0
 19 20  1  0
 19 21  1  0
 21 22  2  0
  6  2  1  0
 13  7  1  0
 22 16  1  0
  1 23  1  0
  1 24  1  0
  1 25  1  0
  2 26  1  6
  3 27  1  0
  3 28  1  0
  5 29  1  0
  5 30  1  0
  6 31  1  6
  8 32  1  0
  9 33  1  0
 12 34  1  0
 13 35  1  0
 17 36  1  0
 18 37  1  0
 21 38  1  0
 22 39  1  0
M  END
$$$$
[H]c1nc(C2([H])C([H])([H])C([H])([H])N([C@]3([H])C([H])([H])C([H])([H])[C@@]([H])(N([H])C(=O)c4c([H])c([H])nc([H])c4[H])C([H])([H])C3([H])[H])C([H])([H])C2([H])[H])c([H])nc1-c1c([H])nn(C(F)(F)F)c1[H]
     RDKit          3D

 64 68  0  0  0  0  0  0  0  0999 V2000
    6.0808   -1.0811   -1.8904 O   0  0  0  0  0  0  0  0  0  0  0  0
    6.5537   -0.1798   -1.1133 C   0  0  0  0  0  0  0  0  0  0  0  0
    5.7074    0.5048   -0.2073 N   0  0  0  0  0  0  0  0  0  0  0  0
    4.2866    0.2199   -0.1210 C   0  0  1  0  0  0  0  0  0  0  0  0
    3.9337   -0.0463    1.3018 C   0  0  0  0  0  0  0  0  0  0  0  0
    2.4922   -0.2908    1.5816 C   0  0  0  0  0  0  0  0  0  0  0  0
    1.5580    0.5798    0.7928 C   0  0  1  0  0  0  0  0  0  0  0  0
    2.0270    0.9014   -0.5839 C   0  0  0  0  0  0  0  0  0  0  0  0
    3.4707    1.4469   -0.5502 C   0  0  0  0  0  0  0  0  0  0  0  0
    0.2096    0.1501    0.7829 N   0  0  0  0  0  0  0  0  0  0  0  0
   -0.4322    0.1496    2.0749 C   0  0  0  0  0  0  0  0  0  0  0  0
   -1.8409   -0.3922    1.9560 C   0  0  0  0  0  0  0  0  0  0  0  0
   -2.3240   -0.1132    0.5688 C   0  0  0  0  0  0  0  0  0  0  0  0
   -1.5286   -1.0043   -0.3657 C   0  0  0  0  0  0  0  0  0  0  0  0
   -0.0661   -1.0646    0.0529 C   0  0  0  0  0  0  0  0  0  0  0  0
   -3.7731   -0.2711    0.3772 C   0  0  0  0  0  0  0  0  0  0  0  0
   -4.5154    0.7894   -0.0854 C   0  0  0  0  0  0  0  0  0  0  0  0
   -5.8461    0.6660   -0.2745 N   0  0  0  0  0  0  0  0  0  0  0  0
   -6.5060   -0.4759   -0.0263 C   0  0  0  0  0  0  0  0  0  0  0  0
   -5.7471   -1.5455    0.4425 C   0  0  0  0  0  0  0  0  0  0  0  0
   -4.4159   -1.4257    0.6326 N   0  0  0  0  0  0  0  0  0  0  0  0
   -7.9376   -0.6207   -0.2332 C   0  0  0  0  0  0  0  0  0  0  0  0
   -8.7578   -1.7060   -0.0258 C   0  0  0  0  0  0  0  0  0  0  0  0
  -10.0166   -1.3699   -0.3641 N   0  0  0  0  0  0  0  0  0  0  0  0
  -10.0226   -0.1151   -0.7768 N   0  0  0  0  0  0  0  0  0  0  0  0
   -8.7677    0.3690   -0.7081 C   0  0  0  0  0  0  0  0  0  0  0  0
  -11.2014    0.5929   -1.2242 C   0  0  0  0  0  0  0  0  0  0  0  0
  -10.9173    1.9084   -1.5203 F   0  0  0  0  0  0  0  0  0  0  0  0
  -12.1820    0.4981   -0.2440 F   0  0  0  0  0  0  0  0  0  0  0  0
  -11.6722   -0.0467   -2.3556 F   0  0  0  0  0  0  0  0  0  0  0  0
    7.9553    0.1311   -1.1691 C   0  0  0  0  0  0  0  0  0  0  0  0
    8.5177    1.1908   -0.5218 C   0  0  0  0  0  0  0  0  0  0  0  0
    9.8866    1.4591   -0.5955 C   0  0  0  0  0  0  0  0  0  0  0  0
   10.6572    0.6461   -1.3254 N   0  0  0  0  0  0  0  0  0  0  0  0
   10.1444   -0.4066   -1.9777 C   0  0  0  0  0  0  0  0  0  0  0  0
    8.8006   -0.6857   -1.9164 C   0  0  0  0  0  0  0  0  0  0  0  0
    6.0729    1.2185    0.4139 H   0  0  0  0  0  0  0  0  0  0  0  0
    3.9995   -0.5760   -0.8272 H   0  0  0  0  0  0  0  0  0  0  0  0
    4.3455    0.8108    1.9019 H   0  0  0  0  0  0  0  0  0  0  0  0
    4.4958   -0.9447    1.6971 H   0  0  0  0  0  0  0  0  0  0  0  0
    2.3323   -0.0622    2.6769 H   0  0  0  0  0  0  0  0  0  0  0  0
    2.2843   -1.3692    1.3795 H   0  0  0  0  0  0  0  0  0  0  0  0
    1.5580    1.5765    1.3446 H   0  0  0  0  0  0  0  0  0  0  0  0
    1.4223    1.7514   -0.9732 H   0  0  0  0  0  0  0  0  0  0  0  0
    2.0750    0.0560   -1.2791 H   0  0  0  0  0  0  0  0  0  0  0  0
    3.7451    1.8085   -1.5363 H   0  0  0  0  0  0  0  0  0  0  0  0
    3.5536    2.1684    0.2723 H   0  0  0  0  0  0  0  0  0  0  0  0
   -0.5361    1.2133    2.3859 H   0  0  0  0  0  0  0  0  0  0  0  0
    0.1338   -0.3638    2.8624 H   0  0  0  0  0  0  0  0  0  0  0  0
   -1.8680   -1.4964    2.1833 H   0  0  0  0  0  0  0  0  0  0  0  0
   -2.5268    0.0548    2.7263 H   0  0  0  0  0  0  0  0  0  0  0  0
   -2.0554    0.9470    0.3331 H   0  0  0  0  0  0  0  0  0  0  0  0
   -1.9248   -2.0342   -0.2865 H   0  0  0  0  0  0  0  0  0  0  0  0
   -1.6494   -0.6369   -1.4120 H   0  0  0  0  0  0  0  0  0  0  0  0
    0.1214   -1.9786    0.6378 H   0  0  0  0  0  0  0  0  0  0  0  0
    0.5067   -1.1048   -0.8787 H   0  0  0  0  0  0  0  0  0  0  0  0
   -4.0551    1.7611   -0.3135 H   0  0  0  0  0  0  0  0  0  0  0  0
   -6.2969   -2.4691    0.6415 H   0  0  0  0  0  0  0  0  0  0  0  0
   -8.4489   -2.6716    0.3473 H   0  0  0  0  0  0  0  0  0  0  0  0
   -8.4960    1.3964   -0.9951 H   0  0  0  0  0  0  0  0  0  0  0  0
    7.9035    1.8465    0.0619 H   0  0  0  0  0  0  0  0  0  0  0  0
   10.3135    2.3041   -0.0750 H   0  0  0  0  0  0  0  0  0  0  0  0
   10.8124   -1.0261   -2.5493 H   0  0  0  0  0  0  0  0  0  0  0  0
    8.3708   -1.5419   -2.4451 H   0  0  0  0  0  0  0  0  0  0  0  0
  1  2  2  0
  2  3  1  0
  3  4  1  0
  4  5  1  0
  5  6  1  0
  6  7  1  0
  7  8  1  0
  8  9  1  0
  7 10  1  0
 10 11  1  0
 11 12  1  0
 12 13  1  0
 13 14  1  0
 14 15  1  0
 13 16  1  0
 16 17  2  0
 17 18  1  0
 18 19  2  0
 19 20  1  0
 20 21  2  0
 19 22  1  0
 22 23  1  0
 23 24  2  0
 24 25  1  0
 25 26  1  0
 25 27  1  0
 27 28  1  0
 27 29  1  0
 27 30  1  0
  2 31  1  0
 31 32  2  0
 32 33  1  0
 33 34  2  0
 34 35  1  0
 35 36  2  0
  9  4  1  0
 15 10  1  0
 21 16  1  0
 26 22  2  0
 36 31  1  0
  3 37  1  0
  4 38  1  6
  5 39  1  0
  5 40  1  0
  6 41  1  0
  6 42  1  0
  7 43  1  1
  8 44  1  0
  8 45  1  0
  9 46  1  0
  9 47  1  0
 11 48  1  0
 11 49  1  0
 12 50  1  0
 12 51  1  0
 13 52  1  0
 14 53  1  0
 14 54  1  0
 15 55  1  0
 15 56  1  0
 17 57  1  0
 20 58  1  0
 23 59  1  0
 26 60  1  0
 32 61  1  0
 33 62  1  0
 35 63  1  0
 36 64  1  0
M  END
$$$$
[H]c1nc(N([H])c2c([H])c([H])c(N3C([H])([H])C([H])([H])C([H])([H])C3([H])[H])c([H])c2OC([H])([H])[H])nc(N([H])c2c([H])c([H])c([H])c([H])c2S(=O)(=O)C([H])(C([H])([H])[H])C([H])([H])[H])c1Cl
     RDKit          3D

 62 65  0  0  0  0  0  0  0  0999 V2000
    3.2096   -2.0609    2.6947 C   0  0  0  0  0  0  0  0  0  0  0  0
    2.4224   -1.4133    1.7127 O   0  0  0  0  0  0  0  0  0  0  0  0
    2.9677   -0.3618    0.9953 C   0  0  0  0  0  0  0  0  0  0  0  0
    4.2572    0.0530    1.2291 C   0  0  0  0  0  0  0  0  0  0  0  0
    4.8235    1.0886    0.5366 C   0  0  0  0  0  0  0  0  0  0  0  0
    4.0752    1.7161   -0.4079 C   0  0  0  0  0  0  0  0  0  0  0  0
    2.7540    1.2879   -0.6446 C   0  0  0  0  0  0  0  0  0  0  0  0
    2.1664    0.2666    0.0243 C   0  0  0  0  0  0  0  0  0  0  0  0
    0.8696   -0.1802   -0.1856 N   0  0  0  0  0  0  0  0  0  0  0  0
   -0.1084    0.2853   -1.0961 C   0  0  0  0  0  0  0  0  0  0  0  0
    0.0610    1.2910   -1.9564 N   0  0  0  0  0  0  0  0  0  0  0  0
   -0.8873    1.7043   -2.8056 C   0  0  0  0  0  0  0  0  0  0  0  0
   -2.1134    1.0929   -2.8294 C   0  0  0  0  0  0  0  0  0  0  0  0
   -3.3915    1.5675   -3.9002 Cl  0  0  0  0  0  0  0  0  0  0  0  0
   -2.3447    0.0208   -1.9370 C   0  0  0  0  0  0  0  0  0  0  0  0
   -3.6191   -0.5623   -1.9497 N   0  0  0  0  0  0  0  0  0  0  0  0
   -4.0331   -1.6625   -1.1801 C   0  0  0  0  0  0  0  0  0  0  0  0
   -3.0825   -2.5500   -0.6621 C   0  0  0  0  0  0  0  0  0  0  0  0
   -3.4800   -3.7098   -0.0047 C   0  0  0  0  0  0  0  0  0  0  0  0
   -4.8200   -3.9597    0.1206 C   0  0  0  0  0  0  0  0  0  0  0  0
   -5.7733   -3.1221   -0.3685 C   0  0  0  0  0  0  0  0  0  0  0  0
   -5.4002   -1.9313   -1.0412 C   0  0  0  0  0  0  0  0  0  0  0  0
   -6.6384   -0.8507   -1.5489 S   0  0  0  0  0  0  0  0  0  0  0  0
   -7.9900   -1.6248   -1.4519 O   0  0  0  0  0  0  0  0  0  0  0  0
   -6.4774   -0.4460   -2.9853 O   0  0  0  0  0  0  0  0  0  0  0  0
   -6.8303    0.5130   -0.4913 C   0  0  0  0  0  0  0  0  0  0  0  0
   -7.3705    0.0426    0.8690 C   0  0  0  0  0  0  0  0  0  0  0  0
   -5.5901    1.2834   -0.2036 C   0  0  0  0  0  0  0  0  0  0  0  0
   -1.3250   -0.2996   -1.1400 N   0  0  0  0  0  0  0  0  0  0  0  0
    6.1674    1.4448    0.8462 N   0  0  0  0  0  0  0  0  0  0  0  0
    6.8682    2.5381    0.1883 C   0  0  0  0  0  0  0  0  0  0  0  0
    8.2520    2.5587    0.7521 C   0  0  0  0  0  0  0  0  0  0  0  0
    8.4449    1.1679    1.3147 C   0  0  0  0  0  0  0  0  0  0  0  0
    7.0530    0.8320    1.8113 C   0  0  0  0  0  0  0  0  0  0  0  0
    4.0894   -2.5362    2.1987 H   0  0  0  0  0  0  0  0  0  0  0  0
    2.6755   -2.8565    3.2164 H   0  0  0  0  0  0  0  0  0  0  0  0
    3.5743   -1.2577    3.3766 H   0  0  0  0  0  0  0  0  0  0  0  0
    4.8446   -0.4612    1.9910 H   0  0  0  0  0  0  0  0  0  0  0  0
    4.5234    2.5305   -0.9509 H   0  0  0  0  0  0  0  0  0  0  0  0
    2.2714    1.8655   -1.4148 H   0  0  0  0  0  0  0  0  0  0  0  0
    0.5351   -1.0076    0.4279 H   0  0  0  0  0  0  0  0  0  0  0  0
   -0.7109    2.5334   -3.4969 H   0  0  0  0  0  0  0  0  0  0  0  0
   -4.3140   -0.1463   -2.6066 H   0  0  0  0  0  0  0  0  0  0  0  0
   -2.0227   -2.3788   -0.7743 H   0  0  0  0  0  0  0  0  0  0  0  0
   -2.7473   -4.3997    0.3987 H   0  0  0  0  0  0  0  0  0  0  0  0
   -5.1686   -4.8689    0.6336 H   0  0  0  0  0  0  0  0  0  0  0  0
   -6.8436   -3.3243   -0.2661 H   0  0  0  0  0  0  0  0  0  0  0  0
   -7.6366    1.2216   -0.8449 H   0  0  0  0  0  0  0  0  0  0  0  0
   -8.2066   -0.6669    0.7112 H   0  0  0  0  0  0  0  0  0  0  0  0
   -7.7906    0.9344    1.3833 H   0  0  0  0  0  0  0  0  0  0  0  0
   -6.5680   -0.3436    1.5138 H   0  0  0  0  0  0  0  0  0  0  0  0
   -4.8537    0.7097    0.3759 H   0  0  0  0  0  0  0  0  0  0  0  0
   -5.8201    2.1632    0.4907 H   0  0  0  0  0  0  0  0  0  0  0  0
   -5.2221    1.7511   -1.1308 H   0  0  0  0  0  0  0  0  0  0  0  0
    6.3066    3.4803    0.3755 H   0  0  0  0  0  0  0  0  0  0  0  0
    6.8731    2.3300   -0.9042 H   0  0  0  0  0  0  0  0  0  0  0  0
    8.4205    3.3305    1.5265 H   0  0  0  0  0  0  0  0  0  0  0  0
    8.9618    2.7046   -0.1146 H   0  0  0  0  0  0  0  0  0  0  0  0
    8.6951    0.5113    0.4519 H   0  0  0  0  0  0  0  0  0  0  0  0
    9.2055    1.1239    2.1031 H   0  0  0  0  0  0  0  0  0  0  0  0
    6.8957   -0.2634    1.8903 H   0  0  0  0  0  0  0  0  0  0  0  0
    6.9158    1.3020    2.8021 H   0  0  0  0  0  0  0  0  0  0  0  0
  1  2  1  0
  2  3  1  0
  3  4  2  0
  4  5  1  0
  5  6  2  0
  6  7  1  0
  7  8  2  0
  8  9  1  0
  9 10  1  0
 10 11  2  0
 11 12  1  0
 12 13  2  0
 13 14  1  0
 13 15  1  0
 15 16  1  0
 16 17  1  0
 17 18  2  0
 18 19  1  0
 19 20  2  0
 20 21  1  0
 21 22  2  0
 22 23  1  0
 23 24  2  0
 23 25  2  0
 23 26  1  0
 26 27  1  0
 26 28  1  0
 15 29  2  0
  5 30  1  0
 30 31  1  0
 31 32  1  0
 32 33  1  0
 33 34  1  0
  8  3  1  0
 29 10  1  0
 34 30  1  0
 22 17  1  0
  1 35  1  0
  1 36  1  0
  1 37  1  0
  4 38  1  0
  6 39  1  0
  7 40  1  0
  9 41  1  0
 12 42  1  0
 16 43  1  0
 18 44  1  0
 19 45  1  0
 20 46  1  0
 21 47  1  0
 26 48  1  0
 27 49  1  0
 27 50  1  0
 27 51  1  0
 28 52  1  0
 28 53  1  0
 28 54  1  0
 31 55  1  0
 31 56  1  0
 32 57  1  0
 32 58  1  0
 33 59  1  0
 33 60  1  0
 34 61  1  0
 34 62  1  0
M  END
$$$$
[H]OC(=O)C([H])([H])[C@@]([H])(C(=O)N([H])[H])N([H])C(=O)[C@@]([H])(N([H])C(=O)[C@@]([H])(N([H])C(=O)[C@@]([H])(N([H])C(=O)[C@@]([H])(N([H])[H])C([H])([H])c1c([H])c([H])c(O[H])c([H])c1[H])C([H])([H])c1c([H])c([H])c([H])c([H])c1[H])C([H])([H])C([H])(C([H])([H])[H])C([H])([H])[H])C([H])([H])C(=O)O[H]
     RDKit          3D

 90 91  0  0  0  0  0  0  0  0999 V2000
   -0.4788   -3.5476    2.2255 C   0  0  0  0  0  0  0  0  0  0  0  0
   -0.4192   -3.0989    0.7945 C   0  0  0  0  0  0  0  0  0  0  0  0
   -1.3293   -4.0329   -0.0111 C   0  0  0  0  0  0  0  0  0  0  0  0
   -1.0601   -1.7214    0.7007 C   0  0  0  0  0  0  0  0  0  0  0  0
   -1.0568   -1.1477   -0.6593 C   0  0  2  0  0  0  0  0  0  0  0  0
    0.1724   -0.8792   -1.2935 N   0  0  0  0  0  0  0  0  0  0  0  0
    1.4793   -0.7156   -0.8176 C   0  0  0  0  0  0  0  0  0  0  0  0
    1.8797   -0.7823    0.3692 O   0  0  0  0  0  0  0  0  0  0  0  0
    2.5984   -0.4036   -1.7903 C   0  0  2  0  0  0  0  0  0  0  0  0
    2.8095   -1.3778   -2.8669 C   0  0  0  0  0  0  0  0  0  0  0  0
    3.1812   -2.7529   -2.4938 C   0  0  0  0  0  0  0  0  0  0  0  0
    2.2746   -3.7401   -2.2287 C   0  0  0  0  0  0  0  0  0  0  0  0
    2.6841   -5.0376   -1.9349 C   0  0  0  0  0  0  0  0  0  0  0  0
    4.0236   -5.3351   -1.9078 C   0  0  0  0  0  0  0  0  0  0  0  0
    4.9639   -4.3402   -2.1741 C   0  0  0  0  0  0  0  0  0  0  0  0
    4.5237   -3.0779   -2.4599 C   0  0  0  0  0  0  0  0  0  0  0  0
    3.7878    0.0562   -1.1022 N   0  0  0  0  0  0  0  0  0  0  0  0
    3.9165    1.4658   -0.8054 C   0  0  0  0  0  0  0  0  0  0  0  0
    2.9739    2.2034   -1.1469 O   0  0  0  0  0  0  0  0  0  0  0  0
    5.0492    2.1031   -0.1413 C   0  0  1  0  0  0  0  0  0  0  0  0
    4.6273    3.3398    0.4997 N   0  0  0  0  0  0  0  0  0  0  0  0
    5.7980    1.2778    0.8746 C   0  0  0  0  0  0  0  0  0  0  0  0
    6.8731    2.1568    1.3993 C   0  0  0  0  0  0  0  0  0  0  0  0
    8.0689    2.2241    0.7507 C   0  0  0  0  0  0  0  0  0  0  0  0
    9.0737    3.0526    1.2131 C   0  0  0  0  0  0  0  0  0  0  0  0
    8.8874    3.8258    2.3379 C   0  0  0  0  0  0  0  0  0  0  0  0
    9.8869    4.6830    2.8384 O   0  0  0  0  0  0  0  0  0  0  0  0
    7.6664    3.7487    2.9860 C   0  0  0  0  0  0  0  0  0  0  0  0
    6.6628    2.9167    2.5187 C   0  0  0  0  0  0  0  0  0  0  0  0
   -1.9844    0.0295   -0.7381 C   0  0  0  0  0  0  0  0  0  0  0  0
   -1.3053    1.1362   -0.8996 O   0  0  0  0  0  0  0  0  0  0  0  0
   -3.3482    0.0385   -0.6764 N   0  0  0  0  0  0  0  0  0  0  0  0
   -4.7126    0.0706   -0.6187 C   0  0  1  0  0  0  0  0  0  0  0  0
   -5.4695   -1.1323   -0.2128 C   0  0  0  0  0  0  0  0  0  0  0  0
   -5.2303   -1.6210    1.1493 C   0  0  0  0  0  0  0  0  0  0  0  0
   -5.8091   -2.8197    1.5351 O   0  0  0  0  0  0  0  0  0  0  0  0
   -4.5362   -1.0515    2.0286 O   0  0  0  0  0  0  0  0  0  0  0  0
   -5.1825    1.1960    0.3334 C   0  0  0  0  0  0  0  0  0  0  0  0
   -4.3751    1.8238    1.0199 O   0  0  0  0  0  0  0  0  0  0  0  0
   -6.5642    1.4953    0.3876 N   0  0  0  0  0  0  0  0  0  0  0  0
   -7.1818    2.5129    1.1892 C   0  0  1  0  0  0  0  0  0  0  0  0
   -7.5718    3.7333    0.3729 C   0  0  0  0  0  0  0  0  0  0  0  0
   -8.5301    3.4405   -0.7011 C   0  0  0  0  0  0  0  0  0  0  0  0
   -8.9236    4.5019   -1.5374 O   0  0  0  0  0  0  0  0  0  0  0  0
   -9.0429    2.3185   -0.9531 O   0  0  0  0  0  0  0  0  0  0  0  0
   -8.3037    1.9741    1.9506 C   0  0  0  0  0  0  0  0  0  0  0  0
   -9.1826    2.8326    2.7252 N   0  0  0  0  0  0  0  0  0  0  0  0
   -8.6155    0.7608    2.0081 O   0  0  0  0  0  0  0  0  0  0  0  0
    0.0969   -4.5088    2.2918 H   0  0  0  0  0  0  0  0  0  0  0  0
   -1.5063   -3.7839    2.5100 H   0  0  0  0  0  0  0  0  0  0  0  0
   -0.0285   -2.7443    2.8683 H   0  0  0  0  0  0  0  0  0  0  0  0
    0.5513   -3.1158    0.3273 H   0  0  0  0  0  0  0  0  0  0  0  0
   -1.0085   -5.0704    0.2960 H   0  0  0  0  0  0  0  0  0  0  0  0
   -2.3842   -3.9029    0.2135 H   0  0  0  0  0  0  0  0  0  0  0  0
   -1.0707   -3.9074   -1.0836 H   0  0  0  0  0  0  0  0  0  0  0  0
   -0.6706   -1.0618    1.5125 H   0  0  0  0  0  0  0  0  0  0  0  0
   -2.1107   -1.9010    0.9876 H   0  0  0  0  0  0  0  0  0  0  0  0
   -1.5538   -1.9692   -1.2872 H   0  0  0  0  0  0  0  0  0  0  0  0
    0.1033   -0.7644   -2.3754 H   0  0  0  0  0  0  0  0  0  0  0  0
    2.1873    0.5445   -2.2914 H   0  0  0  0  0  0  0  0  0  0  0  0
    1.9187   -1.4317   -3.5849 H   0  0  0  0  0  0  0  0  0  0  0  0
    3.6222   -1.0272   -3.5932 H   0  0  0  0  0  0  0  0  0  0  0  0
    1.2091   -3.5931   -2.2266 H   0  0  0  0  0  0  0  0  0  0  0  0
    2.0055   -5.8535   -1.7196 H   0  0  0  0  0  0  0  0  0  0  0  0
    4.4351   -6.3263   -1.6964 H   0  0  0  0  0  0  0  0  0  0  0  0
    6.0364   -4.5740   -2.1435 H   0  0  0  0  0  0  0  0  0  0  0  0
    5.2910   -2.3228   -2.6592 H   0  0  0  0  0  0  0  0  0  0  0  0
    4.5283   -0.5761   -0.8214 H   0  0  0  0  0  0  0  0  0  0  0  0
    5.8222    2.4349   -0.9205 H   0  0  0  0  0  0  0  0  0  0  0  0
    4.0057    3.1205    1.3285 H   0  0  0  0  0  0  0  0  0  0  0  0
    4.1794    3.9893   -0.1906 H   0  0  0  0  0  0  0  0  0  0  0  0
    6.3213    0.4476    0.3327 H   0  0  0  0  0  0  0  0  0  0  0  0
    5.1485    0.8533    1.6362 H   0  0  0  0  0  0  0  0  0  0  0  0
    8.3116    1.6597   -0.1396 H   0  0  0  0  0  0  0  0  0  0  0  0
   10.0200    3.1104    0.6895 H   0  0  0  0  0  0  0  0  0  0  0  0
   10.5134    4.2725    3.5112 H   0  0  0  0  0  0  0  0  0  0  0  0
    7.4573    4.3316    3.8903 H   0  0  0  0  0  0  0  0  0  0  0  0
    5.6941    2.8318    3.0120 H   0  0  0  0  0  0  0  0  0  0  0  0
   -3.3258    1.3660   -0.9387 H   0  0  0  0  0  0  0  0  0  0  0  0
   -5.1675    0.4636   -1.5865 H   0  0  0  0  0  0  0  0  0  0  0  0
   -6.5496   -0.9617   -0.3391 H   0  0  0  0  0  0  0  0  0  0  0  0
   -5.2565   -2.0223   -0.8824 H   0  0  0  0  0  0  0  0  0  0  0  0
   -6.4357   -3.3147    0.9137 H   0  0  0  0  0  0  0  0  0  0  0  0
   -7.1976    0.8997   -0.2368 H   0  0  0  0  0  0  0  0  0  0  0  0
   -6.4006    2.8953    1.9035 H   0  0  0  0  0  0  0  0  0  0  0  0
   -7.9751    4.4928    1.0948 H   0  0  0  0  0  0  0  0  0  0  0  0
   -6.6597    4.1366   -0.0796 H   0  0  0  0  0  0  0  0  0  0  0  0
   -8.8490    4.2833   -2.5278 H   0  0  0  0  0  0  0  0  0  0  0  0
   -8.7646    3.6463    3.2272 H   0  0  0  0  0  0  0  0  0  0  0  0
  -10.1926    2.6504    2.7738 H   0  0  0  0  0  0  0  0  0  0  0  0
  1  2  1  0
  2  3  1  0
  2  4  1  0
  4  5  1  0
  5  6  1  0
  6  7  1  0
  7  8  2  0
  7  9  1  0
  9 10  1  0
 10 11  1  0
 11 12  2  0
 12 13  1  0
 13 14  2  0
 14 15  1  0
 15 16  2  0
  9 17  1  0
 17 18  1  0
 18 19  2  0
 18 20  1  0
 20 21  1  0
 20 22  1  0
 22 23  1  0
 23 24  2  0
 24 25  1  0
 25 26  2  0
 26 27  1  0
 26 28  1  0
 28 29  2  0
  5 30  1  0
 30 31  2  0
 30 32  1  0
 32 33  1  0
 33 34  1  0
 34 35  1  0
 35 36  1  0
 35 37  2  0
 33 38  1  0
 38 39  2  0
 38 40  1  0
 40 41  1  0
 41 42  1  0
 42 43  1  0
 43 44  1  0
 43 45  2  0
 41 46  1  0
 46 47  1  0
 46 48  2  0
 16 11  1  0
 29 23  1  0
  1 49  1  0
  1 50  1  0
  1 51  1  0
  2 52  1  0
  3 53  1  0
  3 54  1  0
  3 55  1  0
  4 56  1  0
  4 57  1  0
  5 58  1  6
  6 59  1  0
  9 60  1  6
 10 61  1  0
 10 62  1  0
 12 63  1  0
 13 64  1  0
 14 65  1  0
 15 66  1  0
 16 67  1  0
 17 68  1  0
 20 69  1  6
 21 70  1  0
 21 71  1  0
 22 72  1  0
 22 73  1  0
 24 74  1  0
 25 75  1  0
 27 76  1  0
 28 77  1  0
 29 78  1  0
 32 79  1  0
 33 80  1  6
 34 81  1  0
 34 82  1  0
 36 83  1  0
 40 84  1  0
 41 85  1  1
 42 86  1  0
 42 87  1  0
 44 88  1  0
 47 89  1  0
 47 90  1  0
M  END
$$$$
[H]c1nc(N([H])c2c([H])c([H])c(N3C([H])([H])C([H])([H])C([H])([H])C3([H])[H])c([H])c2OC([H])([H])[H])nc(N([H])c2c([H])c([H])c([H])c([H])c2S(=O)(=O)C([H])(C([H])([H])[H])C([H])([H])[H])c1Cl
     RDKit          3D

 62 65  0  0  0  0  0  0  0  0999 V2000
    3.2096   -2.0609    2.6947 C   0  0  0  0  0  0  0  0  0  0  0  0
    2.4224   -1.4133    1.7127 O   0  0  0  0  0  0  0  0  0  0  0  0
    2.9677   -0.3618    0.9953 C   0  0  0  0  0  0  0  0  0  0  0  0
    4.2572    0.0530    1.2291 C   0  0  0  0  0  0  0  0  0  0  0  0
    4.8235    1.0886    0.5366 C   0  0  0  0  0  0  0  0  0  0  0  0
    4.0752    1.7161   -0.4079 C   0  0  0  0  0  0  0  0  0  0  0  0
    2.7540    1.2879   -0.6446 C   0  0  0  0  0  0  0  0  0  0  0  0
    2.1664    0.2666    0.0243 C   0  0  0  0  0  0  0  0  0  0  0  0
    0.8696   -0.1802   -0.1856 N   0  0  0  0  0  0  0  0  0  0  0  0
   -0.1084    0.2853   -1.0961 C   0  0  0  0  0  0  0  0  0  0  0  0
    0.0610    1.2910   -1.9564 N   0  0  0  0  0  0  0  0  0  0  0  0
   -0.8873    1.7043   -2.8056 C   0  0  0  0  0  0  0  0  0  0  0  0
   -2.1134    1.0929   -2.8294 C   0  0  0  0  0  0  0  0  0  0  0  0
   -3.3915    1.5675   -3.9002 Cl  0  0  0  0  0  0  0  0  0  0  0  0
   -2.3447    0.0208   -1.9370 C   0  0  0  0  0  0  0  0  0  0  0  0
   -3.6191   -0.5623   -1.9497 N   0  0  0  0  0  0  0  0  0  0  0  0
   -4.0331   -1.6625   -1.1801 C   0  0  0  0  0  0  0  0  0  0  0  0
   -3.0825   -2.5500   -0.6621 C   0  0  0  0  0  0  0  0  0  0  0  0
   -3.4800   -3.7098   -0.0047 C   0  0  0  0  0  0  0  0  0  0  0  0
   -4.8200   -3.9597    0.1206 C   0  0  0  0  0  0  0  0  0  0  0  0
   -5.7733   -3.1221   -0.3685 C   0  0  0  0  0  0  0  0  0  0  0  0
   -5.4002   -1.9313   -1.0412 C   0  0  0  0  0  0  0  0  0  0  0  0
   -6.6384   -0.8507   -1.5489 S   0  0  0  0  0  0  0  0  0  0  0  0
   -7.9900   -1.6248   -1.4519 O   0  0  0  0  0  0  0  0  0  0  0  0
   -6.4774   -0.4460   -2.9853 O   0  0  0  0  0  0  0  0  0  0  0  0
   -6.8303    0.5130   -0.4913 C   0  0  0  0  0  0  0  0  0  0  0  0
   -7.3705    0.0426    0.8690 C   0  0  0  0  0  0  0  0  0  0  0  0
   -5.5901    1.2834   -0.2036 C   0  0  0  0  0  0  0  0  0  0  0  0
   -1.3250   -0.2996   -1.1400 N   0  0  0  0  0  0  0  0  0  0  0  0
    6.1674    1.4448    0.8462 N   0  0  0  0  0  0  0  0  0  0  0  0
    6.8682    2.5381    0.1883 C   0  0  0  0  0  0  0  0  0  0  0  0
    8.2520    2.5587    0.7521 C   0  0  0  0  0  0  0  0  0  0  0  0
    8.4449    1.1679    1.3147 C   0  0  0  0  0  0  0  0  0  0  0  0
    7.0530    0.8320    1.8113 C   0  0  0  0  0  0  0  0  0  0  0  0
    4.0894   -2.5362    2.1987 H   0  0  0  0  0  0  0  0  0  0  0  0
    2.6755   -2.8565    3.2164 H   0  0  0  0  0  0  0  0  0  0  0  0
    3.5743   -1.2577    3.3766 H   0  0  0  0  0  0  0  0  0  0  0  0
    4.8446   -0.4612    1.9910 H   0  0  0  0  0  0  0  0  0  0  0  0
    4.5234    2.5305   -0.9509 H   0  0  0  0  0  0  0  0  0  0  0  0
    2.2714    1.8655   -1.4148 H   0  0  0  0  0  0  0  0  0  0  0  0
    0.5351   -1.0076    0.4279 H   0  0  0  0  0  0  0  0  0  0  0  0
   -0.7109    2.5334   -3.4969 H   0  0  0  0  0  0  0  0  0  0  0  0
   -4.3140   -0.1463   -2.6066 H   0  0  0  0  0  0  0  0  0  0  0  0
   -2.0227   -2.3788   -0.7743 H   0  0  0  0  0  0  0  0  0  0  0  0
   -2.7473   -4.3997    0.3987 H   0  0  0  0  0  0  0  0  0  0  0  0
   -5.1686   -4.8689    0.6336 H   0  0  0  0  0  0  0  0  0  0  0  0
   -6.8436   -3.3243   -0.2661 H   0  0  0  0  0  0  0  0  0  0  0  0
   -7.6366    1.2216   -0.8449 H   0  0  0  0  0  0  0  0  0  0  0  0
   -8.2066   -0.6669    0.7112 H   0  0  0  0  0  0  0  0  0  0  0  0
   -7.7906    0.9344    1.3833 H   0  0  0  0  0  0  0  0  0  0  0  0
   -6.5680   -0.3436    1.5138 H   0  0  0  0  0  0  0  0  0  0  0  0
   -4.8537    0.7097    0.3759 H   0  0  0  0  0  0  0  0  0  0  0  0
   -5.8201    2.1632    0.4907 H   0  0  0  0  0  0  0  0  0  0  0  0
   -5.2221    1.7511   -1.1308 H   0  0  0  0  0  0  0  0  0  0  0  0
    6.3066    3.4803    0.3755 H   0  0  0  0  0  0  0  0  0  0  0  0
    6.8731    2.3300   -0.9042 H   0  0  0  0  0  0  0  0  0  0  0  0
    8.4205    3.3305    1.5265 H   0  0  0  0  0  0  0  0  0  0  0  0
    8.9618    2.7046   -0.1146 H   0  0  0  0  0  0  0  0  0  0  0  0
    8.6951    0.5113    0.4519 H   0  0  0  0  0  0  0  0  0  0  0  0
    9.2055    1.1239    2.1031 H   0  0  0  0  0  0  0  0  0  0  0  0
    6.8957   -0.2634    1.8903 H   0  0  0  0  0  0  0  0  0  0  0  0
    6.9158    1.3020    2.8021 H   0  0  0  0  0  0  0  0  0  0  0  0
  1  2  1  0
  2  3  1  0
  3  4  2  0
  4  5  1  0
  5  6  2  0
  6  7  1  0
  7  8  2  0
  8  9  1  0
  9 10  1  0
 10 11  2  0
 11 12  1  0
 12 13  2  0
 13 14  1  0
 13 15  1  0
 15 16  1  0
 16 17  1  0
 17 18  2  0
 18 19  1  0
 19 20  2  0
 20 21  1  0
 21 22  2  0
 22 23  1  0
 23 24  2  0
 23 25  2  0
 23 26  1  0
 26 27  1  0
 26 28  1  0
 15 29  2  0
  5 30  1  0
 30 31  1  0
 31 32  1  0
 32 33  1  0
 33 34  1  0
  8  3  1  0
 29 10  1  0
 34 30  1  0
 22 17  1  0
  1 35  1  0
  1 36  1  0
  1 37  1  0
  4 38  1  0
  6 39  1  0
  7 40  1  0
  9 41  1  0
 12 42  1  0
 16 43  1  0
 18 44  1  0
 19 45  1  0
 20 46  1  0
 21 47  1  0
 26 48  1  0
 27 49  1  0
 27 50  1  0
 27 51  1  0
 28 52  1  0
 28 53  1  0
 28 54  1  0
 31 55  1  0
 31 56  1  0
 32 57  1  0
 32 58  1  0
 33 59  1  0
 33 60  1  0
 34 61  1  0
 34 62  1  0
M  END
$$$$
[H]O[C@@]1(C([H])([H])[H])C([H])([H])C([H])([H])[C@]2([H])[C@]1(C([H])([H])[H])C([H])([H])C([H])([H])[C@]1([H])[C@]3(C([H])([H])[H])C(=C([H])C(=O)C([H])([H])C3([H])[H])C([H])([H])C([H])([H])[C@@]21[H]
     RDKit          3D

 52 55  0  0  0  0  0  0  0  0999 V2000
    1.9556    1.0588    1.4036 C   0  0  0  0  0  0  0  0  0  0  0  0
    2.0770    0.4241    0.0517 C   0  0  2  0  0  0  0  0  0  0  0  0
    1.5213    1.2907   -1.0181 C   0  0  0  0  0  0  0  0  0  0  0  0
    0.0475    1.5086   -0.7001 C   0  0  0  0  0  0  0  0  0  0  0  0
   -0.6910    0.2015   -0.6228 C   0  0  1  0  0  0  0  0  0  0  0  0
   -0.0493   -0.7862    0.3223 C   0  0  1  0  0  0  0  0  0  0  0  0
   -0.7789   -2.1008    0.1646 C   0  0  0  0  0  0  0  0  0  0  0  0
   -1.9665   -2.0474   -0.7333 C   0  0  0  0  0  0  0  0  0  0  0  0
   -2.8278   -0.8603   -0.5312 C   0  0  0  0  0  0  0  0  0  0  0  0
   -4.1272   -0.9009   -0.6512 C   0  0  0  0  0  0  0  0  0  0  0  0
   -4.8724    0.3252   -0.4303 C   0  0  0  0  0  0  0  0  0  0  0  0
   -6.0535    0.3037   -0.0161 O   0  0  0  0  0  0  0  0  0  0  0  0
   -4.2327    1.6258   -0.6971 C   0  0  0  0  0  0  0  0  0  0  0  0
   -2.7518    1.6090   -0.7900 C   0  0  0  0  0  0  0  0  0  0  0  0
   -2.1019    0.4116   -0.1739 C   0  0  2  0  0  0  0  0  0  0  0  0
   -2.2139    0.5479    1.3366 C   0  0  0  0  0  0  0  0  0  0  0  0
    1.3795   -0.9163   -0.0419 C   0  0  2  0  0  0  0  0  0  0  0  0
    2.2184   -1.7635    0.8487 C   0  0  0  0  0  0  0  0  0  0  0  0
    3.6234   -1.4167    0.3324 C   0  0  0  0  0  0  0  0  0  0  0  0
    3.5118    0.0171   -0.1430 C   0  0  1  0  0  0  0  0  0  0  0  0
    4.0049    0.2131   -1.5399 C   0  0  0  0  0  0  0  0  0  0  0  0
    4.3408    0.7793    0.7042 O   0  0  0  0  0  0  0  0  0  0  0  0
    2.5772    0.5433    2.1718 H   0  0  0  0  0  0  0  0  0  0  0  0
    2.4010    2.0826    1.3137 H   0  0  0  0  0  0  0  0  0  0  0  0
    0.9385    1.1933    1.7663 H   0  0  0  0  0  0  0  0  0  0  0  0
    1.5432    0.7154   -1.9789 H   0  0  0  0  0  0  0  0  0  0  0  0
    2.0037    2.2781   -1.1197 H   0  0  0  0  0  0  0  0  0  0  0  0
   -0.0800    2.1511    0.1737 H   0  0  0  0  0  0  0  0  0  0  0  0
   -0.3673    2.0629   -1.5767 H   0  0  0  0  0  0  0  0  0  0  0  0
   -0.7112   -0.2322   -1.6314 H   0  0  0  0  0  0  0  0  0  0  0  0
   -0.1393   -0.4933    1.3796 H   0  0  0  0  0  0  0  0  0  0  0  0
   -1.1247   -2.5080    1.1512 H   0  0  0  0  0  0  0  0  0  0  0  0
   -0.0880   -2.8853   -0.2574 H   0  0  0  0  0  0  0  0  0  0  0  0
   -2.6049   -2.9385   -0.4950 H   0  0  0  0  0  0  0  0  0  0  0  0
   -1.6919   -2.1865   -1.8147 H   0  0  0  0  0  0  0  0  0  0  0  0
   -4.6113   -1.8414   -0.9088 H   0  0  0  0  0  0  0  0  0  0  0  0
   -4.6089    2.3907    0.0464 H   0  0  0  0  0  0  0  0  0  0  0  0
   -4.6778    1.9888   -1.6714 H   0  0  0  0  0  0  0  0  0  0  0  0
   -2.4415    1.7816   -1.8360 H   0  0  0  0  0  0  0  0  0  0  0  0
   -2.3708    2.5083   -0.2220 H   0  0  0  0  0  0  0  0  0  0  0  0
   -1.4566    1.2845    1.7243 H   0  0  0  0  0  0  0  0  0  0  0  0
   -2.1230   -0.4280    1.8477 H   0  0  0  0  0  0  0  0  0  0  0  0
   -3.1956    0.9780    1.6192 H   0  0  0  0  0  0  0  0  0  0  0  0
    1.5229   -1.2696   -1.0850 H   0  0  0  0  0  0  0  0  0  0  0  0
    2.1794   -1.4384    1.8960 H   0  0  0  0  0  0  0  0  0  0  0  0
    2.0229   -2.8484    0.7479 H   0  0  0  0  0  0  0  0  0  0  0  0
    3.8121   -2.0407   -0.5852 H   0  0  0  0  0  0  0  0  0  0  0  0
    4.3822   -1.5688    1.0995 H   0  0  0  0  0  0  0  0  0  0  0  0
    5.1030    0.2408   -1.5512 H   0  0  0  0  0  0  0  0  0  0  0  0
    3.5945   -0.5513   -2.2532 H   0  0  0  0  0  0  0  0  0  0  0  0
    3.6625    1.2208   -1.8740 H   0  0  0  0  0  0  0  0  0  0  0  0
    4.5365    0.2858    1.5532 H   0  0  0  0  0  0  0  0  0  0  0  0
  2  1  1  1
  2  3  1  0
  3  4  1  0
  4  5  1  0
  5  6  1  0
  6  7  1  0
  7  8  1  0
  8  9  1  0
  9 10  2  0
 10 11  1  0
 11 12  2  0
 11 13  1  0
 13 14  1  0
 14 15  1  0
 15 16  1  1
  6 17  1  0
 17 18  1  0
 18 19  1  0
 19 20  1  0
 20 21  1  0
 20 22  1  1
 17  2  1  0
 20  2  1  0
 15  5  1  0
 15  9  1  0
  1 23  1  0
  1 24  1  0
  1 25  1  0
  3 26  1  0
  3 27  1  0
  4 28  1  0
  4 29  1  0
  5 30  1  6
  6 31  1  1
  7 32  1  0
  7 33  1  0
  8 34  1  0
  8 35  1  0
 10 36  1  0
 13 37  1  0
 13 38  1  0
 14 39  1  0
 14 40  1  0
 16 41  1  0
 16 42  1  0
 16 43  1  0
 17 44  1  6
 18 45  1  0
 18 46  1  0
 19 47  1  0
 19 48  1  0
 21 49  1  0
 21 50  1  0
 21 51  1  0
 22 52  1  0
M  END
$$$$
