[H]c1c([H])c([H])c(C([H])([H])OC(=O)N([H])[C@@]([H])(C(=O)N2C([H])([H])C([H])([H])C([H])([H])[C@@]2([H])C(=O)N([H])[C@]([H])(C(=O)c2nc3c([H])c([H])c([H])c([H])c3s2)C([H])([H])C([H])([H])C([H])([H])N=C(N([H])[H])N([H])[H])C([H])([H])c2c([H])c([H])c([H])c([H])c2[H])c([H])c1[H]
     RDKit          3D

 87 91  0  0  0  0  0  0  0  0999 V2000
    4.3358    3.4045   -0.8377 N   0  0  0  0  0  0  0  0  0  0  0  0
    4.4764    3.2784    0.5645 C   0  0  0  0  0  0  0  0  0  0  0  0
    4.8132    4.4202    1.3294 N   0  0  0  0  0  0  0  0  0  0  0  0
    4.3057    2.1538    1.1363 N   0  0  0  0  0  0  0  0  0  0  0  0
    4.4298    1.9609    2.5247 C   0  0  0  0  0  0  0  0  0  0  0  0
    4.6269    0.5606    3.0044 C   0  0  0  0  0  0  0  0  0  0  0  0
    3.5896   -0.4264    2.6880 C   0  0  0  0  0  0  0  0  0  0  0  0
    3.3696   -0.8344    1.2533 C   0  0  2  0  0  0  0  0  0  0  0  0
    2.2196   -1.7964    1.3546 N   0  0  0  0  0  0  0  0  0  0  0  0
    1.0809   -1.6264    0.5792 C   0  0  0  0  0  0  0  0  0  0  0  0
    0.9513   -0.6684   -0.2378 O   0  0  0  0  0  0  0  0  0  0  0  0
   -0.0810   -2.5715    0.6493 C   0  0  2  0  0  0  0  0  0  0  0  0
    0.3881   -3.9450    0.3261 C   0  0  0  0  0  0  0  0  0  0  0  0
   -0.2216   -4.2876   -1.0061 C   0  0  0  0  0  0  0  0  0  0  0  0
   -0.6171   -2.9154   -1.5417 C   0  0  0  0  0  0  0  0  0  0  0  0
   -1.0630   -2.2216   -0.3854 N   0  0  0  0  0  0  0  0  0  0  0  0
   -2.1603   -1.3736   -0.2087 C   0  0  0  0  0  0  0  0  0  0  0  0
   -2.3019   -0.9356    0.9952 O   0  0  0  0  0  0  0  0  0  0  0  0
   -3.1515   -0.9033   -1.1611 C   0  0  1  0  0  0  0  0  0  0  0  0
   -3.9715   -1.8708   -1.9158 C   0  0  0  0  0  0  0  0  0  0  0  0
   -4.8319   -2.7767   -1.1672 C   0  0  0  0  0  0  0  0  0  0  0  0
   -6.1360   -2.4607   -0.8440 C   0  0  0  0  0  0  0  0  0  0  0  0
   -6.9289   -3.3577   -0.1462 C   0  0  0  0  0  0  0  0  0  0  0  0
   -6.4470   -4.5901    0.2479 C   0  0  0  0  0  0  0  0  0  0  0  0
   -5.1429   -4.9084   -0.0736 C   0  0  0  0  0  0  0  0  0  0  0  0
   -4.3657   -4.0031   -0.7692 C   0  0  0  0  0  0  0  0  0  0  0  0
   -4.0073    0.0786   -0.4771 N   0  0  0  0  0  0  0  0  0  0  0  0
   -3.8334    1.4982   -0.6568 C   0  0  0  0  0  0  0  0  0  0  0  0
   -2.9125    1.8890   -1.4168 O   0  0  0  0  0  0  0  0  0  0  0  0
   -4.6313    2.4124   -0.0335 O   0  0  0  0  0  0  0  0  0  0  0  0
   -4.4790    3.8113   -0.1856 C   0  0  0  0  0  0  0  0  0  0  0  0
   -5.5505    4.4701    0.6247 C   0  0  0  0  0  0  0  0  0  0  0  0
   -5.4071    4.7688    1.9569 C   0  0  0  0  0  0  0  0  0  0  0  0
   -6.4014    5.3705    2.6996 C   0  0  0  0  0  0  0  0  0  0  0  0
   -7.5879    5.6917    2.1046 C   0  0  0  0  0  0  0  0  0  0  0  0
   -7.7811    5.4097    0.7583 C   0  0  0  0  0  0  0  0  0  0  0  0
   -6.7705    4.8060    0.0325 C   0  0  0  0  0  0  0  0  0  0  0  0
    4.5647   -1.6665    0.9018 C   0  0  0  0  0  0  0  0  0  0  0  0
    4.6871   -2.7295    1.5698 O   0  0  0  0  0  0  0  0  0  0  0  0
    5.5505   -1.3682   -0.1066 C   0  0  0  0  0  0  0  0  0  0  0  0
    5.6549   -0.3792   -0.9565 N   0  0  0  0  0  0  0  0  0  0  0  0
    6.6410   -0.3129   -1.8015 C   0  0  0  0  0  0  0  0  0  0  0  0
    6.8507    0.6930   -2.7589 C   0  0  0  0  0  0  0  0  0  0  0  0
    7.9208    0.6583   -3.6030 C   0  0  0  0  0  0  0  0  0  0  0  0
    8.8541   -0.3492   -3.5742 C   0  0  0  0  0  0  0  0  0  0  0  0
    8.6689   -1.3460   -2.6428 C   0  0  0  0  0  0  0  0  0  0  0  0
    7.5673   -1.3143   -1.7712 C   0  0  0  0  0  0  0  0  0  0  0  0
    6.9647   -2.3054   -0.5170 S   0  0  0  0  0  0  0  0  0  0  0  0
    5.0713    3.2072   -1.5337 H   0  0  0  0  0  0  0  0  0  0  0  0
    3.4066    3.7290   -1.2452 H   0  0  0  0  0  0  0  0  0  0  0  0
    5.7104    4.9334    1.2228 H   0  0  0  0  0  0  0  0  0  0  0  0
    4.1367    4.7646    2.0334 H   0  0  0  0  0  0  0  0  0  0  0  0
    3.4957    2.3430    3.0212 H   0  0  0  0  0  0  0  0  0  0  0  0
    5.2524    2.5802    2.9858 H   0  0  0  0  0  0  0  0  0  0  0  0
    5.6738    0.1923    2.7759 H   0  0  0  0  0  0  0  0  0  0  0  0
    4.6752    0.6402    4.1435 H   0  0  0  0  0  0  0  0  0  0  0  0
    2.5869   -0.0812    3.0721 H   0  0  0  0  0  0  0  0  0  0  0  0
    3.7847   -1.3948    3.2621 H   0  0  0  0  0  0  0  0  0  0  0  0
    3.1709   -0.0302    0.5862 H   0  0  0  0  0  0  0  0  0  0  0  0
    2.3459   -2.5598    2.0195 H   0  0  0  0  0  0  0  0  0  0  0  0
   -0.4722   -2.5366    1.6614 H   0  0  0  0  0  0  0  0  0  0  0  0
    0.1046   -4.6994    1.0996 H   0  0  0  0  0  0  0  0  0  0  0  0
    1.4982   -3.9332    0.1869 H   0  0  0  0  0  0  0  0  0  0  0  0
    0.5749   -4.6769   -1.6981 H   0  0  0  0  0  0  0  0  0  0  0  0
   -1.0720   -4.9614   -0.9302 H   0  0  0  0  0  0  0  0  0  0  0  0
   -1.3244   -3.0795   -2.3487 H   0  0  0  0  0  0  0  0  0  0  0  0
    0.3149   -2.4635   -1.9826 H   0  0  0  0  0  0  0  0  0  0  0  0
   -2.5733   -0.2812   -1.9112 H   0  0  0  0  0  0  0  0  0  0  0  0
   -4.7200   -1.2122   -2.5102 H   0  0  0  0  0  0  0  0  0  0  0  0
   -3.3975   -2.3350   -2.7188 H   0  0  0  0  0  0  0  0  0  0  0  0
   -6.5882   -1.5047   -1.1220 H   0  0  0  0  0  0  0  0  0  0  0  0
   -7.9597   -3.1229    0.1130 H   0  0  0  0  0  0  0  0  0  0  0  0
   -7.0649   -5.3178    0.8007 H   0  0  0  0  0  0  0  0  0  0  0  0
   -4.7440   -5.8738    0.2265 H   0  0  0  0  0  0  0  0  0  0  0  0
   -3.3630   -4.3144   -0.9882 H   0  0  0  0  0  0  0  0  0  0  0  0
   -4.7448   -0.3071    0.1437 H   0  0  0  0  0  0  0  0  0  0  0  0
   -4.5365    4.1574   -1.2278 H   0  0  0  0  0  0  0  0  0  0  0  0
   -3.4962    4.1384    0.2351 H   0  0  0  0  0  0  0  0  0  0  0  0
   -4.4513    4.5019    2.4028 H   0  0  0  0  0  0  0  0  0  0  0  0
   -6.2336    5.5867    3.7601 H   0  0  0  0  0  0  0  0  0  0  0  0
   -8.3980    6.1653    2.6474 H   0  0  0  0  0  0  0  0  0  0  0  0
   -8.7103    5.6537    0.2680 H   0  0  0  0  0  0  0  0  0  0  0  0
   -6.9451    4.5968   -1.0178 H   0  0  0  0  0  0  0  0  0  0  0  0
    6.1589    1.5439   -2.8516 H   0  0  0  0  0  0  0  0  0  0  0  0
    8.0625    1.4680   -4.3548 H   0  0  0  0  0  0  0  0  0  0  0  0
    9.7153   -0.4280   -4.2136 H   0  0  0  0  0  0  0  0  0  0  0  0
    9.3259   -2.1804   -2.5182 H   0  0  0  0  0  0  0  0  0  0  0  0
  1  2  1  0
  2  3  1  0
  2  4  2  3
  4  5  1  0
  5  6  1  0
  6  7  1  0
  7  8  1  0
  8  9  1  0
  9 10  1  0
 10 11  2  0
 10 12  1  0
 12 13  1  0
 13 14  1  0
 14 15  1  0
 15 16  1  0
 16 17  1  0
 17 18  2  0
 17 19  1  0
 19 20  1  0
 20 21  1  0
 21 22  2  0
 22 23  1  0
 23 24  2  0
 24 25  1  0
 25 26  2  0
 19 27  1  0
 27 28  1  0
 28 29  2  0
 28 30  1  0
 30 31  1  0
 31 32  1  0
 32 33  2  0
 33 34  1  0
 34 35  2  0
 35 36  1  0
 36 37  2  0
  8 38  1  0
 38 39  2  0
 38 40  1  0
 40 41  2  0
 41 42  1  0
 42 43  2  0
 43 44  1  0
 44 45  2  0
 45 46  1  0
 46 47  2  0
 47 48  1  0
 16 12  1  0
 26 21  1  0
 37 32  1  0
 48 40  1  0
 47 42  1  0
  1 49  1  0
  1 50  1  0
  3 51  1  0
  3 52  1  0
  5 53  1  0
  5 54  1  0
  6 55  1  0
  6 56  1  0
  7 57  1  0
  7 58  1  0
  8 59  1  6
  9 60  1  0
 12 61  1  1
 13 62  1  0
 13 63  1  0
 14 64  1  0
 14 65  1  0
 15 66  1  0
 15 67  1  0
 19 68  1  6
 20 69  1  0
 20 70  1  0
 22 71  1  0
 23 72  1  0
 24 73  1  0
 25 74  1  0
 26 75  1  0
 27 76  1  0
 31 77  1  0
 31 78  1  0
 33 79  1  0
 34 80  1  0
 35 81  1  0
 36 82  1  0
 37 83  1  0
 43 84  1  0
 44 85  1  0
 45 86  1  0
 46 87  1  0
M  END
$$$$
[H]OC(=O)C([H])([H])[C@@]([H])(C(=O)N1C([H])([H])C([H])([H])C([H])([H])[C@@]1([H])C(=O)N([H])[C@]([H])(C(=O)N([H])[C@]([H])(C(=O)O[H])C([H])([H])c1c([H])c([H])c([H])c([H])c1[H])C([H])(C([H])([H])[H])C([H])([H])[H])N([H])C(=O)[C@@]([H])(N([H])C(=O)[C@@]([H])(N([H])C(=O)c1c(O[H])c2c([H])c([H])c([H])c([H])c2n1[H])C([H])([H])c1c([H])c([H])c([H])c([H])c1[H])C([H])([H])C([H])(C([H])([H])[H])C([H])([H])[H]
     RDKit          3D

122126  0  0  0  0  0  0  0  0999 V2000
   -4.1266   -4.3763   -2.5170 C   0  0  0  0  0  0  0  0  0  0  0  0
   -4.2747   -3.2871   -1.4502 C   0  0  0  0  0  0  0  0  0  0  0  0
   -4.9783   -3.9925   -0.2843 C   0  0  0  0  0  0  0  0  0  0  0  0
   -2.8716   -2.8916   -1.0406 C   0  0  0  0  0  0  0  0  0  0  0  0
   -2.8723   -1.7683   -0.0045 C   0  0  2  0  0  0  0  0  0  0  0  0
   -3.5346   -0.6385   -0.6433 N   0  0  0  0  0  0  0  0  0  0  0  0
   -4.7171   -0.0716   -0.1141 C   0  0  0  0  0  0  0  0  0  0  0  0
   -5.1635   -0.6014    0.9355 O   0  0  0  0  0  0  0  0  0  0  0  0
   -5.4330    1.0941   -0.7449 C   0  0  2  0  0  0  0  0  0  0  0  0
   -4.9195    2.3371   -0.1056 C   0  0  0  0  0  0  0  0  0  0  0  0
   -5.4676    3.6106   -0.5973 C   0  0  0  0  0  0  0  0  0  0  0  0
   -6.5349    4.1906    0.0302 C   0  0  0  0  0  0  0  0  0  0  0  0
   -7.0580    5.3971   -0.4267 C   0  0  0  0  0  0  0  0  0  0  0  0
   -6.4937    6.0110   -1.5170 C   0  0  0  0  0  0  0  0  0  0  0  0
   -5.4148    5.4460   -2.1668 C   0  0  0  0  0  0  0  0  0  0  0  0
   -4.9267    4.2620   -1.6949 C   0  0  0  0  0  0  0  0  0  0  0  0
   -6.8393    0.9060   -0.7272 N   0  0  0  0  0  0  0  0  0  0  0  0
   -7.7265    0.8578    0.3624 C   0  0  0  0  0  0  0  0  0  0  0  0
   -7.3211    0.9964    1.5286 O   0  0  0  0  0  0  0  0  0  0  0  0
   -9.1624    0.6367    0.1523 C   0  0  0  0  0  0  0  0  0  0  0  0
   -9.7522    0.4606   -1.0383 N   0  0  0  0  0  0  0  0  0  0  0  0
  -11.0886    0.2734   -0.8727 C   0  0  0  0  0  0  0  0  0  0  0  0
  -12.0942    0.0569   -1.7649 C   0  0  0  0  0  0  0  0  0  0  0  0
  -13.4010   -0.1073   -1.3422 C   0  0  0  0  0  0  0  0  0  0  0  0
  -13.6783   -0.0471    0.0264 C   0  0  0  0  0  0  0  0  0  0  0  0
  -12.6454    0.1733    0.9258 C   0  0  0  0  0  0  0  0  0  0  0  0
  -11.3662    0.3324    0.4750 C   0  0  0  0  0  0  0  0  0  0  0  0
  -10.1505    0.5610    1.1235 C   0  0  0  0  0  0  0  0  0  0  0  0
  -10.0380    0.6772    2.4747 O   0  0  0  0  0  0  0  0  0  0  0  0
   -1.4466   -1.4495    0.2850 C   0  0  0  0  0  0  0  0  0  0  0  0
   -0.7842   -0.7215   -0.5309 O   0  0  0  0  0  0  0  0  0  0  0  0
   -0.7855   -1.9187    1.4357 N   0  0  0  0  0  0  0  0  0  0  0  0
    0.6049   -1.6209    1.7352 C   0  0  1  0  0  0  0  0  0  0  0  0
    0.6243   -1.0338    3.1213 C   0  0  0  0  0  0  0  0  0  0  0  0
   -0.1486    0.1965    3.2824 C   0  0  0  0  0  0  0  0  0  0  0  0
   -0.1206    0.7973    4.5580 O   0  0  0  0  0  0  0  0  0  0  0  0
   -0.8349    0.7905    2.4357 O   0  0  0  0  0  0  0  0  0  0  0  0
    1.3830   -2.8964    1.7837 C   0  0  0  0  0  0  0  0  0  0  0  0
    0.7008   -3.9705    1.7953 O   0  0  0  0  0  0  0  0  0  0  0  0
    2.7952   -2.9552    1.8148 N   0  0  0  0  0  0  0  0  0  0  0  0
    3.5528   -4.1722    1.9600 C   0  0  0  0  0  0  0  0  0  0  0  0
    4.8554   -3.7158    2.5773 C   0  0  0  0  0  0  0  0  0  0  0  0
    4.6717   -2.2042    2.8256 C   0  0  0  0  0  0  0  0  0  0  0  0
    3.7117   -1.8786    1.6769 C   0  0  1  0  0  0  0  0  0  0  0  0
    4.4749   -1.8339    0.3948 C   0  0  0  0  0  0  0  0  0  0  0  0
    4.6459   -2.8504   -0.2908 O   0  0  0  0  0  0  0  0  0  0  0  0
    4.9824   -0.5811    0.0179 N   0  0  0  0  0  0  0  0  0  0  0  0
    5.7570   -0.4326   -1.1971 C   0  0  1  0  0  0  0  0  0  0  0  0
    4.8261    0.3067   -2.1777 C   0  0  0  0  0  0  0  0  0  0  0  0
    3.5556   -0.4198   -2.4416 C   0  0  0  0  0  0  0  0  0  0  0  0
    5.5583    0.6656   -3.4370 C   0  0  0  0  0  0  0  0  0  0  0  0
    6.8906    0.4743   -0.8670 C   0  0  0  0  0  0  0  0  0  0  0  0
    6.7137    1.3406    0.0750 O   0  0  0  0  0  0  0  0  0  0  0  0
    8.1552    0.4971   -1.4725 N   0  0  0  0  0  0  0  0  0  0  0  0
    9.1726    1.4954   -1.0373 C   0  0  1  0  0  0  0  0  0  0  0  0
   10.0482    0.7600   -0.0636 C   0  0  0  0  0  0  0  0  0  0  0  0
   11.1280    1.5227    0.5435 C   0  0  0  0  0  0  0  0  0  0  0  0
   10.9500    2.2880    1.7011 C   0  0  0  0  0  0  0  0  0  0  0  0
   11.9676    2.9838    2.2742 C   0  0  0  0  0  0  0  0  0  0  0  0
   13.2349    2.9630    1.7288 C   0  0  0  0  0  0  0  0  0  0  0  0
   13.4266    2.2046    0.5763 C   0  0  0  0  0  0  0  0  0  0  0  0
   12.3933    1.5066    0.0068 C   0  0  0  0  0  0  0  0  0  0  0  0
    9.9000    1.8739   -2.2323 C   0  0  0  0  0  0  0  0  0  0  0  0
   10.8814    2.8542   -2.1868 O   0  0  0  0  0  0  0  0  0  0  0  0
    9.7079    1.3642   -3.3792 O   0  0  0  0  0  0  0  0  0  0  0  0
   -5.0054   -5.0622   -2.4661 H   0  0  0  0  0  0  0  0  0  0  0  0
   -4.1233   -3.9306   -3.5260 H   0  0  0  0  0  0  0  0  0  0  0  0
   -3.2189   -4.9832   -2.3551 H   0  0  0  0  0  0  0  0  0  0  0  0
   -4.8731   -2.4886   -1.8826 H   0  0  0  0  0  0  0  0  0  0  0  0
   -6.0232   -4.1498   -0.5771 H   0  0  0  0  0  0  0  0  0  0  0  0
   -4.8605   -3.4661    0.6594 H   0  0  0  0  0  0  0  0  0  0  0  0
   -4.5188   -5.0199   -0.2409 H   0  0  0  0  0  0  0  0  0  0  0  0
   -2.2639   -2.5954   -1.9095 H   0  0  0  0  0  0  0  0  0  0  0  0
   -2.4324   -3.8062   -0.5669 H   0  0  0  0  0  0  0  0  0  0  0  0
   -3.4548   -2.0377    0.8842 H   0  0  0  0  0  0  0  0  0  0  0  0
   -3.1407   -0.2413   -1.5145 H   0  0  0  0  0  0  0  0  0  0  0  0
   -5.0940    1.1220   -1.8108 H   0  0  0  0  0  0  0  0  0  0  0  0
   -5.1039    2.2751    0.9733 H   0  0  0  0  0  0  0  0  0  0  0  0
   -3.8146    2.3706   -0.2621 H   0  0  0  0  0  0  0  0  0  0  0  0
   -7.0265    3.7854    0.9000 H   0  0  0  0  0  0  0  0  0  0  0  0
   -7.8980    5.8953    0.0262 H   0  0  0  0  0  0  0  0  0  0  0  0
   -6.8730    6.9682   -1.9131 H   0  0  0  0  0  0  0  0  0  0  0  0
   -4.9509    5.9023   -3.0282 H   0  0  0  0  0  0  0  0  0  0  0  0
   -4.0924    3.8206   -2.1920 H   0  0  0  0  0  0  0  0  0  0  0  0
   -7.3068    0.7757   -1.6867 H   0  0  0  0  0  0  0  0  0  0  0  0
   -9.2566    0.4676   -1.9491 H   0  0  0  0  0  0  0  0  0  0  0  0
  -11.8565    0.0136   -2.8185 H   0  0  0  0  0  0  0  0  0  0  0  0
  -14.2103   -0.2811   -2.0569 H   0  0  0  0  0  0  0  0  0  0  0  0
  -14.6875   -0.1738    0.3562 H   0  0  0  0  0  0  0  0  0  0  0  0
  -12.9025    0.2084    1.9749 H   0  0  0  0  0  0  0  0  0  0  0  0
   -9.2145    0.8351    3.0003 H   0  0  0  0  0  0  0  0  0  0  0  0
   -1.3068   -2.5060    2.1140 H   0  0  0  0  0  0  0  0  0  0  0  0
    1.0731   -0.9611    1.0132 H   0  0  0  0  0  0  0  0  0  0  0  0
    0.2624   -1.8143    3.8670 H   0  0  0  0  0  0  0  0  0  0  0  0
    1.6613   -0.8461    3.4293 H   0  0  0  0  0  0  0  0  0  0  0  0
   -1.0149    1.0058    4.9836 H   0  0  0  0  0  0  0  0  0  0  0  0
    3.0447   -4.8034    2.7380 H   0  0  0  0  0  0  0  0  0  0  0  0
    3.6822   -4.7332    1.0080 H   0  0  0  0  0  0  0  0  0  0  0  0
    5.1545   -4.2453    3.4779 H   0  0  0  0  0  0  0  0  0  0  0  0
    5.6148   -3.8373    1.7368 H   0  0  0  0  0  0  0  0  0  0  0  0
    4.2719   -1.9789    3.8072 H   0  0  0  0  0  0  0  0  0  0  0  0
    5.6424   -1.7024    2.6613 H   0  0  0  0  0  0  0  0  0  0  0  0
    3.2586   -0.9206    1.8784 H   0  0  0  0  0  0  0  0  0  0  0  0
    4.8087    0.2588    0.5906 H   0  0  0  0  0  0  0  0  0  0  0  0
    6.1031   -1.3299   -1.6675 H   0  0  0  0  0  0  0  0  0  0  0  0
    4.5904    1.2602   -1.6525 H   0  0  0  0  0  0  0  0  0  0  0  0
    2.8581   -0.3815   -1.5536 H   0  0  0  0  0  0  0  0  0  0  0  0
    2.9704    0.1015   -3.2522 H   0  0  0  0  0  0  0  0  0  0  0  0
    3.6665   -1.4731   -2.7300 H   0  0  0  0  0  0  0  0  0  0  0  0
    4.8822    0.8109   -4.3017 H   0  0  0  0  0  0  0  0  0  0  0  0
    6.1798    1.5793   -3.3210 H   0  0  0  0  0  0  0  0  0  0  0  0
    6.2659   -0.1501   -3.7506 H   0  0  0  0  0  0  0  0  0  0  0  0
    8.4010   -0.1773   -2.2241 H   0  0  0  0  0  0  0  0  0  0  0  0
    8.5867    2.2903   -0.5285 H   0  0  0  0  0  0  0  0  0  0  0  0
   10.5281   -0.0903   -0.6349 H   0  0  0  0  0  0  0  0  0  0  0  0
    9.3922    0.2525    0.6984 H   0  0  0  0  0  0  0  0  0  0  0  0
    9.9654    2.2911    2.1104 H   0  0  0  0  0  0  0  0  0  0  0  0
   11.8262    3.5840    3.1802 H   0  0  0  0  0  0  0  0  0  0  0  0
   14.0392    3.5283    2.1980 H   0  0  0  0  0  0  0  0  0  0  0  0
   14.4261    2.2019    0.1639 H   0  0  0  0  0  0  0  0  0  0  0  0
   12.6458    0.9409   -0.8983 H   0  0  0  0  0  0  0  0  0  0  0  0
   11.6251    2.9131   -2.8757 H   0  0  0  0  0  0  0  0  0  0  0  0
  1  2  1  0
  2  3  1  0
  2  4  1  0
  4  5  1  0
  5  6  1  0
  6  7  1  0
  7  8  2  0
  7  9  1  0
  9 10  1  0
 10 11  1  0
 11 12  2  0
 12 13  1  0
 13 14  2  0
 14 15  1  0
 15 16  2  0
  9 17  1  0
 17 18  1  0
 18 19  2  0
 18 20  1  0
 20 21  1  0
 21 22  1  0
 22 23  2  0
 23 24  1  0
 24 25  2  0
 25 26  1  0
 26 27  2  0
 27 28  1  0
 28 29  1  0
  5 30  1  0
 30 31  2  0
 30 32  1  0
 32 33  1  0
 33 34  1  0
 34 35  1  0
 35 36  1  0
 35 37  2  0
 33 38  1  0
 38 39  2  0
 38 40  1  0
 40 41  1  0
 41 42  1  0
 42 43  1  0
 43 44  1  0
 44 45  1  0
 45 46  2  0
 45 47  1  0
 47 48  1  0
 48 49  1  0
 49 50  1  0
 49 51  1  0
 48 52  1  0
 52 53  2  0
 52 54  1  0
 54 55  1  0
 55 56  1  0
 56 57  1  0
 57 58  2  0
 58 59  1  0
 59 60  2  0
 60 61  1  0
 61 62  2  0
 55 63  1  0
 63 64  1  0
 63 65  2  0
 16 11  1  0
 28 20  2  0
 44 40  1  0
 62 57  1  0
 27 22  1  0
  1 66  1  0
  1 67  1  0
  1 68  1  0
  2 69  1  0
  3 70  1  0
  3 71  1  0
  3 72  1  0
  4 73  1  0
  4 74  1  0
  5 75  1  1
  6 76  1  0
  9 77  1  6
 10 78  1  0
 10 79  1  0
 12 80  1  0
 13 81  1  0
 14 82  1  0
 15 83  1  0
 16 84  1  0
 17 85  1  0
 21 86  1  0
 23 87  1  0
 24 88  1  0
 25 89  1  0
 26 90  1  0
 29 91  1  0
 32 92  1  0
 33 93  1  6
 34 94  1  0
 34 95  1  0
 36 96  1  0
 41 97  1  0
 41 98  1  0
 42 99  1  0
 42100  1  0
 43101  1  0
 43102  1  0
 44103  1  1
 47104  1  0
 48105  1  6
 49106  1  0
 50107  1  0
 50108  1  0
 50109  1  0
 51110  1  0
 51111  1  0
 51112  1  0
 54113  1  0
 55114  1  1
 56115  1  0
 56116  1  0
 58117  1  0
 59118  1  0
 60119  1  0
 61120  1  0
 62121  1  0
 64122  1  0
M  END
$$$$
[H]O[C@]12O[C@]([H])([C@@]([H])(OC([H])([H])[H])C([H])([H])[C@@]([H])(C([H])([H])[H])C([H])([H])/C(C([H])([H])[H])=C(\[H])[C@@]([H])(C([H])([H])C([H])([H])[H])C(=O)C([H])([H])[C@@]([H])(O[H])[C@@]([H])(C([H])([H])[H])[C@@]([H])(/C(=C(\[H])C([H])=C([H])[H])C([H])([H])[H])OC(=O)[C@@]3([H])N(C(=O)C1=O)C([H])([H])C([H])([H])C([H])([H])C3([H])[H])[C@@]([H])(OC([H])([H])[H])C([H])([H])[C@@]2([H])C([H])([H])[H]
     RDKit          3D

108110  0  0  0  0  0  0  0  0999 V2000
   -2.9120    5.3554    2.3817 C   0  0  0  0  0  0  0  0  0  0  0  0
   -1.9179    6.0027    1.4766 C   0  0  0  0  0  0  0  0  0  0  0  0
   -1.1016    4.9235    0.7410 C   0  0  2  0  0  0  0  0  0  0  0  0
   -0.1193    5.5285   -0.1566 C   0  0  0  0  0  0  0  0  0  0  0  0
    0.7805    5.0122   -0.9486 C   0  0  0  0  0  0  0  0  0  0  0  0
    1.6640    5.9635   -1.7634 C   0  0  0  0  0  0  0  0  0  0  0  0
    1.0767    3.5802   -1.1879 C   0  0  0  0  0  0  0  0  0  0  0  0
    1.8858    2.9181   -0.0997 C   0  0  2  0  0  0  0  0  0  0  0  0
    3.2302    3.4980    0.1370 C   0  0  0  0  0  0  0  0  0  0  0  0
    1.8079    1.4479   -0.2750 C   0  0  0  0  0  0  0  0  0  0  0  0
    3.0129    0.7684   -0.8320 C   0  0  2  0  0  0  0  0  0  0  0  0
    2.8555    0.4570   -2.1979 O   0  0  0  0  0  0  0  0  0  0  0  0
    3.7927    1.0981   -3.0024 C   0  0  0  0  0  0  0  0  0  0  0  0
    3.3511   -0.5052   -0.0905 C   0  0  1  0  0  0  0  0  0  0  0  0
    2.9899   -1.6469   -0.7653 O   0  0  0  0  0  0  0  0  0  0  0  0
    2.7614   -2.6466    0.1766 C   0  0  2  0  0  0  0  0  0  0  0  0
    1.7474   -2.1954    1.0235 O   0  0  0  0  0  0  0  0  0  0  0  0
    4.0082   -2.7614    1.0233 C   0  0  2  0  0  0  0  0  0  0  0  0
    3.7661   -2.5836    2.4999 C   0  0  0  0  0  0  0  0  0  0  0  0
    5.1759   -1.9702    0.5018 C   0  0  0  0  0  0  0  0  0  0  0  0
    4.8293   -0.5275    0.1816 C   0  0  2  0  0  0  0  0  0  0  0  0
    5.1521    0.2257    1.2802 O   0  0  0  0  0  0  0  0  0  0  0  0
    6.1859    1.1108    1.0905 C   0  0  0  0  0  0  0  0  0  0  0  0
    2.3053   -3.9128   -0.4402 C   0  0  0  0  0  0  0  0  0  0  0  0
    3.3525   -4.7109   -0.3895 O   0  0  0  0  0  0  0  0  0  0  0  0
    1.0847   -4.3678   -1.0151 C   0  0  0  0  0  0  0  0  0  0  0  0
    1.2855   -4.8098   -2.2602 O   0  0  0  0  0  0  0  0  0  0  0  0
   -0.2729   -4.5272   -0.7513 N   0  0  0  0  0  0  0  0  0  0  0  0
   -0.9404   -5.8832   -0.9229 C   0  0  0  0  0  0  0  0  0  0  0  0
   -1.3124   -6.2585    0.4808 C   0  0  0  0  0  0  0  0  0  0  0  0
   -1.9711   -5.2370    1.2955 C   0  0  0  0  0  0  0  0  0  0  0  0
   -1.4667   -3.7996    1.1279 C   0  0  0  0  0  0  0  0  0  0  0  0
   -1.2952   -3.5937   -0.3285 C   0  0  1  0  0  0  0  0  0  0  0  0
   -1.3080   -2.2782   -0.9061 C   0  0  0  0  0  0  0  0  0  0  0  0
   -0.2893   -1.9636   -1.6206 O   0  0  0  0  0  0  0  0  0  0  0  0
   -2.2273   -1.2868   -0.8323 O   0  0  0  0  0  0  0  0  0  0  0  0
   -3.1783   -0.8610    0.0270 C   0  0  1  0  0  0  0  0  0  0  0  0
   -3.4094    0.6497   -0.0970 C   0  0  2  0  0  0  0  0  0  0  0  0
   -3.8261    1.0800   -1.4564 C   0  0  0  0  0  0  0  0  0  0  0  0
   -2.1189    1.3467    0.2709 C   0  0  2  0  0  0  0  0  0  0  0  0
   -1.3552    0.4423    1.0371 O   0  0  0  0  0  0  0  0  0  0  0  0
   -2.2752    2.6248    0.9980 C   0  0  0  0  0  0  0  0  0  0  0  0
   -1.9606    3.8608    0.2327 C   0  0  0  0  0  0  0  0  0  0  0  0
   -2.4614    3.9617   -0.8704 O   0  0  0  0  0  0  0  0  0  0  0  0
   -4.5187   -1.4662   -0.0422 C   0  0  0  0  0  0  0  0  0  0  0  0
   -5.5080   -1.1121    1.0042 C   0  0  0  0  0  0  0  0  0  0  0  0
   -4.8813   -2.2972   -0.9918 C   0  0  0  0  0  0  0  0  0  0  0  0
   -6.1829   -2.9174   -1.1031 C   0  0  0  0  0  0  0  0  0  0  0  0
   -6.4716   -3.7478   -2.0927 C   0  0  0  0  0  0  0  0  0  0  0  0
   -3.7908    5.0106    1.7831 H   0  0  0  0  0  0  0  0  0  0  0  0
   -3.3191    6.1067    3.1142 H   0  0  0  0  0  0  0  0  0  0  0  0
   -2.5260    4.4705    2.9189 H   0  0  0  0  0  0  0  0  0  0  0  0
   -2.3985    6.6406    0.7113 H   0  0  0  0  0  0  0  0  0  0  0  0
   -1.1857    6.6428    2.0178 H   0  0  0  0  0  0  0  0  0  0  0  0
   -0.5168    4.4565    1.5942 H   0  0  0  0  0  0  0  0  0  0  0  0
   -0.1479    6.6506   -0.1590 H   0  0  0  0  0  0  0  0  0  0  0  0
    1.0323    6.8111   -2.1534 H   0  0  0  0  0  0  0  0  0  0  0  0
    2.4407    6.3461   -1.0643 H   0  0  0  0  0  0  0  0  0  0  0  0
    2.1072    5.4811   -2.6262 H   0  0  0  0  0  0  0  0  0  0  0  0
    0.1683    2.9453   -1.3015 H   0  0  0  0  0  0  0  0  0  0  0  0
    1.5740    3.4603   -2.1897 H   0  0  0  0  0  0  0  0  0  0  0  0
    1.2969    3.1357    0.8492 H   0  0  0  0  0  0  0  0  0  0  0  0
    3.0936    4.5625    0.4953 H   0  0  0  0  0  0  0  0  0  0  0  0
    3.9176    3.5461   -0.7002 H   0  0  0  0  0  0  0  0  0  0  0  0
    3.6564    2.9827    1.0348 H   0  0  0  0  0  0  0  0  0  0  0  0
    0.9104    1.2073   -0.9125 H   0  0  0  0  0  0  0  0  0  0  0  0
    1.5735    0.9379    0.7016 H   0  0  0  0  0  0  0  0  0  0  0  0
    3.8666    1.4579   -0.7621 H   0  0  0  0  0  0  0  0  0  0  0  0
    4.8414    0.8342   -2.7524 H   0  0  0  0  0  0  0  0  0  0  0  0
    3.5682    0.9765   -4.0769 H   0  0  0  0  0  0  0  0  0  0  0  0
    3.7084    2.1923   -2.7700 H   0  0  0  0  0  0  0  0  0  0  0  0
    2.8074   -0.4719    0.8520 H   0  0  0  0  0  0  0  0  0  0  0  0
    1.6574   -2.8570    1.7456 H   0  0  0  0  0  0  0  0  0  0  0  0
    4.3608   -3.8339    0.9507 H   0  0  0  0  0  0  0  0  0  0  0  0
    4.7883   -2.7003    2.9696 H   0  0  0  0  0  0  0  0  0  0  0  0
    3.2132   -3.4721    2.8802 H   0  0  0  0  0  0  0  0  0  0  0  0
    3.3995   -1.6220    2.8223 H   0  0  0  0  0  0  0  0  0  0  0  0
    6.0105   -2.0874    1.1888 H   0  0  0  0  0  0  0  0  0  0  0  0
    5.4815   -2.4855   -0.4541 H   0  0  0  0  0  0  0  0  0  0  0  0
    5.4525   -0.2827   -0.7176 H   0  0  0  0  0  0  0  0  0  0  0  0
    5.9533    1.8285    0.2891 H   0  0  0  0  0  0  0  0  0  0  0  0
    6.2526    1.7301    2.0313 H   0  0  0  0  0  0  0  0  0  0  0  0
    7.1841    0.6428    0.9679 H   0  0  0  0  0  0  0  0  0  0  0  0
   -1.8489   -5.7491   -1.5521 H   0  0  0  0  0  0  0  0  0  0  0  0
   -0.2620   -6.5992   -1.3638 H   0  0  0  0  0  0  0  0  0  0  0  0
   -0.4144   -6.7418    0.9624 H   0  0  0  0  0  0  0  0  0  0  0  0
   -2.0378   -7.1207    0.3757 H   0  0  0  0  0  0  0  0  0  0  0  0
   -3.0907   -5.2653    1.2000 H   0  0  0  0  0  0  0  0  0  0  0  0
   -1.7782   -5.4745    2.3806 H   0  0  0  0  0  0  0  0  0  0  0  0
   -0.5929   -3.6441    1.7636 H   0  0  0  0  0  0  0  0  0  0  0  0
   -2.2827   -3.1841    1.5985 H   0  0  0  0  0  0  0  0  0  0  0  0
   -2.3047   -4.0055   -0.7404 H   0  0  0  0  0  0  0  0  0  0  0  0
   -2.8114   -0.9640    1.0924 H   0  0  0  0  0  0  0  0  0  0  0  0
   -4.1776    0.9100    0.6535 H   0  0  0  0  0  0  0  0  0  0  0  0
   -4.4995    1.9803   -1.3520 H   0  0  0  0  0  0  0  0  0  0  0  0
   -3.0102    1.4090   -2.1071 H   0  0  0  0  0  0  0  0  0  0  0  0
   -4.4956    0.3130   -1.9428 H   0  0  0  0  0  0  0  0  0  0  0  0
   -1.5761    1.4940   -0.6779 H   0  0  0  0  0  0  0  0  0  0  0  0
   -1.6703    0.5312    1.9623 H   0  0  0  0  0  0  0  0  0  0  0  0
   -1.5484    2.6024    1.8625 H   0  0  0  0  0  0  0  0  0  0  0  0
   -3.2876    2.7084    1.4819 H   0  0  0  0  0  0  0  0  0  0  0  0
   -6.0315   -2.0206    1.3307 H   0  0  0  0  0  0  0  0  0  0  0  0
   -5.0157   -0.5738    1.8536 H   0  0  0  0  0  0  0  0  0  0  0  0
   -6.2958   -0.4270    0.6276 H   0  0  0  0  0  0  0  0  0  0  0  0
   -4.1072   -2.5177   -1.7453 H   0  0  0  0  0  0  0  0  0  0  0  0
   -6.9368   -2.6972   -0.3614 H   0  0  0  0  0  0  0  0  0  0  0  0
   -5.7376   -3.9875   -2.8515 H   0  0  0  0  0  0  0  0  0  0  0  0
   -7.4381   -4.2083   -2.1753 H   0  0  0  0  0  0  0  0  0  0  0  0
  1  2  1  0
  2  3  1  0
  3  4  1  0
  4  5  2  0
  5  6  1  0
  5  7  1  0
  7  8  1  0
  8  9  1  0
  8 10  1  0
 10 11  1  0
 11 12  1  0
 12 13  1  0
 11 14  1  0
 14 15  1  0
 15 16  1  0
 16 17  1  1
 16 18  1  0
 18 19  1  0
 18 20  1  0
 20 21  1  0
 21 22  1  0
 22 23  1  0
 16 24  1  0
 24 25  2  0
 24 26  1  0
 26 27  2  0
 26 28  1  0
 28 29  1  0
 29 30  1  0
 30 31  1  0
 31 32  1  0
 32 33  1  0
 33 34  1  0
 34 35  2  0
 34 36  1  0
 36 37  1  0
 37 38  1  0
 38 39  1  0
 38 40  1  0
 40 41  1  0
 40 42  1  0
 42 43  1  0
 43 44  2  0
 37 45  1  0
 45 46  1  0
 45 47  2  0
 47 48  1  0
 48 49  2  0
 43  3  1  0
 21 14  1  0
 33 28  1  0
  1 50  1  0
  1 51  1  0
  1 52  1  0
  2 53  1  0
  2 54  1  0
  3 55  1  1
  4 56  1  0
  6 57  1  0
  6 58  1  0
  6 59  1  0
  7 60  1  0
  7 61  1  0
  8 62  1  1
  9 63  1  0
  9 64  1  0
  9 65  1  0
 10 66  1  0
 10 67  1  0
 11 68  1  6
 13 69  1  0
 13 70  1  0
 13 71  1  0
 14 72  1  1
 17 73  1  0
 18 74  1  1
 19 75  1  0
 19 76  1  0
 19 77  1  0
 20 78  1  0
 20 79  1  0
 21 80  1  6
 23 81  1  0
 23 82  1  0
 23 83  1  0
 29 84  1  0
 29 85  1  0
 30 86  1  0
 30 87  1  0
 31 88  1  0
 31 89  1  0
 32 90  1  0
 32 91  1  0
 33 92  1  6
 37 93  1  1
 38 94  1  1
 39 95  1  0
 39 96  1  0
 39 97  1  0
 40 98  1  6
 41 99  1  0
 42100  1  0
 42101  1  0
 46102  1  0
 46103  1  0
 46104  1  0
 47105  1  0
 48106  1  0
 49107  1  0
 49108  1  0
M  END
$$$$
[H]ON([H])C(=O)C([H])([H])C([H])([H])C([H])([H])C([H])([H])C([H])([H])C([H])([H])C(=O)N([H])c1c([H])c([H])c([H])c(-c2nnn(C([H])([H])c3c([H])c([H])c([H])c([H])c3[H])c2[H])c1[H]
     RDKit          3D

 58 60  0  0  0  0  0  0  0  0999 V2000
  -11.8306   -0.4135   -0.7936 O   0  0  0  0  0  0  0  0  0  0  0  0
  -10.7990   -0.9174   -0.0993 N   0  0  0  0  0  0  0  0  0  0  0  0
   -9.4710   -0.5798   -0.5022 C   0  0  0  0  0  0  0  0  0  0  0  0
   -9.3569    0.1815   -1.4993 O   0  0  0  0  0  0  0  0  0  0  0  0
   -8.3148   -1.1222    0.2463 C   0  0  0  0  0  0  0  0  0  0  0  0
   -6.9800   -0.6033   -0.1983 C   0  0  0  0  0  0  0  0  0  0  0  0
   -6.8223    0.8760   -0.0196 C   0  0  0  0  0  0  0  0  0  0  0  0
   -5.4745    1.3526   -0.5012 C   0  0  0  0  0  0  0  0  0  0  0  0
   -4.3497    0.7186    0.2348 C   0  0  0  0  0  0  0  0  0  0  0  0
   -2.9987    1.2148   -0.2377 C   0  0  0  0  0  0  0  0  0  0  0  0
   -1.9506    0.4988    0.5835 C   0  0  0  0  0  0  0  0  0  0  0  0
   -2.4079   -0.3079    1.4296 O   0  0  0  0  0  0  0  0  0  0  0  0
   -0.6095    0.7857    0.3395 N   0  0  0  0  0  0  0  0  0  0  0  0
    0.5495    0.2725    0.9478 C   0  0  0  0  0  0  0  0  0  0  0  0
    0.4889   -0.6631    1.9361 C   0  0  0  0  0  0  0  0  0  0  0  0
    1.6804   -1.1470    2.5173 C   0  0  0  0  0  0  0  0  0  0  0  0
    2.8798   -0.6653    2.0753 C   0  0  0  0  0  0  0  0  0  0  0  0
    2.9795    0.2807    1.0782 C   0  0  0  0  0  0  0  0  0  0  0  0
    1.8111    0.7306    0.5343 C   0  0  0  0  0  0  0  0  0  0  0  0
    4.2939    0.7455    0.6619 C   0  0  0  0  0  0  0  0  0  0  0  0
    5.5315    0.3972    1.1065 C   0  0  0  0  0  0  0  0  0  0  0  0
    6.4501    1.0974    0.4171 N   0  0  0  0  0  0  0  0  0  0  0  0
    7.8936    1.0702    0.5325 C   0  0  0  0  0  0  0  0  0  0  0  0
    8.5086    0.0698   -0.3554 C   0  0  0  0  0  0  0  0  0  0  0  0
    8.8866    0.4009   -1.6299 C   0  0  0  0  0  0  0  0  0  0  0  0
    9.4709   -0.5642   -2.4602 C   0  0  0  0  0  0  0  0  0  0  0  0
    9.6772   -1.8561   -2.0191 C   0  0  0  0  0  0  0  0  0  0  0  0
    9.2963   -2.1807   -0.7419 C   0  0  0  0  0  0  0  0  0  0  0  0
    8.7118   -1.2115    0.0856 C   0  0  0  0  0  0  0  0  0  0  0  0
    5.7887    1.8498   -0.4226 N   0  0  0  0  0  0  0  0  0  0  0  0
    4.4970    1.6771   -0.3165 N   0  0  0  0  0  0  0  0  0  0  0  0
  -12.6842   -0.4052   -0.2843 H   0  0  0  0  0  0  0  0  0  0  0  0
  -10.9120   -1.5481    0.7260 H   0  0  0  0  0  0  0  0  0  0  0  0
   -8.3463   -2.2397    0.1627 H   0  0  0  0  0  0  0  0  0  0  0  0
   -8.4778   -0.8783    1.3367 H   0  0  0  0  0  0  0  0  0  0  0  0
   -6.7784   -0.9216   -1.2463 H   0  0  0  0  0  0  0  0  0  0  0  0
   -6.2113   -1.1270    0.4385 H   0  0  0  0  0  0  0  0  0  0  0  0
   -6.8271    1.0805    1.0958 H   0  0  0  0  0  0  0  0  0  0  0  0
   -7.6436    1.4644   -0.4849 H   0  0  0  0  0  0  0  0  0  0  0  0
   -5.4244    2.4724   -0.4259 H   0  0  0  0  0  0  0  0  0  0  0  0
   -5.3892    1.1018   -1.5882 H   0  0  0  0  0  0  0  0  0  0  0  0
   -4.4357    0.9256    1.3206 H   0  0  0  0  0  0  0  0  0  0  0  0
   -4.4145   -0.3920    0.1352 H   0  0  0  0  0  0  0  0  0  0  0  0
   -2.8873    2.2974   -0.1183 H   0  0  0  0  0  0  0  0  0  0  0  0
   -2.8028    0.8892   -1.2852 H   0  0  0  0  0  0  0  0  0  0  0  0
   -0.4415    1.5157   -0.4383 H   0  0  0  0  0  0  0  0  0  0  0  0
   -0.4328   -1.0810    2.3257 H   0  0  0  0  0  0  0  0  0  0  0  0
    1.6406   -1.8899    3.3025 H   0  0  0  0  0  0  0  0  0  0  0  0
    3.7903   -1.0538    2.5394 H   0  0  0  0  0  0  0  0  0  0  0  0
    1.8954    1.4790   -0.2543 H   0  0  0  0  0  0  0  0  0  0  0  0
    5.7524   -0.3115    1.8731 H   0  0  0  0  0  0  0  0  0  0  0  0
    8.2557    2.1062    0.2772 H   0  0  0  0  0  0  0  0  0  0  0  0
    8.1872    0.8286    1.5936 H   0  0  0  0  0  0  0  0  0  0  0  0
    8.7605    1.3894   -2.0531 H   0  0  0  0  0  0  0  0  0  0  0  0
    9.7808   -0.3326   -3.4742 H   0  0  0  0  0  0  0  0  0  0  0  0
   10.1293   -2.6210   -2.6474 H   0  0  0  0  0  0  0  0  0  0  0  0
    9.4488   -3.1904   -0.3739 H   0  0  0  0  0  0  0  0  0  0  0  0
    8.4379   -1.5457    1.0817 H   0  0  0  0  0  0  0  0  0  0  0  0
  1  2  1  0
  2  3  1  0
  3  4  2  0
  3  5  1  0
  5  6  1  0
  6  7  1  0
  7  8  1  0
  8  9  1  0
  9 10  1  0
 10 11  1  0
 11 12  2  0
 11 13  1  0
 13 14  1  0
 14 15  2  0
 15 16  1  0
 16 17  2  0
 17 18  1  0
 18 19  2  0
 18 20  1  0
 20 21  2  0
 21 22  1  0
 22 23  1  0
 23 24  1  0
 24 25  2  0
 25 26  1  0
 26 27  2  0
 27 28  1  0
 28 29  2  0
 22 30  1  0
 30 31  2  0
 19 14  1  0
 31 20  1  0
 29 24  1  0
  1 32  1  0
  2 33  1  0
  5 34  1  0
  5 35  1  0
  6 36  1  0
  6 37  1  0
  7 38  1  0
  7 39  1  0
  8 40  1  0
  8 41  1  0
  9 42  1  0
  9 43  1  0
 10 44  1  0
 10 45  1  0
 13 46  1  0
 15 47  1  0
 16 48  1  0
 17 49  1  0
 19 50  1  0
 21 51  1  0
 23 52  1  0
 23 53  1  0
 25 54  1  0
 26 55  1  0
 27 56  1  0
 28 57  1  0
 29 58  1  0
M  END
$$$$
[H]c1c([H])c([H])c(C([H])([H])OC(=O)[C@@]([H])(N([H])C(=O)[C@@]([H])(N([H])C(=O)[C@]2([H])OC(=O)[C@@]2([H])[C@@]([H])(C([H])([H])[H])C([H])([H])C([H])([H])[H])C([H])(C([H])([H])[H])C([H])([H])[H])C([H])(C([H])([H])[H])C([H])([H])[H])c(Cl)c1[H]
     RDKit          3D

 69 70  0  0  0  0  0  0  0  0999 V2000
   -7.3316    0.4254    1.0770 C   0  0  0  0  0  0  0  0  0  0  0  0
   -7.6372   -0.6300    0.0406 C   0  0  0  0  0  0  0  0  0  0  0  0
   -6.4299   -1.4711   -0.2989 C   0  0  2  0  0  0  0  0  0  0  0  0
   -5.9017   -2.1923    0.9089 C   0  0  0  0  0  0  0  0  0  0  0  0
   -5.3976   -0.5894   -0.9488 C   0  0  1  0  0  0  0  0  0  0  0  0
   -4.1224   -1.3209   -1.3511 C   0  0  1  0  0  0  0  0  0  0  0  0
   -4.7273   -1.7052   -2.5783 O   0  0  0  0  0  0  0  0  0  0  0  0
   -5.5892   -0.6309   -2.4469 C   0  0  0  0  0  0  0  0  0  0  0  0
   -6.2502    0.0190   -3.2994 O   0  0  0  0  0  0  0  0  0  0  0  0
   -2.9652   -0.4211   -1.5023 C   0  0  0  0  0  0  0  0  0  0  0  0
   -2.7230    0.0439   -2.6348 O   0  0  0  0  0  0  0  0  0  0  0  0
   -2.1484   -0.0906   -0.4175 N   0  0  0  0  0  0  0  0  0  0  0  0
   -0.9843    0.8033   -0.5477 C   0  0  1  0  0  0  0  0  0  0  0  0
   -0.9283    1.7218    0.6234 C   0  0  0  0  0  0  0  0  0  0  0  0
   -2.2590    2.4982    0.5941 C   0  0  0  0  0  0  0  0  0  0  0  0
    0.1454    2.7495    0.5605 C   0  0  0  0  0  0  0  0  0  0  0  0
    0.2266   -0.0336   -0.7683 C   0  0  0  0  0  0  0  0  0  0  0  0
    0.1215   -1.3160   -0.7500 O   0  0  0  0  0  0  0  0  0  0  0  0
    1.5198    0.4476   -1.0074 N   0  0  0  0  0  0  0  0  0  0  0  0
    2.6633   -0.4366   -1.2333 C   0  0  1  0  0  0  0  0  0  0  0  0
    3.6663    0.1265   -2.1907 C   0  0  0  0  0  0  0  0  0  0  0  0
    3.0610    0.3773   -3.5649 C   0  0  0  0  0  0  0  0  0  0  0  0
    4.2651    1.3962   -1.6645 C   0  0  0  0  0  0  0  0  0  0  0  0
    3.3394   -0.7879    0.0490 C   0  0  0  0  0  0  0  0  0  0  0  0
    2.9517   -0.3355    1.1466 O   0  0  0  0  0  0  0  0  0  0  0  0
    4.4179   -1.6372    0.0464 O   0  0  0  0  0  0  0  0  0  0  0  0
    5.1699   -2.1130    1.0873 C   0  0  0  0  0  0  0  0  0  0  0  0
    5.9302   -1.1938    1.9283 C   0  0  0  0  0  0  0  0  0  0  0  0
    6.0550    0.1588    1.8224 C   0  0  0  0  0  0  0  0  0  0  0  0
    6.8301    0.9254    2.6979 C   0  0  0  0  0  0  0  0  0  0  0  0
    7.5064    0.3249    3.7186 C   0  0  0  0  0  0  0  0  0  0  0  0
    7.4056   -1.0471    3.8591 C   0  0  0  0  0  0  0  0  0  0  0  0
    6.6406   -1.7854    2.9884 C   0  0  0  0  0  0  0  0  0  0  0  0
    6.5712   -3.5127    3.2421 Cl  0  0  0  0  0  0  0  0  0  0  0  0
   -6.3909    0.2184    1.6156 H   0  0  0  0  0  0  0  0  0  0  0  0
   -8.1982    0.5383    1.7652 H   0  0  0  0  0  0  0  0  0  0  0  0
   -7.1813    1.3927    0.5240 H   0  0  0  0  0  0  0  0  0  0  0  0
   -8.4383   -1.3159    0.4434 H   0  0  0  0  0  0  0  0  0  0  0  0
   -8.0634   -0.1750   -0.8787 H   0  0  0  0  0  0  0  0  0  0  0  0
   -6.7873   -2.2614   -1.0101 H   0  0  0  0  0  0  0  0  0  0  0  0
   -6.7579   -2.6636    1.4382 H   0  0  0  0  0  0  0  0  0  0  0  0
   -5.2684   -3.0640    0.5883 H   0  0  0  0  0  0  0  0  0  0  0  0
   -5.3757   -1.5481    1.6254 H   0  0  0  0  0  0  0  0  0  0  0  0
   -5.2692    0.4076   -0.5319 H   0  0  0  0  0  0  0  0  0  0  0  0
   -3.9373   -2.1351   -0.6274 H   0  0  0  0  0  0  0  0  0  0  0  0
   -2.3722   -0.4940    0.5135 H   0  0  0  0  0  0  0  0  0  0  0  0
   -1.1120    1.3832   -1.4707 H   0  0  0  0  0  0  0  0  0  0  0  0
   -0.8209    1.1954    1.5948 H   0  0  0  0  0  0  0  0  0  0  0  0
   -3.0167    1.9994    1.2435 H   0  0  0  0  0  0  0  0  0  0  0  0
   -2.0633    3.4825    1.0524 H   0  0  0  0  0  0  0  0  0  0  0  0
   -2.6165    2.6640   -0.4328 H   0  0  0  0  0  0  0  0  0  0  0  0
    0.3006    3.2485   -0.3887 H   0  0  0  0  0  0  0  0  0  0  0  0
   -0.1593    3.5656    1.2871 H   0  0  0  0  0  0  0  0  0  0  0  0
    1.0825    2.3503    1.0411 H   0  0  0  0  0  0  0  0  0  0  0  0
    1.7171    1.4538   -1.0549 H   0  0  0  0  0  0  0  0  0  0  0  0
    2.2582   -1.4469   -1.5773 H   0  0  0  0  0  0  0  0  0  0  0  0
    4.4805   -0.6061   -2.3457 H   0  0  0  0  0  0  0  0  0  0  0  0
    3.5029    1.3032   -3.9514 H   0  0  0  0  0  0  0  0  0  0  0  0
    3.2406   -0.4368   -4.2625 H   0  0  0  0  0  0  0  0  0  0  0  0
    1.9571    0.5723   -3.4683 H   0  0  0  0  0  0  0  0  0  0  0  0
    5.3596    1.3261   -1.7010 H   0  0  0  0  0  0  0  0  0  0  0  0
    3.9220    2.2938   -2.2275 H   0  0  0  0  0  0  0  0  0  0  0  0
    3.9742    1.4719   -0.5721 H   0  0  0  0  0  0  0  0  0  0  0  0
    5.9318   -2.8893    0.7294 H   0  0  0  0  0  0  0  0  0  0  0  0
    4.4790   -2.6899    1.7752 H   0  0  0  0  0  0  0  0  0  0  0  0
    5.5569    0.6746    1.0408 H   0  0  0  0  0  0  0  0  0  0  0  0
    6.9069    1.9925    2.5880 H   0  0  0  0  0  0  0  0  0  0  0  0
    8.1162    0.9255    4.4053 H   0  0  0  0  0  0  0  0  0  0  0  0
    7.9509   -1.5008    4.6775 H   0  0  0  0  0  0  0  0  0  0  0  0
  1  2  1  0
  2  3  1  0
  3  4  1  0
  3  5  1  0
  5  6  1  0
  6  7  1  0
  7  8  1  0
  8  9  2  0
  6 10  1  0
 10 11  2  0
 10 12  1  0
 12 13  1  0
 13 14  1  0
 14 15  1  0
 14 16  1  0
 13 17  1  0
 17 18  2  0
 17 19  1  0
 19 20  1  0
 20 21  1  0
 21 22  1  0
 21 23  1  0
 20 24  1  0
 24 25  2  0
 24 26  1  0
 26 27  1  0
 27 28  1  0
 28 29  2  0
 29 30  1  0
 30 31  2  0
 31 32  1  0
 32 33  2  0
 33 34  1  0
  8  5  1  0
 33 28  1  0
  1 35  1  0
  1 36  1  0
  1 37  1  0
  2 38  1  0
  2 39  1  0
  3 40  1  6
  4 41  1  0
  4 42  1  0
  4 43  1  0
  5 44  1  1
  6 45  1  1
 12 46  1  0
 13 47  1  6
 14 48  1  0
 15 49  1  0
 15 50  1  0
 15 51  1  0
 16 52  1  0
 16 53  1  0
 16 54  1  0
 19 55  1  0
 20 56  1  6
 21 57  1  0
 22 58  1  0
 22 59  1  0
 22 60  1  0
 23 61  1  0
 23 62  1  0
 23 63  1  0
 27 64  1  0
 27 65  1  0
 29 66  1  0
 30 67  1  0
 31 68  1  0
 32 69  1  0
M  END
$$$$
[H]N=C(N([H])[H])N([H])C([H])([H])C([H])([H])C([H])([H])[C@@]1([H])C(=O)N2C([H])([H])C([H])([H])C([H])([H])[C@@]2([H])C(=O)N([H])[C@@]([H])(C([H])([H])c2c([H])c([H])c([H])c([H])c2[H])C(=O)N2C([H])([H])C([H])([H])C([H])([H])[C@@]2([H])C(=O)N([H])C([H])([H])C(=O)N([H])[C@]([H])(C([H])([H])c2c([H])c([H])c([H])c([H])c2[H])C(=O)N1[H]
     RDKit          3D

 98102  0  0  0  0  0  0  0  0999 V2000
   -6.0116    4.9375   -1.2282 N   0  0  0  0  0  0  0  0  0  0  0  0
   -6.8765    3.8094   -1.2211 C   0  0  0  0  0  0  0  0  0  0  0  0
   -7.7438    3.7125   -2.1687 N   0  0  0  0  0  0  0  0  0  0  0  0
   -6.8398    2.7936   -0.2393 N   0  0  0  0  0  0  0  0  0  0  0  0
   -6.2024    1.5164   -0.4334 C   0  0  0  0  0  0  0  0  0  0  0  0
   -4.7065    1.7685   -0.5206 C   0  0  0  0  0  0  0  0  0  0  0  0
   -3.9395    0.4882   -0.7213 C   0  0  0  0  0  0  0  0  0  0  0  0
   -2.4677    0.8000   -0.8032 C   0  0  2  0  0  0  0  0  0  0  0  0
   -1.6242   -0.3331   -1.0335 N   0  0  0  0  0  0  0  0  0  0  0  0
   -1.7337   -1.6715   -0.6030 C   0  0  0  0  0  0  0  0  0  0  0  0
   -1.8030   -2.5864   -1.5133 O   0  0  0  0  0  0  0  0  0  0  0  0
   -1.7752   -2.1478    0.7912 C   0  0  1  0  0  0  0  0  0  0  0  0
   -2.2861   -3.5107    1.0092 C   0  0  0  0  0  0  0  0  0  0  0  0
   -3.6526   -3.7473    0.5959 C   0  0  0  0  0  0  0  0  0  0  0  0
   -4.0605   -4.3901   -0.5355 C   0  0  0  0  0  0  0  0  0  0  0  0
   -5.3967   -4.5596   -0.8974 C   0  0  0  0  0  0  0  0  0  0  0  0
   -6.3751   -4.0652   -0.0917 C   0  0  0  0  0  0  0  0  0  0  0  0
   -6.0166   -3.4076    1.0651 C   0  0  0  0  0  0  0  0  0  0  0  0
   -4.6924   -3.2512    1.4026 C   0  0  0  0  0  0  0  0  0  0  0  0
   -0.5448   -1.8590    1.5198 N   0  0  0  0  0  0  0  0  0  0  0  0
    0.4981   -2.6824    1.8912 C   0  0  0  0  0  0  0  0  0  0  0  0
    0.7500   -2.7994    3.1536 O   0  0  0  0  0  0  0  0  0  0  0  0
    1.4242   -3.4910    1.0638 C   0  0  0  0  0  0  0  0  0  0  0  0
    1.4899   -3.1467   -0.3123 N   0  0  0  0  0  0  0  0  0  0  0  0
    2.3801   -2.2643   -0.9692 C   0  0  0  0  0  0  0  0  0  0  0  0
    1.8222   -1.3250   -1.6414 O   0  0  0  0  0  0  0  0  0  0  0  0
    3.8342   -2.2892   -0.9831 C   0  0  2  0  0  0  0  0  0  0  0  0
    4.3667   -3.7257   -0.9213 C   0  0  0  0  0  0  0  0  0  0  0  0
    5.4835   -3.6088    0.0623 C   0  0  0  0  0  0  0  0  0  0  0  0
    5.9021   -2.1779   -0.0358 C   0  0  0  0  0  0  0  0  0  0  0  0
    4.5443   -1.5240   -0.0006 N   0  0  0  0  0  0  0  0  0  0  0  0
    4.0942   -0.4520    0.7881 C   0  0  0  0  0  0  0  0  0  0  0  0
    4.3348   -0.5726    2.0493 O   0  0  0  0  0  0  0  0  0  0  0  0
    3.3957    0.7855    0.4317 C   0  0  2  0  0  0  0  0  0  0  0  0
    4.2794    1.9617    0.8575 C   0  0  0  0  0  0  0  0  0  0  0  0
    5.5820    1.9394    0.1710 C   0  0  0  0  0  0  0  0  0  0  0  0
    6.7436    1.4160    0.7276 C   0  0  0  0  0  0  0  0  0  0  0  0
    7.9534    1.3962    0.0766 C   0  0  0  0  0  0  0  0  0  0  0  0
    8.0800    1.9081   -1.1950 C   0  0  0  0  0  0  0  0  0  0  0  0
    6.9443    2.4379   -1.7811 C   0  0  0  0  0  0  0  0  0  0  0  0
    5.7467    2.4481   -1.1150 C   0  0  0  0  0  0  0  0  0  0  0  0
    2.1249    0.8527    1.1448 N   0  0  0  0  0  0  0  0  0  0  0  0
    1.1306    1.7988    1.1092 C   0  0  0  0  0  0  0  0  0  0  0  0
    0.7692    2.2926    2.2530 O   0  0  0  0  0  0  0  0  0  0  0  0
    0.3654    2.3810   -0.0186 C   0  0  2  0  0  0  0  0  0  0  0  0
    0.9496    3.7530   -0.2647 C   0  0  0  0  0  0  0  0  0  0  0  0
   -0.1982    4.6958   -0.2276 C   0  0  0  0  0  0  0  0  0  0  0  0
   -1.0859    4.0167    0.8022 C   0  0  0  0  0  0  0  0  0  0  0  0
   -1.0436    2.6173    0.3934 N   0  0  0  0  0  0  0  0  0  0  0  0
   -2.0318    1.6193    0.3608 C   0  0  0  0  0  0  0  0  0  0  0  0
   -2.6425    1.3709    1.4622 O   0  0  0  0  0  0  0  0  0  0  0  0
   -4.9793    4.8158   -1.3699 H   0  0  0  0  0  0  0  0  0  0  0  0
   -6.3761    5.8980   -1.0949 H   0  0  0  0  0  0  0  0  0  0  0  0
   -7.8187    4.4293   -2.9197 H   0  0  0  0  0  0  0  0  0  0  0  0
   -7.3002    2.9787    0.6780 H   0  0  0  0  0  0  0  0  0  0  0  0
   -6.5640    1.1202   -1.4109 H   0  0  0  0  0  0  0  0  0  0  0  0
   -6.4743    0.8165    0.3550 H   0  0  0  0  0  0  0  0  0  0  0  0
   -4.4410    2.3731    0.3347 H   0  0  0  0  0  0  0  0  0  0  0  0
   -4.5969    2.4495   -1.4184 H   0  0  0  0  0  0  0  0  0  0  0  0
   -4.2955    0.0587   -1.6789 H   0  0  0  0  0  0  0  0  0  0  0  0
   -4.1306   -0.1400    0.1450 H   0  0  0  0  0  0  0  0  0  0  0  0
   -2.4104    1.4485   -1.7485 H   0  0  0  0  0  0  0  0  0  0  0  0
   -0.7685   -0.1304   -1.6491 H   0  0  0  0  0  0  0  0  0  0  0  0
   -2.5815   -1.4856    1.3055 H   0  0  0  0  0  0  0  0  0  0  0  0
   -1.6452   -4.3150    0.5734 H   0  0  0  0  0  0  0  0  0  0  0  0
   -2.2514   -3.6952    2.1306 H   0  0  0  0  0  0  0  0  0  0  0  0
   -3.3374   -4.8292   -1.2020 H   0  0  0  0  0  0  0  0  0  0  0  0
   -5.6744   -5.0771   -1.8067 H   0  0  0  0  0  0  0  0  0  0  0  0
   -7.4216   -4.1967   -0.3733 H   0  0  0  0  0  0  0  0  0  0  0  0
   -6.8198   -3.0121    1.7091 H   0  0  0  0  0  0  0  0  0  0  0  0
   -4.4614   -2.7300    2.3170 H   0  0  0  0  0  0  0  0  0  0  0  0
   -0.4638   -0.8242    1.8051 H   0  0  0  0  0  0  0  0  0  0  0  0
    2.4632   -3.4697    1.4600 H   0  0  0  0  0  0  0  0  0  0  0  0
    1.1051   -4.5598    1.1958 H   0  0  0  0  0  0  0  0  0  0  0  0
    0.7483   -3.6425   -0.9179 H   0  0  0  0  0  0  0  0  0  0  0  0
    4.2478   -1.9164   -1.9809 H   0  0  0  0  0  0  0  0  0  0  0  0
    3.5685   -4.4210   -0.5850 H   0  0  0  0  0  0  0  0  0  0  0  0
    4.7479   -4.0822   -1.8823 H   0  0  0  0  0  0  0  0  0  0  0  0
    5.2469   -3.9089    1.0810 H   0  0  0  0  0  0  0  0  0  0  0  0
    6.3578   -4.2401   -0.2676 H   0  0  0  0  0  0  0  0  0  0  0  0
    6.4829   -1.9300    0.8488 H   0  0  0  0  0  0  0  0  0  0  0  0
    6.3987   -1.9394   -0.9926 H   0  0  0  0  0  0  0  0  0  0  0  0
    3.1714    0.9158   -0.6387 H   0  0  0  0  0  0  0  0  0  0  0  0
    3.7677    2.9312    0.7909 H   0  0  0  0  0  0  0  0  0  0  0  0
    4.5128    1.8665    1.9654 H   0  0  0  0  0  0  0  0  0  0  0  0
    6.7168    1.0013    1.7235 H   0  0  0  0  0  0  0  0  0  0  0  0
    8.8331    0.9782    0.5486 H   0  0  0  0  0  0  0  0  0  0  0  0
    9.0219    1.9058   -1.7328 H   0  0  0  0  0  0  0  0  0  0  0  0
    6.9831    2.8587   -2.7885 H   0  0  0  0  0  0  0  0  0  0  0  0
    4.8889    2.8655   -1.5986 H   0  0  0  0  0  0  0  0  0  0  0  0
    1.9476    0.0317    1.8139 H   0  0  0  0  0  0  0  0  0  0  0  0
    0.4275    1.8248   -0.9496 H   0  0  0  0  0  0  0  0  0  0  0  0
    1.6866    4.0539    0.5221 H   0  0  0  0  0  0  0  0  0  0  0  0
    1.5029    3.7800   -1.2395 H   0  0  0  0  0  0  0  0  0  0  0  0
   -0.7033    4.8455   -1.1913 H   0  0  0  0  0  0  0  0  0  0  0  0
    0.1496    5.6636    0.1982 H   0  0  0  0  0  0  0  0  0  0  0  0
   -0.6540    4.1952    1.7988 H   0  0  0  0  0  0  0  0  0  0  0  0
   -2.0464    4.5108    0.7509 H   0  0  0  0  0  0  0  0  0  0  0  0
  1  2  1  0
  2  3  2  3
  2  4  1  0
  4  5  1  0
  5  6  1  0
  6  7  1  0
  7  8  1  0
  8  9  1  0
  9 10  1  0
 10 11  2  0
 10 12  1  0
 12 13  1  0
 13 14  1  0
 14 15  2  0
 15 16  1  0
 16 17  2  0
 17 18  1  0
 18 19  2  0
 12 20  1  0
 20 21  1  0
 21 22  2  0
 21 23  1  0
 23 24  1  0
 24 25  1  0
 25 26  2  0
 25 27  1  0
 27 28  1  0
 28 29  1  0
 29 30  1  0
 30 31  1  0
 31 32  1  0
 32 33  2  0
 32 34  1  0
 34 35  1  0
 35 36  1  0
 36 37  2  0
 37 38  1  0
 38 39  2  0
 39 40  1  0
 40 41  2  0
 34 42  1  0
 42 43  1  0
 43 44  2  0
 43 45  1  0
 45 46  1  0
 46 47  1  0
 47 48  1  0
 48 49  1  0
 49 50  1  0
 50 51  2  0
 50  8  1  0
 19 14  1  0
 31 27  1  0
 41 36  1  0
 49 45  1  0
  1 52  1  0
  1 53  1  0
  3 54  1  0
  4 55  1  0
  5 56  1  0
  5 57  1  0
  6 58  1  0
  6 59  1  0
  7 60  1  0
  7 61  1  0
  8 62  1  6
  9 63  1  0
 12 64  1  1
 13 65  1  0
 13 66  1  0
 15 67  1  0
 16 68  1  0
 17 69  1  0
 18 70  1  0
 19 71  1  0
 20 72  1  0
 23 73  1  0
 23 74  1  0
 24 75  1  0
 27 76  1  6
 28 77  1  0
 28 78  1  0
 29 79  1  0
 29 80  1  0
 30 81  1  0
 30 82  1  0
 34 83  1  6
 35 84  1  0
 35 85  1  0
 37 86  1  0
 38 87  1  0
 39 88  1  0
 40 89  1  0
 41 90  1  0
 42 91  1  0
 45 92  1  6
 46 93  1  0
 46 94  1  0
 47 95  1  0
 47 96  1  0
 48 97  1  0
 48 98  1  0
M  END
$$$$
[H]c1c([H])c(N2C([H])([H])C([H])([H])N(C([H])([H])[H])C([H])([H])C2([H])[H])c([H])c([H])c1C(=O)N([H])c1nn([H])c2c([H])c([H])c(C#N)c([H])c12
     RDKit          3D

 47 50  0  0  0  0  0  0  0  0999 V2000
    7.3943    0.0230   -1.3902 C   0  0  0  0  0  0  0  0  0  0  0  0
    6.0636    0.2676   -0.8759 N   0  0  0  0  0  0  0  0  0  0  0  0
    5.1218   -0.1193   -1.9073 C   0  0  0  0  0  0  0  0  0  0  0  0
    3.7072    0.0897   -1.5113 C   0  0  0  0  0  0  0  0  0  0  0  0
    3.4590   -0.4063   -0.1943 N   0  0  0  0  0  0  0  0  0  0  0  0
    4.5010   -0.9282    0.6299 C   0  0  0  0  0  0  0  0  0  0  0  0
    5.8938   -0.5384    0.3146 C   0  0  0  0  0  0  0  0  0  0  0  0
    2.1211   -0.3837    0.3279 C   0  0  0  0  0  0  0  0  0  0  0  0
    1.1631    0.2459   -0.4328 C   0  0  0  0  0  0  0  0  0  0  0  0
   -0.1360    0.2862    0.0346 C   0  0  0  0  0  0  0  0  0  0  0  0
   -0.4733   -0.2895    1.2357 C   0  0  0  0  0  0  0  0  0  0  0  0
    0.4985   -0.9309    2.0118 C   0  0  0  0  0  0  0  0  0  0  0  0
    1.7861   -0.9661    1.5399 C   0  0  0  0  0  0  0  0  0  0  0  0
   -1.8432   -0.2298    1.6877 C   0  0  0  0  0  0  0  0  0  0  0  0
   -2.0974   -0.4512    2.8931 O   0  0  0  0  0  0  0  0  0  0  0  0
   -2.8948    0.0695    0.8066 N   0  0  0  0  0  0  0  0  0  0  0  0
   -4.2607    0.1320    1.2575 C   0  0  0  0  0  0  0  0  0  0  0  0
   -4.7531   -0.0620    2.4854 N   0  0  0  0  0  0  0  0  0  0  0  0
   -6.0825    0.0931    2.4657 N   0  0  0  0  0  0  0  0  0  0  0  0
   -6.5031    0.3952    1.2177 C   0  0  0  0  0  0  0  0  0  0  0  0
   -7.7387    0.6491    0.6613 C   0  0  0  0  0  0  0  0  0  0  0  0
   -7.7923    0.9295   -0.6860 C   0  0  0  0  0  0  0  0  0  0  0  0
   -6.6574    0.9619   -1.4805 C   0  0  0  0  0  0  0  0  0  0  0  0
   -5.4385    0.7038   -0.8945 C   0  0  0  0  0  0  0  0  0  0  0  0
   -5.3325    0.4185    0.4495 C   0  0  0  0  0  0  0  0  0  0  0  0
   -6.7568    1.2598   -2.8971 C   0  0  0  0  0  0  0  0  0  0  0  0
   -6.8243    1.5171   -4.0123 N   0  0  0  0  0  0  0  0  0  0  0  0
    8.0305   -0.4519   -0.6053 H   0  0  0  0  0  0  0  0  0  0  0  0
    7.3280   -0.7215   -2.2060 H   0  0  0  0  0  0  0  0  0  0  0  0
    7.8327    0.9733   -1.7545 H   0  0  0  0  0  0  0  0  0  0  0  0
    5.2468   -1.1837   -2.2010 H   0  0  0  0  0  0  0  0  0  0  0  0
    5.3432    0.4802   -2.8085 H   0  0  0  0  0  0  0  0  0  0  0  0
    3.4687    1.1854   -1.5985 H   0  0  0  0  0  0  0  0  0  0  0  0
    3.0726   -0.4576   -2.2502 H   0  0  0  0  0  0  0  0  0  0  0  0
    4.2555   -0.5680    1.6777 H   0  0  0  0  0  0  0  0  0  0  0  0
    4.4756   -2.0623    0.6312 H   0  0  0  0  0  0  0  0  0  0  0  0
    6.3171    0.0506    1.1541 H   0  0  0  0  0  0  0  0  0  0  0  0
    6.5832   -1.4171    0.2208 H   0  0  0  0  0  0  0  0  0  0  0  0
    1.4159    0.7032   -1.3807 H   0  0  0  0  0  0  0  0  0  0  0  0
   -0.8506    0.8038   -0.6099 H   0  0  0  0  0  0  0  0  0  0  0  0
    0.1827   -1.3657    2.9443 H   0  0  0  0  0  0  0  0  0  0  0  0
    2.5222   -1.4566    2.1290 H   0  0  0  0  0  0  0  0  0  0  0  0
   -2.6906    0.2565   -0.2117 H   0  0  0  0  0  0  0  0  0  0  0  0
   -6.7590    0.0095    3.2564 H   0  0  0  0  0  0  0  0  0  0  0  0
   -8.6375    0.6301    1.2627 H   0  0  0  0  0  0  0  0  0  0  0  0
   -8.7479    1.1387   -1.1816 H   0  0  0  0  0  0  0  0  0  0  0  0
   -4.5140    0.7163   -1.4791 H   0  0  0  0  0  0  0  0  0  0  0  0
  1  2  1  0
  2  3  1  0
  3  4  1  0
  4  5  1  0
  5  6  1  0
  6  7  1  0
  5  8  1  0
  8  9  2  0
  9 10  1  0
 10 11  2  0
 11 12  1  0
 12 13  2  0
 11 14  1  0
 14 15  2  0
 14 16  1  0
 16 17  1  0
 17 18  2  0
 18 19  1  0
 19 20  1  0
 20 21  2  0
 21 22  1  0
 22 23  2  0
 23 24  1  0
 24 25  2  0
 23 26  1  0
 26 27  3  0
  7  2  1  0
 13  8  1  0
 25 17  1  0
 25 20  1  0
  1 28  1  0
  1 29  1  0
  1 30  1  0
  3 31  1  0
  3 32  1  0
  4 33  1  0
  4 34  1  0
  6 35  1  0
  6 36  1  0
  7 37  1  0
  7 38  1  0
  9 39  1  0
 10 40  1  0
 12 41  1  0
 13 42  1  0
 16 43  1  0
 19 44  1  0
 21 45  1  0
 22 46  1  0
 24 47  1  0
M  END
$$$$
[H]c1c([H])c([H])c(N2C([H])([H])N([H])C(=O)C23C([H])([H])C([H])([H])N(C(=O)c2c([H])c([H])c(C(C([H])([H])[H])(C([H])([H])[H])C([H])([H])[H])c([H])c2[H])C([H])([H])C3([H])[H])c(F)c1[H]
     RDKit          3D

 58 61  0  0  0  0  0  0  0  0999 V2000
    7.0857    0.2548    0.9637 C   0  0  0  0  0  0  0  0  0  0  0  0
    6.2609   -0.0142   -0.2899 C   0  0  0  0  0  0  0  0  0  0  0  0
    6.6000    1.0467   -1.2751 C   0  0  0  0  0  0  0  0  0  0  0  0
    6.7489   -1.3500   -0.8472 C   0  0  0  0  0  0  0  0  0  0  0  0
    4.8484   -0.1812    0.0387 C   0  0  0  0  0  0  0  0  0  0  0  0
    3.8457    0.3480   -0.7036 C   0  0  0  0  0  0  0  0  0  0  0  0
    2.4748    0.1823   -0.3954 C   0  0  0  0  0  0  0  0  0  0  0  0
    2.1260   -0.5456    0.7013 C   0  0  0  0  0  0  0  0  0  0  0  0
    3.1314   -1.0937    1.4739 C   0  0  0  0  0  0  0  0  0  0  0  0
    4.4424   -0.9197    1.1563 C   0  0  0  0  0  0  0  0  0  0  0  0
    0.7614   -0.7717    1.0770 C   0  0  0  0  0  0  0  0  0  0  0  0
    0.6371   -1.4831    2.1748 O   0  0  0  0  0  0  0  0  0  0  0  0
   -0.4383   -0.3957    0.5202 N   0  0  0  0  0  0  0  0  0  0  0  0
   -1.6717   -0.8499    1.2462 C   0  0  0  0  0  0  0  0  0  0  0  0
   -2.4096    0.4520    1.5144 C   0  0  0  0  0  0  0  0  0  0  0  0
   -3.0129    0.9768    0.2221 C   0  0  0  0  0  0  0  0  0  0  0  0
   -2.2325    0.4529   -0.9255 C   0  0  0  0  0  0  0  0  0  0  0  0
   -0.7228    0.3643   -0.6474 C   0  0  0  0  0  0  0  0  0  0  0  0
   -4.4305    0.7106    0.1660 N   0  0  0  0  0  0  0  0  0  0  0  0
   -5.0190    1.5755    1.1914 C   0  0  0  0  0  0  0  0  0  0  0  0
   -4.1222    2.7137    1.2230 N   0  0  0  0  0  0  0  0  0  0  0  0
   -3.0137    2.4614    0.3309 C   0  0  0  0  0  0  0  0  0  0  0  0
   -2.2725    3.3196   -0.1921 O   0  0  0  0  0  0  0  0  0  0  0  0
   -5.2170   -0.1345   -0.6418 C   0  0  0  0  0  0  0  0  0  0  0  0
   -5.7347   -1.3010   -0.0845 C   0  0  0  0  0  0  0  0  0  0  0  0
   -6.4895   -2.1804   -0.8335 C   0  0  0  0  0  0  0  0  0  0  0  0
   -6.7557   -1.9315   -2.1621 C   0  0  0  0  0  0  0  0  0  0  0  0
   -6.2495   -0.7818   -2.7239 C   0  0  0  0  0  0  0  0  0  0  0  0
   -5.4928    0.0974   -1.9662 C   0  0  0  0  0  0  0  0  0  0  0  0
   -5.0417    1.2070   -2.5723 F   0  0  0  0  0  0  0  0  0  0  0  0
    7.9854    0.8099    0.6628 H   0  0  0  0  0  0  0  0  0  0  0  0
    6.5391    0.8787    1.6939 H   0  0  0  0  0  0  0  0  0  0  0  0
    7.4223   -0.7047    1.3775 H   0  0  0  0  0  0  0  0  0  0  0  0
    5.8971    1.2093   -2.0922 H   0  0  0  0  0  0  0  0  0  0  0  0
    6.7665    2.0571   -0.7899 H   0  0  0  0  0  0  0  0  0  0  0  0
    7.6146    0.8263   -1.7373 H   0  0  0  0  0  0  0  0  0  0  0  0
    6.6582   -1.3376   -1.9568 H   0  0  0  0  0  0  0  0  0  0  0  0
    6.1337   -2.1671   -0.3943 H   0  0  0  0  0  0  0  0  0  0  0  0
    7.7885   -1.5803   -0.5421 H   0  0  0  0  0  0  0  0  0  0  0  0
    4.0227    0.9377   -1.5901 H   0  0  0  0  0  0  0  0  0  0  0  0
    1.7717    0.6590   -1.0644 H   0  0  0  0  0  0  0  0  0  0  0  0
    2.9205   -1.6949    2.3815 H   0  0  0  0  0  0  0  0  0  0  0  0
    5.2286   -1.3521    1.7601 H   0  0  0  0  0  0  0  0  0  0  0  0
   -2.2484   -1.5135    0.6094 H   0  0  0  0  0  0  0  0  0  0  0  0
   -1.3730   -1.2489    2.2266 H   0  0  0  0  0  0  0  0  0  0  0  0
   -3.1210    0.3253    2.3273 H   0  0  0  0  0  0  0  0  0  0  0  0
   -1.6465    1.1893    1.8320 H   0  0  0  0  0  0  0  0  0  0  0  0
   -2.5376   -0.5449   -1.2640 H   0  0  0  0  0  0  0  0  0  0  0  0
   -2.2732    1.1286   -1.8364 H   0  0  0  0  0  0  0  0  0  0  0  0
   -0.3313    1.3887   -0.5393 H   0  0  0  0  0  0  0  0  0  0  0  0
   -0.2975   -0.1356   -1.5357 H   0  0  0  0  0  0  0  0  0  0  0  0
   -5.0181    0.9862    2.1331 H   0  0  0  0  0  0  0  0  0  0  0  0
   -6.0522    1.8814    0.9119 H   0  0  0  0  0  0  0  0  0  0  0  0
   -4.2717    3.5763    1.8118 H   0  0  0  0  0  0  0  0  0  0  0  0
   -5.5274   -1.5061    0.9699 H   0  0  0  0  0  0  0  0  0  0  0  0
   -6.8763   -3.0835   -0.3683 H   0  0  0  0  0  0  0  0  0  0  0  0
   -7.3599   -2.6333   -2.7631 H   0  0  0  0  0  0  0  0  0  0  0  0
   -6.4509   -0.5806   -3.7505 H   0  0  0  0  0  0  0  0  0  0  0  0
  1  2  1  0
  2  3  1  0
  2  4  1  0
  2  5  1  0
  5  6  2  0
  6  7  1  0
  7  8  2  0
  8  9  1  0
  9 10  2  0
  8 11  1  0
 11 12  2  0
 11 13  1  0
 13 14  1  0
 14 15  1  0
 15 16  1  0
 16 17  1  0
 17 18  1  0
 16 19  1  0
 19 20  1  0
 20 21  1  0
 21 22  1  0
 22 23  2  0
 19 24  1  0
 24 25  2  0
 25 26  1  0
 26 27  2  0
 27 28  1  0
 28 29  2  0
 29 30  1  0
 10  5  1  0
 18 13  1  0
 29 24  1  0
 22 16  1  0
  1 31  1  0
  1 32  1  0
  1 33  1  0
  3 34  1  0
  3 35  1  0
  3 36  1  0
  4 37  1  0
  4 38  1  0
  4 39  1  0
  6 40  1  0
  7 41  1  0
  9 42  1  0
 10 43  1  0
 14 44  1  0
 14 45  1  0
 15 46  1  0
 15 47  1  0
 17 48  1  0
 17 49  1  0
 18 50  1  0
 18 51  1  0
 20 52  1  0
 20 53  1  0
 21 54  1  0
 25 55  1  0
 26 56  1  0
 27 57  1  0
 28 58  1  0
M  END
$$$$
[H]O[C@@]1([H])C([H])([H])C([H])([H])[C@]2([H])[C@]1(C([H])([H])[H])C([H])([H])C([H])([H])[C@]1([H])[C@@]3(C([H])([H])[H])C(=C([H])C(=O)C([H])([H])C3([H])[H])C([H])([H])C([H])([H])[C@]12[H]
     RDKit          3D

 49 52  0  0  0  0  0  0  0  0999 V2000
    2.4635    1.3696    0.9946 C   0  0  0  0  0  0  0  0  0  0  0  0
    2.3057    0.6199   -0.2813 C   0  0  2  0  0  0  0  0  0  0  0  0
    1.5501    1.3576   -1.3464 C   0  0  0  0  0  0  0  0  0  0  0  0
    0.1081    1.4425   -0.8922 C   0  0  0  0  0  0  0  0  0  0  0  0
   -0.4952    0.0819   -0.7343 C   0  0  1  0  0  0  0  0  0  0  0  0
    0.2476   -0.6537    0.3796 C   0  0  1  0  0  0  0  0  0  0  0  0
   -0.2601   -2.0916    0.5023 C   0  0  0  0  0  0  0  0  0  0  0  0
   -1.7290   -2.2018    0.6696 C   0  0  0  0  0  0  0  0  0  0  0  0
   -2.4830   -0.9898    0.2943 C   0  0  0  0  0  0  0  0  0  0  0  0
   -3.7444   -0.8997    0.7416 C   0  0  0  0  0  0  0  0  0  0  0  0
   -4.5744    0.2523    0.4302 C   0  0  0  0  0  0  0  0  0  0  0  0
   -5.8127    0.1508    0.4519 O   0  0  0  0  0  0  0  0  0  0  0  0
   -3.9319    1.5256    0.0930 C   0  0  0  0  0  0  0  0  0  0  0  0
   -2.4200    1.4162    0.0814 C   0  0  0  0  0  0  0  0  0  0  0  0
   -1.9735    0.1074   -0.5200 C   0  0  1  0  0  0  0  0  0  0  0  0
   -2.6157   -0.0255   -1.9077 C   0  0  0  0  0  0  0  0  0  0  0  0
    1.6571   -0.7469   -0.0869 C   0  0  2  0  0  0  0  0  0  0  0  0
    2.6178   -1.3943    0.8227 C   0  0  0  0  0  0  0  0  0  0  0  0
    3.9727   -0.9314    0.2908 C   0  0  0  0  0  0  0  0  0  0  0  0
    3.6732    0.1505   -0.7313 C   0  0  2  0  0  0  0  0  0  0  0  0
    4.6121    1.1524   -0.7496 O   0  0  0  0  0  0  0  0  0  0  0  0
    3.5227    1.3184    1.3845 H   0  0  0  0  0  0  0  0  0  0  0  0
    1.8292    1.0301    1.8208 H   0  0  0  0  0  0  0  0  0  0  0  0
    2.2954    2.4710    0.8216 H   0  0  0  0  0  0  0  0  0  0  0  0
    1.9518    2.4060   -1.3607 H   0  0  0  0  0  0  0  0  0  0  0  0
    1.6732    0.8373   -2.2948 H   0  0  0  0  0  0  0  0  0  0  0  0
   -0.4368    2.0389   -1.6536 H   0  0  0  0  0  0  0  0  0  0  0  0
    0.1216    1.9983    0.0779 H   0  0  0  0  0  0  0  0  0  0  0  0
   -0.2601   -0.4913   -1.6632 H   0  0  0  0  0  0  0  0  0  0  0  0
    0.1361   -0.1279    1.3480 H   0  0  0  0  0  0  0  0  0  0  0  0
    0.0977   -2.6149   -0.4143 H   0  0  0  0  0  0  0  0  0  0  0  0
    0.2444   -2.5220    1.3813 H   0  0  0  0  0  0  0  0  0  0  0  0
   -2.0894   -3.0185   -0.0229 H   0  0  0  0  0  0  0  0  0  0  0  0
   -1.9923   -2.5654    1.6944 H   0  0  0  0  0  0  0  0  0  0  0  0
   -4.1588   -1.6849    1.3394 H   0  0  0  0  0  0  0  0  0  0  0  0
   -4.1871    2.2466    0.9240 H   0  0  0  0  0  0  0  0  0  0  0  0
   -4.3348    2.0016   -0.8219 H   0  0  0  0  0  0  0  0  0  0  0  0
   -2.0846    1.4774    1.1403 H   0  0  0  0  0  0  0  0  0  0  0  0
   -2.0379    2.3064   -0.4288 H   0  0  0  0  0  0  0  0  0  0  0  0
   -1.9040    0.3240   -2.6836 H   0  0  0  0  0  0  0  0  0  0  0  0
   -2.8129   -1.1041   -2.1378 H   0  0  0  0  0  0  0  0  0  0  0  0
   -3.5253    0.5595   -2.0119 H   0  0  0  0  0  0  0  0  0  0  0  0
    1.6740   -1.2531   -1.0647 H   0  0  0  0  0  0  0  0  0  0  0  0
    2.5491   -2.4993    0.8658 H   0  0  0  0  0  0  0  0  0  0  0  0
    2.5279   -1.0486    1.8830 H   0  0  0  0  0  0  0  0  0  0  0  0
    4.4352   -1.8169   -0.2121 H   0  0  0  0  0  0  0  0  0  0  0  0
    4.6461   -0.5983    1.0884 H   0  0  0  0  0  0  0  0  0  0  0  0
    3.5803   -0.3701   -1.7203 H   0  0  0  0  0  0  0  0  0  0  0  0
    5.3713    1.0080   -0.1232 H   0  0  0  0  0  0  0  0  0  0  0  0
  2  1  1  1
  2  3  1  0
  3  4  1  0
  4  5  1  0
  5  6  1  0
  6  7  1  0
  7  8  1  0
  8  9  1  0
  9 10  2  0
 10 11  1  0
 11 12  2  0
 11 13  1  0
 13 14  1  0
 14 15  1  0
 15 16  1  6
  6 17  1  0
 17 18  1  0
 18 19  1  0
 19 20  1  0
 20 21  1  0
 17  2  1  0
 20  2  1  0
 15  5  1  0
 15  9  1  0
  1 22  1  0
  1 23  1  0
  1 24  1  0
  3 25  1  0
  3 26  1  0
  4 27  1  0
  4 28  1  0
  5 29  1  6
  6 30  1  1
  7 31  1  0
  7 32  1  0
  8 33  1  0
  8 34  1  0
 10 35  1  0
 13 36  1  0
 13 37  1  0
 14 38  1  0
 14 39  1  0
 16 40  1  0
 16 41  1  0
 16 42  1  0
 17 43  1  6
 18 44  1  0
 18 45  1  0
 19 46  1  0
 19 47  1  0
 20 48  1  6
 21 49  1  0
M  END
$$$$
[H]c1nc(N([H])c2c([H])c([H])c(Cl)c(OC([H])([H])[H])c2[H])nc(N([H])c2nc3c(c([H])c2[H])OC(C([H])([H])[H])(C([H])([H])[H])C(=O)N3[H])c1F
     RDKit          3D

 49 52  0  0  0  0  0  0  0  0999 V2000
   -7.0331   -0.4905    0.7029 C   0  0  0  0  0  0  0  0  0  0  0  0
   -6.7908   -1.6641   -0.0183 O   0  0  0  0  0  0  0  0  0  0  0  0
   -5.5112   -2.0041   -0.3854 C   0  0  0  0  0  0  0  0  0  0  0  0
   -4.4335   -1.1651   -0.0333 C   0  0  0  0  0  0  0  0  0  0  0  0
   -3.1570   -1.4649   -0.3758 C   0  0  0  0  0  0  0  0  0  0  0  0
   -2.0320   -0.7018   -0.0505 N   0  0  0  0  0  0  0  0  0  0  0  0
   -1.9023    0.3326    0.8874 C   0  0  0  0  0  0  0  0  0  0  0  0
   -2.8853    0.7768    1.6745 N   0  0  0  0  0  0  0  0  0  0  0  0
   -2.7612    1.7669    2.5722 C   0  0  0  0  0  0  0  0  0  0  0  0
   -1.5526    2.4082    2.7363 C   0  0  0  0  0  0  0  0  0  0  0  0
   -1.4159    3.4030    3.6340 F   0  0  0  0  0  0  0  0  0  0  0  0
   -0.5022    1.9684    1.9284 C   0  0  0  0  0  0  0  0  0  0  0  0
    0.7437    2.6167    2.0854 N   0  0  0  0  0  0  0  0  0  0  0  0
    1.8582    2.2343    1.3087 C   0  0  0  0  0  0  0  0  0  0  0  0
    3.0866    2.8901    1.4797 C   0  0  0  0  0  0  0  0  0  0  0  0
    4.1148    2.4484    0.6786 C   0  0  0  0  0  0  0  0  0  0  0  0
    3.9966    1.4333   -0.2452 C   0  0  0  0  0  0  0  0  0  0  0  0
    5.0372    1.0050   -1.0382 O   0  0  0  0  0  0  0  0  0  0  0  0
    5.0495   -0.2180   -1.7516 C   0  0  0  0  0  0  0  0  0  0  0  0
    5.8042    0.0643   -3.0562 C   0  0  0  0  0  0  0  0  0  0  0  0
    5.7802   -1.2408   -0.9407 C   0  0  0  0  0  0  0  0  0  0  0  0
    3.6700   -0.6227   -2.0845 C   0  0  0  0  0  0  0  0  0  0  0  0
    3.4155   -1.3477   -3.1003 O   0  0  0  0  0  0  0  0  0  0  0  0
    2.5517   -0.2301   -1.2967 N   0  0  0  0  0  0  0  0  0  0  0  0
    2.7561    0.8252   -0.3662 C   0  0  0  0  0  0  0  0  0  0  0  0
    1.7370    1.2406    0.4064 N   0  0  0  0  0  0  0  0  0  0  0  0
   -0.7088    0.9781    1.0610 N   0  0  0  0  0  0  0  0  0  0  0  0
   -2.9486   -2.6482   -1.0988 C   0  0  0  0  0  0  0  0  0  0  0  0
   -4.0050   -3.4610   -1.4386 C   0  0  0  0  0  0  0  0  0  0  0  0
   -5.3013   -3.1607   -1.0925 C   0  0  0  0  0  0  0  0  0  0  0  0
   -6.6365   -4.1971   -1.5266 Cl  0  0  0  0  0  0  0  0  0  0  0  0
   -6.6419   -0.6209    1.7297 H   0  0  0  0  0  0  0  0  0  0  0  0
   -6.5799    0.3898    0.2073 H   0  0  0  0  0  0  0  0  0  0  0  0
   -8.1254   -0.2772    0.7693 H   0  0  0  0  0  0  0  0  0  0  0  0
   -4.6719   -0.2789    0.5041 H   0  0  0  0  0  0  0  0  0  0  0  0
   -1.1009   -0.9071   -0.5833 H   0  0  0  0  0  0  0  0  0  0  0  0
   -3.6073    2.0808    3.1846 H   0  0  0  0  0  0  0  0  0  0  0  0
    0.8615    3.3833    2.7723 H   0  0  0  0  0  0  0  0  0  0  0  0
    3.1626    3.6739    2.1986 H   0  0  0  0  0  0  0  0  0  0  0  0
    5.0787    2.9255    0.7769 H   0  0  0  0  0  0  0  0  0  0  0  0
    6.8317    0.4077   -2.8345 H   0  0  0  0  0  0  0  0  0  0  0  0
    5.8560   -0.8949   -3.6497 H   0  0  0  0  0  0  0  0  0  0  0  0
    5.2566    0.7973   -3.6772 H   0  0  0  0  0  0  0  0  0  0  0  0
    5.1094   -1.6061   -0.1348 H   0  0  0  0  0  0  0  0  0  0  0  0
    6.0479   -2.0979   -1.6005 H   0  0  0  0  0  0  0  0  0  0  0  0
    6.6959   -0.7826   -0.5083 H   0  0  0  0  0  0  0  0  0  0  0  0
    1.6156   -0.6636   -1.3639 H   0  0  0  0  0  0  0  0  0  0  0  0
   -1.9571   -2.9168   -1.3859 H   0  0  0  0  0  0  0  0  0  0  0  0
   -3.8554   -4.3874   -2.0028 H   0  0  0  0  0  0  0  0  0  0  0  0
  1  2  1  0
  2  3  1  0
  3  4  2  0
  4  5  1  0
  5  6  1  0
  6  7  1  0
  7  8  2  0
  8  9  1  0
  9 10  2  0
 10 11  1  0
 10 12  1  0
 12 13  1  0
 13 14  1  0
 14 15  2  0
 15 16  1  0
 16 17  2  0
 17 18  1  0
 18 19  1  0
 19 20  1  0
 19 21  1  0
 19 22  1  0
 22 23  2  0
 22 24  1  0
 24 25  1  0
 25 26  2  0
 12 27  2  0
  5 28  2  0
 28 29  1  0
 29 30  2  0
 30 31  1  0
 30  3  1  0
 27  7  1  0
 26 14  1  0
 25 17  1  0
  1 32  1  0
  1 33  1  0
  1 34  1  0
  4 35  1  0
  6 36  1  0
  9 37  1  0
 13 38  1  0
 15 39  1  0
 16 40  1  0
 20 41  1  0
 20 42  1  0
 20 43  1  0
 21 44  1  0
 21 45  1  0
 21 46  1  0
 24 47  1  0
 28 48  1  0
 29 49  1  0
M  END
$$$$
[H]OC([H])([H])[C@]1([H])[C@]([H])(O[H])[C@]([H])(O[H])[C@@]([H])(O[H])[C@]([H])(O[H])[C@@]1([H])O[H]
     RDKit          3D

 27 27  0  0  0  0  0  0  0  0999 V2000
   -2.4530    0.0390    1.0739 O   0  0  0  0  0  0  0  0  0  0  0  0
   -2.3617    0.4472   -0.2336 C   0  0  0  0  0  0  0  0  0  0  0  0
   -0.9197    0.4629   -0.7414 C   0  0  1  0  0  0  0  0  0  0  0  0
   -0.1236    1.3923    0.0867 C   0  0  2  0  0  0  0  0  0  0  0  0
    0.5599    2.3384   -0.6827 O   0  0  0  0  0  0  0  0  0  0  0  0
    0.8918    0.7276    0.9791 C   0  0  1  0  0  0  0  0  0  0  0  0
    0.3233    0.1818    2.1068 O   0  0  0  0  0  0  0  0  0  0  0  0
    1.7441   -0.2030    0.1914 C   0  0  2  0  0  0  0  0  0  0  0  0
    2.6478    0.5906   -0.5535 O   0  0  0  0  0  0  0  0  0  0  0  0
    1.0364   -1.1242   -0.7134 C   0  0  1  0  0  0  0  0  0  0  0  0
    1.2305   -2.4478   -0.2516 O   0  0  0  0  0  0  0  0  0  0  0  0
   -0.4367   -0.9252   -0.8376 C   0  0  1  0  0  0  0  0  0  0  0  0
   -1.1415   -1.7490    0.0698 O   0  0  0  0  0  0  0  0  0  0  0  0
   -2.9144    0.7204    1.6569 H   0  0  0  0  0  0  0  0  0  0  0  0
   -2.9174   -0.2942   -0.8605 H   0  0  0  0  0  0  0  0  0  0  0  0
   -2.8261    1.4407   -0.3341 H   0  0  0  0  0  0  0  0  0  0  0  0
   -0.9905    0.9019   -1.7798 H   0  0  0  0  0  0  0  0  0  0  0  0
   -0.7899    1.9919    0.7689 H   0  0  0  0  0  0  0  0  0  0  0  0
    0.8757    3.0913   -0.1511 H   0  0  0  0  0  0  0  0  0  0  0  0
    1.5657    1.5606    1.3412 H   0  0  0  0  0  0  0  0  0  0  0  0
    0.4881   -0.7584    2.2553 H   0  0  0  0  0  0  0  0  0  0  0  0
    2.4008   -0.7575    0.9203 H   0  0  0  0  0  0  0  0  0  0  0  0
    3.0268    0.0209   -1.2838 H   0  0  0  0  0  0  0  0  0  0  0  0
    1.5176   -1.1189   -1.7345 H   0  0  0  0  0  0  0  0  0  0  0  0
    1.1631   -2.5180    0.7123 H   0  0  0  0  0  0  0  0  0  0  0  0
   -0.7310   -1.3367   -1.8496 H   0  0  0  0  0  0  0  0  0  0  0  0
   -0.8661   -2.6747   -0.1554 H   0  0  0  0  0  0  0  0  0  0  0  0
  1  2  1  0
  2  3  1  0
  3  4  1  0
  4  5  1  0
  4  6  1  0
  6  7  1  0
  6  8  1  0
  8  9  1  0
  8 10  1  0
 10 11  1  0
 10 12  1  0
 12 13  1  0
 12  3  1  0
  1 14  1  0
  2 15  1  0
  2 16  1  0
  3 17  1  6
  4 18  1  1
  5 19  1  0
  6 20  1  1
  7 21  1  0
  8 22  1  1
  9 23  1  0
 10 24  1  6
 11 25  1  0
 12 26  1  6
 13 27  1  0
M  END
$$$$
[H]/C(=C1/C(=O)N([H])c2c([H])c([H])c(F)c([H])c21)c1c([H])c([H])c(N2C([H])([H])C([H])([H])N(C([H])([H])[H])C([H])([H])C2([H])[H])c([H])c1[H]
     RDKit          3D

 45 48  0  0  0  0  0  0  0  0999 V2000
    6.8526   -0.6605   -0.6359 C   0  0  0  0  0  0  0  0  0  0  0  0
    5.8280   -0.1454    0.2858 N   0  0  0  0  0  0  0  0  0  0  0  0
    4.9369   -1.2058    0.5978 C   0  0  0  0  0  0  0  0  0  0  0  0
    3.6035   -0.7971    1.1210 C   0  0  0  0  0  0  0  0  0  0  0  0
    2.9814    0.1383    0.2406 N   0  0  0  0  0  0  0  0  0  0  0  0
    3.8063    0.9224   -0.6275 C   0  0  0  0  0  0  0  0  0  0  0  0
    5.2397    1.0419   -0.2259 C   0  0  0  0  0  0  0  0  0  0  0  0
    1.5893    0.3002    0.2223 C   0  0  0  0  0  0  0  0  0  0  0  0
    0.9882    1.1047   -0.7143 C   0  0  0  0  0  0  0  0  0  0  0  0
   -0.3783    1.2728   -0.7353 C   0  0  0  0  0  0  0  0  0  0  0  0
   -1.1926    0.6213    0.2061 C   0  0  0  0  0  0  0  0  0  0  0  0
   -2.6066    0.8952    0.1687 C   0  0  0  0  0  0  0  0  0  0  0  0
   -3.5159   -0.0197   -0.0133 C   0  0  0  0  0  0  0  0  0  0  0  0
   -3.3174   -1.4329   -0.2150 C   0  0  0  0  0  0  0  0  0  0  0  0
   -2.2444   -2.1115   -0.2895 O   0  0  0  0  0  0  0  0  0  0  0  0
   -4.6298   -2.0151   -0.3339 N   0  0  0  0  0  0  0  0  0  0  0  0
   -5.5988   -0.9883   -0.2099 C   0  0  0  0  0  0  0  0  0  0  0  0
   -6.9977   -1.0071   -0.2497 C   0  0  0  0  0  0  0  0  0  0  0  0
   -7.7285    0.1491   -0.1007 C   0  0  0  0  0  0  0  0  0  0  0  0
   -7.1106    1.3648    0.0928 C   0  0  0  0  0  0  0  0  0  0  0  0
   -7.8500    2.4836    0.2361 F   0  0  0  0  0  0  0  0  0  0  0  0
   -5.7262    1.3796    0.1316 C   0  0  0  0  0  0  0  0  0  0  0  0
   -4.9839    0.2262   -0.0167 C   0  0  0  0  0  0  0  0  0  0  0  0
   -0.5542   -0.1740    1.1268 C   0  0  0  0  0  0  0  0  0  0  0  0
    0.8093   -0.3407    1.1460 C   0  0  0  0  0  0  0  0  0  0  0  0
    6.3836   -0.5718   -1.6592 H   0  0  0  0  0  0  0  0  0  0  0  0
    7.0881   -1.7081   -0.4014 H   0  0  0  0  0  0  0  0  0  0  0  0
    7.7391    0.0050   -0.6613 H   0  0  0  0  0  0  0  0  0  0  0  0
    5.4167   -1.8619    1.3560 H   0  0  0  0  0  0  0  0  0  0  0  0
    4.7873   -1.8316   -0.3071 H   0  0  0  0  0  0  0  0  0  0  0  0
    3.0056   -1.7432    1.2628 H   0  0  0  0  0  0  0  0  0  0  0  0
    3.6789   -0.3088    2.1241 H   0  0  0  0  0  0  0  0  0  0  0  0
    3.6955    0.5055   -1.6548 H   0  0  0  0  0  0  0  0  0  0  0  0
    3.3575    1.9604   -0.6369 H   0  0  0  0  0  0  0  0  0  0  0  0
    5.3311    1.8463    0.5310 H   0  0  0  0  0  0  0  0  0  0  0  0
    5.8178    1.3732   -1.1119 H   0  0  0  0  0  0  0  0  0  0  0  0
    1.5445    1.6507   -1.4877 H   0  0  0  0  0  0  0  0  0  0  0  0
   -0.8419    1.9121   -1.4815 H   0  0  0  0  0  0  0  0  0  0  0  0
   -2.9383    1.9346    0.3012 H   0  0  0  0  0  0  0  0  0  0  0  0
   -4.8165   -3.0287   -0.4863 H   0  0  0  0  0  0  0  0  0  0  0  0
   -7.5122   -1.9436   -0.3997 H   0  0  0  0  0  0  0  0  0  0  0  0
   -8.8257    0.1456   -0.1302 H   0  0  0  0  0  0  0  0  0  0  0  0
   -5.2210    2.3102    0.2805 H   0  0  0  0  0  0  0  0  0  0  0  0
   -1.1479   -0.6778    1.8756 H   0  0  0  0  0  0  0  0  0  0  0  0
    1.2576   -0.9702    1.8860 H   0  0  0  0  0  0  0  0  0  0  0  0
  1  2  1  0
  2  3  1  0
  3  4  1  0
  4  5  1  0
  5  6  1  0
  6  7  1  0
  5  8  1  0
  8  9  2  0
  9 10  1  0
 10 11  2  0
 11 12  1  0
 12 13  2  0
 13 14  1  0
 14 15  2  0
 14 16  1  0
 16 17  1  0
 17 18  2  0
 18 19  1  0
 19 20  2  0
 20 21  1  0
 20 22  1  0
 22 23  2  0
 11 24  1  0
 24 25  2  0
  7  2  1  0
 25  8  1  0
 23 13  1  0
 23 17  1  0
  1 26  1  0
  1 27  1  0
  1 28  1  0
  3 29  1  0
  3 30  1  0
  4 31  1  0
  4 32  1  0
  6 33  1  0
  6 34  1  0
  7 35  1  0
  7 36  1  0
  9 37  1  0
 10 38  1  0
 12 39  1  0
 16 40  1  0
 18 41  1  0
 19 42  1  0
 22 43  1  0
 24 44  1  0
 25 45  1  0
M  END
$$$$
[H]OC(=O)C([H])([H])N([H])C(=O)[C@@]([H])(N([H])C(=O)[C@@]([H])(N([H])C(=O)c1c([H])c(OC([H])([H])[H])c(OC([H])([H])[H])c(OC([H])([H])[H])c1[H])C([H])([H])c1c([H])c([H])c([H])c([H])c1[H])C([H])([H])c1c([H])c([H])c([H])c([H])c1[H]
     RDKit          3D

 74 76  0  0  0  0  0  0  0  0999 V2000
    4.6730    1.6810   -3.9997 C   0  0  0  0  0  0  0  0  0  0  0  0
    5.6268    1.7897   -2.9647 O   0  0  0  0  0  0  0  0  0  0  0  0
    5.3555    1.2892   -1.7036 C   0  0  0  0  0  0  0  0  0  0  0  0
    4.1389    0.6815   -1.4690 C   0  0  0  0  0  0  0  0  0  0  0  0
    3.8061    0.1621   -0.2361 C   0  0  0  0  0  0  0  0  0  0  0  0
    4.7390    0.2706    0.7704 C   0  0  0  0  0  0  0  0  0  0  0  0
    5.9731    0.8773    0.5656 C   0  0  0  0  0  0  0  0  0  0  0  0
    6.8513    0.9476    1.6183 O   0  0  0  0  0  0  0  0  0  0  0  0
    6.5255    0.4205    2.8889 C   0  0  0  0  0  0  0  0  0  0  0  0
    6.2805    1.3928   -0.6941 C   0  0  0  0  0  0  0  0  0  0  0  0
    7.5010    1.9866   -0.8786 O   0  0  0  0  0  0  0  0  0  0  0  0
    7.7379    3.3633   -0.6653 C   0  0  0  0  0  0  0  0  0  0  0  0
    2.5474   -0.4872    0.0406 C   0  0  0  0  0  0  0  0  0  0  0  0
    2.4883   -1.7288   -0.1845 O   0  0  0  0  0  0  0  0  0  0  0  0
    1.3911    0.1602    0.5387 N   0  0  0  0  0  0  0  0  0  0  0  0
    0.1828   -0.5727    0.7826 C   0  0  1  0  0  0  0  0  0  0  0  0
   -0.2583   -0.5359    2.2096 C   0  0  0  0  0  0  0  0  0  0  0  0
    0.7275   -1.0989    3.1496 C   0  0  0  0  0  0  0  0  0  0  0  0
    1.6698   -0.2504    3.6919 C   0  0  0  0  0  0  0  0  0  0  0  0
    2.6204   -0.7112    4.5764 C   0  0  0  0  0  0  0  0  0  0  0  0
    2.6407   -2.0252    4.9297 C   0  0  0  0  0  0  0  0  0  0  0  0
    1.7085   -2.9196    4.4073 C   0  0  0  0  0  0  0  0  0  0  0  0
    0.7780   -2.4222    3.5294 C   0  0  0  0  0  0  0  0  0  0  0  0
   -0.9397   -0.0726   -0.0616 C   0  0  0  0  0  0  0  0  0  0  0  0
   -0.7912    0.8961   -0.8576 O   0  0  0  0  0  0  0  0  0  0  0  0
   -2.1944   -0.6899    0.0252 N   0  0  0  0  0  0  0  0  0  0  0  0
   -3.3300   -0.2201   -0.8009 C   0  0  1  0  0  0  0  0  0  0  0  0
   -3.5332   -1.3278   -1.7921 C   0  0  0  0  0  0  0  0  0  0  0  0
   -4.6024   -1.1896   -2.7627 C   0  0  0  0  0  0  0  0  0  0  0  0
   -5.8550   -1.7763   -2.5425 C   0  0  0  0  0  0  0  0  0  0  0  0
   -6.8832   -1.6594   -3.4426 C   0  0  0  0  0  0  0  0  0  0  0  0
   -6.7345   -0.9533   -4.6185 C   0  0  0  0  0  0  0  0  0  0  0  0
   -5.5010   -0.3785   -4.8295 C   0  0  0  0  0  0  0  0  0  0  0  0
   -4.4602   -0.4836   -3.9419 C   0  0  0  0  0  0  0  0  0  0  0  0
   -4.4453    0.0385    0.1104 C   0  0  0  0  0  0  0  0  0  0  0  0
   -4.3665   -0.3098    1.3114 O   0  0  0  0  0  0  0  0  0  0  0  0
   -5.6210    0.6810   -0.3288 N   0  0  0  0  0  0  0  0  0  0  0  0
   -6.7560    0.9545    0.5194 C   0  0  0  0  0  0  0  0  0  0  0  0
   -7.3795   -0.2367    1.1109 C   0  0  0  0  0  0  0  0  0  0  0  0
   -8.4822   -0.0568    1.9475 O   0  0  0  0  0  0  0  0  0  0  0  0
   -6.9853   -1.4004    0.9128 O   0  0  0  0  0  0  0  0  0  0  0  0
    5.0665    2.1112   -4.9474 H   0  0  0  0  0  0  0  0  0  0  0  0
    3.7488    2.2647   -3.7694 H   0  0  0  0  0  0  0  0  0  0  0  0
    4.4626    0.6125   -4.1985 H   0  0  0  0  0  0  0  0  0  0  0  0
    3.4446    0.6268   -2.2976 H   0  0  0  0  0  0  0  0  0  0  0  0
    4.5455   -0.1157    1.7663 H   0  0  0  0  0  0  0  0  0  0  0  0
    5.5763    0.9400    3.2078 H   0  0  0  0  0  0  0  0  0  0  0  0
    7.3077    0.5824    3.6299 H   0  0  0  0  0  0  0  0  0  0  0  0
    6.2177   -0.6613    2.8073 H   0  0  0  0  0  0  0  0  0  0  0  0
    6.9176    3.8466   -0.0945 H   0  0  0  0  0  0  0  0  0  0  0  0
    7.8050    3.8295   -1.6755 H   0  0  0  0  0  0  0  0  0  0  0  0
    8.7189    3.4952   -0.1395 H   0  0  0  0  0  0  0  0  0  0  0  0
    1.4064    1.1932    0.7348 H   0  0  0  0  0  0  0  0  0  0  0  0
    0.3507   -1.6592    0.5234 H   0  0  0  0  0  0  0  0  0  0  0  0
   -0.5888    0.4653    2.5438 H   0  0  0  0  0  0  0  0  0  0  0  0
   -1.1703   -1.1947    2.2820 H   0  0  0  0  0  0  0  0  0  0  0  0
    1.6817    0.8056    3.4307 H   0  0  0  0  0  0  0  0  0  0  0  0
    3.3530   -0.0230    4.9906 H   0  0  0  0  0  0  0  0  0  0  0  0
    3.3861   -2.3982    5.6256 H   0  0  0  0  0  0  0  0  0  0  0  0
    1.7118   -3.9765    4.6818 H   0  0  0  0  0  0  0  0  0  0  0  0
    0.0394   -3.0870    3.1037 H   0  0  0  0  0  0  0  0  0  0  0  0
   -2.3684   -1.4826    0.6584 H   0  0  0  0  0  0  0  0  0  0  0  0
   -2.9756    0.6768   -1.3600 H   0  0  0  0  0  0  0  0  0  0  0  0
   -2.5541   -1.4323   -2.3418 H   0  0  0  0  0  0  0  0  0  0  0  0
   -3.6312   -2.2769   -1.2229 H   0  0  0  0  0  0  0  0  0  0  0  0
   -5.9977   -2.3348   -1.6330 H   0  0  0  0  0  0  0  0  0  0  0  0
   -7.8666   -2.1084   -3.2897 H   0  0  0  0  0  0  0  0  0  0  0  0
   -7.5438   -0.8599   -5.3302 H   0  0  0  0  0  0  0  0  0  0  0  0
   -5.3588    0.1858   -5.7539 H   0  0  0  0  0  0  0  0  0  0  0  0
   -3.4898   -0.0220   -4.1216 H   0  0  0  0  0  0  0  0  0  0  0  0
   -5.6548    0.9985   -1.3423 H   0  0  0  0  0  0  0  0  0  0  0  0
   -7.5381    1.4747   -0.0842 H   0  0  0  0  0  0  0  0  0  0  0  0
   -6.4631    1.6943    1.3009 H   0  0  0  0  0  0  0  0  0  0  0  0
   -9.3837   -0.0606    1.4527 H   0  0  0  0  0  0  0  0  0  0  0  0
  1  2  1  0
  2  3  1  0
  3  4  2  0
  4  5  1  0
  5  6  2  0
  6  7  1  0
  7  8  1  0
  8  9  1  0
  7 10  2  0
 10 11  1  0
 11 12  1  0
  5 13  1  0
 13 14  2  0
 13 15  1  0
 15 16  1  0
 16 17  1  0
 17 18  1  0
 18 19  2  0
 19 20  1  0
 20 21  2  0
 21 22  1  0
 22 23  2  0
 16 24  1  0
 24 25  2  0
 24 26  1  0
 26 27  1  0
 27 28  1  0
 28 29  1  0
 29 30  2  0
 30 31  1  0
 31 32  2  0
 32 33  1  0
 33 34  2  0
 27 35  1  0
 35 36  2  0
 35 37  1  0
 37 38  1  0
 38 39  1  0
 39 40  1  0
 39 41  2  0
 10  3  1  0
 23 18  1  0
 34 29  1  0
  1 42  1  0
  1 43  1  0
  1 44  1  0
  4 45  1  0
  6 46  1  0
  9 47  1  0
  9 48  1  0
  9 49  1  0
 12 50  1  0
 12 51  1  0
 12 52  1  0
 15 53  1  0
 16 54  1  6
 17 55  1  0
 17 56  1  0
 19 57  1  0
 20 58  1  0
 21 59  1  0
 22 60  1  0
 23 61  1  0
 26 62  1  0
 27 63  1  6
 28 64  1  0
 28 65  1  0
 30 66  1  0
 31 67  1  0
 32 68  1  0
 33 69  1  0
 34 70  1  0
 37 71  1  0
 38 72  1  0
 38 73  1  0
 40 74  1  0
M  END
$$$$
[H]c1nc(N([H])c2c([H])c([H])c(C(=O)N([H])C3([H])C([H])([H])C([H])([H])N(C([H])([H])[H])C([H])([H])C3([H])[H])c([H])c2OC([H])([H])[H])nc2c1N(C([H])([H])[H])C(=O)[C@@]([H])(C([H])([H])[H])N2C1([H])C([H])([H])C([H])([H])C([H])([H])C1([H])[H]
     RDKit          3D

 74 78  0  0  0  0  0  0  0  0999 V2000
    1.7147   -1.3282   -2.9200 C   0  0  0  0  0  0  0  0  0  0  0  0
    0.8497   -0.9851   -1.8544 O   0  0  0  0  0  0  0  0  0  0  0  0
    1.2797   -0.6549   -0.5968 C   0  0  0  0  0  0  0  0  0  0  0  0
    2.6089   -0.6269   -0.2513 C   0  0  0  0  0  0  0  0  0  0  0  0
    3.0552   -0.3018    0.9944 C   0  0  0  0  0  0  0  0  0  0  0  0
    2.1000    0.0098    1.9346 C   0  0  0  0  0  0  0  0  0  0  0  0
    0.7406   -0.0127    1.6037 C   0  0  0  0  0  0  0  0  0  0  0  0
    0.2820   -0.3349    0.3630 C   0  0  0  0  0  0  0  0  0  0  0  0
   -1.0544   -0.3889   -0.0385 N   0  0  0  0  0  0  0  0  0  0  0  0
   -2.1752   -0.0064    0.7389 C   0  0  0  0  0  0  0  0  0  0  0  0
   -2.1532    0.4718    1.9713 N   0  0  0  0  0  0  0  0  0  0  0  0
   -3.2192    0.8334    2.6816 C   0  0  0  0  0  0  0  0  0  0  0  0
   -4.4710    0.6928    2.0642 C   0  0  0  0  0  0  0  0  0  0  0  0
   -5.6294    1.0810    2.7823 N   0  0  0  0  0  0  0  0  0  0  0  0
   -5.5472    1.6062    4.1510 C   0  0  0  0  0  0  0  0  0  0  0  0
   -6.8734    0.9358    2.1150 C   0  0  0  0  0  0  0  0  0  0  0  0
   -7.9404    0.8929    2.8163 O   0  0  0  0  0  0  0  0  0  0  0  0
   -6.9232    0.8385    0.6333 C   0  0  1  0  0  0  0  0  0  0  0  0
   -6.8930    2.2519    0.1132 C   0  0  0  0  0  0  0  0  0  0  0  0
   -5.8411    0.0314    0.1213 N   0  0  0  0  0  0  0  0  0  0  0  0
   -5.8894   -0.8975   -0.9355 C   0  0  0  0  0  0  0  0  0  0  0  0
   -6.8385   -2.0568   -0.7557 C   0  0  0  0  0  0  0  0  0  0  0  0
   -6.5051   -2.8092   -2.0567 C   0  0  0  0  0  0  0  0  0  0  0  0
   -6.3978   -1.6871   -3.0646 C   0  0  0  0  0  0  0  0  0  0  0  0
   -6.3929   -0.3760   -2.2643 C   0  0  0  0  0  0  0  0  0  0  0  0
   -4.5648    0.2008    0.7840 C   0  0  0  0  0  0  0  0  0  0  0  0
   -3.4252   -0.1263    0.1760 N   0  0  0  0  0  0  0  0  0  0  0  0
    4.4679   -0.2633    1.3210 C   0  0  0  0  0  0  0  0  0  0  0  0
    4.8101   -0.4255    2.5169 O   0  0  0  0  0  0  0  0  0  0  0  0
    5.4169   -0.0486    0.3228 N   0  0  0  0  0  0  0  0  0  0  0  0
    6.8493    0.0071    0.5318 C   0  0  0  0  0  0  0  0  0  0  0  0
    7.3438    1.4506    0.4842 C   0  0  0  0  0  0  0  0  0  0  0  0
    8.7759    1.3932    0.9889 C   0  0  0  0  0  0  0  0  0  0  0  0
    9.6132    0.6172    0.0986 N   0  0  0  0  0  0  0  0  0  0  0  0
    9.9659    1.3480   -1.0989 C   0  0  0  0  0  0  0  0  0  0  0  0
    9.1042   -0.6982   -0.1482 C   0  0  0  0  0  0  0  0  0  0  0  0
    7.6468   -0.7916   -0.4344 C   0  0  0  0  0  0  0  0  0  0  0  0
    1.1004   -1.3317   -3.8500 H   0  0  0  0  0  0  0  0  0  0  0  0
    2.1337   -2.3498   -2.8087 H   0  0  0  0  0  0  0  0  0  0  0  0
    2.5346   -0.5884   -3.0380 H   0  0  0  0  0  0  0  0  0  0  0  0
    3.3632   -0.8753   -1.0012 H   0  0  0  0  0  0  0  0  0  0  0  0
    2.4409    0.2696    2.9291 H   0  0  0  0  0  0  0  0  0  0  0  0
    0.0916    0.2356    2.3988 H   0  0  0  0  0  0  0  0  0  0  0  0
   -1.2707   -0.7522   -1.0191 H   0  0  0  0  0  0  0  0  0  0  0  0
   -3.2090    1.2187    3.6749 H   0  0  0  0  0  0  0  0  0  0  0  0
   -4.9249    2.5253    4.1741 H   0  0  0  0  0  0  0  0  0  0  0  0
   -5.1644    0.8207    4.8465 H   0  0  0  0  0  0  0  0  0  0  0  0
   -6.5780    1.9269    4.4345 H   0  0  0  0  0  0  0  0  0  0  0  0
   -7.8633    0.3063    0.3361 H   0  0  0  0  0  0  0  0  0  0  0  0
   -7.8422    2.4536   -0.4667 H   0  0  0  0  0  0  0  0  0  0  0  0
   -5.9878    2.4548   -0.4991 H   0  0  0  0  0  0  0  0  0  0  0  0
   -6.8913    3.0138    0.9210 H   0  0  0  0  0  0  0  0  0  0  0  0
   -4.8909   -1.3620   -1.1744 H   0  0  0  0  0  0  0  0  0  0  0  0
   -6.6426   -2.6569    0.1354 H   0  0  0  0  0  0  0  0  0  0  0  0
   -7.9068   -1.7742   -0.9007 H   0  0  0  0  0  0  0  0  0  0  0  0
   -7.3699   -3.4640   -2.3349 H   0  0  0  0  0  0  0  0  0  0  0  0
   -5.5646   -3.3828   -1.9512 H   0  0  0  0  0  0  0  0  0  0  0  0
   -7.1584   -1.6984   -3.8446 H   0  0  0  0  0  0  0  0  0  0  0  0
   -5.3950   -1.7974   -3.5533 H   0  0  0  0  0  0  0  0  0  0  0  0
   -5.7105    0.3020   -2.7667 H   0  0  0  0  0  0  0  0  0  0  0  0
   -7.4469    0.0094   -2.1728 H   0  0  0  0  0  0  0  0  0  0  0  0
    5.1072    0.0855   -0.6668 H   0  0  0  0  0  0  0  0  0  0  0  0
    7.0451   -0.3272    1.5779 H   0  0  0  0  0  0  0  0  0  0  0  0
    7.3527    1.7783   -0.5608 H   0  0  0  0  0  0  0  0  0  0  0  0
    6.7920    2.0952    1.1808 H   0  0  0  0  0  0  0  0  0  0  0  0
    8.7400    0.8789    1.9640 H   0  0  0  0  0  0  0  0  0  0  0  0
    9.1935    2.3938    1.0929 H   0  0  0  0  0  0  0  0  0  0  0  0
   10.7377    2.0887   -0.8011 H   0  0  0  0  0  0  0  0  0  0  0  0
    9.0991    1.8079   -1.6143 H   0  0  0  0  0  0  0  0  0  0  0  0
   10.4392    0.6470   -1.7994 H   0  0  0  0  0  0  0  0  0  0  0  0
    9.3645   -1.4432    0.6403 H   0  0  0  0  0  0  0  0  0  0  0  0
    9.6320   -1.0595   -1.0813 H   0  0  0  0  0  0  0  0  0  0  0  0
    7.4028   -0.4313   -1.4653 H   0  0  0  0  0  0  0  0  0  0  0  0
    7.3569   -1.8600   -0.3236 H   0  0  0  0  0  0  0  0  0  0  0  0
  1  2  1  0
  2  3  1  0
  3  4  2  0
  4  5  1  0
  5  6  2  0
  6  7  1  0
  7  8  2  0
  8  9  1  0
  9 10  1  0
 10 11  2  0
 11 12  1  0
 12 13  2  0
 13 14  1  0
 14 15  1  0
 14 16  1  0
 16 17  2  0
 16 18  1  0
 18 19  1  0
 18 20  1  0
 20 21  1  0
 21 22  1  0
 22 23  1  0
 23 24  1  0
 24 25  1  0
 20 26  1  0
 26 27  2  0
  5 28  1  0
 28 29  2  0
 28 30  1  0
 30 31  1  0
 31 32  1  0
 32 33  1  0
 33 34  1  0
 34 35  1  0
 34 36  1  0
 36 37  1  0
  8  3  1  0
 27 10  1  0
 37 31  1  0
 26 13  1  0
 25 21  1  0
  1 38  1  0
  1 39  1  0
  1 40  1  0
  4 41  1  0
  6 42  1  0
  7 43  1  0
  9 44  1  0
 12 45  1  0
 15 46  1  0
 15 47  1  0
 15 48  1  0
 18 49  1  1
 19 50  1  0
 19 51  1  0
 19 52  1  0
 21 53  1  0
 22 54  1  0
 22 55  1  0
 23 56  1  0
 23 57  1  0
 24 58  1  0
 24 59  1  0
 25 60  1  0
 25 61  1  0
 30 62  1  0
 31 63  1  0
 32 64  1  0
 32 65  1  0
 33 66  1  0
 33 67  1  0
 35 68  1  0
 35 69  1  0
 35 70  1  0
 36 71  1  0
 36 72  1  0
 37 73  1  0
 37 74  1  0
M  END
$$$$
[H]c1c([H])c([H])c(N2C([H])([H])C([H])([H])N(c3nc4c([H])c([H])c([H])c([H])c4c(=O)n3[H])C([H])([H])C2([H])[H])c(OC([H])([H])[H])c1[H]
     RDKit          3D

 45 48  0  0  0  0  0  0  0  0999 V2000
    4.4464   -2.6670    0.3374 C   0  0  0  0  0  0  0  0  0  0  0  0
    3.5821   -1.5829    0.0707 O   0  0  0  0  0  0  0  0  0  0  0  0
    4.0557   -0.5513   -0.7179 C   0  0  0  0  0  0  0  0  0  0  0  0
    5.3462   -0.5878   -1.2308 C   0  0  0  0  0  0  0  0  0  0  0  0
    5.8504    0.4230   -2.0212 C   0  0  0  0  0  0  0  0  0  0  0  0
    5.0179    1.4888   -2.2902 C   0  0  0  0  0  0  0  0  0  0  0  0
    3.7281    1.5289   -1.7795 C   0  0  0  0  0  0  0  0  0  0  0  0
    3.2300    0.5143   -0.9893 C   0  0  0  0  0  0  0  0  0  0  0  0
    1.9247    0.5098   -0.4398 N   0  0  0  0  0  0  0  0  0  0  0  0
    1.6275    0.5277    0.9566 C   0  0  0  0  0  0  0  0  0  0  0  0
    0.3110   -0.2079    1.2183 C   0  0  0  0  0  0  0  0  0  0  0  0
   -0.7431    0.3366    0.3857 N   0  0  0  0  0  0  0  0  0  0  0  0
   -0.3606    1.1245   -0.7686 C   0  0  0  0  0  0  0  0  0  0  0  0
    0.8295    0.4827   -1.4157 C   0  0  0  0  0  0  0  0  0  0  0  0
   -2.1219    0.1262    0.6612 C   0  0  0  0  0  0  0  0  0  0  0  0
   -3.0812    0.6461   -0.1257 N   0  0  0  0  0  0  0  0  0  0  0  0
   -4.3968    0.4751    0.0933 C   0  0  0  0  0  0  0  0  0  0  0  0
   -5.3648    1.0102   -0.7159 C   0  0  0  0  0  0  0  0  0  0  0  0
   -6.7126    0.8091   -0.4530 C   0  0  0  0  0  0  0  0  0  0  0  0
   -7.1237    0.0708    0.6213 C   0  0  0  0  0  0  0  0  0  0  0  0
   -6.1476   -0.4723    1.4422 C   0  0  0  0  0  0  0  0  0  0  0  0
   -4.8010   -0.2838    1.1980 C   0  0  0  0  0  0  0  0  0  0  0  0
   -3.8199   -0.8153    2.0025 C   0  0  0  0  0  0  0  0  0  0  0  0
   -4.1436   -1.5004    3.0007 O   0  0  0  0  0  0  0  0  0  0  0  0
   -2.5228   -0.6082    1.7301 N   0  0  0  0  0  0  0  0  0  0  0  0
    5.4258   -2.3317    0.7455 H   0  0  0  0  0  0  0  0  0  0  0  0
    4.6151   -3.2929   -0.5600 H   0  0  0  0  0  0  0  0  0  0  0  0
    3.9803   -3.3175    1.1125 H   0  0  0  0  0  0  0  0  0  0  0  0
    6.0226   -1.4229   -1.0302 H   0  0  0  0  0  0  0  0  0  0  0  0
    6.8629    0.3967   -2.4248 H   0  0  0  0  0  0  0  0  0  0  0  0
    5.3731    2.2916   -2.8993 H   0  0  0  0  0  0  0  0  0  0  0  0
    3.0588    2.3596   -1.9804 H   0  0  0  0  0  0  0  0  0  0  0  0
    2.4036   -0.0154    1.5244 H   0  0  0  0  0  0  0  0  0  0  0  0
    1.5631    1.5693    1.3510 H   0  0  0  0  0  0  0  0  0  0  0  0
    0.0817   -0.1542    2.2997 H   0  0  0  0  0  0  0  0  0  0  0  0
    0.4751   -1.2670    0.9420 H   0  0  0  0  0  0  0  0  0  0  0  0
   -1.2068    1.2536   -1.4782 H   0  0  0  0  0  0  0  0  0  0  0  0
   -0.0159    2.1260   -0.3776 H   0  0  0  0  0  0  0  0  0  0  0  0
    1.1093    0.9243   -2.3747 H   0  0  0  0  0  0  0  0  0  0  0  0
    0.6110   -0.5923   -1.6130 H   0  0  0  0  0  0  0  0  0  0  0  0
   -5.0928    1.6046   -1.5817 H   0  0  0  0  0  0  0  0  0  0  0  0
   -7.4592    1.2469   -1.1140 H   0  0  0  0  0  0  0  0  0  0  0  0
   -8.1883   -0.0990    0.8450 H   0  0  0  0  0  0  0  0  0  0  0  0
   -6.4671   -1.0581    2.2949 H   0  0  0  0  0  0  0  0  0  0  0  0
   -1.7622   -1.0186    2.3509 H   0  0  0  0  0  0  0  0  0  0  0  0
  1  2  1  0
  2  3  1  0
  3  4  2  0
  4  5  1  0
  5  6  2  0
  6  7  1  0
  7  8  2  0
  8  9  1  0
  9 10  1  0
 10 11  1  0
 11 12  1  0
 12 13  1  0
 13 14  1  0
 12 15  1  0
 15 16  2  0
 16 17  1  0
 17 18  2  0
 18 19  1  0
 19 20  2  0
 20 21  1  0
 21 22  2  0
 22 23  1  0
 23 24  2  0
 23 25  1  0
  8  3  1  0
 14  9  1  0
 25 15  1  0
 22 17  1  0
  1 26  1  0
  1 27  1  0
  1 28  1  0
  4 29  1  0
  5 30  1  0
  6 31  1  0
  7 32  1  0
 10 33  1  0
 10 34  1  0
 11 35  1  0
 11 36  1  0
 13 37  1  0
 13 38  1  0
 14 39  1  0
 14 40  1  0
 18 41  1  0
 19 42  1  0
 20 43  1  0
 21 44  1  0
 25 45  1  0
M  END
$$$$
[H]OC(=O)[C@@]([H])(N([H])C(=O)[C@@]1([H])N(C(=O)[C@@]([H])(N([H])C(=O)[C@@]([H])(N([H])[H])C([H])([H])c2c([H])c([H])c(O[H])c([H])c2[H])C([H])([H])[H])C([H])([H])C([H])([H])C1([H])[H])C([H])([H])c1c([H])n([H])c2c([H])c([H])c([H])c([H])c12
     RDKit          3D

 72 75  0  0  0  0  0  0  0  0999 V2000
    1.7874   -3.0094    2.2402 C   0  0  0  0  0  0  0  0  0  0  0  0
    1.7798   -2.5031    0.8115 C   0  0  2  0  0  0  0  0  0  0  0  0
    2.9392   -1.6165    0.6062 N   0  0  0  0  0  0  0  0  0  0  0  0
    3.8036   -1.8751   -0.4841 C   0  0  0  0  0  0  0  0  0  0  0  0
    3.5846   -2.8308   -1.2487 O   0  0  0  0  0  0  0  0  0  0  0  0
    4.9726   -0.9458   -0.6583 C   0  0  1  0  0  0  0  0  0  0  0  0
    5.7564   -1.2430   -1.8149 N   0  0  0  0  0  0  0  0  0  0  0  0
    4.4347    0.4465   -0.7231 C   0  0  0  0  0  0  0  0  0  0  0  0
    5.5142    1.4298   -0.8915 C   0  0  0  0  0  0  0  0  0  0  0  0
    6.1217    1.9683    0.2073 C   0  0  0  0  0  0  0  0  0  0  0  0
    7.1309    2.8940    0.0422 C   0  0  0  0  0  0  0  0  0  0  0  0
    7.5264    3.2762   -1.2193 C   0  0  0  0  0  0  0  0  0  0  0  0
    8.5540    4.2166   -1.3109 O   0  0  0  0  0  0  0  0  0  0  0  0
    6.9134    2.7334   -2.3245 C   0  0  0  0  0  0  0  0  0  0  0  0
    5.9040    1.8071   -2.1517 C   0  0  0  0  0  0  0  0  0  0  0  0
    0.5574   -1.6760    0.6182 C   0  0  0  0  0  0  0  0  0  0  0  0
    0.7643   -0.4431    0.4156 O   0  0  0  0  0  0  0  0  0  0  0  0
   -0.7024   -2.2475    0.6620 N   0  0  0  0  0  0  0  0  0  0  0  0
   -1.0268   -3.6589    0.8924 C   0  0  0  0  0  0  0  0  0  0  0  0
   -2.2049   -3.6034    1.8713 C   0  0  0  0  0  0  0  0  0  0  0  0
   -2.6256   -2.1184    1.8419 C   0  0  0  0  0  0  0  0  0  0  0  0
   -2.0649   -1.6818    0.5367 C   0  0  1  0  0  0  0  0  0  0  0  0
   -2.0967   -0.2938    0.1790 C   0  0  0  0  0  0  0  0  0  0  0  0
   -1.5643    0.0265   -0.9422 O   0  0  0  0  0  0  0  0  0  0  0  0
   -2.6439    0.7714    0.9134 N   0  0  0  0  0  0  0  0  0  0  0  0
   -2.6115    2.1059    0.4448 C   0  0  1  0  0  0  0  0  0  0  0  0
   -3.9271    2.7925    0.2577 C   0  0  0  0  0  0  0  0  0  0  0  0
   -4.7933    2.0919   -0.7134 C   0  0  0  0  0  0  0  0  0  0  0  0
   -4.8930    2.4073   -2.0627 C   0  0  0  0  0  0  0  0  0  0  0  0
   -5.7317    1.5446   -2.6476 N   0  0  0  0  0  0  0  0  0  0  0  0
   -6.1964    0.6641   -1.7360 C   0  0  0  0  0  0  0  0  0  0  0  0
   -7.0748   -0.3895   -1.8454 C   0  0  0  0  0  0  0  0  0  0  0  0
   -7.4099   -1.1489   -0.7534 C   0  0  0  0  0  0  0  0  0  0  0  0
   -6.8193   -0.7950    0.4471 C   0  0  0  0  0  0  0  0  0  0  0  0
   -5.9381    0.2528    0.5858 C   0  0  0  0  0  0  0  0  0  0  0  0
   -5.6161    0.9989   -0.5245 C   0  0  0  0  0  0  0  0  0  0  0  0
   -1.6734    2.9609    1.2677 C   0  0  0  0  0  0  0  0  0  0  0  0
   -1.4729    4.2992    1.0040 O   0  0  0  0  0  0  0  0  0  0  0  0
   -1.0728    2.4135    2.2102 O   0  0  0  0  0  0  0  0  0  0  0  0
    0.8414   -2.7447    2.7573 H   0  0  0  0  0  0  0  0  0  0  0  0
    2.6035   -2.5596    2.8552 H   0  0  0  0  0  0  0  0  0  0  0  0
    1.9255   -4.1081    2.3009 H   0  0  0  0  0  0  0  0  0  0  0  0
    1.8019   -3.3695    0.1375 H   0  0  0  0  0  0  0  0  0  0  0  0
    3.1047   -0.8244    1.2581 H   0  0  0  0  0  0  0  0  0  0  0  0
    5.6027   -1.1114    0.2518 H   0  0  0  0  0  0  0  0  0  0  0  0
    6.2355   -2.1437   -1.8222 H   0  0  0  0  0  0  0  0  0  0  0  0
    5.2848   -0.9785   -2.7047 H   0  0  0  0  0  0  0  0  0  0  0  0
    3.6949    0.4778   -1.5644 H   0  0  0  0  0  0  0  0  0  0  0  0
    3.8993    0.7306    0.2306 H   0  0  0  0  0  0  0  0  0  0  0  0
    5.8239    1.6798    1.2272 H   0  0  0  0  0  0  0  0  0  0  0  0
    7.5768    3.2879    0.9438 H   0  0  0  0  0  0  0  0  0  0  0  0
    8.8466    4.4999   -2.2433 H   0  0  0  0  0  0  0  0  0  0  0  0
    7.2164    3.0286   -3.3206 H   0  0  0  0  0  0  0  0  0  0  0  0
    5.4446    1.4029   -3.0580 H   0  0  0  0  0  0  0  0  0  0  0  0
   -0.1995   -4.2556    1.2088 H   0  0  0  0  0  0  0  0  0  0  0  0
   -1.3549   -4.0350   -0.1089 H   0  0  0  0  0  0  0  0  0  0  0  0
   -3.0160   -4.1967    1.4013 H   0  0  0  0  0  0  0  0  0  0  0  0
   -1.9297   -3.9310    2.8746 H   0  0  0  0  0  0  0  0  0  0  0  0
   -3.7313   -2.1132    1.8607 H   0  0  0  0  0  0  0  0  0  0  0  0
   -2.1690   -1.6680    2.7276 H   0  0  0  0  0  0  0  0  0  0  0  0
   -2.6139   -2.3318   -0.2449 H   0  0  0  0  0  0  0  0  0  0  0  0
   -3.0848    0.5393    1.8440 H   0  0  0  0  0  0  0  0  0  0  0  0
   -2.1046    2.0956   -0.5717 H   0  0  0  0  0  0  0  0  0  0  0  0
   -4.4673    2.9378    1.2299 H   0  0  0  0  0  0  0  0  0  0  0  0
   -3.7945    3.8448   -0.1221 H   0  0  0  0  0  0  0  0  0  0  0  0
   -4.3842    3.2213   -2.5862 H   0  0  0  0  0  0  0  0  0  0  0  0
   -6.0183    1.5174   -3.6565 H   0  0  0  0  0  0  0  0  0  0  0  0
   -7.5313   -0.6455   -2.8134 H   0  0  0  0  0  0  0  0  0  0  0  0
   -8.0987   -1.9685   -0.8536 H   0  0  0  0  0  0  0  0  0  0  0  0
   -7.1113   -1.4255    1.3014 H   0  0  0  0  0  0  0  0  0  0  0  0
   -5.5140    0.4979    1.5413 H   0  0  0  0  0  0  0  0  0  0  0  0
   -0.6643    4.6277    0.4571 H   0  0  0  0  0  0  0  0  0  0  0  0
  1  2  1  0
  2  3  1  0
  3  4  1  0
  4  5  2  0
  4  6  1  0
  6  7  1  0
  6  8  1  0
  8  9  1  0
  9 10  2  0
 10 11  1  0
 11 12  2  0
 12 13  1  0
 12 14  1  0
 14 15  2  0
  2 16  1  0
 16 17  2  0
 16 18  1  0
 18 19  1  0
 19 20  1  0
 20 21  1  0
 21 22  1  0
 22 23  1  0
 23 24  2  0
 23 25  1  0
 25 26  1  0
 26 27  1  0
 27 28  1  0
 28 29  2  0
 29 30  1  0
 30 31  1  0
 31 32  2  0
 32 33  1  0
 33 34  2  0
 34 35  1  0
 35 36  2  0
 26 37  1  0
 37 38  1  0
 37 39  2  0
 15  9  1  0
 22 18  1  0
 36 28  1  0
 36 31  1  0
  1 40  1  0
  1 41  1  0
  1 42  1  0
  2 43  1  6
  3 44  1  0
  6 45  1  1
  7 46  1  0
  7 47  1  0
  8 48  1  0
  8 49  1  0
 10 50  1  0
 11 51  1  0
 13 52  1  0
 14 53  1  0
 15 54  1  0
 19 55  1  0
 19 56  1  0
 20 57  1  0
 20 58  1  0
 21 59  1  0
 21 60  1  0
 22 61  1  6
 25 62  1  0
 26 63  1  6
 27 64  1  0
 27 65  1  0
 29 66  1  0
 30 67  1  0
 32 68  1  0
 33 69  1  0
 34 70  1  0
 35 71  1  0
 38 72  1  0
M  END
$$$$
[H]N=C(N([H])[H])N([H])C([H])([H])C([H])([H])C([H])([H])[C@]([H])(C(=O)N([H])[C@]([H])(C(=O)N([H])[C@]([H])(C(=O)N([H])[H])C([H])([H])C([H])([H])C([H])([H])C([H])([H])N([H])[H])C([H])([H])c1c([H])c([H])c([H])c([H])c1[H])N([H])C(=O)[C@@]([H])(N([H])[H])C([H])([H])c1c(C([H])([H])[H])c([H])c(O[H])c([H])c1C([H])([H])[H]
     RDKit          3D

 95 96  0  0  0  0  0  0  0  0999 V2000
    4.7754   -1.5973    3.4021 C   0  0  0  0  0  0  0  0  0  0  0  0
    6.0030   -1.9880    2.6522 C   0  0  0  0  0  0  0  0  0  0  0  0
    7.0256   -2.6333    3.3624 C   0  0  0  0  0  0  0  0  0  0  0  0
    8.1836   -3.0160    2.7270 C   0  0  0  0  0  0  0  0  0  0  0  0
    9.2299   -3.6661    3.4091 O   0  0  0  0  0  0  0  0  0  0  0  0
    8.3091   -2.7491    1.3831 C   0  0  0  0  0  0  0  0  0  0  0  0
    7.2779   -2.1004    0.6783 C   0  0  0  0  0  0  0  0  0  0  0  0
    7.4972   -1.8410   -0.7490 C   0  0  0  0  0  0  0  0  0  0  0  0
    6.1231   -1.7197    1.3123 C   0  0  0  0  0  0  0  0  0  0  0  0
    5.0407   -1.0523    0.5757 C   0  0  0  0  0  0  0  0  0  0  0  0
    3.8686   -1.9759    0.3151 C   0  0  2  0  0  0  0  0  0  0  0  0
    4.2672   -3.1340   -0.4650 N   0  0  0  0  0  0  0  0  0  0  0  0
    2.8729   -1.2452   -0.5026 C   0  0  0  0  0  0  0  0  0  0  0  0
    2.5408   -1.6068   -1.6618 O   0  0  0  0  0  0  0  0  0  0  0  0
    2.2471   -0.0782    0.0244 N   0  0  0  0  0  0  0  0  0  0  0  0
    1.2573    0.6347   -0.7889 C   0  0  2  0  0  0  0  0  0  0  0  0
    1.7517    2.0421   -1.0712 C   0  0  0  0  0  0  0  0  0  0  0  0
    1.9707    2.8188    0.1927 C   0  0  0  0  0  0  0  0  0  0  0  0
    2.4784    4.2048   -0.1070 C   0  0  0  0  0  0  0  0  0  0  0  0
    1.5915    4.9793   -0.9092 N   0  0  0  0  0  0  0  0  0  0  0  0
    1.8894    6.3152   -1.2533 C   0  0  0  0  0  0  0  0  0  0  0  0
    3.1562    6.7071   -1.7357 N   0  0  0  0  0  0  0  0  0  0  0  0
    0.9581    7.2033   -1.1154 N   0  0  0  0  0  0  0  0  0  0  0  0
   -0.0325    0.5761   -0.1025 C   0  0  0  0  0  0  0  0  0  0  0  0
   -0.0942    0.0693    1.0671 O   0  0  0  0  0  0  0  0  0  0  0  0
   -1.2486    1.0477   -0.6543 N   0  0  0  0  0  0  0  0  0  0  0  0
   -2.5391    0.9953    0.0113 C   0  0  1  0  0  0  0  0  0  0  0  0
   -3.2405    2.2871    0.1427 C   0  0  0  0  0  0  0  0  0  0  0  0
   -3.5550    3.0182   -1.0973 C   0  0  0  0  0  0  0  0  0  0  0  0
   -2.5966    3.8733   -1.6411 C   0  0  0  0  0  0  0  0  0  0  0  0
   -2.8880    4.5745   -2.7695 C   0  0  0  0  0  0  0  0  0  0  0  0
   -4.1115    4.4974   -3.4398 C   0  0  0  0  0  0  0  0  0  0  0  0
   -5.0292    3.6319   -2.8570 C   0  0  0  0  0  0  0  0  0  0  0  0
   -4.7595    2.9190   -1.7260 C   0  0  0  0  0  0  0  0  0  0  0  0
   -3.3176   -0.1928   -0.3495 C   0  0  0  0  0  0  0  0  0  0  0  0
   -2.7293   -1.0814   -1.0481 O   0  0  0  0  0  0  0  0  0  0  0  0
   -4.6355   -0.4064    0.0256 N   0  0  0  0  0  0  0  0  0  0  0  0
   -5.3757   -1.6397   -0.2994 C   0  0  1  0  0  0  0  0  0  0  0  0
   -6.3826   -1.9284    0.7471 C   0  0  0  0  0  0  0  0  0  0  0  0
   -7.1862   -3.1695    0.5981 C   0  0  0  0  0  0  0  0  0  0  0  0
   -6.3258   -4.4241    0.5939 C   0  0  0  0  0  0  0  0  0  0  0  0
   -5.5603   -4.5337    1.9131 C   0  0  0  0  0  0  0  0  0  0  0  0
   -4.7449   -5.7315    1.9215 N   0  0  0  0  0  0  0  0  0  0  0  0
   -5.9183   -1.5199   -1.6569 C   0  0  0  0  0  0  0  0  0  0  0  0
   -6.6707   -2.5221   -2.3523 N   0  0  0  0  0  0  0  0  0  0  0  0
   -5.7191   -0.4430   -2.2995 O   0  0  0  0  0  0  0  0  0  0  0  0
    4.1146   -2.4753    3.4890 H   0  0  0  0  0  0  0  0  0  0  0  0
    5.0888   -1.3368    4.4554 H   0  0  0  0  0  0  0  0  0  0  0  0
    4.2932   -0.6988    3.0184 H   0  0  0  0  0  0  0  0  0  0  0  0
    6.9317   -2.8436    4.4158 H   0  0  0  0  0  0  0  0  0  0  0  0
    9.9554   -3.0963    3.8335 H   0  0  0  0  0  0  0  0  0  0  0  0
    9.2290   -3.0573    0.8973 H   0  0  0  0  0  0  0  0  0  0  0  0
    7.1953   -0.8276   -1.0930 H   0  0  0  0  0  0  0  0  0  0  0  0
    8.6143   -1.8564   -0.9666 H   0  0  0  0  0  0  0  0  0  0  0  0
    7.1106   -2.6661   -1.3812 H   0  0  0  0  0  0  0  0  0  0  0  0
    5.3304   -0.6557   -0.4186 H   0  0  0  0  0  0  0  0  0  0  0  0
    4.6224   -0.1584    1.1121 H   0  0  0  0  0  0  0  0  0  0  0  0
    3.3742   -2.3273    1.2219 H   0  0  0  0  0  0  0  0  0  0  0  0
    4.7401   -3.8648    0.0754 H   0  0  0  0  0  0  0  0  0  0  0  0
    3.5679   -3.4313   -1.1549 H   0  0  0  0  0  0  0  0  0  0  0  0
    2.5093    0.2413    0.9771 H   0  0  0  0  0  0  0  0  0  0  0  0
    1.1673    0.1236   -1.7714 H   0  0  0  0  0  0  0  0  0  0  0  0
    0.9641    2.5488   -1.6642 H   0  0  0  0  0  0  0  0  0  0  0  0
    2.6537    1.9828   -1.6791 H   0  0  0  0  0  0  0  0  0  0  0  0
    2.6120    2.2769    0.9087 H   0  0  0  0  0  0  0  0  0  0  0  0
    0.9849    2.9758    0.7228 H   0  0  0  0  0  0  0  0  0  0  0  0
    2.6714    4.6841    0.8973 H   0  0  0  0  0  0  0  0  0  0  0  0
    3.4964    4.1523   -0.5661 H   0  0  0  0  0  0  0  0  0  0  0  0
    0.7001    4.5377   -1.2499 H   0  0  0  0  0  0  0  0  0  0  0  0
    3.2320    7.1813   -2.6491 H   0  0  0  0  0  0  0  0  0  0  0  0
    4.0004    6.5199   -1.1756 H   0  0  0  0  0  0  0  0  0  0  0  0
    0.0089    6.9715   -0.7644 H   0  0  0  0  0  0  0  0  0  0  0  0
   -1.2328    1.4642   -1.6056 H   0  0  0  0  0  0  0  0  0  0  0  0
   -2.1813    0.7888    1.1294 H   0  0  0  0  0  0  0  0  0  0  0  0
   -4.1969    2.0982    0.6947 H   0  0  0  0  0  0  0  0  0  0  0  0
   -2.6079    2.9711    0.7734 H   0  0  0  0  0  0  0  0  0  0  0  0
   -1.6181    3.9645   -1.1422 H   0  0  0  0  0  0  0  0  0  0  0  0
   -2.1649    5.2604   -3.2341 H   0  0  0  0  0  0  0  0  0  0  0  0
   -4.3484    5.0469   -4.3300 H   0  0  0  0  0  0  0  0  0  0  0  0
   -5.9982    3.5605   -3.3777 H   0  0  0  0  0  0  0  0  0  0  0  0
   -5.5370    2.2605   -1.3219 H   0  0  0  0  0  0  0  0  0  0  0  0
   -5.1611    0.3084    0.5610 H   0  0  0  0  0  0  0  0  0  0  0  0
   -4.6246   -2.4806   -0.3560 H   0  0  0  0  0  0  0  0  0  0  0  0
   -5.9595   -1.8856    1.7854 H   0  0  0  0  0  0  0  0  0  0  0  0
   -7.1246   -1.0585    0.7457 H   0  0  0  0  0  0  0  0  0  0  0  0
   -7.8092   -3.1390   -0.2936 H   0  0  0  0  0  0  0  0  0  0  0  0
   -7.9021   -3.2418    1.4900 H   0  0  0  0  0  0  0  0  0  0  0  0
   -6.9906   -5.3056    0.5381 H   0  0  0  0  0  0  0  0  0  0  0  0
   -5.5861   -4.3705   -0.2093 H   0  0  0  0  0  0  0  0  0  0  0  0
   -6.3060   -4.5449    2.7560 H   0  0  0  0  0  0  0  0  0  0  0  0
   -4.9039   -3.6489    2.0041 H   0  0  0  0  0  0  0  0  0  0  0  0
   -4.8473   -6.1505    2.8974 H   0  0  0  0  0  0  0  0  0  0  0  0
   -3.7545   -5.4687    1.8429 H   0  0  0  0  0  0  0  0  0  0  0  0
   -7.5884   -2.2192   -2.7738 H   0  0  0  0  0  0  0  0  0  0  0  0
   -6.3799   -3.5092   -2.4669 H   0  0  0  0  0  0  0  0  0  0  0  0
  1  2  1  0
  2  3  2  0
  3  4  1  0
  4  5  1  0
  4  6  2  0
  6  7  1  0
  7  8  1  0
  7  9  2  0
  9 10  1  0
 10 11  1  0
 11 12  1  0
 11 13  1  0
 13 14  2  0
 13 15  1  0
 15 16  1  0
 16 17  1  0
 17 18  1  0
 18 19  1  0
 19 20  1  0
 20 21  1  0
 21 22  1  0
 21 23  2  3
 16 24  1  0
 24 25  2  0
 24 26  1  0
 26 27  1  0
 27 28  1  0
 28 29  1  0
 29 30  2  0
 30 31  1  0
 31 32  2  0
 32 33  1  0
 33 34  2  0
 27 35  1  0
 35 36  2  0
 35 37  1  0
 37 38  1  0
 38 39  1  0
 39 40  1  0
 40 41  1  0
 41 42  1  0
 42 43  1  0
 38 44  1  0
 44 45  1  0
 44 46  2  0
  9  2  1  0
 34 29  1  0
  1 47  1  0
  1 48  1  0
  1 49  1  0
  3 50  1  0
  5 51  1  0
  6 52  1  0
  8 53  1  0
  8 54  1  0
  8 55  1  0
 10 56  1  0
 10 57  1  0
 11 58  1  1
 12 59  1  0
 12 60  1  0
 15 61  1  0
 16 62  1  6
 17 63  1  0
 17 64  1  0
 18 65  1  0
 18 66  1  0
 19 67  1  0
 19 68  1  0
 20 69  1  0
 22 70  1  0
 22 71  1  0
 23 72  1  0
 26 73  1  0
 27 74  1  1
 28 75  1  0
 28 76  1  0
 30 77  1  0
 31 78  1  0
 32 79  1  0
 33 80  1  0
 34 81  1  0
 37 82  1  0
 38 83  1  6
 39 84  1  0
 39 85  1  0
 40 86  1  0
 40 87  1  0
 41 88  1  0
 41 89  1  0
 42 90  1  0
 42 91  1  0
 43 92  1  0
 43 93  1  0
 45 94  1  0
 45 95  1  0
M  END
$$$$
[H]OC(=O)c1nc(C(=O)O[H])c2c([H])c(O[H])c(O[H])c([H])c2c1[H]
     RDKit          3D

 25 26  0  0  0  0  0  0  0  0999 V2000
    4.1963   -1.3165    0.2032 O   0  0  0  0  0  0  0  0  0  0  0  0
    3.6743   -0.0606    0.2181 C   0  0  0  0  0  0  0  0  0  0  0  0
    4.4115    0.9532    0.2963 O   0  0  0  0  0  0  0  0  0  0  0  0
    2.2305    0.1398    0.1427 C   0  0  0  0  0  0  0  0  0  0  0  0
    1.4292   -0.9862    0.0569 C   0  0  0  0  0  0  0  0  0  0  0  0
    0.0827   -0.8131   -0.0139 C   0  0  0  0  0  0  0  0  0  0  0  0
   -0.7525   -1.8876   -0.0998 C   0  0  0  0  0  0  0  0  0  0  0  0
   -2.1347   -1.7680   -0.1745 C   0  0  0  0  0  0  0  0  0  0  0  0
   -2.9221   -2.8753   -0.2588 O   0  0  0  0  0  0  0  0  0  0  0  0
   -2.6345   -0.5005   -0.1579 C   0  0  0  0  0  0  0  0  0  0  0  0
   -4.0178   -0.2849   -0.2292 O   0  0  0  0  0  0  0  0  0  0  0  0
   -1.8334    0.6222   -0.0722 C   0  0  0  0  0  0  0  0  0  0  0  0
   -0.4695    0.4846    0.0008 C   0  0  0  0  0  0  0  0  0  0  0  0
    0.3383    1.5948    0.0865 C   0  0  0  0  0  0  0  0  0  0  0  0
    1.6925    1.3632    0.1556 N   0  0  0  0  0  0  0  0  0  0  0  0
   -0.1536    2.9464    0.1064 C   0  0  0  0  0  0  0  0  0  0  0  0
    0.8464    3.9556    0.1996 O   0  0  0  0  0  0  0  0  0  0  0  0
   -1.2927    3.4034    0.0576 O   0  0  0  0  0  0  0  0  0  0  0  0
    5.0412   -1.5342    0.7149 H   0  0  0  0  0  0  0  0  0  0  0  0
    1.8772   -1.9802    0.0471 H   0  0  0  0  0  0  0  0  0  0  0  0
   -0.3053   -2.8891   -0.1099 H   0  0  0  0  0  0  0  0  0  0  0  0
   -3.9173   -2.9249   -0.3174 H   0  0  0  0  0  0  0  0  0  0  0  0
   -4.6347   -1.0700   -0.2923 H   0  0  0  0  0  0  0  0  0  0  0  0
   -2.3311    1.5621   -0.0672 H   0  0  0  0  0  0  0  0  0  0  0  0
    1.5793    3.8657   -0.4926 H   0  0  0  0  0  0  0  0  0  0  0  0
  1  2  1  0
  2  3  2  0
  2  4  1  0
  4  5  2  0
  5  6  1  0
  6  7  2  0
  7  8  1  0
  8  9  1  0
  8 10  2  0
 10 11  1  0
 10 12  1  0
 12 13  2  0
 13 14  1  0
 14 15  2  0
 14 16  1  0
 16 17  1  0
 16 18  2  0
 15  4  1  0
 13  6  1  0
  1 19  1  0
  5 20  1  0
  7 21  1  0
  9 22  1  0
 11 23  1  0
 12 24  1  0
 17 25  1  0
M  END
$$$$
[H]c1c([H])c(N([H])c2nc([H])c3c(C(=O)N([H])[H])nn(C([H])(C([H])([H])[H])C([H])([H])[H])c3n2)c([H])c([H])c1F
     RDKit          3D

 38 40  0  0  0  0  0  0  0  0999 V2000
   -1.9236    0.4506    3.0096 C   0  0  0  0  0  0  0  0  0  0  0  0
   -2.1069    1.8405    2.4937 C   0  0  0  0  0  0  0  0  0  0  0  0
   -3.5529    2.2854    2.6872 C   0  0  0  0  0  0  0  0  0  0  0  0
   -1.8039    1.8525    1.0783 N   0  0  0  0  0  0  0  0  0  0  0  0
   -2.3882    2.6576    0.2174 N   0  0  0  0  0  0  0  0  0  0  0  0
   -1.8968    2.4331   -1.0201 C   0  0  0  0  0  0  0  0  0  0  0  0
   -2.2861    3.1157   -2.2271 C   0  0  0  0  0  0  0  0  0  0  0  0
   -1.7461    2.8497   -3.5038 N   0  0  0  0  0  0  0  0  0  0  0  0
   -3.1819    4.0213   -2.1216 O   0  0  0  0  0  0  0  0  0  0  0  0
   -0.9627    1.4315   -0.8813 C   0  0  0  0  0  0  0  0  0  0  0  0
   -0.1203    0.7561   -1.7442 C   0  0  0  0  0  0  0  0  0  0  0  0
    0.7004   -0.2055   -1.2692 N   0  0  0  0  0  0  0  0  0  0  0  0
    0.7709   -0.5735    0.0083 C   0  0  0  0  0  0  0  0  0  0  0  0
    1.6263   -1.5790    0.5147 N   0  0  0  0  0  0  0  0  0  0  0  0
    2.5537   -2.3603   -0.2022 C   0  0  0  0  0  0  0  0  0  0  0  0
    3.0117   -3.5366    0.4161 C   0  0  0  0  0  0  0  0  0  0  0  0
    3.9277   -4.3695   -0.1758 C   0  0  0  0  0  0  0  0  0  0  0  0
    4.4442   -4.0842   -1.4177 C   0  0  0  0  0  0  0  0  0  0  0  0
    5.3619   -4.9210   -2.0099 F   0  0  0  0  0  0  0  0  0  0  0  0
    4.0161   -2.9429   -2.0452 C   0  0  0  0  0  0  0  0  0  0  0  0
    3.0805   -2.0976   -1.4334 C   0  0  0  0  0  0  0  0  0  0  0  0
   -0.0642    0.0985    0.8533 N   0  0  0  0  0  0  0  0  0  0  0  0
   -0.9026    1.0630    0.4454 C   0  0  0  0  0  0  0  0  0  0  0  0
   -2.5621    0.3369    3.9098 H   0  0  0  0  0  0  0  0  0  0  0  0
   -0.8698    0.2613    3.3120 H   0  0  0  0  0  0  0  0  0  0  0  0
   -2.1988   -0.3097    2.2697 H   0  0  0  0  0  0  0  0  0  0  0  0
   -1.4488    2.5383    3.0559 H   0  0  0  0  0  0  0  0  0  0  0  0
   -4.0085    1.7858    3.5732 H   0  0  0  0  0  0  0  0  0  0  0  0
   -4.1148    2.0090    1.7512 H   0  0  0  0  0  0  0  0  0  0  0  0
   -3.6200    3.3831    2.8139 H   0  0  0  0  0  0  0  0  0  0  0  0
   -0.8880    3.3245   -3.8531 H   0  0  0  0  0  0  0  0  0  0  0  0
   -2.2690    2.1344   -4.0879 H   0  0  0  0  0  0  0  0  0  0  0  0
   -0.1430    1.0195   -2.7839 H   0  0  0  0  0  0  0  0  0  0  0  0
    1.5335   -1.7365    1.5844 H   0  0  0  0  0  0  0  0  0  0  0  0
    2.6081   -3.7786    1.4073 H   0  0  0  0  0  0  0  0  0  0  0  0
    4.2577   -5.2727    0.3367 H   0  0  0  0  0  0  0  0  0  0  0  0
    4.3949   -2.6871   -3.0120 H   0  0  0  0  0  0  0  0  0  0  0  0
    2.7713   -1.1938   -1.9497 H   0  0  0  0  0  0  0  0  0  0  0  0
  1  2  1  0
  2  3  1  0
  2  4  1  0
  4  5  1  0
  5  6  2  0
  6  7  1  0
  7  8  1  0
  7  9  2  0
  6 10  1  0
 10 11  2  0
 11 12  1  0
 12 13  2  0
 13 14  1  0
 14 15  1  0
 15 16  2  0
 16 17  1  0
 17 18  2  0
 18 19  1  0
 18 20  1  0
 20 21  2  0
 13 22  1  0
 22 23  2  0
 23  4  1  0
 23 10  1  0
 21 15  1  0
  1 24  1  0
  1 25  1  0
  1 26  1  0
  2 27  1  0
  3 28  1  0
  3 29  1  0
  3 30  1  0
  8 31  1  0
  8 32  1  0
 11 33  1  0
 14 34  1  0
 16 35  1  0
 17 36  1  0
 20 37  1  0
 21 38  1  0
M  END
$$$$
[H]O[C@@]([H])(C([H])([H])C(=O)N([H])[C@]([H])(C(=O)N([H])[C@@]([H])(C([H])([H])C([H])(C([H])([H])[H])C([H])([H])[H])C([H])(C([H])([H])[H])C([H])([H])[H])C([H])([H])[H])[C@@]([H])(N([H])C(=O)[C@@]([H])(N([H])C(=O)C([H])([H])C([H])(C([H])([H])[H])C([H])([H])[H])C([H])(C([H])([H])[H])C([H])([H])[H])C([H])(C([H])([H])[H])C([H])([H])[H]
     RDKit          3D

 91 90  0  0  0  0  0  0  0  0999 V2000
   -8.5135    2.5854    0.4722 C   0  0  0  0  0  0  0  0  0  0  0  0
   -7.3755    1.5146    0.1157 C   0  0  0  0  0  0  0  0  0  0  0  0
   -7.5501    1.4295   -1.3773 C   0  0  0  0  0  0  0  0  0  0  0  0
   -7.6519    0.3547    0.9435 C   0  0  0  0  0  0  0  0  0  0  0  0
   -6.9184   -0.8914    1.0984 C   0  0  2  0  0  0  0  0  0  0  0  0
   -5.5409   -0.7565    1.5730 N   0  0  0  0  0  0  0  0  0  0  0  0
   -5.0153    0.2478    2.3735 C   0  0  0  0  0  0  0  0  0  0  0  0
   -5.6750    1.2404    2.8052 O   0  0  0  0  0  0  0  0  0  0  0  0
   -3.5469    0.1378    2.7259 C   0  0  2  0  0  0  0  0  0  0  0  0
   -3.2638    1.2242    3.7775 C   0  0  0  0  0  0  0  0  0  0  0  0
   -2.7456    0.4456    1.5527 N   0  0  0  0  0  0  0  0  0  0  0  0
   -1.4395   -0.1056    1.4714 C   0  0  0  0  0  0  0  0  0  0  0  0
   -0.9748   -0.7730    2.4067 O   0  0  0  0  0  0  0  0  0  0  0  0
   -0.6271    0.1130    0.2410 C   0  0  0  0  0  0  0  0  0  0  0  0
    0.8236   -0.3661    0.4314 C   0  0  2  0  0  0  0  0  0  0  0  0
    1.3254    0.4568    1.4094 O   0  0  0  0  0  0  0  0  0  0  0  0
    1.5119   -0.4154   -0.8752 C   0  0  1  0  0  0  0  0  0  0  0  0
    2.9419   -0.7533   -0.7766 N   0  0  0  0  0  0  0  0  0  0  0  0
    3.9232    0.0069   -1.4071 C   0  0  0  0  0  0  0  0  0  0  0  0
    3.5608    1.0452   -2.0605 O   0  0  0  0  0  0  0  0  0  0  0  0
    5.3708   -0.2574   -1.4059 C   0  0  1  0  0  0  0  0  0  0  0  0
    6.0787    0.9502   -1.3115 N   0  0  0  0  0  0  0  0  0  0  0  0
    6.9722    1.4727   -0.4022 C   0  0  0  0  0  0  0  0  0  0  0  0
    7.3070    0.8634    0.6316 O   0  0  0  0  0  0  0  0  0  0  0  0
    7.6167    2.8181   -0.5867 C   0  0  0  0  0  0  0  0  0  0  0  0
    8.5227    3.1833    0.5634 C   0  0  0  0  0  0  0  0  0  0  0  0
    9.6481    2.1986    0.7607 C   0  0  0  0  0  0  0  0  0  0  0  0
    7.7756    3.3762    1.8515 C   0  0  0  0  0  0  0  0  0  0  0  0
    5.8221   -1.5051   -0.7334 C   0  0  0  0  0  0  0  0  0  0  0  0
    5.1584   -2.7294   -1.4385 C   0  0  0  0  0  0  0  0  0  0  0  0
    7.3083   -1.7535   -0.7378 C   0  0  0  0  0  0  0  0  0  0  0  0
    0.8382   -1.4463   -1.7820 C   0  0  0  0  0  0  0  0  0  0  0  0
    1.4633   -1.5996   -3.1219 C   0  0  0  0  0  0  0  0  0  0  0  0
    0.7537   -2.7921   -1.1040 C   0  0  0  0  0  0  0  0  0  0  0  0
   -6.9348   -1.9633    0.0880 C   0  0  0  0  0  0  0  0  0  0  0  0
   -6.3558   -1.6612   -1.2585 C   0  0  0  0  0  0  0  0  0  0  0  0
   -8.2805   -2.6543   -0.0933 C   0  0  0  0  0  0  0  0  0  0  0  0
   -8.4474    2.8310    1.5249 H   0  0  0  0  0  0  0  0  0  0  0  0
   -8.3891    3.4188   -0.2352 H   0  0  0  0  0  0  0  0  0  0  0  0
   -9.4364    2.0471    0.2229 H   0  0  0  0  0  0  0  0  0  0  0  0
   -6.4628    2.1068    0.2979 H   0  0  0  0  0  0  0  0  0  0  0  0
   -6.5744    1.3224   -1.9213 H   0  0  0  0  0  0  0  0  0  0  0  0
   -8.2557    0.7077   -1.7449 H   0  0  0  0  0  0  0  0  0  0  0  0
   -7.9239    2.4302   -1.7857 H   0  0  0  0  0  0  0  0  0  0  0  0
   -7.8374    0.7660    2.0100 H   0  0  0  0  0  0  0  0  0  0  0  0
   -8.7586    0.0025    0.7426 H   0  0  0  0  0  0  0  0  0  0  0  0
   -7.4180   -1.3564    2.0635 H   0  0  0  0  0  0  0  0  0  0  0  0
   -4.8798   -1.5312    1.2520 H   0  0  0  0  0  0  0  0  0  0  0  0
   -3.3214   -0.8276    3.1147 H   0  0  0  0  0  0  0  0  0  0  0  0
   -4.1608    1.4467    4.3538 H   0  0  0  0  0  0  0  0  0  0  0  0
   -2.4132    0.8856    4.3926 H   0  0  0  0  0  0  0  0  0  0  0  0
   -2.8840    2.1156    3.1962 H   0  0  0  0  0  0  0  0  0  0  0  0
   -3.0912    1.0488    0.7877 H   0  0  0  0  0  0  0  0  0  0  0  0
   -0.5999    1.2105    0.0463 H   0  0  0  0  0  0  0  0  0  0  0  0
   -1.1456   -0.3461   -0.5909 H   0  0  0  0  0  0  0  0  0  0  0  0
    0.7246   -1.3877    0.8826 H   0  0  0  0  0  0  0  0  0  0  0  0
    1.8109    1.2393    1.0743 H   0  0  0  0  0  0  0  0  0  0  0  0
    1.4372    0.5406   -1.3889 H   0  0  0  0  0  0  0  0  0  0  0  0
    3.2189   -1.5674   -0.1957 H   0  0  0  0  0  0  0  0  0  0  0  0
    5.5756   -0.5725   -2.5426 H   0  0  0  0  0  0  0  0  0  0  0  0
    5.8764    1.6460   -2.1520 H   0  0  0  0  0  0  0  0  0  0  0  0
    8.2434    2.7713   -1.4968 H   0  0  0  0  0  0  0  0  0  0  0  0
    6.9062    3.6255   -0.7344 H   0  0  0  0  0  0  0  0  0  0  0  0
    9.0334    4.1624    0.3240 H   0  0  0  0  0  0  0  0  0  0  0  0
    9.8870    1.6565   -0.2033 H   0  0  0  0  0  0  0  0  0  0  0  0
   10.5995    2.7042    1.0258 H   0  0  0  0  0  0  0  0  0  0  0  0
    9.4385    1.4783    1.5679 H   0  0  0  0  0  0  0  0  0  0  0  0
    8.2568    4.2211    2.4006 H   0  0  0  0  0  0  0  0  0  0  0  0
    7.8018    2.4985    2.5322 H   0  0  0  0  0  0  0  0  0  0  0  0
    6.7403    3.6954    1.6030 H   0  0  0  0  0  0  0  0  0  0  0  0
    5.4543   -1.5292    0.2964 H   0  0  0  0  0  0  0  0  0  0  0  0
    4.6747   -3.3398   -0.6970 H   0  0  0  0  0  0  0  0  0  0  0  0
    5.9589   -3.2954   -1.9802 H   0  0  0  0  0  0  0  0  0  0  0  0
    4.4204   -2.3097   -2.1362 H   0  0  0  0  0  0  0  0  0  0  0  0
    7.8834   -1.0902   -1.3801 H   0  0  0  0  0  0  0  0  0  0  0  0
    7.4861   -2.7913   -1.1902 H   0  0  0  0  0  0  0  0  0  0  0  0
    7.6489   -1.8859    0.2975 H   0  0  0  0  0  0  0  0  0  0  0  0
   -0.1870   -1.0928   -1.9563 H   0  0  0  0  0  0  0  0  0  0  0  0
    2.4131   -1.0863   -3.2431 H   0  0  0  0  0  0  0  0  0  0  0  0
    1.7145   -2.7028   -3.2831 H   0  0  0  0  0  0  0  0  0  0  0  0
    0.7481   -1.3786   -3.9602 H   0  0  0  0  0  0  0  0  0  0  0  0
   -0.0781   -2.8902   -0.4139 H   0  0  0  0  0  0  0  0  0  0  0  0
    1.7417   -3.0159   -0.6552 H   0  0  0  0  0  0  0  0  0  0  0  0
    0.6338   -3.5479   -1.9141 H   0  0  0  0  0  0  0  0  0  0  0  0
   -6.2770   -2.7984    0.5140 H   0  0  0  0  0  0  0  0  0  0  0  0
   -7.0981   -1.5152   -2.0574 H   0  0  0  0  0  0  0  0  0  0  0  0
   -5.7446   -2.5567   -1.6399 H   0  0  0  0  0  0  0  0  0  0  0  0
   -5.5675   -0.8623   -1.2290 H   0  0  0  0  0  0  0  0  0  0  0  0
   -8.4379   -3.3565    0.7144 H   0  0  0  0  0  0  0  0  0  0  0  0
   -9.0938   -1.9336   -0.2891 H   0  0  0  0  0  0  0  0  0  0  0  0
   -8.1579   -3.2518   -1.0417 H   0  0  0  0  0  0  0  0  0  0  0  0
  1  2  1  0
  2  3  1  0
  2  4  1  0
  4  5  1  0
  5  6  1  0
  6  7  1  0
  7  8  2  0
  7  9  1  0
  9 10  1  0
  9 11  1  0
 11 12  1  0
 12 13  2  0
 12 14  1  0
 14 15  1  0
 15 16  1  0
 15 17  1  0
 17 18  1  0
 18 19  1  0
 19 20  2  0
 19 21  1  0
 21 22  1  0
 22 23  1  0
 23 24  2  0
 23 25  1  0
 25 26  1  0
 26 27  1  0
 26 28  1  0
 21 29  1  0
 29 30  1  0
 29 31  1  0
 17 32  1  0
 32 33  1  0
 32 34  1  0
  5 35  1  0
 35 36  1  0
 35 37  1  0
  1 38  1  0
  1 39  1  0
  1 40  1  0
  2 41  1  0
  3 42  1  0
  3 43  1  0
  3 44  1  0
  4 45  1  0
  4 46  1  0
  5 47  1  1
  6 48  1  0
  9 49  1  1
 10 50  1  0
 10 51  1  0
 10 52  1  0
 11 53  1  0
 14 54  1  0
 14 55  1  0
 15 56  1  1
 16 57  1  0
 17 58  1  6
 18 59  1  0
 21 60  1  6
 22 61  1  0
 25 62  1  0
 25 63  1  0
 26 64  1  0
 27 65  1  0
 27 66  1  0
 27 67  1  0
 28 68  1  0
 28 69  1  0
 28 70  1  0
 29 71  1  0
 30 72  1  0
 30 73  1  0
 30 74  1  0
 31 75  1  0
 31 76  1  0
 31 77  1  0
 32 78  1  0
 33 79  1  0
 33 80  1  0
 33 81  1  0
 34 82  1  0
 34 83  1  0
 34 84  1  0
 35 85  1  0
 36 86  1  0
 36 87  1  0
 36 88  1  0
 37 89  1  0
 37 90  1  0
 37 91  1  0
M  END
$$$$
[H]c1c([H])c([H])c(C2([H])C(C(=O)OC([H])([H])[H])=C(C([H])([H])[H])N([H])C(C([H])([H])[H])=C2C(=O)OC([H])([H])[H])c([H])c1[H]
     RDKit          3D

 41 42  0  0  0  0  0  0  0  0999 V2000
    4.7904    1.0051   -0.3403 C   0  0  0  0  0  0  0  0  0  0  0  0
    3.7203    0.3470    0.3005 O   0  0  0  0  0  0  0  0  0  0  0  0
    2.4064    0.6482    0.0918 C   0  0  0  0  0  0  0  0  0  0  0  0
    2.2042    1.5931   -0.7465 O   0  0  0  0  0  0  0  0  0  0  0  0
    1.2427   -0.0066    0.7338 C   0  0  0  0  0  0  0  0  0  0  0  0
    1.4679   -0.9587    1.5928 C   0  0  0  0  0  0  0  0  0  0  0  0
    2.8776   -1.3976    1.9325 C   0  0  0  0  0  0  0  0  0  0  0  0
    0.4031   -1.6177    2.2848 N   0  0  0  0  0  0  0  0  0  0  0  0
   -0.9183   -1.1917    1.9910 C   0  0  0  0  0  0  0  0  0  0  0  0
   -2.0624   -1.8704    2.7236 C   0  0  0  0  0  0  0  0  0  0  0  0
   -1.1754   -0.2500    1.1211 C   0  0  0  0  0  0  0  0  0  0  0  0
   -0.1036    0.4176    0.3815 C   0  0  0  0  0  0  0  0  0  0  0  0
   -0.3370    0.3683   -1.0940 C   0  0  0  0  0  0  0  0  0  0  0  0
   -0.5325    1.5117   -1.8221 C   0  0  0  0  0  0  0  0  0  0  0  0
   -0.7513    1.5159   -3.1835 C   0  0  0  0  0  0  0  0  0  0  0  0
   -0.7776    0.3194   -3.8603 C   0  0  0  0  0  0  0  0  0  0  0  0
   -0.5830   -0.8401   -3.1447 C   0  0  0  0  0  0  0  0  0  0  0  0
   -0.3649   -0.8216   -1.7780 C   0  0  0  0  0  0  0  0  0  0  0  0
   -2.5883    0.1732    0.8883 C   0  0  0  0  0  0  0  0  0  0  0  0
   -3.5809   -0.3013    1.4508 O   0  0  0  0  0  0  0  0  0  0  0  0
   -2.8325    1.1780   -0.0253 O   0  0  0  0  0  0  0  0  0  0  0  0
   -4.1678    1.6321   -0.2934 C   0  0  0  0  0  0  0  0  0  0  0  0
    5.3148    1.7098    0.3356 H   0  0  0  0  0  0  0  0  0  0  0  0
    4.4521    1.5073   -1.2726 H   0  0  0  0  0  0  0  0  0  0  0  0
    5.5540    0.2520   -0.6619 H   0  0  0  0  0  0  0  0  0  0  0  0
    2.7902   -2.2088    2.7176 H   0  0  0  0  0  0  0  0  0  0  0  0
    3.4221   -0.5840    2.3807 H   0  0  0  0  0  0  0  0  0  0  0  0
    3.3129   -1.8083    1.0123 H   0  0  0  0  0  0  0  0  0  0  0  0
    0.5799   -2.3776    2.9754 H   0  0  0  0  0  0  0  0  0  0  0  0
   -1.5934   -2.6736    3.3896 H   0  0  0  0  0  0  0  0  0  0  0  0
   -2.6869   -2.3866    1.9889 H   0  0  0  0  0  0  0  0  0  0  0  0
   -2.5743   -1.1659    3.3652 H   0  0  0  0  0  0  0  0  0  0  0  0
   -0.1588    1.5086    0.6834 H   0  0  0  0  0  0  0  0  0  0  0  0
   -0.5160    2.4721   -1.3078 H   0  0  0  0  0  0  0  0  0  0  0  0
   -0.9049    2.4242   -3.7518 H   0  0  0  0  0  0  0  0  0  0  0  0
   -0.9511    0.3049   -4.9478 H   0  0  0  0  0  0  0  0  0  0  0  0
   -0.6089   -1.7650   -3.7023 H   0  0  0  0  0  0  0  0  0  0  0  0
   -0.2216   -1.7479   -1.2822 H   0  0  0  0  0  0  0  0  0  0  0  0
   -4.2084    2.1641   -1.2609 H   0  0  0  0  0  0  0  0  0  0  0  0
   -4.8119    0.7152   -0.4291 H   0  0  0  0  0  0  0  0  0  0  0  0
   -4.5269    2.2057    0.5632 H   0  0  0  0  0  0  0  0  0  0  0  0
  1  2  1  0
  2  3  1  0
  3  4  2  0
  3  5  1  0
  5  6  2  0
  6  7  1  0
  6  8  1  0
  8  9  1  0
  9 10  1  0
  9 11  2  0
 11 12  1  0
 12 13  1  0
 13 14  2  0
 14 15  1  0
 15 16  2  0
 16 17  1  0
 17 18  2  0
 11 19  1  0
 19 20  2  0
 19 21  1  0
 21 22  1  0
 12  5  1  0
 18 13  1  0
  1 23  1  0
  1 24  1  0
  1 25  1  0
  7 26  1  0
  7 27  1  0
  7 28  1  0
  8 29  1  0
 10 30  1  0
 10 31  1  0
 10 32  1  0
 12 33  1  0
 14 34  1  0
 15 35  1  0
 16 36  1  0
 17 37  1  0
 18 38  1  0
 22 39  1  0
 22 40  1  0
 22 41  1  0
M  END
$$$$
[H]N=C(N([H])[H])N([H])C([H])([H])C([H])([H])C([H])([H])[C@@]1([H])C(=O)N([H])[C@@]([H])(C([H])([H])c2c([H])c([H])c([H])c([H])c2[H])C(=O)N([H])[C@@]([H])(C([H])([H])c2c([H])c([H])c([H])c([H])c2[H])C(=O)N2C([H])([H])C([H])([H])C([H])([H])[C@@]2([H])C(=O)N([H])C([H])([H])C(=O)N([H])[C@]([H])(C([H])([H])c2c([H])c([H])c([H])c([H])c2[H])C(=O)N1[H]
     RDKit          3D

104108  0  0  0  0  0  0  0  0999 V2000
   -7.1041    3.9793    2.6077 N   0  0  0  0  0  0  0  0  0  0  0  0
   -6.1236    4.2593    1.6277 C   0  0  0  0  0  0  0  0  0  0  0  0
   -6.3887    4.9971    0.5835 N   0  0  0  0  0  0  0  0  0  0  0  0
   -4.8262    3.7143    1.8016 N   0  0  0  0  0  0  0  0  0  0  0  0
   -4.3967    2.4774    1.1960 C   0  0  0  0  0  0  0  0  0  0  0  0
   -2.9739    2.1572    1.5552 C   0  0  0  0  0  0  0  0  0  0  0  0
   -2.4862    0.8510    0.9510 C   0  0  0  0  0  0  0  0  0  0  0  0
   -2.5538    0.9281   -0.5506 C   0  0  2  0  0  0  0  0  0  0  0  0
   -2.1187   -0.2077   -1.2709 N   0  0  0  0  0  0  0  0  0  0  0  0
   -2.5022   -1.5608   -1.1948 C   0  0  0  0  0  0  0  0  0  0  0  0
   -2.7209   -2.2076   -2.2873 O   0  0  0  0  0  0  0  0  0  0  0  0
   -2.6936   -2.3742    0.0243 C   0  0  1  0  0  0  0  0  0  0  0  0
   -4.1254   -2.6912    0.3570 C   0  0  0  0  0  0  0  0  0  0  0  0
   -4.8800   -3.4348   -0.6321 C   0  0  0  0  0  0  0  0  0  0  0  0
   -5.6293   -2.8083   -1.6027 C   0  0  0  0  0  0  0  0  0  0  0  0
   -6.3375   -3.5724   -2.5209 C   0  0  0  0  0  0  0  0  0  0  0  0
   -6.3114   -4.9512   -2.4878 C   0  0  0  0  0  0  0  0  0  0  0  0
   -5.5608   -5.5934   -1.5156 C   0  0  0  0  0  0  0  0  0  0  0  0
   -4.8666   -4.8214   -0.6157 C   0  0  0  0  0  0  0  0  0  0  0  0
   -2.0116   -3.6752   -0.1071 N   0  0  0  0  0  0  0  0  0  0  0  0
   -1.0364   -4.1155    0.8427 C   0  0  0  0  0  0  0  0  0  0  0  0
   -0.7886   -5.3369    0.9816 O   0  0  0  0  0  0  0  0  0  0  0  0
   -0.3484   -3.0674    1.6384 C   0  0  0  0  0  0  0  0  0  0  0  0
    0.8112   -3.6728    2.2510 N   0  0  0  0  0  0  0  0  0  0  0  0
    2.0448   -3.9170    1.6172 C   0  0  0  0  0  0  0  0  0  0  0  0
    2.5538   -5.0811    1.7750 O   0  0  0  0  0  0  0  0  0  0  0  0
    2.8064   -2.9497    0.7850 C   0  0  2  0  0  0  0  0  0  0  0  0
    3.8083   -3.7007   -0.0905 C   0  0  0  0  0  0  0  0  0  0  0  0
    4.9672   -3.9178    0.8571 C   0  0  0  0  0  0  0  0  0  0  0  0
    4.6435   -3.1417    2.1184 C   0  0  0  0  0  0  0  0  0  0  0  0
    3.6674   -2.1470    1.6574 N   0  0  0  0  0  0  0  0  0  0  0  0
    3.4343   -0.7718    1.8558 C   0  0  0  0  0  0  0  0  0  0  0  0
    3.5723   -0.3218    3.0527 O   0  0  0  0  0  0  0  0  0  0  0  0
    3.0452    0.2127    0.8204 C   0  0  2  0  0  0  0  0  0  0  0  0
    4.2392    1.1160    0.6004 C   0  0  0  0  0  0  0  0  0  0  0  0
    5.4586    0.4571    0.1541 C   0  0  0  0  0  0  0  0  0  0  0  0
    5.7343    0.2008   -1.1734 C   0  0  0  0  0  0  0  0  0  0  0  0
    6.9189   -0.4097   -1.5845 C   0  0  0  0  0  0  0  0  0  0  0  0
    7.8618   -0.7778   -0.6419 C   0  0  0  0  0  0  0  0  0  0  0  0
    7.6076   -0.5310    0.6952 C   0  0  0  0  0  0  0  0  0  0  0  0
    6.4169    0.0786    1.0647 C   0  0  0  0  0  0  0  0  0  0  0  0
    1.9844    1.0850    1.2700 N   0  0  0  0  0  0  0  0  0  0  0  0
    1.2679    2.0591    0.6035 C   0  0  0  0  0  0  0  0  0  0  0  0
    1.0862    3.1587    1.2482 O   0  0  0  0  0  0  0  0  0  0  0  0
    0.6611    2.0729   -0.7332 C   0  0  2  0  0  0  0  0  0  0  0  0
    1.4142    2.7930   -1.8050 C   0  0  0  0  0  0  0  0  0  0  0  0
    1.6544    4.2170   -1.6141 C   0  0  0  0  0  0  0  0  0  0  0  0
    0.7125    5.1223   -2.1189 C   0  0  0  0  0  0  0  0  0  0  0  0
    0.8279    6.4792   -2.0002 C   0  0  0  0  0  0  0  0  0  0  0  0
    1.9184    7.0105   -1.3541 C   0  0  0  0  0  0  0  0  0  0  0  0
    2.8719    6.1577   -0.8411 C   0  0  0  0  0  0  0  0  0  0  0  0
    2.7267    4.7935   -0.9774 C   0  0  0  0  0  0  0  0  0  0  0  0
   -0.6589    2.6775   -0.7003 N   0  0  0  0  0  0  0  0  0  0  0  0
   -1.8918    2.1605   -1.0667 C   0  0  0  0  0  0  0  0  0  0  0  0
   -2.5489    2.8204   -1.9588 O   0  0  0  0  0  0  0  0  0  0  0  0
   -7.8036    3.2386    2.4228 H   0  0  0  0  0  0  0  0  0  0  0  0
   -7.1144    4.5126    3.4939 H   0  0  0  0  0  0  0  0  0  0  0  0
   -7.3289    5.4102    0.4264 H   0  0  0  0  0  0  0  0  0  0  0  0
   -4.1522    4.2341    2.3951 H   0  0  0  0  0  0  0  0  0  0  0  0
   -5.0482    1.6569    1.5653 H   0  0  0  0  0  0  0  0  0  0  0  0
   -4.5496    2.5718    0.1122 H   0  0  0  0  0  0  0  0  0  0  0  0
   -2.9650    1.9975    2.6744 H   0  0  0  0  0  0  0  0  0  0  0  0
   -2.2810    2.9907    1.3722 H   0  0  0  0  0  0  0  0  0  0  0  0
   -3.2884    0.1250    1.2857 H   0  0  0  0  0  0  0  0  0  0  0  0
   -1.5067    0.6335    1.3672 H   0  0  0  0  0  0  0  0  0  0  0  0
   -3.6709    1.0177   -0.7604 H   0  0  0  0  0  0  0  0  0  0  0  0
   -1.3657   -0.0238   -2.0146 H   0  0  0  0  0  0  0  0  0  0  0  0
   -2.1831   -1.9074    0.9084 H   0  0  0  0  0  0  0  0  0  0  0  0
   -4.6730   -1.7331    0.6212 H   0  0  0  0  0  0  0  0  0  0  0  0
   -4.0966   -3.2355    1.3495 H   0  0  0  0  0  0  0  0  0  0  0  0
   -5.6905   -1.7205   -1.6817 H   0  0  0  0  0  0  0  0  0  0  0  0
   -6.9236   -3.0341   -3.2805 H   0  0  0  0  0  0  0  0  0  0  0  0
   -6.8707   -5.5209   -3.2126 H   0  0  0  0  0  0  0  0  0  0  0  0
   -5.5262   -6.6790   -1.4712 H   0  0  0  0  0  0  0  0  0  0  0  0
   -4.2882   -5.3760    0.1333 H   0  0  0  0  0  0  0  0  0  0  0  0
   -2.2853   -4.2448   -0.9322 H   0  0  0  0  0  0  0  0  0  0  0  0
   -0.9713   -2.6432    2.4439 H   0  0  0  0  0  0  0  0  0  0  0  0
   -0.0380   -2.2544    0.9487 H   0  0  0  0  0  0  0  0  0  0  0  0
    0.7556   -3.9727    3.2735 H   0  0  0  0  0  0  0  0  0  0  0  0
    2.2191   -2.2713    0.1896 H   0  0  0  0  0  0  0  0  0  0  0  0
    3.3470   -4.6526   -0.4190 H   0  0  0  0  0  0  0  0  0  0  0  0
    4.0631   -3.0959   -0.9719 H   0  0  0  0  0  0  0  0  0  0  0  0
    5.0647   -4.9981    1.0549 H   0  0  0  0  0  0  0  0  0  0  0  0
    5.8701   -3.5624    0.3470 H   0  0  0  0  0  0  0  0  0  0  0  0
    4.2813   -3.7700    2.9286 H   0  0  0  0  0  0  0  0  0  0  0  0
    5.5873   -2.6764    2.4529 H   0  0  0  0  0  0  0  0  0  0  0  0
    2.7720   -0.3423   -0.1005 H   0  0  0  0  0  0  0  0  0  0  0  0
    3.9137    1.8934   -0.1546 H   0  0  0  0  0  0  0  0  0  0  0  0
    4.3729    1.7123    1.5365 H   0  0  0  0  0  0  0  0  0  0  0  0
    5.0312    0.4697   -1.9399 H   0  0  0  0  0  0  0  0  0  0  0  0
    7.1231   -0.6054   -2.6301 H   0  0  0  0  0  0  0  0  0  0  0  0
    8.7886   -1.2543   -0.9384 H   0  0  0  0  0  0  0  0  0  0  0  0
    8.3661   -0.8316    1.4017 H   0  0  0  0  0  0  0  0  0  0  0  0
    6.2423    0.2630    2.1243 H   0  0  0  0  0  0  0  0  0  0  0  0
    1.7169    0.9448    2.2943 H   0  0  0  0  0  0  0  0  0  0  0  0
    0.5327    1.0250   -1.0463 H   0  0  0  0  0  0  0  0  0  0  0  0
    0.7943    2.6761   -2.7242 H   0  0  0  0  0  0  0  0  0  0  0  0
    2.3784    2.3053   -2.0666 H   0  0  0  0  0  0  0  0  0  0  0  0
   -0.1801    4.7542   -2.6452 H   0  0  0  0  0  0  0  0  0  0  0  0
    0.0803    7.1746   -2.4023 H   0  0  0  0  0  0  0  0  0  0  0  0
    2.0808    8.0747   -1.2200 H   0  0  0  0  0  0  0  0  0  0  0  0
    3.7423    6.5943   -0.3257 H   0  0  0  0  0  0  0  0  0  0  0  0
    3.4730    4.1672   -0.5745 H   0  0  0  0  0  0  0  0  0  0  0  0
   -0.6286    3.6842   -0.3341 H   0  0  0  0  0  0  0  0  0  0  0  0
  1  2  1  0
  2  3  2  3
  2  4  1  0
  4  5  1  0
  5  6  1  0
  6  7  1  0
  7  8  1  0
  8  9  1  0
  9 10  1  0
 10 11  2  0
 10 12  1  0
 12 13  1  0
 13 14  1  0
 14 15  2  0
 15 16  1  0
 16 17  2  0
 17 18  1  0
 18 19  2  0
 12 20  1  0
 20 21  1  0
 21 22  2  0
 21 23  1  0
 23 24  1  0
 24 25  1  0
 25 26  2  0
 25 27  1  0
 27 28  1  0
 28 29  1  0
 29 30  1  0
 30 31  1  0
 31 32  1  0
 32 33  2  0
 32 34  1  0
 34 35  1  0
 35 36  1  0
 36 37  2  0
 37 38  1  0
 38 39  2  0
 39 40  1  0
 40 41  2  0
 34 42  1  0
 42 43  1  0
 43 44  2  0
 43 45  1  0
 45 46  1  0
 46 47  1  0
 47 48  2  0
 48 49  1  0
 49 50  2  0
 50 51  1  0
 51 52  2  0
 45 53  1  0
 53 54  1  0
 54 55  2  0
 54  8  1  0
 19 14  1  0
 31 27  1  0
 41 36  1  0
 52 47  1  0
  1 56  1  0
  1 57  1  0
  3 58  1  0
  4 59  1  0
  5 60  1  0
  5 61  1  0
  6 62  1  0
  6 63  1  0
  7 64  1  0
  7 65  1  0
  8 66  1  1
  9 67  1  0
 12 68  1  1
 13 69  1  0
 13 70  1  0
 15 71  1  0
 16 72  1  0
 17 73  1  0
 18 74  1  0
 19 75  1  0
 20 76  1  0
 23 77  1  0
 23 78  1  0
 24 79  1  0
 27 80  1  6
 28 81  1  0
 28 82  1  0
 29 83  1  0
 29 84  1  0
 30 85  1  0
 30 86  1  0
 34 87  1  6
 35 88  1  0
 35 89  1  0
 37 90  1  0
 38 91  1  0
 39 92  1  0
 40 93  1  0
 41 94  1  0
 42 95  1  0
 45 96  1  6
 46 97  1  0
 46 98  1  0
 48 99  1  0
 49100  1  0
 50101  1  0
 51102  1  0
 52103  1  0
 53104  1  0
M  END
$$$$
[H]c1nc([H])c(N2C([H])([H])C([H])([H])N3C([H])([H])C([H])([H])C2([H])C([H])([H])C3([H])[H])c([H])c1[H]
     RDKit          3D

 32 34  0  0  0  0  0  0  0  0999 V2000
   -1.4239    1.7615    0.4894 C   0  0  0  0  0  0  0  0  0  0  0  0
   -2.7435    1.0440    0.6276 C   0  0  0  0  0  0  0  0  0  0  0  0
   -2.4294   -0.3647    0.6545 N   0  0  0  0  0  0  0  0  0  0  0  0
   -2.0253   -0.8704   -0.6364 C   0  0  0  0  0  0  0  0  0  0  0  0
   -1.2972    0.1895   -1.4522 C   0  0  0  0  0  0  0  0  0  0  0  0
   -0.4785    0.9963   -0.4368 C   0  0  0  0  0  0  0  0  0  0  0  0
    0.3180    0.0432    0.2792 N   0  0  0  0  0  0  0  0  0  0  0  0
   -0.0987   -0.7479    1.4108 C   0  0  0  0  0  0  0  0  0  0  0  0
   -1.5501   -0.7250    1.7255 C   0  0  0  0  0  0  0  0  0  0  0  0
    1.6669   -0.2155   -0.1102 C   0  0  0  0  0  0  0  0  0  0  0  0
    2.1593    0.2460   -1.3325 C   0  0  0  0  0  0  0  0  0  0  0  0
    3.4714   -0.0368   -1.6244 C   0  0  0  0  0  0  0  0  0  0  0  0
    4.3250   -0.7376   -0.8015 C   0  0  0  0  0  0  0  0  0  0  0  0
    3.8168   -1.1665    0.3666 N   0  0  0  0  0  0  0  0  0  0  0  0
    2.5293   -0.9167    0.7078 C   0  0  0  0  0  0  0  0  0  0  0  0
   -0.9084    1.9451    1.4264 H   0  0  0  0  0  0  0  0  0  0  0  0
   -1.6388    2.7286    0.0026 H   0  0  0  0  0  0  0  0  0  0  0  0
   -3.4130    1.2443   -0.2213 H   0  0  0  0  0  0  0  0  0  0  0  0
   -3.2486    1.3329    1.5505 H   0  0  0  0  0  0  0  0  0  0  0  0
   -2.9490   -1.1273   -1.1949 H   0  0  0  0  0  0  0  0  0  0  0  0
   -1.4243   -1.7722   -0.5022 H   0  0  0  0  0  0  0  0  0  0  0  0
   -2.0279    0.8065   -1.9731 H   0  0  0  0  0  0  0  0  0  0  0  0
   -0.6217   -0.3024   -2.1669 H   0  0  0  0  0  0  0  0  0  0  0  0
    0.0704    1.7512   -0.9972 H   0  0  0  0  0  0  0  0  0  0  0  0
    0.2533   -1.7905    1.2280 H   0  0  0  0  0  0  0  0  0  0  0  0
    0.4463   -0.3801    2.3018 H   0  0  0  0  0  0  0  0  0  0  0  0
   -1.8462   -1.7635    2.0516 H   0  0  0  0  0  0  0  0  0  0  0  0
   -1.7880   -0.0702    2.5910 H   0  0  0  0  0  0  0  0  0  0  0  0
    1.5010    0.7825   -1.9676 H   0  0  0  0  0  0  0  0  0  0  0  0
    3.8486    0.3313   -2.5886 H   0  0  0  0  0  0  0  0  0  0  0  0
    5.3649   -0.9375   -1.0803 H   0  0  0  0  0  0  0  0  0  0  0  0
    2.1413   -1.2780    1.6728 H   0  0  0  0  0  0  0  0  0  0  0  0
  1  2  1  0
  2  3  1  0
  3  4  1  0
  4  5  1  0
  5  6  1  0
  6  7  1  0
  7  8  1  0
  8  9  1  0
  7 10  1  0
 10 11  2  0
 11 12  1  0
 12 13  2  0
 13 14  1  0
 14 15  2  0
  6  1  1  0
 15 10  1  0
  9  3  1  0
  1 16  1  0
  1 17  1  0
  2 18  1  0
  2 19  1  0
  4 20  1  0
  4 21  1  0
  5 22  1  0
  5 23  1  0
  6 24  1  0
  8 25  1  0
  8 26  1  0
  9 27  1  0
  9 28  1  0
 11 29  1  0
 12 30  1  0
 13 31  1  0
 15 32  1  0
M  END
$$$$
[H]/C(C(=O)N1C([H])([H])C([H])([H])C([H])([H])[C@@]([H])(n2nc(-c3c([H])c([H])c(Oc4c([H])c([H])c([H])c([H])c4[H])c([H])c3[H])c3c(N([H])[H])nc([H])nc32)C1([H])[H])=C(/[H])C([H])([H])N(C([H])([H])[H])C([H])([H])[H]
     RDKit          3D

 68 72  0  0  0  0  0  0  0  0999 V2000
   -6.2361    3.7076   -0.3725 C   0  0  0  0  0  0  0  0  0  0  0  0
   -7.1462    3.2511    0.6535 N   0  0  0  0  0  0  0  0  0  0  0  0
   -8.3764    2.7490    0.0474 C   0  0  0  0  0  0  0  0  0  0  0  0
   -6.5490    2.1900    1.4787 C   0  0  0  0  0  0  0  0  0  0  0  0
   -6.3625    0.9536    0.7025 C   0  0  0  0  0  0  0  0  0  0  0  0
   -5.1945    0.3581    0.4935 C   0  0  0  0  0  0  0  0  0  0  0  0
   -5.1198   -0.8680   -0.2939 C   0  0  0  0  0  0  0  0  0  0  0  0
   -6.2034   -1.3272   -0.7618 O   0  0  0  0  0  0  0  0  0  0  0  0
   -3.9018   -1.5379   -0.5407 N   0  0  0  0  0  0  0  0  0  0  0  0
   -3.9287   -2.7570   -1.3481 C   0  0  0  0  0  0  0  0  0  0  0  0
   -2.9077   -2.6693   -2.4723 C   0  0  0  0  0  0  0  0  0  0  0  0
   -1.5723   -2.2270   -1.9672 C   0  0  0  0  0  0  0  0  0  0  0  0
   -1.6225   -2.1903   -0.4493 C   0  0  2  0  0  0  0  0  0  0  0  0
   -2.6049   -1.1151   -0.0527 C   0  0  0  0  0  0  0  0  0  0  0  0
   -0.2922   -1.9324    0.0755 N   0  0  0  0  0  0  0  0  0  0  0  0
    0.7816   -1.5326   -0.5599 N   0  0  0  0  0  0  0  0  0  0  0  0
    1.8504   -1.4170    0.2793 C   0  0  0  0  0  0  0  0  0  0  0  0
    3.1890   -1.0317   -0.1183 C   0  0  0  0  0  0  0  0  0  0  0  0
    3.8645   -1.7689   -1.0932 C   0  0  0  0  0  0  0  0  0  0  0  0
    5.1139   -1.3832   -1.5274 C   0  0  0  0  0  0  0  0  0  0  0  0
    5.7213   -0.2520   -0.9995 C   0  0  0  0  0  0  0  0  0  0  0  0
    6.9959    0.1100   -1.4653 O   0  0  0  0  0  0  0  0  0  0  0  0
    7.5965    1.2372   -0.9131 C   0  0  0  0  0  0  0  0  0  0  0  0
    8.3892    1.1539    0.2129 C   0  0  0  0  0  0  0  0  0  0  0  0
    8.9896    2.2625    0.7696 C   0  0  0  0  0  0  0  0  0  0  0  0
    8.8220    3.5157    0.2183 C   0  0  0  0  0  0  0  0  0  0  0  0
    8.0300    3.6148   -0.9112 C   0  0  0  0  0  0  0  0  0  0  0  0
    7.4295    2.5047   -1.4671 C   0  0  0  0  0  0  0  0  0  0  0  0
    5.0616    0.4701   -0.0468 C   0  0  0  0  0  0  0  0  0  0  0  0
    3.8142    0.0734    0.3767 C   0  0  0  0  0  0  0  0  0  0  0  0
    1.4287   -1.7669    1.5236 C   0  0  0  0  0  0  0  0  0  0  0  0
    2.0332   -1.8690    2.7670 C   0  0  0  0  0  0  0  0  0  0  0  0
    3.4164   -1.5956    2.9550 N   0  0  0  0  0  0  0  0  0  0  0  0
    1.2620   -2.2789    3.7987 N   0  0  0  0  0  0  0  0  0  0  0  0
   -0.0362   -2.5883    3.6838 C   0  0  0  0  0  0  0  0  0  0  0  0
   -0.5883   -2.4813    2.4681 N   0  0  0  0  0  0  0  0  0  0  0  0
    0.0712   -2.0877    1.3740 C   0  0  0  0  0  0  0  0  0  0  0  0
   -5.2109    3.6468    0.0390 H   0  0  0  0  0  0  0  0  0  0  0  0
   -6.3421    3.1163   -1.3225 H   0  0  0  0  0  0  0  0  0  0  0  0
   -6.4184    4.7538   -0.6572 H   0  0  0  0  0  0  0  0  0  0  0  0
   -8.9315    2.2146    0.8217 H   0  0  0  0  0  0  0  0  0  0  0  0
   -8.9061    3.6352   -0.3684 H   0  0  0  0  0  0  0  0  0  0  0  0
   -8.1510    2.1015   -0.8297 H   0  0  0  0  0  0  0  0  0  0  0  0
   -7.2672    2.0680    2.3335 H   0  0  0  0  0  0  0  0  0  0  0  0
   -5.5998    2.5533    1.9084 H   0  0  0  0  0  0  0  0  0  0  0  0
   -7.2486    0.4942    0.2679 H   0  0  0  0  0  0  0  0  0  0  0  0
   -4.2963    0.8077    0.9240 H   0  0  0  0  0  0  0  0  0  0  0  0
   -3.8547   -3.6733   -0.7631 H   0  0  0  0  0  0  0  0  0  0  0  0
   -4.9231   -2.8277   -1.8865 H   0  0  0  0  0  0  0  0  0  0  0  0
   -3.3392   -1.9281   -3.2089 H   0  0  0  0  0  0  0  0  0  0  0  0
   -2.8794   -3.6788   -2.9474 H   0  0  0  0  0  0  0  0  0  0  0  0
   -1.3941   -1.1836   -2.2974 H   0  0  0  0  0  0  0  0  0  0  0  0
   -0.7277   -2.8311   -2.3364 H   0  0  0  0  0  0  0  0  0  0  0  0
   -2.0044   -3.1820   -0.1074 H   0  0  0  0  0  0  0  0  0  0  0  0
   -2.6105   -0.9455    1.0443 H   0  0  0  0  0  0  0  0  0  0  0  0
   -2.3160   -0.1952   -0.6121 H   0  0  0  0  0  0  0  0  0  0  0  0
    3.3512   -2.6398   -1.4735 H   0  0  0  0  0  0  0  0  0  0  0  0
    5.6079   -1.9770   -2.2846 H   0  0  0  0  0  0  0  0  0  0  0  0
    8.5511    0.1949    0.6817 H   0  0  0  0  0  0  0  0  0  0  0  0
    9.6105    2.1966    1.6524 H   0  0  0  0  0  0  0  0  0  0  0  0
    9.2963    4.3871    0.6595 H   0  0  0  0  0  0  0  0  0  0  0  0
    7.9081    4.6111   -1.3341 H   0  0  0  0  0  0  0  0  0  0  0  0
    6.8034    2.6018   -2.3648 H   0  0  0  0  0  0  0  0  0  0  0  0
    5.5196    1.3448    0.3683 H   0  0  0  0  0  0  0  0  0  0  0  0
    3.3094    0.7054    1.1367 H   0  0  0  0  0  0  0  0  0  0  0  0
    3.6744   -0.7045    3.4232 H   0  0  0  0  0  0  0  0  0  0  0  0
    4.1944   -2.2227    2.6587 H   0  0  0  0  0  0  0  0  0  0  0  0
   -0.6238   -2.9181    4.5557 H   0  0  0  0  0  0  0  0  0  0  0  0
  1  2  1  0
  2  3  1  0
  2  4  1  0
  4  5  1  0
  5  6  2  0
  6  7  1  0
  7  8  2  0
  7  9  1  0
  9 10  1  0
 10 11  1  0
 11 12  1  0
 12 13  1  0
 13 14  1  0
 13 15  1  0
 15 16  1  0
 16 17  2  0
 17 18  1  0
 18 19  2  0
 19 20  1  0
 20 21  2  0
 21 22  1  0
 22 23  1  0
 23 24  2  0
 24 25  1  0
 25 26  2  0
 26 27  1  0
 27 28  2  0
 21 29  1  0
 29 30  2  0
 17 31  1  0
 31 32  2  0
 32 33  1  0
 32 34  1  0
 34 35  2  0
 35 36  1  0
 36 37  2  0
 14  9  1  0
 37 15  1  0
 30 18  1  0
 37 31  1  0
 28 23  1  0
  1 38  1  0
  1 39  1  0
  1 40  1  0
  3 41  1  0
  3 42  1  0
  3 43  1  0
  4 44  1  0
  4 45  1  0
  5 46  1  0
  6 47  1  0
 10 48  1  0
 10 49  1  0
 11 50  1  0
 11 51  1  0
 12 52  1  0
 12 53  1  0
 13 54  1  1
 14 55  1  0
 14 56  1  0
 19 57  1  0
 20 58  1  0
 24 59  1  0
 25 60  1  0
 26 61  1  0
 27 62  1  0
 28 63  1  0
 29 64  1  0
 30 65  1  0
 33 66  1  0
 33 67  1  0
 35 68  1  0
M  END
$$$$
[H]OC(=O)[C@@]([H])(N([H])C(=O)[C@@]([H])(S[H])C([H])([H])c1c([H])c([H])c([H])c([H])c1[H])C([H])([H])C([H])(C([H])([H])[H])C([H])([H])[H]
     RDKit          3D

 41 41  0  0  0  0  0  0  0  0999 V2000
   -4.9051    0.2902    1.2070 C   0  0  0  0  0  0  0  0  0  0  0  0
   -4.1796    1.1884    0.2355 C   0  0  0  0  0  0  0  0  0  0  0  0
   -4.8856    1.3457   -1.0850 C   0  0  0  0  0  0  0  0  0  0  0  0
   -2.7231    1.0181    0.2001 C   0  0  0  0  0  0  0  0  0  0  0  0
   -2.0963   -0.2664   -0.1250 C   0  0  2  0  0  0  0  0  0  0  0  0
   -0.6388   -0.0303   -0.0576 N   0  0  0  0  0  0  0  0  0  0  0  0
    0.2135   -0.6442    0.8762 C   0  0  0  0  0  0  0  0  0  0  0  0
   -0.2627   -1.4574    1.7281 O   0  0  0  0  0  0  0  0  0  0  0  0
    1.6491   -0.3619    0.8856 C   0  0  1  0  0  0  0  0  0  0  0  0
    2.4516   -1.3245    2.1830 S   0  0  0  0  0  0  0  0  0  0  0  0
    2.3076   -0.5724   -0.4600 C   0  0  0  0  0  0  0  0  0  0  0  0
    3.7486   -0.2851   -0.4267 C   0  0  0  0  0  0  0  0  0  0  0  0
    4.6256   -1.2969   -0.1267 C   0  0  0  0  0  0  0  0  0  0  0  0
    5.9677   -1.0137   -0.0968 C   0  0  0  0  0  0  0  0  0  0  0  0
    6.4566    0.2346   -0.3542 C   0  0  0  0  0  0  0  0  0  0  0  0
    5.5685    1.2662   -0.6597 C   0  0  0  0  0  0  0  0  0  0  0  0
    4.2130    0.9847   -0.6910 C   0  0  0  0  0  0  0  0  0  0  0  0
   -2.3362   -0.8917   -1.4079 C   0  0  0  0  0  0  0  0  0  0  0  0
   -3.5898   -1.3397   -1.7838 O   0  0  0  0  0  0  0  0  0  0  0  0
   -1.4302   -1.0735   -2.2624 O   0  0  0  0  0  0  0  0  0  0  0  0
   -5.4945   -0.5012    0.6548 H   0  0  0  0  0  0  0  0  0  0  0  0
   -4.2026   -0.1695    1.9265 H   0  0  0  0  0  0  0  0  0  0  0  0
   -5.6675    0.8292    1.8060 H   0  0  0  0  0  0  0  0  0  0  0  0
   -4.3250    2.2336    0.7183 H   0  0  0  0  0  0  0  0  0  0  0  0
   -4.1919    1.4551   -1.9507 H   0  0  0  0  0  0  0  0  0  0  0  0
   -5.6690    0.5546   -1.2617 H   0  0  0  0  0  0  0  0  0  0  0  0
   -5.5034    2.2972   -1.1384 H   0  0  0  0  0  0  0  0  0  0  0  0
   -2.3197    1.8358   -0.4788 H   0  0  0  0  0  0  0  0  0  0  0  0
   -2.3174    1.3474    1.2093 H   0  0  0  0  0  0  0  0  0  0  0  0
   -2.2723   -0.9985    0.7284 H   0  0  0  0  0  0  0  0  0  0  0  0
   -0.2622    0.6287   -0.7517 H   0  0  0  0  0  0  0  0  0  0  0  0
    1.7589    0.7345    1.1363 H   0  0  0  0  0  0  0  0  0  0  0  0
    2.5028   -2.6711    1.7194 H   0  0  0  0  0  0  0  0  0  0  0  0
    1.8552    0.0154   -1.2557 H   0  0  0  0  0  0  0  0  0  0  0  0
    2.1549   -1.6556   -0.7275 H   0  0  0  0  0  0  0  0  0  0  0  0
    4.2422   -2.2916    0.0792 H   0  0  0  0  0  0  0  0  0  0  0  0
    6.6337   -1.8441    0.1456 H   0  0  0  0  0  0  0  0  0  0  0  0
    7.5266    0.3801   -0.3115 H   0  0  0  0  0  0  0  0  0  0  0  0
    5.9725    2.2559   -0.8625 H   0  0  0  0  0  0  0  0  0  0  0  0
    3.5395    1.8205   -0.9353 H   0  0  0  0  0  0  0  0  0  0  0  0
   -4.1153   -2.0267   -1.2469 H   0  0  0  0  0  0  0  0  0  0  0  0
  1  2  1  0
  2  3  1  0
  2  4  1  0
  4  5  1  0
  5  6  1  0
  6  7  1  0
  7  8  2  0
  7  9  1  0
  9 10  1  0
  9 11  1  0
 11 12  1  0
 12 13  2  0
 13 14  1  0
 14 15  2  0
 15 16  1  0
 16 17  2  0
  5 18  1  0
 18 19  1  0
 18 20  2  0
 17 12  1  0
  1 21  1  0
  1 22  1  0
  1 23  1  0
  2 24  1  0
  3 25  1  0
  3 26  1  0
  3 27  1  0
  4 28  1  0
  4 29  1  0
  5 30  1  1
  6 31  1  0
  9 32  1  1
 10 33  1  0
 11 34  1  0
 11 35  1  0
 13 36  1  0
 14 37  1  0
 15 38  1  0
 16 39  1  0
 17 40  1  0
 19 41  1  0
M  END
$$$$
[H]c1nc(N([H])[H])c(-c2nn(-c3c(Cl)c(OC([H])([H])[H])c([H])c(OC([H])([H])[H])c3Cl)c(=O)c([H])c2[H])nc1-c1c([H])nn(C2([H])C([H])([H])C([H])([H])N(C([H])([H])[H])C([H])([H])C2([H])[H])c1[H]
     RDKit          3D

 64 68  0  0  0  0  0  0  0  0999 V2000
    9.4514   -2.3821   -0.7317 C   0  0  0  0  0  0  0  0  0  0  0  0
    8.1430   -2.4137   -0.2008 O   0  0  0  0  0  0  0  0  0  0  0  0
    7.4739   -1.2083   -0.0453 C   0  0  0  0  0  0  0  0  0  0  0  0
    8.0347    0.0116   -0.3875 C   0  0  0  0  0  0  0  0  0  0  0  0
    7.3587    1.2075   -0.2283 C   0  0  0  0  0  0  0  0  0  0  0  0
    7.8817    2.4367   -0.5561 O   0  0  0  0  0  0  0  0  0  0  0  0
    9.1495    2.6588   -1.0893 C   0  0  0  0  0  0  0  0  0  0  0  0
    6.0822    1.1366    0.2937 C   0  0  0  0  0  0  0  0  0  0  0  0
    5.1784    2.6198    0.5172 Cl  0  0  0  0  0  0  0  0  0  0  0  0
    5.4955   -0.0617    0.6445 C   0  0  0  0  0  0  0  0  0  0  0  0
    6.1932   -1.2447    0.4752 C   0  0  0  0  0  0  0  0  0  0  0  0
    5.4827   -2.7634    0.9064 Cl  0  0  0  0  0  0  0  0  0  0  0  0
    4.1780   -0.1532    1.1861 N   0  0  0  0  0  0  0  0  0  0  0  0
    3.1191    0.0199    0.4147 N   0  0  0  0  0  0  0  0  0  0  0  0
    1.8492   -0.0498    0.8416 C   0  0  0  0  0  0  0  0  0  0  0  0
    1.6355   -0.3198    2.1724 C   0  0  0  0  0  0  0  0  0  0  0  0
    2.7396   -0.5001    2.9759 C   0  0  0  0  0  0  0  0  0  0  0  0
    4.0405   -0.4201    2.4970 C   0  0  0  0  0  0  0  0  0  0  0  0
    5.0386   -0.5913    3.2634 O   0  0  0  0  0  0  0  0  0  0  0  0
    0.7086    0.1479   -0.0498 C   0  0  0  0  0  0  0  0  0  0  0  0
   -0.5391    0.0660    0.4361 N   0  0  0  0  0  0  0  0  0  0  0  0
   -1.6063    0.2457   -0.3789 C   0  0  0  0  0  0  0  0  0  0  0  0
   -1.4615    0.5162   -1.7213 C   0  0  0  0  0  0  0  0  0  0  0  0
   -0.2082    0.5972   -2.2033 N   0  0  0  0  0  0  0  0  0  0  0  0
    0.8576    0.4183   -1.3926 C   0  0  0  0  0  0  0  0  0  0  0  0
    2.2042    0.4986   -1.8771 N   0  0  0  0  0  0  0  0  0  0  0  0
   -2.9379    0.1463    0.2008 C   0  0  0  0  0  0  0  0  0  0  0  0
   -3.2723   -0.1135    1.5066 C   0  0  0  0  0  0  0  0  0  0  0  0
   -4.5968   -0.1125    1.5920 N   0  0  0  0  0  0  0  0  0  0  0  0
   -5.1479    0.1352    0.4066 N   0  0  0  0  0  0  0  0  0  0  0  0
   -4.1426    0.3010   -0.4811 C   0  0  0  0  0  0  0  0  0  0  0  0
   -6.5853    0.2089    0.1402 C   0  0  0  0  0  0  0  0  0  0  0  0
   -6.9224   -0.9918   -0.7116 C   0  0  0  0  0  0  0  0  0  0  0  0
   -8.3891   -1.2318   -0.8424 C   0  0  0  0  0  0  0  0  0  0  0  0
   -9.2051   -0.3346   -0.0888 N   0  0  0  0  0  0  0  0  0  0  0  0
   -9.4834    0.9107   -0.7554 C   0  0  0  0  0  0  0  0  0  0  0  0
   -8.7856   -0.1780    1.2791 C   0  0  0  0  0  0  0  0  0  0  0  0
   -7.3350    0.1349    1.4357 C   0  0  0  0  0  0  0  0  0  0  0  0
    9.5673   -1.7249   -1.6050 H   0  0  0  0  0  0  0  0  0  0  0  0
    9.7190   -3.4155   -1.1006 H   0  0  0  0  0  0  0  0  0  0  0  0
   10.2186   -2.1113    0.0377 H   0  0  0  0  0  0  0  0  0  0  0  0
    9.0179    0.0593   -0.7886 H   0  0  0  0  0  0  0  0  0  0  0  0
    9.0809    3.5655   -1.7544 H   0  0  0  0  0  0  0  0  0  0  0  0
    9.5115    1.8250   -1.7231 H   0  0  0  0  0  0  0  0  0  0  0  0
    9.8611    2.9294   -0.2934 H   0  0  0  0  0  0  0  0  0  0  0  0
    0.6141   -0.3880    2.5737 H   0  0  0  0  0  0  0  0  0  0  0  0
    2.6126   -0.7139    4.0287 H   0  0  0  0  0  0  0  0  0  0  0  0
   -2.3535    0.6493   -2.3174 H   0  0  0  0  0  0  0  0  0  0  0  0
    2.6258   -0.3396   -2.3417 H   0  0  0  0  0  0  0  0  0  0  0  0
    2.7755    1.3646   -1.7809 H   0  0  0  0  0  0  0  0  0  0  0  0
   -2.5211   -0.2811    2.2819 H   0  0  0  0  0  0  0  0  0  0  0  0
   -4.2648    0.5144   -1.5276 H   0  0  0  0  0  0  0  0  0  0  0  0
   -6.7770    1.1058   -0.4485 H   0  0  0  0  0  0  0  0  0  0  0  0
   -6.3665   -1.8647   -0.2982 H   0  0  0  0  0  0  0  0  0  0  0  0
   -6.4873   -0.8059   -1.7273 H   0  0  0  0  0  0  0  0  0  0  0  0
   -8.5874   -2.2806   -0.5233 H   0  0  0  0  0  0  0  0  0  0  0  0
   -8.7244   -1.1807   -1.9038 H   0  0  0  0  0  0  0  0  0  0  0  0
   -9.1454    0.9002   -1.8272 H   0  0  0  0  0  0  0  0  0  0  0  0
   -9.0834    1.7959   -0.2486 H   0  0  0  0  0  0  0  0  0  0  0  0
  -10.6056    1.0013   -0.7934 H   0  0  0  0  0  0  0  0  0  0  0  0
   -9.3747    0.6667    1.7090 H   0  0  0  0  0  0  0  0  0  0  0  0
   -9.0227   -1.1033    1.8290 H   0  0  0  0  0  0  0  0  0  0  0  0
   -7.1631    1.1104    1.9735 H   0  0  0  0  0  0  0  0  0  0  0  0
   -6.8046   -0.6254    2.0786 H   0  0  0  0  0  0  0  0  0  0  0  0
  1  2  1  0
  2  3  1  0
  3  4  2  0
  4  5  1  0
  5  6  1  0
  6  7  1  0
  5  8  2  0
  8  9  1  0
  8 10  1  0
 10 11  2  0
 11 12  1  0
 10 13  1  0
 13 14  1  0
 14 15  2  0
 15 16  1  0
 16 17  2  0
 17 18  1  0
 18 19  2  0
 15 20  1  0
 20 21  2  0
 21 22  1  0
 22 23  2  0
 23 24  1  0
 24 25  2  0
 25 26  1  0
 22 27  1  0
 27 28  1  0
 28 29  2  0
 29 30  1  0
 30 31  1  0
 30 32  1  0
 32 33  1  0
 33 34  1  0
 34 35  1  0
 35 36  1  0
 35 37  1  0
 37 38  1  0
 11  3  1  0
 18 13  1  0
 25 20  1  0
 31 27  2  0
 38 32  1  0
  1 39  1  0
  1 40  1  0
  1 41  1  0
  4 42  1  0
  7 43  1  0
  7 44  1  0
  7 45  1  0
 16 46  1  0
 17 47  1  0
 23 48  1  0
 26 49  1  0
 26 50  1  0
 28 51  1  0
 31 52  1  0
 32 53  1  0
 33 54  1  0
 33 55  1  0
 34 56  1  0
 34 57  1  0
 36 58  1  0
 36 59  1  0
 36 60  1  0
 37 61  1  0
 37 62  1  0
 38 63  1  0
 38 64  1  0
M  END
$$$$
[H]c1c([H])c([H])c2c(c1[H])C([H])([H])N(C1([H])C([H])([H])C([H])([H])N(C(=O)c3c([H])c(OC([H])([H])[H])c(OC([H])([H])[H])c(OC([H])([H])[H])c3[H])C([H])([H])C1([H])[H])C([H])([H])C2([H])[H]
     RDKit          3D

 60 63  0  0  0  0  0  0  0  0999 V2000
    6.3532   -1.8817   -2.8182 C   0  0  0  0  0  0  0  0  0  0  0  0
    6.2875   -1.7927   -1.4086 O   0  0  0  0  0  0  0  0  0  0  0  0
    5.1334   -1.2929   -0.8402 C   0  0  0  0  0  0  0  0  0  0  0  0
    4.0631   -0.8858   -1.5778 C   0  0  0  0  0  0  0  0  0  0  0  0
    2.8731   -0.3716   -1.0263 C   0  0  0  0  0  0  0  0  0  0  0  0
    2.8675   -0.3094    0.3388 C   0  0  0  0  0  0  0  0  0  0  0  0
    3.9274   -0.7082    1.1576 C   0  0  0  0  0  0  0  0  0  0  0  0
    3.8731   -0.6252    2.5404 O   0  0  0  0  0  0  0  0  0  0  0  0
    2.6831   -0.1154    3.1128 C   0  0  0  0  0  0  0  0  0  0  0  0
    5.0544   -1.1992    0.5291 C   0  0  0  0  0  0  0  0  0  0  0  0
    6.1292   -1.6049    1.3162 O   0  0  0  0  0  0  0  0  0  0  0  0
    7.1618   -0.7233    1.6984 C   0  0  0  0  0  0  0  0  0  0  0  0
    1.7742    0.0209   -1.8737 C   0  0  0  0  0  0  0  0  0  0  0  0
    1.9845   -0.2647   -3.1345 O   0  0  0  0  0  0  0  0  0  0  0  0
    0.5658    0.6366   -1.5693 N   0  0  0  0  0  0  0  0  0  0  0  0
    0.0322    1.0981   -0.3375 C   0  0  0  0  0  0  0  0  0  0  0  0
   -1.1795    2.0215   -0.5339 C   0  0  0  0  0  0  0  0  0  0  0  0
   -2.2495    1.4219   -1.3764 C   0  0  0  0  0  0  0  0  0  0  0  0
   -1.6967    0.2784   -2.2304 C   0  0  0  0  0  0  0  0  0  0  0  0
   -0.3488    0.8481   -2.7307 C   0  0  0  0  0  0  0  0  0  0  0  0
   -3.3640    0.9992   -0.6087 N   0  0  0  0  0  0  0  0  0  0  0  0
   -3.9789    2.1171    0.0457 C   0  0  0  0  0  0  0  0  0  0  0  0
   -5.4485    1.8320    0.2994 C   0  0  0  0  0  0  0  0  0  0  0  0
   -5.5780    0.4246    0.7894 C   0  0  0  0  0  0  0  0  0  0  0  0
   -6.8127    0.0559    1.2997 C   0  0  0  0  0  0  0  0  0  0  0  0
   -6.9975   -1.2312    1.7705 C   0  0  0  0  0  0  0  0  0  0  0  0
   -6.0019   -2.1620    1.7521 C   0  0  0  0  0  0  0  0  0  0  0  0
   -4.7721   -1.7650    1.2341 C   0  0  0  0  0  0  0  0  0  0  0  0
   -4.5704   -0.4888    0.7616 C   0  0  0  0  0  0  0  0  0  0  0  0
   -3.2295   -0.1336    0.2214 C   0  0  0  0  0  0  0  0  0  0  0  0
    7.3329   -2.2184   -3.1821 H   0  0  0  0  0  0  0  0  0  0  0  0
    6.1580   -0.8561   -3.2477 H   0  0  0  0  0  0  0  0  0  0  0  0
    5.5199   -2.5094   -3.2253 H   0  0  0  0  0  0  0  0  0  0  0  0
    4.1116   -0.9528   -2.6495 H   0  0  0  0  0  0  0  0  0  0  0  0
    2.0192    0.0493    0.8806 H   0  0  0  0  0  0  0  0  0  0  0  0
    2.4200    0.8797    2.7226 H   0  0  0  0  0  0  0  0  0  0  0  0
    1.8678   -0.8006    2.7359 H   0  0  0  0  0  0  0  0  0  0  0  0
    2.7406   -0.1194    4.2225 H   0  0  0  0  0  0  0  0  0  0  0  0
    6.9185   -0.2597    2.6988 H   0  0  0  0  0  0  0  0  0  0  0  0
    7.2858    0.1262    0.9936 H   0  0  0  0  0  0  0  0  0  0  0  0
    8.1252   -1.2521    1.8333 H   0  0  0  0  0  0  0  0  0  0  0  0
   -0.2685    0.3427    0.3824 H   0  0  0  0  0  0  0  0  0  0  0  0
    0.8073    1.8179    0.0820 H   0  0  0  0  0  0  0  0  0  0  0  0
   -0.7606    2.9114   -1.0918 H   0  0  0  0  0  0  0  0  0  0  0  0
   -1.5564    2.3437    0.4440 H   0  0  0  0  0  0  0  0  0  0  0  0
   -2.5714    2.1862   -2.1599 H   0  0  0  0  0  0  0  0  0  0  0  0
   -2.3205    0.1617   -3.1108 H   0  0  0  0  0  0  0  0  0  0  0  0
   -1.4579   -0.6136   -1.6547 H   0  0  0  0  0  0  0  0  0  0  0  0
   -0.0459    0.2623   -3.5947 H   0  0  0  0  0  0  0  0  0  0  0  0
   -0.4554    1.9299   -2.9339 H   0  0  0  0  0  0  0  0  0  0  0  0
   -3.4745    2.2351    1.0498 H   0  0  0  0  0  0  0  0  0  0  0  0
   -3.8852    3.0518   -0.5264 H   0  0  0  0  0  0  0  0  0  0  0  0
   -6.0615    1.9470   -0.5910 H   0  0  0  0  0  0  0  0  0  0  0  0
   -5.8030    2.4866    1.1223 H   0  0  0  0  0  0  0  0  0  0  0  0
   -7.6277    0.7694    1.3312 H   0  0  0  0  0  0  0  0  0  0  0  0
   -7.9790   -1.5035    2.1711 H   0  0  0  0  0  0  0  0  0  0  0  0
   -6.1546   -3.1504    2.1156 H   0  0  0  0  0  0  0  0  0  0  0  0
   -3.9862   -2.5086    1.2227 H   0  0  0  0  0  0  0  0  0  0  0  0
   -2.5286    0.0629    1.0622 H   0  0  0  0  0  0  0  0  0  0  0  0
   -2.9053   -1.0179   -0.3642 H   0  0  0  0  0  0  0  0  0  0  0  0
  1  2  1  0
  2  3  1  0
  3  4  2  0
  4  5  1  0
  5  6  2  0
  6  7  1  0
  7  8  1  0
  8  9  1  0
  7 10  2  0
 10 11  1  0
 11 12  1  0
  5 13  1  0
 13 14  2  0
 13 15  1  0
 15 16  1  0
 16 17  1  0
 17 18  1  0
 18 19  1  0
 19 20  1  0
 18 21  1  0
 21 22  1  0
 22 23  1  0
 23 24  1  0
 24 25  2  0
 25 26  1  0
 26 27  2  0
 27 28  1  0
 28 29  2  0
 29 30  1  0
 10  3  1  0
 20 15  1  0
 30 21  1  0
 29 24  1  0
  1 31  1  0
  1 32  1  0
  1 33  1  0
  4 34  1  0
  6 35  1  0
  9 36  1  0
  9 37  1  0
  9 38  1  0
 12 39  1  0
 12 40  1  0
 12 41  1  0
 16 42  1  0
 16 43  1  0
 17 44  1  0
 17 45  1  0
 18 46  1  0
 19 47  1  0
 19 48  1  0
 20 49  1  0
 20 50  1  0
 22 51  1  0
 22 52  1  0
 23 53  1  0
 23 54  1  0
 25 55  1  0
 26 56  1  0
 27 57  1  0
 28 58  1  0
 30 59  1  0
 30 60  1  0
M  END
$$$$
[H]c1nc(C([H])([H])N2C([H])([H])C([H])([H])C3(C(=O)N(c4c([H])c([H])c(C#N)c([H])c4[H])C(=O)N3c3c([H])c([H])c(C#N)c([H])c3[H])C([H])([H])C2([H])[H])c(C([H])([H])[H])c([H])c1[H]
     RDKit          3D

 60 64  0  0  0  0  0  0  0  0999 V2000
    5.3928    1.2937   -1.0309 C   0  0  0  0  0  0  0  0  0  0  0  0
    5.6542    0.2594    0.0291 C   0  0  0  0  0  0  0  0  0  0  0  0
    6.8621   -0.3572    0.1706 C   0  0  0  0  0  0  0  0  0  0  0  0
    6.9706   -1.4507    1.0097 C   0  0  0  0  0  0  0  0  0  0  0  0
    5.8077   -1.8520    1.6697 C   0  0  0  0  0  0  0  0  0  0  0  0
    4.6324   -1.1969    1.4999 N   0  0  0  0  0  0  0  0  0  0  0  0
    4.4986   -0.1492    0.7053 C   0  0  0  0  0  0  0  0  0  0  0  0
    3.3749    0.7772    0.6580 C   0  0  0  0  0  0  0  0  0  0  0  0
    2.2419    0.5916   -0.0170 N   0  0  0  0  0  0  0  0  0  0  0  0
    1.2004    1.5255    0.3847 C   0  0  0  0  0  0  0  0  0  0  0  0
    0.0846    0.6137    0.9536 C   0  0  0  0  0  0  0  0  0  0  0  0
   -0.5447   -0.0499   -0.2650 C   0  0  0  0  0  0  0  0  0  0  0  0
    0.3659    0.0312   -1.4281 C   0  0  0  0  0  0  0  0  0  0  0  0
    1.7791   -0.3207   -0.9105 C   0  0  0  0  0  0  0  0  0  0  0  0
   -1.8242    0.5946   -0.3753 N   0  0  0  0  0  0  0  0  0  0  0  0
   -2.7877   -0.3574   -0.0311 C   0  0  0  0  0  0  0  0  0  0  0  0
   -4.0380   -0.1991    0.0996 O   0  0  0  0  0  0  0  0  0  0  0  0
   -2.1722   -1.6629    0.1749 N   0  0  0  0  0  0  0  0  0  0  0  0
   -0.8252   -1.5070   -0.0374 C   0  0  0  0  0  0  0  0  0  0  0  0
   -0.0064   -2.4587   -0.0398 O   0  0  0  0  0  0  0  0  0  0  0  0
   -3.0999   -2.6992    0.5374 C   0  0  0  0  0  0  0  0  0  0  0  0
   -4.0960   -2.9612   -0.4439 C   0  0  0  0  0  0  0  0  0  0  0  0
   -5.1594   -3.7374   -0.1049 C   0  0  0  0  0  0  0  0  0  0  0  0
   -5.2913   -4.2669    1.1466 C   0  0  0  0  0  0  0  0  0  0  0  0
   -4.3113   -4.0065    2.0878 C   0  0  0  0  0  0  0  0  0  0  0  0
   -3.2057   -3.2107    1.7634 C   0  0  0  0  0  0  0  0  0  0  0  0
   -6.4998   -5.0193    1.4609 C   0  0  0  0  0  0  0  0  0  0  0  0
   -7.4808   -5.5965    1.6939 N   0  0  0  0  0  0  0  0  0  0  0  0
   -2.1646    1.9248   -0.7039 C   0  0  0  0  0  0  0  0  0  0  0  0
   -1.9483    2.3781   -1.9787 C   0  0  0  0  0  0  0  0  0  0  0  0
   -2.3053    3.6595   -2.2770 C   0  0  0  0  0  0  0  0  0  0  0  0
   -2.8592    4.4850   -1.3366 C   0  0  0  0  0  0  0  0  0  0  0  0
   -3.0947    4.0847   -0.0297 C   0  0  0  0  0  0  0  0  0  0  0  0
   -2.7315    2.7821    0.2380 C   0  0  0  0  0  0  0  0  0  0  0  0
   -3.2350    5.8506   -1.6895 C   0  0  0  0  0  0  0  0  0  0  0  0
   -3.5044    6.9502   -1.9680 N   0  0  0  0  0  0  0  0  0  0  0  0
    4.8520    2.1403   -0.6518 H   0  0  0  0  0  0  0  0  0  0  0  0
    6.2887    1.5414   -1.5783 H   0  0  0  0  0  0  0  0  0  0  0  0
    4.7264    0.7577   -1.8372 H   0  0  0  0  0  0  0  0  0  0  0  0
    7.7337    0.0099   -0.3597 H   0  0  0  0  0  0  0  0  0  0  0  0
    7.9156   -1.9621    1.1234 H   0  0  0  0  0  0  0  0  0  0  0  0
    5.9340   -2.7152    2.3261 H   0  0  0  0  0  0  0  0  0  0  0  0
    3.6407    1.8615    0.8695 H   0  0  0  0  0  0  0  0  0  0  0  0
    2.9240    0.6154    1.8402 H   0  0  0  0  0  0  0  0  0  0  0  0
    1.5538    2.1472    1.2267 H   0  0  0  0  0  0  0  0  0  0  0  0
    0.7750    2.1330   -0.3859 H   0  0  0  0  0  0  0  0  0  0  0  0
    0.4898   -0.1585    1.5876 H   0  0  0  0  0  0  0  0  0  0  0  0
   -0.5747    1.2731    1.5091 H   0  0  0  0  0  0  0  0  0  0  0  0
    0.0980   -0.7154   -2.2239 H   0  0  0  0  0  0  0  0  0  0  0  0
    0.4650    1.0091   -1.9263 H   0  0  0  0  0  0  0  0  0  0  0  0
    2.4175   -0.3744   -1.8483 H   0  0  0  0  0  0  0  0  0  0  0  0
    1.8208   -1.3537   -0.5027 H   0  0  0  0  0  0  0  0  0  0  0  0
   -3.9384   -2.5228   -1.3900 H   0  0  0  0  0  0  0  0  0  0  0  0
   -5.9287   -3.9043   -0.8976 H   0  0  0  0  0  0  0  0  0  0  0  0
   -4.4043   -4.4229    3.0634 H   0  0  0  0  0  0  0  0  0  0  0  0
   -2.4311   -3.0132    2.5368 H   0  0  0  0  0  0  0  0  0  0  0  0
   -1.5040    1.7911   -2.7873 H   0  0  0  0  0  0  0  0  0  0  0  0
   -2.1314    4.0189   -3.2717 H   0  0  0  0  0  0  0  0  0  0  0  0
   -3.5145    4.7378    0.7305 H   0  0  0  0  0  0  0  0  0  0  0  0
   -2.8875    2.3635    1.2314 H   0  0  0  0  0  0  0  0  0  0  0  0
  1  2  1  0
  2  3  2  0
  3  4  1  0
  4  5  2  0
  5  6  1  0
  6  7  2  0
  7  8  1  0
  8  9  1  0
  9 10  1  0
 10 11  1  0
 11 12  1  0
 12 13  1  0
 13 14  1  0
 12 15  1  0
 15 16  1  0
 16 17  2  0
 16 18  1  0
 18 19  1  0
 19 20  2  0
 18 21  1  0
 21 22  2  0
 22 23  1  0
 23 24  2  0
 24 25  1  0
 25 26  2  0
 24 27  1  0
 27 28  3  0
 15 29  1  0
 29 30  2  0
 30 31  1  0
 31 32  2  0
 32 33  1  0
 33 34  2  0
 32 35  1  0
 35 36  3  0
  7  2  1  0
 14  9  1  0
 26 21  1  0
 34 29  1  0
 19 12  1  0
  1 37  1  0
  1 38  1  0
  1 39  1  0
  3 40  1  0
  4 41  1  0
  5 42  1  0
  8 43  1  0
  8 44  1  0
 10 45  1  0
 10 46  1  0
 11 47  1  0
 11 48  1  0
 13 49  1  0
 13 50  1  0
 14 51  1  0
 14 52  1  0
 22 53  1  0
 23 54  1  0
 25 55  1  0
 26 56  1  0
 30 57  1  0
 31 58  1  0
 33 59  1  0
 34 60  1  0
M  END
$$$$
[H]c1c([H])c(N([H])C(=O)N([H])c2c([H])c([H])c(N3C([H])([H])C([H])([H])N(C([H])([H])[H])C([H])([H])C3([H])[H])c([H])c2[H])c([H])c([H])c1-c1nc(N2C([H])([H])C([H])([H])OC([H])([H])[C@@]2([H])C([H])([H])[H])nc(C2([H])C([H])([H])C([H])([H])OC([H])([H])C2([H])[H])n1
     RDKit          3D

 82 87  0  0  0  0  0  0  0  0999 V2000
   -6.1386    3.1729    1.2153 C   0  0  0  0  0  0  0  0  0  0  0  0
   -6.4641    2.8718   -0.2583 C   0  0  2  0  0  0  0  0  0  0  0  0
   -7.5233    3.8279   -0.7528 C   0  0  0  0  0  0  0  0  0  0  0  0
   -8.7244    3.4973   -0.1259 O   0  0  0  0  0  0  0  0  0  0  0  0
   -9.2981    2.3169   -0.6511 C   0  0  0  0  0  0  0  0  0  0  0  0
   -8.2708    1.2587   -0.8810 C   0  0  0  0  0  0  0  0  0  0  0  0
   -6.9700    1.5275   -0.3701 N   0  0  0  0  0  0  0  0  0  0  0  0
   -6.1158    0.4431    0.0388 C   0  0  0  0  0  0  0  0  0  0  0  0
   -6.6127   -0.7764    0.2875 N   0  0  0  0  0  0  0  0  0  0  0  0
   -5.8494   -1.8120    0.6360 C   0  0  0  0  0  0  0  0  0  0  0  0
   -4.5406   -1.5984    0.7424 N   0  0  0  0  0  0  0  0  0  0  0  0
   -4.0091   -0.4065    0.5060 C   0  0  0  0  0  0  0  0  0  0  0  0
   -4.7909    0.6142    0.1544 N   0  0  0  0  0  0  0  0  0  0  0  0
   -2.5463   -0.2664    0.5540 C   0  0  0  0  0  0  0  0  0  0  0  0
   -1.9697    0.9723    0.3002 C   0  0  0  0  0  0  0  0  0  0  0  0
   -0.6210    1.0614    0.2167 C   0  0  0  0  0  0  0  0  0  0  0  0
    0.2650   -0.0235    0.3703 C   0  0  0  0  0  0  0  0  0  0  0  0
    1.5715    0.1012    0.1704 N   0  0  0  0  0  0  0  0  0  0  0  0
    2.9279    0.2227   -0.0304 C   0  0  0  0  0  0  0  0  0  0  0  0
    3.8204   -0.5450    0.5067 O   0  0  0  0  0  0  0  0  0  0  0  0
    3.4786    1.2597   -0.8901 N   0  0  0  0  0  0  0  0  0  0  0  0
    4.9233    1.1975   -0.9259 C   0  0  0  0  0  0  0  0  0  0  0  0
    5.6073    1.1231    0.2620 C   0  0  0  0  0  0  0  0  0  0  0  0
    6.9744    0.9198    0.3650 C   0  0  0  0  0  0  0  0  0  0  0  0
    7.6895    0.7939   -0.8181 C   0  0  0  0  0  0  0  0  0  0  0  0
    7.0451    0.8700   -2.0299 C   0  0  0  0  0  0  0  0  0  0  0  0
    5.6609    1.0713   -2.0727 C   0  0  0  0  0  0  0  0  0  0  0  0
    9.1089    0.4879   -0.7761 N   0  0  0  0  0  0  0  0  0  0  0  0
    9.8132    0.0623   -1.9596 C   0  0  0  0  0  0  0  0  0  0  0  0
   11.3082    0.0894   -1.7249 C   0  0  0  0  0  0  0  0  0  0  0  0
   11.7073    1.2370   -0.9482 N   0  0  0  0  0  0  0  0  0  0  0  0
   13.1488    1.1688   -0.7686 C   0  0  0  0  0  0  0  0  0  0  0  0
   11.1259    1.2498    0.3440 C   0  0  0  0  0  0  0  0  0  0  0  0
    9.7948    0.5595    0.4597 C   0  0  0  0  0  0  0  0  0  0  0  0
   -0.3708   -1.2551    0.6337 C   0  0  0  0  0  0  0  0  0  0  0  0
   -1.7420   -1.3664    0.7220 C   0  0  0  0  0  0  0  0  0  0  0  0
   -6.3880   -3.1920    0.9063 C   0  0  0  0  0  0  0  0  0  0  0  0
   -6.4693   -4.0153   -0.3764 C   0  0  0  0  0  0  0  0  0  0  0  0
   -6.7218   -5.4663    0.0660 C   0  0  0  0  0  0  0  0  0  0  0  0
   -7.2587   -5.4556    1.3762 O   0  0  0  0  0  0  0  0  0  0  0  0
   -8.3211   -4.5406    1.4624 C   0  0  0  0  0  0  0  0  0  0  0  0
   -7.7503   -3.1278    1.5580 C   0  0  0  0  0  0  0  0  0  0  0  0
   -6.8642    3.9742    1.5432 H   0  0  0  0  0  0  0  0  0  0  0  0
   -5.0989    3.4961    1.3364 H   0  0  0  0  0  0  0  0  0  0  0  0
   -6.4216    2.2694    1.8228 H   0  0  0  0  0  0  0  0  0  0  0  0
   -5.5482    2.9617   -0.8985 H   0  0  0  0  0  0  0  0  0  0  0  0
   -7.6164    3.7272   -1.8615 H   0  0  0  0  0  0  0  0  0  0  0  0
   -7.2721    4.8619   -0.4373 H   0  0  0  0  0  0  0  0  0  0  0  0
  -10.1012    2.0586    0.0277 H   0  0  0  0  0  0  0  0  0  0  0  0
   -9.7359    2.5932   -1.6336 H   0  0  0  0  0  0  0  0  0  0  0  0
   -8.1974    1.0117   -1.9669 H   0  0  0  0  0  0  0  0  0  0  0  0
   -8.6857    0.2954   -0.4362 H   0  0  0  0  0  0  0  0  0  0  0  0
   -2.6424    1.8135    0.1827 H   0  0  0  0  0  0  0  0  0  0  0  0
   -0.1323    2.0149    0.0168 H   0  0  0  0  0  0  0  0  0  0  0  0
    1.8464   -0.6565    1.2526 H   0  0  0  0  0  0  0  0  0  0  0  0
    2.9790    1.9475   -1.4034 H   0  0  0  0  0  0  0  0  0  0  0  0
    5.0803    1.2592    1.2313 H   0  0  0  0  0  0  0  0  0  0  0  0
    7.4347    0.8500    1.3662 H   0  0  0  0  0  0  0  0  0  0  0  0
    7.5934    0.7671   -2.9552 H   0  0  0  0  0  0  0  0  0  0  0  0
    5.1881    1.1222   -3.0184 H   0  0  0  0  0  0  0  0  0  0  0  0
    9.5687   -1.0483   -2.0913 H   0  0  0  0  0  0  0  0  0  0  0  0
    9.5447    0.5647   -2.8968 H   0  0  0  0  0  0  0  0  0  0  0  0
   11.8228    0.1575   -2.6910 H   0  0  0  0  0  0  0  0  0  0  0  0
   11.6132   -0.8686   -1.2400 H   0  0  0  0  0  0  0  0  0  0  0  0
   13.6657    2.1304   -0.8659 H   0  0  0  0  0  0  0  0  0  0  0  0
   13.3041    0.7929    0.2961 H   0  0  0  0  0  0  0  0  0  0  0  0
   13.5781    0.3662   -1.3957 H   0  0  0  0  0  0  0  0  0  0  0  0
   10.9715    2.3371    0.6489 H   0  0  0  0  0  0  0  0  0  0  0  0
   11.8454    0.7901    1.1078 H   0  0  0  0  0  0  0  0  0  0  0  0
   10.0364   -0.5082    0.7693 H   0  0  0  0  0  0  0  0  0  0  0  0
    9.2221    1.0416    1.3055 H   0  0  0  0  0  0  0  0  0  0  0  0
    0.2436   -2.1240    0.7616 H   0  0  0  0  0  0  0  0  0  0  0  0
   -2.2130   -2.3287    0.9390 H   0  0  0  0  0  0  0  0  0  0  0  0
   -5.6185   -3.6983    1.5689 H   0  0  0  0  0  0  0  0  0  0  0  0
   -5.5287   -4.0105   -0.9081 H   0  0  0  0  0  0  0  0  0  0  0  0
   -7.2922   -3.6461   -1.0024 H   0  0  0  0  0  0  0  0  0  0  0  0
   -5.8362   -6.0879    0.0436 H   0  0  0  0  0  0  0  0  0  0  0  0
   -7.5612   -5.8230   -0.6174 H   0  0  0  0  0  0  0  0  0  0  0  0
   -8.8768   -4.5648    0.4915 H   0  0  0  0  0  0  0  0  0  0  0  0
   -8.8940   -4.7462    2.3411 H   0  0  0  0  0  0  0  0  0  0  0  0
   -8.3452   -2.3632    1.0468 H   0  0  0  0  0  0  0  0  0  0  0  0
   -7.5604   -2.8608    2.6292 H   0  0  0  0  0  0  0  0  0  0  0  0
  1  2  1  0
  2  3  1  0
  3  4  1  0
  4  5  1  0
  5  6  1  0
  6  7  1  0
  7  8  1  0
  8  9  2  0
  9 10  1  0
 10 11  2  0
 11 12  1  0
 12 13  2  0
 12 14  1  0
 14 15  2  0
 15 16  1  0
 16 17  2  0
 17 18  1  0
 18 19  1  0
 19 20  2  0
 19 21  1  0
 21 22  1  0
 22 23  2  0
 23 24  1  0
 24 25  2  0
 25 26  1  0
 26 27  2  0
 25 28  1  0
 28 29  1  0
 29 30  1  0
 30 31  1  0
 31 32  1  0
 31 33  1  0
 33 34  1  0
 17 35  1  0
 35 36  2  0
 10 37  1  0
 37 38  1  0
 38 39  1  0
 39 40  1  0
 40 41  1  0
 41 42  1  0
  7  2  1  0
 13  8  1  0
 36 14  1  0
 42 37  1  0
 27 22  1  0
 34 28  1  0
  1 43  1  0
  1 44  1  0
  1 45  1  0
  2 46  1  6
  3 47  1  0
  3 48  1  0
  5 49  1  0
  5 50  1  0
  6 51  1  0
  6 52  1  0
 15 53  1  0
 16 54  1  0
 18 55  1  0
 21 56  1  0
 23 57  1  0
 24 58  1  0
 26 59  1  0
 27 60  1  0
 29 61  1  0
 29 62  1  0
 30 63  1  0
 30 64  1  0
 32 65  1  0
 32 66  1  0
 32 67  1  0
 33 68  1  0
 33 69  1  0
 34 70  1  0
 34 71  1  0
 35 72  1  0
 36 73  1  0
 37 74  1  0
 38 75  1  0
 38 76  1  0
 39 77  1  0
 39 78  1  0
 41 79  1  0
 41 80  1  0
 42 81  1  0
 42 82  1  0
M  END
$$$$
[H]OC(=O)[C@@]([H])(N([H])C(=O)[C@@]([H])(N([H])C(=O)[C@@]([H])(N([H])C(=O)[C@@]([H])(N([H])C(=O)[C@@]1([H])N(C(=O)[C@@]([H])(N([H])C(=O)OC([H])([H])c2c([H])c([H])c([H])c([H])c2[H])[C@@]([H])(C([H])([H])[H])C([H])([H])C([H])([H])[H])C([H])([H])C([H])([H])C1([H])[H])C([H])([H])C([H])(C([H])([H])[H])C([H])([H])[H])C([H])([H])O[H])C([H])(C([H])([H])[H])C([H])([H])[H])C([H])([H])O[H]
     RDKit          3D

109110  0  0  0  0  0  0  0  0999 V2000
    7.3208   -2.6591    2.0811 C   0  0  0  0  0  0  0  0  0  0  0  0
    6.7191   -3.2237    0.8201 C   0  0  0  0  0  0  0  0  0  0  0  0
    6.7371   -2.3289   -0.3627 C   0  0  2  0  0  0  0  0  0  0  0  0
    8.2018   -1.9698   -0.6481 C   0  0  0  0  0  0  0  0  0  0  0  0
    5.8448   -1.1462   -0.3774 C   0  0  2  0  0  0  0  0  0  0  0  0
    6.1310   -0.2341    0.7465 N   0  0  0  0  0  0  0  0  0  0  0  0
    6.7594    1.0325    0.5547 C   0  0  0  0  0  0  0  0  0  0  0  0
    7.0618    1.3297   -0.6447 O   0  0  0  0  0  0  0  0  0  0  0  0
    7.0366    1.9032    1.5689 O   0  0  0  0  0  0  0  0  0  0  0  0
    7.6611    3.1340    1.2734 C   0  0  0  0  0  0  0  0  0  0  0  0
    8.9787    2.8992    0.6565 C   0  0  0  0  0  0  0  0  0  0  0  0
    9.6882    1.7318    0.9313 C   0  0  0  0  0  0  0  0  0  0  0  0
   10.9137    1.4606    0.3846 C   0  0  0  0  0  0  0  0  0  0  0  0
   11.4644    2.3912   -0.4764 C   0  0  0  0  0  0  0  0  0  0  0  0
   10.7707    3.5509   -0.7557 C   0  0  0  0  0  0  0  0  0  0  0  0
    9.5262    3.8279   -0.2017 C   0  0  0  0  0  0  0  0  0  0  0  0
    4.4004   -1.4170   -0.4625 C   0  0  0  0  0  0  0  0  0  0  0  0
    3.7125   -0.9885    0.5359 O   0  0  0  0  0  0  0  0  0  0  0  0
    3.6825   -2.0638   -1.4657 N   0  0  0  0  0  0  0  0  0  0  0  0
    4.1749   -2.5919   -2.7629 C   0  0  0  0  0  0  0  0  0  0  0  0
    3.7560   -4.0304   -2.5793 C   0  0  0  0  0  0  0  0  0  0  0  0
    2.4717   -3.9725   -1.7794 C   0  0  0  0  0  0  0  0  0  0  0  0
    2.2919   -2.4379   -1.6189 C   0  0  1  0  0  0  0  0  0  0  0  0
    1.3785   -2.1380   -0.5427 C   0  0  0  0  0  0  0  0  0  0  0  0
    1.5381   -2.6415    0.6031 O   0  0  0  0  0  0  0  0  0  0  0  0
    0.2599   -1.2709   -0.6945 N   0  0  0  0  0  0  0  0  0  0  0  0
   -0.6754   -0.9417    0.3506 C   0  0  1  0  0  0  0  0  0  0  0  0
   -0.5013    0.4166    0.9407 C   0  0  0  0  0  0  0  0  0  0  0  0
   -0.6182    1.5958    0.0772 C   0  0  0  0  0  0  0  0  0  0  0  0
    0.3285    1.7213   -1.0596 C   0  0  0  0  0  0  0  0  0  0  0  0
   -0.4315    2.8241    0.9832 C   0  0  0  0  0  0  0  0  0  0  0  0
   -2.0618   -1.2930    0.0369 C   0  0  0  0  0  0  0  0  0  0  0  0
   -2.3554   -1.8386   -1.0516 O   0  0  0  0  0  0  0  0  0  0  0  0
   -3.1307   -1.0432    0.9221 N   0  0  0  0  0  0  0  0  0  0  0  0
   -4.4748   -1.3980    0.5808 C   0  0  1  0  0  0  0  0  0  0  0  0
   -5.0987   -2.3625    1.5435 C   0  0  0  0  0  0  0  0  0  0  0  0
   -5.1551   -1.8444    2.8383 O   0  0  0  0  0  0  0  0  0  0  0  0
   -5.3358   -0.2046    0.4582 C   0  0  0  0  0  0  0  0  0  0  0  0
   -4.8748    0.9592    0.6620 O   0  0  0  0  0  0  0  0  0  0  0  0
   -6.6984   -0.3244    0.1087 N   0  0  0  0  0  0  0  0  0  0  0  0
   -7.5647    0.8231   -0.0243 C   0  0  1  0  0  0  0  0  0  0  0  0
   -8.0159    0.9985   -1.4774 C   0  0  0  0  0  0  0  0  0  0  0  0
   -6.7751    1.1962   -2.3337 C   0  0  0  0  0  0  0  0  0  0  0  0
   -8.8253   -0.1789   -1.9414 C   0  0  0  0  0  0  0  0  0  0  0  0
   -8.7433    0.7775    0.8619 C   0  0  0  0  0  0  0  0  0  0  0  0
   -8.9161   -0.1977    1.6312 O   0  0  0  0  0  0  0  0  0  0  0  0
   -9.6899    1.8309    0.8547 N   0  0  0  0  0  0  0  0  0  0  0  0
  -10.8654    1.8347    1.7063 C   0  0  1  0  0  0  0  0  0  0  0  0
  -10.8255    2.9948    2.6860 C   0  0  0  0  0  0  0  0  0  0  0  0
  -10.7789    4.2234    2.0442 O   0  0  0  0  0  0  0  0  0  0  0  0
  -12.0399    1.9355    0.8259 C   0  0  0  0  0  0  0  0  0  0  0  0
  -13.3122    1.9540    1.3728 O   0  0  0  0  0  0  0  0  0  0  0  0
  -11.9675    2.0076   -0.4284 O   0  0  0  0  0  0  0  0  0  0  0  0
    6.5158   -2.4585    2.8153 H   0  0  0  0  0  0  0  0  0  0  0  0
    7.9775   -3.4083    2.5970 H   0  0  0  0  0  0  0  0  0  0  0  0
    7.8825   -1.7159    1.9315 H   0  0  0  0  0  0  0  0  0  0  0  0
    7.3035   -4.1714    0.6056 H   0  0  0  0  0  0  0  0  0  0  0  0
    5.7082   -3.6094    1.0778 H   0  0  0  0  0  0  0  0  0  0  0  0
    6.4821   -2.9830   -1.2389 H   0  0  0  0  0  0  0  0  0  0  0  0
    8.5708   -1.2226    0.0558 H   0  0  0  0  0  0  0  0  0  0  0  0
    8.7919   -2.8956   -0.7081 H   0  0  0  0  0  0  0  0  0  0  0  0
    8.2075   -1.5312   -1.6699 H   0  0  0  0  0  0  0  0  0  0  0  0
    6.1221   -0.5695   -1.2923 H   0  0  0  0  0  0  0  0  0  0  0  0
    5.8751   -0.4688    1.7233 H   0  0  0  0  0  0  0  0  0  0  0  0
    7.7850    3.7550    2.1855 H   0  0  0  0  0  0  0  0  0  0  0  0
    7.0213    3.6435    0.5015 H   0  0  0  0  0  0  0  0  0  0  0  0
    9.2046    1.0330    1.6205 H   0  0  0  0  0  0  0  0  0  0  0  0
   11.4200    0.5300    0.6376 H   0  0  0  0  0  0  0  0  0  0  0  0
   12.4336    2.1788   -0.9098 H   0  0  0  0  0  0  0  0  0  0  0  0
   11.2039    4.2787   -1.4307 H   0  0  0  0  0  0  0  0  0  0  0  0
    9.0138    4.7502   -0.4468 H   0  0  0  0  0  0  0  0  0  0  0  0
    3.4999   -2.1133   -3.5378 H   0  0  0  0  0  0  0  0  0  0  0  0
    5.1838   -2.3836   -2.9986 H   0  0  0  0  0  0  0  0  0  0  0  0
    3.4767   -4.5022   -3.5648 H   0  0  0  0  0  0  0  0  0  0  0  0
    4.5288   -4.6249   -2.0613 H   0  0  0  0  0  0  0  0  0  0  0  0
    2.5563   -4.3620   -0.7660 H   0  0  0  0  0  0  0  0  0  0  0  0
    1.5952   -4.3482   -2.3356 H   0  0  0  0  0  0  0  0  0  0  0  0
    1.9587   -2.0077   -2.5951 H   0  0  0  0  0  0  0  0  0  0  0  0
    0.1172   -0.8562   -1.6313 H   0  0  0  0  0  0  0  0  0  0  0  0
   -0.3724   -1.6401    1.2005 H   0  0  0  0  0  0  0  0  0  0  0  0
    0.5021    0.4135    1.4601 H   0  0  0  0  0  0  0  0  0  0  0  0
   -1.2266    0.5112    1.7736 H   0  0  0  0  0  0  0  0  0  0  0  0
   -1.6517    1.7470   -0.3555 H   0  0  0  0  0  0  0  0  0  0  0  0
    0.6854    2.7700   -1.1152 H   0  0  0  0  0  0  0  0  0  0  0  0
    1.2700    1.1153   -0.9055 H   0  0  0  0  0  0  0  0  0  0  0  0
   -0.1231    1.5236   -2.0558 H   0  0  0  0  0  0  0  0  0  0  0  0
   -1.3944    3.1049    1.4578 H   0  0  0  0  0  0  0  0  0  0  0  0
   -0.0137    3.6817    0.4284 H   0  0  0  0  0  0  0  0  0  0  0  0
    0.2617    2.5864    1.8150 H   0  0  0  0  0  0  0  0  0  0  0  0
   -2.9322   -0.5919    1.8402 H   0  0  0  0  0  0  0  0  0  0  0  0
   -4.4962   -1.8852   -0.4311 H   0  0  0  0  0  0  0  0  0  0  0  0
   -4.6036   -3.3583    1.5366 H   0  0  0  0  0  0  0  0  0  0  0  0
   -6.1434   -2.5424    1.2197 H   0  0  0  0  0  0  0  0  0  0  0  0
   -4.2473   -1.6265    3.1571 H   0  0  0  0  0  0  0  0  0  0  0  0
   -7.0875   -1.2741   -0.0589 H   0  0  0  0  0  0  0  0  0  0  0  0
   -6.9910    1.7626    0.2074 H   0  0  0  0  0  0  0  0  0  0  0  0
   -8.6213    1.9234   -1.5061 H   0  0  0  0  0  0  0  0  0  0  0  0
   -5.9769    0.4756   -2.0455 H   0  0  0  0  0  0  0  0  0  0  0  0
   -6.4064    2.2240   -2.1727 H   0  0  0  0  0  0  0  0  0  0  0  0
   -7.0090    1.0970   -3.4173 H   0  0  0  0  0  0  0  0  0  0  0  0
   -8.2198   -0.9119   -2.5273 H   0  0  0  0  0  0  0  0  0  0  0  0
   -9.2343   -0.7373   -1.0668 H   0  0  0  0  0  0  0  0  0  0  0  0
   -9.7233    0.1278   -2.5482 H   0  0  0  0  0  0  0  0  0  0  0  0
   -9.5366    2.6325    0.2116 H   0  0  0  0  0  0  0  0  0  0  0  0
  -10.9011    0.9078    2.3108 H   0  0  0  0  0  0  0  0  0  0  0  0
  -11.7356    2.9636    3.3139 H   0  0  0  0  0  0  0  0  0  0  0  0
   -9.9636    2.9447    3.3541 H   0  0  0  0  0  0  0  0  0  0  0  0
   -9.9123    4.2877    1.5877 H   0  0  0  0  0  0  0  0  0  0  0  0
  -13.7100    1.2175    1.9154 H   0  0  0  0  0  0  0  0  0  0  0  0
  1  2  1  0
  2  3  1  0
  3  4  1  0
  3  5  1  0
  5  6  1  0
  6  7  1  0
  7  8  2  0
  7  9  1  0
  9 10  1  0
 10 11  1  0
 11 12  2  0
 12 13  1  0
 13 14  2  0
 14 15  1  0
 15 16  2  0
  5 17  1  0
 17 18  2  0
 17 19  1  0
 19 20  1  0
 20 21  1  0
 21 22  1  0
 22 23  1  0
 23 24  1  0
 24 25  2  0
 24 26  1  0
 26 27  1  0
 27 28  1  0
 28 29  1  0
 29 30  1  0
 29 31  1  0
 27 32  1  0
 32 33  2  0
 32 34  1  0
 34 35  1  0
 35 36  1  0
 36 37  1  0
 35 38  1  0
 38 39  2  0
 38 40  1  0
 40 41  1  0
 41 42  1  0
 42 43  1  0
 42 44  1  0
 41 45  1  0
 45 46  2  0
 45 47  1  0
 47 48  1  0
 48 49  1  0
 49 50  1  0
 48 51  1  0
 51 52  1  0
 51 53  2  0
 16 11  1  0
 23 19  1  0
  1 54  1  0
  1 55  1  0
  1 56  1  0
  2 57  1  0
  2 58  1  0
  3 59  1  6
  4 60  1  0
  4 61  1  0
  4 62  1  0
  5 63  1  6
  6 64  1  0
 10 65  1  0
 10 66  1  0
 12 67  1  0
 13 68  1  0
 14 69  1  0
 15 70  1  0
 16 71  1  0
 20 72  1  0
 20 73  1  0
 21 74  1  0
 21 75  1  0
 22 76  1  0
 22 77  1  0
 23 78  1  6
 26 79  1  0
 27 80  1  1
 28 81  1  0
 28 82  1  0
 29 83  1  0
 30 84  1  0
 30 85  1  0
 30 86  1  0
 31 87  1  0
 31 88  1  0
 31 89  1  0
 34 90  1  0
 35 91  1  6
 36 92  1  0
 36 93  1  0
 37 94  1  0
 40 95  1  0
 41 96  1  1
 42 97  1  0
 43 98  1  0
 43 99  1  0
 43100  1  0
 44101  1  0
 44102  1  0
 44103  1  0
 47104  1  0
 48105  1  1
 49106  1  0
 49107  1  0
 50108  1  0
 52109  1  0
M  END
$$$$
[H]N=C(N([H])[H])N([H])C([H])([H])C([H])([H])C([H])([H])[C@@]1([H])C(=O)N2C([H])([H])C([H])([H])C([H])([H])[C@@]2([H])C(=O)N([H])C([H])([H])C(=O)N([H])[C@@]([H])(C([H])([H])c2c([H])nc([H])n2[H])C(=O)N([H])[C@]([H])(C([H])([H])c2c([H])c([H])c(O[H])c([H])c2[H])C(=O)N1[H]
     RDKit          3D

 82 85  0  0  0  0  0  0  0  0999 V2000
    5.7013    3.7825    0.7084 N   0  0  0  0  0  0  0  0  0  0  0  0
    5.1472    3.1668    1.8720 C   0  0  0  0  0  0  0  0  0  0  0  0
    4.5764    3.9734    2.7110 N   0  0  0  0  0  0  0  0  0  0  0  0
    5.2079    1.7776    2.1089 N   0  0  0  0  0  0  0  0  0  0  0  0
    5.6544    0.8475    1.1249 C   0  0  0  0  0  0  0  0  0  0  0  0
    4.6721    0.7379   -0.0630 C   0  0  0  0  0  0  0  0  0  0  0  0
    3.3942    0.2877    0.5308 C   0  0  0  0  0  0  0  0  0  0  0  0
    2.2369    0.1252   -0.4762 C   0  0  2  0  0  0  0  0  0  0  0  0
    1.1579   -0.3070    0.3373 N   0  0  0  0  0  0  0  0  0  0  0  0
    0.1812    0.3476    1.0548 C   0  0  0  0  0  0  0  0  0  0  0  0
    0.0556   -0.0873    2.2777 O   0  0  0  0  0  0  0  0  0  0  0  0
   -0.7519    1.4190    0.7700 C   0  0  1  0  0  0  0  0  0  0  0  0
   -0.6223    2.1260   -0.5357 C   0  0  0  0  0  0  0  0  0  0  0  0
   -1.6340    3.1927   -0.7363 C   0  0  0  0  0  0  0  0  0  0  0  0
   -1.4632    4.4778   -0.2857 C   0  0  0  0  0  0  0  0  0  0  0  0
   -2.4508    5.4245   -0.5338 C   0  0  0  0  0  0  0  0  0  0  0  0
   -3.6014    5.1073   -1.2224 C   0  0  0  0  0  0  0  0  0  0  0  0
   -4.5992    6.0290   -1.4829 O   0  0  0  0  0  0  0  0  0  0  0  0
   -3.7739    3.8166   -1.6755 C   0  0  0  0  0  0  0  0  0  0  0  0
   -2.7854    2.8937   -1.4204 C   0  0  0  0  0  0  0  0  0  0  0  0
   -2.1354    1.1973    1.1123 N   0  0  0  0  0  0  0  0  0  0  0  0
   -2.9206    0.1286    1.4733 C   0  0  0  0  0  0  0  0  0  0  0  0
   -3.2238    0.0996    2.7515 O   0  0  0  0  0  0  0  0  0  0  0  0
   -3.5213   -1.0129    0.7672 C   0  0  2  0  0  0  0  0  0  0  0  0
   -3.0010   -2.3666    1.0967 C   0  0  0  0  0  0  0  0  0  0  0  0
   -3.1456   -2.8118    2.4827 C   0  0  0  0  0  0  0  0  0  0  0  0
   -2.2415   -2.6883    3.4931 C   0  0  0  0  0  0  0  0  0  0  0  0
   -2.7714   -3.2293    4.6298 N   0  0  0  0  0  0  0  0  0  0  0  0
   -4.0150   -3.6943    4.3270 C   0  0  0  0  0  0  0  0  0  0  0  0
   -4.2227   -3.4337    3.0284 N   0  0  0  0  0  0  0  0  0  0  0  0
   -3.8363   -0.8301   -0.6266 N   0  0  0  0  0  0  0  0  0  0  0  0
   -3.7012   -1.7381   -1.6910 C   0  0  0  0  0  0  0  0  0  0  0  0
   -4.7483   -2.0367   -2.3763 O   0  0  0  0  0  0  0  0  0  0  0  0
   -2.4507   -2.4182   -2.1371 C   0  0  0  0  0  0  0  0  0  0  0  0
   -1.3219   -1.5666   -2.0162 N   0  0  0  0  0  0  0  0  0  0  0  0
   -0.0472   -1.5513   -2.5691 C   0  0  0  0  0  0  0  0  0  0  0  0
    0.2986   -0.5324   -3.2887 O   0  0  0  0  0  0  0  0  0  0  0  0
    1.0257   -2.5430   -2.4693 C   0  0  2  0  0  0  0  0  0  0  0  0
    0.7888   -3.7050   -1.5808 C   0  0  0  0  0  0  0  0  0  0  0  0
    2.1934   -4.2403   -1.3708 C   0  0  0  0  0  0  0  0  0  0  0  0
    3.0757   -3.2719   -2.1358 C   0  0  0  0  0  0  0  0  0  0  0  0
    2.2978   -2.0192   -2.0062 N   0  0  0  0  0  0  0  0  0  0  0  0
    2.6371   -0.7196   -1.6054 C   0  0  0  0  0  0  0  0  0  0  0  0
    3.4896   -0.1213   -2.3923 O   0  0  0  0  0  0  0  0  0  0  0  0
    5.0624    4.3710    0.1349 H   0  0  0  0  0  0  0  0  0  0  0  0
    6.6781    3.6791    0.4102 H   0  0  0  0  0  0  0  0  0  0  0  0
    4.1418    3.5881    3.5991 H   0  0  0  0  0  0  0  0  0  0  0  0
    4.9125    1.4258    3.0438 H   0  0  0  0  0  0  0  0  0  0  0  0
    5.7092   -0.1816    1.5358 H   0  0  0  0  0  0  0  0  0  0  0  0
    6.6850    1.0715    0.7429 H   0  0  0  0  0  0  0  0  0  0  0  0
    5.1708   -0.0722   -0.6818 H   0  0  0  0  0  0  0  0  0  0  0  0
    4.6432    1.6667   -0.6308 H   0  0  0  0  0  0  0  0  0  0  0  0
    3.0673    1.0483    1.2707 H   0  0  0  0  0  0  0  0  0  0  0  0
    3.5600   -0.6882    1.0293 H   0  0  0  0  0  0  0  0  0  0  0  0
    2.0885    1.1633   -0.8371 H   0  0  0  0  0  0  0  0  0  0  0  0
    1.1094   -1.3791    0.4072 H   0  0  0  0  0  0  0  0  0  0  0  0
   -0.3512    2.2480    1.5079 H   0  0  0  0  0  0  0  0  0  0  0  0
    0.3495    2.7272   -0.5800 H   0  0  0  0  0  0  0  0  0  0  0  0
   -0.6279    1.4239   -1.3749 H   0  0  0  0  0  0  0  0  0  0  0  0
   -0.5748    4.7712    0.2592 H   0  0  0  0  0  0  0  0  0  0  0  0
   -2.3653    6.4564   -0.1988 H   0  0  0  0  0  0  0  0  0  0  0  0
   -5.4425    5.7940   -1.9875 H   0  0  0  0  0  0  0  0  0  0  0  0
   -4.6665    3.4972   -2.2307 H   0  0  0  0  0  0  0  0  0  0  0  0
   -2.9332    1.8877   -1.7842 H   0  0  0  0  0  0  0  0  0  0  0  0
   -2.6701    2.1497    1.0944 H   0  0  0  0  0  0  0  0  0  0  0  0
   -4.6128   -1.0934    1.2126 H   0  0  0  0  0  0  0  0  0  0  0  0
   -1.9262   -2.4576    0.8267 H   0  0  0  0  0  0  0  0  0  0  0  0
   -3.6202   -3.0918    0.4828 H   0  0  0  0  0  0  0  0  0  0  0  0
   -1.2525   -2.2670    3.5254 H   0  0  0  0  0  0  0  0  0  0  0  0
   -4.7104   -4.1848    5.0084 H   0  0  0  0  0  0  0  0  0  0  0  0
   -5.0679   -3.6640    2.5075 H   0  0  0  0  0  0  0  0  0  0  0  0
   -4.2460    0.1283   -0.8627 H   0  0  0  0  0  0  0  0  0  0  0  0
   -2.5679   -2.8721   -3.1430 H   0  0  0  0  0  0  0  0  0  0  0  0
   -2.2957   -3.2815   -1.4585 H   0  0  0  0  0  0  0  0  0  0  0  0
   -1.5172   -0.7523   -1.3405 H   0  0  0  0  0  0  0  0  0  0  0  0
    1.1485   -2.9766   -3.5174 H   0  0  0  0  0  0  0  0  0  0  0  0
    0.3199   -3.4292   -0.6128 H   0  0  0  0  0  0  0  0  0  0  0  0
    0.1616   -4.4550   -2.1067 H   0  0  0  0  0  0  0  0  0  0  0  0
    2.2556   -5.2532   -1.8323 H   0  0  0  0  0  0  0  0  0  0  0  0
    2.4898   -4.2587   -0.3083 H   0  0  0  0  0  0  0  0  0  0  0  0
    2.9891   -3.5339   -3.2251 H   0  0  0  0  0  0  0  0  0  0  0  0
    4.1004   -3.2385   -1.8463 H   0  0  0  0  0  0  0  0  0  0  0  0
  1  2  1  0
  2  3  2  3
  2  4  1  0
  4  5  1  0
  5  6  1  0
  6  7  1  0
  7  8  1  0
  8  9  1  0
  9 10  1  0
 10 11  2  0
 10 12  1  0
 12 13  1  0
 13 14  1  0
 14 15  2  0
 15 16  1  0
 16 17  2  0
 17 18  1  0
 17 19  1  0
 19 20  2  0
 12 21  1  0
 21 22  1  0
 22 23  2  0
 22 24  1  0
 24 25  1  0
 25 26  1  0
 26 27  2  0
 27 28  1  0
 28 29  2  0
 29 30  1  0
 24 31  1  0
 31 32  1  0
 32 33  2  0
 32 34  1  0
 34 35  1  0
 35 36  1  0
 36 37  2  0
 36 38  1  0
 38 39  1  0
 39 40  1  0
 40 41  1  0
 41 42  1  0
 42 43  1  0
 43 44  2  0
 43  8  1  0
 20 14  1  0
 30 26  1  0
 42 38  1  0
  1 45  1  0
  1 46  1  0
  3 47  1  0
  4 48  1  0
  5 49  1  0
  5 50  1  0
  6 51  1  0
  6 52  1  0
  7 53  1  0
  7 54  1  0
  8 55  1  6
  9 56  1  0
 12 57  1  1
 13 58  1  0
 13 59  1  0
 15 60  1  0
 16 61  1  0
 18 62  1  0
 19 63  1  0
 20 64  1  0
 21 65  1  0
 24 66  1  1
 25 67  1  0
 25 68  1  0
 27 69  1  0
 29 70  1  0
 30 71  1  0
 31 72  1  0
 34 73  1  0
 34 74  1  0
 35 75  1  0
 38 76  1  6
 39 77  1  0
 39 78  1  0
 40 79  1  0
 40 80  1  0
 41 81  1  0
 41 82  1  0
M  END
$$$$
[H]c1nc(N([H])[H])c2c(-c3sc4c(OC([H])([H])[H])c([H])c(C([H])([H])[H])c([H])c4c3[H])c(C([H])([H])N([H])C(=O)C([H])([H])[H])c([H])n2n1
     RDKit          3D

 46 49  0  0  0  0  0  0  0  0999 V2000
   -4.1432   -2.7939    2.2942 C   0  0  0  0  0  0  0  0  0  0  0  0
   -3.0655   -2.0134    1.8358 O   0  0  0  0  0  0  0  0  0  0  0  0
   -3.2535   -1.0752    0.8408 C   0  0  0  0  0  0  0  0  0  0  0  0
   -4.4685   -0.8391    0.2412 C   0  0  0  0  0  0  0  0  0  0  0  0
   -4.5216    0.1245   -0.7387 C   0  0  0  0  0  0  0  0  0  0  0  0
   -5.8296    0.4296   -1.4348 C   0  0  0  0  0  0  0  0  0  0  0  0
   -3.3980    0.8146   -1.0931 C   0  0  0  0  0  0  0  0  0  0  0  0
   -2.1291    0.6053   -0.5042 C   0  0  0  0  0  0  0  0  0  0  0  0
   -0.9400    1.2253   -0.7690 C   0  0  0  0  0  0  0  0  0  0  0  0
    0.1514    0.8483   -0.0613 C   0  0  0  0  0  0  0  0  0  0  0  0
   -0.4795   -0.3650    0.9610 S   0  0  0  0  0  0  0  0  0  0  0  0
   -2.1075   -0.3563    0.4643 C   0  0  0  0  0  0  0  0  0  0  0  0
    1.5729    1.1818   -0.1398 C   0  0  0  0  0  0  0  0  0  0  0  0
    2.5940    0.2042   -0.0540 C   0  0  0  0  0  0  0  0  0  0  0  0
    2.3455   -1.2421    0.0928 C   0  0  0  0  0  0  0  0  0  0  0  0
    3.6225   -1.9726    0.1101 N   0  0  0  0  0  0  0  0  0  0  0  0
    3.6157   -3.3728    0.2441 C   0  0  0  0  0  0  0  0  0  0  0  0
    4.8789   -4.1260    0.2641 C   0  0  0  0  0  0  0  0  0  0  0  0
    2.5338   -3.9761    0.3461 O   0  0  0  0  0  0  0  0  0  0  0  0
    3.7640    0.9017   -0.1256 C   0  0  0  0  0  0  0  0  0  0  0  0
    3.4852    2.2131   -0.2438 N   0  0  0  0  0  0  0  0  0  0  0  0
    4.3254    3.2201   -0.3191 N   0  0  0  0  0  0  0  0  0  0  0  0
    3.8799    4.4910   -0.4043 C   0  0  0  0  0  0  0  0  0  0  0  0
    2.5534    4.7422   -0.4116 N   0  0  0  0  0  0  0  0  0  0  0  0
    1.6624    3.7225   -0.3355 C   0  0  0  0  0  0  0  0  0  0  0  0
    0.2920    4.0116   -0.2680 N   0  0  0  0  0  0  0  0  0  0  0  0
    2.1461    2.4368   -0.2545 C   0  0  0  0  0  0  0  0  0  0  0  0
   -4.6018   -3.3003    1.4093 H   0  0  0  0  0  0  0  0  0  0  0  0
   -3.8319   -3.6014    2.9784 H   0  0  0  0  0  0  0  0  0  0  0  0
   -4.9358   -2.1890    2.7712 H   0  0  0  0  0  0  0  0  0  0  0  0
   -5.3329   -1.3872    0.5310 H   0  0  0  0  0  0  0  0  0  0  0  0
   -6.5613    0.8657   -0.7592 H   0  0  0  0  0  0  0  0  0  0  0  0
   -5.6583    1.0779   -2.3098 H   0  0  0  0  0  0  0  0  0  0  0  0
   -6.2409   -0.5262   -1.8341 H   0  0  0  0  0  0  0  0  0  0  0  0
   -3.5247    1.5691   -1.8850 H   0  0  0  0  0  0  0  0  0  0  0  0
   -0.9051    1.9881   -1.6046 H   0  0  0  0  0  0  0  0  0  0  0  0
    1.6834   -1.6257   -0.7073 H   0  0  0  0  0  0  0  0  0  0  0  0
    1.8381   -1.4932    1.0553 H   0  0  0  0  0  0  0  0  0  0  0  0
    4.5248   -1.4832    0.0260 H   0  0  0  0  0  0  0  0  0  0  0  0
    5.7498   -3.4404    0.0884 H   0  0  0  0  0  0  0  0  0  0  0  0
    4.9832   -4.5999    1.2597 H   0  0  0  0  0  0  0  0  0  0  0  0
    4.8195   -4.8919   -0.5525 H   0  0  0  0  0  0  0  0  0  0  0  0
    4.7808    0.4690   -0.0925 H   0  0  0  0  0  0  0  0  0  0  0  0
    4.6168    5.2859   -0.4654 H   0  0  0  0  0  0  0  0  0  0  0  0
   -0.2039    3.9416    0.6484 H   0  0  0  0  0  0  0  0  0  0  0  0
   -0.2868    4.3010   -1.0944 H   0  0  0  0  0  0  0  0  0  0  0  0
  1  2  1  0
  2  3  1  0
  3  4  2  0
  4  5  1  0
  5  6  1  0
  5  7  2  0
  7  8  1  0
  8  9  1  0
  9 10  2  0
 10 11  1  0
 11 12  1  0
 10 13  1  0
 13 14  1  0
 14 15  1  0
 15 16  1  0
 16 17  1  0
 17 18  1  0
 17 19  2  0
 14 20  2  0
 20 21  1  0
 21 22  1  0
 22 23  2  0
 23 24  1  0
 24 25  2  0
 25 26  1  0
 25 27  1  0
 12  3  1  0
 27 13  2  0
 12  8  2  0
 27 21  1  0
  1 28  1  0
  1 29  1  0
  1 30  1  0
  4 31  1  0
  6 32  1  0
  6 33  1  0
  6 34  1  0
  7 35  1  0
  9 36  1  0
 15 37  1  0
 15 38  1  0
 16 39  1  0
 18 40  1  0
 18 41  1  0
 18 42  1  0
 20 43  1  0
 23 44  1  0
 26 45  1  0
 26 46  1  0
M  END
$$$$
[H]N=C(N([H])[H])N([H])C([H])([H])C([H])([H])C([H])([H])[C@@]([H])(C(=O)N1C([H])([H])C([H])([H])C([H])([H])[C@@]1([H])C(=O)N([H])C([H])([H])C(=O)N([H])[C@]([H])(C(=O)N([H])[C@]([H])(C(=O)N([H])[C@]([H])(C(=O)N([H])[H])C([H])([H])c1c([H])n([H])c2c([H])c([H])c([H])c([H])c12)C([H])([H])C([H])(C([H])([H])[H])C([H])([H])[H])C([H])([H])c1c([H])n([H])c2c([H])c([H])c([H])c([H])c12)N([H])[H]
     RDKit          3D

115119  0  0  0  0  0  0  0  0999 V2000
   -1.9390    3.2973   -0.7630 C   0  0  0  0  0  0  0  0  0  0  0  0
   -3.4142    3.4024   -0.3283 C   0  0  0  0  0  0  0  0  0  0  0  0
   -4.1613    4.0406   -1.4324 C   0  0  0  0  0  0  0  0  0  0  0  0
   -3.8859    2.1941    0.3117 C   0  0  0  0  0  0  0  0  0  0  0  0
   -3.9218    0.8725   -0.3647 C   0  0  2  0  0  0  0  0  0  0  0  0
   -2.6743    0.3922   -0.8378 N   0  0  0  0  0  0  0  0  0  0  0  0
   -1.7821   -0.4993   -0.1736 C   0  0  0  0  0  0  0  0  0  0  0  0
   -2.0799   -0.9486    0.9482 O   0  0  0  0  0  0  0  0  0  0  0  0
   -0.4949   -0.8999   -0.7835 C   0  0  2  0  0  0  0  0  0  0  0  0
   -0.5770   -1.5726   -2.0954 C   0  0  0  0  0  0  0  0  0  0  0  0
   -1.2879   -2.8506   -2.2052 C   0  0  0  0  0  0  0  0  0  0  0  0
   -2.6317   -3.0379   -2.5759 C   0  0  0  0  0  0  0  0  0  0  0  0
   -2.9711   -4.3173   -2.5587 N   0  0  0  0  0  0  0  0  0  0  0  0
   -1.8788   -5.0185   -2.1824 C   0  0  0  0  0  0  0  0  0  0  0  0
   -1.7600   -6.3874   -2.0456 C   0  0  0  0  0  0  0  0  0  0  0  0
   -0.5318   -6.8769   -1.6696 C   0  0  0  0  0  0  0  0  0  0  0  0
    0.5290   -6.0249   -1.4425 C   0  0  0  0  0  0  0  0  0  0  0  0
    0.3916   -4.6604   -1.5844 C   0  0  0  0  0  0  0  0  0  0  0  0
   -0.8294   -4.1319   -1.9603 C   0  0  0  0  0  0  0  0  0  0  0  0
    0.2870   -1.6595    0.1773 N   0  0  0  0  0  0  0  0  0  0  0  0
    1.5504   -1.1506    0.6203 C   0  0  0  0  0  0  0  0  0  0  0  0
    1.9656   -0.0595    0.2121 O   0  0  0  0  0  0  0  0  0  0  0  0
    2.3676   -1.9475    1.5742 C   0  0  0  0  0  0  0  0  0  0  0  0
    3.6032   -1.2253    1.8993 N   0  0  0  0  0  0  0  0  0  0  0  0
    3.5907    0.0056    2.5969 C   0  0  0  0  0  0  0  0  0  0  0  0
    2.4624    0.4569    2.9607 O   0  0  0  0  0  0  0  0  0  0  0  0
    4.7553    0.8271    2.9497 C   0  0  2  0  0  0  0  0  0  0  0  0
    4.5257    2.2881    2.9980 C   0  0  0  0  0  0  0  0  0  0  0  0
    5.0267    2.8866    1.7276 C   0  0  0  0  0  0  0  0  0  0  0  0
    5.5087    1.6433    0.9580 C   0  0  0  0  0  0  0  0  0  0  0  0
    5.8455    0.6861    1.9580 N   0  0  0  0  0  0  0  0  0  0  0  0
    6.8564   -0.2409    2.1082 C   0  0  0  0  0  0  0  0  0  0  0  0
    6.8905   -1.0567    3.1218 O   0  0  0  0  0  0  0  0  0  0  0  0
    8.0489   -0.4921    1.1927 C   0  0  1  0  0  0  0  0  0  0  0  0
    8.3459    0.7572    0.5197 N   0  0  0  0  0  0  0  0  0  0  0  0
    9.2164   -0.8949    2.0283 C   0  0  0  0  0  0  0  0  0  0  0  0
   10.4927   -1.2995    1.4854 C   0  0  0  0  0  0  0  0  0  0  0  0
   11.3399   -0.5219    0.5924 C   0  0  0  0  0  0  0  0  0  0  0  0
   10.8552   -0.3562   -0.7508 N   0  0  0  0  0  0  0  0  0  0  0  0
   11.5166    0.4840   -1.6966 C   0  0  0  0  0  0  0  0  0  0  0  0
   12.7447    1.0966   -1.3328 N   0  0  0  0  0  0  0  0  0  0  0  0
   10.9931    0.6681   -2.8582 N   0  0  0  0  0  0  0  0  0  0  0  0
   -5.0697    0.6337   -1.2570 C   0  0  0  0  0  0  0  0  0  0  0  0
   -4.8895   -0.0042   -2.3234 O   0  0  0  0  0  0  0  0  0  0  0  0
   -6.4091    1.0701   -1.0233 N   0  0  0  0  0  0  0  0  0  0  0  0
   -7.4492    0.7826   -1.9326 C   0  0  1  0  0  0  0  0  0  0  0  0
   -8.6223    0.0801   -1.3153 C   0  0  0  0  0  0  0  0  0  0  0  0
   -9.2944    0.7938   -0.2122 C   0  0  0  0  0  0  0  0  0  0  0  0
  -10.3460    1.6859   -0.3699 C   0  0  0  0  0  0  0  0  0  0  0  0
  -10.6602    2.1631    0.8319 N   0  0  0  0  0  0  0  0  0  0  0  0
   -9.8678    1.6299    1.7797 C   0  0  0  0  0  0  0  0  0  0  0  0
   -9.7951    1.7671    3.1569 C   0  0  0  0  0  0  0  0  0  0  0  0
   -8.8834    1.0607    3.8887 C   0  0  0  0  0  0  0  0  0  0  0  0
   -7.9877    0.1742    3.2834 C   0  0  0  0  0  0  0  0  0  0  0  0
   -8.0820    0.0593    1.9214 C   0  0  0  0  0  0  0  0  0  0  0  0
   -8.9862    0.7528    1.1498 C   0  0  0  0  0  0  0  0  0  0  0  0
   -7.9612    1.9425   -2.7072 C   0  0  0  0  0  0  0  0  0  0  0  0
   -8.9535    1.8101   -3.7212 N   0  0  0  0  0  0  0  0  0  0  0  0
   -7.5204    3.0762   -2.4807 O   0  0  0  0  0  0  0  0  0  0  0  0
   -1.3878    2.5779   -0.1422 H   0  0  0  0  0  0  0  0  0  0  0  0
   -1.9276    3.0167   -1.8162 H   0  0  0  0  0  0  0  0  0  0  0  0
   -1.4533    4.3003   -0.7114 H   0  0  0  0  0  0  0  0  0  0  0  0
   -3.3450    4.1987    0.4859 H   0  0  0  0  0  0  0  0  0  0  0  0
   -3.7391    5.0948   -1.5326 H   0  0  0  0  0  0  0  0  0  0  0  0
   -5.2321    4.2120   -1.2015 H   0  0  0  0  0  0  0  0  0  0  0  0
   -4.0538    3.6039   -2.4390 H   0  0  0  0  0  0  0  0  0  0  0  0
   -3.2663    2.0547    1.2554 H   0  0  0  0  0  0  0  0  0  0  0  0
   -4.9207    2.3416    0.7503 H   0  0  0  0  0  0  0  0  0  0  0  0
   -4.1508    0.1640    0.5216 H   0  0  0  0  0  0  0  0  0  0  0  0
   -2.3581    0.7127   -1.7890 H   0  0  0  0  0  0  0  0  0  0  0  0
    0.0530    0.0878   -0.9917 H   0  0  0  0  0  0  0  0  0  0  0  0
    0.4608   -1.7353   -2.4876 H   0  0  0  0  0  0  0  0  0  0  0  0
   -1.0144   -0.8234   -2.8180 H   0  0  0  0  0  0  0  0  0  0  0  0
   -3.2461   -2.2048   -2.8357 H   0  0  0  0  0  0  0  0  0  0  0  0
   -3.9201   -4.7443   -2.7915 H   0  0  0  0  0  0  0  0  0  0  0  0
   -2.5588   -7.0792   -2.2133 H   0  0  0  0  0  0  0  0  0  0  0  0
   -0.3261   -7.9404   -1.5271 H   0  0  0  0  0  0  0  0  0  0  0  0
    1.4999   -6.4042   -1.1459 H   0  0  0  0  0  0  0  0  0  0  0  0
    1.2024   -3.9779   -1.4186 H   0  0  0  0  0  0  0  0  0  0  0  0
   -0.1033   -2.5456    0.5358 H   0  0  0  0  0  0  0  0  0  0  0  0
    2.6012   -2.9508    1.1686 H   0  0  0  0  0  0  0  0  0  0  0  0
    1.7930   -2.0807    2.4955 H   0  0  0  0  0  0  0  0  0  0  0  0
    4.5223   -1.6142    1.6098 H   0  0  0  0  0  0  0  0  0  0  0  0
    5.0913    0.4805    3.9588 H   0  0  0  0  0  0  0  0  0  0  0  0
    3.4773    2.5757    3.2303 H   0  0  0  0  0  0  0  0  0  0  0  0
    5.1307    2.7156    3.8430 H   0  0  0  0  0  0  0  0  0  0  0  0
    5.8967    3.5329    1.8823 H   0  0  0  0  0  0  0  0  0  0  0  0
    4.2592    3.3940    1.1193 H   0  0  0  0  0  0  0  0  0  0  0  0
    6.2368    1.9482    0.2293 H   0  0  0  0  0  0  0  0  0  0  0  0
    4.6115    1.2981    0.3463 H   0  0  0  0  0  0  0  0  0  0  0  0
    7.8193   -1.2571    0.4400 H   0  0  0  0  0  0  0  0  0  0  0  0
    8.1274    0.8155   -0.4627 H   0  0  0  0  0  0  0  0  0  0  0  0
    8.4139    1.5784    1.1050 H   0  0  0  0  0  0  0  0  0  0  0  0
    8.8469   -1.7078    2.7691 H   0  0  0  0  0  0  0  0  0  0  0  0
    9.4386   -0.0506    2.7926 H   0  0  0  0  0  0  0  0  0  0  0  0
   10.3009   -2.2967    0.9187 H   0  0  0  0  0  0  0  0  0  0  0  0
   11.1567   -1.7050    2.3394 H   0  0  0  0  0  0  0  0  0  0  0  0
   12.3266   -1.0580    0.4960 H   0  0  0  0  0  0  0  0  0  0  0  0
   11.5386    0.5045    1.0372 H   0  0  0  0  0  0  0  0  0  0  0  0
   10.0016   -0.9069   -1.0503 H   0  0  0  0  0  0  0  0  0  0  0  0
   13.3803    1.4834   -2.0684 H   0  0  0  0  0  0  0  0  0  0  0  0
   13.0065    1.1598   -0.3266 H   0  0  0  0  0  0  0  0  0  0  0  0
   10.0920    0.1936   -3.0748 H   0  0  0  0  0  0  0  0  0  0  0  0
   -6.5873    1.6203   -0.1814 H   0  0  0  0  0  0  0  0  0  0  0  0
   -6.9960    0.0444   -2.6940 H   0  0  0  0  0  0  0  0  0  0  0  0
   -8.3530   -0.9475   -0.9626 H   0  0  0  0  0  0  0  0  0  0  0  0
   -9.4070   -0.0500   -2.1266 H   0  0  0  0  0  0  0  0  0  0  0  0
  -10.8200    1.9466   -1.3074 H   0  0  0  0  0  0  0  0  0  0  0  0
  -11.4304    2.8675    1.0150 H   0  0  0  0  0  0  0  0  0  0  0  0
  -10.5068    2.4785    3.5980 H   0  0  0  0  0  0  0  0  0  0  0  0
   -8.8767    1.2041    4.9607 H   0  0  0  0  0  0  0  0  0  0  0  0
   -7.3012   -0.3434    3.9262 H   0  0  0  0  0  0  0  0  0  0  0  0
   -7.3977   -0.6193    1.4151 H   0  0  0  0  0  0  0  0  0  0  0  0
   -8.8290    2.0314   -4.7240 H   0  0  0  0  0  0  0  0  0  0  0  0
   -9.8874    1.4591   -3.4352 H   0  0  0  0  0  0  0  0  0  0  0  0
  1  2  1  0
  2  3  1  0
  2  4  1  0
  4  5  1  0
  5  6  1  0
  6  7  1  0
  7  8  2  0
  7  9  1  0
  9 10  1  0
 10 11  1  0
 11 12  2  0
 12 13  1  0
 13 14  1  0
 14 15  2  0
 15 16  1  0
 16 17  2  0
 17 18  1  0
 18 19  2  0
  9 20  1  0
 20 21  1  0
 21 22  2  0
 21 23  1  0
 23 24  1  0
 24 25  1  0
 25 26  2  0
 25 27  1  0
 27 28  1  0
 28 29  1  0
 29 30  1  0
 30 31  1  0
 31 32  1  0
 32 33  2  0
 32 34  1  0
 34 35  1  0
 34 36  1  0
 36 37  1  0
 37 38  1  0
 38 39  1  0
 39 40  1  0
 40 41  1  0
 40 42  2  3
  5 43  1  0
 43 44  2  0
 43 45  1  0
 45 46  1  0
 46 47  1  0
 47 48  1  0
 48 49  2  0
 49 50  1  0
 50 51  1  0
 51 52  2  0
 52 53  1  0
 53 54  2  0
 54 55  1  0
 55 56  2  0
 46 57  1  0
 57 58  1  0
 57 59  2  0
 19 11  1  0
 31 27  1  0
 56 48  1  0
 19 14  1  0
 56 51  1  0
  1 60  1  0
  1 61  1  0
  1 62  1  0
  2 63  1  0
  3 64  1  0
  3 65  1  0
  3 66  1  0
  4 67  1  0
  4 68  1  0
  5 69  1  1
  6 70  1  0
  9 71  1  6
 10 72  1  0
 10 73  1  0
 12 74  1  0
 13 75  1  0
 15 76  1  0
 16 77  1  0
 17 78  1  0
 18 79  1  0
 20 80  1  0
 23 81  1  0
 23 82  1  0
 24 83  1  0
 27 84  1  1
 28 85  1  0
 28 86  1  0
 29 87  1  0
 29 88  1  0
 30 89  1  0
 30 90  1  0
 34 91  1  6
 35 92  1  0
 35 93  1  0
 36 94  1  0
 36 95  1  0
 37 96  1  0
 37 97  1  0
 38 98  1  0
 38 99  1  0
 39100  1  0
 41101  1  0
 41102  1  0
 42103  1  0
 45104  1  0
 46105  1  6
 47106  1  0
 47107  1  0
 49108  1  0
 50109  1  0
 52110  1  0
 53111  1  0
 54112  1  0
 55113  1  0
 58114  1  0
 58115  1  0
M  END
$$$$
[H]Oc1c([H])c([H])c([C@@]2([H])Sc3c([H])c(O[H])c([H])c([H])c3O[C@]2([H])c2c([H])c([H])c(OC([H])([H])C([H])([H])N3C([H])([H])C([H])([H])C([H])([H])C([H])([H])C3([H])[H])c([H])c2[H])c([H])c1[H]
     RDKit          3D

 62 66  0  0  0  0  0  0  0  0999 V2000
   -3.9070   -5.7607    1.0608 O   0  0  0  0  0  0  0  0  0  0  0  0
   -3.9396   -4.3775    0.7816 C   0  0  0  0  0  0  0  0  0  0  0  0
   -4.4942   -3.4866    1.6579 C   0  0  0  0  0  0  0  0  0  0  0  0
   -4.5146   -2.1397    1.3641 C   0  0  0  0  0  0  0  0  0  0  0  0
   -3.9866   -1.6452    0.1970 C   0  0  0  0  0  0  0  0  0  0  0  0
   -3.4301   -2.5415   -0.6826 C   0  0  0  0  0  0  0  0  0  0  0  0
   -3.4051   -3.9126   -0.3921 C   0  0  0  0  0  0  0  0  0  0  0  0
   -4.0094   -0.2153   -0.1043 C   0  0  1  0  0  0  0  0  0  0  0  0
   -5.7114    0.4220   -0.1680 S   0  0  0  0  0  0  0  0  0  0  0  0
   -5.5297    2.1755   -0.1399 C   0  0  0  0  0  0  0  0  0  0  0  0
   -6.3750    2.9865   -0.7992 C   0  0  0  0  0  0  0  0  0  0  0  0
   -6.2370    4.3837   -0.7859 C   0  0  0  0  0  0  0  0  0  0  0  0
   -7.1168    5.2101   -1.4710 O   0  0  0  0  0  0  0  0  0  0  0  0
   -5.1879    4.9099   -0.0622 C   0  0  0  0  0  0  0  0  0  0  0  0
   -4.3023    4.0900    0.6265 C   0  0  0  0  0  0  0  0  0  0  0  0
   -4.4840    2.7025    0.5808 C   0  0  0  0  0  0  0  0  0  0  0  0
   -3.6617    1.8353    1.2262 O   0  0  0  0  0  0  0  0  0  0  0  0
   -3.2587    0.5625    0.9132 C   0  0  2  0  0  0  0  0  0  0  0  0
   -1.7895    0.6436    0.5729 C   0  0  0  0  0  0  0  0  0  0  0  0
   -0.8896   -0.2715    1.0643 C   0  0  0  0  0  0  0  0  0  0  0  0
    0.4732   -0.1926    0.7444 C   0  0  0  0  0  0  0  0  0  0  0  0
    0.9158    0.8165   -0.0739 C   0  0  0  0  0  0  0  0  0  0  0  0
    2.2492    0.9060   -0.3959 O   0  0  0  0  0  0  0  0  0  0  0  0
    3.2751    0.0525    0.0245 C   0  0  0  0  0  0  0  0  0  0  0  0
    4.5704    0.5426   -0.5723 C   0  0  0  0  0  0  0  0  0  0  0  0
    5.7152   -0.2394   -0.2239 N   0  0  0  0  0  0  0  0  0  0  0  0
    5.7243   -1.5625   -0.8077 C   0  0  0  0  0  0  0  0  0  0  0  0
    6.7117   -2.4225   -0.0520 C   0  0  0  0  0  0  0  0  0  0  0  0
    7.7315   -1.5150    0.5975 C   0  0  0  0  0  0  0  0  0  0  0  0
    8.1231   -0.3992   -0.3447 C   0  0  0  0  0  0  0  0  0  0  0  0
    6.9244    0.4378   -0.6573 C   0  0  0  0  0  0  0  0  0  0  0  0
    0.0320    1.7384   -0.5733 C   0  0  0  0  0  0  0  0  0  0  0  0
   -1.3063    1.6503   -0.2515 C   0  0  0  0  0  0  0  0  0  0  0  0
   -4.6956   -6.3407    0.7542 H   0  0  0  0  0  0  0  0  0  0  0  0
   -4.9173   -3.8718    2.5902 H   0  0  0  0  0  0  0  0  0  0  0  0
   -4.9591   -1.4791    2.0793 H   0  0  0  0  0  0  0  0  0  0  0  0
   -2.9949   -2.2279   -1.6212 H   0  0  0  0  0  0  0  0  0  0  0  0
   -2.9722   -4.6328   -1.0714 H   0  0  0  0  0  0  0  0  0  0  0  0
   -3.5718    0.0162   -1.1069 H   0  0  0  0  0  0  0  0  0  0  0  0
   -7.1939    2.5877   -1.3652 H   0  0  0  0  0  0  0  0  0  0  0  0
   -6.8491    5.4222   -2.4400 H   0  0  0  0  0  0  0  0  0  0  0  0
   -5.0715    5.9915   -0.0446 H   0  0  0  0  0  0  0  0  0  0  0  0
   -3.4907    4.5272    1.1831 H   0  0  0  0  0  0  0  0  0  0  0  0
   -3.3277   -0.0424    1.8731 H   0  0  0  0  0  0  0  0  0  0  0  0
   -1.2556   -1.0601    1.7066 H   0  0  0  0  0  0  0  0  0  0  0  0
    1.1108   -0.9531    1.1743 H   0  0  0  0  0  0  0  0  0  0  0  0
    3.3696    0.0177    1.1377 H   0  0  0  0  0  0  0  0  0  0  0  0
    3.1138   -0.9992   -0.2865 H   0  0  0  0  0  0  0  0  0  0  0  0
    4.4525    0.4505   -1.6936 H   0  0  0  0  0  0  0  0  0  0  0  0
    4.7257    1.6178   -0.3689 H   0  0  0  0  0  0  0  0  0  0  0  0
    4.7367   -2.0436   -0.8638 H   0  0  0  0  0  0  0  0  0  0  0  0
    6.0785   -1.5121   -1.8796 H   0  0  0  0  0  0  0  0  0  0  0  0
    7.1597   -3.1312   -0.7798 H   0  0  0  0  0  0  0  0  0  0  0  0
    6.1990   -3.0284    0.7328 H   0  0  0  0  0  0  0  0  0  0  0  0
    7.2483   -1.0963    1.5040 H   0  0  0  0  0  0  0  0  0  0  0  0
    8.6202   -2.1318    0.8572 H   0  0  0  0  0  0  0  0  0  0  0  0
    8.8999    0.2176    0.1683 H   0  0  0  0  0  0  0  0  0  0  0  0
    8.5369   -0.8786   -1.2633 H   0  0  0  0  0  0  0  0  0  0  0  0
    6.9455    1.4481   -0.2015 H   0  0  0  0  0  0  0  0  0  0  0  0
    6.8431    0.5145   -1.7752 H   0  0  0  0  0  0  0  0  0  0  0  0
    0.3522    2.5359   -1.2138 H   0  0  0  0  0  0  0  0  0  0  0  0
   -2.0023    2.3663   -0.6392 H   0  0  0  0  0  0  0  0  0  0  0  0
  1  2  1  0
  2  3  2  0
  3  4  1  0
  4  5  2  0
  5  6  1  0
  6  7  2  0
  5  8  1  0
  8  9  1  0
  9 10  1  0
 10 11  2  0
 11 12  1  0
 12 13  1  0
 12 14  2  0
 14 15  1  0
 15 16  2  0
 16 17  1  0
 17 18  1  0
 18 19  1  0
 19 20  2  0
 20 21  1  0
 21 22  2  0
 22 23  1  0
 23 24  1  0
 24 25  1  0
 25 26  1  0
 26 27  1  0
 27 28  1  0
 28 29  1  0
 29 30  1  0
 30 31  1  0
 22 32  1  0
 32 33  2  0
  7  2  1  0
 18  8  1  0
 33 19  1  0
 16 10  1  0
 31 26  1  0
  1 34  1  0
  3 35  1  0
  4 36  1  0
  6 37  1  0
  7 38  1  0
  8 39  1  6
 11 40  1  0
 13 41  1  0
 14 42  1  0
 15 43  1  0
 18 44  1  1
 20 45  1  0
 21 46  1  0
 24 47  1  0
 24 48  1  0
 25 49  1  0
 25 50  1  0
 27 51  1  0
 27 52  1  0
 28 53  1  0
 28 54  1  0
 29 55  1  0
 29 56  1  0
 30 57  1  0
 30 58  1  0
 31 59  1  0
 31 60  1  0
 32 61  1  0
 33 62  1  0
M  END
$$$$
[H]O[C@@]1([H])C([H])([H])C([H])([H])[C@]2([H])[C@]1(C([H])([H])[H])C([H])([H])C([H])([H])[C@]1([H])[C@]3(C([H])([H])[H])C(=C([H])C(=O)C([H])([H])C3([H])[H])C([H])([H])C([H])([H])[C@@]21[H]
     RDKit          3D

 49 52  0  0  0  0  0  0  0  0999 V2000
    2.6003    1.3949    0.7370 C   0  0  0  0  0  0  0  0  0  0  0  0
    2.3315    0.4990   -0.4424 C   0  0  2  0  0  0  0  0  0  0  0  0
    1.5103    1.1614   -1.4949 C   0  0  0  0  0  0  0  0  0  0  0  0
    0.1483    1.4556   -0.9170 C   0  0  0  0  0  0  0  0  0  0  0  0
   -0.5369    0.1560   -0.5507 C   0  0  1  0  0  0  0  0  0  0  0  0
    0.2754   -0.6369    0.4710 C   0  0  1  0  0  0  0  0  0  0  0  0
   -0.3169   -2.0384    0.5263 C   0  0  0  0  0  0  0  0  0  0  0  0
   -1.7749   -2.0482    0.8169 C   0  0  0  0  0  0  0  0  0  0  0  0
   -2.5405   -0.9871    0.1457 C   0  0  0  0  0  0  0  0  0  0  0  0
   -3.7658   -1.2727   -0.2625 C   0  0  0  0  0  0  0  0  0  0  0  0
   -4.6079   -0.3042   -0.9341 C   0  0  0  0  0  0  0  0  0  0  0  0
   -5.6066   -0.6232   -1.6118 O   0  0  0  0  0  0  0  0  0  0  0  0
   -4.2087    1.1393   -0.7699 C   0  0  0  0  0  0  0  0  0  0  0  0
   -2.7163    1.1869   -1.0278 C   0  0  0  0  0  0  0  0  0  0  0  0
   -1.9296    0.3620   -0.0560 C   0  0  2  0  0  0  0  0  0  0  0  0
   -1.9459    1.0713    1.2829 C   0  0  0  0  0  0  0  0  0  0  0  0
    1.6457   -0.7900   -0.0472 C   0  0  2  0  0  0  0  0  0  0  0  0
    2.6444   -1.3862    0.8737 C   0  0  0  0  0  0  0  0  0  0  0  0
    3.9631   -1.0731    0.1623 C   0  0  0  0  0  0  0  0  0  0  0  0
    3.6050   -0.1289   -0.9688 C   0  0  2  0  0  0  0  0  0  0  0  0
    4.5812    0.7519   -1.2889 O   0  0  0  0  0  0  0  0  0  0  0  0
    3.6756    1.2716    1.0471 H   0  0  0  0  0  0  0  0  0  0  0  0
    1.9625    1.2047    1.6015 H   0  0  0  0  0  0  0  0  0  0  0  0
    2.4819    2.4492    0.4115 H   0  0  0  0  0  0  0  0  0  0  0  0
    1.9872    2.1545   -1.7263 H   0  0  0  0  0  0  0  0  0  0  0  0
    1.4562    0.5158   -2.3781 H   0  0  0  0  0  0  0  0  0  0  0  0
   -0.4734    1.9510   -1.6671 H   0  0  0  0  0  0  0  0  0  0  0  0
    0.2714    2.1214   -0.0498 H   0  0  0  0  0  0  0  0  0  0  0  0
   -0.5888   -0.4547   -1.4753 H   0  0  0  0  0  0  0  0  0  0  0  0
    0.1940   -0.1895    1.4684 H   0  0  0  0  0  0  0  0  0  0  0  0
   -0.0876   -2.5040   -0.4691 H   0  0  0  0  0  0  0  0  0  0  0  0
    0.2474   -2.5825    1.3004 H   0  0  0  0  0  0  0  0  0  0  0  0
   -2.1698   -3.0559    0.5263 H   0  0  0  0  0  0  0  0  0  0  0  0
   -1.9002   -2.0016    1.9294 H   0  0  0  0  0  0  0  0  0  0  0  0
   -4.1853   -2.2671   -0.1012 H   0  0  0  0  0  0  0  0  0  0  0  0
   -4.4637    1.4087    0.2637 H   0  0  0  0  0  0  0  0  0  0  0  0
   -4.7180    1.7173   -1.5432 H   0  0  0  0  0  0  0  0  0  0  0  0
   -2.5697    0.8169   -2.0700 H   0  0  0  0  0  0  0  0  0  0  0  0
   -2.4147    2.2480   -0.9356 H   0  0  0  0  0  0  0  0  0  0  0  0
   -2.6695    1.9362    1.2729 H   0  0  0  0  0  0  0  0  0  0  0  0
   -2.2828    0.4031    2.1004 H   0  0  0  0  0  0  0  0  0  0  0  0
   -0.9566    1.5164    1.5155 H   0  0  0  0  0  0  0  0  0  0  0  0
    1.6091   -1.4204   -0.9702 H   0  0  0  0  0  0  0  0  0  0  0  0
    2.6340   -0.7940    1.8359 H   0  0  0  0  0  0  0  0  0  0  0  0
    2.5188   -2.4554    1.0564 H   0  0  0  0  0  0  0  0  0  0  0  0
    4.3735   -2.0337   -0.2265 H   0  0  0  0  0  0  0  0  0  0  0  0
    4.6899   -0.6220    0.8558 H   0  0  0  0  0  0  0  0  0  0  0  0
    3.3380   -0.7531   -1.8418 H   0  0  0  0  0  0  0  0  0  0  0  0
    4.6855    1.5297   -0.7163 H   0  0  0  0  0  0  0  0  0  0  0  0
  2  1  1  1
  2  3  1  0
  3  4  1  0
  4  5  1  0
  5  6  1  0
  6  7  1  0
  7  8  1  0
  8  9  1  0
  9 10  2  0
 10 11  1  0
 11 12  2  0
 11 13  1  0
 13 14  1  0
 14 15  1  0
 15 16  1  1
  6 17  1  0
 17 18  1  0
 18 19  1  0
 19 20  1  0
 20 21  1  0
 17  2  1  0
 20  2  1  0
 15  5  1  0
 15  9  1  0
  1 22  1  0
  1 23  1  0
  1 24  1  0
  3 25  1  0
  3 26  1  0
  4 27  1  0
  4 28  1  0
  5 29  1  6
  6 30  1  1
  7 31  1  0
  7 32  1  0
  8 33  1  0
  8 34  1  0
 10 35  1  0
 13 36  1  0
 13 37  1  0
 14 38  1  0
 14 39  1  0
 16 40  1  0
 16 41  1  0
 16 42  1  0
 17 43  1  6
 18 44  1  0
 18 45  1  0
 19 46  1  0
 19 47  1  0
 20 48  1  6
 21 49  1  0
M  END
$$$$
[H]OC([H])([H])[C@@]1([H])O[C@@]([H])(n2c3c([H])c([H])c([H])c(Cl)c3c3c([H])c([H])c([H])c(Cl)c32)[C@]([H])(O[H])[C@]1([H])O[H]
     RDKit          3D

 39 42  0  0  0  0  0  0  0  0999 V2000
   -3.5596    0.9673   -2.6003 O   0  0  0  0  0  0  0  0  0  0  0  0
   -3.6368    1.3918   -1.2719 C   0  0  0  0  0  0  0  0  0  0  0  0
   -2.8644    0.4416   -0.4331 C   0  0  1  0  0  0  0  0  0  0  0  0
   -1.5154    0.3974   -0.8275 O   0  0  0  0  0  0  0  0  0  0  0  0
   -0.9744   -0.5131    0.1469 C   0  0  2  0  0  0  0  0  0  0  0  0
   -1.5239    0.0722    1.4318 C   0  0  2  0  0  0  0  0  0  0  0  0
   -2.0405   -0.8754    2.3108 O   0  0  0  0  0  0  0  0  0  0  0  0
   -2.7272    0.8903    1.0035 C   0  0  2  0  0  0  0  0  0  0  0  0
   -3.8775    0.6023    1.7023 O   0  0  0  0  0  0  0  0  0  0  0  0
    0.4424   -0.4437    0.0192 N   0  0  0  0  0  0  0  0  0  0  0  0
    1.3106   -1.4612    0.0568 C   0  0  0  0  0  0  0  0  0  0  0  0
    1.1936   -2.8253    0.2305 C   0  0  0  0  0  0  0  0  0  0  0  0
   -0.3570   -3.5383    0.4753 Cl  0  0  0  0  0  0  0  0  0  0  0  0
    2.2784   -3.6776    0.2313 C   0  0  0  0  0  0  0  0  0  0  0  0
    3.5475   -3.2041    0.0572 C   0  0  0  0  0  0  0  0  0  0  0  0
    3.7085   -1.8411   -0.1198 C   0  0  0  0  0  0  0  0  0  0  0  0
    2.6108   -1.0040   -0.1177 C   0  0  0  0  0  0  0  0  0  0  0  0
    2.5384    0.3502   -0.2675 C   0  0  0  0  0  0  0  0  0  0  0  0
    3.5046    1.3110   -0.4647 C   0  0  0  0  0  0  0  0  0  0  0  0
    5.2133    0.9637   -0.5847 Cl  0  0  0  0  0  0  0  0  0  0  0  0
    3.1083    2.6386   -0.5764 C   0  0  0  0  0  0  0  0  0  0  0  0
    1.7847    2.9625   -0.4896 C   0  0  0  0  0  0  0  0  0  0  0  0
    0.8183    1.9846   -0.2904 C   0  0  0  0  0  0  0  0  0  0  0  0
    1.1898    0.6784   -0.1792 C   0  0  0  0  0  0  0  0  0  0  0  0
   -3.8758    0.0272   -2.6223 H   0  0  0  0  0  0  0  0  0  0  0  0
   -3.2521    2.4146   -1.2076 H   0  0  0  0  0  0  0  0  0  0  0  0
   -4.7135    1.3123   -0.9844 H   0  0  0  0  0  0  0  0  0  0  0  0
   -3.3009   -0.5632   -0.4426 H   0  0  0  0  0  0  0  0  0  0  0  0
   -1.4773   -1.4198   -0.1628 H   0  0  0  0  0  0  0  0  0  0  0  0
   -0.7687    0.6977    1.9549 H   0  0  0  0  0  0  0  0  0  0  0  0
   -2.6915   -1.4422    1.8142 H   0  0  0  0  0  0  0  0  0  0  0  0
   -2.5251    1.9803    1.0746 H   0  0  0  0  0  0  0  0  0  0  0  0
   -3.9772    1.1927    2.4869 H   0  0  0  0  0  0  0  0  0  0  0  0
    2.1183   -4.7604    0.3750 H   0  0  0  0  0  0  0  0  0  0  0  0
    4.3921   -3.8692    0.0579 H   0  0  0  0  0  0  0  0  0  0  0  0
    4.7170   -1.4980   -0.2542 H   0  0  0  0  0  0  0  0  0  0  0  0
    3.8749    3.3871   -0.7314 H   0  0  0  0  0  0  0  0  0  0  0  0
    1.5164    4.0031   -0.5810 H   0  0  0  0  0  0  0  0  0  0  0  0
   -0.2090    2.2694   -0.2202 H   0  0  0  0  0  0  0  0  0  0  0  0
  1  2  1  0
  2  3  1  0
  3  4  1  0
  4  5  1  0
  5  6  1  0
  6  7  1  0
  6  8  1  0
  8  9  1  0
  5 10  1  0
 10 11  1  0
 11 12  2  0
 12 13  1  0
 12 14  1  0
 14 15  2  0
 15 16  1  0
 16 17  2  0
 17 18  1  0
 18 19  2  0
 19 20  1  0
 19 21  1  0
 21 22  2  0
 22 23  1  0
 23 24  2  0
  8  3  1  0
 24 10  1  0
 17 11  1  0
 24 18  1  0
  1 25  1  0
  2 26  1  0
  2 27  1  0
  3 28  1  1
  5 29  1  6
  6 30  1  1
  7 31  1  0
  8 32  1  6
  9 33  1  0
 14 34  1  0
 15 35  1  0
 16 36  1  0
 21 37  1  0
 22 38  1  0
 23 39  1  0
M  END
$$$$
[H]Oc1c([H])c([H])c([H])c2c1c1c([H])c(Cl)c([H])c(Cl)c1n2[C@]1([H])O[C@]([H])(C([H])([H])O[H])[C@@]([H])(O[H])[C@@]1([H])O[H]
     RDKit          3D

 40 43  0  0  0  0  0  0  0  0999 V2000
    2.9929   -1.9010   -1.6375 O   0  0  0  0  0  0  0  0  0  0  0  0
    3.4860   -0.6402   -1.8583 C   0  0  0  0  0  0  0  0  0  0  0  0
    2.9828    0.3920   -0.8631 C   0  0  1  0  0  0  0  0  0  0  0  0
    1.6385    0.4569   -0.9354 O   0  0  0  0  0  0  0  0  0  0  0  0
    1.0453    0.5450    0.3302 C   0  0  2  0  0  0  0  0  0  0  0  0
    1.9061   -0.4952    0.9986 C   0  0  2  0  0  0  0  0  0  0  0  0
    1.9918   -0.4257    2.3553 O   0  0  0  0  0  0  0  0  0  0  0  0
    3.3346    0.0359    0.5449 C   0  0  2  0  0  0  0  0  0  0  0  0
    3.6225    1.1844    1.2327 O   0  0  0  0  0  0  0  0  0  0  0  0
   -0.3691    0.3132    0.2480 N   0  0  0  0  0  0  0  0  0  0  0  0
   -1.1952    1.3046   -0.2564 C   0  0  0  0  0  0  0  0  0  0  0  0
   -0.9250    2.5664   -0.7248 C   0  0  0  0  0  0  0  0  0  0  0  0
    0.6535    3.3070   -0.7926 Cl  0  0  0  0  0  0  0  0  0  0  0  0
   -2.0142    3.3329   -1.1728 C   0  0  0  0  0  0  0  0  0  0  0  0
   -3.2891    2.8624   -1.1504 C   0  0  0  0  0  0  0  0  0  0  0  0
   -4.6275    3.8294   -1.7164 Cl  0  0  0  0  0  0  0  0  0  0  0  0
   -3.5260    1.5892   -0.6718 C   0  0  0  0  0  0  0  0  0  0  0  0
   -2.4798    0.7999   -0.2209 C   0  0  0  0  0  0  0  0  0  0  0  0
   -2.4565   -0.4764    0.2956 C   0  0  0  0  0  0  0  0  0  0  0  0
   -3.4105   -1.4302    0.5606 C   0  0  0  0  0  0  0  0  0  0  0  0
   -4.7159   -1.2253    0.3102 O   0  0  0  0  0  0  0  0  0  0  0  0
   -3.0548   -2.6850    1.1158 C   0  0  0  0  0  0  0  0  0  0  0  0
   -1.7561   -2.9600    1.3947 C   0  0  0  0  0  0  0  0  0  0  0  0
   -0.7860   -1.9838    1.1236 C   0  0  0  0  0  0  0  0  0  0  0  0
   -1.1258   -0.7669    0.5849 C   0  0  0  0  0  0  0  0  0  0  0  0
    3.4594   -2.5568   -2.1916 H   0  0  0  0  0  0  0  0  0  0  0  0
    3.2598   -0.3407   -2.8988 H   0  0  0  0  0  0  0  0  0  0  0  0
    4.6077   -0.6165   -1.7754 H   0  0  0  0  0  0  0  0  0  0  0  0
    3.4294    1.3970   -1.1471 H   0  0  0  0  0  0  0  0  0  0  0  0
    1.2549    1.5437    0.8235 H   0  0  0  0  0  0  0  0  0  0  0  0
    1.8397   -1.4790    0.5272 H   0  0  0  0  0  0  0  0  0  0  0  0
    2.7858   -0.9903    2.6141 H   0  0  0  0  0  0  0  0  0  0  0  0
    4.0605   -0.7672    0.6110 H   0  0  0  0  0  0  0  0  0  0  0  0
    4.2219    1.0697    2.0042 H   0  0  0  0  0  0  0  0  0  0  0  0
   -1.7937    4.3353   -1.5460 H   0  0  0  0  0  0  0  0  0  0  0  0
   -4.5297    1.2017   -0.6461 H   0  0  0  0  0  0  0  0  0  0  0  0
   -5.3938   -0.6770    0.0036 H   0  0  0  0  0  0  0  0  0  0  0  0
   -3.8310   -3.4234    1.3164 H   0  0  0  0  0  0  0  0  0  0  0  0
   -1.4816   -3.9259    1.8214 H   0  0  0  0  0  0  0  0  0  0  0  0
    0.1886   -2.3001    1.3886 H   0  0  0  0  0  0  0  0  0  0  0  0
  1  2  1  0
  2  3  1  0
  3  4  1  0
  4  5  1  0
  5  6  1  0
  6  7  1  0
  6  8  1  0
  8  9  1  0
  5 10  1  0
 10 11  1  0
 11 12  2  0
 12 13  1  0
 12 14  1  0
 14 15  2  0
 15 16  1  0
 15 17  1  0
 17 18  2  0
 18 19  1  0
 19 20  2  0
 20 21  1  0
 20 22  1  0
 22 23  2  0
 23 24  1  0
 24 25  2  0
  8  3  1  0
 25 10  1  0
 18 11  1  0
 25 19  1  0
  1 26  1  0
  2 27  1  0
  2 28  1  0
  3 29  1  6
  5 30  1  1
  6 31  1  1
  7 32  1  0
  8 33  1  6
  9 34  1  0
 14 35  1  0
 17 36  1  0
 21 37  1  0
 22 38  1  0
 23 39  1  0
 24 40  1  0
M  END
$$$$
[H]Oc1c([H])c(O[H])c(C([H])(C([H])([H])[H])C([H])([H])[H])c([H])c1C(=O)N1C([H])([H])c2c([H])c([H])c([H])c([H])c2C([H])([H])C1([H])[H]
     RDKit          3D

 44 46  0  0  0  0  0  0  0  0999 V2000
   -2.6386   -1.9622    1.8247 C   0  0  0  0  0  0  0  0  0  0  0  0
   -3.4926   -1.9857    0.5788 C   0  0  0  0  0  0  0  0  0  0  0  0
   -4.9094   -1.5993    0.8471 C   0  0  0  0  0  0  0  0  0  0  0  0
   -2.8608   -1.1490   -0.4902 C   0  0  0  0  0  0  0  0  0  0  0  0
   -1.6813   -0.4326   -0.2542 C   0  0  0  0  0  0  0  0  0  0  0  0
   -1.0456    0.3507   -1.1757 C   0  0  0  0  0  0  0  0  0  0  0  0
    0.1552    1.1218   -0.9490 C   0  0  0  0  0  0  0  0  0  0  0  0
    0.4507    1.9571   -1.9355 O   0  0  0  0  0  0  0  0  0  0  0  0
    1.0802    1.1824    0.0826 N   0  0  0  0  0  0  0  0  0  0  0  0
    1.0456    0.3890    1.2596 C   0  0  0  0  0  0  0  0  0  0  0  0
    2.2770    0.4611    2.1456 C   0  0  0  0  0  0  0  0  0  0  0  0
    3.4957    0.7617    1.3745 C   0  0  0  0  0  0  0  0  0  0  0  0
    4.6866    0.1970    1.7542 C   0  0  0  0  0  0  0  0  0  0  0  0
    5.8596    0.4650    1.0333 C   0  0  0  0  0  0  0  0  0  0  0  0
    5.8205    1.2958   -0.0582 C   0  0  0  0  0  0  0  0  0  0  0  0
    4.6028    1.8493   -0.4146 C   0  0  0  0  0  0  0  0  0  0  0  0
    3.4587    1.5974    0.2760 C   0  0  0  0  0  0  0  0  0  0  0  0
    2.1697    2.1725   -0.0797 C   0  0  0  0  0  0  0  0  0  0  0  0
   -1.6551    0.4192   -2.4524 C   0  0  0  0  0  0  0  0  0  0  0  0
   -1.0950    1.1841   -3.4605 O   0  0  0  0  0  0  0  0  0  0  0  0
   -2.8091   -0.2789   -2.6893 C   0  0  0  0  0  0  0  0  0  0  0  0
   -3.4203   -1.0580   -1.7370 C   0  0  0  0  0  0  0  0  0  0  0  0
   -4.5877   -1.7587   -1.9928 O   0  0  0  0  0  0  0  0  0  0  0  0
   -1.6138   -2.3362    1.6344 H   0  0  0  0  0  0  0  0  0  0  0  0
   -2.5601   -0.9756    2.2896 H   0  0  0  0  0  0  0  0  0  0  0  0
   -3.0956   -2.6980    2.5238 H   0  0  0  0  0  0  0  0  0  0  0  0
   -3.4380   -3.0376    0.1913 H   0  0  0  0  0  0  0  0  0  0  0  0
   -5.0786   -1.6396    1.9554 H   0  0  0  0  0  0  0  0  0  0  0  0
   -5.1284   -0.5819    0.4443 H   0  0  0  0  0  0  0  0  0  0  0  0
   -5.5815   -2.3342    0.3590 H   0  0  0  0  0  0  0  0  0  0  0  0
   -1.3088   -0.5345    0.7483 H   0  0  0  0  0  0  0  0  0  0  0  0
    0.9130   -0.6758    0.9394 H   0  0  0  0  0  0  0  0  0  0  0  0
    0.2085    0.6438    1.9331 H   0  0  0  0  0  0  0  0  0  0  0  0
    2.1846    1.2010    2.9554 H   0  0  0  0  0  0  0  0  0  0  0  0
    2.3998   -0.5338    2.6169 H   0  0  0  0  0  0  0  0  0  0  0  0
    4.7886   -0.4639    2.6002 H   0  0  0  0  0  0  0  0  0  0  0  0
    6.7824    0.0080    1.3532 H   0  0  0  0  0  0  0  0  0  0  0  0
    6.7103    1.5043   -0.6122 H   0  0  0  0  0  0  0  0  0  0  0  0
    4.6136    2.4987   -1.2806 H   0  0  0  0  0  0  0  0  0  0  0  0
    1.9460    3.0405    0.5735 H   0  0  0  0  0  0  0  0  0  0  0  0
    2.2180    2.4695   -1.1424 H   0  0  0  0  0  0  0  0  0  0  0  0
   -1.5084    1.2493   -4.3790 H   0  0  0  0  0  0  0  0  0  0  0  0
   -3.2915   -0.2349   -3.6734 H   0  0  0  0  0  0  0  0  0  0  0  0
   -5.0669   -1.7489   -2.8808 H   0  0  0  0  0  0  0  0  0  0  0  0
  1  2  1  0
  2  3  1  0
  2  4  1  0
  4  5  2  0
  5  6  1  0
  6  7  1  0
  7  8  2  0
  7  9  1  0
  9 10  1  0
 10 11  1  0
 11 12  1  0
 12 13  2  0
 13 14  1  0
 14 15  2  0
 15 16  1  0
 16 17  2  0
 17 18  1  0
  6 19  2  0
 19 20  1  0
 19 21  1  0
 21 22  2  0
 22 23  1  0
 22  4  1  0
 18  9  1  0
 17 12  1  0
  1 24  1  0
  1 25  1  0
  1 26  1  0
  2 27  1  0
  3 28  1  0
  3 29  1  0
  3 30  1  0
  5 31  1  0
 10 32  1  0
 10 33  1  0
 11 34  1  0
 11 35  1  0
 13 36  1  0
 14 37  1  0
 15 38  1  0
 16 39  1  0
 18 40  1  0
 18 41  1  0
 20 42  1  0
 21 43  1  0
 23 44  1  0
M  END
$$$$
[H]OC(=O)[C@@]([H])(N([H])C(=O)[C@@]([H])(N([H])C(=O)[C@@]([H])(N([H])C(=O)OC([H])([H])c1c([H])c([H])c([H])c([H])c1[H])C([H])([H])C([H])(C([H])([H])[H])C([H])([H])[H])C([H])([H])C([H])(C([H])([H])[H])C([H])([H])[H])C([H])([H])C([H])(C([H])([H])[H])C([H])([H])[H]
     RDKit          3D

 76 76  0  0  0  0  0  0  0  0999 V2000
   -5.0472    2.1480    3.6394 C   0  0  0  0  0  0  0  0  0  0  0  0
   -5.6737    2.2687    2.2658 C   0  0  0  0  0  0  0  0  0  0  0  0
   -7.1397    2.1489    2.3543 C   0  0  0  0  0  0  0  0  0  0  0  0
   -4.9474    1.5531    1.2081 C   0  0  0  0  0  0  0  0  0  0  0  0
   -4.7149    0.0949    1.3067 C   0  0  2  0  0  0  0  0  0  0  0  0
   -3.9516   -0.2473    0.0622 N   0  0  0  0  0  0  0  0  0  0  0  0
   -2.6342   -0.7265    0.1759 C   0  0  0  0  0  0  0  0  0  0  0  0
   -2.1528   -0.8359    1.3758 O   0  0  0  0  0  0  0  0  0  0  0  0
   -1.7377   -1.1146   -0.9118 C   0  0  2  0  0  0  0  0  0  0  0  0
   -2.1328   -2.2870   -1.7341 C   0  0  0  0  0  0  0  0  0  0  0  0
   -3.3900   -2.2422   -2.5019 C   0  0  0  0  0  0  0  0  0  0  0  0
   -3.4530   -1.1400   -3.5404 C   0  0  0  0  0  0  0  0  0  0  0  0
   -3.5533   -3.5739   -3.2655 C   0  0  0  0  0  0  0  0  0  0  0  0
   -0.4165   -1.3522   -0.3101 N   0  0  0  0  0  0  0  0  0  0  0  0
    0.6943   -0.5165   -0.4890 C   0  0  0  0  0  0  0  0  0  0  0  0
    0.6025    0.5088   -1.1957 O   0  0  0  0  0  0  0  0  0  0  0  0
    2.0000   -0.8199    0.1495 C   0  0  2  0  0  0  0  0  0  0  0  0
    1.7845   -0.9926    1.6382 C   0  0  0  0  0  0  0  0  0  0  0  0
    3.0639   -1.3070    2.3622 C   0  0  0  0  0  0  0  0  0  0  0  0
    2.7477   -1.4615    3.8407 C   0  0  0  0  0  0  0  0  0  0  0  0
    3.6178   -2.6149    1.8137 C   0  0  0  0  0  0  0  0  0  0  0  0
    2.9901    0.1749   -0.1195 N   0  0  0  0  0  0  0  0  0  0  0  0
    4.1584   -0.0110   -0.9134 C   0  0  0  0  0  0  0  0  0  0  0  0
    4.4276   -1.1096   -1.4686 O   0  0  0  0  0  0  0  0  0  0  0  0
    5.0656    1.0170   -1.1171 O   0  0  0  0  0  0  0  0  0  0  0  0
    6.2187    0.8166   -1.9119 C   0  0  0  0  0  0  0  0  0  0  0  0
    7.0461    2.0429   -1.9874 C   0  0  0  0  0  0  0  0  0  0  0  0
    8.0410    2.1314   -2.9340 C   0  0  0  0  0  0  0  0  0  0  0  0
    8.8018    3.2677   -2.9901 C   0  0  0  0  0  0  0  0  0  0  0  0
    8.6029    4.3234   -2.1314 C   0  0  0  0  0  0  0  0  0  0  0  0
    7.6116    4.2111   -1.2035 C   0  0  0  0  0  0  0  0  0  0  0  0
    6.8267    3.0712   -1.1252 C   0  0  0  0  0  0  0  0  0  0  0  0
   -5.8789   -0.7912    1.2790 C   0  0  0  0  0  0  0  0  0  0  0  0
   -6.7836   -0.8737    2.3167 O   0  0  0  0  0  0  0  0  0  0  0  0
   -6.1190   -1.5437    0.2871 O   0  0  0  0  0  0  0  0  0  0  0  0
   -5.3563    3.0321    4.2287 H   0  0  0  0  0  0  0  0  0  0  0  0
   -5.4358    1.2621    4.2018 H   0  0  0  0  0  0  0  0  0  0  0  0
   -3.9435    2.1540    3.5979 H   0  0  0  0  0  0  0  0  0  0  0  0
   -5.4844    3.3914    2.0157 H   0  0  0  0  0  0  0  0  0  0  0  0
   -7.5168    1.6904    3.3027 H   0  0  0  0  0  0  0  0  0  0  0  0
   -7.6358    1.7150    1.4422 H   0  0  0  0  0  0  0  0  0  0  0  0
   -7.5884    3.1914    2.3977 H   0  0  0  0  0  0  0  0  0  0  0  0
   -5.4378    1.7362    0.2136 H   0  0  0  0  0  0  0  0  0  0  0  0
   -3.9357    2.0378    1.0963 H   0  0  0  0  0  0  0  0  0  0  0  0
   -4.0357   -0.1747    2.1569 H   0  0  0  0  0  0  0  0  0  0  0  0
   -4.4298   -0.1002   -0.8404 H   0  0  0  0  0  0  0  0  0  0  0  0
   -1.5824   -0.2278   -1.5900 H   0  0  0  0  0  0  0  0  0  0  0  0
   -1.2849   -2.4500   -2.4712 H   0  0  0  0  0  0  0  0  0  0  0  0
   -2.1380   -3.2415   -1.1440 H   0  0  0  0  0  0  0  0  0  0  0  0
   -4.2811   -2.1767   -1.8557 H   0  0  0  0  0  0  0  0  0  0  0  0
   -3.2298   -1.5603   -4.5402 H   0  0  0  0  0  0  0  0  0  0  0  0
   -4.4712   -0.6946   -3.5748 H   0  0  0  0  0  0  0  0  0  0  0  0
   -2.7108   -0.3383   -3.3702 H   0  0  0  0  0  0  0  0  0  0  0  0
   -2.5937   -3.9293   -3.6456 H   0  0  0  0  0  0  0  0  0  0  0  0
   -3.9839   -4.3040   -2.5230 H   0  0  0  0  0  0  0  0  0  0  0  0
   -4.2467   -3.3789   -4.0953 H   0  0  0  0  0  0  0  0  0  0  0  0
   -0.3326   -2.1990    0.2790 H   0  0  0  0  0  0  0  0  0  0  0  0
    2.3201   -1.7968   -0.3172 H   0  0  0  0  0  0  0  0  0  0  0  0
    1.2564   -0.1522    2.0872 H   0  0  0  0  0  0  0  0  0  0  0  0
    1.1033   -1.8827    1.7748 H   0  0  0  0  0  0  0  0  0  0  0  0
    3.7956   -0.4854    2.2338 H   0  0  0  0  0  0  0  0  0  0  0  0
    1.8400   -2.0718    3.9943 H   0  0  0  0  0  0  0  0  0  0  0  0
    2.6153   -0.4797    4.3322 H   0  0  0  0  0  0  0  0  0  0  0  0
    3.6174   -1.9533    4.3596 H   0  0  0  0  0  0  0  0  0  0  0  0
    4.4545   -2.4094    1.1270 H   0  0  0  0  0  0  0  0  0  0  0  0
    2.8016   -3.1803    1.3021 H   0  0  0  0  0  0  0  0  0  0  0  0
    3.9192   -3.2339    2.6877 H   0  0  0  0  0  0  0  0  0  0  0  0
    2.8495    1.1325    0.3043 H   0  0  0  0  0  0  0  0  0  0  0  0
    6.8409    0.0452   -1.3806 H   0  0  0  0  0  0  0  0  0  0  0  0
    5.9939    0.4033   -2.9125 H   0  0  0  0  0  0  0  0  0  0  0  0
    8.2213    1.3269   -3.6184 H   0  0  0  0  0  0  0  0  0  0  0  0
    9.6017    3.3865   -3.7225 H   0  0  0  0  0  0  0  0  0  0  0  0
    9.2058    5.2389   -2.1684 H   0  0  0  0  0  0  0  0  0  0  0  0
    7.4146    5.0205   -0.5000 H   0  0  0  0  0  0  0  0  0  0  0  0
    6.0612    3.0420   -0.3727 H   0  0  0  0  0  0  0  0  0  0  0  0
   -6.8324   -1.6031    2.9979 H   0  0  0  0  0  0  0  0  0  0  0  0
  1  2  1  0
  2  3  1  0
  2  4  1  0
  4  5  1  0
  5  6  1  0
  6  7  1  0
  7  8  2  0
  7  9  1  0
  9 10  1  0
 10 11  1  0
 11 12  1  0
 11 13  1  0
  9 14  1  0
 14 15  1  0
 15 16  2  0
 15 17  1  0
 17 18  1  0
 18 19  1  0
 19 20  1  0
 19 21  1  0
 17 22  1  0
 22 23  1  0
 23 24  2  0
 23 25  1  0
 25 26  1  0
 26 27  1  0
 27 28  2  0
 28 29  1  0
 29 30  2  0
 30 31  1  0
 31 32  2  0
  5 33  1  0
 33 34  1  0
 33 35  2  0
 32 27  1  0
  1 36  1  0
  1 37  1  0
  1 38  1  0
  2 39  1  0
  3 40  1  0
  3 41  1  0
  3 42  1  0
  4 43  1  0
  4 44  1  0
  5 45  1  1
  6 46  1  0
  9 47  1  6
 10 48  1  0
 10 49  1  0
 11 50  1  0
 12 51  1  0
 12 52  1  0
 12 53  1  0
 13 54  1  0
 13 55  1  0
 13 56  1  0
 14 57  1  0
 17 58  1  6
 18 59  1  0
 18 60  1  0
 19 61  1  0
 20 62  1  0
 20 63  1  0
 20 64  1  0
 21 65  1  0
 21 66  1  0
 21 67  1  0
 22 68  1  0
 26 69  1  0
 26 70  1  0
 28 71  1  0
 29 72  1  0
 30 73  1  0
 31 74  1  0
 32 75  1  0
 34 76  1  0
M  END
$$$$
[H]C1=C(C(=O)[O-])N2C(=O)/C(=C(\[H])c3nc4c([H])c([H])c([H])c([H])c4s3)[C@@]2([H])S1
     RDKit          3D

 28 31  0  0  0  0  0  0  0  0999 V2000
   -6.1858   -1.0238   -1.3083 O   0  0  0  0  0  0  0  0  0  0  0  0
   -5.6730   -0.8036   -0.0377 C   0  0  0  0  0  0  0  0  0  0  0  0
   -6.4987   -0.9082    0.9059 O   0  0  0  0  0  0  0  0  0  0  0  0
   -4.2466   -0.4678    0.2040 C   0  0  0  0  0  0  0  0  0  0  0  0
   -3.7901   -0.2696    1.4207 C   0  0  0  0  0  0  0  0  0  0  0  0
   -2.0285    0.1035    1.1965 S   0  0  0  0  0  0  0  0  0  0  0  0
   -1.9668   -0.7401   -0.4638 C   0  0  1  0  0  0  0  0  0  0  0  0
   -3.3301   -0.3095   -0.8426 N   0  0  0  0  0  0  0  0  0  0  0  0
   -2.7535    0.0060   -2.1133 C   0  0  0  0  0  0  0  0  0  0  0  0
   -3.2404    0.1704   -3.2540 O   0  0  0  0  0  0  0  0  0  0  0  0
   -1.4128    0.0540   -1.5411 C   0  0  0  0  0  0  0  0  0  0  0  0
   -0.2365    0.5626   -1.8666 C   0  0  0  0  0  0  0  0  0  0  0  0
    0.9628    0.3824   -1.0433 C   0  0  0  0  0  0  0  0  0  0  0  0
    1.9026    1.2381   -0.7082 N   0  0  0  0  0  0  0  0  0  0  0  0
    2.9112    0.8606    0.0279 C   0  0  0  0  0  0  0  0  0  0  0  0
    3.9804    1.6774    0.4563 C   0  0  0  0  0  0  0  0  0  0  0  0
    4.9662    1.1608    1.2218 C   0  0  0  0  0  0  0  0  0  0  0  0
    5.0249   -0.1694    1.6440 C   0  0  0  0  0  0  0  0  0  0  0  0
    3.9775   -0.9678    1.2255 C   0  0  0  0  0  0  0  0  0  0  0  0
    2.9383   -0.4519    0.4288 C   0  0  0  0  0  0  0  0  0  0  0  0
    1.5108   -1.0628   -0.2782 S   0  0  0  0  0  0  0  0  0  0  0  0
   -4.3243   -0.3148    2.3606 H   0  0  0  0  0  0  0  0  0  0  0  0
   -1.8071   -1.8100   -0.4177 H   0  0  0  0  0  0  0  0  0  0  0  0
   -0.1826    1.1338   -2.7876 H   0  0  0  0  0  0  0  0  0  0  0  0
    4.0340    2.7285    0.1820 H   0  0  0  0  0  0  0  0  0  0  0  0
    5.7865    1.7867    1.5587 H   0  0  0  0  0  0  0  0  0  0  0  0
    5.8071   -0.5566    2.2367 H   0  0  0  0  0  0  0  0  0  0  0  0
    3.8747   -2.0092    1.4643 H   0  0  0  0  0  0  0  0  0  0  0  0
  1  2  1  0
  2  3  2  0
  2  4  1  0
  4  5  2  0
  5  6  1  0
  6  7  1  0
  7  8  1  0
  8  9  1  0
  9 10  2  0
  9 11  1  0
 11 12  2  0
 12 13  1  0
 13 14  2  0
 14 15  1  0
 15 16  2  0
 16 17  1  0
 17 18  2  0
 18 19  1  0
 19 20  2  0
 20 21  1  0
  8  4  1  0
 21 13  1  0
 11  7  1  0
 20 15  1  0
  5 22  1  0
  7 23  1  1
 12 24  1  0
 16 25  1  0
 17 26  1  0
 18 27  1  0
 19 28  1  0
M  CHG  1   1  -1
M  END
$$$$
[H]OC(c1c([H])c([H])c(-c2c([H])c([H])c(S(=O)(=O)C([H])([H])[H])c([H])c2[H])c([H])c1[H])(C(F)(F)F)C(F)(F)F
     RDKit          3D

 38 39  0  0  0  0  0  0  0  0999 V2000
    6.3765    1.5252    0.7185 C   0  0  0  0  0  0  0  0  0  0  0  0
    5.8720   -0.1157    0.1923 S   0  0  0  0  0  0  0  0  0  0  0  0
    6.4214   -1.1004    1.1477 O   0  0  0  0  0  0  0  0  0  0  0  0
    6.4039   -0.4045   -1.1857 O   0  0  0  0  0  0  0  0  0  0  0  0
    4.1188   -0.0965    0.1340 C   0  0  0  0  0  0  0  0  0  0  0  0
    3.3531   -0.2659    1.2868 C   0  0  0  0  0  0  0  0  0  0  0  0
    1.9784   -0.2634    1.2413 C   0  0  0  0  0  0  0  0  0  0  0  0
    1.2891   -0.0916    0.0350 C   0  0  0  0  0  0  0  0  0  0  0  0
    2.0385    0.0723   -1.0880 C   0  0  0  0  0  0  0  0  0  0  0  0
    3.4212    0.0720   -1.0480 C   0  0  0  0  0  0  0  0  0  0  0  0
   -0.1659   -0.0961    0.0587 C   0  0  0  0  0  0  0  0  0  0  0  0
   -0.8342   -0.8652    1.0040 C   0  0  0  0  0  0  0  0  0  0  0  0
   -2.2284   -0.8957    1.0437 C   0  0  0  0  0  0  0  0  0  0  0  0
   -2.9959   -0.1723    0.1568 C   0  0  0  0  0  0  0  0  0  0  0  0
   -2.3272    0.5901   -0.7805 C   0  0  0  0  0  0  0  0  0  0  0  0
   -0.9447    0.6144   -0.8125 C   0  0  0  0  0  0  0  0  0  0  0  0
   -4.4441   -0.2294    0.2388 C   0  0  0  0  0  0  0  0  0  0  0  0
   -4.7907    0.0204    1.5896 O   0  0  0  0  0  0  0  0  0  0  0  0
   -5.1995    0.7772   -0.5711 C   0  0  0  0  0  0  0  0  0  0  0  0
   -4.8457    2.0737   -0.1980 F   0  0  0  0  0  0  0  0  0  0  0  0
   -6.5438    0.6915   -0.1325 F   0  0  0  0  0  0  0  0  0  0  0  0
   -5.2436    0.5614   -1.9065 F   0  0  0  0  0  0  0  0  0  0  0  0
   -4.9490   -1.6180   -0.0803 C   0  0  0  0  0  0  0  0  0  0  0  0
   -6.3368   -1.6825   -0.0205 F   0  0  0  0  0  0  0  0  0  0  0  0
   -4.5097   -2.5718    0.8246 F   0  0  0  0  0  0  0  0  0  0  0  0
   -4.5700   -1.9877   -1.3472 F   0  0  0  0  0  0  0  0  0  0  0  0
    6.4340    1.5064    1.8309 H   0  0  0  0  0  0  0  0  0  0  0  0
    7.3544    1.8103    0.3098 H   0  0  0  0  0  0  0  0  0  0  0  0
    5.6159    2.2581    0.3842 H   0  0  0  0  0  0  0  0  0  0  0  0
    3.9068   -0.3984    2.2208 H   0  0  0  0  0  0  0  0  0  0  0  0
    1.4265   -0.3963    2.1638 H   0  0  0  0  0  0  0  0  0  0  0  0
    1.5517    0.2066   -2.0431 H   0  0  0  0  0  0  0  0  0  0  0  0
    4.0242    0.2022   -1.9494 H   0  0  0  0  0  0  0  0  0  0  0  0
   -0.2914   -1.4490    1.7166 H   0  0  0  0  0  0  0  0  0  0  0  0
   -2.6268   -1.5213    1.8408 H   0  0  0  0  0  0  0  0  0  0  0  0
   -2.9272    1.1548   -1.4718 H   0  0  0  0  0  0  0  0  0  0  0  0
   -0.4939    1.2363   -1.5740 H   0  0  0  0  0  0  0  0  0  0  0  0
   -4.3177    0.8488    1.8686 H   0  0  0  0  0  0  0  0  0  0  0  0
  1  2  1  0
  2  3  2  0
  2  4  2  0
  2  5  1  0
  5  6  2  0
  6  7  1  0
  7  8  2  0
  8  9  1  0
  9 10  2  0
  8 11  1  0
 11 12  2  0
 12 13  1  0
 13 14  2  0
 14 15  1  0
 15 16  2  0
 14 17  1  0
 17 18  1  0
 17 19  1  0
 19 20  1  0
 19 21  1  0
 19 22  1  0
 17 23  1  0
 23 24  1  0
 23 25  1  0
 23 26  1  0
 10  5  1  0
 16 11  1  0
  1 27  1  0
  1 28  1  0
  1 29  1  0
  6 30  1  0
  7 31  1  0
  9 32  1  0
 10 33  1  0
 12 34  1  0
 13 35  1  0
 15 36  1  0
 16 37  1  0
 18 38  1  0
M  END
$$$$
[H]ON([H])C(=O)/C([H])=C(\[H])c1c([H])c([H])c([H])c(S(=O)(=O)c2c([H])c([H])c([H])c([H])c2[H])c1[H]
     RDKit          3D

 34 35  0  0  0  0  0  0  0  0999 V2000
   -7.1315    1.6938    1.2696 O   0  0  0  0  0  0  0  0  0  0  0  0
   -6.1072    0.8169    1.1616 N   0  0  0  0  0  0  0  0  0  0  0  0
   -4.8926    1.1360    0.5282 C   0  0  0  0  0  0  0  0  0  0  0  0
   -4.7322    2.2721    0.0377 O   0  0  0  0  0  0  0  0  0  0  0  0
   -3.8375    0.1384    0.4520 C   0  0  0  0  0  0  0  0  0  0  0  0
   -2.6762    0.3621   -0.1235 C   0  0  0  0  0  0  0  0  0  0  0  0
   -1.5842   -0.5953   -0.2302 C   0  0  0  0  0  0  0  0  0  0  0  0
   -1.6182   -1.8763    0.2606 C   0  0  0  0  0  0  0  0  0  0  0  0
   -0.5436   -2.7482    0.1294 C   0  0  0  0  0  0  0  0  0  0  0  0
    0.5958   -2.3261   -0.5106 C   0  0  0  0  0  0  0  0  0  0  0  0
    0.6770   -1.0498   -1.0197 C   0  0  0  0  0  0  0  0  0  0  0  0
   -0.3955   -0.2255   -0.8717 C   0  0  0  0  0  0  0  0  0  0  0  0
    2.1298   -0.4714   -1.8507 S   0  0  0  0  0  0  0  0  0  0  0  0
    2.7530   -1.7000   -2.4734 O   0  0  0  0  0  0  0  0  0  0  0  0
    1.7593    0.4545   -2.9702 O   0  0  0  0  0  0  0  0  0  0  0  0
    3.2390    0.2547   -0.7448 C   0  0  0  0  0  0  0  0  0  0  0  0
    4.2009   -0.5423   -0.1382 C   0  0  0  0  0  0  0  0  0  0  0  0
    5.1136   -0.0244    0.7520 C   0  0  0  0  0  0  0  0  0  0  0  0
    5.0851    1.3237    1.0613 C   0  0  0  0  0  0  0  0  0  0  0  0
    4.1348    2.1018    0.4597 C   0  0  0  0  0  0  0  0  0  0  0  0
    3.2140    1.5991   -0.4336 C   0  0  0  0  0  0  0  0  0  0  0  0
   -7.0275    2.4253    0.5848 H   0  0  0  0  0  0  0  0  0  0  0  0
   -6.2300   -0.1328    1.5669 H   0  0  0  0  0  0  0  0  0  0  0  0
   -3.9852   -0.8616    0.8864 H   0  0  0  0  0  0  0  0  0  0  0  0
   -2.5515    1.3674   -0.5502 H   0  0  0  0  0  0  0  0  0  0  0  0
   -2.5135   -2.2187    0.7675 H   0  0  0  0  0  0  0  0  0  0  0  0
   -0.5940   -3.7513    0.5238 H   0  0  0  0  0  0  0  0  0  0  0  0
    1.4494   -2.9800   -0.6292 H   0  0  0  0  0  0  0  0  0  0  0  0
   -0.3481    0.7842   -1.2673 H   0  0  0  0  0  0  0  0  0  0  0  0
    4.2356   -1.6031   -0.3713 H   0  0  0  0  0  0  0  0  0  0  0  0
    5.8321   -0.6989    1.1855 H   0  0  0  0  0  0  0  0  0  0  0  0
    5.8038    1.7040    1.7555 H   0  0  0  0  0  0  0  0  0  0  0  0
    4.0904    3.1761    0.6879 H   0  0  0  0  0  0  0  0  0  0  0  0
    2.4547    2.1958   -0.9204 H   0  0  0  0  0  0  0  0  0  0  0  0
  1  2  1  0
  2  3  1  0
  3  4  2  0
  3  5  1  0
  5  6  2  0
  6  7  1  0
  7  8  2  0
  8  9  1  0
  9 10  2  0
 10 11  1  0
 11 12  2  0
 11 13  1  0
 13 14  2  0
 13 15  2  0
 13 16  1  0
 16 17  2  0
 17 18  1  0
 18 19  2  0
 19 20  1  0
 20 21  2  0
 12  7  1  0
 21 16  1  0
  1 22  1  0
  2 23  1  0
  5 24  1  0
  6 25  1  0
  8 26  1  0
  9 27  1  0
 10 28  1  0
 12 29  1  0
 17 30  1  0
 18 31  1  0
 19 32  1  0
 20 33  1  0
 21 34  1  0
M  END
$$$$
[H]OC(=O)C([H])([H])C([H])([H])[C@@]([H])(C(=O)N([H])[C@]([H])(C(=O)N([H])[C@]([H])(C(=O)C([H])([H])SC([H])([H])c1c([H])c([H])c([H])c([H])c1[H])C([H])([H])C(=O)O[H])C([H])(C([H])([H])[H])C([H])([H])[H])N([H])C(=O)C([H])([H])[H]
     RDKit          3D

 69 69  0  0  0  0  0  0  0  0999 V2000
   -1.3554    3.0570   -1.7049 C   0  0  0  0  0  0  0  0  0  0  0  0
   -1.3204    1.8426   -2.6133 C   0  0  0  0  0  0  0  0  0  0  0  0
   -2.4401    1.9878   -3.6481 C   0  0  0  0  0  0  0  0  0  0  0  0
   -1.5025    0.5879   -1.8083 C   0  0  2  0  0  0  0  0  0  0  0  0
   -2.7601    0.5895   -1.1197 N   0  0  0  0  0  0  0  0  0  0  0  0
   -3.6675   -0.4708   -1.2665 C   0  0  0  0  0  0  0  0  0  0  0  0
   -3.3585   -1.4611   -2.0127 O   0  0  0  0  0  0  0  0  0  0  0  0
   -5.0080   -0.4979   -0.5749 C   0  0  2  0  0  0  0  0  0  0  0  0
   -5.0884    0.6014    0.3995 C   0  0  0  0  0  0  0  0  0  0  0  0
   -6.3140    0.7847    1.2026 C   0  0  0  0  0  0  0  0  0  0  0  0
   -6.6023   -0.2485    2.1799 C   0  0  0  0  0  0  0  0  0  0  0  0
   -7.8892   -0.3784    2.7448 O   0  0  0  0  0  0  0  0  0  0  0  0
   -5.7704   -1.0771    2.5881 O   0  0  0  0  0  0  0  0  0  0  0  0
   -5.3044   -1.8251   -0.2007 N   0  0  0  0  0  0  0  0  0  0  0  0
   -6.4544   -2.5446   -0.6543 C   0  0  0  0  0  0  0  0  0  0  0  0
   -6.7475   -3.9240   -0.2577 C   0  0  0  0  0  0  0  0  0  0  0  0
   -7.2583   -1.9532   -1.4408 O   0  0  0  0  0  0  0  0  0  0  0  0
   -0.3843    0.4236   -0.8436 C   0  0  0  0  0  0  0  0  0  0  0  0
   -0.6140    0.2614    0.3823 O   0  0  0  0  0  0  0  0  0  0  0  0
    0.9774    0.4418   -1.2489 N   0  0  0  0  0  0  0  0  0  0  0  0
    2.1127    0.2842   -0.4049 C   0  0  1  0  0  0  0  0  0  0  0  0
    3.0606   -0.7914   -0.7801 C   0  0  0  0  0  0  0  0  0  0  0  0
    2.5065   -2.1409   -0.8062 C   0  0  0  0  0  0  0  0  0  0  0  0
    3.3782   -3.1823   -1.1449 O   0  0  0  0  0  0  0  0  0  0  0  0
    1.3233   -2.4710   -0.5542 O   0  0  0  0  0  0  0  0  0  0  0  0
    2.8293    1.5868   -0.1132 C   0  0  0  0  0  0  0  0  0  0  0  0
    2.4370    2.6493   -0.5444 O   0  0  0  0  0  0  0  0  0  0  0  0
    4.0507    1.6152    0.7200 C   0  0  0  0  0  0  0  0  0  0  0  0
    5.5440    2.0199   -0.1883 S   0  0  0  0  0  0  0  0  0  0  0  0
    7.0210    1.9548    0.8200 C   0  0  0  0  0  0  0  0  0  0  0  0
    7.3688    0.5751    1.2382 C   0  0  0  0  0  0  0  0  0  0  0  0
    8.2038   -0.1307    0.4089 C   0  0  0  0  0  0  0  0  0  0  0  0
    8.6135   -1.4200    0.6604 C   0  0  0  0  0  0  0  0  0  0  0  0
    8.1176   -1.9768    1.8340 C   0  0  0  0  0  0  0  0  0  0  0  0
    7.2801   -1.3037    2.6892 C   0  0  0  0  0  0  0  0  0  0  0  0
    6.9031   -0.0115    2.3847 C   0  0  0  0  0  0  0  0  0  0  0  0
   -2.3423    3.5471   -1.7791 H   0  0  0  0  0  0  0  0  0  0  0  0
   -0.5063    3.7213   -1.9858 H   0  0  0  0  0  0  0  0  0  0  0  0
   -1.1468    2.6984   -0.6773 H   0  0  0  0  0  0  0  0  0  0  0  0
   -0.3650    1.8215   -3.1729 H   0  0  0  0  0  0  0  0  0  0  0  0
   -3.4257    1.7410   -3.1621 H   0  0  0  0  0  0  0  0  0  0  0  0
   -2.4933    3.0083   -4.0535 H   0  0  0  0  0  0  0  0  0  0  0  0
   -2.3165    1.2934   -4.5015 H   0  0  0  0  0  0  0  0  0  0  0  0
   -1.4700   -0.2786   -2.5338 H   0  0  0  0  0  0  0  0  0  0  0  0
   -2.9830    1.3891   -0.5051 H   0  0  0  0  0  0  0  0  0  0  0  0
   -5.7408   -0.2558   -1.4579 H   0  0  0  0  0  0  0  0  0  0  0  0
   -4.9032    1.5661   -0.1784 H   0  0  0  0  0  0  0  0  0  0  0  0
   -4.1797    0.5665    1.0782 H   0  0  0  0  0  0  0  0  0  0  0  0
   -6.2427    1.7851    1.7388 H   0  0  0  0  0  0  0  0  0  0  0  0
   -7.2130    0.9719    0.5175 H   0  0  0  0  0  0  0  0  0  0  0  0
   -8.0792    0.1186    3.6271 H   0  0  0  0  0  0  0  0  0  0  0  0
   -4.6530   -2.3670    0.4258 H   0  0  0  0  0  0  0  0  0  0  0  0
   -5.9637   -4.6459   -0.6325 H   0  0  0  0  0  0  0  0  0  0  0  0
   -6.7949   -3.9661    0.8475 H   0  0  0  0  0  0  0  0  0  0  0  0
   -7.7421   -4.2409   -0.6230 H   0  0  0  0  0  0  0  0  0  0  0  0
    1.1573    0.5879   -2.2820 H   0  0  0  0  0  0  0  0  0  0  0  0
    1.6851    0.0018    0.6108 H   0  0  0  0  0  0  0  0  0  0  0  0
    3.4474   -0.5503   -1.8168 H   0  0  0  0  0  0  0  0  0  0  0  0
    3.9821   -0.8061   -0.1640 H   0  0  0  0  0  0  0  0  0  0  0  0
    4.1710   -3.3049   -0.5032 H   0  0  0  0  0  0  0  0  0  0  0  0
    4.1385    0.6383    1.2631 H   0  0  0  0  0  0  0  0  0  0  0  0
    3.9092    2.3710    1.5153 H   0  0  0  0  0  0  0  0  0  0  0  0
    7.8717    2.3747    0.2480 H   0  0  0  0  0  0  0  0  0  0  0  0
    6.9081    2.6189    1.7227 H   0  0  0  0  0  0  0  0  0  0  0  0
    8.5778    0.3351   -0.5080 H   0  0  0  0  0  0  0  0  0  0  0  0
    9.2789   -1.9855    0.0030 H   0  0  0  0  0  0  0  0  0  0  0  0
    8.4166   -2.9949    2.0711 H   0  0  0  0  0  0  0  0  0  0  0  0
    6.8973   -1.7539    3.6086 H   0  0  0  0  0  0  0  0  0  0  0  0
    6.2320    0.5401    3.0598 H   0  0  0  0  0  0  0  0  0  0  0  0
  1  2  1  0
  2  3  1  0
  2  4  1  0
  4  5  1  0
  5  6  1  0
  6  7  2  0
  6  8  1  0
  8  9  1  0
  9 10  1  0
 10 11  1  0
 11 12  1  0
 11 13  2  0
  8 14  1  0
 14 15  1  0
 15 16  1  0
 15 17  2  0
  4 18  1  0
 18 19  2  0
 18 20  1  0
 20 21  1  0
 21 22  1  0
 22 23  1  0
 23 24  1  0
 23 25  2  0
 21 26  1  0
 26 27  2  0
 26 28  1  0
 28 29  1  0
 29 30  1  0
 30 31  1  0
 31 32  2  0
 32 33  1  0
 33 34  2  0
 34 35  1  0
 35 36  2  0
 36 31  1  0
  1 37  1  0
  1 38  1  0
  1 39  1  0
  2 40  1  0
  3 41  1  0
  3 42  1  0
  3 43  1  0
  4 44  1  6
  5 45  1  0
  8 46  1  6
  9 47  1  0
  9 48  1  0
 10 49  1  0
 10 50  1  0
 12 51  1  0
 14 52  1  0
 16 53  1  0
 16 54  1  0
 16 55  1  0
 20 56  1  0
 21 57  1  1
 22 58  1  0
 22 59  1  0
 24 60  1  0
 28 61  1  0
 28 62  1  0
 30 63  1  0
 30 64  1  0
 32 65  1  0
 33 66  1  0
 34 67  1  0
 35 68  1  0
 36 69  1  0
M  END
$$$$
[H]OP(=O)(O[H])C(F)(F)c1c([H])c(-c2c([H])c([H])c(-c3c(C([H])([H])c4c([H])c([H])c([H])c([H])c4[H])sc4c([H])c([H])c([H])c([H])c34)c([H])c2[H])c([H])c([H])c1F
     RDKit          3D

 56 60  0  0  0  0  0  0  0  0999 V2000
    8.6426    2.0303    0.0631 O   0  0  0  0  0  0  0  0  0  0  0  0
    6.9956    2.3198   -0.1937 P   0  0  0  0  0  0  0  0  0  0  0  0
    6.6356    1.8763   -1.8027 O   0  0  0  0  0  0  0  0  0  0  0  0
    6.7189    3.7939    0.0022 O   0  0  0  0  0  0  0  0  0  0  0  0
    6.0161    1.3001    0.9056 C   0  0  0  0  0  0  0  0  0  0  0  0
    6.8553    0.7540    1.8640 F   0  0  0  0  0  0  0  0  0  0  0  0
    5.1312    2.1455    1.5885 F   0  0  0  0  0  0  0  0  0  0  0  0
    5.2690    0.2277    0.2118 C   0  0  0  0  0  0  0  0  0  0  0  0
    3.8991    0.1484    0.2697 C   0  0  0  0  0  0  0  0  0  0  0  0
    3.1900   -0.8557   -0.3755 C   0  0  0  0  0  0  0  0  0  0  0  0
    3.8960   -1.7935   -1.0917 C   0  0  0  0  0  0  0  0  0  0  0  0
    5.2854   -1.7558   -1.1802 C   0  0  0  0  0  0  0  0  0  0  0  0
    5.9395   -0.7275   -0.5134 C   0  0  0  0  0  0  0  0  0  0  0  0
    7.2958   -0.7066   -0.6103 F   0  0  0  0  0  0  0  0  0  0  0  0
    1.7419   -0.9502   -0.3176 C   0  0  0  0  0  0  0  0  0  0  0  0
    1.1113   -0.5101    0.8486 C   0  0  0  0  0  0  0  0  0  0  0  0
   -0.2527   -0.5824    0.9400 C   0  0  0  0  0  0  0  0  0  0  0  0
   -1.0375   -1.0746   -0.0779 C   0  0  0  0  0  0  0  0  0  0  0  0
   -0.4180   -1.5071   -1.2235 C   0  0  0  0  0  0  0  0  0  0  0  0
    0.9540   -1.4347   -1.3154 C   0  0  0  0  0  0  0  0  0  0  0  0
   -2.5278   -1.1255    0.0865 C   0  0  0  0  0  0  0  0  0  0  0  0
   -3.2498    0.0201   -0.1193 C   0  0  0  0  0  0  0  0  0  0  0  0
   -2.7111    1.3796   -0.5107 C   0  0  0  0  0  0  0  0  0  0  0  0
   -3.8440    2.3138   -0.5864 C   0  0  0  0  0  0  0  0  0  0  0  0
   -4.5660    2.5099   -1.7401 C   0  0  0  0  0  0  0  0  0  0  0  0
   -5.6237    3.4129   -1.7318 C   0  0  0  0  0  0  0  0  0  0  0  0
   -5.9378    4.1057   -0.5591 C   0  0  0  0  0  0  0  0  0  0  0  0
   -5.2079    3.9056    0.6020 C   0  0  0  0  0  0  0  0  0  0  0  0
   -4.1599    3.0083    0.5875 C   0  0  0  0  0  0  0  0  0  0  0  0
   -4.8541   -0.4645    0.1675 S   0  0  0  0  0  0  0  0  0  0  0  0
   -4.5848   -2.1062    0.5423 C   0  0  0  0  0  0  0  0  0  0  0  0
   -5.4116   -3.1914    0.8950 C   0  0  0  0  0  0  0  0  0  0  0  0
   -4.8848   -4.4362    1.1451 C   0  0  0  0  0  0  0  0  0  0  0  0
   -3.5149   -4.5577    1.0313 C   0  0  0  0  0  0  0  0  0  0  0  0
   -2.6926   -3.5194    0.6907 C   0  0  0  0  0  0  0  0  0  0  0  0
   -3.2297   -2.2365    0.4326 C   0  0  0  0  0  0  0  0  0  0  0  0
    8.7321    1.6515    0.9853 H   0  0  0  0  0  0  0  0  0  0  0  0
    7.4722    1.7685   -2.3171 H   0  0  0  0  0  0  0  0  0  0  0  0
    3.3280    0.8652    0.8188 H   0  0  0  0  0  0  0  0  0  0  0  0
    3.3852   -2.6091   -1.6220 H   0  0  0  0  0  0  0  0  0  0  0  0
    5.8608   -2.4830   -1.7382 H   0  0  0  0  0  0  0  0  0  0  0  0
    1.7409   -0.1242    1.6434 H   0  0  0  0  0  0  0  0  0  0  0  0
   -0.7315   -0.2302    1.8703 H   0  0  0  0  0  0  0  0  0  0  0  0
   -1.0263   -1.9036   -2.0483 H   0  0  0  0  0  0  0  0  0  0  0  0
    1.4575   -1.7806   -2.2327 H   0  0  0  0  0  0  0  0  0  0  0  0
   -1.9881    1.6870    0.2446 H   0  0  0  0  0  0  0  0  0  0  0  0
   -2.1936    1.3054   -1.4798 H   0  0  0  0  0  0  0  0  0  0  0  0
   -4.2754    1.9462   -2.6135 H   0  0  0  0  0  0  0  0  0  0  0  0
   -6.1890    3.5728   -2.6174 H   0  0  0  0  0  0  0  0  0  0  0  0
   -6.7586    4.8192   -0.5191 H   0  0  0  0  0  0  0  0  0  0  0  0
   -5.4522    4.4465    1.5205 H   0  0  0  0  0  0  0  0  0  0  0  0
   -3.5983    2.8659    1.5090 H   0  0  0  0  0  0  0  0  0  0  0  0
   -6.4590   -2.9854    0.9544 H   0  0  0  0  0  0  0  0  0  0  0  0
   -5.5032   -5.2684    1.4138 H   0  0  0  0  0  0  0  0  0  0  0  0
   -3.0351   -5.5333    1.2196 H   0  0  0  0  0  0  0  0  0  0  0  0
   -1.6351   -3.7269    0.6307 H   0  0  0  0  0  0  0  0  0  0  0  0
  1  2  1  0
  2  3  1  0
  2  4  2  0
  2  5  1  0
  5  6  1  0
  5  7  1  0
  5  8  1  0
  8  9  2  0
  9 10  1  0
 10 11  2  0
 11 12  1  0
 12 13  2  0
 13 14  1  0
 10 15  1  0
 15 16  2  0
 16 17  1  0
 17 18  2  0
 18 19  1  0
 19 20  2  0
 18 21  1  0
 21 22  2  0
 22 23  1  0
 23 24  1  0
 24 25  2  0
 25 26  1  0
 26 27  2  0
 27 28  1  0
 28 29  2  0
 22 30  1  0
 30 31  1  0
 31 32  2  0
 32 33  1  0
 33 34  2  0
 34 35  1  0
 35 36  2  0
 13  8  1  0
 20 15  1  0
 36 21  1  0
 29 24  1  0
 36 31  1  0
  1 37  1  0
  3 38  1  0
  9 39  1  0
 11 40  1  0
 12 41  1  0
 16 42  1  0
 17 43  1  0
 19 44  1  0
 20 45  1  0
 23 46  1  0
 23 47  1  0
 25 48  1  0
 26 49  1  0
 27 50  1  0
 28 51  1  0
 29 52  1  0
 32 53  1  0
 33 54  1  0
 34 55  1  0
 35 56  1  0
M  END
$$$$
[H]c1nc([C@@]2([H])C([H])([H])[C@]2([H])C([H])([H])Oc2nc(C([H])([H])[H])nc([H])c2-c2nn(C([H])([H])[H])c(=O)c([H])c2[H])c([H])c([H])c1OC([H])([H])[H]
     RDKit          3D

 49 52  0  0  0  0  0  0  0  0999 V2000
    7.4009   -1.4174   -1.0132 C   0  0  0  0  0  0  0  0  0  0  0  0
    7.1654   -0.7588    0.2167 O   0  0  0  0  0  0  0  0  0  0  0  0
    5.9394   -0.1742    0.4600 C   0  0  0  0  0  0  0  0  0  0  0  0
    4.8945   -0.1805   -0.4253 C   0  0  0  0  0  0  0  0  0  0  0  0
    3.6828    0.4368   -0.0992 C   0  0  0  0  0  0  0  0  0  0  0  0
    3.5045    1.0649    1.1124 C   0  0  0  0  0  0  0  0  0  0  0  0
    4.5517    1.0541    1.9628 N   0  0  0  0  0  0  0  0  0  0  0  0
    5.7207    0.4710    1.6750 C   0  0  0  0  0  0  0  0  0  0  0  0
    2.2081    1.7200    1.4500 C   0  0  1  0  0  0  0  0  0  0  0  0
    1.5471    2.5754    0.3770 C   0  0  0  0  0  0  0  0  0  0  0  0
    0.9526    1.2419    0.8228 C   0  0  2  0  0  0  0  0  0  0  0  0
   -0.3330    1.2622    1.5917 C   0  0  0  0  0  0  0  0  0  0  0  0
   -1.4336    0.7896    0.8982 O   0  0  0  0  0  0  0  0  0  0  0  0
   -1.6504   -0.4470    0.3602 C   0  0  0  0  0  0  0  0  0  0  0  0
   -0.6829   -1.4182    0.4864 N   0  0  0  0  0  0  0  0  0  0  0  0
   -0.8078   -2.6502   -0.0050 C   0  0  0  0  0  0  0  0  0  0  0  0
    0.2477   -3.6890    0.1399 C   0  0  0  0  0  0  0  0  0  0  0  0
   -1.9444   -2.9412   -0.6545 N   0  0  0  0  0  0  0  0  0  0  0  0
   -2.9178   -2.0296   -0.8045 C   0  0  0  0  0  0  0  0  0  0  0  0
   -2.8100   -0.7218   -0.2948 C   0  0  0  0  0  0  0  0  0  0  0  0
   -3.9148    0.1812   -0.5117 C   0  0  0  0  0  0  0  0  0  0  0  0
   -3.9875    1.4735   -0.0890 C   0  0  0  0  0  0  0  0  0  0  0  0
   -5.1133    2.2912   -0.3457 C   0  0  0  0  0  0  0  0  0  0  0  0
   -6.1399    1.7197   -1.0466 C   0  0  0  0  0  0  0  0  0  0  0  0
   -7.1832    2.4027   -1.3111 O   0  0  0  0  0  0  0  0  0  0  0  0
   -6.0699    0.4462   -1.4640 N   0  0  0  0  0  0  0  0  0  0  0  0
   -7.2088   -0.1084   -2.2135 C   0  0  0  0  0  0  0  0  0  0  0  0
   -5.0133   -0.2613   -1.2018 N   0  0  0  0  0  0  0  0  0  0  0  0
    6.9109   -2.4159   -1.0398 H   0  0  0  0  0  0  0  0  0  0  0  0
    6.9996   -0.8187   -1.8598 H   0  0  0  0  0  0  0  0  0  0  0  0
    8.4996   -1.5371   -1.1997 H   0  0  0  0  0  0  0  0  0  0  0  0
    5.0179   -0.6760   -1.3956 H   0  0  0  0  0  0  0  0  0  0  0  0
    2.8795    0.4123   -0.8225 H   0  0  0  0  0  0  0  0  0  0  0  0
    6.5326    0.5007    2.4168 H   0  0  0  0  0  0  0  0  0  0  0  0
    2.1935    2.1924    2.4608 H   0  0  0  0  0  0  0  0  0  0  0  0
    2.0819    2.6125   -0.5941 H   0  0  0  0  0  0  0  0  0  0  0  0
    0.9905    3.4740    0.6814 H   0  0  0  0  0  0  0  0  0  0  0  0
    1.0519    0.4271    0.0837 H   0  0  0  0  0  0  0  0  0  0  0  0
   -0.5608    2.3286    1.8854 H   0  0  0  0  0  0  0  0  0  0  0  0
   -0.1952    0.6660    2.5336 H   0  0  0  0  0  0  0  0  0  0  0  0
    0.1108   -4.2896    1.0736 H   0  0  0  0  0  0  0  0  0  0  0  0
    0.2891   -4.3599   -0.7605 H   0  0  0  0  0  0  0  0  0  0  0  0
    1.2579   -3.1854    0.1541 H   0  0  0  0  0  0  0  0  0  0  0  0
   -3.8423   -2.2744   -1.3357 H   0  0  0  0  0  0  0  0  0  0  0  0
   -3.1903    1.9368    0.4626 H   0  0  0  0  0  0  0  0  0  0  0  0
   -5.1272    3.3233    0.0133 H   0  0  0  0  0  0  0  0  0  0  0  0
   -8.0551   -0.2242   -1.5308 H   0  0  0  0  0  0  0  0  0  0  0  0
   -7.4993    0.6534   -2.9819 H   0  0  0  0  0  0  0  0  0  0  0  0
   -6.9503   -1.0785   -2.6603 H   0  0  0  0  0  0  0  0  0  0  0  0
  1  2  1  0
  2  3  1  0
  3  4  2  0
  4  5  1  0
  5  6  2  0
  6  7  1  0
  7  8  2  0
  6  9  1  0
  9 10  1  0
 10 11  1  0
 11 12  1  0
 12 13  1  0
 13 14  1  0
 14 15  2  0
 15 16  1  0
 16 17  1  0
 16 18  2  0
 18 19  1  0
 19 20  2  0
 20 21  1  0
 21 22  1  0
 22 23  2  0
 23 24  1  0
 24 25  2  0
 24 26  1  0
 26 27  1  0
 26 28  1  0
  8  3  1  0
 11  9  1  0
 20 14  1  0
 28 21  2  0
  1 29  1  0
  1 30  1  0
  1 31  1  0
  4 32  1  0
  5 33  1  0
  8 34  1  0
  9 35  1  1
 10 36  1  0
 10 37  1  0
 11 38  1  6
 12 39  1  0
 12 40  1  0
 17 41  1  0
 17 42  1  0
 17 43  1  0
 19 44  1  0
 22 45  1  0
 23 46  1  0
 27 47  1  0
 27 48  1  0
 27 49  1  0
M  END
$$$$
[H]c1nc(N([H])C(=O)N([H])C([H])([H])C([H])([H])[H])c([H])c(-c2nc(C(F)(F)F)c([H])s2)c1-c1c(N2C([H])([H])C([H])([H])OC([H])([H])C2([H])[H])nc2c([H])c([H])nc([H])c2c1[H]
     RDKit          3D

 59 63  0  0  0  0  0  0  0  0999 V2000
    7.8417   -1.7656   -2.8360 C   0  0  0  0  0  0  0  0  0  0  0  0
    6.3396   -1.5569   -3.2080 C   0  0  0  0  0  0  0  0  0  0  0  0
    5.6716   -0.9718   -2.1702 N   0  0  0  0  0  0  0  0  0  0  0  0
    4.3044   -0.6332   -1.9344 C   0  0  0  0  0  0  0  0  0  0  0  0
    3.6326   -1.0965   -3.0376 O   0  0  0  0  0  0  0  0  0  0  0  0
    3.6660   -0.0349   -0.9364 N   0  0  0  0  0  0  0  0  0  0  0  0
    2.2337    0.1200   -0.8230 C   0  0  0  0  0  0  0  0  0  0  0  0
    1.7960    0.7299    0.3327 C   0  0  0  0  0  0  0  0  0  0  0  0
    0.4280    0.8732    0.6189 C   0  0  0  0  0  0  0  0  0  0  0  0
    0.1589    1.5921    1.8561 C   0  0  0  0  0  0  0  0  0  0  0  0
    0.8210    2.7646    2.1384 N   0  0  0  0  0  0  0  0  0  0  0  0
    0.5058    3.4228    3.1979 C   0  0  0  0  0  0  0  0  0  0  0  0
   -0.4716    2.9430    4.0119 C   0  0  0  0  0  0  0  0  0  0  0  0
   -0.9059    1.5123    3.1688 S   0  0  0  0  0  0  0  0  0  0  0  0
    1.1630    4.7691    3.4958 C   0  0  0  0  0  0  0  0  0  0  0  0
    2.0657    4.6290    4.5158 F   0  0  0  0  0  0  0  0  0  0  0  0
    1.8159    5.2530    2.3955 F   0  0  0  0  0  0  0  0  0  0  0  0
    0.1332    5.6578    3.8370 F   0  0  0  0  0  0  0  0  0  0  0  0
   -0.4884    0.4055   -0.2618 C   0  0  0  0  0  0  0  0  0  0  0  0
    0.0002   -0.2016   -1.4360 C   0  0  0  0  0  0  0  0  0  0  0  0
    1.3370   -0.3129   -1.6591 N   0  0  0  0  0  0  0  0  0  0  0  0
   -1.8729    0.5196    0.0541 C   0  0  0  0  0  0  0  0  0  0  0  0
   -2.4402    1.7750    0.3447 C   0  0  0  0  0  0  0  0  0  0  0  0
   -3.7308    1.9231    0.6870 C   0  0  0  0  0  0  0  0  0  0  0  0
   -4.3022    3.1191    0.9913 C   0  0  0  0  0  0  0  0  0  0  0  0
   -5.6074    3.2043    1.3501 N   0  0  0  0  0  0  0  0  0  0  0  0
   -6.3986    2.1291    1.4198 C   0  0  0  0  0  0  0  0  0  0  0  0
   -5.8682    0.8865    1.1141 C   0  0  0  0  0  0  0  0  0  0  0  0
   -4.5409    0.7849    0.7500 C   0  0  0  0  0  0  0  0  0  0  0  0
   -4.0078   -0.3955    0.4765 N   0  0  0  0  0  0  0  0  0  0  0  0
   -2.6974   -0.5679    0.1275 C   0  0  0  0  0  0  0  0  0  0  0  0
   -2.3285   -1.8660   -0.2173 N   0  0  0  0  0  0  0  0  0  0  0  0
   -3.0457   -2.4376   -1.3912 C   0  0  0  0  0  0  0  0  0  0  0  0
   -3.1157   -3.9393   -1.2054 C   0  0  0  0  0  0  0  0  0  0  0  0
   -1.8672   -4.4763   -1.1736 O   0  0  0  0  0  0  0  0  0  0  0  0
   -0.8932   -3.8140   -0.5162 C   0  0  0  0  0  0  0  0  0  0  0  0
   -1.3842   -2.6977    0.4206 C   0  0  0  0  0  0  0  0  0  0  0  0
    8.0319   -2.7909   -2.4790 H   0  0  0  0  0  0  0  0  0  0  0  0
    8.5058   -1.5175   -3.6162 H   0  0  0  0  0  0  0  0  0  0  0  0
    8.0449   -1.0641   -1.9603 H   0  0  0  0  0  0  0  0  0  0  0  0
    6.4506   -0.7759   -4.0685 H   0  0  0  0  0  0  0  0  0  0  0  0
    6.0003   -2.5040   -3.6187 H   0  0  0  0  0  0  0  0  0  0  0  0
    6.2729   -0.7073   -1.2980 H   0  0  0  0  0  0  0  0  0  0  0  0
    4.2517    0.3644   -0.1279 H   0  0  0  0  0  0  0  0  0  0  0  0
    2.5084    1.1277    1.0634 H   0  0  0  0  0  0  0  0  0  0  0  0
   -0.8624    3.3591    4.9440 H   0  0  0  0  0  0  0  0  0  0  0  0
   -0.7546   -0.5551   -2.1135 H   0  0  0  0  0  0  0  0  0  0  0  0
   -1.7417    2.6300    0.2601 H   0  0  0  0  0  0  0  0  0  0  0  0
   -3.7317    4.0444    0.9566 H   0  0  0  0  0  0  0  0  0  0  0  0
   -7.4475    2.1694    1.7080 H   0  0  0  0  0  0  0  0  0  0  0  0
   -6.5271    0.0255    1.1721 H   0  0  0  0  0  0  0  0  0  0  0  0
   -2.5630   -2.1299   -2.3369 H   0  0  0  0  0  0  0  0  0  0  0  0
   -4.0898   -2.0208   -1.4539 H   0  0  0  0  0  0  0  0  0  0  0  0
   -3.7748   -4.1604   -0.3435 H   0  0  0  0  0  0  0  0  0  0  0  0
   -3.6335   -4.3918   -2.1115 H   0  0  0  0  0  0  0  0  0  0  0  0
   -0.3018   -4.5232    0.1082 H   0  0  0  0  0  0  0  0  0  0  0  0
   -0.2239   -3.3525   -1.2689 H   0  0  0  0  0  0  0  0  0  0  0  0
   -0.4869   -2.2000    0.8460 H   0  0  0  0  0  0  0  0  0  0  0  0
   -1.8754   -3.2735    1.2403 H   0  0  0  0  0  0  0  0  0  0  0  0
  1  2  1  0
  2  3  1  0
  3  4  1  0
  4  5  2  0
  4  6  1  0
  6  7  1  0
  7  8  2  0
  8  9  1  0
  9 10  1  0
 10 11  2  0
 11 12  1  0
 12 13  2  0
 13 14  1  0
 12 15  1  0
 15 16  1  0
 15 17  1  0
 15 18  1  0
  9 19  2  0
 19 20  1  0
 20 21  2  0
 19 22  1  0
 22 23  2  0
 23 24  1  0
 24 25  2  0
 25 26  1  0
 26 27  2  0
 27 28  1  0
 28 29  2  0
 29 30  1  0
 30 31  2  0
 31 32  1  0
 32 33  1  0
 33 34  1  0
 34 35  1  0
 35 36  1  0
 36 37  1  0
 21  7  1  0
 31 22  1  0
 37 32  1  0
 14 10  1  0
 29 24  1  0
  1 38  1  0
  1 39  1  0
  1 40  1  0
  2 41  1  0
  2 42  1  0
  3 43  1  0
  6 44  1  0
  8 45  1  0
 13 46  1  0
 20 47  1  0
 23 48  1  0
 25 49  1  0
 27 50  1  0
 28 51  1  0
 33 52  1  0
 33 53  1  0
 34 54  1  0
 34 55  1  0
 36 56  1  0
 36 57  1  0
 37 58  1  0
 37 59  1  0
M  END
$$$$
[H]OC(=O)[C@@]([H])(N([H])C(=O)[C@@]([H])(N([H])C(=O)[C@@]([H])(N([H])C(=O)[C@@]1([H])N(C(=O)[C@@]([H])(N([H])[H])C([H])([H])c2c([H])c([H])c(O[H])c([H])c2[H])C([H])([H])C([H])([H])C1([H])[H])C([H])([H])c1c([H])n([H])c2c([H])c([H])c([H])c([H])c12)C([H])([H])C([H])(C([H])([H])[H])C([H])([H])[H])C([H])([H])c1c([H])n([H])c2c([H])c([H])c([H])c([H])c12
     RDKit          3D

105110  0  0  0  0  0  0  0  0999 V2000
   -5.4530   -2.5316   -4.9905 C   0  0  0  0  0  0  0  0  0  0  0  0
   -4.1456   -1.7538   -4.7016 C   0  0  0  0  0  0  0  0  0  0  0  0
   -3.0389   -2.6882   -5.0498 C   0  0  0  0  0  0  0  0  0  0  0  0
   -4.2495   -1.3181   -3.2873 C   0  0  0  0  0  0  0  0  0  0  0  0
   -3.1549   -0.5468   -2.6996 C   0  0  2  0  0  0  0  0  0  0  0  0
   -1.9083   -1.2544   -2.6513 N   0  0  0  0  0  0  0  0  0  0  0  0
   -0.6688   -0.6411   -2.4894 C   0  0  0  0  0  0  0  0  0  0  0  0
   -0.6822    0.6424   -2.3473 O   0  0  0  0  0  0  0  0  0  0  0  0
    0.6961   -1.2915   -2.4635 C   0  0  2  0  0  0  0  0  0  0  0  0
    0.5974   -2.7900   -2.3818 C   0  0  0  0  0  0  0  0  0  0  0  0
   -0.0249   -3.3944   -1.2389 C   0  0  0  0  0  0  0  0  0  0  0  0
   -0.4957   -2.8589   -0.0757 C   0  0  0  0  0  0  0  0  0  0  0  0
   -0.9800   -3.8224    0.7285 N   0  0  0  0  0  0  0  0  0  0  0  0
   -0.8363   -4.9966    0.1085 C   0  0  0  0  0  0  0  0  0  0  0  0
   -1.1800   -6.2585    0.5229 C   0  0  0  0  0  0  0  0  0  0  0  0
   -0.9331   -7.3381   -0.2958 C   0  0  0  0  0  0  0  0  0  0  0  0
   -0.3452   -7.1467   -1.5231 C   0  0  0  0  0  0  0  0  0  0  0  0
   -0.0023   -5.8638   -1.9304 C   0  0  0  0  0  0  0  0  0  0  0  0
   -0.2444   -4.7567   -1.1157 C   0  0  0  0  0  0  0  0  0  0  0  0
    1.5480   -0.6559   -1.6843 N   0  0  0  0  0  0  0  0  0  0  0  0
    2.4760    0.0501   -0.8616 C   0  0  0  0  0  0  0  0  0  0  0  0
    3.1143    1.0264   -1.2386 O   0  0  0  0  0  0  0  0  0  0  0  0
    2.7436   -0.3698    0.5698 C   0  0  2  0  0  0  0  0  0  0  0  0
    1.5983    0.1723    1.4027 C   0  0  0  0  0  0  0  0  0  0  0  0
    2.3406    0.4231    2.7412 C   0  0  0  0  0  0  0  0  0  0  0  0
    3.6116    1.0845    2.2191 C   0  0  0  0  0  0  0  0  0  0  0  0
    3.9111    0.2927    1.0682 N   0  0  0  0  0  0  0  0  0  0  0  0
    5.2076    0.1576    0.4763 C   0  0  0  0  0  0  0  0  0  0  0  0
    5.3543   -0.5858   -0.5614 O   0  0  0  0  0  0  0  0  0  0  0  0
    6.4331    0.8073    0.9491 C   0  0  1  0  0  0  0  0  0  0  0  0
    7.5777    0.4604    0.0728 N   0  0  0  0  0  0  0  0  0  0  0  0
    6.3806    2.3091    0.9754 C   0  0  0  0  0  0  0  0  0  0  0  0
    7.6916    2.8544    1.4694 C   0  0  0  0  0  0  0  0  0  0  0  0
    7.9081    3.0417    2.8129 C   0  0  0  0  0  0  0  0  0  0  0  0
    9.1466    3.5169    3.2297 C   0  0  0  0  0  0  0  0  0  0  0  0
   10.1524    3.8002    2.3090 C   0  0  0  0  0  0  0  0  0  0  0  0
   11.3820    4.2726    2.7477 O   0  0  0  0  0  0  0  0  0  0  0  0
    9.9023    3.6037    0.9724 C   0  0  0  0  0  0  0  0  0  0  0  0
    8.6617    3.1270    0.5456 C   0  0  0  0  0  0  0  0  0  0  0  0
   -3.5366   -0.0334   -1.3349 C   0  0  0  0  0  0  0  0  0  0  0  0
   -2.7600   -0.1450   -0.3511 O   0  0  0  0  0  0  0  0  0  0  0  0
   -4.7771    0.6049   -1.0708 N   0  0  0  0  0  0  0  0  0  0  0  0
   -5.0919    1.1065    0.2541 C   0  0  1  0  0  0  0  0  0  0  0  0
   -5.5489    2.5263    0.2061 C   0  0  0  0  0  0  0  0  0  0  0  0
   -5.8751    3.1208    1.5131 C   0  0  0  0  0  0  0  0  0  0  0  0
   -7.1134    3.4631    2.0170 C   0  0  0  0  0  0  0  0  0  0  0  0
   -6.9874    4.0067    3.2318 N   0  0  0  0  0  0  0  0  0  0  0  0
   -5.6626    4.0345    3.5586 C   0  0  0  0  0  0  0  0  0  0  0  0
   -5.0264    4.4876    4.6828 C   0  0  0  0  0  0  0  0  0  0  0  0
   -3.6268    4.3888    4.7547 C   0  0  0  0  0  0  0  0  0  0  0  0
   -2.9127    3.8432    3.7074 C   0  0  0  0  0  0  0  0  0  0  0  0
   -3.5911    3.4007    2.5956 C   0  0  0  0  0  0  0  0  0  0  0  0
   -4.9706    3.4886    2.5029 C   0  0  0  0  0  0  0  0  0  0  0  0
   -6.0937    0.2291    0.8717 C   0  0  0  0  0  0  0  0  0  0  0  0
   -6.5121    0.4946    2.1933 O   0  0  0  0  0  0  0  0  0  0  0  0
   -6.6283   -0.7646    0.3233 O   0  0  0  0  0  0  0  0  0  0  0  0
   -5.4024   -3.5275   -4.5113 H   0  0  0  0  0  0  0  0  0  0  0  0
   -6.3235   -1.9975   -4.5557 H   0  0  0  0  0  0  0  0  0  0  0  0
   -5.6427   -2.6225   -6.0670 H   0  0  0  0  0  0  0  0  0  0  0  0
   -4.1723   -0.9218   -5.4451 H   0  0  0  0  0  0  0  0  0  0  0  0
   -2.0513   -2.1925   -5.0901 H   0  0  0  0  0  0  0  0  0  0  0  0
   -3.2987   -3.1537   -6.0491 H   0  0  0  0  0  0  0  0  0  0  0  0
   -3.0763   -3.5520   -4.3432 H   0  0  0  0  0  0  0  0  0  0  0  0
   -5.2372   -0.7902   -3.1824 H   0  0  0  0  0  0  0  0  0  0  0  0
   -4.4226   -2.2843   -2.6958 H   0  0  0  0  0  0  0  0  0  0  0  0
   -2.9980    0.4189   -3.3268 H   0  0  0  0  0  0  0  0  0  0  0  0
   -1.9045   -2.3149   -2.7404 H   0  0  0  0  0  0  0  0  0  0  0  0
    0.9663   -1.1493   -3.6097 H   0  0  0  0  0  0  0  0  0  0  0  0
    0.0112   -3.1017   -3.3063 H   0  0  0  0  0  0  0  0  0  0  0  0
    1.6151   -3.2442   -2.5485 H   0  0  0  0  0  0  0  0  0  0  0  0
   -0.4932   -1.8276    0.1764 H   0  0  0  0  0  0  0  0  0  0  0  0
   -1.4030   -3.7083    1.6781 H   0  0  0  0  0  0  0  0  0  0  0  0
   -1.6491   -6.4328    1.4879 H   0  0  0  0  0  0  0  0  0  0  0  0
   -1.1786   -8.3657   -0.0425 H   0  0  0  0  0  0  0  0  0  0  0  0
   -0.1436   -7.9689   -2.1858 H   0  0  0  0  0  0  0  0  0  0  0  0
    0.4602   -5.7595   -2.9042 H   0  0  0  0  0  0  0  0  0  0  0  0
    1.7290    0.3381   -2.6067 H   0  0  0  0  0  0  0  0  0  0  0  0
    2.8154   -1.4707    0.6204 H   0  0  0  0  0  0  0  0  0  0  0  0
    1.2929    1.1350    0.9937 H   0  0  0  0  0  0  0  0  0  0  0  0
    0.8201   -0.5734    1.5519 H   0  0  0  0  0  0  0  0  0  0  0  0
    1.7745    1.0020    3.4467 H   0  0  0  0  0  0  0  0  0  0  0  0
    2.5671   -0.5732    3.1609 H   0  0  0  0  0  0  0  0  0  0  0  0
    4.3453    1.0760    3.0179 H   0  0  0  0  0  0  0  0  0  0  0  0
    3.3896    2.1546    1.9711 H   0  0  0  0  0  0  0  0  0  0  0  0
    6.7663    0.4289    1.9516 H   0  0  0  0  0  0  0  0  0  0  0  0
    7.3392    0.5898   -0.9255 H   0  0  0  0  0  0  0  0  0  0  0  0
    8.0334   -0.4131    0.3322 H   0  0  0  0  0  0  0  0  0  0  0  0
    5.5548    2.6669    1.5692 H   0  0  0  0  0  0  0  0  0  0  0  0
    6.2534    2.6593   -0.0616 H   0  0  0  0  0  0  0  0  0  0  0  0
    7.1443    2.8289    3.5570 H   0  0  0  0  0  0  0  0  0  0  0  0
    9.3386    3.6729    4.2842 H   0  0  0  0  0  0  0  0  0  0  0  0
   12.0806    3.5512    2.9489 H   0  0  0  0  0  0  0  0  0  0  0  0
   10.6735    3.8236    0.2243 H   0  0  0  0  0  0  0  0  0  0  0  0
    8.5353    2.9951   -0.5215 H   0  0  0  0  0  0  0  0  0  0  0  0
   -5.4708    0.7150   -1.8209 H   0  0  0  0  0  0  0  0  0  0  0  0
   -4.1581    0.9969    0.8641 H   0  0  0  0  0  0  0  0  0  0  0  0
   -4.7252    3.1229   -0.2283 H   0  0  0  0  0  0  0  0  0  0  0  0
   -6.4726    2.5977   -0.4504 H   0  0  0  0  0  0  0  0  0  0  0  0
   -8.0335    3.2918    1.4450 H   0  0  0  0  0  0  0  0  0  0  0  0
   -7.7930    4.3463    3.8119 H   0  0  0  0  0  0  0  0  0  0  0  0
   -5.5188    4.9190    5.5295 H   0  0  0  0  0  0  0  0  0  0  0  0
   -3.1295    4.7496    5.6286 H   0  0  0  0  0  0  0  0  0  0  0  0
   -1.8217    3.7759    3.7827 H   0  0  0  0  0  0  0  0  0  0  0  0
   -3.0452    2.9682    1.7526 H   0  0  0  0  0  0  0  0  0  0  0  0
   -7.3182    0.0889    2.6038 H   0  0  0  0  0  0  0  0  0  0  0  0
  1  2  1  0
  2  3  1  0
  2  4  1  0
  4  5  1  0
  5  6  1  0
  6  7  1  0
  7  8  2  0
  7  9  1  0
  9 10  1  0
 10 11  1  0
 11 12  2  0
 12 13  1  0
 13 14  1  0
 14 15  2  0
 15 16  1  0
 16 17  2  0
 17 18  1  0
 18 19  2  0
  9 20  1  0
 20 21  1  0
 21 22  2  0
 21 23  1  0
 23 24  1  0
 24 25  1  0
 25 26  1  0
 26 27  1  0
 27 28  1  0
 28 29  2  0
 28 30  1  0
 30 31  1  0
 30 32  1  0
 32 33  1  0
 33 34  2  0
 34 35  1  0
 35 36  2  0
 36 37  1  0
 36 38  1  0
 38 39  2  0
  5 40  1  0
 40 41  2  0
 40 42  1  0
 42 43  1  0
 43 44  1  0
 44 45  1  0
 45 46  2  0
 46 47  1  0
 47 48  1  0
 48 49  2  0
 49 50  1  0
 50 51  2  0
 51 52  1  0
 52 53  2  0
 43 54  1  0
 54 55  1  0
 54 56  2  0
 19 11  1  0
 27 23  1  0
 39 33  1  0
 53 45  1  0
 19 14  1  0
 53 48  1  0
  1 57  1  0
  1 58  1  0
  1 59  1  0
  2 60  1  0
  3 61  1  0
  3 62  1  0
  3 63  1  0
  4 64  1  0
  4 65  1  0
  5 66  1  6
  6 67  1  0
  9 68  1  6
 10 69  1  0
 10 70  1  0
 12 71  1  0
 13 72  1  0
 15 73  1  0
 16 74  1  0
 17 75  1  0
 18 76  1  0
 20 77  1  0
 23 78  1  6
 24 79  1  0
 24 80  1  0
 25 81  1  0
 25 82  1  0
 26 83  1  0
 26 84  1  0
 30 85  1  1
 31 86  1  0
 31 87  1  0
 32 88  1  0
 32 89  1  0
 34 90  1  0
 35 91  1  0
 37 92  1  0
 38 93  1  0
 39 94  1  0
 42 95  1  0
 43 96  1  1
 44 97  1  0
 44 98  1  0
 46 99  1  0
 47100  1  0
 49101  1  0
 50102  1  0
 51103  1  0
 52104  1  0
 55105  1  0
M  END
$$$$
[H]O[C@@]1([H])[C@]([H])(O[H])[C@@]([H])(C([H])([H])OP(=O)(O[H])OP(=O)(O[H])O[H])O[C@@]1([H])n1c([H])nc2c(N([H])[H])nc([H])nc21
     RDKit          3D

 42 44  0  0  0  0  0  0  0  0999 V2000
   -7.0669   -0.7509    1.3762 N   0  0  0  0  0  0  0  0  0  0  0  0
   -5.8283   -1.0043    0.7483 C   0  0  0  0  0  0  0  0  0  0  0  0
   -5.5844   -2.2451    0.2955 N   0  0  0  0  0  0  0  0  0  0  0  0
   -4.4252   -2.5101   -0.3000 C   0  0  0  0  0  0  0  0  0  0  0  0
   -3.4935   -1.5637   -0.4581 N   0  0  0  0  0  0  0  0  0  0  0  0
   -3.6551   -0.2977   -0.0355 C   0  0  0  0  0  0  0  0  0  0  0  0
   -2.9283    0.8187   -0.0544 N   0  0  0  0  0  0  0  0  0  0  0  0
   -3.6433    1.7913    0.5365 C   0  0  0  0  0  0  0  0  0  0  0  0
   -4.8236    1.2814    0.9273 N   0  0  0  0  0  0  0  0  0  0  0  0
   -4.8716   -0.0234    0.5884 C   0  0  0  0  0  0  0  0  0  0  0  0
   -1.6205    0.9872   -0.5969 C   0  0  2  0  0  0  0  0  0  0  0  0
   -0.7269   -0.0102   -0.1436 O   0  0  0  0  0  0  0  0  0  0  0  0
    0.4797    0.4223   -0.6404 C   0  0  2  0  0  0  0  0  0  0  0  0
    1.6656   -0.1175    0.1153 C   0  0  0  0  0  0  0  0  0  0  0  0
    2.8256    0.3842   -0.4729 O   0  0  0  0  0  0  0  0  0  0  0  0
    4.2129   -0.1720    0.3140 P   0  0  0  0  0  0  0  0  0  0  0  0
    5.5295    0.8404    0.0070 O   0  0  0  0  0  0  0  0  0  0  0  0
    3.9615   -0.2248    1.8057 O   0  0  0  0  0  0  0  0  0  0  0  0
    4.6147   -1.7408   -0.1944 O   0  0  0  0  0  0  0  0  0  0  0  0
    6.2122   -2.1062    0.1931 P   0  0  0  0  0  0  0  0  0  0  0  0
    6.7339   -3.4525   -0.6842 O   0  0  0  0  0  0  0  0  0  0  0  0
    7.2580   -0.8230   -0.1643 O   0  0  0  0  0  0  0  0  0  0  0  0
    6.3372   -2.4794    1.6725 O   0  0  0  0  0  0  0  0  0  0  0  0
    0.5147    1.9252   -0.5340 C   0  0  1  0  0  0  0  0  0  0  0  0
    0.6301    2.4511   -1.8225 O   0  0  0  0  0  0  0  0  0  0  0  0
   -0.9208    2.2299   -0.0856 C   0  0  2  0  0  0  0  0  0  0  0  0
   -0.9565    2.2514    1.3147 O   0  0  0  0  0  0  0  0  0  0  0  0
   -7.1694   -0.9057    2.3930 H   0  0  0  0  0  0  0  0  0  0  0  0
   -7.8622   -0.4121    0.8120 H   0  0  0  0  0  0  0  0  0  0  0  0
   -4.2731   -3.5418   -0.6536 H   0  0  0  0  0  0  0  0  0  0  0  0
   -3.3404    2.8374    0.6892 H   0  0  0  0  0  0  0  0  0  0  0  0
   -1.6178    1.0501   -1.6979 H   0  0  0  0  0  0  0  0  0  0  0  0
    0.5502    0.0687   -1.6976 H   0  0  0  0  0  0  0  0  0  0  0  0
    1.5924    0.1774    1.1814 H   0  0  0  0  0  0  0  0  0  0  0  0
    1.6860   -1.2423    0.1086 H   0  0  0  0  0  0  0  0  0  0  0  0
    5.5000    1.2339   -0.9019 H   0  0  0  0  0  0  0  0  0  0  0  0
    7.3878   -3.2307   -1.3784 H   0  0  0  0  0  0  0  0  0  0  0  0
    7.5336   -0.4232    0.6913 H   0  0  0  0  0  0  0  0  0  0  0  0
    1.2589    2.3070    0.1631 H   0  0  0  0  0  0  0  0  0  0  0  0
    0.5008    1.7350   -2.5103 H   0  0  0  0  0  0  0  0  0  0  0  0
   -1.3050    3.1526   -0.5195 H   0  0  0  0  0  0  0  0  0  0  0  0
   -0.8726    1.3322    1.6710 H   0  0  0  0  0  0  0  0  0  0  0  0
  1  2  1  0
  2  3  2  0
  3  4  1  0
  4  5  2  0
  5  6  1  0
  6  7  1  0
  7  8  1  0
  8  9  2  0
  9 10  1  0
  7 11  1  0
 11 12  1  0
 12 13  1  0
 13 14  1  0
 14 15  1  0
 15 16  1  0
 16 17  1  0
 16 18  2  0
 16 19  1  0
 19 20  1  0
 20 21  1  0
 20 22  1  0
 20 23  2  0
 13 24  1  0
 24 25  1  0
 24 26  1  0
 26 27  1  0
 10  2  1  0
 26 11  1  0
 10  6  2  0
  1 28  1  0
  1 29  1  0
  4 30  1  0
  8 31  1  0
 11 32  1  6
 13 33  1  6
 14 34  1  0
 14 35  1  0
 17 36  1  0
 21 37  1  0
 22 38  1  0
 24 39  1  1
 25 40  1  0
 26 41  1  6
 27 42  1  0
M  END
$$$$
[H]Oc1c([H])c([H])c([H])c2c3c(Cl)c([H])c([H])c([H])c3n([C@]3([H])O[C@]([H])(C([H])([H])O[H])[C@@]([H])(O[H])[C@]([H])(O[H])[C@@]3([H])O[H])c12
     RDKit          3D

 44 47  0  0  0  0  0  0  0  0999 V2000
   -4.4036   -0.3755    2.5559 O   0  0  0  0  0  0  0  0  0  0  0  0
   -3.1641   -0.9291    2.2904 C   0  0  0  0  0  0  0  0  0  0  0  0
   -2.4696   -0.1023    1.2375 C   0  0  1  0  0  0  0  0  0  0  0  0
   -1.2243   -0.6721    0.9819 O   0  0  0  0  0  0  0  0  0  0  0  0
   -0.5867    0.1277    0.0406 C   0  0  2  0  0  0  0  0  0  0  0  0
   -1.2874    0.2141   -1.2779 C   0  0  2  0  0  0  0  0  0  0  0  0
   -0.5196    0.9493   -2.1679 O   0  0  0  0  0  0  0  0  0  0  0  0
   -2.6263    0.9185   -1.0001 C   0  0  1  0  0  0  0  0  0  0  0  0
   -3.3604    1.0773   -2.1439 O   0  0  0  0  0  0  0  0  0  0  0  0
   -3.3309    0.0005    0.0088 C   0  0  2  0  0  0  0  0  0  0  0  0
   -4.5392    0.5632    0.3742 O   0  0  0  0  0  0  0  0  0  0  0  0
    0.8415   -0.0084   -0.0288 N   0  0  0  0  0  0  0  0  0  0  0  0
    1.6212   -1.1080   -0.2371 C   0  0  0  0  0  0  0  0  0  0  0  0
    1.2939   -2.4117   -0.4443 C   0  0  0  0  0  0  0  0  0  0  0  0
   -0.0494   -2.7635   -0.4595 O   0  0  0  0  0  0  0  0  0  0  0  0
    2.2578   -3.3985   -0.6408 C   0  0  0  0  0  0  0  0  0  0  0  0
    3.5695   -3.0169   -0.6201 C   0  0  0  0  0  0  0  0  0  0  0  0
    3.9545   -1.7086   -0.4141 C   0  0  0  0  0  0  0  0  0  0  0  0
    2.9646   -0.7600   -0.2231 C   0  0  0  0  0  0  0  0  0  0  0  0
    3.0260    0.5793   -0.0028 C   0  0  0  0  0  0  0  0  0  0  0  0
    4.0791    1.4688    0.1093 C   0  0  0  0  0  0  0  0  0  0  0  0
    5.7334    0.9105   -0.0372 Cl  0  0  0  0  0  0  0  0  0  0  0  0
    3.8448    2.8307    0.3419 C   0  0  0  0  0  0  0  0  0  0  0  0
    2.5457    3.2550    0.4547 C   0  0  0  0  0  0  0  0  0  0  0  0
    1.5077    2.3507    0.3396 C   0  0  0  0  0  0  0  0  0  0  0  0
    1.7313    1.0024    0.1097 C   0  0  0  0  0  0  0  0  0  0  0  0
   -4.2664    0.3028    3.2696 H   0  0  0  0  0  0  0  0  0  0  0  0
   -3.2787   -1.9575    1.8586 H   0  0  0  0  0  0  0  0  0  0  0  0
   -2.5057   -0.9491    3.1910 H   0  0  0  0  0  0  0  0  0  0  0  0
   -2.3538    0.9456    1.6289 H   0  0  0  0  0  0  0  0  0  0  0  0
   -0.7682    1.1584    0.4956 H   0  0  0  0  0  0  0  0  0  0  0  0
   -1.5612   -0.7152   -1.7604 H   0  0  0  0  0  0  0  0  0  0  0  0
   -1.0529    1.0701   -2.9914 H   0  0  0  0  0  0  0  0  0  0  0  0
   -2.3852    1.8414   -0.4676 H   0  0  0  0  0  0  0  0  0  0  0  0
   -3.3736    2.0386   -2.4103 H   0  0  0  0  0  0  0  0  0  0  0  0
   -3.4644   -0.9677   -0.4988 H   0  0  0  0  0  0  0  0  0  0  0  0
   -4.8668    1.1545   -0.3538 H   0  0  0  0  0  0  0  0  0  0  0  0
   -0.3550   -3.7283   -0.6109 H   0  0  0  0  0  0  0  0  0  0  0  0
    1.9317   -4.4292   -0.8023 H   0  0  0  0  0  0  0  0  0  0  0  0
    4.3093   -3.7956   -0.7745 H   0  0  0  0  0  0  0  0  0  0  0  0
    4.9970   -1.5251   -0.4177 H   0  0  0  0  0  0  0  0  0  0  0  0
    4.6963    3.5100    0.4260 H   0  0  0  0  0  0  0  0  0  0  0  0
    2.3900    4.3132    0.6345 H   0  0  0  0  0  0  0  0  0  0  0  0
    0.4981    2.7398    0.4367 H   0  0  0  0  0  0  0  0  0  0  0  0
  1  2  1  0
  2  3  1  0
  3  4  1  0
  4  5  1  0
  5  6  1  0
  6  7  1  0
  6  8  1  0
  8  9  1  0
  8 10  1  0
 10 11  1  0
  5 12  1  0
 12 13  1  0
 13 14  2  0
 14 15  1  0
 14 16  1  0
 16 17  2  0
 17 18  1  0
 18 19  2  0
 19 20  1  0
 20 21  2  0
 21 22  1  0
 21 23  1  0
 23 24  2  0
 24 25  1  0
 25 26  2  0
 10  3  1  0
 26 12  1  0
 19 13  1  0
 26 20  1  0
  1 27  1  0
  2 28  1  0
  2 29  1  0
  3 30  1  1
  5 31  1  1
  6 32  1  6
  7 33  1  0
  8 34  1  1
  9 35  1  0
 10 36  1  6
 11 37  1  0
 15 38  1  0
 16 39  1  0
 17 40  1  0
 18 41  1  0
 23 42  1  0
 24 43  1  0
 25 44  1  0
M  END
$$$$
[H]N=C(N([H])[H])N([H])C([H])([H])C([H])([H])C([H])([H])[C@@]([H])(C(=O)N1C([H])([H])C([H])([H])C([H])([H])[C@@]1([H])C(=O)N([H])[C@]([H])(C(=N[H])N([H])[H])C([H])([H])c1c([H])c([H])c([H])c([H])c1[H])N([H])C(=O)OC([H])([H])c1c([H])c([H])c([H])c([H])c1[H]
     RDKit          3D

 78 80  0  0  0  0  0  0  0  0999 V2000
    2.6144    5.6158   -1.7826 N   0  0  0  0  0  0  0  0  0  0  0  0
    3.2135    4.3274   -1.6766 C   0  0  0  0  0  0  0  0  0  0  0  0
    3.9392    3.9464   -2.6710 N   0  0  0  0  0  0  0  0  0  0  0  0
    3.0048    3.5363   -0.5332 N   0  0  0  0  0  0  0  0  0  0  0  0
    3.1243    2.1038   -0.6061 C   0  0  0  0  0  0  0  0  0  0  0  0
    2.0235    1.4807   -1.4369 C   0  0  0  0  0  0  0  0  0  0  0  0
    2.1673    0.0174   -1.4582 C   0  0  0  0  0  0  0  0  0  0  0  0
    1.9711   -0.7318   -0.1572 C   0  0  2  0  0  0  0  0  0  0  0  0
    2.2336   -2.1589   -0.5208 N   0  0  0  0  0  0  0  0  0  0  0  0
    3.2559   -2.8275    0.1786 C   0  0  0  0  0  0  0  0  0  0  0  0
    3.9262   -2.2613    1.0745 O   0  0  0  0  0  0  0  0  0  0  0  0
    3.5455   -4.1473   -0.1160 O   0  0  0  0  0  0  0  0  0  0  0  0
    4.5202   -4.9374    0.4859 C   0  0  0  0  0  0  0  0  0  0  0  0
    5.9019   -4.4419    0.3661 C   0  0  0  0  0  0  0  0  0  0  0  0
    6.6075   -4.5435   -0.8201 C   0  0  0  0  0  0  0  0  0  0  0  0
    7.9007   -4.0878   -0.9398 C   0  0  0  0  0  0  0  0  0  0  0  0
    8.5429   -3.5076    0.1333 C   0  0  0  0  0  0  0  0  0  0  0  0
    7.8440   -3.4045    1.3166 C   0  0  0  0  0  0  0  0  0  0  0  0
    6.5491   -3.8594    1.4408 C   0  0  0  0  0  0  0  0  0  0  0  0
    0.5521   -0.6648    0.2785 C   0  0  0  0  0  0  0  0  0  0  0  0
   -0.2456   -1.3191   -0.4914 O   0  0  0  0  0  0  0  0  0  0  0  0
    0.1014    0.0368    1.4178 N   0  0  0  0  0  0  0  0  0  0  0  0
    0.9987    0.6723    2.3585 C   0  0  0  0  0  0  0  0  0  0  0  0
    0.2889    2.0267    2.5171 C   0  0  0  0  0  0  0  0  0  0  0  0
   -1.1256    1.4932    2.7952 C   0  0  0  0  0  0  0  0  0  0  0  0
   -1.2299    0.2633    1.8803 C   0  0  1  0  0  0  0  0  0  0  0  0
   -2.2300    0.5776    0.8267 C   0  0  0  0  0  0  0  0  0  0  0  0
   -1.9628    0.8308   -0.3535 O   0  0  0  0  0  0  0  0  0  0  0  0
   -3.5980    0.5877    1.2043 N   0  0  0  0  0  0  0  0  0  0  0  0
   -4.6737    0.8870    0.2323 C   0  0  1  0  0  0  0  0  0  0  0  0
   -5.5966   -0.2807    0.2367 C   0  0  0  0  0  0  0  0  0  0  0  0
   -6.7517   -0.2400   -0.6401 C   0  0  0  0  0  0  0  0  0  0  0  0
   -7.9737    0.1980   -0.1944 C   0  0  0  0  0  0  0  0  0  0  0  0
   -9.0938    0.2519   -0.9941 C   0  0  0  0  0  0  0  0  0  0  0  0
   -9.0233   -0.1449   -2.3117 C   0  0  0  0  0  0  0  0  0  0  0  0
   -7.8087   -0.5909   -2.7916 C   0  0  0  0  0  0  0  0  0  0  0  0
   -6.6884   -0.6400   -1.9743 C   0  0  0  0  0  0  0  0  0  0  0  0
   -5.3506    2.1492    0.6098 C   0  0  0  0  0  0  0  0  0  0  0  0
   -6.2463    2.7979   -0.3013 N   0  0  0  0  0  0  0  0  0  0  0  0
   -5.1309    2.6802    1.7810 N   0  0  0  0  0  0  0  0  0  0  0  0
    2.6421    6.2543   -0.9651 H   0  0  0  0  0  0  0  0  0  0  0  0
    2.1690    5.8528   -2.7000 H   0  0  0  0  0  0  0  0  0  0  0  0
    4.4272    3.0469   -2.7275 H   0  0  0  0  0  0  0  0  0  0  0  0
    2.7652    3.9775    0.3650 H   0  0  0  0  0  0  0  0  0  0  0  0
    3.1878    1.5938    0.3522 H   0  0  0  0  0  0  0  0  0  0  0  0
    4.0946    1.8233   -1.1358 H   0  0  0  0  0  0  0  0  0  0  0  0
    2.1034    1.9480   -2.4584 H   0  0  0  0  0  0  0  0  0  0  0  0
    1.0652    1.8216   -0.9450 H   0  0  0  0  0  0  0  0  0  0  0  0
    1.4021   -0.3930   -2.1800 H   0  0  0  0  0  0  0  0  0  0  0  0
    3.1437   -0.3278   -1.9065 H   0  0  0  0  0  0  0  0  0  0  0  0
    2.6597   -0.4431    0.5953 H   0  0  0  0  0  0  0  0  0  0  0  0
    1.6896   -2.6411   -1.2561 H   0  0  0  0  0  0  0  0  0  0  0  0
    4.3129   -5.1835    1.5451 H   0  0  0  0  0  0  0  0  0  0  0  0
    4.5003   -5.9296   -0.0521 H   0  0  0  0  0  0  0  0  0  0  0  0
    6.0919   -5.0073   -1.6757 H   0  0  0  0  0  0  0  0  0  0  0  0
    8.3983   -4.1980   -1.9006 H   0  0  0  0  0  0  0  0  0  0  0  0
    9.5779   -3.1388    0.0492 H   0  0  0  0  0  0  0  0  0  0  0  0
    8.3167   -2.9540    2.1809 H   0  0  0  0  0  0  0  0  0  0  0  0
    6.0029   -3.7727    2.3941 H   0  0  0  0  0  0  0  0  0  0  0  0
    2.0284    0.7508    2.0847 H   0  0  0  0  0  0  0  0  0  0  0  0
    0.8581    0.1990    3.3808 H   0  0  0  0  0  0  0  0  0  0  0  0
    0.6832    2.6158    3.3422 H   0  0  0  0  0  0  0  0  0  0  0  0
    0.2885    2.4986    1.5279 H   0  0  0  0  0  0  0  0  0  0  0  0
   -1.8964    2.2454    2.5415 H   0  0  0  0  0  0  0  0  0  0  0  0
   -1.1642    1.1295    3.8238 H   0  0  0  0  0  0  0  0  0  0  0  0
   -1.5605   -0.6302    2.4463 H   0  0  0  0  0  0  0  0  0  0  0  0
   -3.8486    0.3763    2.1878 H   0  0  0  0  0  0  0  0  0  0  0  0
   -4.1499    1.0263   -0.7414 H   0  0  0  0  0  0  0  0  0  0  0  0
   -4.9544   -1.1838   -0.0147 H   0  0  0  0  0  0  0  0  0  0  0  0
   -5.8632   -0.4705    1.3129 H   0  0  0  0  0  0  0  0  0  0  0  0
   -8.0809    0.5203    0.8301 H   0  0  0  0  0  0  0  0  0  0  0  0
  -10.0559    0.5997   -0.6319 H   0  0  0  0  0  0  0  0  0  0  0  0
   -9.8731   -0.1213   -2.9801 H   0  0  0  0  0  0  0  0  0  0  0  0
   -7.7037   -0.9167   -3.8327 H   0  0  0  0  0  0  0  0  0  0  0  0
   -5.7398   -0.9910   -2.3572 H   0  0  0  0  0  0  0  0  0  0  0  0
   -5.9813    2.8282   -1.3152 H   0  0  0  0  0  0  0  0  0  0  0  0
   -7.1341    3.2364   -0.0245 H   0  0  0  0  0  0  0  0  0  0  0  0
   -4.5001    2.2673    2.4779 H   0  0  0  0  0  0  0  0  0  0  0  0
  1  2  1  0
  2  3  2  3
  2  4  1  0
  4  5  1  0
  5  6  1  0
  6  7  1  0
  7  8  1  0
  8  9  1  0
  9 10  1  0
 10 11  2  0
 10 12  1  0
 12 13  1  0
 13 14  1  0
 14 15  2  0
 15 16  1  0
 16 17  2  0
 17 18  1  0
 18 19  2  0
  8 20  1  0
 20 21  2  0
 20 22  1  0
 22 23  1  0
 23 24  1  0
 24 25  1  0
 25 26  1  0
 26 27  1  0
 27 28  2  0
 27 29  1  0
 29 30  1  0
 30 31  1  0
 31 32  1  0
 32 33  2  0
 33 34  1  0
 34 35  2  0
 35 36  1  0
 36 37  2  0
 30 38  1  0
 38 39  1  0
 38 40  2  3
 19 14  1  0
 26 22  1  0
 37 32  1  0
  1 41  1  0
  1 42  1  0
  3 43  1  0
  4 44  1  0
  5 45  1  0
  5 46  1  0
  6 47  1  0
  6 48  1  0
  7 49  1  0
  7 50  1  0
  8 51  1  1
  9 52  1  0
 13 53  1  0
 13 54  1  0
 15 55  1  0
 16 56  1  0
 17 57  1  0
 18 58  1  0
 19 59  1  0
 23 60  1  0
 23 61  1  0
 24 62  1  0
 24 63  1  0
 25 64  1  0
 25 65  1  0
 26 66  1  1
 29 67  1  0
 30 68  1  6
 31 69  1  0
 31 70  1  0
 33 71  1  0
 34 72  1  0
 35 73  1  0
 36 74  1  0
 37 75  1  0
 39 76  1  0
 39 77  1  0
 40 78  1  0
M  END
$$$$
[H]C1=C2C([H])([H])C([H])([H])C3([H])C4([H])C([H])([H])C([H])([H])C([H])(n5c([H])nc([H])c5[H])[C@@]4(C([H])([H])[H])C([H])([H])C([H])([H])C3([H])[C@@]2(C([H])([H])[H])C([H])([H])C([H])([H])C1=O
     RDKit          3D

 55 59  0  0  0  0  0  0  0  0999 V2000
    1.4133   -1.9095    1.3151 C   0  0  0  0  0  0  0  0  0  0  0  0
    1.7433   -0.6158    0.5587 C   0  0  2  0  0  0  0  0  0  0  0  0
    1.1467    0.5086    1.2762 C   0  0  0  0  0  0  0  0  0  0  0  0
    0.0259    1.2338    0.6177 C   0  0  0  0  0  0  0  0  0  0  0  0
   -0.8476    0.4649   -0.2908 C   0  0  0  0  0  0  0  0  0  0  0  0
   -0.3284   -0.9549   -0.5818 C   0  0  0  0  0  0  0  0  0  0  0  0
   -1.1439   -1.4957   -1.7088 C   0  0  0  0  0  0  0  0  0  0  0  0
   -2.4975   -1.8672   -1.1376 C   0  0  0  0  0  0  0  0  0  0  0  0
   -3.0693   -0.6316   -0.5339 C   0  0  0  0  0  0  0  0  0  0  0  0
   -4.3895   -0.5437   -0.5596 C   0  0  0  0  0  0  0  0  0  0  0  0
   -5.0397    0.6375    0.0117 C   0  0  0  0  0  0  0  0  0  0  0  0
   -6.1783    0.6056    0.5215 O   0  0  0  0  0  0  0  0  0  0  0  0
   -4.3244    1.9388   -0.0092 C   0  0  0  0  0  0  0  0  0  0  0  0
   -2.8849    1.7799   -0.4176 C   0  0  0  0  0  0  0  0  0  0  0  0
   -2.3036    0.4535    0.0675 C   0  0  2  0  0  0  0  0  0  0  0  0
   -2.4886    0.3661    1.5874 C   0  0  0  0  0  0  0  0  0  0  0  0
    1.1047   -0.7608   -0.8255 C   0  0  0  0  0  0  0  0  0  0  0  0
    1.8973   -1.8166   -1.4449 C   0  0  0  0  0  0  0  0  0  0  0  0
    3.3094   -1.4404   -1.0356 C   0  0  0  0  0  0  0  0  0  0  0  0
    3.1733   -0.6191    0.2555 C   0  0  0  0  0  0  0  0  0  0  0  0
    3.8131    0.6654    0.1203 N   0  0  0  0  0  0  0  0  0  0  0  0
    3.7907    1.5351   -0.8925 C   0  0  0  0  0  0  0  0  0  0  0  0
    4.5539    2.6225   -0.5592 C   0  0  0  0  0  0  0  0  0  0  0  0
    5.0405    2.4073    0.6639 N   0  0  0  0  0  0  0  0  0  0  0  0
    4.5880    1.2258    1.0636 C   0  0  0  0  0  0  0  0  0  0  0  0
    0.6187   -1.7149    2.0897 H   0  0  0  0  0  0  0  0  0  0  0  0
    1.0486   -2.7025    0.6806 H   0  0  0  0  0  0  0  0  0  0  0  0
    2.3034   -2.2564    1.8634 H   0  0  0  0  0  0  0  0  0  0  0  0
    0.7747    0.1976    2.3008 H   0  0  0  0  0  0  0  0  0  0  0  0
    1.9600    1.2497    1.5403 H   0  0  0  0  0  0  0  0  0  0  0  0
   -0.6418    1.6996    1.4056 H   0  0  0  0  0  0  0  0  0  0  0  0
    0.4732    2.1424    0.1105 H   0  0  0  0  0  0  0  0  0  0  0  0
   -0.7885    0.9476   -1.3147 H   0  0  0  0  0  0  0  0  0  0  0  0
   -0.5846   -1.5366    0.3275 H   0  0  0  0  0  0  0  0  0  0  0  0
   -1.3439   -0.7005   -2.4724 H   0  0  0  0  0  0  0  0  0  0  0  0
   -0.6470   -2.3865   -2.1756 H   0  0  0  0  0  0  0  0  0  0  0  0
   -3.1528   -2.2760   -1.9047 H   0  0  0  0  0  0  0  0  0  0  0  0
   -2.2882   -2.6001   -0.3047 H   0  0  0  0  0  0  0  0  0  0  0  0
   -5.0334   -1.3136   -0.9891 H   0  0  0  0  0  0  0  0  0  0  0  0
   -4.3557    2.4714    0.9507 H   0  0  0  0  0  0  0  0  0  0  0  0
   -4.8268    2.5727   -0.7703 H   0  0  0  0  0  0  0  0  0  0  0  0
   -2.8073    1.7578   -1.5290 H   0  0  0  0  0  0  0  0  0  0  0  0
   -2.2823    2.6437   -0.0747 H   0  0  0  0  0  0  0  0  0  0  0  0
   -3.3373   -0.3207    1.8426 H   0  0  0  0  0  0  0  0  0  0  0  0
   -2.6616    1.3627    2.0187 H   0  0  0  0  0  0  0  0  0  0  0  0
   -1.5815   -0.1320    1.9865 H   0  0  0  0  0  0  0  0  0  0  0  0
    1.2649    0.1790   -1.4199 H   0  0  0  0  0  0  0  0  0  0  0  0
    1.8683   -1.6807   -2.5657 H   0  0  0  0  0  0  0  0  0  0  0  0
    1.6407   -2.8490   -1.2606 H   0  0  0  0  0  0  0  0  0  0  0  0
    3.7727   -0.7522   -1.8015 H   0  0  0  0  0  0  0  0  0  0  0  0
    3.9513   -2.3095   -0.9208 H   0  0  0  0  0  0  0  0  0  0  0  0
    3.7196   -1.2032    1.0237 H   0  0  0  0  0  0  0  0  0  0  0  0
    3.2755    1.4270   -1.8142 H   0  0  0  0  0  0  0  0  0  0  0  0
    4.7255    3.5097   -1.1991 H   0  0  0  0  0  0  0  0  0  0  0  0
    4.8312    0.7841    2.0467 H   0  0  0  0  0  0  0  0  0  0  0  0
  2  1  1  1
  2  3  1  0
  3  4  1  0
  4  5  1  0
  5  6  1  0
  6  7  1  0
  7  8  1  0
  8  9  1  0
  9 10  2  0
 10 11  1  0
 11 12  2  0
 11 13  1  0
 13 14  1  0
 14 15  1  0
 15 16  1  1
  6 17  1  0
 17 18  1  0
 18 19  1  0
 19 20  1  0
 20 21  1  0
 21 22  1  0
 22 23  2  0
 23 24  1  0
 24 25  2  0
 17  2  1  0
 25 21  1  0
 20  2  1  0
 15  5  1  0
 15  9  1  0
  1 26  1  0
  1 27  1  0
  1 28  1  0
  3 29  1  0
  3 30  1  0
  4 31  1  0
  4 32  1  0
  5 33  1  0
  6 34  1  0
  7 35  1  0
  7 36  1  0
  8 37  1  0
  8 38  1  0
 10 39  1  0
 13 40  1  0
 13 41  1  0
 14 42  1  0
 14 43  1  0
 16 44  1  0
 16 45  1  0
 16 46  1  0
 17 47  1  0
 18 48  1  0
 18 49  1  0
 19 50  1  0
 19 51  1  0
 20 52  1  0
 22 53  1  0
 23 54  1  0
 25 55  1  0
M  END
$$$$
[H]c1nc(N([H])C(=O)c2c([H])c(O[C@@]([H])(C([H])([H])[H])C([H])([H])OC([H])([H])[H])c([H])c(O[C@]([H])(C([H])([H])[H])C(C([H])([H])[H])(C([H])([H])[H])C([H])([H])[H])c2[H])sc1[H]
     RDKit          3D

 55 56  0  0  0  0  0  0  0  0999 V2000
    5.2210   -3.1534   -0.6142 C   0  0  0  0  0  0  0  0  0  0  0  0
    4.4206   -4.2293   -0.3137 O   0  0  0  0  0  0  0  0  0  0  0  0
    3.0818   -3.9393   -0.2140 C   0  0  0  0  0  0  0  0  0  0  0  0
    2.7972   -2.9037    0.8826 C   0  0  2  0  0  0  0  0  0  0  0  0
    3.1842   -3.4790    2.2382 C   0  0  0  0  0  0  0  0  0  0  0  0
    1.4352   -2.6962    0.8871 O   0  0  0  0  0  0  0  0  0  0  0  0
    0.7846   -1.4994    0.6737 C   0  0  0  0  0  0  0  0  0  0  0  0
   -0.6200   -1.4706    0.7145 C   0  0  0  0  0  0  0  0  0  0  0  0
   -1.3516   -0.3221    0.5132 C   0  0  0  0  0  0  0  0  0  0  0  0
   -2.7246   -0.3970    0.5733 O   0  0  0  0  0  0  0  0  0  0  0  0
   -3.6695    0.5930    0.4101 C   0  0  2  0  0  0  0  0  0  0  0  0
   -4.5211    0.8225    1.6436 C   0  0  0  0  0  0  0  0  0  0  0  0
   -4.5453    0.2545   -0.7764 C   0  0  0  0  0  0  0  0  0  0  0  0
   -5.5807    1.3434   -0.9518 C   0  0  0  0  0  0  0  0  0  0  0  0
   -5.1951   -1.0881   -0.6568 C   0  0  0  0  0  0  0  0  0  0  0  0
   -3.6694    0.2311   -2.0175 C   0  0  0  0  0  0  0  0  0  0  0  0
   -0.6657    0.8203    0.2662 C   0  0  0  0  0  0  0  0  0  0  0  0
    0.7224    0.8841    0.2077 C   0  0  0  0  0  0  0  0  0  0  0  0
    1.4147   -0.3056    0.4184 C   0  0  0  0  0  0  0  0  0  0  0  0
    1.3662    2.1462   -0.0614 C   0  0  0  0  0  0  0  0  0  0  0  0
    0.6641    3.1763   -0.2395 O   0  0  0  0  0  0  0  0  0  0  0  0
    2.7787    2.2671   -0.1328 N   0  0  0  0  0  0  0  0  0  0  0  0
    3.3787    3.5425   -0.4029 C   0  0  0  0  0  0  0  0  0  0  0  0
    2.7244    4.6754   -0.6026 N   0  0  0  0  0  0  0  0  0  0  0  0
    3.3807    5.7657   -0.8384 C   0  0  0  0  0  0  0  0  0  0  0  0
    4.7498    5.6915   -0.8704 C   0  0  0  0  0  0  0  0  0  0  0  0
    5.0041    4.0274   -0.5531 S   0  0  0  0  0  0  0  0  0  0  0  0
    4.9440   -2.6840   -1.5981 H   0  0  0  0  0  0  0  0  0  0  0  0
    6.2603   -3.5454   -0.7478 H   0  0  0  0  0  0  0  0  0  0  0  0
    5.2828   -2.3882    0.1776 H   0  0  0  0  0  0  0  0  0  0  0  0
    2.5535   -4.8870    0.0349 H   0  0  0  0  0  0  0  0  0  0  0  0
    2.6217   -3.5630   -1.1406 H   0  0  0  0  0  0  0  0  0  0  0  0
    3.3484   -1.9871    0.6841 H   0  0  0  0  0  0  0  0  0  0  0  0
    2.3159   -3.9399    2.7347 H   0  0  0  0  0  0  0  0  0  0  0  0
    3.5374   -2.6395    2.8808 H   0  0  0  0  0  0  0  0  0  0  0  0
    3.9856   -4.2193    2.1215 H   0  0  0  0  0  0  0  0  0  0  0  0
   -1.1406   -2.4044    0.9151 H   0  0  0  0  0  0  0  0  0  0  0  0
   -3.1772    1.5594    0.2033 H   0  0  0  0  0  0  0  0  0  0  0  0
   -4.5467   -0.1334    2.2057 H   0  0  0  0  0  0  0  0  0  0  0  0
   -5.5081    1.1679    1.3189 H   0  0  0  0  0  0  0  0  0  0  0  0
   -4.0793    1.5810    2.2900 H   0  0  0  0  0  0  0  0  0  0  0  0
   -5.2722    2.2628   -0.3877 H   0  0  0  0  0  0  0  0  0  0  0  0
   -6.5399    0.9977   -0.5433 H   0  0  0  0  0  0  0  0  0  0  0  0
   -5.6876    1.6463   -2.0307 H   0  0  0  0  0  0  0  0  0  0  0  0
   -5.9882   -1.1426   -1.4433 H   0  0  0  0  0  0  0  0  0  0  0  0
   -4.4925   -1.9165   -0.8594 H   0  0  0  0  0  0  0  0  0  0  0  0
   -5.6922   -1.2696    0.2989 H   0  0  0  0  0  0  0  0  0  0  0  0
   -2.9954   -0.6613   -1.9159 H   0  0  0  0  0  0  0  0  0  0  0  0
   -4.2773    0.0546   -2.9213 H   0  0  0  0  0  0  0  0  0  0  0  0
   -3.0522    1.1455   -2.1164 H   0  0  0  0  0  0  0  0  0  0  0  0
   -1.2075    1.7513    0.1013 H   0  0  0  0  0  0  0  0  0  0  0  0
    2.4869   -0.2760    0.3771 H   0  0  0  0  0  0  0  0  0  0  0  0
    3.4356    1.4705    0.0011 H   0  0  0  0  0  0  0  0  0  0  0  0
    2.8703    6.7370   -1.0113 H   0  0  0  0  0  0  0  0  0  0  0  0
    5.4490    6.5256   -1.0575 H   0  0  0  0  0  0  0  0  0  0  0  0
  1  2  1  0
  2  3  1  0
  3  4  1  0
  4  5  1  0
  4  6  1  0
  6  7  1  0
  7  8  2  0
  8  9  1  0
  9 10  1  0
 10 11  1  0
 11 12  1  0
 11 13  1  0
 13 14  1  0
 13 15  1  0
 13 16  1  0
  9 17  2  0
 17 18  1  0
 18 19  2  0
 18 20  1  0
 20 21  2  0
 20 22  1  0
 22 23  1  0
 23 24  2  0
 24 25  1  0
 25 26  2  0
 26 27  1  0
 19  7  1  0
 27 23  1  0
  1 28  1  0
  1 29  1  0
  1 30  1  0
  3 31  1  0
  3 32  1  0
  4 33  1  6
  5 34  1  0
  5 35  1  0
  5 36  1  0
  8 37  1  0
 11 38  1  6
 12 39  1  0
 12 40  1  0
 12 41  1  0
 14 42  1  0
 14 43  1  0
 14 44  1  0
 15 45  1  0
 15 46  1  0
 15 47  1  0
 16 48  1  0
 16 49  1  0
 16 50  1  0
 17 51  1  0
 19 52  1  0
 22 53  1  0
 25 54  1  0
 26 55  1  0
M  END
$$$$
[H]c1c(N([H])C(=O)[C@]2([H])N(C(=O)c3c([H])c([H])c(F)c(Cl)c3[H])C([H])([H])c3c([H])c([H])c([H])c([H])c3C2([H])[H])noc1C(C([H])([H])[H])(C([H])([H])[H])C([H])([H])[H]
     RDKit          3D

 55 58  0  0  0  0  0  0  0  0999 V2000
    6.1462    2.3170   -1.1935 C   0  0  0  0  0  0  0  0  0  0  0  0
    5.9858    1.1610   -0.2472 C   0  0  0  0  0  0  0  0  0  0  0  0
    6.3963    1.5891    1.1522 C   0  0  0  0  0  0  0  0  0  0  0  0
    6.9610    0.0873   -0.7305 C   0  0  0  0  0  0  0  0  0  0  0  0
    4.6134    0.6083   -0.1974 C   0  0  0  0  0  0  0  0  0  0  0  0
    3.4929    0.8950   -0.9536 C   0  0  0  0  0  0  0  0  0  0  0  0
    2.4424    0.1168   -0.5397 C   0  0  0  0  0  0  0  0  0  0  0  0
    1.1406   -0.0287   -1.0692 N   0  0  0  0  0  0  0  0  0  0  0  0
    0.1140   -0.8342   -0.4326 C   0  0  0  0  0  0  0  0  0  0  0  0
    0.4258   -1.2311    0.7399 O   0  0  0  0  0  0  0  0  0  0  0  0
   -1.1294   -1.1976   -1.0371 C   0  0  1  0  0  0  0  0  0  0  0  0
   -1.2479   -2.7121   -0.8863 C   0  0  0  0  0  0  0  0  0  0  0  0
   -2.2763   -3.1644    0.0656 C   0  0  0  0  0  0  0  0  0  0  0  0
   -2.0598   -4.3158    0.8491 C   0  0  0  0  0  0  0  0  0  0  0  0
   -3.0971   -4.7295    1.6923 C   0  0  0  0  0  0  0  0  0  0  0  0
   -4.2667   -4.0137    1.7242 C   0  0  0  0  0  0  0  0  0  0  0  0
   -4.4522   -2.8738    0.9380 C   0  0  0  0  0  0  0  0  0  0  0  0
   -3.4388   -2.4626    0.1127 C   0  0  0  0  0  0  0  0  0  0  0  0
   -3.6088   -1.2186   -0.7179 C   0  0  0  0  0  0  0  0  0  0  0  0
   -2.3208   -0.4787   -0.8034 N   0  0  0  0  0  0  0  0  0  0  0  0
   -2.3628    0.8939   -0.5570 C   0  0  0  0  0  0  0  0  0  0  0  0
   -1.2022    1.4710   -0.3401 O   0  0  0  0  0  0  0  0  0  0  0  0
   -3.4501    1.8320   -0.4952 C   0  0  0  0  0  0  0  0  0  0  0  0
   -4.6765    1.6399   -1.1046 C   0  0  0  0  0  0  0  0  0  0  0  0
   -5.7078    2.5387   -0.9706 C   0  0  0  0  0  0  0  0  0  0  0  0
   -5.5547    3.6702   -0.2232 C   0  0  0  0  0  0  0  0  0  0  0  0
   -6.5441    4.5833   -0.0827 F   0  0  0  0  0  0  0  0  0  0  0  0
   -4.3331    3.9099    0.4128 C   0  0  0  0  0  0  0  0  0  0  0  0
   -4.1755    5.3614    1.3856 Cl  0  0  0  0  0  0  0  0  0  0  0  0
   -3.3275    2.9992    0.2646 C   0  0  0  0  0  0  0  0  0  0  0  0
    2.9732   -0.6354    0.4844 N   0  0  0  0  0  0  0  0  0  0  0  0
    4.2071   -0.3349    0.6544 O   0  0  0  0  0  0  0  0  0  0  0  0
    5.1583    2.6674   -1.5304 H   0  0  0  0  0  0  0  0  0  0  0  0
    6.6393    3.1851   -0.6963 H   0  0  0  0  0  0  0  0  0  0  0  0
    6.6965    2.0313   -2.1203 H   0  0  0  0  0  0  0  0  0  0  0  0
    7.4658    1.8964    1.2107 H   0  0  0  0  0  0  0  0  0  0  0  0
    5.8311    2.5282    1.3918 H   0  0  0  0  0  0  0  0  0  0  0  0
    6.1503    0.7839    1.8459 H   0  0  0  0  0  0  0  0  0  0  0  0
    7.8554    0.6052   -1.1024 H   0  0  0  0  0  0  0  0  0  0  0  0
    6.4667   -0.4311   -1.5613 H   0  0  0  0  0  0  0  0  0  0  0  0
    7.1927   -0.6281    0.0731 H   0  0  0  0  0  0  0  0  0  0  0  0
    3.4586    1.6335   -1.7514 H   0  0  0  0  0  0  0  0  0  0  0  0
    0.8880    0.3284   -2.0177 H   0  0  0  0  0  0  0  0  0  0  0  0
   -0.9964   -1.0566   -2.2138 H   0  0  0  0  0  0  0  0  0  0  0  0
   -1.3886   -3.1911   -1.8934 H   0  0  0  0  0  0  0  0  0  0  0  0
   -0.2745   -3.1302   -0.5131 H   0  0  0  0  0  0  0  0  0  0  0  0
   -1.1385   -4.8395    0.7976 H   0  0  0  0  0  0  0  0  0  0  0  0
   -2.9078   -5.6154    2.2777 H   0  0  0  0  0  0  0  0  0  0  0  0
   -5.0825   -4.3259    2.3660 H   0  0  0  0  0  0  0  0  0  0  0  0
   -5.3842   -2.3113    0.9642 H   0  0  0  0  0  0  0  0  0  0  0  0
   -4.0876   -1.3880   -1.6627 H   0  0  0  0  0  0  0  0  0  0  0  0
   -4.2526   -0.5816   -0.0686 H   0  0  0  0  0  0  0  0  0  0  0  0
   -4.8841    0.7865   -1.7567 H   0  0  0  0  0  0  0  0  0  0  0  0
   -6.6866    2.3736   -1.4540 H   0  0  0  0  0  0  0  0  0  0  0  0
   -2.3855    3.2364    0.7803 H   0  0  0  0  0  0  0  0  0  0  0  0
  1  2  1  0
  2  3  1  0
  2  4  1  0
  2  5  1  0
  5  6  2  0
  6  7  1  0
  7  8  1  0
  8  9  1  0
  9 10  2  0
  9 11  1  0
 11 12  1  0
 12 13  1  0
 13 14  2  0
 14 15  1  0
 15 16  2  0
 16 17  1  0
 17 18  2  0
 18 19  1  0
 19 20  1  0
 20 21  1  0
 21 22  2  0
 21 23  1  0
 23 24  2  0
 24 25  1  0
 25 26  2  0
 26 27  1  0
 26 28  1  0
 28 29  1  0
 28 30  2  0
  7 31  2  0
 31 32  1  0
 32  5  1  0
 20 11  1  0
 30 23  1  0
 18 13  1  0
  1 33  1  0
  1 34  1  0
  1 35  1  0
  3 36  1  0
  3 37  1  0
  3 38  1  0
  4 39  1  0
  4 40  1  0
  4 41  1  0
  6 42  1  0
  8 43  1  0
 11 44  1  6
 12 45  1  0
 12 46  1  0
 14 47  1  0
 15 48  1  0
 16 49  1  0
 17 50  1  0
 19 51  1  0
 19 52  1  0
 24 53  1  0
 25 54  1  0
 30 55  1  0
M  END
$$$$
[H]c1c([H])c([H])c(C2([H])C(C(=O)OC(C([H])([H])[H])(C([H])([H])[H])C([H])([H])[H])=C(C([H])([H])[H])N=C(C([H])([H])[H])C2([H])C(=O)OC([H])([H])[H])c(Cl)c1[H]
     RDKit          3D

 50 51  0  0  0  0  0  0  0  0999 V2000
   -1.9104    2.8459    3.3998 C   0  0  0  0  0  0  0  0  0  0  0  0
   -1.6426    2.2394    2.1422 O   0  0  0  0  0  0  0  0  0  0  0  0
   -2.6539    1.5730    1.4835 C   0  0  0  0  0  0  0  0  0  0  0  0
   -3.7816    1.5200    2.0031 O   0  0  0  0  0  0  0  0  0  0  0  0
   -2.4013    0.9068    0.1374 C   0  0  0  0  0  0  0  0  0  0  0  0
   -1.3708   -0.1563    0.3618 C   0  0  0  0  0  0  0  0  0  0  0  0
   -0.0165    0.2712   -0.2159 C   0  0  0  0  0  0  0  0  0  0  0  0
    1.2144   -0.3507    0.2694 C   0  0  0  0  0  0  0  0  0  0  0  0
    1.2826   -1.2623    1.1207 O   0  0  0  0  0  0  0  0  0  0  0  0
    2.4969    0.0201   -0.1793 O   0  0  0  0  0  0  0  0  0  0  0  0
    3.6740   -0.5612    0.2617 C   0  0  0  0  0  0  0  0  0  0  0  0
    4.8122    0.1980   -0.4379 C   0  0  0  0  0  0  0  0  0  0  0  0
    3.8158   -0.4330    1.7493 C   0  0  0  0  0  0  0  0  0  0  0  0
    3.8221   -2.0164   -0.1482 C   0  0  0  0  0  0  0  0  0  0  0  0
    0.0267    1.2344   -1.1108 C   0  0  0  0  0  0  0  0  0  0  0  0
    1.3766    1.6227   -1.6846 C   0  0  0  0  0  0  0  0  0  0  0  0
   -1.0769    2.0524   -1.4564 N   0  0  0  0  0  0  0  0  0  0  0  0
   -2.1939    1.9020   -0.8896 C   0  0  0  0  0  0  0  0  0  0  0  0
   -3.3762    2.7735   -1.2869 C   0  0  0  0  0  0  0  0  0  0  0  0
   -1.8378   -1.4195   -0.3166 C   0  0  0  0  0  0  0  0  0  0  0  0
   -2.3295   -1.3610   -1.6197 C   0  0  0  0  0  0  0  0  0  0  0  0
   -2.6247   -2.5187   -2.3546 C   0  0  0  0  0  0  0  0  0  0  0  0
   -2.4266   -3.7397   -1.7804 C   0  0  0  0  0  0  0  0  0  0  0  0
   -1.9431   -3.8443   -0.4886 C   0  0  0  0  0  0  0  0  0  0  0  0
   -1.6661   -2.6719    0.2057 C   0  0  0  0  0  0  0  0  0  0  0  0
   -1.2995   -2.9163    1.9196 Cl  0  0  0  0  0  0  0  0  0  0  0  0
   -2.9673    2.6815    3.7302 H   0  0  0  0  0  0  0  0  0  0  0  0
   -1.1761    2.5273    4.1566 H   0  0  0  0  0  0  0  0  0  0  0  0
   -1.8353    3.9578    3.2197 H   0  0  0  0  0  0  0  0  0  0  0  0
   -3.3961    0.4063   -0.1244 H   0  0  0  0  0  0  0  0  0  0  0  0
   -1.2220   -0.3619    1.4066 H   0  0  0  0  0  0  0  0  0  0  0  0
    5.7551    0.0824    0.1602 H   0  0  0  0  0  0  0  0  0  0  0  0
    4.9436   -0.1284   -1.4846 H   0  0  0  0  0  0  0  0  0  0  0  0
    4.5354    1.2690   -0.4562 H   0  0  0  0  0  0  0  0  0  0  0  0
    3.0026    0.2206    2.1490 H   0  0  0  0  0  0  0  0  0  0  0  0
    4.7810    0.0086    2.0478 H   0  0  0  0  0  0  0  0  0  0  0  0
    3.7104   -1.4476    2.2083 H   0  0  0  0  0  0  0  0  0  0  0  0
    2.9855   -2.6522    0.1663 H   0  0  0  0  0  0  0  0  0  0  0  0
    4.0209   -2.0690   -1.2425 H   0  0  0  0  0  0  0  0  0  0  0  0
    4.7136   -2.3973    0.3821 H   0  0  0  0  0  0  0  0  0  0  0  0
    1.8775    0.7922   -2.1861 H   0  0  0  0  0  0  0  0  0  0  0  0
    1.9358    2.1043   -0.8771 H   0  0  0  0  0  0  0  0  0  0  0  0
    1.1821    2.4372   -2.4757 H   0  0  0  0  0  0  0  0  0  0  0  0
   -3.9112    2.9718   -0.3515 H   0  0  0  0  0  0  0  0  0  0  0  0
   -3.0055    3.7289   -1.6959 H   0  0  0  0  0  0  0  0  0  0  0  0
   -3.9705    2.1906   -1.9937 H   0  0  0  0  0  0  0  0  0  0  0  0
   -2.5015   -0.4185   -2.0799 H   0  0  0  0  0  0  0  0  0  0  0  0
   -3.0045   -2.3682   -3.3711 H   0  0  0  0  0  0  0  0  0  0  0  0
   -2.6447   -4.6406   -2.3471 H   0  0  0  0  0  0  0  0  0  0  0  0
   -1.7789   -4.8028   -0.0255 H   0  0  0  0  0  0  0  0  0  0  0  0
  1  2  1  0
  2  3  1  0
  3  4  2  0
  3  5  1  0
  5  6  1  0
  6  7  1  0
  7  8  1  0
  8  9  2  0
  8 10  1  0
 10 11  1  0
 11 12  1  0
 11 13  1  0
 11 14  1  0
  7 15  2  0
 15 16  1  0
 15 17  1  0
 17 18  2  0
 18 19  1  0
  6 20  1  0
 20 21  2  0
 21 22  1  0
 22 23  2  0
 23 24  1  0
 24 25  2  0
 25 26  1  0
 18  5  1  0
 25 20  1  0
  1 27  1  0
  1 28  1  0
  1 29  1  0
  5 30  1  0
  6 31  1  0
 12 32  1  0
 12 33  1  0
 12 34  1  0
 13 35  1  0
 13 36  1  0
 13 37  1  0
 14 38  1  0
 14 39  1  0
 14 40  1  0
 16 41  1  0
 16 42  1  0
 16 43  1  0
 19 44  1  0
 19 45  1  0
 19 46  1  0
 21 47  1  0
 22 48  1  0
 23 49  1  0
 24 50  1  0
M  END
$$$$
[H]OC(=O)c1c([H])c([H])c(-c2c([H])c([H])c(N(C([H])([H])[H])C([H])([H])[H])c(C#N)c2[H])c(C#N)c1[H]
     RDKit          3D

 35 36  0  0  0  0  0  0  0  0999 V2000
   -4.5976   -1.1519    0.7265 C   0  0  0  0  0  0  0  0  0  0  0  0
   -3.9455    0.0146    0.0882 N   0  0  0  0  0  0  0  0  0  0  0  0
   -4.8524    0.9771   -0.4696 C   0  0  0  0  0  0  0  0  0  0  0  0
   -2.5378    0.0195    0.0626 C   0  0  0  0  0  0  0  0  0  0  0  0
   -1.8631   -1.2162    0.1628 C   0  0  0  0  0  0  0  0  0  0  0  0
   -0.4985   -1.2931    0.1090 C   0  0  0  0  0  0  0  0  0  0  0  0
    0.2190   -0.1274   -0.0468 C   0  0  0  0  0  0  0  0  0  0  0  0
   -0.4368    1.0796   -0.1446 C   0  0  0  0  0  0  0  0  0  0  0  0
   -1.8347    1.1792   -0.0911 C   0  0  0  0  0  0  0  0  0  0  0  0
   -2.4304    2.4952   -0.1709 C   0  0  0  0  0  0  0  0  0  0  0  0
   -2.8771    3.5511   -0.2199 N   0  0  0  0  0  0  0  0  0  0  0  0
    1.6717   -0.0772   -0.1094 C   0  0  0  0  0  0  0  0  0  0  0  0
    2.2344    0.6308   -1.1487 C   0  0  0  0  0  0  0  0  0  0  0  0
    3.6060    0.7332   -1.3098 C   0  0  0  0  0  0  0  0  0  0  0  0
    4.4653    0.1231   -0.4254 C   0  0  0  0  0  0  0  0  0  0  0  0
    3.8829   -0.5802    0.6077 C   0  0  0  0  0  0  0  0  0  0  0  0
    2.5187   -0.6916    0.7822 C   0  0  0  0  0  0  0  0  0  0  0  0
    1.9708   -1.4214    1.8754 C   0  0  0  0  0  0  0  0  0  0  0  0
    1.5336   -2.0047    2.7852 N   0  0  0  0  0  0  0  0  0  0  0  0
    5.9197    0.2091   -0.5635 C   0  0  0  0  0  0  0  0  0  0  0  0
    6.7615   -0.4128    0.3383 O   0  0  0  0  0  0  0  0  0  0  0  0
    6.4052    0.8599   -1.5190 O   0  0  0  0  0  0  0  0  0  0  0  0
   -4.8247   -1.8876   -0.0582 H   0  0  0  0  0  0  0  0  0  0  0  0
   -3.9105   -1.5306    1.5138 H   0  0  0  0  0  0  0  0  0  0  0  0
   -5.5289   -0.7651    1.1834 H   0  0  0  0  0  0  0  0  0  0  0  0
   -5.8517    0.4643   -0.7136 H   0  0  0  0  0  0  0  0  0  0  0  0
   -4.5278    1.4354   -1.4169 H   0  0  0  0  0  0  0  0  0  0  0  0
   -5.1292    1.7227    0.2700 H   0  0  0  0  0  0  0  0  0  0  0  0
   -2.4248   -2.1300    0.2826 H   0  0  0  0  0  0  0  0  0  0  0  0
    0.0381   -2.2434    0.1790 H   0  0  0  0  0  0  0  0  0  0  0  0
    0.1156    2.0202   -0.2695 H   0  0  0  0  0  0  0  0  0  0  0  0
    1.6010    1.1329   -1.8773 H   0  0  0  0  0  0  0  0  0  0  0  0
    4.0461    1.2948   -2.1341 H   0  0  0  0  0  0  0  0  0  0  0  0
    4.5570   -1.0732    1.3226 H   0  0  0  0  0  0  0  0  0  0  0  0
    6.5249   -1.3362    0.6981 H   0  0  0  0  0  0  0  0  0  0  0  0
  1  2  1  0
  2  3  1  0
  2  4  1  0
  4  5  2  0
  5  6  1  0
  6  7  2  0
  7  8  1  0
  8  9  2  0
  9 10  1  0
 10 11  3  0
  7 12  1  0
 12 13  2  0
 13 14  1  0
 14 15  2  0
 15 16  1  0
 16 17  2  0
 17 18  1  0
 18 19  3  0
 15 20  1  0
 20 21  1  0
 20 22  2  0
  9  4  1  0
 17 12  1  0
  1 23  1  0
  1 24  1  0
  1 25  1  0
  3 26  1  0
  3 27  1  0
  3 28  1  0
  5 29  1  0
  6 30  1  0
  8 31  1  0
 13 32  1  0
 14 33  1  0
 16 34  1  0
 21 35  1  0
M  END
$$$$
[H]c1c([H])c([H])c(C([H])([H])[C@@]([H])(C(=O)N([H])[H])N([H])C(=O)[C@@]([H])(N([H])C(=O)[C@@]([H])(N([H])C(=O)[C@@]2([H])N(C(=O)[C@@]([H])(N([H])[H])C([H])([H])c3c([H])n([H])c4c([H])c([H])c([H])c([H])c34)C([H])([H])C([H])([H])C2([H])[H])C([H])([H])c2c([H])c([H])c([H])c([H])c2[H])C([H])([H])C([H])(C([H])([H])[H])C([H])([H])[H])c([H])c1[H]
     RDKit          3D

101105  0  0  0  0  0  0  0  0999 V2000
   -5.7761   -2.0499   -2.3156 C   0  0  0  0  0  0  0  0  0  0  0  0
   -4.6675   -1.2294   -2.8716 C   0  0  0  0  0  0  0  0  0  0  0  0
   -5.0493   -0.9125   -4.3326 C   0  0  0  0  0  0  0  0  0  0  0  0
   -4.3898    0.0718   -2.2347 C   0  0  0  0  0  0  0  0  0  0  0  0
   -4.0032    0.0928   -0.7984 C   0  0  2  0  0  0  0  0  0  0  0  0
   -2.8044   -0.6683   -0.5231 N   0  0  0  0  0  0  0  0  0  0  0  0
   -1.5522   -0.0128   -0.4650 C   0  0  0  0  0  0  0  0  0  0  0  0
   -1.4804    1.2472   -0.6769 O   0  0  0  0  0  0  0  0  0  0  0  0
   -0.2618   -0.7350   -0.1586 C   0  0  2  0  0  0  0  0  0  0  0  0
   -0.1180   -0.8655    1.3335 C   0  0  0  0  0  0  0  0  0  0  0  0
    1.0842   -1.5719    1.8015 C   0  0  0  0  0  0  0  0  0  0  0  0
    1.0632   -2.9703    1.9104 C   0  0  0  0  0  0  0  0  0  0  0  0
    2.0869   -3.7323    2.3598 C   0  0  0  0  0  0  0  0  0  0  0  0
    3.2624   -3.1065    2.7497 C   0  0  0  0  0  0  0  0  0  0  0  0
    3.3358   -1.7309    2.6616 C   0  0  0  0  0  0  0  0  0  0  0  0
    2.2636   -0.9856    2.1957 C   0  0  0  0  0  0  0  0  0  0  0  0
    0.8249   -0.0471   -0.8160 N   0  0  0  0  0  0  0  0  0  0  0  0
    1.7939   -0.7440   -1.6158 C   0  0  0  0  0  0  0  0  0  0  0  0
    1.6967   -2.0168   -1.6949 O   0  0  0  0  0  0  0  0  0  0  0  0
    2.8651   -0.1084   -2.3455 C   0  0  2  0  0  0  0  0  0  0  0  0
    3.0817   -0.7450   -3.7223 C   0  0  0  0  0  0  0  0  0  0  0  0
    3.8878   -1.9752   -3.3877 C   0  0  0  0  0  0  0  0  0  0  0  0
    4.5340   -1.6732   -2.0252 C   0  0  0  0  0  0  0  0  0  0  0  0
    4.1573   -0.3072   -1.7775 N   0  0  0  0  0  0  0  0  0  0  0  0
    4.9269    0.6749   -1.1255 C   0  0  0  0  0  0  0  0  0  0  0  0
    4.4411    1.8564   -0.9924 O   0  0  0  0  0  0  0  0  0  0  0  0
    6.2858    0.4892   -0.5609 C   0  0  1  0  0  0  0  0  0  0  0  0
    6.8414    1.7247   -0.1008 N   0  0  0  0  0  0  0  0  0  0  0  0
    6.3273   -0.5330    0.5484 C   0  0  0  0  0  0  0  0  0  0  0  0
    7.7130   -0.6442    1.0512 C   0  0  0  0  0  0  0  0  0  0  0  0
    8.6653   -1.5441    0.5787 C   0  0  0  0  0  0  0  0  0  0  0  0
    9.8255   -1.3297    1.2193 N   0  0  0  0  0  0  0  0  0  0  0  0
    9.6900   -0.3189    2.1067 C   0  0  0  0  0  0  0  0  0  0  0  0
   10.5763    0.2622    2.9962 C   0  0  0  0  0  0  0  0  0  0  0  0
   10.1918    1.2792    3.8107 C   0  0  0  0  0  0  0  0  0  0  0  0
    8.8822    1.7191    3.7259 C   0  0  0  0  0  0  0  0  0  0  0  0
    8.0059    1.1344    2.8364 C   0  0  0  0  0  0  0  0  0  0  0  0
    8.3650    0.1073    1.9994 C   0  0  0  0  0  0  0  0  0  0  0  0
   -5.1173   -0.1973    0.1267 C   0  0  0  0  0  0  0  0  0  0  0  0
   -5.0296   -1.1192    1.0122 O   0  0  0  0  0  0  0  0  0  0  0  0
   -6.3019    0.5750    0.0191 N   0  0  0  0  0  0  0  0  0  0  0  0
   -7.4306    0.3372    0.8951 C   0  0  1  0  0  0  0  0  0  0  0  0
   -7.4694    1.4425    1.9547 C   0  0  0  0  0  0  0  0  0  0  0  0
   -7.5822    2.7924    1.3955 C   0  0  0  0  0  0  0  0  0  0  0  0
   -8.7678    3.4319    1.1633 C   0  0  0  0  0  0  0  0  0  0  0  0
   -8.7991    4.7254    0.6302 C   0  0  0  0  0  0  0  0  0  0  0  0
   -7.6186    5.3660    0.3343 C   0  0  0  0  0  0  0  0  0  0  0  0
   -6.4337    4.7358    0.5629 C   0  0  0  0  0  0  0  0  0  0  0  0
   -6.4031    3.4637    1.0870 C   0  0  0  0  0  0  0  0  0  0  0  0
   -8.7241    0.2914    0.2029 C   0  0  0  0  0  0  0  0  0  0  0  0
   -9.9764    0.0456    0.8098 N   0  0  0  0  0  0  0  0  0  0  0  0
   -8.7556    0.4862   -1.0651 O   0  0  0  0  0  0  0  0  0  0  0  0
   -5.9924   -2.8534   -3.0921 H   0  0  0  0  0  0  0  0  0  0  0  0
   -5.5785   -2.5943   -1.3967 H   0  0  0  0  0  0  0  0  0  0  0  0
   -6.6928   -1.4359   -2.2160 H   0  0  0  0  0  0  0  0  0  0  0  0
   -3.7330   -1.8628   -2.9981 H   0  0  0  0  0  0  0  0  0  0  0  0
   -4.7804   -1.7280   -5.0178 H   0  0  0  0  0  0  0  0  0  0  0  0
   -4.5445    0.0255   -4.6656 H   0  0  0  0  0  0  0  0  0  0  0  0
   -6.1607   -0.7622   -4.4123 H   0  0  0  0  0  0  0  0  0  0  0  0
   -5.2764    0.7396   -2.4185 H   0  0  0  0  0  0  0  0  0  0  0  0
   -3.5751    0.5623   -2.8429 H   0  0  0  0  0  0  0  0  0  0  0  0
   -3.7175    1.1824   -0.6017 H   0  0  0  0  0  0  0  0  0  0  0  0
   -2.8401   -1.6962   -0.3660 H   0  0  0  0  0  0  0  0  0  0  0  0
   -0.3524   -1.7533   -0.5558 H   0  0  0  0  0  0  0  0  0  0  0  0
   -0.1254    0.1199    1.8503 H   0  0  0  0  0  0  0  0  0  0  0  0
   -1.0072   -1.4537    1.6887 H   0  0  0  0  0  0  0  0  0  0  0  0
    0.1468   -3.4693    1.6059 H   0  0  0  0  0  0  0  0  0  0  0  0
    2.0651   -4.8096    2.4410 H   0  0  0  0  0  0  0  0  0  0  0  0
    4.0821   -3.7160    3.1090 H   0  0  0  0  0  0  0  0  0  0  0  0
    4.2672   -1.2775    2.9763 H   0  0  0  0  0  0  0  0  0  0  0  0
    2.3618    0.0749    2.1433 H   0  0  0  0  0  0  0  0  0  0  0  0
    0.9447    0.9801   -0.7345 H   0  0  0  0  0  0  0  0  0  0  0  0
    2.6273    0.9774   -2.4593 H   0  0  0  0  0  0  0  0  0  0  0  0
    3.6974   -0.0225   -4.2956 H   0  0  0  0  0  0  0  0  0  0  0  0
    2.1634   -0.9258   -4.2735 H   0  0  0  0  0  0  0  0  0  0  0  0
    4.7344   -2.1470   -4.1144 H   0  0  0  0  0  0  0  0  0  0  0  0
    3.3254   -2.8977   -3.2939 H   0  0  0  0  0  0  0  0  0  0  0  0
    4.0835   -2.3086   -1.2367 H   0  0  0  0  0  0  0  0  0  0  0  0
    5.6386   -1.8012   -2.0968 H   0  0  0  0  0  0  0  0  0  0  0  0
    6.9557    0.0423   -1.3699 H   0  0  0  0  0  0  0  0  0  0  0  0
    6.0779    2.4203    0.1411 H   0  0  0  0  0  0  0  0  0  0  0  0
    7.5514    2.1463   -0.7298 H   0  0  0  0  0  0  0  0  0  0  0  0
    5.9619   -1.5358    0.2469 H   0  0  0  0  0  0  0  0  0  0  0  0
    5.7305   -0.1676    1.4330 H   0  0  0  0  0  0  0  0  0  0  0  0
    8.5256   -2.3096   -0.1843 H   0  0  0  0  0  0  0  0  0  0  0  0
   10.7339   -1.8280    1.1022 H   0  0  0  0  0  0  0  0  0  0  0  0
   11.6149   -0.1020    3.0495 H   0  0  0  0  0  0  0  0  0  0  0  0
   10.8590    1.7617    4.5181 H   0  0  0  0  0  0  0  0  0  0  0  0
    8.5685    2.5286    4.3738 H   0  0  0  0  0  0  0  0  0  0  0  0
    6.9741    1.4832    2.8041 H   0  0  0  0  0  0  0  0  0  0  0  0
   -6.4035    1.3313   -0.6864 H   0  0  0  0  0  0  0  0  0  0  0  0
   -7.2975   -0.6275    1.4589 H   0  0  0  0  0  0  0  0  0  0  0  0
   -8.3288    1.2564    2.6456 H   0  0  0  0  0  0  0  0  0  0  0  0
   -6.5516    1.2868    2.5856 H   0  0  0  0  0  0  0  0  0  0  0  0
   -9.7169    2.9730    1.3839 H   0  0  0  0  0  0  0  0  0  0  0  0
   -9.7384    5.2069    0.4555 H   0  0  0  0  0  0  0  0  0  0  0  0
   -7.6094    6.3816   -0.0855 H   0  0  0  0  0  0  0  0  0  0  0  0
   -5.5015    5.2318    0.3336 H   0  0  0  0  0  0  0  0  0  0  0  0
   -5.4585    2.9927    1.2566 H   0  0  0  0  0  0  0  0  0  0  0  0
  -10.7814    0.7243    0.6929 H   0  0  0  0  0  0  0  0  0  0  0  0
  -10.0900   -0.8217    1.3757 H   0  0  0  0  0  0  0  0  0  0  0  0
  1  2  1  0
  2  3  1  0
  2  4  1  0
  4  5  1  0
  5  6  1  0
  6  7  1  0
  7  8  2  0
  7  9  1  0
  9 10  1  0
 10 11  1  0
 11 12  2  0
 12 13  1  0
 13 14  2  0
 14 15  1  0
 15 16  2  0
  9 17  1  0
 17 18  1  0
 18 19  2  0
 18 20  1  0
 20 21  1  0
 21 22  1  0
 22 23  1  0
 23 24  1  0
 24 25  1  0
 25 26  2  0
 25 27  1  0
 27 28  1  0
 27 29  1  0
 29 30  1  0
 30 31  2  0
 31 32  1  0
 32 33  1  0
 33 34  2  0
 34 35  1  0
 35 36  2  0
 36 37  1  0
 37 38  2  0
  5 39  1  0
 39 40  2  0
 39 41  1  0
 41 42  1  0
 42 43  1  0
 43 44  1  0
 44 45  2  0
 45 46  1  0
 46 47  2  0
 47 48  1  0
 48 49  2  0
 42 50  1  0
 50 51  1  0
 50 52  2  0
 16 11  1  0
 24 20  1  0
 38 30  1  0
 49 44  1  0
 38 33  1  0
  1 53  1  0
  1 54  1  0
  1 55  1  0
  2 56  1  0
  3 57  1  0
  3 58  1  0
  3 59  1  0
  4 60  1  0
  4 61  1  0
  5 62  1  1
  6 63  1  0
  9 64  1  6
 10 65  1  0
 10 66  1  0
 12 67  1  0
 13 68  1  0
 14 69  1  0
 15 70  1  0
 16 71  1  0
 17 72  1  0
 20 73  1  6
 21 74  1  0
 21 75  1  0
 22 76  1  0
 22 77  1  0
 23 78  1  0
 23 79  1  0
 27 80  1  6
 28 81  1  0
 28 82  1  0
 29 83  1  0
 29 84  1  0
 31 85  1  0
 32 86  1  0
 34 87  1  0
 35 88  1  0
 36 89  1  0
 37 90  1  0
 41 91  1  0
 42 92  1  1
 43 93  1  0
 43 94  1  0
 45 95  1  0
 46 96  1  0
 47 97  1  0
 48 98  1  0
 49 99  1  0
 51100  1  0
 51101  1  0
M  END
$$$$
[H]c1c([H])c(Cl)c([H])c(N2C([H])([H])N([H])C(=O)C23C([H])([H])C([H])([H])N(C(=O)c2c([H])c([H])c(-c4c([H])c([H])c(F)c([H])c4[H])c([H])c2[H])C([H])([H])C3([H])[H])c1[H]
     RDKit          3D

 56 60  0  0  0  0  0  0  0  0999 V2000
    9.9911   -1.2095    0.5774 F   0  0  0  0  0  0  0  0  0  0  0  0
    8.6957   -0.7978    0.4555 C   0  0  0  0  0  0  0  0  0  0  0  0
    7.6403   -1.5846    0.8576 C   0  0  0  0  0  0  0  0  0  0  0  0
    6.3457   -1.1373    0.7199 C   0  0  0  0  0  0  0  0  0  0  0  0
    6.0941    0.1024    0.1781 C   0  0  0  0  0  0  0  0  0  0  0  0
    7.1546    0.8972   -0.2278 C   0  0  0  0  0  0  0  0  0  0  0  0
    8.4506    0.4360   -0.0839 C   0  0  0  0  0  0  0  0  0  0  0  0
    4.7363    0.5763    0.0314 C   0  0  0  0  0  0  0  0  0  0  0  0
    4.4203    1.9091    0.1109 C   0  0  0  0  0  0  0  0  0  0  0  0
    3.1027    2.3131   -0.0380 C   0  0  0  0  0  0  0  0  0  0  0  0
    2.0697    1.4160   -0.2679 C   0  0  0  0  0  0  0  0  0  0  0  0
    2.3862    0.1000   -0.3441 C   0  0  0  0  0  0  0  0  0  0  0  0
    3.7185   -0.3074   -0.1942 C   0  0  0  0  0  0  0  0  0  0  0  0
    0.7279    1.9052   -0.3571 C   0  0  0  0  0  0  0  0  0  0  0  0
    0.6082    3.1468    0.0374 O   0  0  0  0  0  0  0  0  0  0  0  0
   -0.4606    1.3165   -0.7801 N   0  0  0  0  0  0  0  0  0  0  0  0
   -0.7556    0.0429   -1.3373 C   0  0  0  0  0  0  0  0  0  0  0  0
   -1.5365   -0.8292   -0.3964 C   0  0  0  0  0  0  0  0  0  0  0  0
   -2.6008    0.0131    0.3091 C   0  0  0  0  0  0  0  0  0  0  0  0
   -2.8980    1.2449   -0.4318 C   0  0  0  0  0  0  0  0  0  0  0  0
   -1.6961    2.1456   -0.5634 C   0  0  0  0  0  0  0  0  0  0  0  0
   -3.7201   -0.8510    0.6153 N   0  0  0  0  0  0  0  0  0  0  0  0
   -3.0862   -1.9058    1.4401 C   0  0  0  0  0  0  0  0  0  0  0  0
   -2.1903   -1.0842    2.2736 N   0  0  0  0  0  0  0  0  0  0  0  0
   -2.0758    0.2143    1.6963 C   0  0  0  0  0  0  0  0  0  0  0  0
   -1.6337    1.2128    2.2853 O   0  0  0  0  0  0  0  0  0  0  0  0
   -5.0852   -0.8621    0.3340 C   0  0  0  0  0  0  0  0  0  0  0  0
   -5.6205   -2.0472   -0.2003 C   0  0  0  0  0  0  0  0  0  0  0  0
   -6.9613   -2.1684   -0.4902 C   0  0  0  0  0  0  0  0  0  0  0  0
   -7.8362   -1.1229   -0.2652 C   0  0  0  0  0  0  0  0  0  0  0  0
   -7.3127    0.0353    0.2575 C   0  0  0  0  0  0  0  0  0  0  0  0
   -8.4250    1.3750    0.5474 Cl  0  0  0  0  0  0  0  0  0  0  0  0
   -5.9554    0.1720    0.5565 C   0  0  0  0  0  0  0  0  0  0  0  0
    7.8180   -2.5616    1.2856 H   0  0  0  0  0  0  0  0  0  0  0  0
    5.5253   -1.7519    1.0338 H   0  0  0  0  0  0  0  0  0  0  0  0
    6.9627    1.8693   -0.6529 H   0  0  0  0  0  0  0  0  0  0  0  0
    9.2506    1.0890   -0.4140 H   0  0  0  0  0  0  0  0  0  0  0  0
    5.2225    2.6049    0.2894 H   0  0  0  0  0  0  0  0  0  0  0  0
    2.9573    3.3918    0.0413 H   0  0  0  0  0  0  0  0  0  0  0  0
    1.6540   -0.7079   -0.4874 H   0  0  0  0  0  0  0  0  0  0  0  0
    3.9469   -1.3656   -0.2605 H   0  0  0  0  0  0  0  0  0  0  0  0
   -1.5201    0.2687   -2.1858 H   0  0  0  0  0  0  0  0  0  0  0  0
    0.0677   -0.4119   -1.8492 H   0  0  0  0  0  0  0  0  0  0  0  0
   -2.0550   -1.6409   -0.9635 H   0  0  0  0  0  0  0  0  0  0  0  0
   -0.8418   -1.3131    0.3047 H   0  0  0  0  0  0  0  0  0  0  0  0
   -3.7262    1.8556   -0.0047 H   0  0  0  0  0  0  0  0  0  0  0  0
   -3.2324    0.9721   -1.4565 H   0  0  0  0  0  0  0  0  0  0  0  0
   -1.7760    2.7675   -1.4726 H   0  0  0  0  0  0  0  0  0  0  0  0
   -1.5484    2.8137    0.2992 H   0  0  0  0  0  0  0  0  0  0  0  0
   -3.8123   -2.4475    2.0423 H   0  0  0  0  0  0  0  0  0  0  0  0
   -2.5320   -2.5777    0.7687 H   0  0  0  0  0  0  0  0  0  0  0  0
   -1.7422   -1.4653    3.1444 H   0  0  0  0  0  0  0  0  0  0  0  0
   -4.9885   -2.9070   -0.4013 H   0  0  0  0  0  0  0  0  0  0  0  0
   -7.3920   -3.0759   -0.9031 H   0  0  0  0  0  0  0  0  0  0  0  0
   -8.8935   -1.1888   -0.4834 H   0  0  0  0  0  0  0  0  0  0  0  0
   -5.6366    1.1152    0.9809 H   0  0  0  0  0  0  0  0  0  0  0  0
  1  2  1  0
  2  3  2  0
  3  4  1  0
  4  5  2  0
  5  6  1  0
  6  7  2  0
  5  8  1  0
  8  9  2  0
  9 10  1  0
 10 11  2  0
 11 12  1  0
 12 13  2  0
 11 14  1  0
 14 15  2  0
 14 16  1  0
 16 17  1  0
 17 18  1  0
 18 19  1  0
 19 20  1  0
 20 21  1  0
 19 22  1  0
 22 23  1  0
 23 24  1  0
 24 25  1  0
 25 26  2  0
 22 27  1  0
 27 28  2  0
 28 29  1  0
 29 30  2  0
 30 31  1  0
 31 32  1  0
 31 33  2  0
  7  2  1  0
 13  8  1  0
 21 16  1  0
 33 27  1  0
 25 19  1  0
  3 34  1  0
  4 35  1  0
  6 36  1  0
  7 37  1  0
  9 38  1  0
 10 39  1  0
 12 40  1  0
 13 41  1  0
 17 42  1  0
 17 43  1  0
 18 44  1  0
 18 45  1  0
 20 46  1  0
 20 47  1  0
 21 48  1  0
 21 49  1  0
 23 50  1  0
 23 51  1  0
 24 52  1  0
 28 53  1  0
 29 54  1  0
 30 55  1  0
 33 56  1  0
M  END
$$$$
[H]c1nc2c([H])c(OC([H])([H])C([H])([H])C([H])([H])N3C([H])([H])C([H])([H])N(C([H])([H])[H])C([H])([H])C3([H])[H])c(OC([H])([H])[H])c([H])c2c(N([H])c2c([H])c(OC([H])([H])[H])c(Cl)c([H])c2Cl)c1C#N
     RDKit          3D

 65 68  0  0  0  0  0  0  0  0999 V2000
   -5.2946    0.1799   -2.9709 C   0  0  0  0  0  0  0  0  0  0  0  0
   -6.0951   -0.9158   -2.5530 O   0  0  0  0  0  0  0  0  0  0  0  0
   -6.1608   -1.1576   -1.1778 C   0  0  0  0  0  0  0  0  0  0  0  0
   -5.4971   -0.3938   -0.2509 C   0  0  0  0  0  0  0  0  0  0  0  0
   -5.5371   -0.6002    1.1107 C   0  0  0  0  0  0  0  0  0  0  0  0
   -4.8166    0.2382    2.0340 N   0  0  0  0  0  0  0  0  0  0  0  0
   -4.0248    1.3195    1.6049 C   0  0  0  0  0  0  0  0  0  0  0  0
   -4.6352    2.5531    1.4917 C   0  0  0  0  0  0  0  0  0  0  0  0
   -3.8290    3.6094    1.0643 C   0  0  0  0  0  0  0  0  0  0  0  0
   -2.5270    3.4300    0.7791 N   0  0  0  0  0  0  0  0  0  0  0  0
   -1.9535    2.2186    0.8968 C   0  0  0  0  0  0  0  0  0  0  0  0
   -0.6053    1.9975    0.6091 C   0  0  0  0  0  0  0  0  0  0  0  0
   -0.0254    0.7512    0.7328 C   0  0  0  0  0  0  0  0  0  0  0  0
    1.3282    0.5594    0.4376 O   0  0  0  0  0  0  0  0  0  0  0  0
    2.1607    1.6065    0.0051 C   0  0  0  0  0  0  0  0  0  0  0  0
    3.5417    1.0243   -0.2125 C   0  0  0  0  0  0  0  0  0  0  0  0
    3.4226   -0.0554   -1.2622 C   0  0  0  0  0  0  0  0  0  0  0  0
    4.6627   -0.6900   -1.5641 N   0  0  0  0  0  0  0  0  0  0  0  0
    5.1982   -1.4923   -0.4904 C   0  0  0  0  0  0  0  0  0  0  0  0
    6.5388   -0.9813   -0.0123 C   0  0  0  0  0  0  0  0  0  0  0  0
    7.5161   -0.9508   -1.0794 N   0  0  0  0  0  0  0  0  0  0  0  0
    8.4297    0.1509   -0.7994 C   0  0  0  0  0  0  0  0  0  0  0  0
    6.9128   -0.6710   -2.3660 C   0  0  0  0  0  0  0  0  0  0  0  0
    5.6339    0.1418   -2.1961 C   0  0  0  0  0  0  0  0  0  0  0  0
   -0.7837   -0.3247    1.1524 C   0  0  0  0  0  0  0  0  0  0  0  0
   -0.1660   -1.5451    1.2609 O   0  0  0  0  0  0  0  0  0  0  0  0
   -0.8182   -2.7273    1.6769 C   0  0  0  0  0  0  0  0  0  0  0  0
   -2.1295   -0.1321    1.4455 C   0  0  0  0  0  0  0  0  0  0  0  0
   -2.6832    1.1246    1.3132 C   0  0  0  0  0  0  0  0  0  0  0  0
   -6.0331    2.7467    1.7978 C   0  0  0  0  0  0  0  0  0  0  0  0
   -7.1560    2.8867    2.0549 N   0  0  0  0  0  0  0  0  0  0  0  0
   -6.3055   -1.6561    1.5519 C   0  0  0  0  0  0  0  0  0  0  0  0
   -6.4410   -2.0259    3.2478 Cl  0  0  0  0  0  0  0  0  0  0  0  0
   -7.0004   -2.4646    0.6587 C   0  0  0  0  0  0  0  0  0  0  0  0
   -6.9278   -2.2166   -0.6919 C   0  0  0  0  0  0  0  0  0  0  0  0
   -7.7733   -3.1886   -1.8765 Cl  0  0  0  0  0  0  0  0  0  0  0  0
   -5.4136    0.3597   -4.0746 H   0  0  0  0  0  0  0  0  0  0  0  0
   -4.2180   -0.0377   -2.8166 H   0  0  0  0  0  0  0  0  0  0  0  0
   -5.5182    1.1093   -2.4102 H   0  0  0  0  0  0  0  0  0  0  0  0
   -4.8824    0.4495   -0.5886 H   0  0  0  0  0  0  0  0  0  0  0  0
   -4.9019    0.0142    3.0487 H   0  0  0  0  0  0  0  0  0  0  0  0
   -4.3295    4.5717    0.9823 H   0  0  0  0  0  0  0  0  0  0  0  0
   -0.0170    2.8280    0.2846 H   0  0  0  0  0  0  0  0  0  0  0  0
    1.7778    1.9385   -1.0008 H   0  0  0  0  0  0  0  0  0  0  0  0
    2.1821    2.4558    0.7154 H   0  0  0  0  0  0  0  0  0  0  0  0
    4.2210    1.8377   -0.5139 H   0  0  0  0  0  0  0  0  0  0  0  0
    3.9285    0.6049    0.7361 H   0  0  0  0  0  0  0  0  0  0  0  0
    2.9821    0.3266   -2.1992 H   0  0  0  0  0  0  0  0  0  0  0  0
    2.7315   -0.8214   -0.8541 H   0  0  0  0  0  0  0  0  0  0  0  0
    5.2338   -2.5366   -0.8312 H   0  0  0  0  0  0  0  0  0  0  0  0
    4.5037   -1.4099    0.3697 H   0  0  0  0  0  0  0  0  0  0  0  0
    6.3881   -0.0055    0.4627 H   0  0  0  0  0  0  0  0  0  0  0  0
    6.9097   -1.6815    0.7631 H   0  0  0  0  0  0  0  0  0  0  0  0
    7.9186    0.8915   -0.1786 H   0  0  0  0  0  0  0  0  0  0  0  0
    9.2446   -0.2873   -0.1540 H   0  0  0  0  0  0  0  0  0  0  0  0
    8.8635    0.5756   -1.7319 H   0  0  0  0  0  0  0  0  0  0  0  0
    7.6268   -0.0558   -2.9818 H   0  0  0  0  0  0  0  0  0  0  0  0
    6.6852   -1.5665   -2.9435 H   0  0  0  0  0  0  0  0  0  0  0  0
    5.9066    1.0433   -1.6186 H   0  0  0  0  0  0  0  0  0  0  0  0
    5.2600    0.4179   -3.1952 H   0  0  0  0  0  0  0  0  0  0  0  0
   -1.6281   -3.0342    0.9852 H   0  0  0  0  0  0  0  0  0  0  0  0
   -0.0534   -3.5288    1.7326 H   0  0  0  0  0  0  0  0  0  0  0  0
   -1.1857   -2.5572    2.7031 H   0  0  0  0  0  0  0  0  0  0  0  0
   -2.7370   -0.9576    1.7739 H   0  0  0  0  0  0  0  0  0  0  0  0
   -7.6050   -3.2933    0.9881 H   0  0  0  0  0  0  0  0  0  0  0  0
  1  2  1  0
  2  3  1  0
  3  4  2  0
  4  5  1  0
  5  6  1  0
  6  7  1  0
  7  8  2  0
  8  9  1  0
  9 10  2  0
 10 11  1  0
 11 12  2  0
 12 13  1  0
 13 14  1  0
 14 15  1  0
 15 16  1  0
 16 17  1  0
 17 18  1  0
 18 19  1  0
 19 20  1  0
 20 21  1  0
 21 22  1  0
 21 23  1  0
 23 24  1  0
 13 25  2  0
 25 26  1  0
 26 27  1  0
 25 28  1  0
 28 29  2  0
  8 30  1  0
 30 31  3  0
  5 32  2  0
 32 33  1  0
 32 34  1  0
 34 35  2  0
 35 36  1  0
 35  3  1  0
 29  7  1  0
 29 11  1  0
 24 18  1  0
  1 37  1  0
  1 38  1  0
  1 39  1  0
  4 40  1  0
  6 41  1  0
  9 42  1  0
 12 43  1  0
 15 44  1  0
 15 45  1  0
 16 46  1  0
 16 47  1  0
 17 48  1  0
 17 49  1  0
 19 50  1  0
 19 51  1  0
 20 52  1  0
 20 53  1  0
 22 54  1  0
 22 55  1  0
 22 56  1  0
 23 57  1  0
 23 58  1  0
 24 59  1  0
 24 60  1  0
 27 61  1  0
 27 62  1  0
 27 63  1  0
 28 64  1  0
 34 65  1  0
M  END
$$$$
[H]c1nc2c([H])c([H])c([H])c([H])n2c1-c1c([H])c(N([H])C(=O)c2c([H])c([H])c(C([H])([H])N3C([H])([H])C([H])([H])N(C([H])([H])[H])C([H])([H])C3([H])[H])c(C(F)(F)F)c2[H])c([H])c([H])c1C([H])([H])[H]
     RDKit          3D

 65 69  0  0  0  0  0  0  0  0999 V2000
    8.9739    0.3589   -1.0819 C   0  0  0  0  0  0  0  0  0  0  0  0
    7.5959    0.2892   -0.5907 N   0  0  0  0  0  0  0  0  0  0  0  0
    7.5975   -0.4572    0.6592 C   0  0  0  0  0  0  0  0  0  0  0  0
    6.8275    0.3100    1.6894 C   0  0  0  0  0  0  0  0  0  0  0  0
    5.4924    0.6758    1.2241 N   0  0  0  0  0  0  0  0  0  0  0  0
    4.8711   -0.5916    0.8227 C   0  0  0  0  0  0  0  0  0  0  0  0
    3.4214   -0.4474    0.5577 C   0  0  0  0  0  0  0  0  0  0  0  0
    2.7749    0.7528    0.7635 C   0  0  0  0  0  0  0  0  0  0  0  0
    1.4186    0.8179    0.5264 C   0  0  0  0  0  0  0  0  0  0  0  0
    0.6845   -0.2662    0.0939 C   0  0  0  0  0  0  0  0  0  0  0  0
    1.3626   -1.4313   -0.0956 C   0  0  0  0  0  0  0  0  0  0  0  0
    2.7337   -1.5726    0.1232 C   0  0  0  0  0  0  0  0  0  0  0  0
    3.3872   -2.8820   -0.1085 C   0  0  0  0  0  0  0  0  0  0  0  0
    4.3618   -2.8649   -1.0589 F   0  0  0  0  0  0  0  0  0  0  0  0
    2.4114   -3.7896   -0.5236 F   0  0  0  0  0  0  0  0  0  0  0  0
    3.8556   -3.3843    1.1041 F   0  0  0  0  0  0  0  0  0  0  0  0
   -0.7793   -0.1285   -0.1507 C   0  0  0  0  0  0  0  0  0  0  0  0
   -1.1443    1.0715   -0.2862 O   0  0  0  0  0  0  0  0  0  0  0  0
   -1.6023   -1.2614   -0.2102 N   0  0  0  0  0  0  0  0  0  0  0  0
   -3.0041   -1.2851   -0.4349 C   0  0  0  0  0  0  0  0  0  0  0  0
   -3.6388   -2.5371   -0.5768 C   0  0  0  0  0  0  0  0  0  0  0  0
   -4.9847   -2.6349   -0.7939 C   0  0  0  0  0  0  0  0  0  0  0  0
   -5.8002   -1.5002   -0.8861 C   0  0  0  0  0  0  0  0  0  0  0  0
   -7.2348   -1.7348   -1.2844 C   0  0  0  0  0  0  0  0  0  0  0  0
   -5.2244   -0.2868   -0.7491 C   0  0  0  0  0  0  0  0  0  0  0  0
   -3.8200   -0.2015   -0.5258 C   0  0  0  0  0  0  0  0  0  0  0  0
   -5.9301    0.9822   -0.6584 C   0  0  0  0  0  0  0  0  0  0  0  0
   -5.4225    2.1470   -1.2817 C   0  0  0  0  0  0  0  0  0  0  0  0
   -6.2209    3.1359   -0.9416 N   0  0  0  0  0  0  0  0  0  0  0  0
   -7.1995    2.6426   -0.1337 C   0  0  0  0  0  0  0  0  0  0  0  0
   -8.2057    3.3900    0.4551 C   0  0  0  0  0  0  0  0  0  0  0  0
   -9.0858    2.7446    1.2853 C   0  0  0  0  0  0  0  0  0  0  0  0
   -8.8780    1.4038    1.4535 C   0  0  0  0  0  0  0  0  0  0  0  0
   -7.8718    0.6881    0.8558 C   0  0  0  0  0  0  0  0  0  0  0  0
   -7.0050    1.3227    0.0316 N   0  0  0  0  0  0  0  0  0  0  0  0
    5.6333    1.5190    0.0290 C   0  0  0  0  0  0  0  0  0  0  0  0
    7.0682    1.6264   -0.3849 C   0  0  0  0  0  0  0  0  0  0  0  0
    9.1293   -0.4773   -1.7643 H   0  0  0  0  0  0  0  0  0  0  0  0
    9.0745    1.3630   -1.5712 H   0  0  0  0  0  0  0  0  0  0  0  0
    9.6343    0.2773   -0.1937 H   0  0  0  0  0  0  0  0  0  0  0  0
    8.6530   -0.5378    1.0433 H   0  0  0  0  0  0  0  0  0  0  0  0
    7.1434   -1.4486    0.5232 H   0  0  0  0  0  0  0  0  0  0  0  0
    7.4159    1.1727    2.0333 H   0  0  0  0  0  0  0  0  0  0  0  0
    6.6694   -0.3197    2.5959 H   0  0  0  0  0  0  0  0  0  0  0  0
    5.3510   -0.8623   -0.1628 H   0  0  0  0  0  0  0  0  0  0  0  0
    5.0828   -1.3229    1.6204 H   0  0  0  0  0  0  0  0  0  0  0  0
    3.3379    1.5943    1.1182 H   0  0  0  0  0  0  0  0  0  0  0  0
    0.9202    1.7570    0.6879 H   0  0  0  0  0  0  0  0  0  0  0  0
    0.8325   -2.3261   -0.4436 H   0  0  0  0  0  0  0  0  0  0  0  0
   -1.0975   -2.1919   -0.0618 H   0  0  0  0  0  0  0  0  0  0  0  0
   -3.0091   -3.4091   -0.5059 H   0  0  0  0  0  0  0  0  0  0  0  0
   -5.4812   -3.6026   -0.9040 H   0  0  0  0  0  0  0  0  0  0  0  0
   -7.8328   -2.1498   -0.4640 H   0  0  0  0  0  0  0  0  0  0  0  0
   -7.2577   -2.5550   -2.0764 H   0  0  0  0  0  0  0  0  0  0  0  0
   -7.6646   -0.8692   -1.8096 H   0  0  0  0  0  0  0  0  0  0  0  0
   -3.4005    0.7871   -0.4228 H   0  0  0  0  0  0  0  0  0  0  0  0
   -4.5290    2.1874   -1.9226 H   0  0  0  0  0  0  0  0  0  0  0  0
   -8.3023    4.4622    0.2688 H   0  0  0  0  0  0  0  0  0  0  0  0
   -9.8820    3.2945    1.7598 H   0  0  0  0  0  0  0  0  0  0  0  0
   -9.5690    0.8607    2.1168 H   0  0  0  0  0  0  0  0  0  0  0  0
   -7.7315   -0.3525    1.0718 H   0  0  0  0  0  0  0  0  0  0  0  0
    5.2979    2.5742    0.2342 H   0  0  0  0  0  0  0  0  0  0  0  0
    5.0272    1.1107   -0.7981 H   0  0  0  0  0  0  0  0  0  0  0  0
    7.6436    2.2301    0.3188 H   0  0  0  0  0  0  0  0  0  0  0  0
    7.1252    2.1326   -1.3742 H   0  0  0  0  0  0  0  0  0  0  0  0
  1  2  1  0
  2  3  1  0
  3  4  1  0
  4  5  1  0
  5  6  1  0
  6  7  1  0
  7  8  2  0
  8  9  1  0
  9 10  2  0
 10 11  1  0
 11 12  2  0
 12 13  1  0
 13 14  1  0
 13 15  1  0
 13 16  1  0
 10 17  1  0
 17 18  2  0
 17 19  1  0
 19 20  1  0
 20 21  2  0
 21 22  1  0
 22 23  2  0
 23 24  1  0
 23 25  1  0
 25 26  2  0
 25 27  1  0
 27 28  2  0
 28 29  1  0
 29 30  2  0
 30 31  1  0
 31 32  2  0
 32 33  1  0
 33 34  2  0
 34 35  1  0
  5 36  1  0
 36 37  1  0
 37  2  1  0
 12  7  1  0
 26 20  1  0
 35 27  1  0
 35 30  1  0
  1 38  1  0
  1 39  1  0
  1 40  1  0
  3 41  1  0
  3 42  1  0
  4 43  1  0
  4 44  1  0
  6 45  1  0
  6 46  1  0
  8 47  1  0
  9 48  1  0
 11 49  1  0
 19 50  1  0
 21 51  1  0
 22 52  1  0
 24 53  1  0
 24 54  1  0
 24 55  1  0
 26 56  1  0
 28 57  1  0
 31 58  1  0
 32 59  1  0
 33 60  1  0
 34 61  1  0
 36 62  1  0
 36 63  1  0
 37 64  1  0
 37 65  1  0
M  END
$$$$
[H]c1nc(N([H])c2c([H])c([H])c(N3C([H])([H])C([H])([H])C([H])(N4C([H])([H])C([H])([H])N(C([H])([H])[H])C([H])([H])C4([H])[H])C([H])([H])C3([H])[H])c([H])c2OC([H])([H])[H])nc(N([H])c2c([H])c([H])c([H])c([H])c2S(=O)(=O)C([H])(C([H])([H])[H])C([H])([H])[H])c1Cl
     RDKit          3D

 82 86  0  0  0  0  0  0  0  0999 V2000
   -0.1870    3.7228   -1.2569 C   0  0  0  0  0  0  0  0  0  0  0  0
    0.4390    2.5297   -0.8437 O   0  0  0  0  0  0  0  0  0  0  0  0
   -0.3483    1.4775   -0.4024 C   0  0  0  0  0  0  0  0  0  0  0  0
   -1.7220    1.6350   -0.3827 C   0  0  0  0  0  0  0  0  0  0  0  0
   -2.5624    0.6308    0.0436 C   0  0  0  0  0  0  0  0  0  0  0  0
   -1.9599   -0.5357    0.4478 C   0  0  0  0  0  0  0  0  0  0  0  0
   -0.5748   -0.7280    0.4408 C   0  0  0  0  0  0  0  0  0  0  0  0
    0.2576    0.2764    0.0150 C   0  0  0  0  0  0  0  0  0  0  0  0
    1.6540    0.2011   -0.0367 N   0  0  0  0  0  0  0  0  0  0  0  0
    2.4984   -0.8842    0.3177 C   0  0  0  0  0  0  0  0  0  0  0  0
    2.1033   -2.0726    0.7812 N   0  0  0  0  0  0  0  0  0  0  0  0
    2.9559   -3.0558    1.0957 C   0  0  0  0  0  0  0  0  0  0  0  0
    4.3092   -2.8632    0.9451 C   0  0  0  0  0  0  0  0  0  0  0  0
    5.4455   -4.1449    1.3534 Cl  0  0  0  0  0  0  0  0  0  0  0  0
    4.7527   -1.6166    0.4572 C   0  0  0  0  0  0  0  0  0  0  0  0
    6.1380   -1.4466    0.3110 N   0  0  0  0  0  0  0  0  0  0  0  0
    6.9009   -0.3576   -0.1368 C   0  0  0  0  0  0  0  0  0  0  0  0
    6.2766    0.8084   -0.5266 C   0  0  0  0  0  0  0  0  0  0  0  0
    7.0240    1.9039   -0.9778 C   0  0  0  0  0  0  0  0  0  0  0  0
    8.3820    1.8034   -1.0274 C   0  0  0  0  0  0  0  0  0  0  0  0
    9.0024    0.6381   -0.6374 C   0  0  0  0  0  0  0  0  0  0  0  0
    8.2961   -0.4485   -0.1920 C   0  0  0  0  0  0  0  0  0  0  0  0
    9.0842   -1.8926    0.2913 S   0  0  0  0  0  0  0  0  0  0  0  0
    8.6633   -3.0312   -0.6035 O   0  0  0  0  0  0  0  0  0  0  0  0
    8.8235   -2.3045    1.7132 O   0  0  0  0  0  0  0  0  0  0  0  0
   10.8572   -1.7881    0.1370 C   0  0  0  0  0  0  0  0  0  0  0  0
   11.2609   -1.6791   -1.2975 C   0  0  0  0  0  0  0  0  0  0  0  0
   11.4760   -0.7869    1.0544 C   0  0  0  0  0  0  0  0  0  0  0  0
    3.8248   -0.7008    0.1721 N   0  0  0  0  0  0  0  0  0  0  0  0
   -3.9818    0.8060    0.0512 N   0  0  0  0  0  0  0  0  0  0  0  0
   -4.5241    1.9609   -0.5784 C   0  0  0  0  0  0  0  0  0  0  0  0
   -6.0011    1.9283   -0.8544 C   0  0  0  0  0  0  0  0  0  0  0  0
   -6.8245    1.3726    0.2584 C   0  0  0  0  0  0  0  0  0  0  0  0
   -6.0036    0.6088    1.2781 C   0  0  0  0  0  0  0  0  0  0  0  0
   -4.8657   -0.1463    0.6796 C   0  0  0  0  0  0  0  0  0  0  0  0
   -7.9560    0.6086   -0.0875 N   0  0  0  0  0  0  0  0  0  0  0  0
   -7.7905   -0.5856   -0.8057 C   0  0  0  0  0  0  0  0  0  0  0  0
   -9.1362   -1.0235   -1.3907 C   0  0  0  0  0  0  0  0  0  0  0  0
  -10.1390   -0.8718   -0.3544 N   0  0  0  0  0  0  0  0  0  0  0  0
  -10.0361   -1.8235    0.7053 C   0  0  0  0  0  0  0  0  0  0  0  0
  -10.3349    0.4834    0.0484 C   0  0  0  0  0  0  0  0  0  0  0  0
   -9.1475    1.3193   -0.4248 C   0  0  0  0  0  0  0  0  0  0  0  0
    0.5375    4.4499   -1.6799 H   0  0  0  0  0  0  0  0  0  0  0  0
   -0.9481    3.5330   -2.0530 H   0  0  0  0  0  0  0  0  0  0  0  0
   -0.6880    4.2523   -0.4156 H   0  0  0  0  0  0  0  0  0  0  0  0
   -2.1476    2.5764   -0.7105 H   0  0  0  0  0  0  0  0  0  0  0  0
   -2.6020   -1.3517    0.7883 H   0  0  0  0  0  0  0  0  0  0  0  0
   -0.2121   -1.6859    0.7807 H   0  0  0  0  0  0  0  0  0  0  0  0
    2.1500    1.0935   -0.3956 H   0  0  0  0  0  0  0  0  0  0  0  0
    2.6174   -4.0222    1.4737 H   0  0  0  0  0  0  0  0  0  0  0  0
    6.7215   -2.3022    0.5911 H   0  0  0  0  0  0  0  0  0  0  0  0
    5.2202    0.9989   -0.5296 H   0  0  0  0  0  0  0  0  0  0  0  0
    6.5603    2.8305   -1.2896 H   0  0  0  0  0  0  0  0  0  0  0  0
    9.0220    2.6252   -1.3712 H   0  0  0  0  0  0  0  0  0  0  0  0
   10.0936    0.6299   -0.7052 H   0  0  0  0  0  0  0  0  0  0  0  0
   11.2252   -2.8031    0.4806 H   0  0  0  0  0  0  0  0  0  0  0  0
   11.9033   -0.7785   -1.4926 H   0  0  0  0  0  0  0  0  0  0  0  0
   10.3307   -1.5514   -1.9199 H   0  0  0  0  0  0  0  0  0  0  0  0
   11.7765   -2.5763   -1.6995 H   0  0  0  0  0  0  0  0  0  0  0  0
   12.0225   -1.2557    1.8769 H   0  0  0  0  0  0  0  0  0  0  0  0
   12.1781   -0.1622    0.4319 H   0  0  0  0  0  0  0  0  0  0  0  0
   10.7434   -0.0899    1.5079 H   0  0  0  0  0  0  0  0  0  0  0  0
   -4.2803    2.8410    0.0525 H   0  0  0  0  0  0  0  0  0  0  0  0
   -3.9354    2.1199   -1.5269 H   0  0  0  0  0  0  0  0  0  0  0  0
   -6.3084    2.9635   -1.1164 H   0  0  0  0  0  0  0  0  0  0  0  0
   -6.1470    1.3325   -1.7818 H   0  0  0  0  0  0  0  0  0  0  0  0
   -7.2139    2.2642    0.8421 H   0  0  0  0  0  0  0  0  0  0  0  0
   -6.6586   -0.1075    1.8153 H   0  0  0  0  0  0  0  0  0  0  0  0
   -5.5929    1.2907    2.0626 H   0  0  0  0  0  0  0  0  0  0  0  0
   -5.1731   -0.8869   -0.0780 H   0  0  0  0  0  0  0  0  0  0  0  0
   -4.3121   -0.6097    1.5260 H   0  0  0  0  0  0  0  0  0  0  0  0
   -7.5080   -1.4012   -0.0997 H   0  0  0  0  0  0  0  0  0  0  0  0
   -7.0082   -0.5774   -1.5870 H   0  0  0  0  0  0  0  0  0  0  0  0
   -9.4445   -0.3742   -2.2343 H   0  0  0  0  0  0  0  0  0  0  0  0
   -9.0261   -2.0597   -1.7202 H   0  0  0  0  0  0  0  0  0  0  0  0
   -9.1822   -2.5377    0.5321 H   0  0  0  0  0  0  0  0  0  0  0  0
   -9.9814   -1.3564    1.7041 H   0  0  0  0  0  0  0  0  0  0  0  0
  -10.9456   -2.4645    0.6802 H   0  0  0  0  0  0  0  0  0  0  0  0
  -11.2261    0.8855   -0.4545 H   0  0  0  0  0  0  0  0  0  0  0  0
  -10.4517    0.5517    1.1515 H   0  0  0  0  0  0  0  0  0  0  0  0
   -9.2778    1.5186   -1.4917 H   0  0  0  0  0  0  0  0  0  0  0  0
   -9.1611    2.2698    0.1783 H   0  0  0  0  0  0  0  0  0  0  0  0
  1  2  1  0
  2  3  1  0
  3  4  2  0
  4  5  1  0
  5  6  2  0
  6  7  1  0
  7  8  2  0
  8  9  1  0
  9 10  1  0
 10 11  2  0
 11 12  1  0
 12 13  2  0
 13 14  1  0
 13 15  1  0
 15 16  1  0
 16 17  1  0
 17 18  2  0
 18 19  1  0
 19 20  2  0
 20 21  1  0
 21 22  2  0
 22 23  1  0
 23 24  2  0
 23 25  2  0
 23 26  1  0
 26 27  1  0
 26 28  1  0
 15 29  2  0
  5 30  1  0
 30 31  1  0
 31 32  1  0
 32 33  1  0
 33 34  1  0
 34 35  1  0
 33 36  1  0
 36 37  1  0
 37 38  1  0
 38 39  1  0
 39 40  1  0
 39 41  1  0
 41 42  1  0
  8  3  1  0
 29 10  1  0
 35 30  1  0
 42 36  1  0
 22 17  1  0
  1 43  1  0
  1 44  1  0
  1 45  1  0
  4 46  1  0
  6 47  1  0
  7 48  1  0
  9 49  1  0
 12 50  1  0
 16 51  1  0
 18 52  1  0
 19 53  1  0
 20 54  1  0
 21 55  1  0
 26 56  1  0
 27 57  1  0
 27 58  1  0
 27 59  1  0
 28 60  1  0
 28 61  1  0
 28 62  1  0
 31 63  1  0
 31 64  1  0
 32 65  1  0
 32 66  1  0
 33 67  1  0
 34 68  1  0
 34 69  1  0
 35 70  1  0
 35 71  1  0
 37 72  1  0
 37 73  1  0
 38 74  1  0
 38 75  1  0
 40 76  1  0
 40 77  1  0
 40 78  1  0
 41 79  1  0
 41 80  1  0
 42 81  1  0
 42 82  1  0
M  END
$$$$
[H]c1c([H])c([H])c2c(c1[H])c(C(=O)OC1([H])C([H])([H])C3([H])N(C([H])([H])[H])C([H])(C([H])([H])C3([H])[H])C1([H])[H])c([H])n2[H]
     RDKit          3D

 41 44  0  0  0  0  0  0  0  0999 V2000
   -5.2682    1.0423   -0.1017 C   0  0  0  0  0  0  0  0  0  0  0  0
   -3.8393    1.0029   -0.3151 N   0  0  0  0  0  0  0  0  0  0  0  0
   -3.1452    1.0980    0.9711 C   0  0  0  0  0  0  0  0  0  0  0  0
   -3.4633   -0.2168    1.6044 C   0  0  0  0  0  0  0  0  0  0  0  0
   -3.7039   -1.2142    0.4963 C   0  0  0  0  0  0  0  0  0  0  0  0
   -3.4760   -0.3338   -0.7393 C   0  0  0  0  0  0  0  0  0  0  0  0
   -2.0127   -0.4477   -1.0775 C   0  0  0  0  0  0  0  0  0  0  0  0
   -1.1120   -0.0252    0.0548 C   0  0  0  0  0  0  0  0  0  0  0  0
   -1.6757    1.2535    0.6485 C   0  0  0  0  0  0  0  0  0  0  0  0
    0.1787    0.2847   -0.4381 O   0  0  0  0  0  0  0  0  0  0  0  0
    1.3299   -0.3265    0.0282 C   0  0  0  0  0  0  0  0  0  0  0  0
    1.1992   -1.1892    0.9267 O   0  0  0  0  0  0  0  0  0  0  0  0
    2.6396    0.0067   -0.4910 C   0  0  0  0  0  0  0  0  0  0  0  0
    2.8876    0.9514   -1.4892 C   0  0  0  0  0  0  0  0  0  0  0  0
    4.1983    1.0180   -1.7364 N   0  0  0  0  0  0  0  0  0  0  0  0
    4.8463    0.1519   -0.9410 C   0  0  0  0  0  0  0  0  0  0  0  0
    6.1660   -0.1934   -0.7690 C   0  0  0  0  0  0  0  0  0  0  0  0
    6.5185   -1.1386    0.1475 C   0  0  0  0  0  0  0  0  0  0  0  0
    5.5761   -1.7718    0.9228 C   0  0  0  0  0  0  0  0  0  0  0  0
    4.2529   -1.4304    0.7553 C   0  0  0  0  0  0  0  0  0  0  0  0
    3.8793   -0.4880   -0.1555 C   0  0  0  0  0  0  0  0  0  0  0  0
   -5.7857    0.2039   -0.6547 H   0  0  0  0  0  0  0  0  0  0  0  0
   -5.7285    1.9793   -0.5323 H   0  0  0  0  0  0  0  0  0  0  0  0
   -5.5633    0.9204    0.9506 H   0  0  0  0  0  0  0  0  0  0  0  0
   -3.4805    1.9573    1.5665 H   0  0  0  0  0  0  0  0  0  0  0  0
   -2.6497   -0.6056    2.2487 H   0  0  0  0  0  0  0  0  0  0  0  0
   -4.3499   -0.0726    2.2557 H   0  0  0  0  0  0  0  0  0  0  0  0
   -4.7151   -1.6365    0.5073 H   0  0  0  0  0  0  0  0  0  0  0  0
   -2.9871   -2.0567    0.5135 H   0  0  0  0  0  0  0  0  0  0  0  0
   -4.0497   -0.6806   -1.6018 H   0  0  0  0  0  0  0  0  0  0  0  0
   -1.8151   -1.5440   -1.2388 H   0  0  0  0  0  0  0  0  0  0  0  0
   -1.7564    0.0423   -2.0265 H   0  0  0  0  0  0  0  0  0  0  0  0
   -1.0798   -0.8070    0.8484 H   0  0  0  0  0  0  0  0  0  0  0  0
   -1.0848    1.6264    1.4997 H   0  0  0  0  0  0  0  0  0  0  0  0
   -1.6081    2.0208   -0.1527 H   0  0  0  0  0  0  0  0  0  0  0  0
    2.1222    1.5298   -1.9749 H   0  0  0  0  0  0  0  0  0  0  0  0
    4.7122    1.6225   -2.4238 H   0  0  0  0  0  0  0  0  0  0  0  0
    6.9354    0.3006   -1.3785 H   0  0  0  0  0  0  0  0  0  0  0  0
    7.5679   -1.4047    0.2757 H   0  0  0  0  0  0  0  0  0  0  0  0
    5.8630   -2.5229    1.6503 H   0  0  0  0  0  0  0  0  0  0  0  0
    3.4772   -1.9245    1.3658 H   0  0  0  0  0  0  0  0  0  0  0  0
  1  2  1  0
  2  3  1  0
  3  4  1  0
  4  5  1  0
  5  6  1  0
  6  7  1  0
  7  8  1  0
  8  9  1  0
  8 10  1  0
 10 11  1  0
 11 12  2  0
 11 13  1  0
 13 14  2  0
 14 15  1  0
 15 16  1  0
 16 17  2  0
 17 18  1  0
 18 19  2  0
 19 20  1  0
 20 21  2  0
  6  2  1  0
 21 13  1  0
  9  3  1  0
 21 16  1  0
  1 22  1  0
  1 23  1  0
  1 24  1  0
  3 25  1  0
  4 26  1  0
  4 27  1  0
  5 28  1  0
  5 29  1  0
  6 30  1  0
  7 31  1  0
  7 32  1  0
  8 33  1  0
  9 34  1  0
  9 35  1  0
 14 36  1  0
 15 37  1  0
 17 38  1  0
 18 39  1  0
 19 40  1  0
 20 41  1  0
M  END
$$$$
[H]c1nc2c([H])c(OC([H])([H])[H])c(OC([H])([H])[H])c([H])c2c(Oc2c([H])c([H])c(N([H])C(=O)N([H])c3c([H])c([H])c([H])c(Cl)c3[H])c([H])c2[H])c1[H]
     RDKit          3D

 52 55  0  0  0  0  0  0  0  0999 V2000
   -7.3754    1.1424   -0.1104 C   0  0  0  0  0  0  0  0  0  0  0  0
   -6.1058    0.9592    0.4977 O   0  0  0  0  0  0  0  0  0  0  0  0
   -5.2522   -0.0954    0.2054 C   0  0  0  0  0  0  0  0  0  0  0  0
   -5.4908   -1.0615   -0.7296 C   0  0  0  0  0  0  0  0  0  0  0  0
   -4.6243   -2.1056   -1.0073 C   0  0  0  0  0  0  0  0  0  0  0  0
   -4.9163   -3.0240   -1.9446 N   0  0  0  0  0  0  0  0  0  0  0  0
   -4.1050   -4.0523   -2.2523 C   0  0  0  0  0  0  0  0  0  0  0  0
   -2.9320   -4.1234   -1.5447 C   0  0  0  0  0  0  0  0  0  0  0  0
   -2.5799   -3.1893   -0.5556 C   0  0  0  0  0  0  0  0  0  0  0  0
   -1.3966   -3.3037    0.1241 O   0  0  0  0  0  0  0  0  0  0  0  0
   -0.3106   -2.5047    0.1664 C   0  0  0  0  0  0  0  0  0  0  0  0
    0.6551   -2.7537    1.1025 C   0  0  0  0  0  0  0  0  0  0  0  0
    1.7846   -1.9744    1.2031 C   0  0  0  0  0  0  0  0  0  0  0  0
    2.0298   -0.9129    0.3955 C   0  0  0  0  0  0  0  0  0  0  0  0
    3.0760   -0.0550    0.4381 N   0  0  0  0  0  0  0  0  0  0  0  0
    4.1266    0.8063    0.4811 C   0  0  0  0  0  0  0  0  0  0  0  0
    4.8482    1.1120    1.5070 O   0  0  0  0  0  0  0  0  0  0  0  0
    4.5678    1.5104   -0.7029 N   0  0  0  0  0  0  0  0  0  0  0  0
    5.6280    2.3968   -0.8178 C   0  0  0  0  0  0  0  0  0  0  0  0
    5.5781    3.3089   -1.8968 C   0  0  0  0  0  0  0  0  0  0  0  0
    6.5769    4.2120   -2.1352 C   0  0  0  0  0  0  0  0  0  0  0  0
    7.6733    4.2485   -1.3095 C   0  0  0  0  0  0  0  0  0  0  0  0
    7.7765    3.3876   -0.2469 C   0  0  0  0  0  0  0  0  0  0  0  0
    9.1699    3.4341    0.7931 Cl  0  0  0  0  0  0  0  0  0  0  0  0
    6.7392    2.4806   -0.0342 C   0  0  0  0  0  0  0  0  0  0  0  0
    1.0151   -0.6558   -0.5887 C   0  0  0  0  0  0  0  0  0  0  0  0
   -0.0892   -1.4310   -0.6729 C   0  0  0  0  0  0  0  0  0  0  0  0
   -3.4433   -2.1508   -0.2725 C   0  0  0  0  0  0  0  0  0  0  0  0
   -3.2040   -1.1743    0.6764 C   0  0  0  0  0  0  0  0  0  0  0  0
   -4.0656   -0.1310    0.9538 C   0  0  0  0  0  0  0  0  0  0  0  0
   -3.8425    0.8505    1.8903 O   0  0  0  0  0  0  0  0  0  0  0  0
   -2.7221    0.9567    2.7128 C   0  0  0  0  0  0  0  0  0  0  0  0
   -8.1792    0.6548    0.4563 H   0  0  0  0  0  0  0  0  0  0  0  0
   -7.6591    2.2196   -0.1897 H   0  0  0  0  0  0  0  0  0  0  0  0
   -7.3071    0.7689   -1.1473 H   0  0  0  0  0  0  0  0  0  0  0  0
   -6.4076   -1.0416   -1.3103 H   0  0  0  0  0  0  0  0  0  0  0  0
   -4.3916   -4.7623   -3.0166 H   0  0  0  0  0  0  0  0  0  0  0  0
   -2.2748   -4.9443   -1.7907 H   0  0  0  0  0  0  0  0  0  0  0  0
    0.5361   -3.5825    1.7815 H   0  0  0  0  0  0  0  0  0  0  0  0
    2.5082   -2.2682    1.9790 H   0  0  0  0  0  0  0  0  0  0  0  0
    3.1311   -0.1486    1.7887 H   0  0  0  0  0  0  0  0  0  0  0  0
    3.9689    1.2888   -1.5648 H   0  0  0  0  0  0  0  0  0  0  0  0
    4.7221    3.2815   -2.5392 H   0  0  0  0  0  0  0  0  0  0  0  0
    6.4883    4.8946   -2.9805 H   0  0  0  0  0  0  0  0  0  0  0  0
    8.4307    4.9675   -1.5312 H   0  0  0  0  0  0  0  0  0  0  0  0
    6.8631    1.8111    0.7977 H   0  0  0  0  0  0  0  0  0  0  0  0
    1.2118    0.1864   -1.2392 H   0  0  0  0  0  0  0  0  0  0  0  0
   -0.8541   -1.2101   -1.4377 H   0  0  0  0  0  0  0  0  0  0  0  0
   -2.3107   -1.2295    1.2694 H   0  0  0  0  0  0  0  0  0  0  0  0
   -3.0594    0.8876    3.7949 H   0  0  0  0  0  0  0  0  0  0  0  0
   -1.9672    0.1605    2.6215 H   0  0  0  0  0  0  0  0  0  0  0  0
   -2.2388    1.9586    2.6376 H   0  0  0  0  0  0  0  0  0  0  0  0
  1  2  1  0
  2  3  1  0
  3  4  2  0
  4  5  1  0
  5  6  2  0
  6  7  1  0
  7  8  2  0
  8  9  1  0
  9 10  1  0
 10 11  1  0
 11 12  2  0
 12 13  1  0
 13 14  2  0
 14 15  1  0
 15 16  1  0
 16 17  2  0
 16 18  1  0
 18 19  1  0
 19 20  2  0
 20 21  1  0
 21 22  2  0
 22 23  1  0
 23 24  1  0
 23 25  2  0
 14 26  1  0
 26 27  2  0
  9 28  2  0
 28 29  1  0
 29 30  2  0
 30 31  1  0
 31 32  1  0
 30  3  1  0
 28  5  1  0
 27 11  1  0
 25 19  1  0
  1 33  1  0
  1 34  1  0
  1 35  1  0
  4 36  1  0
  7 37  1  0
  8 38  1  0
 12 39  1  0
 13 40  1  0
 15 41  1  0
 18 42  1  0
 20 43  1  0
 21 44  1  0
 22 45  1  0
 25 46  1  0
 26 47  1  0
 27 48  1  0
 29 49  1  0
 32 50  1  0
 32 51  1  0
 32 52  1  0
M  END
$$$$
[H]c1nc(C(=O)N([H])[H])c(N([H])c2c([H])c([H])c(C3([H])C([H])([H])C([H])([H])N(C4([H])C([H])([H])C([H])([H])C([H])([H])C4([H])[H])C([H])([H])C3([H])[H])c([H])c2[H])nc1N1C([H])([H])C([H])([H])C([H])([H])[C@@]([H])(N([H])C(=O)N(C([H])([H])[H])C([H])([H])[H])C1([H])[H]
     RDKit          3D

 81 85  0  0  0  0  0  0  0  0999 V2000
   -7.8762    3.8398   -0.3023 C   0  0  0  0  0  0  0  0  0  0  0  0
   -8.7134    2.6692   -0.1575 N   0  0  0  0  0  0  0  0  0  0  0  0
  -10.1462    2.8301   -0.2995 C   0  0  0  0  0  0  0  0  0  0  0  0
   -8.1019    1.4226    0.1142 C   0  0  0  0  0  0  0  0  0  0  0  0
   -8.7911    0.4011    0.2498 O   0  0  0  0  0  0  0  0  0  0  0  0
   -6.6939    1.3417    0.2308 N   0  0  0  0  0  0  0  0  0  0  0  0
   -5.9866    0.1146    0.5074 C   0  0  2  0  0  0  0  0  0  0  0  0
   -5.1024    0.2227    1.7185 C   0  0  0  0  0  0  0  0  0  0  0  0
   -3.9008    1.0792    1.3875 C   0  0  0  0  0  0  0  0  0  0  0  0
   -2.9984    0.3177    0.4082 C   0  0  0  0  0  0  0  0  0  0  0  0
   -3.8172   -0.6733   -0.3045 N   0  0  0  0  0  0  0  0  0  0  0  0
   -5.1171   -0.2234   -0.7029 C   0  0  0  0  0  0  0  0  0  0  0  0
   -3.2677   -1.9538   -0.5420 C   0  0  0  0  0  0  0  0  0  0  0  0
   -4.0513   -3.0255   -0.9532 C   0  0  0  0  0  0  0  0  0  0  0  0
   -3.5311   -4.2249   -1.1911 N   0  0  0  0  0  0  0  0  0  0  0  0
   -2.1936   -4.4939   -1.0500 C   0  0  0  0  0  0  0  0  0  0  0  0
   -1.7258   -5.8363   -1.3091 C   0  0  0  0  0  0  0  0  0  0  0  0
   -2.7211   -6.7903   -1.7490 N   0  0  0  0  0  0  0  0  0  0  0  0
   -0.5672   -6.2538   -1.1949 O   0  0  0  0  0  0  0  0  0  0  0  0
   -1.4024   -3.4445   -0.6442 C   0  0  0  0  0  0  0  0  0  0  0  0
   -0.0028   -3.5804   -0.5253 N   0  0  0  0  0  0  0  0  0  0  0  0
    0.8589   -2.5498   -0.0587 C   0  0  0  0  0  0  0  0  0  0  0  0
    0.5381   -1.6293    0.9000 C   0  0  0  0  0  0  0  0  0  0  0  0
    1.4026   -0.6019    1.3038 C   0  0  0  0  0  0  0  0  0  0  0  0
    2.6304   -0.5297    0.6982 C   0  0  0  0  0  0  0  0  0  0  0  0
    2.9513   -1.4575   -0.2651 C   0  0  0  0  0  0  0  0  0  0  0  0
    2.1269   -2.4585   -0.6690 C   0  0  0  0  0  0  0  0  0  0  0  0
    3.6322    0.5160    1.0331 C   0  0  0  0  0  0  0  0  0  0  0  0
    4.9107   -0.1679    1.4120 C   0  0  0  0  0  0  0  0  0  0  0  0
    6.0526    0.2939    0.5594 C   0  0  0  0  0  0  0  0  0  0  0  0
    6.0531    1.7058    0.4740 N   0  0  0  0  0  0  0  0  0  0  0  0
    4.9199    2.3470   -0.0853 C   0  0  0  0  0  0  0  0  0  0  0  0
    3.7880    1.3784   -0.2032 C   0  0  0  0  0  0  0  0  0  0  0  0
    7.3057    2.3346    0.2629 C   0  0  0  0  0  0  0  0  0  0  0  0
    7.9427    1.9454   -1.0541 C   0  0  0  0  0  0  0  0  0  0  0  0
    9.1644    1.1473   -0.7385 C   0  0  0  0  0  0  0  0  0  0  0  0
    9.4907    1.3780    0.7183 C   0  0  0  0  0  0  0  0  0  0  0  0
    8.2788    2.0147    1.3489 C   0  0  0  0  0  0  0  0  0  0  0  0
   -1.9662   -2.2241   -0.4070 N   0  0  0  0  0  0  0  0  0  0  0  0
   -7.3269    4.0781    0.6382 H   0  0  0  0  0  0  0  0  0  0  0  0
   -7.0710    3.5744   -1.0459 H   0  0  0  0  0  0  0  0  0  0  0  0
   -8.4633    4.7212   -0.6501 H   0  0  0  0  0  0  0  0  0  0  0  0
  -10.5870    2.0318   -0.9394 H   0  0  0  0  0  0  0  0  0  0  0  0
  -10.6685    2.9094    0.6867 H   0  0  0  0  0  0  0  0  0  0  0  0
  -10.3412    3.7802   -0.8370 H   0  0  0  0  0  0  0  0  0  0  0  0
   -6.1098    2.2022    0.1140 H   0  0  0  0  0  0  0  0  0  0  0  0
   -6.7344   -0.7056    0.6405 H   0  0  0  0  0  0  0  0  0  0  0  0
   -5.6173    0.7369    2.5699 H   0  0  0  0  0  0  0  0  0  0  0  0
   -4.7454   -0.7698    2.0412 H   0  0  0  0  0  0  0  0  0  0  0  0
   -4.2544    1.9903    0.8951 H   0  0  0  0  0  0  0  0  0  0  0  0
   -3.3356    1.2781    2.3390 H   0  0  0  0  0  0  0  0  0  0  0  0
   -2.5092    0.9913   -0.3124 H   0  0  0  0  0  0  0  0  0  0  0  0
   -2.2174   -0.1622    1.0158 H   0  0  0  0  0  0  0  0  0  0  0  0
   -5.6457   -0.9711   -1.3121 H   0  0  0  0  0  0  0  0  0  0  0  0
   -5.0521    0.6855   -1.3648 H   0  0  0  0  0  0  0  0  0  0  0  0
   -5.1157   -2.8506   -1.0690 H   0  0  0  0  0  0  0  0  0  0  0  0
   -3.4434   -6.5696   -2.4492 H   0  0  0  0  0  0  0  0  0  0  0  0
   -2.6827   -7.7284   -1.3247 H   0  0  0  0  0  0  0  0  0  0  0  0
    0.4614   -4.4637   -0.7920 H   0  0  0  0  0  0  0  0  0  0  0  0
   -0.4262   -1.6906    1.4073 H   0  0  0  0  0  0  0  0  0  0  0  0
    1.1459    0.1118    2.0511 H   0  0  0  0  0  0  0  0  0  0  0  0
    3.9317   -1.4179   -0.7637 H   0  0  0  0  0  0  0  0  0  0  0  0
    2.3732   -3.1917   -1.4259 H   0  0  0  0  0  0  0  0  0  0  0  0
    3.2323    1.1679    1.8356 H   0  0  0  0  0  0  0  0  0  0  0  0
    4.8606   -1.2758    1.3580 H   0  0  0  0  0  0  0  0  0  0  0  0
    5.1880    0.0561    2.4808 H   0  0  0  0  0  0  0  0  0  0  0  0
    7.0301   -0.0321    0.9584 H   0  0  0  0  0  0  0  0  0  0  0  0
    5.9251   -0.1316   -0.4558 H   0  0  0  0  0  0  0  0  0  0  0  0
    4.6327    3.2383    0.5016 H   0  0  0  0  0  0  0  0  0  0  0  0
    5.1805    2.6972   -1.1060 H   0  0  0  0  0  0  0  0  0  0  0  0
    3.8894    0.6964   -1.0656 H   0  0  0  0  0  0  0  0  0  0  0  0
    2.8388    1.9294   -0.3384 H   0  0  0  0  0  0  0  0  0  0  0  0
    7.1565    3.4336    0.2319 H   0  0  0  0  0  0  0  0  0  0  0  0
    7.1800    1.3524   -1.6396 H   0  0  0  0  0  0  0  0  0  0  0  0
    8.2290    2.8138   -1.6763 H   0  0  0  0  0  0  0  0  0  0  0  0
   10.0381    1.4392   -1.3864 H   0  0  0  0  0  0  0  0  0  0  0  0
    9.0132    0.0710   -0.9126 H   0  0  0  0  0  0  0  0  0  0  0  0
    9.7557    0.4310    1.2287 H   0  0  0  0  0  0  0  0  0  0  0  0
   10.3999    2.0168    0.7822 H   0  0  0  0  0  0  0  0  0  0  0  0
    7.8588    1.3951    2.1706 H   0  0  0  0  0  0  0  0  0  0  0  0
    8.6538    2.9504    1.8579 H   0  0  0  0  0  0  0  0  0  0  0  0
  1  2  1  0
  2  3  1  0
  2  4  1  0
  4  5  2  0
  4  6  1  0
  6  7  1  0
  7  8  1  0
  8  9  1  0
  9 10  1  0
 10 11  1  0
 11 12  1  0
 11 13  1  0
 13 14  2  0
 14 15  1  0
 15 16  2  0
 16 17  1  0
 17 18  1  0
 17 19  2  0
 16 20  1  0
 20 21  1  0
 21 22  1  0
 22 23  2  0
 23 24  1  0
 24 25  2  0
 25 26  1  0
 26 27  2  0
 25 28  1  0
 28 29  1  0
 29 30  1  0
 30 31  1  0
 31 32  1  0
 32 33  1  0
 31 34  1  0
 34 35  1  0
 35 36  1  0
 36 37  1  0
 37 38  1  0
 20 39  2  0
 12  7  1  0
 39 13  1  0
 27 22  1  0
 33 28  1  0
 38 34  1  0
  1 40  1  0
  1 41  1  0
  1 42  1  0
  3 43  1  0
  3 44  1  0
  3 45  1  0
  6 46  1  0
  7 47  1  1
  8 48  1  0
  8 49  1  0
  9 50  1  0
  9 51  1  0
 10 52  1  0
 10 53  1  0
 12 54  1  0
 12 55  1  0
 14 56  1  0
 18 57  1  0
 18 58  1  0
 21 59  1  0
 23 60  1  0
 24 61  1  0
 26 62  1  0
 27 63  1  0
 28 64  1  0
 29 65  1  0
 29 66  1  0
 30 67  1  0
 30 68  1  0
 32 69  1  0
 32 70  1  0
 33 71  1  0
 33 72  1  0
 34 73  1  0
 35 74  1  0
 35 75  1  0
 36 76  1  0
 36 77  1  0
 37 78  1  0
 37 79  1  0
 38 80  1  0
 38 81  1  0
M  END
$$$$
[H]c1nc(OC([H])([H])[H])c([H])c(N2C(=O)N(c3c([H])c([H])c(-c4c([H])c([H])c([H])c([H])c4[H])c([H])c3[H])C(=O)C23C([H])([H])C([H])([H])N(C([H])([H])c2nc([H])c([H])c([H])c2C([H])([H])[H])C([H])([H])C3([H])[H])n1
     RDKit          3D

 70 75  0  0  0  0  0  0  0  0999 V2000
   -0.0818    8.0279   -0.0623 C   0  0  0  0  0  0  0  0  0  0  0  0
    0.2204    6.7135    0.3046 O   0  0  0  0  0  0  0  0  0  0  0  0
   -0.0818    5.6560   -0.5348 C   0  0  0  0  0  0  0  0  0  0  0  0
    0.2074    4.3399   -0.1951 C   0  0  0  0  0  0  0  0  0  0  0  0
   -0.0972    3.2923   -1.0376 C   0  0  0  0  0  0  0  0  0  0  0  0
   -0.6869    3.6007   -2.2036 N   0  0  0  0  0  0  0  0  0  0  0  0
   -0.9800    4.8670   -2.5616 C   0  0  0  0  0  0  0  0  0  0  0  0
   -0.6734    5.8557   -1.7265 N   0  0  0  0  0  0  0  0  0  0  0  0
    0.1979    1.9521   -0.7081 N   0  0  0  0  0  0  0  0  0  0  0  0
    1.5577    1.4994   -0.5844 C   0  0  0  0  0  0  0  0  0  0  0  0
    2.5889    2.2486   -0.5751 O   0  0  0  0  0  0  0  0  0  0  0  0
    1.6168    0.0918   -0.4718 N   0  0  0  0  0  0  0  0  0  0  0  0
    0.2904   -0.3643   -0.5224 C   0  0  0  0  0  0  0  0  0  0  0  0
   -0.0449   -1.5746   -0.6272 O   0  0  0  0  0  0  0  0  0  0  0  0
   -0.6230    0.8025   -0.4335 C   0  0  0  0  0  0  0  0  0  0  0  0
   -1.7314    0.5990   -1.4497 C   0  0  0  0  0  0  0  0  0  0  0  0
   -3.0111    1.1781   -0.9179 C   0  0  0  0  0  0  0  0  0  0  0  0
   -3.5116    0.4492    0.2487 N   0  0  0  0  0  0  0  0  0  0  0  0
   -4.5476   -0.4684   -0.1587 C   0  0  0  0  0  0  0  0  0  0  0  0
   -5.2347   -1.1628    0.9006 C   0  0  0  0  0  0  0  0  0  0  0  0
   -5.0204   -1.0207    2.2018 N   0  0  0  0  0  0  0  0  0  0  0  0
   -5.6908   -1.6753    3.1676 C   0  0  0  0  0  0  0  0  0  0  0  0
   -6.6881   -2.5757    2.8495 C   0  0  0  0  0  0  0  0  0  0  0  0
   -6.9486   -2.7586    1.5073 C   0  0  0  0  0  0  0  0  0  0  0  0
   -6.2378   -2.0672    0.5515 C   0  0  0  0  0  0  0  0  0  0  0  0
   -6.5414   -2.2827   -0.8694 C   0  0  0  0  0  0  0  0  0  0  0  0
   -2.4366   -0.1416    0.9928 C   0  0  0  0  0  0  0  0  0  0  0  0
   -1.2424    0.8247    0.9243 C   0  0  0  0  0  0  0  0  0  0  0  0
    2.7864   -0.7345   -0.3314 C   0  0  0  0  0  0  0  0  0  0  0  0
    3.5927   -0.6288    0.7875 C   0  0  0  0  0  0  0  0  0  0  0  0
    4.7232   -1.4351    0.8952 C   0  0  0  0  0  0  0  0  0  0  0  0
    5.0764   -2.3443   -0.0773 C   0  0  0  0  0  0  0  0  0  0  0  0
    4.2603   -2.4315   -1.1800 C   0  0  0  0  0  0  0  0  0  0  0  0
    3.1207   -1.6359   -1.3152 C   0  0  0  0  0  0  0  0  0  0  0  0
    6.2770   -3.1347    0.1331 C   0  0  0  0  0  0  0  0  0  0  0  0
    7.3304   -2.5889    0.8311 C   0  0  0  0  0  0  0  0  0  0  0  0
    8.5060   -3.2957    1.0666 C   0  0  0  0  0  0  0  0  0  0  0  0
    8.6361   -4.5803    0.5938 C   0  0  0  0  0  0  0  0  0  0  0  0
    7.5952   -5.1374   -0.1039 C   0  0  0  0  0  0  0  0  0  0  0  0
    6.4313   -4.4226   -0.3305 C   0  0  0  0  0  0  0  0  0  0  0  0
    0.6243    8.3643   -0.8630 H   0  0  0  0  0  0  0  0  0  0  0  0
   -1.0968    8.0496   -0.5048 H   0  0  0  0  0  0  0  0  0  0  0  0
    0.0100    8.7039    0.8225 H   0  0  0  0  0  0  0  0  0  0  0  0
    0.6789    4.1404    0.7477 H   0  0  0  0  0  0  0  0  0  0  0  0
   -1.4547    5.1288   -3.4952 H   0  0  0  0  0  0  0  0  0  0  0  0
   -1.8532   -0.4924   -1.6030 H   0  0  0  0  0  0  0  0  0  0  0  0
   -1.4959    1.0348   -2.4270 H   0  0  0  0  0  0  0  0  0  0  0  0
   -3.7638    1.2286   -1.7216 H   0  0  0  0  0  0  0  0  0  0  0  0
   -2.8071    2.1992   -0.5508 H   0  0  0  0  0  0  0  0  0  0  0  0
   -5.3159    0.1816   -0.6821 H   0  0  0  0  0  0  0  0  0  0  0  0
   -4.1906   -1.1418   -0.9856 H   0  0  0  0  0  0  0  0  0  0  0  0
   -5.4769   -1.5245    4.2284 H   0  0  0  0  0  0  0  0  0  0  0  0
   -7.2390   -3.1132    3.6250 H   0  0  0  0  0  0  0  0  0  0  0  0
   -7.7309   -3.4658    1.2510 H   0  0  0  0  0  0  0  0  0  0  0  0
   -7.0903   -1.4259   -1.3121 H   0  0  0  0  0  0  0  0  0  0  0  0
   -7.2150   -3.1786   -0.9861 H   0  0  0  0  0  0  0  0  0  0  0  0
   -5.6233   -2.5177   -1.4504 H   0  0  0  0  0  0  0  0  0  0  0  0
   -2.6880   -0.2052    2.0687 H   0  0  0  0  0  0  0  0  0  0  0  0
   -2.1258   -1.1246    0.6126 H   0  0  0  0  0  0  0  0  0  0  0  0
   -0.5411    0.5367    1.7048 H   0  0  0  0  0  0  0  0  0  0  0  0
   -1.7019    1.8387    1.1128 H   0  0  0  0  0  0  0  0  0  0  0  0
    3.3579    0.0684    1.5740 H   0  0  0  0  0  0  0  0  0  0  0  0
    5.3388   -1.3386    1.7781 H   0  0  0  0  0  0  0  0  0  0  0  0
    4.5260   -3.1402   -1.9493 H   0  0  0  0  0  0  0  0  0  0  0  0
    2.5222   -1.7647   -2.2269 H   0  0  0  0  0  0  0  0  0  0  0  0
    7.2882   -1.5859    1.2258 H   0  0  0  0  0  0  0  0  0  0  0  0
    9.3306   -2.8586    1.6166 H   0  0  0  0  0  0  0  0  0  0  0  0
    9.5511   -5.1255    0.7798 H   0  0  0  0  0  0  0  0  0  0  0  0
    7.6882   -6.1645   -0.4868 H   0  0  0  0  0  0  0  0  0  0  0  0
    5.5903   -4.8439   -0.8810 H   0  0  0  0  0  0  0  0  0  0  0  0
  1  2  1  0
  2  3  1  0
  3  4  2  0
  4  5  1  0
  5  6  2  0
  6  7  1  0
  7  8  2  0
  5  9  1  0
  9 10  1  0
 10 11  2  0
 10 12  1  0
 12 13  1  0
 13 14  2  0
 13 15  1  0
 15 16  1  0
 16 17  1  0
 17 18  1  0
 18 19  1  0
 19 20  1  0
 20 21  2  0
 21 22  1  0
 22 23  2  0
 23 24  1  0
 24 25  2  0
 25 26  1  0
 18 27  1  0
 27 28  1  0
 12 29  1  0
 29 30  2  0
 30 31  1  0
 31 32  2  0
 32 33  1  0
 33 34  2  0
 32 35  1  0
 35 36  2  0
 36 37  1  0
 37 38  2  0
 38 39  1  0
 39 40  2  0
  8  3  1  0
 15  9  1  0
 28 15  1  0
 34 29  1  0
 40 35  1  0
 25 20  1  0
  1 41  1  0
  1 42  1  0
  1 43  1  0
  4 44  1  0
  7 45  1  0
 16 46  1  0
 16 47  1  0
 17 48  1  0
 17 49  1  0
 19 50  1  0
 19 51  1  0
 22 52  1  0
 23 53  1  0
 24 54  1  0
 26 55  1  0
 26 56  1  0
 26 57  1  0
 27 58  1  0
 27 59  1  0
 28 60  1  0
 28 61  1  0
 30 62  1  0
 31 63  1  0
 33 64  1  0
 34 65  1  0
 36 66  1  0
 37 67  1  0
 38 68  1  0
 39 69  1  0
 40 70  1  0
M  END
$$$$
[H]ON([H])C(=O)C([H])([H])N(C([H])([H])c1c([H])c([H])c([N+](=O)[O-])c([H])c1[H])S(=O)(=O)c1c([H])c([H])c(Cl)c([H])c1Cl
     RDKit          3D

 40 41  0  0  0  0  0  0  0  0999 V2000
   -0.5239    4.8248   -0.8457 O   0  0  0  0  0  0  0  0  0  0  0  0
   -0.4680    3.5191   -0.4652 N   0  0  0  0  0  0  0  0  0  0  0  0
   -0.9780    3.0542    0.7543 C   0  0  0  0  0  0  0  0  0  0  0  0
   -1.5136    3.9111    1.5249 O   0  0  0  0  0  0  0  0  0  0  0  0
   -0.9396    1.6777    1.1976 C   0  0  0  0  0  0  0  0  0  0  0  0
   -0.3160    0.7715    0.2689 N   0  0  0  0  0  0  0  0  0  0  0  0
    0.6644   -0.0622    0.8831 C   0  0  0  0  0  0  0  0  0  0  0  0
    1.9358   -0.1580    0.1624 C   0  0  0  0  0  0  0  0  0  0  0  0
    2.9312   -0.9721    0.6855 C   0  0  0  0  0  0  0  0  0  0  0  0
    4.1478   -1.1244    0.0859 C   0  0  0  0  0  0  0  0  0  0  0  0
    4.4041   -0.4491   -1.0804 C   0  0  0  0  0  0  0  0  0  0  0  0
    3.4581    0.3745   -1.6509 C   0  0  0  0  0  0  0  0  0  0  0  0
    2.2270    0.4983   -0.9996 C   0  0  0  0  0  0  0  0  0  0  0  0
    5.6677   -0.5911   -1.7269 N   0  0  0  0  0  0  0  0  0  0  0  0
    6.5968   -1.4113   -1.1500 O   0  0  0  0  0  0  0  0  0  0  0  0
    5.9658   -0.0177   -2.7717 O   0  0  0  0  0  0  0  0  0  0  0  0
   -1.3744   -0.0284   -0.7733 S   0  0  0  0  0  0  0  0  0  0  0  0
   -2.0997    0.9493   -1.6609 O   0  0  0  0  0  0  0  0  0  0  0  0
   -0.5163   -0.8410   -1.7480 O   0  0  0  0  0  0  0  0  0  0  0  0
   -2.5432   -1.0663   -0.0275 C   0  0  0  0  0  0  0  0  0  0  0  0
   -2.5974   -1.3262    1.3078 C   0  0  0  0  0  0  0  0  0  0  0  0
   -3.5686   -2.1929    1.8296 C   0  0  0  0  0  0  0  0  0  0  0  0
   -4.4883   -2.8013    1.0091 C   0  0  0  0  0  0  0  0  0  0  0  0
   -5.7128   -3.8945    1.6697 Cl  0  0  0  0  0  0  0  0  0  0  0  0
   -4.4349   -2.5407   -0.3380 C   0  0  0  0  0  0  0  0  0  0  0  0
   -3.4754   -1.6873   -0.8339 C   0  0  0  0  0  0  0  0  0  0  0  0
   -3.4853   -1.4136   -2.5778 Cl  0  0  0  0  0  0  0  0  0  0  0  0
    0.0106    5.3653   -0.2274 H   0  0  0  0  0  0  0  0  0  0  0  0
   -0.0261    2.8542   -1.1183 H   0  0  0  0  0  0  0  0  0  0  0  0
   -1.9503    1.3645    1.5396 H   0  0  0  0  0  0  0  0  0  0  0  0
   -0.3084    1.6403    2.1354 H   0  0  0  0  0  0  0  0  0  0  0  0
    0.8904    0.3595    1.9096 H   0  0  0  0  0  0  0  0  0  0  0  0
    0.2758   -1.0893    1.1037 H   0  0  0  0  0  0  0  0  0  0  0  0
    2.7359   -1.4968    1.5892 H   0  0  0  0  0  0  0  0  0  0  0  0
    4.9140   -1.7564    0.4965 H   0  0  0  0  0  0  0  0  0  0  0  0
    3.6510    0.9151   -2.5763 H   0  0  0  0  0  0  0  0  0  0  0  0
    1.5206    1.1533   -1.4838 H   0  0  0  0  0  0  0  0  0  0  0  0
   -1.8958   -0.8844    1.9927 H   0  0  0  0  0  0  0  0  0  0  0  0
   -3.6140   -2.4000    2.8848 H   0  0  0  0  0  0  0  0  0  0  0  0
   -5.1668   -3.0278   -0.9745 H   0  0  0  0  0  0  0  0  0  0  0  0
  1  2  1  0
  2  3  1  0
  3  4  2  0
  3  5  1  0
  5  6  1  0
  6  7  1  0
  7  8  1  0
  8  9  2  0
  9 10  1  0
 10 11  2  0
 11 12  1  0
 12 13  2  0
 11 14  1  0
 14 15  1  0
 14 16  2  0
  6 17  1  0
 17 18  2  0
 17 19  2  0
 17 20  1  0
 20 21  2  0
 21 22  1  0
 22 23  2  0
 23 24  1  0
 23 25  1  0
 25 26  2  0
 26 27  1  0
 13  8  1  0
 26 20  1  0
  1 28  1  0
  2 29  1  0
  5 30  1  0
  5 31  1  0
  7 32  1  0
  7 33  1  0
  9 34  1  0
 10 35  1  0
 12 36  1  0
 13 37  1  0
 21 38  1  0
 22 39  1  0
 25 40  1  0
M  CHG  2  14   1  15  -1
M  END
$$$$
[H]OC([H])([H])[C@]1([H])N([H])C([H])([H])[C@]([H])(O[H])[C@]([H])(O[H])[C@@]([H])(O[H])[C@]([H])(O[H])[C@@]1([H])O[H]
     RDKit          3D

 32 32  0  0  0  0  0  0  0  0999 V2000
    3.5527   -0.4391   -0.4027 O   0  0  0  0  0  0  0  0  0  0  0  0
    2.7899   -0.4877    0.7630 C   0  0  0  0  0  0  0  0  0  0  0  0
    1.2931   -0.3708    0.4360 C   0  0  1  0  0  0  0  0  0  0  0  0
    1.1501    1.0027   -0.2356 C   0  0  2  0  0  0  0  0  0  0  0  0
    2.0118    1.8555    0.4559 O   0  0  0  0  0  0  0  0  0  0  0  0
   -0.2484    1.5480   -0.0292 C   0  0  1  0  0  0  0  0  0  0  0  0
   -0.2654    2.8853   -0.3477 O   0  0  0  0  0  0  0  0  0  0  0  0
   -1.2159    0.7218   -0.8508 C   0  0  2  0  0  0  0  0  0  0  0  0
   -2.1199    1.5637   -1.5407 O   0  0  0  0  0  0  0  0  0  0  0  0
   -2.0088   -0.1192    0.0812 C   0  0  1  0  0  0  0  0  0  0  0  0
   -3.2970   -0.3229   -0.4627 O   0  0  0  0  0  0  0  0  0  0  0  0
   -1.3575   -1.3975    0.4989 C   0  0  1  0  0  0  0  0  0  0  0  0
   -2.4045   -2.3517    0.5655 O   0  0  0  0  0  0  0  0  0  0  0  0
   -0.3488   -1.9362   -0.4326 C   0  0  0  0  0  0  0  0  0  0  0  0
    0.9470   -1.4374   -0.3950 N   0  0  0  0  0  0  0  0  0  0  0  0
    4.4292   -0.8470   -0.1788 H   0  0  0  0  0  0  0  0  0  0  0  0
    3.1234    0.3571    1.3951 H   0  0  0  0  0  0  0  0  0  0  0  0
    3.0267   -1.4180    1.2832 H   0  0  0  0  0  0  0  0  0  0  0  0
    0.7826   -0.2939    1.3924 H   0  0  0  0  0  0  0  0  0  0  0  0
    1.4011    0.8881   -1.2919 H   0  0  0  0  0  0  0  0  0  0  0  0
    2.2317    2.6361   -0.1101 H   0  0  0  0  0  0  0  0  0  0  0  0
   -0.4532    1.4620    1.0674 H   0  0  0  0  0  0  0  0  0  0  0  0
   -0.9024    3.3450    0.2592 H   0  0  0  0  0  0  0  0  0  0  0  0
   -0.6573    0.1880   -1.6217 H   0  0  0  0  0  0  0  0  0  0  0  0
   -2.2714    2.4007   -1.0479 H   0  0  0  0  0  0  0  0  0  0  0  0
   -2.1949    0.4794    1.0173 H   0  0  0  0  0  0  0  0  0  0  0  0
   -3.8964    0.4249   -0.2131 H   0  0  0  0  0  0  0  0  0  0  0  0
   -0.9602   -1.3381    1.5374 H   0  0  0  0  0  0  0  0  0  0  0  0
   -2.5416   -2.7066    1.4556 H   0  0  0  0  0  0  0  0  0  0  0  0
   -0.7516   -1.8446   -1.4847 H   0  0  0  0  0  0  0  0  0  0  0  0
   -0.3050   -3.0571   -0.2760 H   0  0  0  0  0  0  0  0  0  0  0  0
    1.4610   -1.3907   -1.2871 H   0  0  0  0  0  0  0  0  0  0  0  0
  1  2  1  0
  2  3  1  0
  3  4  1  0
  4  5  1  0
  4  6  1  0
  6  7  1  0
  6  8  1  0
  8  9  1  0
  8 10  1  0
 10 11  1  0
 10 12  1  0
 12 13  1  0
 12 14  1  0
 14 15  1  0
 15  3  1  0
  1 16  1  0
  2 17  1  0
  2 18  1  0
  3 19  1  1
  4 20  1  6
  5 21  1  0
  6 22  1  1
  7 23  1  0
  8 24  1  6
  9 25  1  0
 10 26  1  1
 11 27  1  0
 12 28  1  1
 13 29  1  0
 14 30  1  0
 14 31  1  0
 15 32  1  0
M  END
$$$$
[H]c1c([H])c(S(=O)(=O)N([H])c2c([H])c(C(=O)N([H])[H])c([H])c(C(F)(F)F)c2[H])c([H])c(OC([H])([H])[H])c1OC([H])([H])[H]
     RDKit          3D

 42 43  0  0  0  0  0  0  0  0999 V2000
   -6.5879   -1.3349    0.2799 C   0  0  0  0  0  0  0  0  0  0  0  0
   -5.5956   -0.3263    0.2935 O   0  0  0  0  0  0  0  0  0  0  0  0
   -4.2537   -0.6194    0.1181 C   0  0  0  0  0  0  0  0  0  0  0  0
   -3.8315   -1.9015   -0.0753 C   0  0  0  0  0  0  0  0  0  0  0  0
   -2.5172   -2.2264   -0.2532 C   0  0  0  0  0  0  0  0  0  0  0  0
   -1.5389   -1.2284   -0.2509 C   0  0  0  0  0  0  0  0  0  0  0  0
   -1.9394    0.0749   -0.0554 C   0  0  0  0  0  0  0  0  0  0  0  0
   -3.2827    0.4114    0.1345 C   0  0  0  0  0  0  0  0  0  0  0  0
   -3.7027    1.6458    0.3327 O   0  0  0  0  0  0  0  0  0  0  0  0
   -3.7648    2.9237    0.4952 C   0  0  0  0  0  0  0  0  0  0  0  0
    0.1003   -1.7697   -0.4531 S   0  0  0  0  0  0  0  0  0  0  0  0
    0.6279   -1.2420   -1.7935 O   0  0  0  0  0  0  0  0  0  0  0  0
    0.1540   -3.2629   -0.5481 O   0  0  0  0  0  0  0  0  0  0  0  0
    1.1720   -1.2555    0.7916 N   0  0  0  0  0  0  0  0  0  0  0  0
    2.3394   -0.5323    0.4224 C   0  0  0  0  0  0  0  0  0  0  0  0
    2.5650    0.7706    0.7028 C   0  0  0  0  0  0  0  0  0  0  0  0
    3.7418    1.4147    0.2602 C   0  0  0  0  0  0  0  0  0  0  0  0
    4.6844    0.7330   -0.4612 C   0  0  0  0  0  0  0  0  0  0  0  0
    4.4741   -0.5926   -0.7541 C   0  0  0  0  0  0  0  0  0  0  0  0
    3.3226   -1.2118   -0.3202 C   0  0  0  0  0  0  0  0  0  0  0  0
    5.4841   -1.4099   -1.4952 C   0  0  0  0  0  0  0  0  0  0  0  0
    6.0278   -2.4020   -0.6807 F   0  0  0  0  0  0  0  0  0  0  0  0
    6.5149   -0.6124   -1.9235 F   0  0  0  0  0  0  0  0  0  0  0  0
    4.8734   -2.0868   -2.5469 F   0  0  0  0  0  0  0  0  0  0  0  0
    4.0125    2.8102    0.5400 C   0  0  0  0  0  0  0  0  0  0  0  0
    3.6520    3.3940    1.7620 N   0  0  0  0  0  0  0  0  0  0  0  0
    4.5820    3.4866   -0.3481 O   0  0  0  0  0  0  0  0  0  0  0  0
   -6.2759   -2.2230    0.8710 H   0  0  0  0  0  0  0  0  0  0  0  0
   -6.6837   -1.6484   -0.8023 H   0  0  0  0  0  0  0  0  0  0  0  0
   -7.5792   -0.9600    0.5623 H   0  0  0  0  0  0  0  0  0  0  0  0
   -4.5604   -2.7316   -0.0905 H   0  0  0  0  0  0  0  0  0  0  0  0
   -2.2345   -3.2793   -0.3942 H   0  0  0  0  0  0  0  0  0  0  0  0
   -1.1646    0.8598   -0.0473 H   0  0  0  0  0  0  0  0  0  0  0  0
   -2.7844    3.4711    0.4626 H   0  0  0  0  0  0  0  0  0  0  0  0
   -4.2948    3.2774    1.4491 H   0  0  0  0  0  0  0  0  0  0  0  0
   -4.3728    3.4785   -0.3171 H   0  0  0  0  0  0  0  0  0  0  0  0
    1.0081   -1.4496    1.7877 H   0  0  0  0  0  0  0  0  0  0  0  0
    1.8584    1.3457    1.2751 H   0  0  0  0  0  0  0  0  0  0  0  0
    5.6089    1.1673   -0.8335 H   0  0  0  0  0  0  0  0  0  0  0  0
    3.1606   -2.2540   -0.5579 H   0  0  0  0  0  0  0  0  0  0  0  0
    3.6336    2.8839    2.6717 H   0  0  0  0  0  0  0  0  0  0  0  0
    3.3672    4.4123    1.8478 H   0  0  0  0  0  0  0  0  0  0  0  0
  1  2  1  0
  2  3  1  0
  3  4  2  0
  4  5  1  0
  5  6  2  0
  6  7  1  0
  7  8  2  0
  8  9  1  0
  9 10  1  0
  6 11  1  0
 11 12  2  0
 11 13  2  0
 11 14  1  0
 14 15  1  0
 15 16  2  0
 16 17  1  0
 17 18  2  0
 18 19  1  0
 19 20  2  0
 19 21  1  0
 21 22  1  0
 21 23  1  0
 21 24  1  0
 17 25  1  0
 25 26  1  0
 25 27  2  0
  8  3  1  0
 20 15  1  0
  1 28  1  0
  1 29  1  0
  1 30  1  0
  4 31  1  0
  5 32  1  0
  7 33  1  0
 10 34  1  0
 10 35  1  0
 10 36  1  0
 14 37  1  0
 16 38  1  0
 18 39  1  0
 20 40  1  0
 26 41  1  0
 26 42  1  0
M  END
$$$$
[H]N=C(N([H])[H])N([H])C([H])([H])C([H])([H])C([H])([H])[C@@]([H])(C(=O)O[H])N([H])C(=O)[C@]([H])(N([H])C(=O)[C@@]([H])(N([H])C(=O)[C@]([H])(N([H])C(=O)[C@@]([H])(N([H])C(=O)[C@@]([H])(N([H])C(=O)[C@@]([H])(N([H])C(=O)C([H])(C([H])([H])O[H])C([H])([H])O[H])C([H])([H])O[H])C([H])([H])O[H])C([H])([H])O[H])C([H])([H])O[H])C([H])([H])O[H])C([H])([H])O[H]
     RDKit          3D

105104  0  0  0  0  0  0  0  0999 V2000
  -10.6534    3.7170   -3.5533 N   0  0  0  0  0  0  0  0  0  0  0  0
  -11.8543    3.3115   -2.9197 C   0  0  0  0  0  0  0  0  0  0  0  0
  -12.4453    4.1893   -2.1586 N   0  0  0  0  0  0  0  0  0  0  0  0
  -12.4491    2.0474   -3.0621 N   0  0  0  0  0  0  0  0  0  0  0  0
  -11.8063    0.7959   -2.9853 C   0  0  0  0  0  0  0  0  0  0  0  0
  -11.2886    0.3449   -1.6671 C   0  0  0  0  0  0  0  0  0  0  0  0
  -10.2537    1.1895   -1.0199 C   0  0  0  0  0  0  0  0  0  0  0  0
   -9.8080    0.6794    0.3352 C   0  0  2  0  0  0  0  0  0  0  0  0
   -9.2541   -0.6807    0.2295 N   0  0  0  0  0  0  0  0  0  0  0  0
   -7.8855   -0.9064    0.0303 C   0  0  0  0  0  0  0  0  0  0  0  0
   -7.1373    0.1339   -0.0968 O   0  0  0  0  0  0  0  0  0  0  0  0
   -7.2402   -2.2220   -0.0435 C   0  0  1  0  0  0  0  0  0  0  0  0
   -7.9147   -3.2918   -0.8124 C   0  0  0  0  0  0  0  0  0  0  0  0
   -9.2252   -3.5070   -0.4642 O   0  0  0  0  0  0  0  0  0  0  0  0
   -5.8403   -2.0725   -0.4424 N   0  0  0  0  0  0  0  0  0  0  0  0
   -4.7962   -1.9660    0.4890 C   0  0  0  0  0  0  0  0  0  0  0  0
   -5.0321   -1.9718    1.7433 O   0  0  0  0  0  0  0  0  0  0  0  0
   -3.3796   -1.8463    0.0987 C   0  0  2  0  0  0  0  0  0  0  0  0
   -3.0466   -3.2485   -0.5031 C   0  0  0  0  0  0  0  0  0  0  0  0
   -3.2298   -4.2333    0.4363 O   0  0  0  0  0  0  0  0  0  0  0  0
   -2.4992   -1.6370    1.2099 N   0  0  0  0  0  0  0  0  0  0  0  0
   -1.1765   -1.2235    1.0121 C   0  0  0  0  0  0  0  0  0  0  0  0
   -0.7353   -1.0466   -0.1469 O   0  0  0  0  0  0  0  0  0  0  0  0
   -0.2687   -0.9847    2.1589 C   0  0  1  0  0  0  0  0  0  0  0  0
   -0.7906   -1.4612    3.4690 C   0  0  0  0  0  0  0  0  0  0  0  0
    0.0970   -1.0410    4.4766 O   0  0  0  0  0  0  0  0  0  0  0  0
    1.0512   -1.4829    1.8237 N   0  0  0  0  0  0  0  0  0  0  0  0
    2.1402   -0.6948    1.3991 C   0  0  0  0  0  0  0  0  0  0  0  0
    1.9130    0.5629    1.2940 O   0  0  0  0  0  0  0  0  0  0  0  0
    3.4852   -1.1750    1.0738 C   0  0  2  0  0  0  0  0  0  0  0  0
    4.1025   -1.6480    2.3955 C   0  0  0  0  0  0  0  0  0  0  0  0
    3.3714   -2.7298    2.8420 O   0  0  0  0  0  0  0  0  0  0  0  0
    4.2805   -0.0468    0.5847 N   0  0  0  0  0  0  0  0  0  0  0  0
    5.2807   -0.2479   -0.3980 C   0  0  0  0  0  0  0  0  0  0  0  0
    5.4832   -1.3897   -0.8441 O   0  0  0  0  0  0  0  0  0  0  0  0
    6.0829    0.8859   -0.8893 C   0  0  2  0  0  0  0  0  0  0  0  0
    5.6619    1.3088   -2.2884 C   0  0  0  0  0  0  0  0  0  0  0  0
    4.3885    1.8597   -2.3302 O   0  0  0  0  0  0  0  0  0  0  0  0
    7.4436    0.3480   -1.0564 N   0  0  0  0  0  0  0  0  0  0  0  0
    8.5661    0.9536   -0.5145 C   0  0  0  0  0  0  0  0  0  0  0  0
    8.4163    2.0359    0.1512 O   0  0  0  0  0  0  0  0  0  0  0  0
    9.9220    0.3797   -0.6848 C   0  0  2  0  0  0  0  0  0  0  0  0
    9.8290   -1.0254   -0.0588 C   0  0  0  0  0  0  0  0  0  0  0  0
   11.0673   -1.6662   -0.1559 O   0  0  0  0  0  0  0  0  0  0  0  0
   10.9228    1.1573   -0.0022 N   0  0  0  0  0  0  0  0  0  0  0  0
   12.1749    1.5508   -0.4675 C   0  0  0  0  0  0  0  0  0  0  0  0
   12.4843    1.1773   -1.6585 O   0  0  0  0  0  0  0  0  0  0  0  0
   13.1590    2.3417    0.2653 C   0  0  0  0  0  0  0  0  0  0  0  0
   12.7610    3.7838    0.4340 C   0  0  0  0  0  0  0  0  0  0  0  0
   11.5600    3.9169    1.1262 O   0  0  0  0  0  0  0  0  0  0  0  0
   14.5463    2.2661   -0.3115 C   0  0  0  0  0  0  0  0  0  0  0  0
   15.3666    3.0632    0.4949 O   0  0  0  0  0  0  0  0  0  0  0  0
  -10.8435    0.7056    1.3652 C   0  0  0  0  0  0  0  0  0  0  0  0
  -11.5017    1.8845    1.6556 O   0  0  0  0  0  0  0  0  0  0  0  0
  -11.1677   -0.3413    2.0169 O   0  0  0  0  0  0  0  0  0  0  0  0
   -9.8241    4.0080   -3.0211 H   0  0  0  0  0  0  0  0  0  0  0  0
  -10.6307    3.7187   -4.5928 H   0  0  0  0  0  0  0  0  0  0  0  0
  -13.3260    3.9648   -1.6642 H   0  0  0  0  0  0  0  0  0  0  0  0
  -13.5022    2.0651   -3.2404 H   0  0  0  0  0  0  0  0  0  0  0  0
  -12.5054   -0.0376   -3.3294 H   0  0  0  0  0  0  0  0  0  0  0  0
  -10.9793    0.7334   -3.7563 H   0  0  0  0  0  0  0  0  0  0  0  0
  -12.1326    0.0694   -0.9699 H   0  0  0  0  0  0  0  0  0  0  0  0
  -10.8121   -0.6750   -1.8654 H   0  0  0  0  0  0  0  0  0  0  0  0
  -10.5368    2.2531   -0.8898 H   0  0  0  0  0  0  0  0  0  0  0  0
   -9.3170    1.2127   -1.6487 H   0  0  0  0  0  0  0  0  0  0  0  0
   -8.9661    1.3648    0.6630 H   0  0  0  0  0  0  0  0  0  0  0  0
   -9.9806   -1.4214    0.3252 H   0  0  0  0  0  0  0  0  0  0  0  0
   -7.1935   -2.5532    1.0581 H   0  0  0  0  0  0  0  0  0  0  0  0
   -7.8773   -3.1279   -1.9143 H   0  0  0  0  0  0  0  0  0  0  0  0
   -7.3186   -4.2478   -0.6717 H   0  0  0  0  0  0  0  0  0  0  0  0
   -9.2490   -3.7202    0.4960 H   0  0  0  0  0  0  0  0  0  0  0  0
   -5.6065   -2.0453   -1.4666 H   0  0  0  0  0  0  0  0  0  0  0  0
   -3.1704   -1.1509   -0.6989 H   0  0  0  0  0  0  0  0  0  0  0  0
   -1.9964   -3.2519   -0.8349 H   0  0  0  0  0  0  0  0  0  0  0  0
   -3.7903   -3.3828   -1.3109 H   0  0  0  0  0  0  0  0  0  0  0  0
   -3.3649   -5.1304    0.0578 H   0  0  0  0  0  0  0  0  0  0  0  0
   -2.8608   -1.7976    2.1740 H   0  0  0  0  0  0  0  0  0  0  0  0
   -0.2375    0.1509    2.2348 H   0  0  0  0  0  0  0  0  0  0  0  0
   -0.9381   -2.5558    3.5415 H   0  0  0  0  0  0  0  0  0  0  0  0
   -1.7647   -0.9790    3.6661 H   0  0  0  0  0  0  0  0  0  0  0  0
   -0.0797   -0.0920    4.7463 H   0  0  0  0  0  0  0  0  0  0  0  0
    1.1725   -2.5104    1.9072 H   0  0  0  0  0  0  0  0  0  0  0  0
    3.5846   -1.9997    0.3858 H   0  0  0  0  0  0  0  0  0  0  0  0
    4.0073   -0.8462    3.1625 H   0  0  0  0  0  0  0  0  0  0  0  0
    5.1500   -1.9328    2.3061 H   0  0  0  0  0  0  0  0  0  0  0  0
    3.3888   -3.4034    2.1018 H   0  0  0  0  0  0  0  0  0  0  0  0
    4.0985    0.8785    0.9629 H   0  0  0  0  0  0  0  0  0  0  0  0
    6.0792    1.7779   -0.2671 H   0  0  0  0  0  0  0  0  0  0  0  0
    6.3777    2.1106   -2.6085 H   0  0  0  0  0  0  0  0  0  0  0  0
    5.8014    0.4960   -3.0399 H   0  0  0  0  0  0  0  0  0  0  0  0
    4.0953    2.1355   -1.4247 H   0  0  0  0  0  0  0  0  0  0  0  0
    7.5246   -0.5279   -1.6092 H   0  0  0  0  0  0  0  0  0  0  0  0
   10.1427    0.2606   -1.7422 H   0  0  0  0  0  0  0  0  0  0  0  0
    9.1196   -1.6172   -0.6906 H   0  0  0  0  0  0  0  0  0  0  0  0
    9.4284   -1.0126    0.9542 H   0  0  0  0  0  0  0  0  0  0  0  0
   10.9090   -2.6296   -0.0440 H   0  0  0  0  0  0  0  0  0  0  0  0
   10.6493    1.4593    0.9844 H   0  0  0  0  0  0  0  0  0  0  0  0
   13.1831    1.9207    1.3145 H   0  0  0  0  0  0  0  0  0  0  0  0
   13.5676    4.3644    0.9751 H   0  0  0  0  0  0  0  0  0  0  0  0
   12.6511    4.3080   -0.5293 H   0  0  0  0  0  0  0  0  0  0  0  0
   11.7586    4.2937    2.0099 H   0  0  0  0  0  0  0  0  0  0  0  0
   14.5442    2.6577   -1.3469 H   0  0  0  0  0  0  0  0  0  0  0  0
   14.8506    1.2121   -0.2887 H   0  0  0  0  0  0  0  0  0  0  0  0
   16.0955    2.4544    0.8354 H   0  0  0  0  0  0  0  0  0  0  0  0
  -12.2533    1.9755    2.3286 H   0  0  0  0  0  0  0  0  0  0  0  0
  1  2  1  0
  2  3  2  3
  2  4  1  0
  4  5  1  0
  5  6  1  0
  6  7  1  0
  7  8  1  0
  8  9  1  0
  9 10  1  0
 10 11  2  0
 10 12  1  0
 12 13  1  0
 13 14  1  0
 12 15  1  0
 15 16  1  0
 16 17  2  0
 16 18  1  0
 18 19  1  0
 19 20  1  0
 18 21  1  0
 21 22  1  0
 22 23  2  0
 22 24  1  0
 24 25  1  0
 25 26  1  0
 24 27  1  0
 27 28  1  0
 28 29  2  0
 28 30  1  0
 30 31  1  0
 31 32  1  0
 30 33  1  0
 33 34  1  0
 34 35  2  0
 34 36  1  0
 36 37  1  0
 37 38  1  0
 36 39  1  0
 39 40  1  0
 40 41  2  0
 40 42  1  0
 42 43  1  0
 43 44  1  0
 42 45  1  0
 45 46  1  0
 46 47  2  0
 46 48  1  0
 48 49  1  0
 49 50  1  0
 48 51  1  0
 51 52  1  0
  8 53  1  0
 53 54  1  0
 53 55  2  0
  1 56  1  0
  1 57  1  0
  3 58  1  0
  4 59  1  0
  5 60  1  0
  5 61  1  0
  6 62  1  0
  6 63  1  0
  7 64  1  0
  7 65  1  0
  8 66  1  1
  9 67  1  0
 12 68  1  1
 13 69  1  0
 13 70  1  0
 14 71  1  0
 15 72  1  0
 18 73  1  6
 19 74  1  0
 19 75  1  0
 20 76  1  0
 21 77  1  0
 24 78  1  1
 25 79  1  0
 25 80  1  0
 26 81  1  0
 27 82  1  0
 30 83  1  6
 31 84  1  0
 31 85  1  0
 32 86  1  0
 33 87  1  0
 36 88  1  1
 37 89  1  0
 37 90  1  0
 38 91  1  0
 39 92  1  0
 42 93  1  6
 43 94  1  0
 43 95  1  0
 44 96  1  0
 45 97  1  0
 48 98  1  0
 49 99  1  0
 49100  1  0
 50101  1  0
 51102  1  0
 51103  1  0
 52104  1  0
 54105  1  0
M  END
$$$$
[H]c1nc([H])c(-c2c([H])c3nc(N([H])C(=O)N([H])C([H])([H])C([H])([H])[H])sc3n(C([H])([H])[H])c2=O)c([H])c1[H]
     RDKit          3D

 38 40  0  0  0  0  0  0  0  0999 V2000
    7.7295    0.0440    1.2563 C   0  0  0  0  0  0  0  0  0  0  0  0
    6.5068    0.3677    0.4308 C   0  0  0  0  0  0  0  0  0  0  0  0
    5.2888   -0.0240    1.0816 N   0  0  0  0  0  0  0  0  0  0  0  0
    4.0477    0.1993    0.4610 C   0  0  0  0  0  0  0  0  0  0  0  0
    3.9972    0.7522   -0.6859 O   0  0  0  0  0  0  0  0  0  0  0  0
    2.8477   -0.1912    1.1114 N   0  0  0  0  0  0  0  0  0  0  0  0
    1.6096    0.0495    0.4552 C   0  0  0  0  0  0  0  0  0  0  0  0
    0.4321   -0.2464    0.9139 N   0  0  0  0  0  0  0  0  0  0  0  0
   -0.6363    0.0231    0.2199 C   0  0  0  0  0  0  0  0  0  0  0  0
   -1.9545   -0.2285    0.5691 C   0  0  0  0  0  0  0  0  0  0  0  0
   -3.0031    0.0941   -0.2315 C   0  0  0  0  0  0  0  0  0  0  0  0
   -4.3979   -0.1703    0.1452 C   0  0  0  0  0  0  0  0  0  0  0  0
   -4.8616   -1.3493    0.6404 C   0  0  0  0  0  0  0  0  0  0  0  0
   -6.1919   -1.5268    0.9813 C   0  0  0  0  0  0  0  0  0  0  0  0
   -7.0667   -0.4644    0.8083 C   0  0  0  0  0  0  0  0  0  0  0  0
   -6.6164    0.6937    0.3230 N   0  0  0  0  0  0  0  0  0  0  0  0
   -5.2983    0.8564   -0.0102 C   0  0  0  0  0  0  0  0  0  0  0  0
   -2.7941    0.7027   -1.4607 C   0  0  0  0  0  0  0  0  0  0  0  0
   -3.7062    1.0290   -2.2530 O   0  0  0  0  0  0  0  0  0  0  0  0
   -1.5009    0.9566   -1.8174 N   0  0  0  0  0  0  0  0  0  0  0  0
   -1.1626    1.5866   -3.0735 C   0  0  0  0  0  0  0  0  0  0  0  0
   -0.4627    0.6257   -1.0008 C   0  0  0  0  0  0  0  0  0  0  0  0
    1.2608    0.7607   -1.0568 S   0  0  0  0  0  0  0  0  0  0  0  0
    8.4835    0.8331    1.0609 H   0  0  0  0  0  0  0  0  0  0  0  0
    7.4778    0.0118    2.3402 H   0  0  0  0  0  0  0  0  0  0  0  0
    8.1385   -0.9564    0.9287 H   0  0  0  0  0  0  0  0  0  0  0  0
    6.4733    1.4652    0.2533 H   0  0  0  0  0  0  0  0  0  0  0  0
    6.5648   -0.1869   -0.5279 H   0  0  0  0  0  0  0  0  0  0  0  0
    5.3296   -0.4725    2.0119 H   0  0  0  0  0  0  0  0  0  0  0  0
    2.8920   -0.6437    2.0505 H   0  0  0  0  0  0  0  0  0  0  0  0
   -2.2138   -0.7089    1.5269 H   0  0  0  0  0  0  0  0  0  0  0  0
   -4.1868   -2.1722    0.7750 H   0  0  0  0  0  0  0  0  0  0  0  0
   -6.5441   -2.4685    1.3730 H   0  0  0  0  0  0  0  0  0  0  0  0
   -8.1085   -0.5470    1.0561 H   0  0  0  0  0  0  0  0  0  0  0  0
   -5.0563    1.8373   -0.3879 H   0  0  0  0  0  0  0  0  0  0  0  0
   -0.2080    1.2107   -3.4984 H   0  0  0  0  0  0  0  0  0  0  0  0
   -1.9464    1.3627   -3.8320 H   0  0  0  0  0  0  0  0  0  0  0  0
   -1.1627    2.6934   -2.9379 H   0  0  0  0  0  0  0  0  0  0  0  0
  1  2  1  0
  2  3  1  0
  3  4  1  0
  4  5  2  0
  4  6  1  0
  6  7  1  0
  7  8  2  0
  8  9  1  0
  9 10  1  0
 10 11  2  0
 11 12  1  0
 12 13  2  0
 13 14  1  0
 14 15  2  0
 15 16  1  0
 16 17  2  0
 11 18  1  0
 18 19  2  0
 18 20  1  0
 20 21  1  0
 20 22  1  0
 22 23  1  0
 23  7  1  0
 22  9  2  0
 17 12  1  0
  1 24  1  0
  1 25  1  0
  1 26  1  0
  2 27  1  0
  2 28  1  0
  3 29  1  0
  6 30  1  0
 10 31  1  0
 13 32  1  0
 14 33  1  0
 15 34  1  0
 17 35  1  0
 21 36  1  0
 21 37  1  0
 21 38  1  0
M  END
$$$$
[H]c1c([H])c(N([H])C(=O)c2c(C([H])([H])[H])c(C(=O)C(=O)N([H])C3(c4nnn([H])c4[H])C([H])([H])C3([H])[H])c3n2C([H])([H])C([H])([H])C3([H])[H])c([H])c(C([H])(F)F)c1F
     RDKit          3D

 56 60  0  0  0  0  0  0  0  0999 V2000
    0.0233    1.9414    1.2402 C   0  0  0  0  0  0  0  0  0  0  0  0
    0.2095    0.5244    0.7830 C   0  0  0  0  0  0  0  0  0  0  0  0
   -0.8279   -0.3503    0.6395 C   0  0  0  0  0  0  0  0  0  0  0  0
   -2.2145   -0.4389    0.9596 C   0  0  0  0  0  0  0  0  0  0  0  0
   -2.5413   -1.0470    2.0642 O   0  0  0  0  0  0  0  0  0  0  0  0
   -3.3563    0.0498    0.1889 C   0  0  0  0  0  0  0  0  0  0  0  0
   -3.2956    1.1249   -0.4141 O   0  0  0  0  0  0  0  0  0  0  0  0
   -4.4786   -0.8399    0.2080 N   0  0  0  0  0  0  0  0  0  0  0  0
   -5.7309   -0.6319   -0.4155 C   0  0  0  0  0  0  0  0  0  0  0  0
   -6.5430   -1.8382   -0.8338 C   0  0  0  0  0  0  0  0  0  0  0  0
   -6.8692   -1.2276    0.4601 C   0  0  0  0  0  0  0  0  0  0  0  0
   -6.1505    0.6754   -0.9662 C   0  0  0  0  0  0  0  0  0  0  0  0
   -7.2413    1.4586   -0.5464 C   0  0  0  0  0  0  0  0  0  0  0  0
   -7.3360    2.5601   -1.3120 N   0  0  0  0  0  0  0  0  0  0  0  0
   -6.3548    2.4995   -2.1831 N   0  0  0  0  0  0  0  0  0  0  0  0
   -5.6364    1.3712   -1.9879 N   0  0  0  0  0  0  0  0  0  0  0  0
   -0.1667   -1.5484    0.1534 C   0  0  0  0  0  0  0  0  0  0  0  0
   -0.5049   -2.9390   -0.2535 C   0  0  0  0  0  0  0  0  0  0  0  0
    0.8494   -3.6132    0.0648 C   0  0  0  0  0  0  0  0  0  0  0  0
    1.7944   -2.5352   -0.4339 C   0  0  0  0  0  0  0  0  0  0  0  0
    1.1119   -1.3239    0.0529 N   0  0  0  0  0  0  0  0  0  0  0  0
    1.4134   -0.0250    0.4385 C   0  0  0  0  0  0  0  0  0  0  0  0
    2.7591    0.4433    0.3398 C   0  0  0  0  0  0  0  0  0  0  0  0
    3.6565   -0.4047    0.8173 O   0  0  0  0  0  0  0  0  0  0  0  0
    3.3230    1.6024   -0.1720 N   0  0  0  0  0  0  0  0  0  0  0  0
    4.7580    1.7756   -0.2094 C   0  0  0  0  0  0  0  0  0  0  0  0
    5.3381    3.0435   -0.1538 C   0  0  0  0  0  0  0  0  0  0  0  0
    6.6945    3.2261   -0.2363 C   0  0  0  0  0  0  0  0  0  0  0  0
    7.5471    2.1252   -0.3812 C   0  0  0  0  0  0  0  0  0  0  0  0
    8.9060    2.2836   -0.4828 F   0  0  0  0  0  0  0  0  0  0  0  0
    7.0152    0.8663   -0.4390 C   0  0  0  0  0  0  0  0  0  0  0  0
    5.6371    0.7374   -0.3525 C   0  0  0  0  0  0  0  0  0  0  0  0
    7.8844   -0.3306   -0.5952 C   0  0  0  0  0  0  0  0  0  0  0  0
    7.6539   -1.0829    0.5705 F   0  0  0  0  0  0  0  0  0  0  0  0
    7.4749   -1.1318   -1.6428 F   0  0  0  0  0  0  0  0  0  0  0  0
    0.7338    2.6357    0.7559 H   0  0  0  0  0  0  0  0  0  0  0  0
    0.0755    2.0169    2.3435 H   0  0  0  0  0  0  0  0  0  0  0  0
   -1.0052    2.3137    0.9584 H   0  0  0  0  0  0  0  0  0  0  0  0
   -4.3215   -1.7654    0.7423 H   0  0  0  0  0  0  0  0  0  0  0  0
   -7.1595   -1.6757   -1.7412 H   0  0  0  0  0  0  0  0  0  0  0  0
   -6.0068   -2.8388   -0.8769 H   0  0  0  0  0  0  0  0  0  0  0  0
   -6.5684   -1.7523    1.3792 H   0  0  0  0  0  0  0  0  0  0  0  0
   -7.8229   -0.6918    0.5476 H   0  0  0  0  0  0  0  0  0  0  0  0
   -7.9083    1.1971    0.2616 H   0  0  0  0  0  0  0  0  0  0  0  0
   -8.0755    3.2758   -1.1686 H   0  0  0  0  0  0  0  0  0  0  0  0
   -1.2681   -3.3776    0.4030 H   0  0  0  0  0  0  0  0  0  0  0  0
   -0.6811   -3.0457   -1.3115 H   0  0  0  0  0  0  0  0  0  0  0  0
    0.9572   -4.5715   -0.4136 H   0  0  0  0  0  0  0  0  0  0  0  0
    0.8981   -3.6429    1.1841 H   0  0  0  0  0  0  0  0  0  0  0  0
    2.8139   -2.6417   -0.0059 H   0  0  0  0  0  0  0  0  0  0  0  0
    1.8131   -2.5449   -1.5175 H   0  0  0  0  0  0  0  0  0  0  0  0
    2.7560    2.3776   -0.5409 H   0  0  0  0  0  0  0  0  0  0  0  0
    4.6351    3.8943   -0.0522 H   0  0  0  0  0  0  0  0  0  0  0  0
    7.1132    4.2113   -0.1993 H   0  0  0  0  0  0  0  0  0  0  0  0
    5.2814   -0.2694   -0.4565 H   0  0  0  0  0  0  0  0  0  0  0  0
    8.9382   -0.1047   -0.7137 H   0  0  0  0  0  0  0  0  0  0  0  0
  1  2  1  0
  2  3  1  0
  3  4  1  0
  4  5  2  0
  4  6  1  0
  6  7  2  0
  6  8  1  0
  8  9  1  0
  9 10  1  0
 10 11  1  0
  9 12  1  0
 12 13  2  0
 13 14  1  0
 14 15  1  0
 15 16  2  0
  3 17  2  0
 17 18  1  0
 18 19  1  0
 19 20  1  0
 20 21  1  0
 21 22  1  0
 22 23  1  0
 23 24  2  0
 23 25  1  0
 25 26  1  0
 26 27  2  0
 27 28  1  0
 28 29  2  0
 29 30  1  0
 29 31  1  0
 31 32  2  0
 31 33  1  0
 33 34  1  0
 33 35  1  0
 22  2  2  0
 32 26  1  0
 11  9  1  0
 16 12  1  0
 21 17  1  0
  1 36  1  0
  1 37  1  0
  1 38  1  0
  8 39  1  0
 10 40  1  0
 10 41  1  0
 11 42  1  0
 11 43  1  0
 13 44  1  0
 14 45  1  0
 18 46  1  0
 18 47  1  0
 19 48  1  0
 19 49  1  0
 20 50  1  0
 20 51  1  0
 25 52  1  0
 27 53  1  0
 28 54  1  0
 32 55  1  0
 33 56  1  0
M  END
$$$$
[H]c1c([H])c([H])c2c(c1[H])c1c3c(c4c5c([H])c([H])c([H])c([H])c5n5c4c1n2[C@@]1(C([H])([H])[H])O[C@]5([H])C([H])([H])[C@]([H])(N([H])C([H])([H])[H])[C@@]1([H])OC([H])([H])[H])C(=O)N([H])C3([H])[H]
     RDKit          3D

 61 68  0  0  0  0  0  0  0  0999 V2000
   -4.1558   -1.9431    1.1588 C   0  0  0  0  0  0  0  0  0  0  0  0
   -2.9510   -1.2988    1.5181 N   0  0  0  0  0  0  0  0  0  0  0  0
   -2.0807   -0.8600    0.4920 C   0  0  1  0  0  0  0  0  0  0  0  0
   -1.6342   -2.0226   -0.3955 C   0  0  0  0  0  0  0  0  0  0  0  0
   -0.7617   -1.5377   -1.5088 C   0  0  1  0  0  0  0  0  0  0  0  0
   -0.9681   -0.3443   -1.9998 O   0  0  0  0  0  0  0  0  0  0  0  0
   -1.4493    0.7203   -1.2530 C   0  0  1  0  0  0  0  0  0  0  0  0
   -1.8886    1.6949   -2.3320 C   0  0  0  0  0  0  0  0  0  0  0  0
   -2.5793    0.2007   -0.4212 C   0  0  2  0  0  0  0  0  0  0  0  0
   -3.2483    1.1396    0.3092 O   0  0  0  0  0  0  0  0  0  0  0  0
   -4.5606    1.3976    0.0437 C   0  0  0  0  0  0  0  0  0  0  0  0
   -0.3147    1.2600   -0.4993 N   0  0  0  0  0  0  0  0  0  0  0  0
   -0.1830    2.5167   -0.0369 C   0  0  0  0  0  0  0  0  0  0  0  0
   -0.9889    3.6063   -0.0588 C   0  0  0  0  0  0  0  0  0  0  0  0
   -0.6121    4.8097    0.5000 C   0  0  0  0  0  0  0  0  0  0  0  0
    0.6187    4.9759    1.1199 C   0  0  0  0  0  0  0  0  0  0  0  0
    1.4479    3.8772    1.1500 C   0  0  0  0  0  0  0  0  0  0  0  0
    1.0593    2.6881    0.5903 C   0  0  0  0  0  0  0  0  0  0  0  0
    1.6976    1.4894    0.5031 C   0  0  0  0  0  0  0  0  0  0  0  0
    2.9401    1.0641    0.9343 C   0  0  0  0  0  0  0  0  0  0  0  0
    4.0147    1.7914    1.6605 C   0  0  0  0  0  0  0  0  0  0  0  0
    5.0836    0.8687    1.8446 N   0  0  0  0  0  0  0  0  0  0  0  0
    4.7142   -0.3865    1.2763 C   0  0  0  0  0  0  0  0  0  0  0  0
    5.4696   -1.3577    1.3091 O   0  0  0  0  0  0  0  0  0  0  0  0
    3.3871   -0.2475    0.7186 C   0  0  0  0  0  0  0  0  0  0  0  0
    2.5135   -1.0867    0.0529 C   0  0  0  0  0  0  0  0  0  0  0  0
    2.5652   -2.4180   -0.3313 C   0  0  0  0  0  0  0  0  0  0  0  0
    3.5101   -3.3771   -0.2018 C   0  0  0  0  0  0  0  0  0  0  0  0
    3.2584   -4.6635   -0.7091 C   0  0  0  0  0  0  0  0  0  0  0  0
    2.0695   -4.9340   -1.3251 C   0  0  0  0  0  0  0  0  0  0  0  0
    1.0884   -3.9802   -1.4726 C   0  0  0  0  0  0  0  0  0  0  0  0
    1.3575   -2.7294   -0.9683 C   0  0  0  0  0  0  0  0  0  0  0  0
    0.6082   -1.6368   -0.9706 N   0  0  0  0  0  0  0  0  0  0  0  0
    1.2675   -0.6351   -0.3712 C   0  0  0  0  0  0  0  0  0  0  0  0
    0.8452    0.6650   -0.1514 C   0  0  0  0  0  0  0  0  0  0  0  0
   -4.9798   -1.5161    1.7909 H   0  0  0  0  0  0  0  0  0  0  0  0
   -4.1702   -3.0438    1.4002 H   0  0  0  0  0  0  0  0  0  0  0  0
   -4.4563   -1.7550    0.1088 H   0  0  0  0  0  0  0  0  0  0  0  0
   -2.5027   -1.7423    2.3291 H   0  0  0  0  0  0  0  0  0  0  0  0
   -1.1574   -0.4745    1.0562 H   0  0  0  0  0  0  0  0  0  0  0  0
   -1.1276   -2.7482    0.2625 H   0  0  0  0  0  0  0  0  0  0  0  0
   -2.5365   -2.4864   -0.8252 H   0  0  0  0  0  0  0  0  0  0  0  0
   -0.8051   -2.2939   -2.3191 H   0  0  0  0  0  0  0  0  0  0  0  0
   -2.8708    2.1485   -2.1755 H   0  0  0  0  0  0  0  0  0  0  0  0
   -1.0891    2.4862   -2.4855 H   0  0  0  0  0  0  0  0  0  0  0  0
   -1.9558    1.2339   -3.3525 H   0  0  0  0  0  0  0  0  0  0  0  0
   -3.2952   -0.2451   -1.1383 H   0  0  0  0  0  0  0  0  0  0  0  0
   -4.8579    2.1968    0.8179 H   0  0  0  0  0  0  0  0  0  0  0  0
   -4.7134    1.9913   -0.9141 H   0  0  0  0  0  0  0  0  0  0  0  0
   -5.2774    0.5845    0.0931 H   0  0  0  0  0  0  0  0  0  0  0  0
   -1.9377    3.5500   -0.5099 H   0  0  0  0  0  0  0  0  0  0  0  0
   -1.2582    5.6788    0.4803 H   0  0  0  0  0  0  0  0  0  0  0  0
    0.9168    5.9220    1.5600 H   0  0  0  0  0  0  0  0  0  0  0  0
    2.4244    3.9900    1.6355 H   0  0  0  0  0  0  0  0  0  0  0  0
    4.3906    2.6434    1.0489 H   0  0  0  0  0  0  0  0  0  0  0  0
    3.6444    2.1852    2.6335 H   0  0  0  0  0  0  0  0  0  0  0  0
    5.9851    1.1013    2.3240 H   0  0  0  0  0  0  0  0  0  0  0  0
    4.4514   -3.2125    0.2699 H   0  0  0  0  0  0  0  0  0  0  0  0
    4.0299   -5.4241   -0.5965 H   0  0  0  0  0  0  0  0  0  0  0  0
    1.8571   -5.9210   -1.7227 H   0  0  0  0  0  0  0  0  0  0  0  0
    0.1517   -4.1556   -1.9466 H   0  0  0  0  0  0  0  0  0  0  0  0
  1  2  1  0
  2  3  1  0
  3  4  1  0
  4  5  1  0
  5  6  1  0
  6  7  1  0
  7  8  1  6
  7  9  1  0
  9 10  1  0
 10 11  1  0
  7 12  1  0
 12 13  1  0
 13 14  2  0
 14 15  1  0
 15 16  2  0
 16 17  1  0
 17 18  2  0
 18 19  1  0
 19 20  2  0
 20 21  1  0
 21 22  1  0
 22 23  1  0
 23 24  2  0
 23 25  1  0
 25 26  2  0
 26 27  1  0
 27 28  2  0
 28 29  1  0
 29 30  2  0
 30 31  1  0
 31 32  2  0
 32 33  1  0
 33 34  1  0
 34 35  2  0
  9  3  1  0
 35 12  1  0
 33  5  1  0
 18 13  1  0
 35 19  1  0
 25 20  1  0
 34 26  1  0
 32 27  1  0
  1 36  1  0
  1 37  1  0
  1 38  1  0
  2 39  1  0
  3 40  1  1
  4 41  1  0
  4 42  1  0
  5 43  1  6
  8 44  1  0
  8 45  1  0
  8 46  1  0
  9 47  1  6
 11 48  1  0
 11 49  1  0
 11 50  1  0
 14 51  1  0
 15 52  1  0
 16 53  1  0
 17 54  1  0
 21 55  1  0
 21 56  1  0
 22 57  1  0
 28 58  1  0
 29 59  1  0
 30 60  1  0
 31 61  1  0
M  END
$$$$
[H]N=C(N([H])[H])N([H])C([H])([H])C([H])([H])C([H])([H])[C@@]([H])(C(=O)c1nc2c([H])c([H])c([H])c([H])c2s1)N([H])C(=O)[C@@]([H])(N([H])C(=O)[C@@]([H])(N([H])C(=O)C([H])([H])[H])C([H])([H])C([H])([H])C(=O)N([H])[H])C([H])([H])C([H])(C([H])([H])[H])C([H])([H])[H]
     RDKit          3D

 78 79  0  0  0  0  0  0  0  0999 V2000
   -2.5450   -0.0749    2.9916 C   0  0  0  0  0  0  0  0  0  0  0  0
   -1.0991    0.3437    2.9683 C   0  0  0  0  0  0  0  0  0  0  0  0
   -0.7565    0.6688    4.4385 C   0  0  0  0  0  0  0  0  0  0  0  0
   -0.7665    1.5436    2.1831 C   0  0  0  0  0  0  0  0  0  0  0  0
   -1.0192    1.5890    0.7399 C   0  0  2  0  0  0  0  0  0  0  0  0
   -2.3797    1.4409    0.3564 N   0  0  0  0  0  0  0  0  0  0  0  0
   -2.9855    0.7725   -0.6914 C   0  0  0  0  0  0  0  0  0  0  0  0
   -2.4369    0.0570   -1.5838 O   0  0  0  0  0  0  0  0  0  0  0  0
   -4.4944    0.8363   -0.9021 C   0  0  2  0  0  0  0  0  0  0  0  0
   -5.2418    0.5489    0.4140 C   0  0  0  0  0  0  0  0  0  0  0  0
   -6.7115    0.6547    0.0357 C   0  0  0  0  0  0  0  0  0  0  0  0
   -7.6188    0.3983    1.1447 C   0  0  0  0  0  0  0  0  0  0  0  0
   -9.0018    0.6743    1.0305 N   0  0  0  0  0  0  0  0  0  0  0  0
   -7.1929   -0.0725    2.2257 O   0  0  0  0  0  0  0  0  0  0  0  0
   -4.9256   -0.0669   -1.8433 N   0  0  0  0  0  0  0  0  0  0  0  0
   -5.3570   -0.9530   -2.7755 C   0  0  0  0  0  0  0  0  0  0  0  0
   -4.7601   -2.3395   -2.8854 C   0  0  0  0  0  0  0  0  0  0  0  0
   -6.2731   -0.7443   -3.6391 O   0  0  0  0  0  0  0  0  0  0  0  0
    0.0117    0.9896   -0.1039 C   0  0  0  0  0  0  0  0  0  0  0  0
   -0.0524    1.0238   -1.3428 O   0  0  0  0  0  0  0  0  0  0  0  0
    1.1311    0.3451    0.4638 N   0  0  0  0  0  0  0  0  0  0  0  0
    2.1648   -0.2538   -0.4076 C   0  0  1  0  0  0  0  0  0  0  0  0
    3.3876    0.6684   -0.3591 C   0  0  0  0  0  0  0  0  0  0  0  0
    3.8920    0.7903    1.0593 C   0  0  0  0  0  0  0  0  0  0  0  0
    5.0891    1.7400    1.1048 C   0  0  0  0  0  0  0  0  0  0  0  0
    4.6876    3.0548    0.6323 N   0  0  0  0  0  0  0  0  0  0  0  0
    5.4967    4.1925    0.5410 C   0  0  0  0  0  0  0  0  0  0  0  0
    5.7209    4.7615   -0.7595 N   0  0  0  0  0  0  0  0  0  0  0  0
    6.0451    4.7674    1.5411 N   0  0  0  0  0  0  0  0  0  0  0  0
    2.4920   -1.6217    0.0124 C   0  0  0  0  0  0  0  0  0  0  0  0
    2.0632   -2.0722    1.0836 O   0  0  0  0  0  0  0  0  0  0  0  0
    3.3367   -2.4187   -0.8834 C   0  0  0  0  0  0  0  0  0  0  0  0
    3.8213   -3.6218   -0.7856 N   0  0  0  0  0  0  0  0  0  0  0  0
    4.5293   -4.1471   -1.7382 C   0  0  0  0  0  0  0  0  0  0  0  0
    5.1033   -5.4197   -1.7574 C   0  0  0  0  0  0  0  0  0  0  0  0
    5.8223   -5.8490   -2.8228 C   0  0  0  0  0  0  0  0  0  0  0  0
    6.0555   -5.0853   -3.9709 C   0  0  0  0  0  0  0  0  0  0  0  0
    5.4903   -3.8338   -3.9489 C   0  0  0  0  0  0  0  0  0  0  0  0
    4.7493   -3.3840   -2.8595 C   0  0  0  0  0  0  0  0  0  0  0  0
    3.9103   -1.9532   -2.4512 S   0  0  0  0  0  0  0  0  0  0  0  0
   -2.7078   -0.7039    3.9235 H   0  0  0  0  0  0  0  0  0  0  0  0
   -3.2468    0.7732    3.0671 H   0  0  0  0  0  0  0  0  0  0  0  0
   -2.8021   -0.7527    2.1477 H   0  0  0  0  0  0  0  0  0  0  0  0
   -0.4600   -0.5464    2.7601 H   0  0  0  0  0  0  0  0  0  0  0  0
    0.3139    0.6225    4.6220 H   0  0  0  0  0  0  0  0  0  0  0  0
   -1.2607   -0.0682    5.1227 H   0  0  0  0  0  0  0  0  0  0  0  0
   -1.1754    1.6716    4.7124 H   0  0  0  0  0  0  0  0  0  0  0  0
    0.3308    1.8190    2.3355 H   0  0  0  0  0  0  0  0  0  0  0  0
   -1.3728    2.3966    2.6403 H   0  0  0  0  0  0  0  0  0  0  0  0
   -0.8384    2.7347    0.4459 H   0  0  0  0  0  0  0  0  0  0  0  0
   -3.0464    1.9707    1.0370 H   0  0  0  0  0  0  0  0  0  0  0  0
   -4.7321    1.9389   -1.0544 H   0  0  0  0  0  0  0  0  0  0  0  0
   -4.9989    1.3893    1.1203 H   0  0  0  0  0  0  0  0  0  0  0  0
   -5.0638   -0.4466    0.8116 H   0  0  0  0  0  0  0  0  0  0  0  0
   -6.8647   -0.1855   -0.7100 H   0  0  0  0  0  0  0  0  0  0  0  0
   -6.9145    1.6000   -0.5263 H   0  0  0  0  0  0  0  0  0  0  0  0
   -9.7455    0.2854    1.6555 H   0  0  0  0  0  0  0  0  0  0  0  0
   -9.2958    1.3247    0.2476 H   0  0  0  0  0  0  0  0  0  0  0  0
   -5.9005    0.8325   -2.2228 H   0  0  0  0  0  0  0  0  0  0  0  0
   -5.3903   -2.9355   -3.5484 H   0  0  0  0  0  0  0  0  0  0  0  0
   -3.7436   -2.2609   -3.3693 H   0  0  0  0  0  0  0  0  0  0  0  0
   -4.6995   -2.7537   -1.8642 H   0  0  0  0  0  0  0  0  0  0  0  0
    1.3214    0.2489    1.4754 H   0  0  0  0  0  0  0  0  0  0  0  0
    1.7890   -0.1490   -1.4405 H   0  0  0  0  0  0  0  0  0  0  0  0
    4.1792    0.1880   -0.9430 H   0  0  0  0  0  0  0  0  0  0  0  0
    3.0878    1.6205   -0.7834 H   0  0  0  0  0  0  0  0  0  0  0  0
    3.0853    1.2754    1.6418 H   0  0  0  0  0  0  0  0  0  0  0  0
    4.1207   -0.1683    1.5315 H   0  0  0  0  0  0  0  0  0  0  0  0
    5.4297    1.8594    2.1511 H   0  0  0  0  0  0  0  0  0  0  0  0
    5.8675    1.3445    0.4464 H   0  0  0  0  0  0  0  0  0  0  0  0
    3.6770    3.1991    0.3110 H   0  0  0  0  0  0  0  0  0  0  0  0
    6.3379    4.3275   -1.4490 H   0  0  0  0  0  0  0  0  0  0  0  0
    5.1973    5.6569   -0.9449 H   0  0  0  0  0  0  0  0  0  0  0  0
    6.6380    5.5966    1.4772 H   0  0  0  0  0  0  0  0  0  0  0  0
    4.9729   -6.1051   -0.8964 H   0  0  0  0  0  0  0  0  0  0  0  0
    6.2723   -6.8546   -2.8393 H   0  0  0  0  0  0  0  0  0  0  0  0
    6.6334   -5.5145   -4.7517 H   0  0  0  0  0  0  0  0  0  0  0  0
    5.6235   -3.1813   -4.7954 H   0  0  0  0  0  0  0  0  0  0  0  0
  1  2  1  0
  2  3  1  0
  2  4  1  0
  4  5  1  0
  5  6  1  0
  6  7  1  0
  7  8  2  0
  7  9  1  0
  9 10  1  0
 10 11  1  0
 11 12  1  0
 12 13  1  0
 12 14  2  0
  9 15  1  0
 15 16  1  0
 16 17  1  0
 16 18  2  0
  5 19  1  0
 19 20  2  0
 19 21  1  0
 21 22  1  0
 22 23  1  0
 23 24  1  0
 24 25  1  0
 25 26  1  0
 26 27  1  0
 27 28  1  0
 27 29  2  3
 22 30  1  0
 30 31  2  0
 30 32  1  0
 32 33  2  0
 33 34  1  0
 34 35  2  0
 35 36  1  0
 36 37  2  0
 37 38  1  0
 38 39  2  0
 39 40  1  0
 40 32  1  0
 39 34  1  0
  1 41  1  0
  1 42  1  0
  1 43  1  0
  2 44  1  0
  3 45  1  0
  3 46  1  0
  3 47  1  0
  4 48  1  0
  4 49  1  0
  5 50  1  6
  6 51  1  0
  9 52  1  6
 10 53  1  0
 10 54  1  0
 11 55  1  0
 11 56  1  0
 13 57  1  0
 13 58  1  0
 15 59  1  0
 17 60  1  0
 17 61  1  0
 17 62  1  0
 21 63  1  0
 22 64  1  6
 23 65  1  0
 23 66  1  0
 24 67  1  0
 24 68  1  0
 25 69  1  0
 25 70  1  0
 26 71  1  0
 28 72  1  0
 28 73  1  0
 29 74  1  0
 35 75  1  0
 36 76  1  0
 37 77  1  0
 38 78  1  0
M  END
$$$$
[H]C1=C([H])C([H])(F)C([H])([H])C([H])=C1N([H])C(=O)C1(C(=O)N([H])c2c([H])c([H])c(Oc3c([H])c([H])nc4c([H])c(OC([H])([H])C([H])([H])C([H])([H])N5C([H])([H])C([H])([H])C([H])([H])C([H])([H])C5([H])[H])c(OC([H])([H])[H])c([H])c34)c(F)c2[H])C([H])([H])C1([H])[H]
     RDKit          3D

 84 89  0  0  0  0  0  0  0  0999 V2000
    3.8941   -3.7132    0.1913 C   0  0  0  0  0  0  0  0  0  0  0  0
    4.6565   -2.6079   -0.2681 O   0  0  0  0  0  0  0  0  0  0  0  0
    4.0305   -1.4283   -0.6539 C   0  0  0  0  0  0  0  0  0  0  0  0
    2.6597   -1.2972   -0.6016 C   0  0  0  0  0  0  0  0  0  0  0  0
    2.0436   -0.1222   -0.9870 C   0  0  0  0  0  0  0  0  0  0  0  0
    0.6510    0.0367   -0.9451 C   0  0  0  0  0  0  0  0  0  0  0  0
   -0.0755   -1.0256   -0.4996 O   0  0  0  0  0  0  0  0  0  0  0  0
   -1.4492   -1.0402   -0.3255 C   0  0  0  0  0  0  0  0  0  0  0  0
   -2.2606   -1.8743   -1.0649 C   0  0  0  0  0  0  0  0  0  0  0  0
   -3.6423   -1.8715   -0.8692 C   0  0  0  0  0  0  0  0  0  0  0  0
   -4.2526   -1.0654    0.0403 C   0  0  0  0  0  0  0  0  0  0  0  0
   -5.6503   -1.0411    0.3103 N   0  0  0  0  0  0  0  0  0  0  0  0
   -6.4608   -2.1680    0.2347 C   0  0  0  0  0  0  0  0  0  0  0  0
   -5.8498   -3.2675   -0.0680 O   0  0  0  0  0  0  0  0  0  0  0  0
   -7.9176   -2.3168    0.4538 C   0  0  0  0  0  0  0  0  0  0  0  0
   -8.5358   -3.5604   -0.1118 C   0  0  0  0  0  0  0  0  0  0  0  0
   -8.2258   -3.5095    1.3287 C   0  0  0  0  0  0  0  0  0  0  0  0
   -8.8577   -1.1862    0.5085 C   0  0  0  0  0  0  0  0  0  0  0  0
  -10.0295   -1.5183    0.9875 O   0  0  0  0  0  0  0  0  0  0  0  0
   -8.6712    0.1344    0.1256 N   0  0  0  0  0  0  0  0  0  0  0  0
   -9.7018    1.1257    0.2594 C   0  0  0  0  0  0  0  0  0  0  0  0
  -10.1675    1.7824   -0.7844 C   0  0  0  0  0  0  0  0  0  0  0  0
  -11.2276    2.8066   -0.6621 C   0  0  0  0  0  0  0  0  0  0  0  0
  -11.7828    3.0373    0.6810 C   0  0  0  0  0  0  0  0  0  0  0  0
  -13.1708    2.8095    0.6256 F   0  0  0  0  0  0  0  0  0  0  0  0
  -11.1912    2.2557    1.7682 C   0  0  0  0  0  0  0  0  0  0  0  0
  -10.2373    1.3788    1.5761 C   0  0  0  0  0  0  0  0  0  0  0  0
   -3.4356   -0.2282    0.7824 C   0  0  0  0  0  0  0  0  0  0  0  0
   -2.0698   -0.2231    0.5976 C   0  0  0  0  0  0  0  0  0  0  0  0
   -1.3225    0.6137    1.3883 F   0  0  0  0  0  0  0  0  0  0  0  0
    0.0582    1.2154   -1.3358 C   0  0  0  0  0  0  0  0  0  0  0  0
    0.8455    2.2647   -1.7771 C   0  0  0  0  0  0  0  0  0  0  0  0
    2.1789    2.1086   -1.8152 N   0  0  0  0  0  0  0  0  0  0  0  0
    2.7728    0.9564   -1.4354 C   0  0  0  0  0  0  0  0  0  0  0  0
    4.1549    0.8104   -1.4827 C   0  0  0  0  0  0  0  0  0  0  0  0
    4.7873   -0.3669   -1.0977 C   0  0  0  0  0  0  0  0  0  0  0  0
    6.1653   -0.5173   -1.1421 O   0  0  0  0  0  0  0  0  0  0  0  0
    6.9247    0.5946   -1.5969 C   0  0  0  0  0  0  0  0  0  0  0  0
    8.3981    0.2160   -1.5674 C   0  0  0  0  0  0  0  0  0  0  0  0
    8.7652   -0.1374   -0.1628 C   0  0  0  0  0  0  0  0  0  0  0  0
    8.5410    0.9713    0.7124 N   0  0  0  0  0  0  0  0  0  0  0  0
    8.8626    0.5943    2.0908 C   0  0  0  0  0  0  0  0  0  0  0  0
   10.1341    1.2231    2.5590 C   0  0  0  0  0  0  0  0  0  0  0  0
   11.2236    1.2674    1.5088 C   0  0  0  0  0  0  0  0  0  0  0  0
   10.7617    1.8537    0.2168 C   0  0  0  0  0  0  0  0  0  0  0  0
    9.2894    2.1446    0.3223 C   0  0  0  0  0  0  0  0  0  0  0  0
    4.5297   -4.6049    0.2046 H   0  0  0  0  0  0  0  0  0  0  0  0
    3.0368   -3.9207   -0.4537 H   0  0  0  0  0  0  0  0  0  0  0  0
    3.5857   -3.4838    1.2349 H   0  0  0  0  0  0  0  0  0  0  0  0
    2.0594   -2.1200   -0.2574 H   0  0  0  0  0  0  0  0  0  0  0  0
   -1.7910   -2.5214   -1.7915 H   0  0  0  0  0  0  0  0  0  0  0  0
   -4.2011   -2.5275   -1.4890 H   0  0  0  0  0  0  0  0  0  0  0  0
   -5.9930   -0.0843    0.6053 H   0  0  0  0  0  0  0  0  0  0  0  0
   -7.8776   -4.1574   -0.7922 H   0  0  0  0  0  0  0  0  0  0  0  0
   -9.5862   -3.5314   -0.4675 H   0  0  0  0  0  0  0  0  0  0  0  0
   -9.0668   -3.4296    2.0590 H   0  0  0  0  0  0  0  0  0  0  0  0
   -7.4089   -4.1370    1.6985 H   0  0  0  0  0  0  0  0  0  0  0  0
   -7.7902    0.4562   -0.3104 H   0  0  0  0  0  0  0  0  0  0  0  0
   -9.7650    1.5684   -1.7719 H   0  0  0  0  0  0  0  0  0  0  0  0
  -10.7674    3.7837   -1.0343 H   0  0  0  0  0  0  0  0  0  0  0  0
  -12.0168    2.5426   -1.4224 H   0  0  0  0  0  0  0  0  0  0  0  0
  -11.6408    4.1294    0.9469 H   0  0  0  0  0  0  0  0  0  0  0  0
  -11.5771    2.4212    2.8054 H   0  0  0  0  0  0  0  0  0  0  0  0
   -9.8450    0.8363    2.4194 H   0  0  0  0  0  0  0  0  0  0  0  0
   -3.9079    0.4182    1.5091 H   0  0  0  0  0  0  0  0  0  0  0  0
   -0.9995    1.3667   -1.3304 H   0  0  0  0  0  0  0  0  0  0  0  0
    0.3645    3.1827   -2.0801 H   0  0  0  0  0  0  0  0  0  0  0  0
    4.7341    1.6500   -1.8317 H   0  0  0  0  0  0  0  0  0  0  0  0
    6.7902    1.4564   -0.9075 H   0  0  0  0  0  0  0  0  0  0  0  0
    6.6790    0.8981   -2.6163 H   0  0  0  0  0  0  0  0  0  0  0  0
    8.5172   -0.6510   -2.2580 H   0  0  0  0  0  0  0  0  0  0  0  0
    8.9717    1.0419   -1.9999 H   0  0  0  0  0  0  0  0  0  0  0  0
    8.1514   -1.0174    0.1504 H   0  0  0  0  0  0  0  0  0  0  0  0
    9.8226   -0.4865   -0.1718 H   0  0  0  0  0  0  0  0  0  0  0  0
    8.8820   -0.5200    2.1502 H   0  0  0  0  0  0  0  0  0  0  0  0
    8.0335    0.9450    2.7222 H   0  0  0  0  0  0  0  0  0  0  0  0
   10.5337    0.5668    3.3880 H   0  0  0  0  0  0  0  0  0  0  0  0
    9.9539    2.2035    3.0123 H   0  0  0  0  0  0  0  0  0  0  0  0
   11.7159    0.2783    1.3726 H   0  0  0  0  0  0  0  0  0  0  0  0
   12.0186    1.9324    1.9308 H   0  0  0  0  0  0  0  0  0  0  0  0
   10.9303    1.1781   -0.6500 H   0  0  0  0  0  0  0  0  0  0  0  0
   11.3098    2.7776   -0.0117 H   0  0  0  0  0  0  0  0  0  0  0  0
    9.0848    2.9287    1.0867 H   0  0  0  0  0  0  0  0  0  0  0  0
    8.9162    2.5157   -0.6375 H   0  0  0  0  0  0  0  0  0  0  0  0
  1  2  1  0
  2  3  1  0
  3  4  2  0
  4  5  1  0
  5  6  2  0
  6  7  1  0
  7  8  1  0
  8  9  2  0
  9 10  1  0
 10 11  2  0
 11 12  1  0
 12 13  1  0
 13 14  2  0
 13 15  1  0
 15 16  1  0
 16 17  1  0
 15 18  1  0
 18 19  2  0
 18 20  1  0
 20 21  1  0
 21 22  2  0
 22 23  1  0
 23 24  1  0
 24 25  1  0
 24 26  1  0
 26 27  2  0
 11 28  1  0
 28 29  2  0
 29 30  1  0
  6 31  1  0
 31 32  2  0
 32 33  1  0
 33 34  2  0
 34 35  1  0
 35 36  2  0
 36 37  1  0
 37 38  1  0
 38 39  1  0
 39 40  1  0
 40 41  1  0
 41 42  1  0
 42 43  1  0
 43 44  1  0
 44 45  1  0
 45 46  1  0
 36  3  1  0
 46 41  1  0
 34  5  1  0
 29  8  1  0
 17 15  1  0
 27 21  1  0
  1 47  1  0
  1 48  1  0
  1 49  1  0
  4 50  1  0
  9 51  1  0
 10 52  1  0
 12 53  1  0
 16 54  1  0
 16 55  1  0
 17 56  1  0
 17 57  1  0
 20 58  1  0
 22 59  1  0
 23 60  1  0
 23 61  1  0
 24 62  1  0
 26 63  1  0
 27 64  1  0
 28 65  1  0
 31 66  1  0
 32 67  1  0
 35 68  1  0
 38 69  1  0
 38 70  1  0
 39 71  1  0
 39 72  1  0
 40 73  1  0
 40 74  1  0
 42 75  1  0
 42 76  1  0
 43 77  1  0
 43 78  1  0
 44 79  1  0
 44 80  1  0
 45 81  1  0
 45 82  1  0
 46 83  1  0
 46 84  1  0
M  END
$$$$
[H]c1c([H])c([H])c(C2(C(=O)N([H])[H])C([H])([H])C([H])([H])N(C([H])([H])C([H])([H])[C@]3(c4c([H])c([H])c(Cl)c(Cl)c4[H])C([H])([H])N(C(=O)c4c([H])c(OC([H])([H])[H])c(OC([H])([H])[H])c(OC([H])([H])[H])c4[H])C([H])([H])C3([H])[H])C([H])([H])C2([H])[H])c([H])c1[H]
     RDKit          3D

 83 87  0  0  0  0  0  0  0  0999 V2000
   -8.3679   -2.6016   -0.4369 C   0  0  0  0  0  0  0  0  0  0  0  0
   -8.4655   -1.2699    0.0009 O   0  0  0  0  0  0  0  0  0  0  0  0
   -7.4157   -0.3746   -0.0011 C   0  0  0  0  0  0  0  0  0  0  0  0
   -6.1932   -0.7485   -0.4551 C   0  0  0  0  0  0  0  0  0  0  0  0
   -5.1116    0.1573   -0.4554 C   0  0  0  0  0  0  0  0  0  0  0  0
   -5.3283    1.4342    0.0171 C   0  0  0  0  0  0  0  0  0  0  0  0
   -6.5721    1.8323    0.4828 C   0  0  0  0  0  0  0  0  0  0  0  0
   -6.7658    3.1379    0.9560 O   0  0  0  0  0  0  0  0  0  0  0  0
   -5.6763    4.0474    0.9435 C   0  0  0  0  0  0  0  0  0  0  0  0
   -7.5955    0.9183    0.4656 C   0  0  0  0  0  0  0  0  0  0  0  0
   -8.8540    1.2666    0.9229 O   0  0  0  0  0  0  0  0  0  0  0  0
   -9.7837    1.8043    0.0307 C   0  0  0  0  0  0  0  0  0  0  0  0
   -3.8612   -0.2774   -1.0365 C   0  0  0  0  0  0  0  0  0  0  0  0
   -3.9104   -1.2595   -1.8589 O   0  0  0  0  0  0  0  0  0  0  0  0
   -2.6233    0.2651   -0.7793 N   0  0  0  0  0  0  0  0  0  0  0  0
   -2.1172    1.2851    0.1198 C   0  0  0  0  0  0  0  0  0  0  0  0
   -0.7894    0.6758    0.6149 C   0  0  0  0  0  0  0  0  0  0  0  0
   -0.4115   -0.4001   -0.3662 C   0  0  2  0  0  0  0  0  0  0  0  0
    1.0161   -0.1977   -0.8606 C   0  0  0  0  0  0  0  0  0  0  0  0
    1.9689   -0.2600    0.2835 C   0  0  0  0  0  0  0  0  0  0  0  0
    3.3545   -0.0981    0.0398 N   0  0  0  0  0  0  0  0  0  0  0  0
    4.1496   -0.2541    1.2076 C   0  0  0  0  0  0  0  0  0  0  0  0
    5.6009   -0.0219    1.0948 C   0  0  0  0  0  0  0  0  0  0  0  0
    5.9459    0.5359   -0.2793 C   0  0  0  0  0  0  0  0  0  0  0  0
    5.3558   -0.3496   -1.3013 C   0  0  0  0  0  0  0  0  0  0  0  0
    3.8557   -0.4038   -1.2110 C   0  0  0  0  0  0  0  0  0  0  0  0
    5.4732    1.9325   -0.2816 C   0  0  0  0  0  0  0  0  0  0  0  0
    5.7569    2.8870    0.7215 N   0  0  0  0  0  0  0  0  0  0  0  0
    4.7603    2.3360   -1.2408 O   0  0  0  0  0  0  0  0  0  0  0  0
    7.4533    0.4413   -0.3547 C   0  0  0  0  0  0  0  0  0  0  0  0
    8.0706   -0.3476   -1.3032 C   0  0  0  0  0  0  0  0  0  0  0  0
    9.4445   -0.5087   -1.3938 C   0  0  0  0  0  0  0  0  0  0  0  0
   10.2421    0.1571   -0.4800 C   0  0  0  0  0  0  0  0  0  0  0  0
    9.6469    0.9477    0.4717 C   0  0  0  0  0  0  0  0  0  0  0  0
    8.2526    1.1011    0.5477 C   0  0  0  0  0  0  0  0  0  0  0  0
   -1.3682   -0.1060   -1.4999 C   0  0  0  0  0  0  0  0  0  0  0  0
   -0.7024   -1.7586    0.0839 C   0  0  0  0  0  0  0  0  0  0  0  0
   -1.6652   -1.9351    1.0541 C   0  0  0  0  0  0  0  0  0  0  0  0
   -1.9712   -3.2259    1.4882 C   0  0  0  0  0  0  0  0  0  0  0  0
   -1.3328   -4.3183    0.9706 C   0  0  0  0  0  0  0  0  0  0  0  0
   -1.7290   -5.9365    1.5140 Cl  0  0  0  0  0  0  0  0  0  0  0  0
   -0.3738   -4.0980    0.0015 C   0  0  0  0  0  0  0  0  0  0  0  0
    0.4483   -5.4756   -0.6655 Cl  0  0  0  0  0  0  0  0  0  0  0  0
   -0.0472   -2.8502   -0.4502 C   0  0  0  0  0  0  0  0  0  0  0  0
   -7.3630   -3.0430   -0.1744 H   0  0  0  0  0  0  0  0  0  0  0  0
   -8.4856   -2.6875   -1.5210 H   0  0  0  0  0  0  0  0  0  0  0  0
   -9.1033   -3.2495    0.0978 H   0  0  0  0  0  0  0  0  0  0  0  0
   -5.9699   -1.7464   -0.8282 H   0  0  0  0  0  0  0  0  0  0  0  0
   -4.5428    2.1919    0.0173 H   0  0  0  0  0  0  0  0  0  0  0  0
   -4.8429    3.7053    1.5580 H   0  0  0  0  0  0  0  0  0  0  0  0
   -5.9835    5.0744    1.2107 H   0  0  0  0  0  0  0  0  0  0  0  0
   -5.3074    4.0776   -0.1274 H   0  0  0  0  0  0  0  0  0  0  0  0
   -9.4366    1.7427   -1.0271 H   0  0  0  0  0  0  0  0  0  0  0  0
   -9.9499    2.8882    0.2757 H   0  0  0  0  0  0  0  0  0  0  0  0
  -10.7499    1.2746    0.1351 H   0  0  0  0  0  0  0  0  0  0  0  0
   -1.9892    2.2178   -0.4108 H   0  0  0  0  0  0  0  0  0  0  0  0
   -2.7006    1.4025    1.0440 H   0  0  0  0  0  0  0  0  0  0  0  0
   -0.0865    1.5262    0.6255 H   0  0  0  0  0  0  0  0  0  0  0  0
   -0.8452    0.2781    1.6222 H   0  0  0  0  0  0  0  0  0  0  0  0
    1.0949    0.8542   -1.2783 H   0  0  0  0  0  0  0  0  0  0  0  0
    1.2943   -0.8304   -1.7094 H   0  0  0  0  0  0  0  0  0  0  0  0
    1.6826    0.5177    1.0425 H   0  0  0  0  0  0  0  0  0  0  0  0
    1.8501   -1.2935    0.7346 H   0  0  0  0  0  0  0  0  0  0  0  0
    3.7605    0.5277    1.9413 H   0  0  0  0  0  0  0  0  0  0  0  0
    3.9040   -1.2302    1.7337 H   0  0  0  0  0  0  0  0  0  0  0  0
    6.1305   -0.9851    1.2810 H   0  0  0  0  0  0  0  0  0  0  0  0
    6.0082    0.6827    1.8728 H   0  0  0  0  0  0  0  0  0  0  0  0
    5.6298   -0.0296   -2.3488 H   0  0  0  0  0  0  0  0  0  0  0  0
    5.7216   -1.3852   -1.1166 H   0  0  0  0  0  0  0  0  0  0  0  0
    3.4830    0.3828   -1.9456 H   0  0  0  0  0  0  0  0  0  0  0  0
    3.4642   -1.3511   -1.6709 H   0  0  0  0  0  0  0  0  0  0  0  0
    5.3190    2.7626    1.6500 H   0  0  0  0  0  0  0  0  0  0  0  0
    6.3760    3.6958    0.5781 H   0  0  0  0  0  0  0  0  0  0  0  0
    7.4355   -0.8676   -2.0185 H   0  0  0  0  0  0  0  0  0  0  0  0
    9.8830   -1.1515   -2.1709 H   0  0  0  0  0  0  0  0  0  0  0  0
   11.3142    0.0421   -0.5397 H   0  0  0  0  0  0  0  0  0  0  0  0
   10.2571    1.4622    1.1768 H   0  0  0  0  0  0  0  0  0  0  0  0
    7.8402    1.7290    1.3315 H   0  0  0  0  0  0  0  0  0  0  0  0
   -1.0543    0.8310   -1.9947 H   0  0  0  0  0  0  0  0  0  0  0  0
   -1.5323   -0.9189   -2.2017 H   0  0  0  0  0  0  0  0  0  0  0  0
   -2.2291   -1.1568    1.5329 H   0  0  0  0  0  0  0  0  0  0  0  0
   -2.7369   -3.3694    2.2587 H   0  0  0  0  0  0  0  0  0  0  0  0
    0.6959   -2.6571   -1.2078 H   0  0  0  0  0  0  0  0  0  0  0  0
  1  2  1  0
  2  3  1  0
  3  4  2  0
  4  5  1  0
  5  6  2  0
  6  7  1  0
  7  8  1  0
  8  9  1  0
  7 10  2  0
 10 11  1  0
 11 12  1  0
  5 13  1  0
 13 14  2  0
 13 15  1  0
 15 16  1  0
 16 17  1  0
 17 18  1  0
 18 19  1  6
 19 20  1  0
 20 21  1  0
 21 22  1  0
 22 23  1  0
 23 24  1  0
 24 25  1  0
 25 26  1  0
 24 27  1  0
 27 28  1  0
 27 29  2  0
 24 30  1  0
 30 31  2  0
 31 32  1  0
 32 33  2  0
 33 34  1  0
 34 35  2  0
 18 36  1  0
 18 37  1  0
 37 38  2  0
 38 39  1  0
 39 40  2  0
 40 41  1  0
 40 42  1  0
 42 43  1  0
 42 44  2  0
 10  3  1  0
 36 15  1  0
 44 37  1  0
 26 21  1  0
 35 30  1  0
  1 45  1  0
  1 46  1  0
  1 47  1  0
  4 48  1  0
  6 49  1  0
  9 50  1  0
  9 51  1  0
  9 52  1  0
 12 53  1  0
 12 54  1  0
 12 55  1  0
 16 56  1  0
 16 57  1  0
 17 58  1  0
 17 59  1  0
 19 60  1  0
 19 61  1  0
 20 62  1  0
 20 63  1  0
 22 64  1  0
 22 65  1  0
 23 66  1  0
 23 67  1  0
 25 68  1  0
 25 69  1  0
 26 70  1  0
 26 71  1  0
 28 72  1  0
 28 73  1  0
 31 74  1  0
 32 75  1  0
 33 76  1  0
 34 77  1  0
 35 78  1  0
 36 79  1  0
 36 80  1  0
 38 81  1  0
 39 82  1  0
 44 83  1  0
M  END
$$$$
[H]c1nc(N([H])c2c([H])c([H])c(N3C([H])([H])C([H])([H])C([H])(N4C([H])([H])C([H])([H])OC([H])([H])C4([H])[H])C([H])([H])C3([H])[H])c([H])c2OC([H])([H])[H])nc(N([H])c2c([H])c([H])c([H])c([H])c2S(=O)(=O)C([H])(C([H])([H])[H])C([H])([H])[H])c1Cl
     RDKit          3D

 78 82  0  0  0  0  0  0  0  0999 V2000
   -2.7990   -4.7366   -1.3510 C   0  0  0  0  0  0  0  0  0  0  0  0
   -1.4818   -4.2815   -1.0963 O   0  0  0  0  0  0  0  0  0  0  0  0
   -1.2626   -2.9268   -0.9115 C   0  0  0  0  0  0  0  0  0  0  0  0
   -2.2756   -1.9993   -0.9649 C   0  0  0  0  0  0  0  0  0  0  0  0
   -2.0617   -0.6368   -0.7804 C   0  0  0  0  0  0  0  0  0  0  0  0
   -0.7814   -0.2202   -0.5369 C   0  0  0  0  0  0  0  0  0  0  0  0
    0.2811   -1.1355   -0.4738 C   0  0  0  0  0  0  0  0  0  0  0  0
    0.0363   -2.4736   -0.6602 C   0  0  0  0  0  0  0  0  0  0  0  0
    1.0486   -3.4282   -0.5632 N   0  0  0  0  0  0  0  0  0  0  0  0
    2.4501   -3.2971   -0.5441 C   0  0  0  0  0  0  0  0  0  0  0  0
    3.1806   -4.4584   -0.3853 N   0  0  0  0  0  0  0  0  0  0  0  0
    4.4963   -4.5095   -0.3751 C   0  0  0  0  0  0  0  0  0  0  0  0
    5.2173   -3.3469   -0.5311 C   0  0  0  0  0  0  0  0  0  0  0  0
    6.9576   -3.3296   -0.5341 Cl  0  0  0  0  0  0  0  0  0  0  0  0
    4.5356   -2.1282   -0.6989 C   0  0  0  0  0  0  0  0  0  0  0  0
    5.3043   -0.9689   -0.8278 N   0  0  0  0  0  0  0  0  0  0  0  0
    4.9428    0.3708   -1.0715 C   0  0  0  0  0  0  0  0  0  0  0  0
    3.7071    0.7399   -1.5352 C   0  0  0  0  0  0  0  0  0  0  0  0
    3.4274    2.0598   -1.8188 C   0  0  0  0  0  0  0  0  0  0  0  0
    4.3635    3.0489   -1.6512 C   0  0  0  0  0  0  0  0  0  0  0  0
    5.6208    2.6944   -1.1820 C   0  0  0  0  0  0  0  0  0  0  0  0
    5.9101    1.3798   -0.8961 C   0  0  0  0  0  0  0  0  0  0  0  0
    7.5019    1.0371   -0.2945 S   0  0  0  0  0  0  0  0  0  0  0  0
    8.2978    0.1131   -1.1647 O   0  0  0  0  0  0  0  0  0  0  0  0
    8.2966    2.3490   -0.2987 O   0  0  0  0  0  0  0  0  0  0  0  0
    7.4681    0.4327    1.3549 C   0  0  0  0  0  0  0  0  0  0  0  0
    8.8634   -0.1388    1.7159 C   0  0  0  0  0  0  0  0  0  0  0  0
    7.0596    1.4683    2.3670 C   0  0  0  0  0  0  0  0  0  0  0  0
    3.1822   -2.2006   -0.6916 N   0  0  0  0  0  0  0  0  0  0  0  0
   -3.1115    0.3177   -0.8518 N   0  0  0  0  0  0  0  0  0  0  0  0
   -4.3569    0.0033   -1.5564 C   0  0  0  0  0  0  0  0  0  0  0  0
   -5.4456    0.9770   -1.1084 C   0  0  0  0  0  0  0  0  0  0  0  0
   -5.4163    1.0960    0.3875 C   0  0  0  0  0  0  0  0  0  0  0  0
   -4.1724    1.8834    0.7406 C   0  0  0  0  0  0  0  0  0  0  0  0
   -3.0537    1.6221   -0.2518 C   0  0  0  0  0  0  0  0  0  0  0  0
   -6.5566    1.8175    0.8825 N   0  0  0  0  0  0  0  0  0  0  0  0
   -6.4174    2.0469    2.3263 C   0  0  0  0  0  0  0  0  0  0  0  0
   -7.6213    2.8766    2.7374 C   0  0  0  0  0  0  0  0  0  0  0  0
   -8.8104    2.1862    2.5319 O   0  0  0  0  0  0  0  0  0  0  0  0
   -8.9221    1.9916    1.1601 C   0  0  0  0  0  0  0  0  0  0  0  0
   -7.7951    1.0731    0.7374 C   0  0  0  0  0  0  0  0  0  0  0  0
   -2.8361   -5.8616   -1.3099 H   0  0  0  0  0  0  0  0  0  0  0  0
   -3.1900   -4.3824   -2.3292 H   0  0  0  0  0  0  0  0  0  0  0  0
   -3.5377   -4.4041   -0.5867 H   0  0  0  0  0  0  0  0  0  0  0  0
   -3.2912   -2.3704   -1.1607 H   0  0  0  0  0  0  0  0  0  0  0  0
   -0.5304    0.8148   -0.3940 H   0  0  0  0  0  0  0  0  0  0  0  0
    1.2667   -0.7437   -0.2556 H   0  0  0  0  0  0  0  0  0  0  0  0
    0.7052   -4.4618   -0.4798 H   0  0  0  0  0  0  0  0  0  0  0  0
    5.0715   -5.4367   -0.2489 H   0  0  0  0  0  0  0  0  0  0  0  0
    6.3584   -1.1165   -0.7423 H   0  0  0  0  0  0  0  0  0  0  0  0
    2.9114   -0.0041   -1.7193 H   0  0  0  0  0  0  0  0  0  0  0  0
    2.4405    2.3544   -2.1905 H   0  0  0  0  0  0  0  0  0  0  0  0
    4.1803    4.0991   -1.8612 H   0  0  0  0  0  0  0  0  0  0  0  0
    6.3509    3.4879   -1.0554 H   0  0  0  0  0  0  0  0  0  0  0  0
    6.8109   -0.4447    1.4204 H   0  0  0  0  0  0  0  0  0  0  0  0
    8.9078   -1.1290    1.2165 H   0  0  0  0  0  0  0  0  0  0  0  0
    8.8703   -0.2948    2.7926 H   0  0  0  0  0  0  0  0  0  0  0  0
    9.6590    0.5303    1.3215 H   0  0  0  0  0  0  0  0  0  0  0  0
    6.3760    2.2282    1.9706 H   0  0  0  0  0  0  0  0  0  0  0  0
    8.0149    1.9242    2.7543 H   0  0  0  0  0  0  0  0  0  0  0  0
    6.5683    1.0168    3.2596 H   0  0  0  0  0  0  0  0  0  0  0  0
   -4.2295    0.1961   -2.6622 H   0  0  0  0  0  0  0  0  0  0  0  0
   -4.6789   -1.0320   -1.4555 H   0  0  0  0  0  0  0  0  0  0  0  0
   -6.3764    0.6017   -1.5329 H   0  0  0  0  0  0  0  0  0  0  0  0
   -5.2359    1.9773   -1.5346 H   0  0  0  0  0  0  0  0  0  0  0  0
   -5.4040    0.1109    0.8986 H   0  0  0  0  0  0  0  0  0  0  0  0
   -4.4001    2.9747    0.6779 H   0  0  0  0  0  0  0  0  0  0  0  0
   -3.8424    1.6927    1.7865 H   0  0  0  0  0  0  0  0  0  0  0  0
   -3.1634    2.3692   -1.0913 H   0  0  0  0  0  0  0  0  0  0  0  0
   -2.0806    1.8030    0.1914 H   0  0  0  0  0  0  0  0  0  0  0  0
   -6.4486    1.0642    2.8141 H   0  0  0  0  0  0  0  0  0  0  0  0
   -5.5199    2.6190    2.5767 H   0  0  0  0  0  0  0  0  0  0  0  0
   -7.6190    3.7806    2.0982 H   0  0  0  0  0  0  0  0  0  0  0  0
   -7.5723    3.1645    3.7921 H   0  0  0  0  0  0  0  0  0  0  0  0
   -8.6856    2.9938    0.6972 H   0  0  0  0  0  0  0  0  0  0  0  0
   -9.9176    1.6194    0.8580 H   0  0  0  0  0  0  0  0  0  0  0  0
   -7.9512    0.6460   -0.2539 H   0  0  0  0  0  0  0  0  0  0  0  0
   -7.7886    0.2449    1.4991 H   0  0  0  0  0  0  0  0  0  0  0  0
  1  2  1  0
  2  3  1  0
  3  4  2  0
  4  5  1  0
  5  6  2  0
  6  7  1  0
  7  8  2  0
  8  9  1  0
  9 10  1  0
 10 11  2  0
 11 12  1  0
 12 13  2  0
 13 14  1  0
 13 15  1  0
 15 16  1  0
 16 17  1  0
 17 18  2  0
 18 19  1  0
 19 20  2  0
 20 21  1  0
 21 22  2  0
 22 23  1  0
 23 24  2  0
 23 25  2  0
 23 26  1  0
 26 27  1  0
 26 28  1  0
 15 29  2  0
  5 30  1  0
 30 31  1  0
 31 32  1  0
 32 33  1  0
 33 34  1  0
 34 35  1  0
 33 36  1  0
 36 37  1  0
 37 38  1  0
 38 39  1  0
 39 40  1  0
 40 41  1  0
  8  3  1  0
 29 10  1  0
 35 30  1  0
 41 36  1  0
 22 17  1  0
  1 42  1  0
  1 43  1  0
  1 44  1  0
  4 45  1  0
  6 46  1  0
  7 47  1  0
  9 48  1  0
 12 49  1  0
 16 50  1  0
 18 51  1  0
 19 52  1  0
 20 53  1  0
 21 54  1  0
 26 55  1  0
 27 56  1  0
 27 57  1  0
 27 58  1  0
 28 59  1  0
 28 60  1  0
 28 61  1  0
 31 62  1  0
 31 63  1  0
 32 64  1  0
 32 65  1  0
 33 66  1  0
 34 67  1  0
 34 68  1  0
 35 69  1  0
 35 70  1  0
 37 71  1  0
 37 72  1  0
 38 73  1  0
 38 74  1  0
 40 75  1  0
 40 76  1  0
 41 77  1  0
 41 78  1  0
M  END
$$$$
[H]c1c([H])c(C#Cc2c([H])c(O[C@@]([H])(C([H])([H])[H])C([H])([H])OC([H])([H])[H])c([H])c(C(=O)N([H])c3nn(C([H])([H])[H])c([H])c3[H])c2[H])c([H])c([H])c1Cl
     RDKit          3D

 52 54  0  0  0  0  0  0  0  0999 V2000
   -1.2530    2.3622   -5.6715 C   0  0  0  0  0  0  0  0  0  0  0  0
   -1.4970    2.9939   -4.5203 O   0  0  0  0  0  0  0  0  0  0  0  0
   -0.5524    3.5211   -3.7222 C   0  0  0  0  0  0  0  0  0  0  0  0
    0.5109    2.5602   -3.2282 C   0  0  2  0  0  0  0  0  0  0  0  0
    1.4834    2.1329   -4.3104 C   0  0  0  0  0  0  0  0  0  0  0  0
   -0.0076    1.4785   -2.5812 O   0  0  0  0  0  0  0  0  0  0  0  0
    0.1184    0.8183   -1.4242 C   0  0  0  0  0  0  0  0  0  0  0  0
    1.0161    1.1900   -0.4241 C   0  0  0  0  0  0  0  0  0  0  0  0
    1.1085    0.4734    0.7572 C   0  0  0  0  0  0  0  0  0  0  0  0
    0.2734   -0.6105    0.8787 C   0  0  0  0  0  0  0  0  0  0  0  0
   -0.6270   -1.0164   -0.0769 C   0  0  0  0  0  0  0  0  0  0  0  0
   -0.7065   -0.3038   -1.2340 C   0  0  0  0  0  0  0  0  0  0  0  0
   -1.4984   -2.1960    0.1424 C   0  0  0  0  0  0  0  0  0  0  0  0
   -1.0109   -3.3293    0.0944 O   0  0  0  0  0  0  0  0  0  0  0  0
   -2.8536   -1.9513    0.3955 N   0  0  0  0  0  0  0  0  0  0  0  0
   -3.7477   -3.0474    0.5897 C   0  0  0  0  0  0  0  0  0  0  0  0
   -5.0902   -2.9758    0.8617 C   0  0  0  0  0  0  0  0  0  0  0  0
   -5.6181   -4.2387    0.9679 C   0  0  0  0  0  0  0  0  0  0  0  0
   -4.5901   -5.0717    0.7590 N   0  0  0  0  0  0  0  0  0  0  0  0
   -4.6393   -6.5139    0.7601 C   0  0  0  0  0  0  0  0  0  0  0  0
   -3.4712   -4.3781    0.5331 N   0  0  0  0  0  0  0  0  0  0  0  0
    2.0432    0.8540    1.7797 C   0  0  0  0  0  0  0  0  0  0  0  0
    2.8579    1.1492    2.6463 C   0  0  0  0  0  0  0  0  0  0  0  0
    3.8352    1.4634    3.6440 C   0  0  0  0  0  0  0  0  0  0  0  0
    3.5401    1.3827    4.9819 C   0  0  0  0  0  0  0  0  0  0  0  0
    4.4699    1.6735    5.9835 C   0  0  0  0  0  0  0  0  0  0  0  0
    5.7366    2.0587    5.5989 C   0  0  0  0  0  0  0  0  0  0  0  0
    6.9389    2.4463    6.7982 Cl  0  0  0  0  0  0  0  0  0  0  0  0
    6.0648    2.1508    4.2695 C   0  0  0  0  0  0  0  0  0  0  0  0
    5.1394    1.8608    3.2954 C   0  0  0  0  0  0  0  0  0  0  0  0
   -0.6637    1.4183   -5.5512 H   0  0  0  0  0  0  0  0  0  0  0  0
   -2.2360    2.0458   -6.1447 H   0  0  0  0  0  0  0  0  0  0  0  0
   -0.7510    2.9766   -6.4606 H   0  0  0  0  0  0  0  0  0  0  0  0
   -1.0288    3.9424   -2.7851 H   0  0  0  0  0  0  0  0  0  0  0  0
   -0.0472    4.4351   -4.1623 H   0  0  0  0  0  0  0  0  0  0  0  0
    1.1235    3.1378   -2.4677 H   0  0  0  0  0  0  0  0  0  0  0  0
    2.5359    2.2969   -3.9429 H   0  0  0  0  0  0  0  0  0  0  0  0
    1.3849    1.0317   -4.4842 H   0  0  0  0  0  0  0  0  0  0  0  0
    1.3335    2.7134   -5.2525 H   0  0  0  0  0  0  0  0  0  0  0  0
    1.6641    2.0609   -0.5572 H   0  0  0  0  0  0  0  0  0  0  0  0
    0.3084   -1.2183    1.7979 H   0  0  0  0  0  0  0  0  0  0  0  0
   -1.4074   -0.6107   -1.9961 H   0  0  0  0  0  0  0  0  0  0  0  0
   -3.2542   -0.9848    0.4364 H   0  0  0  0  0  0  0  0  0  0  0  0
   -5.6047   -2.0391    0.9724 H   0  0  0  0  0  0  0  0  0  0  0  0
   -6.6399   -4.5238    1.1750 H   0  0  0  0  0  0  0  0  0  0  0  0
   -3.6484   -6.9111    1.1061 H   0  0  0  0  0  0  0  0  0  0  0  0
   -4.8456   -6.8630   -0.2759 H   0  0  0  0  0  0  0  0  0  0  0  0
   -5.3998   -6.9104    1.4574 H   0  0  0  0  0  0  0  0  0  0  0  0
    2.5416    1.0820    5.3080 H   0  0  0  0  0  0  0  0  0  0  0  0
    4.1596    1.5833    7.0017 H   0  0  0  0  0  0  0  0  0  0  0  0
    7.0697    2.4573    4.0200 H   0  0  0  0  0  0  0  0  0  0  0  0
    5.4318    1.9428    2.2617 H   0  0  0  0  0  0  0  0  0  0  0  0
  1  2  1  0
  2  3  1  0
  3  4  1  0
  4  5  1  0
  4  6  1  0
  6  7  1  0
  7  8  2  0
  8  9  1  0
  9 10  2  0
 10 11  1  0
 11 12  2  0
 11 13  1  0
 13 14  2  0
 13 15  1  0
 15 16  1  0
 16 17  1  0
 17 18  2  0
 18 19  1  0
 19 20  1  0
 19 21  1  0
  9 22  1  0
 22 23  3  0
 23 24  1  0
 24 25  2  0
 25 26  1  0
 26 27  2  0
 27 28  1  0
 27 29  1  0
 29 30  2  0
 12  7  1  0
 21 16  2  0
 30 24  1  0
  1 31  1  0
  1 32  1  0
  1 33  1  0
  3 34  1  0
  3 35  1  0
  4 36  1  1
  5 37  1  0
  5 38  1  0
  5 39  1  0
  8 40  1  0
 10 41  1  0
 12 42  1  0
 15 43  1  0
 17 44  1  0
 18 45  1  0
 20 46  1  0
 20 47  1  0
 20 48  1  0
 25 49  1  0
 26 50  1  0
 29 51  1  0
 30 52  1  0
M  END
$$$$
[H]c1c([H])c([C@@]2([H])C([H])([H])N(S(=O)(=O)C([H])([H])[H])C([H])([H])[C@]2([H])N([H])C(=O)c2c([H])c(OC([H])([H])[H])c(OC([H])([H])[H])c(OC([H])([H])[H])c2[H])c([H])c(F)c1F
     RDKit          3D

 56 58  0  0  0  0  0  0  0  0999 V2000
   -3.5544    2.8297    1.9993 C   0  0  0  0  0  0  0  0  0  0  0  0
   -4.4718    1.8568    1.4783 O   0  0  0  0  0  0  0  0  0  0  0  0
   -4.0043    0.8137    0.6747 C   0  0  0  0  0  0  0  0  0  0  0  0
   -2.6695    0.6809    0.3565 C   0  0  0  0  0  0  0  0  0  0  0  0
   -2.2511   -0.3698   -0.4441 C   0  0  0  0  0  0  0  0  0  0  0  0
   -3.1845   -1.2901   -0.9253 C   0  0  0  0  0  0  0  0  0  0  0  0
   -4.5187   -1.1656   -0.6131 C   0  0  0  0  0  0  0  0  0  0  0  0
   -5.4626   -2.0881   -1.0942 O   0  0  0  0  0  0  0  0  0  0  0  0
   -5.0040   -3.1488   -1.9086 C   0  0  0  0  0  0  0  0  0  0  0  0
   -4.9030   -0.1056    0.1882 C   0  0  0  0  0  0  0  0  0  0  0  0
   -6.2496    0.0401    0.5172 O   0  0  0  0  0  0  0  0  0  0  0  0
   -6.7076   -0.5994    1.6900 C   0  0  0  0  0  0  0  0  0  0  0  0
   -0.8661   -0.5708   -0.8182 C   0  0  0  0  0  0  0  0  0  0  0  0
   -0.5729   -1.5503   -1.5410 O   0  0  0  0  0  0  0  0  0  0  0  0
    0.1455    0.3066   -0.3881 N   0  0  0  0  0  0  0  0  0  0  0  0
    1.5405    0.0692   -0.7889 C   0  0  1  0  0  0  0  0  0  0  0  0
    2.0177    1.2628   -1.5862 C   0  0  0  0  0  0  0  0  0  0  0  0
    2.4283    2.1830   -0.5747 N   0  0  0  0  0  0  0  0  0  0  0  0
    3.2117    1.3764    0.3435 C   0  0  0  0  0  0  0  0  0  0  0  0
    2.4137    0.0697    0.4203 C   0  0  2  0  0  0  0  0  0  0  0  0
    3.3221   -1.0891    0.5173 C   0  0  0  0  0  0  0  0  0  0  0  0
    4.1685   -1.4243   -0.5331 C   0  0  0  0  0  0  0  0  0  0  0  0
    5.0026   -2.5049   -0.4185 C   0  0  0  0  0  0  0  0  0  0  0  0
    5.0581   -3.3020    0.7002 C   0  0  0  0  0  0  0  0  0  0  0  0
    5.9041   -4.3675    0.7697 F   0  0  0  0  0  0  0  0  0  0  0  0
    4.2176   -2.9694    1.7436 C   0  0  0  0  0  0  0  0  0  0  0  0
    4.2462   -3.7387    2.8695 F   0  0  0  0  0  0  0  0  0  0  0  0
    3.3685   -1.8868    1.6537 C   0  0  0  0  0  0  0  0  0  0  0  0
    3.3569    3.4954   -1.1818 S   0  0  0  0  0  0  0  0  0  0  0  0
    4.8605    2.9704   -1.9384 C   0  0  0  0  0  0  0  0  0  0  0  0
    3.7138    4.3834   -0.0222 O   0  0  0  0  0  0  0  0  0  0  0  0
    2.4946    4.3069   -2.1060 O   0  0  0  0  0  0  0  0  0  0  0  0
   -4.0372    3.4323    2.7928 H   0  0  0  0  0  0  0  0  0  0  0  0
   -3.2927    3.5219    1.1734 H   0  0  0  0  0  0  0  0  0  0  0  0
   -2.6334    2.3468    2.3869 H   0  0  0  0  0  0  0  0  0  0  0  0
   -1.9623    1.3805    0.7227 H   0  0  0  0  0  0  0  0  0  0  0  0
   -2.8894   -2.1238   -1.5544 H   0  0  0  0  0  0  0  0  0  0  0  0
   -5.8349   -3.7807   -2.2465 H   0  0  0  0  0  0  0  0  0  0  0  0
   -4.3123   -3.8167   -1.3399 H   0  0  0  0  0  0  0  0  0  0  0  0
   -4.4105   -2.7619   -2.7632 H   0  0  0  0  0  0  0  0  0  0  0  0
   -7.1844    0.1043    2.3899 H   0  0  0  0  0  0  0  0  0  0  0  0
   -7.4919   -1.3256    1.3653 H   0  0  0  0  0  0  0  0  0  0  0  0
   -5.9210   -1.1506    2.2275 H   0  0  0  0  0  0  0  0  0  0  0  0
   -0.0393    1.1403    0.2159 H   0  0  0  0  0  0  0  0  0  0  0  0
    1.6152   -0.8282   -1.4171 H   0  0  0  0  0  0  0  0  0  0  0  0
    1.1163    1.6386   -2.1386 H   0  0  0  0  0  0  0  0  0  0  0  0
    2.8120    0.9969   -2.3003 H   0  0  0  0  0  0  0  0  0  0  0  0
    4.2203    1.1511   -0.0231 H   0  0  0  0  0  0  0  0  0  0  0  0
    3.2427    1.9008    1.3103 H   0  0  0  0  0  0  0  0  0  0  0  0
    1.8465    0.1342    1.3740 H   0  0  0  0  0  0  0  0  0  0  0  0
    4.1354   -0.8009   -1.4269 H   0  0  0  0  0  0  0  0  0  0  0  0
    5.6488   -2.7316   -1.2652 H   0  0  0  0  0  0  0  0  0  0  0  0
    2.7065   -1.6400    2.4986 H   0  0  0  0  0  0  0  0  0  0  0  0
    5.2140    3.8100   -2.5941 H   0  0  0  0  0  0  0  0  0  0  0  0
    4.7364    2.0955   -2.6077 H   0  0  0  0  0  0  0  0  0  0  0  0
    5.6646    2.8329   -1.1852 H   0  0  0  0  0  0  0  0  0  0  0  0
  1  2  1  0
  2  3  1  0
  3  4  2  0
  4  5  1  0
  5  6  2  0
  6  7  1  0
  7  8  1  0
  8  9  1  0
  7 10  2  0
 10 11  1  0
 11 12  1  0
  5 13  1  0
 13 14  2  0
 13 15  1  0
 15 16  1  0
 16 17  1  0
 17 18  1  0
 18 19  1  0
 19 20  1  0
 20 21  1  0
 21 22  2  0
 22 23  1  0
 23 24  2  0
 24 25  1  0
 24 26  1  0
 26 27  1  0
 26 28  2  0
 18 29  1  0
 29 30  1  0
 29 31  2  0
 29 32  2  0
 10  3  1  0
 20 16  1  0
 28 21  1  0
  1 33  1  0
  1 34  1  0
  1 35  1  0
  4 36  1  0
  6 37  1  0
  9 38  1  0
  9 39  1  0
  9 40  1  0
 12 41  1  0
 12 42  1  0
 12 43  1  0
 15 44  1  0
 16 45  1  6
 17 46  1  0
 17 47  1  0
 19 48  1  0
 19 49  1  0
 20 50  1  1
 22 51  1  0
 23 52  1  0
 28 53  1  0
 30 54  1  0
 30 55  1  0
 30 56  1  0
M  END
$$$$
[H]N=C(N([H])[H])N([H])C([H])([H])C([H])([H])C([H])([H])[C@@]([H])(C(=O)c1nc2c([H])c([H])c([H])c([H])c2o1)N([H])C(=O)[C@@]([H])(N([H])C(=O)[C@@]([H])(N([H])C(=O)C([H])([H])C([H])([H])c1c([H])c([H])c([H])c([H])c1[H])C([H])([H])c1c([H])c([H])c([H])c([H])c1[H])C([H])([H])C([H])(C([H])([H])[H])C([H])([H])[H]
     RDKit          3D

 94 97  0  0  0  0  0  0  0  0999 V2000
   -0.2476    1.8471   -4.0787 C   0  0  0  0  0  0  0  0  0  0  0  0
   -0.2073    0.8552   -2.8821 C   0  0  0  0  0  0  0  0  0  0  0  0
   -1.5118    0.1454   -2.9611 C   0  0  0  0  0  0  0  0  0  0  0  0
    0.0647    1.6899   -1.7033 C   0  0  0  0  0  0  0  0  0  0  0  0
    0.1943    1.0341   -0.3710 C   0  0  2  0  0  0  0  0  0  0  0  0
    1.2288    0.0601   -0.3007 N   0  0  0  0  0  0  0  0  0  0  0  0
    2.3262    0.0962    0.5836 C   0  0  0  0  0  0  0  0  0  0  0  0
    2.4402    1.0305    1.4066 O   0  0  0  0  0  0  0  0  0  0  0  0
    3.3855   -0.9625    0.5687 C   0  0  2  0  0  0  0  0  0  0  0  0
    2.8741   -2.3518    0.6442 C   0  0  0  0  0  0  0  0  0  0  0  0
    3.9588   -3.3638    0.6279 C   0  0  0  0  0  0  0  0  0  0  0  0
    4.5251   -3.7671    1.8108 C   0  0  0  0  0  0  0  0  0  0  0  0
    5.5428   -4.7134    1.8463 C   0  0  0  0  0  0  0  0  0  0  0  0
    6.0109   -5.2758    0.6651 C   0  0  0  0  0  0  0  0  0  0  0  0
    5.4367   -4.8662   -0.5252 C   0  0  0  0  0  0  0  0  0  0  0  0
    4.4242   -3.9225   -0.5444 C   0  0  0  0  0  0  0  0  0  0  0  0
    4.3999   -0.6799    1.5188 N   0  0  0  0  0  0  0  0  0  0  0  0
    5.5319    0.1250    1.1287 C   0  0  0  0  0  0  0  0  0  0  0  0
    5.5154    0.5250   -0.0450 O   0  0  0  0  0  0  0  0  0  0  0  0
    6.5916    0.4245    2.0691 C   0  0  0  0  0  0  0  0  0  0  0  0
    7.5560    1.4991    1.7493 C   0  0  0  0  0  0  0  0  0  0  0  0
    8.3277    1.4012    0.5188 C   0  0  0  0  0  0  0  0  0  0  0  0
    9.4339    0.6241    0.3422 C   0  0  0  0  0  0  0  0  0  0  0  0
   10.1518    0.6213   -0.8658 C   0  0  0  0  0  0  0  0  0  0  0  0
    9.7416    1.4241   -1.9173 C   0  0  0  0  0  0  0  0  0  0  0  0
    8.6288    2.2132   -1.7517 C   0  0  0  0  0  0  0  0  0  0  0  0
    7.9369    2.2022   -0.5592 C   0  0  0  0  0  0  0  0  0  0  0  0
   -1.1417    0.6018    0.0902 C   0  0  0  0  0  0  0  0  0  0  0  0
   -1.2970   -0.5702    0.5245 O   0  0  0  0  0  0  0  0  0  0  0  0
   -2.2582    1.4596    0.0620 N   0  0  0  0  0  0  0  0  0  0  0  0
   -3.6101    1.0809    0.4997 C   0  0  1  0  0  0  0  0  0  0  0  0
   -3.7850    1.8226    1.8247 C   0  0  0  0  0  0  0  0  0  0  0  0
   -5.0594    1.5947    2.5250 C   0  0  0  0  0  0  0  0  0  0  0  0
   -5.3294    0.1988    2.9865 C   0  0  0  0  0  0  0  0  0  0  0  0
   -6.6439    0.2093    3.6433 N   0  0  0  0  0  0  0  0  0  0  0  0
   -7.8385    0.4191    2.9308 C   0  0  0  0  0  0  0  0  0  0  0  0
   -8.3477    1.7439    2.8473 N   0  0  0  0  0  0  0  0  0  0  0  0
   -8.4966   -0.5290    2.3490 N   0  0  0  0  0  0  0  0  0  0  0  0
   -4.5920    1.5673   -0.4687 C   0  0  0  0  0  0  0  0  0  0  0  0
   -4.4107    2.7370   -0.9282 O   0  0  0  0  0  0  0  0  0  0  0  0
   -5.7417    0.8039   -0.9316 C   0  0  0  0  0  0  0  0  0  0  0  0
   -6.1293   -0.4459   -0.6276 N   0  0  0  0  0  0  0  0  0  0  0  0
   -7.2541   -0.7715   -1.2748 C   0  0  0  0  0  0  0  0  0  0  0  0
   -8.0779   -1.9031   -1.3335 C   0  0  0  0  0  0  0  0  0  0  0  0
   -9.2041   -1.9093   -2.1265 C   0  0  0  0  0  0  0  0  0  0  0  0
   -9.5140   -0.7946   -2.8623 C   0  0  0  0  0  0  0  0  0  0  0  0
   -8.7201    0.3452   -2.8295 C   0  0  0  0  0  0  0  0  0  0  0  0
   -7.5824    0.3238   -2.0141 C   0  0  0  0  0  0  0  0  0  0  0  0
   -6.6608    1.2481   -1.7893 O   0  0  0  0  0  0  0  0  0  0  0  0
   -0.4395    1.2931   -5.0000 H   0  0  0  0  0  0  0  0  0  0  0  0
    0.6682    2.4641   -4.0982 H   0  0  0  0  0  0  0  0  0  0  0  0
   -1.1091    2.5067   -3.8709 H   0  0  0  0  0  0  0  0  0  0  0  0
    0.6663    0.2049   -3.1200 H   0  0  0  0  0  0  0  0  0  0  0  0
   -1.6963   -0.6554   -2.2564 H   0  0  0  0  0  0  0  0  0  0  0  0
   -1.5719   -0.2998   -4.0033 H   0  0  0  0  0  0  0  0  0  0  0  0
   -2.3471    0.8694   -2.9146 H   0  0  0  0  0  0  0  0  0  0  0  0
   -0.7032    2.5144   -1.6994 H   0  0  0  0  0  0  0  0  0  0  0  0
    1.0325    2.2394   -1.8975 H   0  0  0  0  0  0  0  0  0  0  0  0
    0.4927    1.8264    0.4045 H   0  0  0  0  0  0  0  0  0  0  0  0
    1.1746   -0.7512   -0.9584 H   0  0  0  0  0  0  0  0  0  0  0  0
    3.8363   -0.8175   -0.4765 H   0  0  0  0  0  0  0  0  0  0  0  0
    2.1981   -2.6309   -0.1926 H   0  0  0  0  0  0  0  0  0  0  0  0
    2.3074   -2.4807    1.5864 H   0  0  0  0  0  0  0  0  0  0  0  0
    4.2275   -3.3870    2.7770 H   0  0  0  0  0  0  0  0  0  0  0  0
    6.0080   -5.0481    2.7592 H   0  0  0  0  0  0  0  0  0  0  0  0
    6.8053   -6.0155    0.6950 H   0  0  0  0  0  0  0  0  0  0  0  0
    5.8244   -5.3253   -1.4304 H   0  0  0  0  0  0  0  0  0  0  0  0
    4.0035   -3.6306   -1.4931 H   0  0  0  0  0  0  0  0  0  0  0  0
    4.3653   -1.0240    2.4819 H   0  0  0  0  0  0  0  0  0  0  0  0
    7.1726   -0.5166    2.3044 H   0  0  0  0  0  0  0  0  0  0  0  0
    6.1072    0.7270    3.0630 H   0  0  0  0  0  0  0  0  0  0  0  0
    7.0762    2.5128    1.8049 H   0  0  0  0  0  0  0  0  0  0  0  0
    8.3121    1.5102    2.5953 H   0  0  0  0  0  0  0  0  0  0  0  0
    9.7732   -0.0148    1.1569 H   0  0  0  0  0  0  0  0  0  0  0  0
   11.0160    0.0036   -0.9977 H   0  0  0  0  0  0  0  0  0  0  0  0
   10.3115    1.4159   -2.8586 H   0  0  0  0  0  0  0  0  0  0  0  0
    8.3338    2.8331   -2.6012 H   0  0  0  0  0  0  0  0  0  0  0  0
    7.0727    2.8388   -0.4486 H   0  0  0  0  0  0  0  0  0  0  0  0
   -2.1529    2.4270   -0.2808 H   0  0  0  0  0  0  0  0  0  0  0  0
   -3.6203    0.0232    0.7006 H   0  0  0  0  0  0  0  0  0  0  0  0
   -3.6807    2.9178    1.6434 H   0  0  0  0  0  0  0  0  0  0  0  0
   -2.9235    1.5560    2.4783 H   0  0  0  0  0  0  0  0  0  0  0  0
   -5.0471    2.2329    3.4531 H   0  0  0  0  0  0  0  0  0  0  0  0
   -5.9317    2.0178    1.9452 H   0  0  0  0  0  0  0  0  0  0  0  0
   -4.5587   -0.0284    3.7824 H   0  0  0  0  0  0  0  0  0  0  0  0
   -5.3526   -0.5721    2.2239 H   0  0  0  0  0  0  0  0  0  0  0  0
   -6.6951    0.0611    4.6634 H   0  0  0  0  0  0  0  0  0  0  0  0
   -8.2121    2.4468    3.6183 H   0  0  0  0  0  0  0  0  0  0  0  0
   -8.8821    2.0936    2.0190 H   0  0  0  0  0  0  0  0  0  0  0  0
   -9.3778   -0.3382    1.8291 H   0  0  0  0  0  0  0  0  0  0  0  0
   -7.8074   -2.7588   -0.7496 H   0  0  0  0  0  0  0  0  0  0  0  0
   -9.8757   -2.7801   -2.1964 H   0  0  0  0  0  0  0  0  0  0  0  0
  -10.4148   -0.8292   -3.4811 H   0  0  0  0  0  0  0  0  0  0  0  0
   -8.9522    1.2199   -3.3982 H   0  0  0  0  0  0  0  0  0  0  0  0
  1  2  1  0
  2  3  1  0
  2  4  1  0
  4  5  1  0
  5  6  1  0
  6  7  1  0
  7  8  2  0
  7  9  1  0
  9 10  1  0
 10 11  1  0
 11 12  2  0
 12 13  1  0
 13 14  2  0
 14 15  1  0
 15 16  2  0
  9 17  1  0
 17 18  1  0
 18 19  2  0
 18 20  1  0
 20 21  1  0
 21 22  1  0
 22 23  2  0
 23 24  1  0
 24 25  2  0
 25 26  1  0
 26 27  2  0
  5 28  1  0
 28 29  2  0
 28 30  1  0
 30 31  1  0
 31 32  1  0
 32 33  1  0
 33 34  1  0
 34 35  1  0
 35 36  1  0
 36 37  1  0
 36 38  2  3
 31 39  1  0
 39 40  2  0
 39 41  1  0
 41 42  2  0
 42 43  1  0
 43 44  2  0
 44 45  1  0
 45 46  2  0
 46 47  1  0
 47 48  2  0
 48 49  1  0
 16 11  1  0
 27 22  1  0
 49 41  1  0
 48 43  1  0
  1 50  1  0
  1 51  1  0
  1 52  1  0
  2 53  1  0
  3 54  1  0
  3 55  1  0
  3 56  1  0
  4 57  1  0
  4 58  1  0
  5 59  1  1
  6 60  1  0
  9 61  1  6
 10 62  1  0
 10 63  1  0
 12 64  1  0
 13 65  1  0
 14 66  1  0
 15 67  1  0
 16 68  1  0
 17 69  1  0
 20 70  1  0
 20 71  1  0
 21 72  1  0
 21 73  1  0
 23 74  1  0
 24 75  1  0
 25 76  1  0
 26 77  1  0
 27 78  1  0
 30 79  1  0
 31 80  1  1
 32 81  1  0
 32 82  1  0
 33 83  1  0
 33 84  1  0
 34 85  1  0
 34 86  1  0
 35 87  1  0
 37 88  1  0
 37 89  1  0
 38 90  1  0
 44 91  1  0
 45 92  1  0
 46 93  1  0
 47 94  1  0
M  END
$$$$
[H]c1c([H])c([H])c2c(c1[H])c1c3c(c4c5c([H])c([H])c([H])c([H])c5n5c4c1n2[C@@]1([H])O[C@@]5(C([H])([H])[H])[C@@]([H])(N([H])C([H])([H])[H])C1([H])[H])C([H])([H])N([H])C3=O
     RDKit          2D

 54 61  0  0  0  0  0  0  0  0999 V2000
    3.8173    0.5402    0.0000 C   0  0  0  0  0  0  0  0  0  0  0  0
    2.3907    1.0037    0.0000 N   0  0  0  0  0  0  0  0  0  0  0  0
    1.2760    0.0000    0.0000 C   0  0  0  0  0  0  0  0  0  0  0  0
    0.3943    1.2135    0.0000 C   0  0  0  0  0  0  0  0  0  0  0  0
   -1.0323    0.7500    0.0000 C   0  0  0  0  0  0  0  0  0  0  0  0
   -1.0323   -0.7500    0.0000 O   0  0  0  0  0  0  0  0  0  0  0  0
    0.3943   -1.2135    0.0000 C   0  0  0  0  0  0  0  0  0  0  0  0
    0.8578   -2.6401    0.0000 C   0  0  0  0  0  0  0  0  0  0  0  0
   -0.5926   -2.3431    0.0000 N   0  0  0  0  0  0  0  0  0  0  0  0
   -0.1936   -3.7891    0.0000 C   0  0  0  0  0  0  0  0  0  0  0  0
    1.1480   -4.4600    0.0000 C   0  0  0  0  0  0  0  0  0  0  0  0
    1.2377   -5.9574    0.0000 C   0  0  0  0  0  0  0  0  0  0  0  0
   -0.0141   -6.7837    0.0000 C   0  0  0  0  0  0  0  0  0  0  0  0
   -1.3557   -6.1127    0.0000 C   0  0  0  0  0  0  0  0  0  0  0  0
   -1.4454   -4.6154    0.0000 C   0  0  0  0  0  0  0  0  0  0  0  0
   -2.6182   -3.6802    0.0000 C   0  0  0  0  0  0  0  0  0  0  0  0
   -4.1997   -3.7135    0.0000 C   0  0  0  0  0  0  0  0  0  0  0  0
   -5.0814   -4.9270    0.0000 C   0  0  0  0  0  0  0  0  0  0  0  0
   -6.5080   -4.4635    0.0000 N   0  0  0  0  0  0  0  0  0  0  0  0
   -6.5080   -2.9635    0.0000 C   0  0  0  0  0  0  0  0  0  0  0  0
   -7.7215   -2.0818    0.0000 O   0  0  0  0  0  0  0  0  0  0  0  0
   -5.0814   -2.4999    0.0000 C   0  0  0  0  0  0  0  0  0  0  0  0
   -4.4713   -1.1296    0.0000 C   0  0  0  0  0  0  0  0  0  0  0  0
   -4.9983    0.2747    0.0000 C   0  0  0  0  0  0  0  0  0  0  0  0
   -6.3946    0.8228    0.0000 C   0  0  0  0  0  0  0  0  0  0  0  0
   -6.6182    2.3060    0.0000 C   0  0  0  0  0  0  0  0  0  0  0  0
   -5.4455    3.2412    0.0000 C   0  0  0  0  0  0  0  0  0  0  0  0
   -4.0491    2.6932    0.0000 C   0  0  0  0  0  0  0  0  0  0  0  0
   -3.8256    1.2100    0.0000 C   0  0  0  0  0  0  0  0  0  0  0  0
   -2.5737    0.3836    0.0000 N   0  0  0  0  0  0  0  0  0  0  0  0
   -2.9728   -1.0623    0.0000 C   0  0  0  0  0  0  0  0  0  0  0  0
   -2.0911   -2.2758    0.0000 C   0  0  0  0  0  0  0  0  0  0  0  0
    5.2439    0.0766    0.0000 H   0  0  0  0  0  0  0  0  0  0  0  0
    4.2808    1.9668    0.0000 H   0  0  0  0  0  0  0  0  0  0  0  0
    3.3538   -0.8864    0.0000 H   0  0  0  0  0  0  0  0  0  0  0  0
    2.2848    2.2141    0.0000 H   0  0  0  0  0  0  0  0  0  0  0  0
    2.3907   -1.0037    0.0000 H   0  0  0  0  0  0  0  0  0  0  0  0
   -0.2158    2.5838    0.0000 H   0  0  0  0  0  0  0  0  0  0  0  0
    1.3646    1.9448    0.0000 H   0  0  0  0  0  0  0  0  0  0  0  0
   -2.2458    1.6317    0.0000 H   0  0  0  0  0  0  0  0  0  0  0  0
    1.5017   -3.6705    0.0000 H   0  0  0  0  0  0  0  0  0  0  0  0
    2.2844   -2.1766    0.0000 H   0  0  0  0  0  0  0  0  0  0  0  0
    0.3041   -3.2136    0.0000 H   0  0  0  0  0  0  0  0  0  0  0  0
    2.3999   -3.6337    0.0000 H   0  0  0  0  0  0  0  0  0  0  0  0
    2.5793   -6.6283    0.0000 H   0  0  0  0  0  0  0  0  0  0  0  0
    0.0756   -8.2810    0.0000 H   0  0  0  0  0  0  0  0  0  0  0  0
   -2.6076   -6.9391    0.0000 H   0  0  0  0  0  0  0  0  0  0  0  0
   -3.7823   -5.6770    0.0000 H   0  0  0  0  0  0  0  0  0  0  0  0
   -5.6915   -6.2973    0.0000 H   0  0  0  0  0  0  0  0  0  0  0  0
   -7.7215   -5.3451    0.0000 H   0  0  0  0  0  0  0  0  0  0  0  0
   -7.5674   -0.1125    0.0000 H   0  0  0  0  0  0  0  0  0  0  0  0
   -8.0145    2.8540    0.0000 H   0  0  0  0  0  0  0  0  0  0  0  0
   -5.6690    4.7245    0.0000 H   0  0  0  0  0  0  0  0  0  0  0  0
   -2.8764    3.6285    0.0000 H   0  0  0  0  0  0  0  0  0  0  0  0
  1  2  1  0
  2  3  1  0
  3  4  1  0
  4  5  1  0
  5  6  1  0
  6  7  1  0
  7  8  1  6
  7  9  1  0
  9 10  1  0
 10 11  2  0
 11 12  1  0
 12 13  2  0
 13 14  1  0
 14 15  2  0
 15 16  1  0
 16 17  2  0
 17 18  1  0
 18 19  1  0
 19 20  1  0
 20 21  2  0
 20 22  1  0
 22 23  2  0
 23 24  1  0
 24 25  2  0
 25 26  1  0
 26 27  2  0
 27 28  1  0
 28 29  2  0
 29 30  1  0
 30 31  1  0
 31 32  2  0
  7  3  1  0
 32  9  1  0
 30  5  1  0
 15 10  1  0
 32 16  1  0
 22 17  1  0
 31 23  1  0
 29 24  1  0
  1 33  1  0
  1 34  1  0
  1 35  1  0
  2 36  1  0
  3 37  1  1
  4 38  1  0
  4 39  1  0
  5 40  1  1
  8 41  1  0
  8 42  1  0
  8 43  1  0
 11 44  1  0
 12 45  1  0
 13 46  1  0
 14 47  1  0
 18 48  1  0
 18 49  1  0
 19 50  1  0
 25 51  1  0
 26 52  1  0
 27 53  1  0
 28 54  1  0
M  END
$$$$
[H]c1nc([H])c2sc(C(=O)N([H])C([H])([H])[H])c([H])c2c1Oc1c([H])c([H])c(N([H])C(=O)C2(C(=O)N([H])c3c([H])c([H])c(F)c([H])c3[H])C([H])([H])C2([H])[H])c([H])c1[H]
     RDKit          3D

 57 61  0  0  0  0  0  0  0  0999 V2000
    8.8053   -1.0879    2.6027 C   0  0  0  0  0  0  0  0  0  0  0  0
    8.9732   -0.7141    1.3210 N   0  0  0  0  0  0  0  0  0  0  0  0
    9.1461   -0.3294    0.0017 C   0  0  0  0  0  0  0  0  0  0  0  0
   10.2507   -0.1697   -0.5953 O   0  0  0  0  0  0  0  0  0  0  0  0
    7.9148   -0.0692   -0.8263 C   0  0  0  0  0  0  0  0  0  0  0  0
    6.6066   -0.1397   -0.4505 C   0  0  0  0  0  0  0  0  0  0  0  0
    5.6745    0.1506   -1.3855 C   0  0  0  0  0  0  0  0  0  0  0  0
    4.2916    0.1424   -1.2265 C   0  0  0  0  0  0  0  0  0  0  0  0
    3.6722   -0.1876    0.0004 O   0  0  0  0  0  0  0  0  0  0  0  0
    2.2918   -0.1727    0.0919 C   0  0  0  0  0  0  0  0  0  0  0  0
    1.5513    0.9001    0.4520 C   0  0  0  0  0  0  0  0  0  0  0  0
    0.1697    0.8994    0.5333 C   0  0  0  0  0  0  0  0  0  0  0  0
   -0.4875   -0.2666    0.2296 C   0  0  0  0  0  0  0  0  0  0  0  0
   -1.9286   -0.2662    0.2443 N   0  0  0  0  0  0  0  0  0  0  0  0
   -2.7412   -1.3405    0.5763 C   0  0  0  0  0  0  0  0  0  0  0  0
   -2.1298   -2.4245    0.9383 O   0  0  0  0  0  0  0  0  0  0  0  0
   -4.2231   -1.4366    0.5761 C   0  0  0  0  0  0  0  0  0  0  0  0
   -4.8151   -2.7913    0.3326 C   0  0  0  0  0  0  0  0  0  0  0  0
   -4.7708   -2.2855    1.7112 C   0  0  0  0  0  0  0  0  0  0  0  0
   -5.0157   -0.3102    0.0543 C   0  0  0  0  0  0  0  0  0  0  0  0
   -4.4693    0.4301   -0.8210 O   0  0  0  0  0  0  0  0  0  0  0  0
   -6.3208   -0.0062    0.4564 N   0  0  0  0  0  0  0  0  0  0  0  0
   -7.0444    1.0906   -0.1017 C   0  0  0  0  0  0  0  0  0  0  0  0
   -6.9204    1.5178   -1.3884 C   0  0  0  0  0  0  0  0  0  0  0  0
   -7.6058    2.6143   -1.8544 C   0  0  0  0  0  0  0  0  0  0  0  0
   -8.4423    3.3264   -1.0579 C   0  0  0  0  0  0  0  0  0  0  0  0
   -9.1132    4.4025   -1.5195 F   0  0  0  0  0  0  0  0  0  0  0  0
   -8.5934    2.9124    0.2762 C   0  0  0  0  0  0  0  0  0  0  0  0
   -7.9024    1.8193    0.7173 C   0  0  0  0  0  0  0  0  0  0  0  0
    0.1908   -1.3940   -0.1400 C   0  0  0  0  0  0  0  0  0  0  0  0
    1.6007   -1.3404   -0.2083 C   0  0  0  0  0  0  0  0  0  0  0  0
    3.4641    0.4669   -2.2983 C   0  0  0  0  0  0  0  0  0  0  0  0
    3.9504    0.7950   -3.4999 N   0  0  0  0  0  0  0  0  0  0  0  0
    5.2712    0.8150   -3.6955 C   0  0  0  0  0  0  0  0  0  0  0  0
    6.1356    0.4900   -2.6287 C   0  0  0  0  0  0  0  0  0  0  0  0
    7.8263    0.3969   -2.4615 S   0  0  0  0  0  0  0  0  0  0  0  0
    9.0500   -0.2661    3.3362 H   0  0  0  0  0  0  0  0  0  0  0  0
    9.4028   -2.0164    2.8938 H   0  0  0  0  0  0  0  0  0  0  0  0
    7.7405   -1.3582    2.9200 H   0  0  0  0  0  0  0  0  0  0  0  0
   10.3234   -0.6825    1.4873 H   0  0  0  0  0  0  0  0  0  0  0  0
    6.3785   -0.4326    0.6036 H   0  0  0  0  0  0  0  0  0  0  0  0
    2.0646    1.8253    0.6916 H   0  0  0  0  0  0  0  0  0  0  0  0
   -0.3857    1.7927    0.8267 H   0  0  0  0  0  0  0  0  0  0  0  0
   -2.3868    0.6645   -0.0194 H   0  0  0  0  0  0  0  0  0  0  0  0
   -4.0851   -3.5651   -0.0092 H   0  0  0  0  0  0  0  0  0  0  0  0
   -5.7902   -2.8601   -0.1576 H   0  0  0  0  0  0  0  0  0  0  0  0
   -5.6642   -1.9567    2.2521 H   0  0  0  0  0  0  0  0  0  0  0  0
   -4.0416   -2.7901    2.3885 H   0  0  0  0  0  0  0  0  0  0  0  0
   -6.8497   -0.5641    1.1909 H   0  0  0  0  0  0  0  0  0  0  0  0
   -6.2745    0.9546   -2.0795 H   0  0  0  0  0  0  0  0  0  0  0  0
   -7.4418    2.8782   -2.8940 H   0  0  0  0  0  0  0  0  0  0  0  0
   -9.2563    3.4914    0.8807 H   0  0  0  0  0  0  0  0  0  0  0  0
   -8.0117    1.4794    1.7595 H   0  0  0  0  0  0  0  0  0  0  0  0
   -0.2899   -2.3234   -0.4012 H   0  0  0  0  0  0  0  0  0  0  0  0
    2.1224   -2.2134   -0.4955 H   0  0  0  0  0  0  0  0  0  0  0  0
    2.3802    0.4393   -2.1169 H   0  0  0  0  0  0  0  0  0  0  0  0
    5.7525    1.0660   -4.6142 H   0  0  0  0  0  0  0  0  0  0  0  0
  1  2  1  0
  2  3  1  0
  3  4  2  0
  3  5  1  0
  5  6  2  0
  6  7  1  0
  7  8  2  0
  8  9  1  0
  9 10  1  0
 10 11  2  0
 11 12  1  0
 12 13  2  0
 13 14  1  0
 14 15  1  0
 15 16  2  0
 15 17  1  0
 17 18  1  0
 18 19  1  0
 17 20  1  0
 20 21  2  0
 20 22  1  0
 22 23  1  0
 23 24  2  0
 24 25  1  0
 25 26  2  0
 26 27  1  0
 26 28  1  0
 28 29  2  0
 13 30  1  0
 30 31  2  0
  8 32  1  0
 32 33  2  0
 33 34  1  0
 34 35  2  0
 35 36  1  0
 36  5  1  0
 35  7  1  0
 31 10  1  0
 19 17  1  0
 29 23  1  0
  1 37  1  0
  1 38  1  0
  1 39  1  0
  2 40  1  0
  6 41  1  0
 11 42  1  0
 12 43  1  0
 14 44  1  0
 18 45  1  0
 18 46  1  0
 19 47  1  0
 19 48  1  0
 22 49  1  0
 24 50  1  0
 25 51  1  0
 28 52  1  0
 29 53  1  0
 30 54  1  0
 31 55  1  0
 32 56  1  0
 34 57  1  0
M  END
$$$$
[H]c1nc(N([H])c2c([H])c([H])c(N3C([H])([H])C([H])([H])C([H])(N(C([H])([H])[H])C([H])([H])[H])C([H])([H])C3([H])[H])c([H])c2OC([H])([H])[H])nc(N([H])c2c([H])c([H])c([H])c([H])c2S(=O)(=O)C([H])(C([H])([H])[H])C([H])([H])[H])c1Cl
     RDKit          3D

 73 76  0  0  0  0  0  0  0  0999 V2000
   -1.4887   -3.5880    1.2680 C   0  0  0  0  0  0  0  0  0  0  0  0
   -0.7608   -2.5452    0.6863 O   0  0  0  0  0  0  0  0  0  0  0  0
   -1.4161   -1.4468    0.1649 C   0  0  0  0  0  0  0  0  0  0  0  0
   -2.7697   -1.3138    0.1835 C   0  0  0  0  0  0  0  0  0  0  0  0
   -3.4310   -0.2298   -0.3300 C   0  0  0  0  0  0  0  0  0  0  0  0
   -2.6699    0.7643   -0.8887 C   0  0  0  0  0  0  0  0  0  0  0  0
   -1.2837    0.6857   -0.9374 C   0  0  0  0  0  0  0  0  0  0  0  0
   -0.6456   -0.4090   -0.4169 C   0  0  0  0  0  0  0  0  0  0  0  0
    0.7306   -0.5530   -0.4331 N   0  0  0  0  0  0  0  0  0  0  0  0
    1.7028    0.3458   -0.9492 C   0  0  0  0  0  0  0  0  0  0  0  0
    1.4800    1.5214   -1.5269 N   0  0  0  0  0  0  0  0  0  0  0  0
    2.4593    2.3096   -1.9876 C   0  0  0  0  0  0  0  0  0  0  0  0
    3.7698    1.9304   -1.8818 C   0  0  0  0  0  0  0  0  0  0  0  0
    5.0878    2.9156   -2.4745 Cl  0  0  0  0  0  0  0  0  0  0  0  0
    4.0678    0.6884   -1.2753 C   0  0  0  0  0  0  0  0  0  0  0  0
    5.4172    0.3014   -1.1217 N   0  0  0  0  0  0  0  0  0  0  0  0
    5.8705   -0.9049   -0.5954 C   0  0  0  0  0  0  0  0  0  0  0  0
    5.0906   -2.0601   -0.5353 C   0  0  0  0  0  0  0  0  0  0  0  0
    5.6105   -3.2759   -0.1172 C   0  0  0  0  0  0  0  0  0  0  0  0
    6.9209   -3.3878    0.2545 C   0  0  0  0  0  0  0  0  0  0  0  0
    7.6858   -2.2549    0.1966 C   0  0  0  0  0  0  0  0  0  0  0  0
    7.2100   -1.0030   -0.2158 C   0  0  0  0  0  0  0  0  0  0  0  0
    8.2797    0.3289   -0.1092 S   0  0  0  0  0  0  0  0  0  0  0  0
    9.7039   -0.2341    0.1061 O   0  0  0  0  0  0  0  0  0  0  0  0
    8.4312    1.1263   -1.3815 O   0  0  0  0  0  0  0  0  0  0  0  0
    8.0255    1.4139    1.2573 C   0  0  0  0  0  0  0  0  0  0  0  0
    9.1794    2.4149    1.3719 C   0  0  0  0  0  0  0  0  0  0  0  0
    6.7769    2.1937    1.2396 C   0  0  0  0  0  0  0  0  0  0  0  0
    3.0226    0.0056   -0.8635 N   0  0  0  0  0  0  0  0  0  0  0  0
   -4.8624   -0.0923   -0.3072 N   0  0  0  0  0  0  0  0  0  0  0  0
   -5.5849   -1.1673    0.3276 C   0  0  0  0  0  0  0  0  0  0  0  0
   -7.0407   -0.9434    0.5155 C   0  0  0  0  0  0  0  0  0  0  0  0
   -7.4356    0.4949    0.3818 C   0  0  0  0  0  0  0  0  0  0  0  0
   -6.9640    0.9951   -0.9680 C   0  0  0  0  0  0  0  0  0  0  0  0
   -5.4597    1.0612   -0.8960 C   0  0  0  0  0  0  0  0  0  0  0  0
   -8.8564    0.6589    0.5708 N   0  0  0  0  0  0  0  0  0  0  0  0
   -9.2782    2.0230    0.4605 C   0  0  0  0  0  0  0  0  0  0  0  0
   -9.6390   -0.2430   -0.2416 C   0  0  0  0  0  0  0  0  0  0  0  0
   -0.7931   -4.1921    1.9054 H   0  0  0  0  0  0  0  0  0  0  0  0
   -1.9544   -4.2113    0.4616 H   0  0  0  0  0  0  0  0  0  0  0  0
   -2.2604   -3.2007    1.9817 H   0  0  0  0  0  0  0  0  0  0  0  0
   -3.3514   -2.1246    0.6360 H   0  0  0  0  0  0  0  0  0  0  0  0
   -3.1295    1.6488   -1.3125 H   0  0  0  0  0  0  0  0  0  0  0  0
   -0.7832    1.5103   -1.3929 H   0  0  0  0  0  0  0  0  0  0  0  0
    1.1068   -1.4691    0.0044 H   0  0  0  0  0  0  0  0  0  0  0  0
    2.2213    3.2667   -2.4541 H   0  0  0  0  0  0  0  0  0  0  0  0
    6.1140    0.9939   -1.4647 H   0  0  0  0  0  0  0  0  0  0  0  0
    4.0603   -2.0188   -0.8381 H   0  0  0  0  0  0  0  0  0  0  0  0
    4.9515   -4.1295   -0.0940 H   0  0  0  0  0  0  0  0  0  0  0  0
    7.3564   -4.3431    0.5885 H   0  0  0  0  0  0  0  0  0  0  0  0
    8.7315   -2.3610    0.4975 H   0  0  0  0  0  0  0  0  0  0  0  0
    8.1309    0.7711    2.1790 H   0  0  0  0  0  0  0  0  0  0  0  0
    9.2341    2.9999    0.4280 H   0  0  0  0  0  0  0  0  0  0  0  0
    8.8903    3.1190    2.1704 H   0  0  0  0  0  0  0  0  0  0  0  0
   10.1385    1.9091    1.5465 H   0  0  0  0  0  0  0  0  0  0  0  0
    6.6586    2.6546    0.2401 H   0  0  0  0  0  0  0  0  0  0  0  0
    5.9200    1.5461    1.5414 H   0  0  0  0  0  0  0  0  0  0  0  0
    6.8570    3.0425    1.9945 H   0  0  0  0  0  0  0  0  0  0  0  0
   -5.4057   -2.0834   -0.2985 H   0  0  0  0  0  0  0  0  0  0  0  0
   -5.1129   -1.3839    1.3330 H   0  0  0  0  0  0  0  0  0  0  0  0
   -7.3369   -1.2598    1.5530 H   0  0  0  0  0  0  0  0  0  0  0  0
   -7.5857   -1.5404   -0.2484 H   0  0  0  0  0  0  0  0  0  0  0  0
   -6.9204    1.0822    1.1579 H   0  0  0  0  0  0  0  0  0  0  0  0
   -7.3716    2.0047   -1.1693 H   0  0  0  0  0  0  0  0  0  0  0  0
   -7.2424    0.3151   -1.7855 H   0  0  0  0  0  0  0  0  0  0  0  0
   -5.0229    1.2094   -1.9181 H   0  0  0  0  0  0  0  0  0  0  0  0
   -5.2243    1.9555   -0.2465 H   0  0  0  0  0  0  0  0  0  0  0  0
   -9.3583    2.3936   -0.5797 H   0  0  0  0  0  0  0  0  0  0  0  0
   -8.5425    2.6556    1.0032 H   0  0  0  0  0  0  0  0  0  0  0  0
  -10.3018    2.1167    0.9062 H   0  0  0  0  0  0  0  0  0  0  0  0
  -10.5738    0.3178   -0.5167 H   0  0  0  0  0  0  0  0  0  0  0  0
   -9.1485   -0.5590   -1.1630 H   0  0  0  0  0  0  0  0  0  0  0  0
   -9.8879   -1.1629    0.3397 H   0  0  0  0  0  0  0  0  0  0  0  0
  1  2  1  0
  2  3  1  0
  3  4  2  0
  4  5  1  0
  5  6  2  0
  6  7  1  0
  7  8  2  0
  8  9  1  0
  9 10  1  0
 10 11  2  0
 11 12  1  0
 12 13  2  0
 13 14  1  0
 13 15  1  0
 15 16  1  0
 16 17  1  0
 17 18  2  0
 18 19  1  0
 19 20  2  0
 20 21  1  0
 21 22  2  0
 22 23  1  0
 23 24  2  0
 23 25  2  0
 23 26  1  0
 26 27  1  0
 26 28  1  0
 15 29  2  0
  5 30  1  0
 30 31  1  0
 31 32  1  0
 32 33  1  0
 33 34  1  0
 34 35  1  0
 33 36  1  0
 36 37  1  0
 36 38  1  0
  8  3  1  0
 29 10  1  0
 35 30  1  0
 22 17  1  0
  1 39  1  0
  1 40  1  0
  1 41  1  0
  4 42  1  0
  6 43  1  0
  7 44  1  0
  9 45  1  0
 12 46  1  0
 16 47  1  0
 18 48  1  0
 19 49  1  0
 20 50  1  0
 21 51  1  0
 26 52  1  0
 27 53  1  0
 27 54  1  0
 27 55  1  0
 28 56  1  0
 28 57  1  0
 28 58  1  0
 31 59  1  0
 31 60  1  0
 32 61  1  0
 32 62  1  0
 33 63  1  0
 34 64  1  0
 34 65  1  0
 35 66  1  0
 35 67  1  0
 37 68  1  0
 37 69  1  0
 37 70  1  0
 38 71  1  0
 38 72  1  0
 38 73  1  0
M  END
$$$$
[H]OP(=O)(O[H])C(F)(F)c1c([H])c([H])c(-c2c([H])c([H])c(-c3c(C([H])([H])c4c([H])c([H])c(-c5c([H])c([H])c([H])c([H])c5[H])c([H])c4[H])sc4c([H])c([H])c([H])c([H])c34)c([H])c2[H])c([H])c1[H]
     RDKit          3D

 66 71  0  0  0  0  0  0  0  0999 V2000
    9.3045   -0.1880    0.7663 O   0  0  0  0  0  0  0  0  0  0  0  0
    9.8030    1.2423    0.0568 P   0  0  0  0  0  0  0  0  0  0  0  0
    9.8950    2.4348    1.2590 O   0  0  0  0  0  0  0  0  0  0  0  0
   11.1765    1.0038   -0.5555 O   0  0  0  0  0  0  0  0  0  0  0  0
    8.7006    1.7685   -1.2722 C   0  0  0  0  0  0  0  0  0  0  0  0
    9.1768    1.2573   -2.4603 F   0  0  0  0  0  0  0  0  0  0  0  0
    8.7633    3.1550   -1.3264 F   0  0  0  0  0  0  0  0  0  0  0  0
    7.3163    1.3072   -1.0696 C   0  0  0  0  0  0  0  0  0  0  0  0
    6.6275    0.5678   -1.9954 C   0  0  0  0  0  0  0  0  0  0  0  0
    5.3385    0.1589   -1.7376 C   0  0  0  0  0  0  0  0  0  0  0  0
    4.6946    0.4669   -0.5607 C   0  0  0  0  0  0  0  0  0  0  0  0
    5.4169    1.2184    0.3657 C   0  0  0  0  0  0  0  0  0  0  0  0
    6.6864    1.6277    0.1185 C   0  0  0  0  0  0  0  0  0  0  0  0
    3.3198    0.0533   -0.3313 C   0  0  0  0  0  0  0  0  0  0  0  0
    2.8533   -1.0835   -0.9709 C   0  0  0  0  0  0  0  0  0  0  0  0
    1.5784   -1.5023   -0.6298 C   0  0  0  0  0  0  0  0  0  0  0  0
    0.7993   -0.8428    0.2909 C   0  0  0  0  0  0  0  0  0  0  0  0
    1.2844    0.2794    0.9072 C   0  0  0  0  0  0  0  0  0  0  0  0
    2.5347    0.7275    0.5991 C   0  0  0  0  0  0  0  0  0  0  0  0
   -0.5660   -1.3495    0.6245 C   0  0  0  0  0  0  0  0  0  0  0  0
   -1.6778   -0.5782    0.5196 C   0  0  0  0  0  0  0  0  0  0  0  0
   -1.7944    0.8871    0.1161 C   0  0  0  0  0  0  0  0  0  0  0  0
   -3.2764    1.1212    0.0138 C   0  0  0  0  0  0  0  0  0  0  0  0
   -3.9790    0.2795   -0.8818 C   0  0  0  0  0  0  0  0  0  0  0  0
   -5.3269    0.3853   -1.0266 C   0  0  0  0  0  0  0  0  0  0  0  0
   -6.0495    1.3139   -0.3083 C   0  0  0  0  0  0  0  0  0  0  0  0
   -5.3959    2.1333    0.5545 C   0  0  0  0  0  0  0  0  0  0  0  0
   -4.0055    2.0282    0.7085 C   0  0  0  0  0  0  0  0  0  0  0  0
   -7.4945    1.3732   -0.4412 C   0  0  0  0  0  0  0  0  0  0  0  0
   -8.2939    1.7851    0.6021 C   0  0  0  0  0  0  0  0  0  0  0  0
   -9.6729    1.7856    0.5021 C   0  0  0  0  0  0  0  0  0  0  0  0
  -10.2807    1.3652   -0.6666 C   0  0  0  0  0  0  0  0  0  0  0  0
   -9.4799    0.9583   -1.7086 C   0  0  0  0  0  0  0  0  0  0  0  0
   -8.1134    0.9524   -1.6232 C   0  0  0  0  0  0  0  0  0  0  0  0
   -2.9509   -1.6283    0.9352 S   0  0  0  0  0  0  0  0  0  0  0  0
   -2.0443   -3.0412    1.2393 C   0  0  0  0  0  0  0  0  0  0  0  0
   -2.3852   -4.3604    1.6117 C   0  0  0  0  0  0  0  0  0  0  0  0
   -1.4296   -5.3384    1.7656 C   0  0  0  0  0  0  0  0  0  0  0  0
   -0.1313   -4.9592    1.5382 C   0  0  0  0  0  0  0  0  0  0  0  0
    0.1982   -3.6957    1.1784 C   0  0  0  0  0  0  0  0  0  0  0  0
   -0.7598   -2.6553    1.0069 C   0  0  0  0  0  0  0  0  0  0  0  0
    8.6606   -0.6730    0.1932 H   0  0  0  0  0  0  0  0  0  0  0  0
   10.1433    2.0020    2.1191 H   0  0  0  0  0  0  0  0  0  0  0  0
    7.1192    0.3036   -2.9332 H   0  0  0  0  0  0  0  0  0  0  0  0
    4.8291   -0.4283   -2.4788 H   0  0  0  0  0  0  0  0  0  0  0  0
    4.9268    1.4767    1.3018 H   0  0  0  0  0  0  0  0  0  0  0  0
    7.1918    2.2188    0.8951 H   0  0  0  0  0  0  0  0  0  0  0  0
    3.4109   -1.6369   -1.7166 H   0  0  0  0  0  0  0  0  0  0  0  0
    1.2207   -2.3913   -1.1493 H   0  0  0  0  0  0  0  0  0  0  0  0
    0.7136    0.8490    1.6512 H   0  0  0  0  0  0  0  0  0  0  0  0
    2.9519    1.6181    1.0477 H   0  0  0  0  0  0  0  0  0  0  0  0
   -1.4391    1.5493    0.9109 H   0  0  0  0  0  0  0  0  0  0  0  0
   -1.3520    1.0900   -0.8514 H   0  0  0  0  0  0  0  0  0  0  0  0
   -3.4160   -0.4458   -1.4567 H   0  0  0  0  0  0  0  0  0  0  0  0
   -5.8660   -0.2606   -1.6994 H   0  0  0  0  0  0  0  0  0  0  0  0
   -5.9311    2.8646    1.1292 H   0  0  0  0  0  0  0  0  0  0  0  0
   -3.4672    2.6906    1.4090 H   0  0  0  0  0  0  0  0  0  0  0  0
   -7.8126    2.1216    1.5245 H   0  0  0  0  0  0  0  0  0  0  0  0
  -10.2702    2.1092    1.3329 H   0  0  0  0  0  0  0  0  0  0  0  0
  -11.3779    1.3586   -0.7375 H   0  0  0  0  0  0  0  0  0  0  0  0
   -9.9551    0.6212   -2.6257 H   0  0  0  0  0  0  0  0  0  0  0  0
   -7.4715    0.6301   -2.4238 H   0  0  0  0  0  0  0  0  0  0  0  0
   -3.4228   -4.5379    1.7672 H   0  0  0  0  0  0  0  0  0  0  0  0
   -1.6788   -6.3383    2.0435 H   0  0  0  0  0  0  0  0  0  0  0  0
    0.6812   -5.7065    1.6403 H   0  0  0  0  0  0  0  0  0  0  0  0
    1.2512   -3.4987    1.0114 H   0  0  0  0  0  0  0  0  0  0  0  0
  1  2  1  0
  2  3  1  0
  2  4  2  0
  2  5  1  0
  5  6  1  0
  5  7  1  0
  5  8  1  0
  8  9  2  0
  9 10  1  0
 10 11  2  0
 11 12  1  0
 12 13  2  0
 11 14  1  0
 14 15  2  0
 15 16  1  0
 16 17  2  0
 17 18  1  0
 18 19  2  0
 17 20  1  0
 20 21  2  0
 21 22  1  0
 22 23  1  0
 23 24  2  0
 24 25  1  0
 25 26  2  0
 26 27  1  0
 27 28  2  0
 26 29  1  0
 29 30  2  0
 30 31  1  0
 31 32  2  0
 32 33  1  0
 33 34  2  0
 21 35  1  0
 35 36  1  0
 36 37  2  0
 37 38  1  0
 38 39  2  0
 39 40  1  0
 40 41  2  0
 13  8  1  0
 19 14  1  0
 41 20  1  0
 28 23  1  0
 34 29  1  0
 41 36  1  0
  1 42  1  0
  3 43  1  0
  9 44  1  0
 10 45  1  0
 12 46  1  0
 13 47  1  0
 15 48  1  0
 16 49  1  0
 18 50  1  0
 19 51  1  0
 22 52  1  0
 22 53  1  0
 24 54  1  0
 25 55  1  0
 27 56  1  0
 28 57  1  0
 30 58  1  0
 31 59  1  0
 32 60  1  0
 33 61  1  0
 34 62  1  0
 37 63  1  0
 38 64  1  0
 39 65  1  0
 40 66  1  0
M  END
$$$$
[H]OC(=O)[C@@]([H])(N([H])C(=O)[C@@]([H])(N([H])C(=O)[C@@]([H])(N([H])C(=O)C([H])([H])N([H])C(=O)[C@@]1([H])N(C(=O)[C@@]([H])(N([H])[H])C([H])([H])c2c([H])n([H])c3c([H])c([H])c([H])c([H])c23)C([H])([H])C([H])([H])C1([H])[H])C([H])([H])c1c([H])n([H])c2c([H])c([H])c([H])c([H])c12)C([H])([H])C([H])(C([H])([H])[H])C([H])([H])[H])C([H])([H])c1c([H])c([H])c([H])c([H])c1[H]
     RDKit          3D

111116  0  0  0  0  0  0  0  0999 V2000
   -2.4356    3.5887    1.6372 C   0  0  0  0  0  0  0  0  0  0  0  0
   -3.0298    3.3618    0.2602 C   0  0  0  0  0  0  0  0  0  0  0  0
   -3.5090    4.7161   -0.2725 C   0  0  0  0  0  0  0  0  0  0  0  0
   -4.2317    2.4743    0.3057 C   0  0  0  0  0  0  0  0  0  0  0  0
   -3.9818    1.0580    0.7967 C   0  0  2  0  0  0  0  0  0  0  0  0
   -3.1140    0.2911   -0.0310 N   0  0  0  0  0  0  0  0  0  0  0  0
   -1.7561    0.0117    0.0314 C   0  0  0  0  0  0  0  0  0  0  0  0
   -1.0093    0.4696    0.9104 O   0  0  0  0  0  0  0  0  0  0  0  0
   -1.1193   -0.8753   -0.9761 C   0  0  2  0  0  0  0  0  0  0  0  0
   -0.8959   -2.1818   -0.1885 C   0  0  0  0  0  0  0  0  0  0  0  0
   -0.2268   -3.2289   -0.9785 C   0  0  0  0  0  0  0  0  0  0  0  0
    1.1293   -3.5427   -0.8180 C   0  0  0  0  0  0  0  0  0  0  0  0
    1.4623   -4.5290   -1.6621 N   0  0  0  0  0  0  0  0  0  0  0  0
    0.3820   -4.8880   -2.3793 C   0  0  0  0  0  0  0  0  0  0  0  0
    0.1863   -5.8354   -3.3546 C   0  0  0  0  0  0  0  0  0  0  0  0
   -1.0580   -5.9809   -3.9103 C   0  0  0  0  0  0  0  0  0  0  0  0
   -2.0822   -5.1806   -3.4840 C   0  0  0  0  0  0  0  0  0  0  0  0
   -1.9129   -4.2220   -2.5062 C   0  0  0  0  0  0  0  0  0  0  0  0
   -0.6790   -4.0768   -1.9551 C   0  0  0  0  0  0  0  0  0  0  0  0
    0.1485   -0.3876   -1.4551 N   0  0  0  0  0  0  0  0  0  0  0  0
    0.4405   -0.3945   -2.8309 C   0  0  0  0  0  0  0  0  0  0  0  0
   -0.4935   -0.8492   -3.6044 O   0  0  0  0  0  0  0  0  0  0  0  0
    1.6356    0.0282   -3.5137 C   0  0  0  0  0  0  0  0  0  0  0  0
    2.7058    0.5730   -2.7025 N   0  0  0  0  0  0  0  0  0  0  0  0
    3.8685    0.9511   -3.4002 C   0  0  0  0  0  0  0  0  0  0  0  0
    3.8044    0.7701   -4.6920 O   0  0  0  0  0  0  0  0  0  0  0  0
    5.0703    1.4975   -2.8634 C   0  0  2  0  0  0  0  0  0  0  0  0
    6.2383    1.4678   -3.8591 C   0  0  0  0  0  0  0  0  0  0  0  0
    7.3426    2.0392   -2.9824 C   0  0  0  0  0  0  0  0  0  0  0  0
    6.8069    2.0338   -1.5551 C   0  0  0  0  0  0  0  0  0  0  0  0
    5.7130    1.0238   -1.6943 N   0  0  0  0  0  0  0  0  0  0  0  0
    5.5689   -0.0389   -0.7979 C   0  0  0  0  0  0  0  0  0  0  0  0
    4.6566   -0.9056   -1.0247 O   0  0  0  0  0  0  0  0  0  0  0  0
    6.3672   -0.2863    0.4282 C   0  0  1  0  0  0  0  0  0  0  0  0
    7.7747   -0.3670    0.2158 N   0  0  0  0  0  0  0  0  0  0  0  0
    6.0251    0.7637    1.4780 C   0  0  0  0  0  0  0  0  0  0  0  0
    6.7765    0.6559    2.7373 C   0  0  0  0  0  0  0  0  0  0  0  0
    6.3269    0.0230    3.9066 C   0  0  0  0  0  0  0  0  0  0  0  0
    7.2767    0.0866    4.8600 N   0  0  0  0  0  0  0  0  0  0  0  0
    8.3531    0.7401    4.3753 C   0  0  0  0  0  0  0  0  0  0  0  0
    9.5673    1.0796    4.9053 C   0  0  0  0  0  0  0  0  0  0  0  0
   10.4881    1.7655    4.1632 C   0  0  0  0  0  0  0  0  0  0  0  0
   10.2086    2.1392    2.8395 C   0  0  0  0  0  0  0  0  0  0  0  0
    8.9725    1.7883    2.3144 C   0  0  0  0  0  0  0  0  0  0  0  0
    8.0524    1.0914    3.0767 C   0  0  0  0  0  0  0  0  0  0  0  0
   -5.3338    0.4163    0.7427 C   0  0  0  0  0  0  0  0  0  0  0  0
   -5.5716   -0.6032    0.0304 O   0  0  0  0  0  0  0  0  0  0  0  0
   -6.4070    0.9741    1.5137 N   0  0  0  0  0  0  0  0  0  0  0  0
   -7.7467    0.3782    1.4127 C   0  0  1  0  0  0  0  0  0  0  0  0
   -8.1441   -0.3402    2.6522 C   0  0  0  0  0  0  0  0  0  0  0  0
   -9.4940   -0.9321    2.5108 C   0  0  0  0  0  0  0  0  0  0  0  0
   -9.6089   -2.1510    1.8445 C   0  0  0  0  0  0  0  0  0  0  0  0
  -10.8235   -2.7804    1.6782 C   0  0  0  0  0  0  0  0  0  0  0  0
  -11.9844   -2.1904    2.1874 C   0  0  0  0  0  0  0  0  0  0  0  0
  -11.8621   -0.9994    2.8389 C   0  0  0  0  0  0  0  0  0  0  0  0
  -10.6484   -0.3827    2.9986 C   0  0  0  0  0  0  0  0  0  0  0  0
   -8.6500    1.4506    1.0452 C   0  0  0  0  0  0  0  0  0  0  0  0
   -9.9630    1.2534    0.6461 O   0  0  0  0  0  0  0  0  0  0  0  0
   -8.2236    2.6603    1.0790 O   0  0  0  0  0  0  0  0  0  0  0  0
   -2.3028    2.6707    2.2042 H   0  0  0  0  0  0  0  0  0  0  0  0
   -3.0893    4.3343    2.1770 H   0  0  0  0  0  0  0  0  0  0  0  0
   -1.4765    4.1398    1.4689 H   0  0  0  0  0  0  0  0  0  0  0  0
   -2.2268    2.9382   -0.3945 H   0  0  0  0  0  0  0  0  0  0  0  0
   -3.4132    4.6803   -1.3822 H   0  0  0  0  0  0  0  0  0  0  0  0
   -2.8542    5.4876    0.1653 H   0  0  0  0  0  0  0  0  0  0  0  0
   -4.5535    4.8571    0.0303 H   0  0  0  0  0  0  0  0  0  0  0  0
   -4.7592    2.4163   -0.6719 H   0  0  0  0  0  0  0  0  0  0  0  0
   -4.9534    2.9475    1.0327 H   0  0  0  0  0  0  0  0  0  0  0  0
   -3.5425    1.1096    1.8092 H   0  0  0  0  0  0  0  0  0  0  0  0
   -3.6143   -0.1669   -0.8895 H   0  0  0  0  0  0  0  0  0  0  0  0
   -1.7798   -1.0563   -1.8292 H   0  0  0  0  0  0  0  0  0  0  0  0
   -1.8936   -2.4652    0.1784 H   0  0  0  0  0  0  0  0  0  0  0  0
   -0.2901   -1.8614    0.6877 H   0  0  0  0  0  0  0  0  0  0  0  0
    1.8098   -3.0760   -0.1356 H   0  0  0  0  0  0  0  0  0  0  0  0
    2.4171   -4.9788   -1.7793 H   0  0  0  0  0  0  0  0  0  0  0  0
    0.9858   -6.4714   -3.6957 H   0  0  0  0  0  0  0  0  0  0  0  0
   -1.2504   -6.7375   -4.6877 H   0  0  0  0  0  0  0  0  0  0  0  0
   -3.0664   -5.3078   -3.9302 H   0  0  0  0  0  0  0  0  0  0  0  0
   -2.7387   -3.6024   -2.1873 H   0  0  0  0  0  0  0  0  0  0  0  0
    0.8452   -0.0297   -0.7833 H   0  0  0  0  0  0  0  0  0  0  0  0
    1.4605    0.6817   -4.4114 H   0  0  0  0  0  0  0  0  0  0  0  0
    2.0904   -0.9124   -3.9726 H   0  0  0  0  0  0  0  0  0  0  0  0
    2.5367    0.6718   -1.7026 H   0  0  0  0  0  0  0  0  0  0  0  0
    4.9007    2.6141   -2.6727 H   0  0  0  0  0  0  0  0  0  0  0  0
    6.0208    2.0669   -4.7429 H   0  0  0  0  0  0  0  0  0  0  0  0
    6.4247    0.3934   -4.0877 H   0  0  0  0  0  0  0  0  0  0  0  0
    7.5644    3.0902   -3.3187 H   0  0  0  0  0  0  0  0  0  0  0  0
    8.2499    1.4260   -3.0160 H   0  0  0  0  0  0  0  0  0  0  0  0
    7.5490    1.7819   -0.8271 H   0  0  0  0  0  0  0  0  0  0  0  0
    6.2758    2.9945   -1.3483 H   0  0  0  0  0  0  0  0  0  0  0  0
    6.0465   -1.2658    0.8652 H   0  0  0  0  0  0  0  0  0  0  0  0
    8.0563   -0.5720   -0.7581 H   0  0  0  0  0  0  0  0  0  0  0  0
    8.2560   -1.0578    0.8352 H   0  0  0  0  0  0  0  0  0  0  0  0
    6.2084    1.7767    1.0742 H   0  0  0  0  0  0  0  0  0  0  0  0
    4.9174    0.6327    1.6617 H   0  0  0  0  0  0  0  0  0  0  0  0
    5.3755   -0.4585    4.0646 H   0  0  0  0  0  0  0  0  0  0  0  0
    7.2345   -0.2997    5.8481 H   0  0  0  0  0  0  0  0  0  0  0  0
    9.8227    0.8092    5.9332 H   0  0  0  0  0  0  0  0  0  0  0  0
   11.4799    2.0464    4.5547 H   0  0  0  0  0  0  0  0  0  0  0  0
   10.9598    2.6718    2.3077 H   0  0  0  0  0  0  0  0  0  0  0  0
    8.7981    2.1168    1.2964 H   0  0  0  0  0  0  0  0  0  0  0  0
   -6.2289    1.7852    2.1258 H   0  0  0  0  0  0  0  0  0  0  0  0
   -7.7098   -0.3867    0.5845 H   0  0  0  0  0  0  0  0  0  0  0  0
   -7.4543   -1.1836    2.8721 H   0  0  0  0  0  0  0  0  0  0  0  0
   -8.1762    0.3707    3.5350 H   0  0  0  0  0  0  0  0  0  0  0  0
   -8.7267   -2.6100    1.4538 H   0  0  0  0  0  0  0  0  0  0  0  0
  -10.9268   -3.7168    1.1696 H   0  0  0  0  0  0  0  0  0  0  0  0
  -12.9160   -2.7198    2.0314 H   0  0  0  0  0  0  0  0  0  0  0  0
  -12.7568   -0.5148    3.2487 H   0  0  0  0  0  0  0  0  0  0  0  0
  -10.5574    0.5795    3.5202 H   0  0  0  0  0  0  0  0  0  0  0  0
  -10.3816    1.8887   -0.0650 H   0  0  0  0  0  0  0  0  0  0  0  0
  1  2  1  0
  2  3  1  0
  2  4  1  0
  4  5  1  0
  5  6  1  0
  6  7  1  0
  7  8  2  0
  7  9  1  0
  9 10  1  0
 10 11  1  0
 11 12  2  0
 12 13  1  0
 13 14  1  0
 14 15  2  0
 15 16  1  0
 16 17  2  0
 17 18  1  0
 18 19  2  0
  9 20  1  0
 20 21  1  0
 21 22  2  0
 21 23  1  0
 23 24  1  0
 24 25  1  0
 25 26  2  0
 25 27  1  0
 27 28  1  0
 28 29  1  0
 29 30  1  0
 30 31  1  0
 31 32  1  0
 32 33  2  0
 32 34  1  0
 34 35  1  0
 34 36  1  0
 36 37  1  0
 37 38  2  0
 38 39  1  0
 39 40  1  0
 40 41  2  0
 41 42  1  0
 42 43  2  0
 43 44  1  0
 44 45  2  0
  5 46  1  0
 46 47  2  0
 46 48  1  0
 48 49  1  0
 49 50  1  0
 50 51  1  0
 51 52  2  0
 52 53  1  0
 53 54  2  0
 54 55  1  0
 55 56  2  0
 49 57  1  0
 57 58  1  0
 57 59  2  0
 19 11  1  0
 31 27  1  0
 45 37  1  0
 56 51  1  0
 19 14  1  0
 45 40  1  0
  1 60  1  0
  1 61  1  0
  1 62  1  0
  2 63  1  0
  3 64  1  0
  3 65  1  0
  3 66  1  0
  4 67  1  0
  4 68  1  0
  5 69  1  1
  6 70  1  0
  9 71  1  6
 10 72  1  0
 10 73  1  0
 12 74  1  0
 13 75  1  0
 15 76  1  0
 16 77  1  0
 17 78  1  0
 18 79  1  0
 20 80  1  0
 23 81  1  0
 23 82  1  0
 24 83  1  0
 27 84  1  1
 28 85  1  0
 28 86  1  0
 29 87  1  0
 29 88  1  0
 30 89  1  0
 30 90  1  0
 34 91  1  1
 35 92  1  0
 35 93  1  0
 36 94  1  0
 36 95  1  0
 38 96  1  0
 39 97  1  0
 41 98  1  0
 42 99  1  0
 43100  1  0
 44101  1  0
 48102  1  0
 49103  1  6
 50104  1  0
 50105  1  0
 52106  1  0
 53107  1  0
 54108  1  0
 55109  1  0
 56110  1  0
 58111  1  0
M  END
$$$$
[H]c1nc([H])c(-c2nc(-c3noc(=O)n3[H])c([H])c3nc(N4C([H])([H])C([H])([H])O[C@]5([H])C([H])([H])C([H])([H])C([H])([H])[C@]45[H])n(C([H])([H])[C@]4([H])C([H])([H])C([H])([H])[C@@]([H])(C([H])([H])[H])C([H])([H])C4([H])[H])c23)c([H])c1Cl
     RDKit          3D

 71 77  0  0  0  0  0  0  0  0999 V2000
    4.4153   -0.9576    1.6928 C   0  0  0  0  0  0  0  0  0  0  0  0
    4.3872    0.0569    0.5879 C   0  0  1  0  0  0  0  0  0  0  0  0
    4.2616   -0.5925   -0.7591 C   0  0  0  0  0  0  0  0  0  0  0  0
    3.0778   -0.1136   -1.5639 C   0  0  0  0  0  0  0  0  0  0  0  0
    1.8356   -0.2147   -0.6729 C   0  0  2  0  0  0  0  0  0  0  0  0
    0.6109    0.1580   -1.5310 C   0  0  0  0  0  0  0  0  0  0  0  0
   -0.6142    0.1548   -0.8392 N   0  0  0  0  0  0  0  0  0  0  0  0
   -1.2306   -1.0222   -0.5271 C   0  0  0  0  0  0  0  0  0  0  0  0
   -2.3420   -0.7347    0.1336 N   0  0  0  0  0  0  0  0  0  0  0  0
   -2.4503    0.6109    0.2494 C   0  0  0  0  0  0  0  0  0  0  0  0
   -3.3998    1.3752    0.8476 C   0  0  0  0  0  0  0  0  0  0  0  0
   -3.3106    2.7452    0.8535 C   0  0  0  0  0  0  0  0  0  0  0  0
   -2.2682    3.2999    0.2520 N   0  0  0  0  0  0  0  0  0  0  0  0
   -1.2886    2.5440   -0.3650 C   0  0  0  0  0  0  0  0  0  0  0  0
   -0.2619    3.2864   -1.0413 C   0  0  0  0  0  0  0  0  0  0  0  0
   -0.1050    3.3553   -2.4007 C   0  0  0  0  0  0  0  0  0  0  0  0
    0.8684    4.1262   -2.9696 N   0  0  0  0  0  0  0  0  0  0  0  0
    1.7112    4.8478   -2.2080 C   0  0  0  0  0  0  0  0  0  0  0  0
    1.5977    4.8142   -0.8431 C   0  0  0  0  0  0  0  0  0  0  0  0
    2.6446    5.7252    0.2230 Cl  0  0  0  0  0  0  0  0  0  0  0  0
    0.6134    4.0337   -0.2911 C   0  0  0  0  0  0  0  0  0  0  0  0
   -1.3470    1.1789   -0.3777 C   0  0  0  0  0  0  0  0  0  0  0  0
   -4.3480    3.5200    1.5161 C   0  0  0  0  0  0  0  0  0  0  0  0
   -5.4079    3.0322    2.1420 N   0  0  0  0  0  0  0  0  0  0  0  0
   -6.1069    4.0134    2.6153 O   0  0  0  0  0  0  0  0  0  0  0  0
   -5.5169    5.1414    2.3061 C   0  0  0  0  0  0  0  0  0  0  0  0
   -5.8954    6.3132    2.5923 O   0  0  0  0  0  0  0  0  0  0  0  0
   -4.3873    4.8507    1.6012 N   0  0  0  0  0  0  0  0  0  0  0  0
   -0.8435   -2.3588   -0.7928 N   0  0  0  0  0  0  0  0  0  0  0  0
   -0.7781   -2.9730   -2.0961 C   0  0  0  0  0  0  0  0  0  0  0  0
   -1.7323   -4.1482   -2.1090 C   0  0  0  0  0  0  0  0  0  0  0  0
   -1.7634   -4.8576   -0.9379 O   0  0  0  0  0  0  0  0  0  0  0  0
   -0.6657   -4.6653   -0.1205 C   0  0  2  0  0  0  0  0  0  0  0  0
   -0.9276   -5.4249    1.1624 C   0  0  0  0  0  0  0  0  0  0  0  0
   -1.2925   -4.4074    2.2035 C   0  0  0  0  0  0  0  0  0  0  0  0
   -1.5115   -3.1184    1.4421 C   0  0  0  0  0  0  0  0  0  0  0  0
   -0.4961   -3.2497    0.3318 C   0  0  2  0  0  0  0  0  0  0  0  0
    1.9670    0.4733    0.6257 C   0  0  0  0  0  0  0  0  0  0  0  0
    3.3431    1.1137    0.7535 C   0  0  0  0  0  0  0  0  0  0  0  0
    5.1601   -0.6567    2.4666 H   0  0  0  0  0  0  0  0  0  0  0  0
    4.8151   -1.9102    1.2545 H   0  0  0  0  0  0  0  0  0  0  0  0
    3.4748   -1.1281    2.2118 H   0  0  0  0  0  0  0  0  0  0  0  0
    5.3783    0.5980    0.6303 H   0  0  0  0  0  0  0  0  0  0  0  0
    4.1002   -1.7031   -0.6255 H   0  0  0  0  0  0  0  0  0  0  0  0
    5.1949   -0.4767   -1.3438 H   0  0  0  0  0  0  0  0  0  0  0  0
    3.2038    0.8933   -1.9722 H   0  0  0  0  0  0  0  0  0  0  0  0
    2.9325   -0.8224   -2.3984 H   0  0  0  0  0  0  0  0  0  0  0  0
    1.7925   -1.3157   -0.4394 H   0  0  0  0  0  0  0  0  0  0  0  0
    0.5624   -0.6730   -2.3228 H   0  0  0  0  0  0  0  0  0  0  0  0
    0.9917    1.0044   -2.0530 H   0  0  0  0  0  0  0  0  0  0  0  0
   -4.2456    0.8540    1.3276 H   0  0  0  0  0  0  0  0  0  0  0  0
   -0.7631    2.7878   -3.0365 H   0  0  0  0  0  0  0  0  0  0  0  0
    2.5028    5.4786   -2.6100 H   0  0  0  0  0  0  0  0  0  0  0  0
    0.5167    4.0014    0.7827 H   0  0  0  0  0  0  0  0  0  0  0  0
   -3.7468    5.5781    1.2435 H   0  0  0  0  0  0  0  0  0  0  0  0
   -1.0501   -2.3120   -2.9331 H   0  0  0  0  0  0  0  0  0  0  0  0
    0.2535   -3.4094   -2.1922 H   0  0  0  0  0  0  0  0  0  0  0  0
   -2.7528   -3.7291   -2.2846 H   0  0  0  0  0  0  0  0  0  0  0  0
   -1.5295   -4.8075   -2.9992 H   0  0  0  0  0  0  0  0  0  0  0  0
    0.2721   -5.0728   -0.5392 H   0  0  0  0  0  0  0  0  0  0  0  0
   -0.0342   -5.9963    1.5120 H   0  0  0  0  0  0  0  0  0  0  0  0
   -1.8163   -6.1160    1.0661 H   0  0  0  0  0  0  0  0  0  0  0  0
   -0.5117   -4.2924    3.0018 H   0  0  0  0  0  0  0  0  0  0  0  0
   -2.2333   -4.6618    2.7348 H   0  0  0  0  0  0  0  0  0  0  0  0
   -2.5372   -3.1794    1.0251 H   0  0  0  0  0  0  0  0  0  0  0  0
   -1.3439   -2.2877    2.1216 H   0  0  0  0  0  0  0  0  0  0  0  0
    0.5127   -3.0727    0.6977 H   0  0  0  0  0  0  0  0  0  0  0  0
    1.2122    1.2466    0.7888 H   0  0  0  0  0  0  0  0  0  0  0  0
    1.8194   -0.2275    1.5056 H   0  0  0  0  0  0  0  0  0  0  0  0
    3.4400    1.8561   -0.0391 H   0  0  0  0  0  0  0  0  0  0  0  0
    3.3862    1.6205    1.7331 H   0  0  0  0  0  0  0  0  0  0  0  0
  1  2  1  0
  2  3  1  0
  3  4  1  0
  4  5  1  0
  5  6  1  0
  6  7  1  0
  7  8  1  0
  8  9  2  0
  9 10  1  0
 10 11  2  0
 11 12  1  0
 12 13  2  0
 13 14  1  0
 14 15  1  0
 15 16  2  0
 16 17  1  0
 17 18  2  0
 18 19  1  0
 19 20  1  0
 19 21  2  0
 14 22  2  0
 12 23  1  0
 23 24  2  0
 24 25  1  0
 25 26  1  0
 26 27  2  0
 26 28  1  0
  8 29  1  0
 29 30  1  0
 30 31  1  0
 31 32  1  0
 32 33  1  0
 33 34  1  0
 34 35  1  0
 35 36  1  0
 36 37  1  0
  5 38  1  0
 38 39  1  0
 39  2  1  0
 22  7  1  0
 28 23  1  0
 37 29  1  0
 22 10  1  0
 37 33  1  0
 21 15  1  0
  1 40  1  0
  1 41  1  0
  1 42  1  0
  2 43  1  6
  3 44  1  0
  3 45  1  0
  4 46  1  0
  4 47  1  0
  5 48  1  1
  6 49  1  0
  6 50  1  0
 11 51  1  0
 16 52  1  0
 18 53  1  0
 21 54  1  0
 28 55  1  0
 30 56  1  0
 30 57  1  0
 31 58  1  0
 31 59  1  0
 33 60  1  6
 34 61  1  0
 34 62  1  0
 35 63  1  0
 35 64  1  0
 36 65  1  0
 36 66  1  0
 37 67  1  1
 38 68  1  0
 38 69  1  0
 39 70  1  0
 39 71  1  0
M  END
$$$$
[H]c1c([H])c([H])c(N2C([H])([H])N([H])C(=O)C23C([H])([H])C([H])([H])N(C(=O)c2c([H])c([H])c(C(C([H])([H])[H])(C([H])([H])[H])C([H])([H])[H])c([H])c2[H])C([H])([H])C3([H])[H])c(Cl)c1[H]
     RDKit          3D

 58 61  0  0  0  0  0  0  0  0999 V2000
    7.0542    0.2510    1.0240 C   0  0  0  0  0  0  0  0  0  0  0  0
    6.2589   -0.0059   -0.2629 C   0  0  0  0  0  0  0  0  0  0  0  0
    6.5830    1.1361   -1.1757 C   0  0  0  0  0  0  0  0  0  0  0  0
    6.8621   -1.2890   -0.8456 C   0  0  0  0  0  0  0  0  0  0  0  0
    4.8456   -0.2040    0.0534 C   0  0  0  0  0  0  0  0  0  0  0  0
    3.8360    0.2433   -0.7472 C   0  0  0  0  0  0  0  0  0  0  0  0
    2.4853    0.0459   -0.4368 C   0  0  0  0  0  0  0  0  0  0  0  0
    2.1193   -0.6112    0.6965 C   0  0  0  0  0  0  0  0  0  0  0  0
    3.1351   -1.0829    1.5394 C   0  0  0  0  0  0  0  0  0  0  0  0
    4.4496   -0.8785    1.2156 C   0  0  0  0  0  0  0  0  0  0  0  0
    0.7650   -0.8465    1.0736 C   0  0  0  0  0  0  0  0  0  0  0  0
    0.6225   -1.4997    2.1951 O   0  0  0  0  0  0  0  0  0  0  0  0
   -0.4477   -0.5102    0.4701 N   0  0  0  0  0  0  0  0  0  0  0  0
   -1.6809   -0.9389    1.2115 C   0  0  0  0  0  0  0  0  0  0  0  0
   -2.3939    0.3823    1.4616 C   0  0  0  0  0  0  0  0  0  0  0  0
   -2.9574    0.8837    0.1252 C   0  0  0  0  0  0  0  0  0  0  0  0
   -2.2191    0.2556   -0.9977 C   0  0  0  0  0  0  0  0  0  0  0  0
   -0.7093    0.1886   -0.7536 C   0  0  0  0  0  0  0  0  0  0  0  0
   -4.3840    0.7374    0.1088 N   0  0  0  0  0  0  0  0  0  0  0  0
   -4.8773    1.7391    1.0708 C   0  0  0  0  0  0  0  0  0  0  0  0
   -3.8369    2.7417    1.1353 N   0  0  0  0  0  0  0  0  0  0  0  0
   -2.8257    2.3736    0.1682 C   0  0  0  0  0  0  0  0  0  0  0  0
   -2.0795    3.1537   -0.4341 O   0  0  0  0  0  0  0  0  0  0  0  0
   -5.2682   -0.0882   -0.6032 C   0  0  0  0  0  0  0  0  0  0  0  0
   -5.6742   -1.2722   -0.0121 C   0  0  0  0  0  0  0  0  0  0  0  0
   -6.5273   -2.1407   -0.6882 C   0  0  0  0  0  0  0  0  0  0  0  0
   -6.9851   -1.8450   -1.9467 C   0  0  0  0  0  0  0  0  0  0  0  0
   -6.5853   -0.6679   -2.5405 C   0  0  0  0  0  0  0  0  0  0  0  0
   -5.7289    0.1968   -1.8564 C   0  0  0  0  0  0  0  0  0  0  0  0
   -5.2656    1.6802   -2.6701 Cl  0  0  0  0  0  0  0  0  0  0  0  0
    8.0259    0.6712    0.7091 H   0  0  0  0  0  0  0  0  0  0  0  0
    6.5225    1.0274    1.6138 H   0  0  0  0  0  0  0  0  0  0  0  0
    7.2532   -0.6702    1.5706 H   0  0  0  0  0  0  0  0  0  0  0  0
    5.8582    1.3596   -1.9522 H   0  0  0  0  0  0  0  0  0  0  0  0
    6.7505    2.0988   -0.6218 H   0  0  0  0  0  0  0  0  0  0  0  0
    7.5709    0.9466   -1.6962 H   0  0  0  0  0  0  0  0  0  0  0  0
    7.0411   -1.1283   -1.9103 H   0  0  0  0  0  0  0  0  0  0  0  0
    7.8099   -1.5604   -0.3615 H   0  0  0  0  0  0  0  0  0  0  0  0
    6.0892   -2.1015   -0.7222 H   0  0  0  0  0  0  0  0  0  0  0  0
    4.0257    0.7736   -1.6661 H   0  0  0  0  0  0  0  0  0  0  0  0
    1.7986    0.4516   -1.1595 H   0  0  0  0  0  0  0  0  0  0  0  0
    2.9371   -1.6188    2.4657 H   0  0  0  0  0  0  0  0  0  0  0  0
    5.2676   -1.2212    1.8390 H   0  0  0  0  0  0  0  0  0  0  0  0
   -2.2648   -1.6418    0.6266 H   0  0  0  0  0  0  0  0  0  0  0  0
   -1.3923   -1.3394    2.1948 H   0  0  0  0  0  0  0  0  0  0  0  0
   -3.1902    0.3134    2.2114 H   0  0  0  0  0  0  0  0  0  0  0  0
   -1.6440    1.1131    1.7948 H   0  0  0  0  0  0  0  0  0  0  0  0
   -2.5750   -0.7619   -1.2384 H   0  0  0  0  0  0  0  0  0  0  0  0
   -2.3288    0.8429   -1.9532 H   0  0  0  0  0  0  0  0  0  0  0  0
   -0.3265    1.2366   -0.7146 H   0  0  0  0  0  0  0  0  0  0  0  0
   -0.3142   -0.3239   -1.6491 H   0  0  0  0  0  0  0  0  0  0  0  0
   -5.0407    1.2014    2.0175 H   0  0  0  0  0  0  0  0  0  0  0  0
   -5.8320    2.1831    0.7142 H   0  0  0  0  0  0  0  0  0  0  0  0
   -3.8569    3.5589    1.7747 H   0  0  0  0  0  0  0  0  0  0  0  0
   -5.3295   -1.5349    0.9808 H   0  0  0  0  0  0  0  0  0  0  0  0
   -6.8386   -3.0750   -0.2116 H   0  0  0  0  0  0  0  0  0  0  0  0
   -7.6624   -2.5299   -2.4907 H   0  0  0  0  0  0  0  0  0  0  0  0
   -6.9246   -0.3989   -3.5311 H   0  0  0  0  0  0  0  0  0  0  0  0
  1  2  1  0
  2  3  1  0
  2  4  1  0
  2  5  1  0
  5  6  2  0
  6  7  1  0
  7  8  2  0
  8  9  1  0
  9 10  2  0
  8 11  1  0
 11 12  2  0
 11 13  1  0
 13 14  1  0
 14 15  1  0
 15 16  1  0
 16 17  1  0
 17 18  1  0
 16 19  1  0
 19 20  1  0
 20 21  1  0
 21 22  1  0
 22 23  2  0
 19 24  1  0
 24 25  2  0
 25 26  1  0
 26 27  2  0
 27 28  1  0
 28 29  2  0
 29 30  1  0
 10  5  1  0
 18 13  1  0
 29 24  1  0
 22 16  1  0
  1 31  1  0
  1 32  1  0
  1 33  1  0
  3 34  1  0
  3 35  1  0
  3 36  1  0
  4 37  1  0
  4 38  1  0
  4 39  1  0
  6 40  1  0
  7 41  1  0
  9 42  1  0
 10 43  1  0
 14 44  1  0
 14 45  1  0
 15 46  1  0
 15 47  1  0
 17 48  1  0
 17 49  1  0
 18 50  1  0
 18 51  1  0
 20 52  1  0
 20 53  1  0
 21 54  1  0
 25 55  1  0
 26 56  1  0
 27 57  1  0
 28 58  1  0
M  END
$$$$
[H]c1nc(S(=O)(=O)[C@@]2([H])C([H])([H])N(C(=O)C3(c4c([H])c([H])c(Cl)c([H])c4[H])C([H])([H])C3([H])[H])[C@]([H])(C(=O)N([H])[C@]([H])(C(=O)C(=O)N([H])C3([H])C([H])([H])C3([H])[H])C([H])([H])C([H])([H])[H])C2([H])[H])c([H])c([H])c1[H]
     RDKit          3D

 71 75  0  0  0  0  0  0  0  0999 V2000
    3.5223   -3.6151    0.2363 C   0  0  0  0  0  0  0  0  0  0  0  0
    2.4765   -2.5922   -0.1208 C   0  0  0  0  0  0  0  0  0  0  0  0
    2.7616   -1.2067    0.4545 C   0  0  2  0  0  0  0  0  0  0  0  0
    1.6617   -0.3072    0.0260 N   0  0  0  0  0  0  0  0  0  0  0  0
    0.8444    0.3582    0.9730 C   0  0  0  0  0  0  0  0  0  0  0  0
    1.0819    0.1575    2.1912 O   0  0  0  0  0  0  0  0  0  0  0  0
   -0.2162    1.2353    0.5764 C   0  0  2  0  0  0  0  0  0  0  0  0
   -0.7629    2.1754    1.6129 C   0  0  0  0  0  0  0  0  0  0  0  0
   -2.0925    2.6304    0.9549 C   0  0  2  0  0  0  0  0  0  0  0  0
   -2.2131    1.7372   -0.2983 C   0  0  0  0  0  0  0  0  0  0  0  0
   -1.4782    0.5987    0.1482 N   0  0  0  0  0  0  0  0  0  0  0  0
   -1.8056   -0.7466    0.2139 C   0  0  0  0  0  0  0  0  0  0  0  0
   -0.9192   -1.5712    0.7345 O   0  0  0  0  0  0  0  0  0  0  0  0
   -3.0238   -1.4625   -0.2151 C   0  0  0  0  0  0  0  0  0  0  0  0
   -4.3852   -0.7536   -0.0975 C   0  0  0  0  0  0  0  0  0  0  0  0
   -3.7369   -0.9345   -1.3893 C   0  0  0  0  0  0  0  0  0  0  0  0
   -3.1548   -2.8913    0.1792 C   0  0  0  0  0  0  0  0  0  0  0  0
   -2.9003   -3.2658    1.4671 C   0  0  0  0  0  0  0  0  0  0  0  0
   -2.9978   -4.5986    1.8857 C   0  0  0  0  0  0  0  0  0  0  0  0
   -3.3610   -5.5581    0.9745 C   0  0  0  0  0  0  0  0  0  0  0  0
   -3.4993   -7.2602    1.4496 Cl  0  0  0  0  0  0  0  0  0  0  0  0
   -3.6205   -5.1968   -0.3252 C   0  0  0  0  0  0  0  0  0  0  0  0
   -3.5141   -3.8543   -0.7159 C   0  0  0  0  0  0  0  0  0  0  0  0
   -1.8454    4.2811    0.4358 S   0  0  0  0  0  0  0  0  0  0  0  0
   -1.3744    5.0771    1.6301 O   0  0  0  0  0  0  0  0  0  0  0  0
   -0.6961    4.2611   -0.5643 O   0  0  0  0  0  0  0  0  0  0  0  0
   -3.2289    5.0338   -0.2865 C   0  0  0  0  0  0  0  0  0  0  0  0
   -4.4422    4.4028   -0.3588 C   0  0  0  0  0  0  0  0  0  0  0  0
   -5.5544    5.0195   -0.9259 C   0  0  0  0  0  0  0  0  0  0  0  0
   -5.4439    6.2970   -1.4302 C   0  0  0  0  0  0  0  0  0  0  0  0
   -4.2084    6.9053   -1.3421 C   0  0  0  0  0  0  0  0  0  0  0  0
   -3.1475    6.2748   -0.7835 N   0  0  0  0  0  0  0  0  0  0  0  0
    4.0058   -0.6733   -0.1004 C   0  0  0  0  0  0  0  0  0  0  0  0
    3.9303    0.0361   -1.1652 O   0  0  0  0  0  0  0  0  0  0  0  0
    5.3439   -0.8548    0.4254 C   0  0  0  0  0  0  0  0  0  0  0  0
    5.4649   -1.4800    1.5365 O   0  0  0  0  0  0  0  0  0  0  0  0
    6.5109   -0.3832   -0.2189 N   0  0  0  0  0  0  0  0  0  0  0  0
    7.8364   -0.5800    0.3319 C   0  0  0  0  0  0  0  0  0  0  0  0
    8.9211   -1.1044   -0.5776 C   0  0  0  0  0  0  0  0  0  0  0  0
    8.9625    0.2950    0.0096 C   0  0  0  0  0  0  0  0  0  0  0  0
    3.2052   -4.6413   -0.1022 H   0  0  0  0  0  0  0  0  0  0  0  0
    4.4917   -3.4343   -0.2746 H   0  0  0  0  0  0  0  0  0  0  0  0
    3.6267   -3.6415    1.3296 H   0  0  0  0  0  0  0  0  0  0  0  0
    1.5071   -2.9650    0.2152 H   0  0  0  0  0  0  0  0  0  0  0  0
    2.4326   -2.5526   -1.2296 H   0  0  0  0  0  0  0  0  0  0  0  0
    2.7067   -1.2741    1.5380 H   0  0  0  0  0  0  0  0  0  0  0  0
    1.5502   -0.2130   -1.0017 H   0  0  0  0  0  0  0  0  0  0  0  0
    0.0711    1.8922   -0.3045 H   0  0  0  0  0  0  0  0  0  0  0  0
   -1.0075    1.6500    2.5364 H   0  0  0  0  0  0  0  0  0  0  0  0
   -0.1199    3.0256    1.8432 H   0  0  0  0  0  0  0  0  0  0  0  0
   -2.9188    2.4667    1.6633 H   0  0  0  0  0  0  0  0  0  0  0  0
   -1.5953    2.2267   -1.1110 H   0  0  0  0  0  0  0  0  0  0  0  0
   -3.2275    1.6253   -0.6153 H   0  0  0  0  0  0  0  0  0  0  0  0
   -5.2919   -1.3864    0.0903 H   0  0  0  0  0  0  0  0  0  0  0  0
   -4.3493    0.0864    0.5813 H   0  0  0  0  0  0  0  0  0  0  0  0
   -4.1971   -1.7304   -2.0595 H   0  0  0  0  0  0  0  0  0  0  0  0
   -3.2818   -0.1602   -2.0118 H   0  0  0  0  0  0  0  0  0  0  0  0
   -2.6076   -2.5456    2.2380 H   0  0  0  0  0  0  0  0  0  0  0  0
   -2.7974   -4.9017    2.9055 H   0  0  0  0  0  0  0  0  0  0  0  0
   -3.9031   -5.9599   -1.0292 H   0  0  0  0  0  0  0  0  0  0  0  0
   -3.7252   -3.6423   -1.7359 H   0  0  0  0  0  0  0  0  0  0  0  0
   -4.5694    3.4227    0.0268 H   0  0  0  0  0  0  0  0  0  0  0  0
   -6.5178    4.5486   -0.9976 H   0  0  0  0  0  0  0  0  0  0  0  0
   -6.2984    6.7995   -1.8776 H   0  0  0  0  0  0  0  0  0  0  0  0
   -4.1436    7.9089   -1.7452 H   0  0  0  0  0  0  0  0  0  0  0  0
    6.3926    0.1225   -1.1242 H   0  0  0  0  0  0  0  0  0  0  0  0
    7.8309   -1.0569    1.3355 H   0  0  0  0  0  0  0  0  0  0  0  0
    8.7300   -1.2307   -1.6547 H   0  0  0  0  0  0  0  0  0  0  0  0
    9.6003   -1.8882   -0.1790 H   0  0  0  0  0  0  0  0  0  0  0  0
    9.7818    0.4241    0.7579 H   0  0  0  0  0  0  0  0  0  0  0  0
    8.9230    1.1390   -0.7051 H   0  0  0  0  0  0  0  0  0  0  0  0
  1  2  1  0
  2  3  1  0
  3  4  1  0
  4  5  1  0
  5  6  2  0
  5  7  1  0
  7  8  1  0
  8  9  1  0
  9 10  1  0
 10 11  1  0
 11 12  1  0
 12 13  2  0
 12 14  1  0
 14 15  1  0
 15 16  1  0
 14 17  1  0
 17 18  2  0
 18 19  1  0
 19 20  2  0
 20 21  1  0
 20 22  1  0
 22 23  2  0
  9 24  1  0
 24 25  2  0
 24 26  2  0
 24 27  1  0
 27 28  2  0
 28 29  1  0
 29 30  2  0
 30 31  1  0
 31 32  2  0
  3 33  1  0
 33 34  2  0
 33 35  1  0
 35 36  2  0
 35 37  1  0
 37 38  1  0
 38 39  1  0
 39 40  1  0
 11  7  1  0
 16 14  1  0
 23 17  1  0
 32 27  1  0
 40 38  1  0
  1 41  1  0
  1 42  1  0
  1 43  1  0
  2 44  1  0
  2 45  1  0
  3 46  1  1
  4 47  1  0
  7 48  1  6
  8 49  1  0
  8 50  1  0
  9 51  1  1
 10 52  1  0
 10 53  1  0
 15 54  1  0
 15 55  1  0
 16 56  1  0
 16 57  1  0
 18 58  1  0
 19 59  1  0
 22 60  1  0
 23 61  1  0
 28 62  1  0
 29 63  1  0
 30 64  1  0
 31 65  1  0
 37 66  1  0
 38 67  1  0
 39 68  1  0
 39 69  1  0
 40 70  1  0
 40 71  1  0
M  END
$$$$
[H]c1c([H])c([H])c2c(c1[H])Sc1c([H])c([H])c(-c3c(C([H])([H])[H])c([H])c([H])c([H])c3C([H])([H])[H])c([H])c1C([H])(N1C([H])([H])C([H])([H])N(C([H])([H])[H])C([H])([H])C1([H])[H])C2([H])[H]
     RDKit          3D

 60 64  0  0  0  0  0  0  0  0999 V2000
   -4.6461   -3.4373    0.5620 C   0  0  0  0  0  0  0  0  0  0  0  0
   -3.3438   -2.7839    0.3144 N   0  0  0  0  0  0  0  0  0  0  0  0
   -2.7250   -2.4794    1.5610 C   0  0  0  0  0  0  0  0  0  0  0  0
   -2.2606   -1.0436    1.6719 C   0  0  0  0  0  0  0  0  0  0  0  0
   -1.6377   -0.6257    0.4365 N   0  0  0  0  0  0  0  0  0  0  0  0
   -2.5039   -0.6728   -0.6837 C   0  0  0  0  0  0  0  0  0  0  0  0
   -3.6403   -1.6606   -0.5243 C   0  0  0  0  0  0  0  0  0  0  0  0
   -0.8787    0.6009    0.5931 C   0  0  0  0  0  0  0  0  0  0  0  0
   -1.5997    1.8041    0.9199 C   0  0  0  0  0  0  0  0  0  0  0  0
   -1.8669    2.8849   -0.0067 C   0  0  0  0  0  0  0  0  0  0  0  0
   -2.5045    3.8956    0.7155 C   0  0  0  0  0  0  0  0  0  0  0  0
   -2.9123    5.0856    0.1697 C   0  0  0  0  0  0  0  0  0  0  0  0
   -2.6866    5.3203   -1.1883 C   0  0  0  0  0  0  0  0  0  0  0  0
   -2.0621    4.3474   -1.9290 C   0  0  0  0  0  0  0  0  0  0  0  0
   -1.6713    3.1745   -1.3440 C   0  0  0  0  0  0  0  0  0  0  0  0
   -0.8710    2.0347   -2.4747 S   0  0  0  0  0  0  0  0  0  0  0  0
    0.3571    1.1119   -1.5887 C   0  0  0  0  0  0  0  0  0  0  0  0
    1.5174    0.9891   -2.3468 C   0  0  0  0  0  0  0  0  0  0  0  0
    2.6113    0.3170   -1.8171 C   0  0  0  0  0  0  0  0  0  0  0  0
    2.5486   -0.2242   -0.5493 C   0  0  0  0  0  0  0  0  0  0  0  0
    1.3801   -0.0731    0.1504 C   0  0  0  0  0  0  0  0  0  0  0  0
    0.2469    0.5914   -0.3286 C   0  0  0  0  0  0  0  0  0  0  0  0
    3.7045   -0.9408    0.0459 C   0  0  0  0  0  0  0  0  0  0  0  0
    3.8247   -2.2853    0.0318 C   0  0  0  0  0  0  0  0  0  0  0  0
    2.7789   -3.1459   -0.5760 C   0  0  0  0  0  0  0  0  0  0  0  0
    4.9471   -2.8922    0.6064 C   0  0  0  0  0  0  0  0  0  0  0  0
    5.9449   -2.1373    1.1935 C   0  0  0  0  0  0  0  0  0  0  0  0
    5.8181   -0.7693    1.2045 C   0  0  0  0  0  0  0  0  0  0  0  0
    4.7184   -0.1813    0.6415 C   0  0  0  0  0  0  0  0  0  0  0  0
    4.6071    1.2966    0.6502 C   0  0  0  0  0  0  0  0  0  0  0  0
   -5.2109   -2.7924    1.3005 H   0  0  0  0  0  0  0  0  0  0  0  0
   -4.5085   -4.4117    1.0448 H   0  0  0  0  0  0  0  0  0  0  0  0
   -5.2744   -3.4584   -0.3499 H   0  0  0  0  0  0  0  0  0  0  0  0
   -1.8733   -3.1513    1.7356 H   0  0  0  0  0  0  0  0  0  0  0  0
   -3.4774   -2.6320    2.3851 H   0  0  0  0  0  0  0  0  0  0  0  0
   -3.0461   -0.3621    1.9899 H   0  0  0  0  0  0  0  0  0  0  0  0
   -1.4583   -1.0315    2.4417 H   0  0  0  0  0  0  0  0  0  0  0  0
   -1.9366   -0.9781   -1.5794 H   0  0  0  0  0  0  0  0  0  0  0  0
   -3.0044    0.2868   -0.9248 H   0  0  0  0  0  0  0  0  0  0  0  0
   -4.5718   -1.1551   -0.1729 H   0  0  0  0  0  0  0  0  0  0  0  0
   -3.9153   -2.0836   -1.5334 H   0  0  0  0  0  0  0  0  0  0  0  0
   -0.3612    0.3312    1.6034 H   0  0  0  0  0  0  0  0  0  0  0  0
   -2.6284    1.4766    1.2878 H   0  0  0  0  0  0  0  0  0  0  0  0
   -1.1954    2.3055    1.8566 H   0  0  0  0  0  0  0  0  0  0  0  0
   -2.7098    3.7667    1.7880 H   0  0  0  0  0  0  0  0  0  0  0  0
   -3.4100    5.8640    0.7493 H   0  0  0  0  0  0  0  0  0  0  0  0
   -2.9969    6.2533   -1.6448 H   0  0  0  0  0  0  0  0  0  0  0  0
   -1.8642    4.4876   -2.9977 H   0  0  0  0  0  0  0  0  0  0  0  0
    1.5476    1.4216   -3.3367 H   0  0  0  0  0  0  0  0  0  0  0  0
    3.5061    0.2121   -2.3870 H   0  0  0  0  0  0  0  0  0  0  0  0
    1.3163   -0.4892    1.1407 H   0  0  0  0  0  0  0  0  0  0  0  0
    3.1599   -4.2062   -0.6471 H   0  0  0  0  0  0  0  0  0  0  0  0
    1.8948   -3.2122    0.0989 H   0  0  0  0  0  0  0  0  0  0  0  0
    2.5117   -2.8638   -1.6060 H   0  0  0  0  0  0  0  0  0  0  0  0
    5.0794   -3.9567    0.6201 H   0  0  0  0  0  0  0  0  0  0  0  0
    6.8292   -2.6040    1.6487 H   0  0  0  0  0  0  0  0  0  0  0  0
    6.6123   -0.1664    1.6706 H   0  0  0  0  0  0  0  0  0  0  0  0
    3.5529    1.6555    0.7879 H   0  0  0  0  0  0  0  0  0  0  0  0
    5.1746    1.6885    1.4999 H   0  0  0  0  0  0  0  0  0  0  0  0
    5.0635    1.7044   -0.2804 H   0  0  0  0  0  0  0  0  0  0  0  0
  1  2  1  0
  2  3  1  0
  3  4  1  0
  4  5  1  0
  5  6  1  0
  6  7  1  0
  5  8  1  0
  8  9  1  0
  9 10  1  0
 10 11  2  0
 11 12  1  0
 12 13  2  0
 13 14  1  0
 14 15  2  0
 15 16  1  0
 16 17  1  0
 17 18  2  0
 18 19  1  0
 19 20  2  0
 20 21  1  0
 21 22  2  0
 20 23  1  0
 23 24  2  0
 24 25  1  0
 24 26  1  0
 26 27  2  0
 27 28  1  0
 28 29  2  0
 29 30  1  0
  7  2  1  0
 22  8  1  0
 29 23  1  0
 15 10  1  0
 22 17  1  0
  1 31  1  0
  1 32  1  0
  1 33  1  0
  3 34  1  0
  3 35  1  0
  4 36  1  0
  4 37  1  0
  6 38  1  0
  6 39  1  0
  7 40  1  0
  7 41  1  0
  8 42  1  0
  9 43  1  0
  9 44  1  0
 11 45  1  0
 12 46  1  0
 13 47  1  0
 14 48  1  0
 18 49  1  0
 19 50  1  0
 21 51  1  0
 25 52  1  0
 25 53  1  0
 25 54  1  0
 26 55  1  0
 27 56  1  0
 28 57  1  0
 30 58  1  0
 30 59  1  0
 30 60  1  0
M  END
$$$$
[H]OC(=O)c1c([H])c(N([H])S(=O)(=O)c2c([H])c([H])c(C(C([H])([H])[H])(C([H])([H])[H])C([H])([H])[H])c([H])c2[H])c([H])c([H])c1F
     RDKit          3D

 42 43  0  0  0  0  0  0  0  0999 V2000
   -4.5877    1.5000    0.6055 C   0  0  0  0  0  0  0  0  0  0  0  0
   -4.0065    0.5744   -0.4564 C   0  0  0  0  0  0  0  0  0  0  0  0
   -3.7316    1.3823   -1.7203 C   0  0  0  0  0  0  0  0  0  0  0  0
   -5.0363   -0.4633   -0.7906 C   0  0  0  0  0  0  0  0  0  0  0  0
   -2.7703   -0.0397    0.0792 C   0  0  0  0  0  0  0  0  0  0  0  0
   -2.2722    0.3648    1.3158 C   0  0  0  0  0  0  0  0  0  0  0  0
   -1.1222   -0.1444    1.8525 C   0  0  0  0  0  0  0  0  0  0  0  0
   -0.3646   -1.1230    1.1751 C   0  0  0  0  0  0  0  0  0  0  0  0
   -0.8542   -1.5212   -0.0384 C   0  0  0  0  0  0  0  0  0  0  0  0
   -2.0309   -0.9978   -0.5857 C   0  0  0  0  0  0  0  0  0  0  0  0
    1.0856   -1.6829    1.9554 S   0  0  0  0  0  0  0  0  0  0  0  0
    0.8090   -1.9819    3.4223 O   0  0  0  0  0  0  0  0  0  0  0  0
    1.4367   -3.0462    1.3704 O   0  0  0  0  0  0  0  0  0  0  0  0
    2.3774   -0.6370    1.7538 N   0  0  0  0  0  0  0  0  0  0  0  0
    3.0286   -0.2496    0.5732 C   0  0  0  0  0  0  0  0  0  0  0  0
    2.4669    0.1225   -0.6115 C   0  0  0  0  0  0  0  0  0  0  0  0
    3.2070    0.4713   -1.7325 C   0  0  0  0  0  0  0  0  0  0  0  0
    4.5770    0.4437   -1.6460 C   0  0  0  0  0  0  0  0  0  0  0  0
    5.3981    0.7677   -2.6816 F   0  0  0  0  0  0  0  0  0  0  0  0
    5.2152    0.0770   -0.4631 C   0  0  0  0  0  0  0  0  0  0  0  0
    4.4541   -0.2608    0.6157 C   0  0  0  0  0  0  0  0  0  0  0  0
    6.6790    0.0390   -0.3473 C   0  0  0  0  0  0  0  0  0  0  0  0
    7.1945   -0.0283    0.9649 O   0  0  0  0  0  0  0  0  0  0  0  0
    7.4418    0.0639   -1.3068 O   0  0  0  0  0  0  0  0  0  0  0  0
   -5.5518    1.8835    0.1457 H   0  0  0  0  0  0  0  0  0  0  0  0
   -4.8854    0.9184    1.4795 H   0  0  0  0  0  0  0  0  0  0  0  0
   -3.9518    2.3605    0.7846 H   0  0  0  0  0  0  0  0  0  0  0  0
   -3.0528    2.2059   -1.4823 H   0  0  0  0  0  0  0  0  0  0  0  0
   -3.2937    0.6969   -2.4778 H   0  0  0  0  0  0  0  0  0  0  0  0
   -4.6954    1.8476   -2.0601 H   0  0  0  0  0  0  0  0  0  0  0  0
   -4.9418   -1.3407   -0.1225 H   0  0  0  0  0  0  0  0  0  0  0  0
   -4.7869   -0.8554   -1.8129 H   0  0  0  0  0  0  0  0  0  0  0  0
   -6.0620   -0.0231   -0.7848 H   0  0  0  0  0  0  0  0  0  0  0  0
   -2.8376    1.1166    1.8716 H   0  0  0  0  0  0  0  0  0  0  0  0
   -0.7320    0.1694    2.8200 H   0  0  0  0  0  0  0  0  0  0  0  0
   -0.2850   -2.2718   -0.5667 H   0  0  0  0  0  0  0  0  0  0  0  0
   -2.3990   -1.3198   -1.5407 H   0  0  0  0  0  0  0  0  0  0  0  0
    2.7693   -0.1853    2.6551 H   0  0  0  0  0  0  0  0  0  0  0  0
    1.4027    0.1749   -0.6808 H   0  0  0  0  0  0  0  0  0  0  0  0
    2.6907    0.7556   -2.6288 H   0  0  0  0  0  0  0  0  0  0  0  0
    4.9211   -0.5584    1.5704 H   0  0  0  0  0  0  0  0  0  0  0  0
    7.0972    0.7949    1.5849 H   0  0  0  0  0  0  0  0  0  0  0  0
  1  2  1  0
  2  3  1  0
  2  4  1  0
  2  5  1  0
  5  6  2  0
  6  7  1  0
  7  8  2  0
  8  9  1  0
  9 10  2  0
  8 11  1  0
 11 12  2  0
 11 13  2  0
 11 14  1  0
 14 15  1  0
 15 16  2  0
 16 17  1  0
 17 18  2  0
 18 19  1  0
 18 20  1  0
 20 21  2  0
 20 22  1  0
 22 23  1  0
 22 24  2  0
 10  5  1  0
 21 15  1  0
  1 25  1  0
  1 26  1  0
  1 27  1  0
  3 28  1  0
  3 29  1  0
  3 30  1  0
  4 31  1  0
  4 32  1  0
  4 33  1  0
  6 34  1  0
  7 35  1  0
  9 36  1  0
 10 37  1  0
 14 38  1  0
 16 39  1  0
 17 40  1  0
 21 41  1  0
 23 42  1  0
M  END
$$$$
[H]ON([H])C(=O)C([H])([H])C([H])([H])C([H])([H])C([H])([H])C([H])([H])C([H])([H])C(=O)N([H])c1c([H])c([H])c([H])c(-c2c([H])nnn2C([H])([H])c2c([H])c([H])c(F)c([H])c2[H])c1[H]
     RDKit          3D

 58 60  0  0  0  0  0  0  0  0999 V2000
   -9.8226    3.3153   -2.2843 O   0  0  0  0  0  0  0  0  0  0  0  0
   -8.6787    3.0324   -1.6362 N   0  0  0  0  0  0  0  0  0  0  0  0
   -8.5505    1.8133   -0.9251 C   0  0  0  0  0  0  0  0  0  0  0  0
   -9.5106    1.0058   -0.9073 O   0  0  0  0  0  0  0  0  0  0  0  0
   -7.2945    1.4664   -0.1941 C   0  0  0  0  0  0  0  0  0  0  0  0
   -7.4228    0.1251    0.4954 C   0  0  0  0  0  0  0  0  0  0  0  0
   -6.1672   -0.2430    1.2387 C   0  0  0  0  0  0  0  0  0  0  0  0
   -4.9756   -0.3362    0.2958 C   0  0  0  0  0  0  0  0  0  0  0  0
   -3.7299   -0.6982    1.0774 C   0  0  0  0  0  0  0  0  0  0  0  0
   -2.6016   -0.7790    0.0807 C   0  0  0  0  0  0  0  0  0  0  0  0
   -1.2939   -1.1285    0.7544 C   0  0  0  0  0  0  0  0  0  0  0  0
   -1.3785   -1.2626    1.9920 O   0  0  0  0  0  0  0  0  0  0  0  0
   -0.1593   -1.2626   -0.0393 N   0  0  0  0  0  0  0  0  0  0  0  0
    1.1646   -1.5773    0.3321 C   0  0  0  0  0  0  0  0  0  0  0  0
    1.4635   -1.9571    1.6088 C   0  0  0  0  0  0  0  0  0  0  0  0
    2.7977   -2.2337    1.9265 C   0  0  0  0  0  0  0  0  0  0  0  0
    3.7896   -2.1212    0.9552 C   0  0  0  0  0  0  0  0  0  0  0  0
    3.5221   -1.7449   -0.3224 C   0  0  0  0  0  0  0  0  0  0  0  0
    2.2005   -1.4798   -0.6064 C   0  0  0  0  0  0  0  0  0  0  0  0
    4.5102   -1.5120   -1.3997 C   0  0  0  0  0  0  0  0  0  0  0  0
    4.1201   -1.4742   -2.7546 C   0  0  0  0  0  0  0  0  0  0  0  0
    5.2196   -1.2029   -3.4446 N   0  0  0  0  0  0  0  0  0  0  0  0
    6.2220   -1.0741   -2.6511 N   0  0  0  0  0  0  0  0  0  0  0  0
    5.8048   -1.2594   -1.3838 N   0  0  0  0  0  0  0  0  0  0  0  0
    6.7264   -1.0845   -0.3048 C   0  0  0  0  0  0  0  0  0  0  0  0
    6.9192    0.3246    0.1010 C   0  0  0  0  0  0  0  0  0  0  0  0
    7.7929    1.1739   -0.5493 C   0  0  0  0  0  0  0  0  0  0  0  0
    7.9860    2.4770   -0.1765 C   0  0  0  0  0  0  0  0  0  0  0  0
    7.2931    3.0011    0.8939 C   0  0  0  0  0  0  0  0  0  0  0  0
    7.4719    4.2875    1.2769 F   0  0  0  0  0  0  0  0  0  0  0  0
    6.4162    2.1737    1.5581 C   0  0  0  0  0  0  0  0  0  0  0  0
    6.2318    0.8404    1.1613 C   0  0  0  0  0  0  0  0  0  0  0  0
   -9.6541    3.9558   -3.0282 H   0  0  0  0  0  0  0  0  0  0  0  0
   -7.8771    3.7066   -1.6497 H   0  0  0  0  0  0  0  0  0  0  0  0
   -6.5028    1.4134   -0.9732 H   0  0  0  0  0  0  0  0  0  0  0  0
   -7.1126    2.2650    0.5479 H   0  0  0  0  0  0  0  0  0  0  0  0
   -7.6176   -0.6637   -0.2667 H   0  0  0  0  0  0  0  0  0  0  0  0
   -8.2512    0.1641    1.2320 H   0  0  0  0  0  0  0  0  0  0  0  0
   -6.3082   -1.2175    1.7478 H   0  0  0  0  0  0  0  0  0  0  0  0
   -5.9167    0.4960    2.0259 H   0  0  0  0  0  0  0  0  0  0  0  0
   -4.7941    0.6880   -0.1406 H   0  0  0  0  0  0  0  0  0  0  0  0
   -5.1653   -1.0482   -0.5272 H   0  0  0  0  0  0  0  0  0  0  0  0
   -3.5784    0.0856    1.8459 H   0  0  0  0  0  0  0  0  0  0  0  0
   -3.8985   -1.7076    1.5308 H   0  0  0  0  0  0  0  0  0  0  0  0
   -2.4710    0.2085   -0.4032 H   0  0  0  0  0  0  0  0  0  0  0  0
   -2.8543   -1.5886   -0.6290 H   0  0  0  0  0  0  0  0  0  0  0  0
   -0.3151   -1.1064   -1.0897 H   0  0  0  0  0  0  0  0  0  0  0  0
    0.7229   -2.0643    2.3999 H   0  0  0  0  0  0  0  0  0  0  0  0
    3.0285   -2.5307    2.9274 H   0  0  0  0  0  0  0  0  0  0  0  0
    4.7740   -2.3783    1.2808 H   0  0  0  0  0  0  0  0  0  0  0  0
    1.9145   -1.1740   -1.5922 H   0  0  0  0  0  0  0  0  0  0  0  0
    3.1119   -1.6468   -3.0949 H   0  0  0  0  0  0  0  0  0  0  0  0
    6.5469   -1.6827    0.5703 H   0  0  0  0  0  0  0  0  0  0  0  0
    7.7357   -1.4970   -0.6903 H   0  0  0  0  0  0  0  0  0  0  0  0
    8.3327    0.7491   -1.3907 H   0  0  0  0  0  0  0  0  0  0  0  0
    8.6782    3.0747   -0.7269 H   0  0  0  0  0  0  0  0  0  0  0  0
    5.8752    2.5935    2.3970 H   0  0  0  0  0  0  0  0  0  0  0  0
    5.5303    0.3008    1.7569 H   0  0  0  0  0  0  0  0  0  0  0  0
  1  2  1  0
  2  3  1  0
  3  4  2  0
  3  5  1  0
  5  6  1  0
  6  7  1  0
  7  8  1  0
  8  9  1  0
  9 10  1  0
 10 11  1  0
 11 12  2  0
 11 13  1  0
 13 14  1  0
 14 15  2  0
 15 16  1  0
 16 17  2  0
 17 18  1  0
 18 19  2  0
 18 20  1  0
 20 21  2  0
 21 22  1  0
 22 23  2  0
 23 24  1  0
 24 25  1  0
 25 26  1  0
 26 27  2  0
 27 28  1  0
 28 29  2  0
 29 30  1  0
 29 31  1  0
 31 32  2  0
 19 14  1  0
 24 20  1  0
 32 26  1  0
  1 33  1  0
  2 34  1  0
  5 35  1  0
  5 36  1  0
  6 37  1  0
  6 38  1  0
  7 39  1  0
  7 40  1  0
  8 41  1  0
  8 42  1  0
  9 43  1  0
  9 44  1  0
 10 45  1  0
 10 46  1  0
 13 47  1  0
 15 48  1  0
 16 49  1  0
 17 50  1  0
 19 51  1  0
 21 52  1  0
 25 53  1  0
 25 54  1  0
 27 55  1  0
 28 56  1  0
 31 57  1  0
 32 58  1  0
M  END
$$$$
[H]O[C@@]1([H])C([H])([H])C([H])([H])[C@]2([H])[C@]1(C([H])([H])[H])C([H])([H])C([H])([H])[C@]1([H])[C@@]3(C([H])([H])[H])C(=C([H])C(=O)C([H])([H])C3([H])[H])C([H])([H])C([H])([H])[C@]12[H]
     RDKit          3D

 49 52  0  0  0  0  0  0  0  0999 V2000
    2.4635    1.3696    0.9946 C   0  0  0  0  0  0  0  0  0  0  0  0
    2.3057    0.6199   -0.2813 C   0  0  2  0  0  0  0  0  0  0  0  0
    1.5501    1.3576   -1.3464 C   0  0  0  0  0  0  0  0  0  0  0  0
    0.1081    1.4425   -0.8922 C   0  0  0  0  0  0  0  0  0  0  0  0
   -0.4952    0.0819   -0.7343 C   0  0  1  0  0  0  0  0  0  0  0  0
    0.2476   -0.6537    0.3796 C   0  0  1  0  0  0  0  0  0  0  0  0
   -0.2601   -2.0916    0.5023 C   0  0  0  0  0  0  0  0  0  0  0  0
   -1.7290   -2.2018    0.6696 C   0  0  0  0  0  0  0  0  0  0  0  0
   -2.4830   -0.9898    0.2943 C   0  0  0  0  0  0  0  0  0  0  0  0
   -3.7444   -0.8997    0.7416 C   0  0  0  0  0  0  0  0  0  0  0  0
   -4.5744    0.2523    0.4302 C   0  0  0  0  0  0  0  0  0  0  0  0
   -5.8127    0.1508    0.4519 O   0  0  0  0  0  0  0  0  0  0  0  0
   -3.9319    1.5256    0.0930 C   0  0  0  0  0  0  0  0  0  0  0  0
   -2.4200    1.4162    0.0814 C   0  0  0  0  0  0  0  0  0  0  0  0
   -1.9735    0.1074   -0.5200 C   0  0  1  0  0  0  0  0  0  0  0  0
   -2.6157   -0.0255   -1.9077 C   0  0  0  0  0  0  0  0  0  0  0  0
    1.6571   -0.7469   -0.0869 C   0  0  2  0  0  0  0  0  0  0  0  0
    2.6178   -1.3943    0.8227 C   0  0  0  0  0  0  0  0  0  0  0  0
    3.9727   -0.9314    0.2908 C   0  0  0  0  0  0  0  0  0  0  0  0
    3.6732    0.1505   -0.7313 C   0  0  2  0  0  0  0  0  0  0  0  0
    4.6121    1.1524   -0.7496 O   0  0  0  0  0  0  0  0  0  0  0  0
    3.5227    1.3184    1.3845 H   0  0  0  0  0  0  0  0  0  0  0  0
    1.8292    1.0301    1.8208 H   0  0  0  0  0  0  0  0  0  0  0  0
    2.2954    2.4710    0.8216 H   0  0  0  0  0  0  0  0  0  0  0  0
    1.9518    2.4060   -1.3607 H   0  0  0  0  0  0  0  0  0  0  0  0
    1.6732    0.8373   -2.2948 H   0  0  0  0  0  0  0  0  0  0  0  0
   -0.4368    2.0389   -1.6536 H   0  0  0  0  0  0  0  0  0  0  0  0
    0.1216    1.9983    0.0779 H   0  0  0  0  0  0  0  0  0  0  0  0
   -0.2601   -0.4913   -1.6632 H   0  0  0  0  0  0  0  0  0  0  0  0
    0.1361   -0.1279    1.3480 H   0  0  0  0  0  0  0  0  0  0  0  0
    0.0977   -2.6149   -0.4143 H   0  0  0  0  0  0  0  0  0  0  0  0
    0.2444   -2.5220    1.3813 H   0  0  0  0  0  0  0  0  0  0  0  0
   -2.0894   -3.0185   -0.0229 H   0  0  0  0  0  0  0  0  0  0  0  0
   -1.9923   -2.5654    1.6944 H   0  0  0  0  0  0  0  0  0  0  0  0
   -4.1588   -1.6849    1.3394 H   0  0  0  0  0  0  0  0  0  0  0  0
   -4.1871    2.2466    0.9240 H   0  0  0  0  0  0  0  0  0  0  0  0
   -4.3348    2.0016   -0.8219 H   0  0  0  0  0  0  0  0  0  0  0  0
   -2.0846    1.4774    1.1403 H   0  0  0  0  0  0  0  0  0  0  0  0
   -2.0379    2.3064   -0.4288 H   0  0  0  0  0  0  0  0  0  0  0  0
   -1.9040    0.3240   -2.6836 H   0  0  0  0  0  0  0  0  0  0  0  0
   -2.8129   -1.1041   -2.1378 H   0  0  0  0  0  0  0  0  0  0  0  0
   -3.5253    0.5595   -2.0119 H   0  0  0  0  0  0  0  0  0  0  0  0
    1.6740   -1.2531   -1.0647 H   0  0  0  0  0  0  0  0  0  0  0  0
    2.5491   -2.4993    0.8658 H   0  0  0  0  0  0  0  0  0  0  0  0
    2.5279   -1.0486    1.8830 H   0  0  0  0  0  0  0  0  0  0  0  0
    4.4352   -1.8169   -0.2121 H   0  0  0  0  0  0  0  0  0  0  0  0
    4.6461   -0.5983    1.0884 H   0  0  0  0  0  0  0  0  0  0  0  0
    3.5803   -0.3701   -1.7203 H   0  0  0  0  0  0  0  0  0  0  0  0
    5.3713    1.0080   -0.1232 H   0  0  0  0  0  0  0  0  0  0  0  0
  2  1  1  1
  2  3  1  0
  3  4  1  0
  4  5  1  0
  5  6  1  0
  6  7  1  0
  7  8  1  0
  8  9  1  0
  9 10  2  0
 10 11  1  0
 11 12  2  0
 11 13  1  0
 13 14  1  0
 14 15  1  0
 15 16  1  6
  6 17  1  0
 17 18  1  0
 18 19  1  0
 19 20  1  0
 20 21  1  0
 17  2  1  0
 20  2  1  0
 15  5  1  0
 15  9  1  0
  1 22  1  0
  1 23  1  0
  1 24  1  0
  3 25  1  0
  3 26  1  0
  4 27  1  0
  4 28  1  0
  5 29  1  6
  6 30  1  1
  7 31  1  0
  7 32  1  0
  8 33  1  0
  8 34  1  0
 10 35  1  0
 13 36  1  0
 13 37  1  0
 14 38  1  0
 14 39  1  0
 16 40  1  0
 16 41  1  0
 16 42  1  0
 17 43  1  6
 18 44  1  0
 18 45  1  0
 19 46  1  0
 19 47  1  0
 20 48  1  6
 21 49  1  0
M  END
$$$$
[H]c1c([H])c(C(=O)N(C([H])([H])[H])C([H])([H])[H])c([H])c(-c2c([H])c(C(F)(F)F)c([H])c(C(F)(F)F)c2[H])c1[H]
     RDKit          3D

 38 39  0  0  0  0  0  0  0  0999 V2000
    5.2621   -0.3752    0.4418 C   0  0  0  0  0  0  0  0  0  0  0  0
    4.4881    0.5541   -0.3236 N   0  0  0  0  0  0  0  0  0  0  0  0
    5.2896    1.5435   -1.1469 C   0  0  0  0  0  0  0  0  0  0  0  0
    3.1098    0.6301   -0.5286 C   0  0  0  0  0  0  0  0  0  0  0  0
    2.7296    1.6756   -1.1937 O   0  0  0  0  0  0  0  0  0  0  0  0
    2.0732   -0.2836   -0.1338 C   0  0  0  0  0  0  0  0  0  0  0  0
    2.3000   -1.5841    0.3966 C   0  0  0  0  0  0  0  0  0  0  0  0
    1.2713   -2.4059    0.8038 C   0  0  0  0  0  0  0  0  0  0  0  0
   -0.0236   -1.9604    0.6925 C   0  0  0  0  0  0  0  0  0  0  0  0
   -0.3278   -0.7112    0.1876 C   0  0  0  0  0  0  0  0  0  0  0  0
    0.7503    0.0656   -0.2089 C   0  0  0  0  0  0  0  0  0  0  0  0
   -1.7022   -0.2314    0.1391 C   0  0  0  0  0  0  0  0  0  0  0  0
   -2.0551    1.0997    0.1887 C   0  0  0  0  0  0  0  0  0  0  0  0
   -3.3411    1.5201    0.2826 C   0  0  0  0  0  0  0  0  0  0  0  0
   -4.3350    0.5719    0.3346 C   0  0  0  0  0  0  0  0  0  0  0  0
   -4.0601   -0.7624    0.2833 C   0  0  0  0  0  0  0  0  0  0  0  0
   -2.7100   -1.1553    0.1798 C   0  0  0  0  0  0  0  0  0  0  0  0
   -5.0760   -1.8040    0.3823 C   0  0  0  0  0  0  0  0  0  0  0  0
   -5.8997   -1.8696   -0.7439 F   0  0  0  0  0  0  0  0  0  0  0  0
   -4.5041   -3.0292    0.5481 F   0  0  0  0  0  0  0  0  0  0  0  0
   -5.9296   -1.5896    1.4770 F   0  0  0  0  0  0  0  0  0  0  0  0
   -3.7723    2.9719    0.2544 C   0  0  0  0  0  0  0  0  0  0  0  0
   -4.7863    3.0560   -0.6883 F   0  0  0  0  0  0  0  0  0  0  0  0
   -2.7064    3.7549   -0.1917 F   0  0  0  0  0  0  0  0  0  0  0  0
   -4.2583    3.4054    1.4334 F   0  0  0  0  0  0  0  0  0  0  0  0
    4.7087   -0.5675    1.4015 H   0  0  0  0  0  0  0  0  0  0  0  0
    6.1928    0.1785    0.7499 H   0  0  0  0  0  0  0  0  0  0  0  0
    5.5301   -1.2910   -0.0850 H   0  0  0  0  0  0  0  0  0  0  0  0
    6.3004    1.6291   -0.7494 H   0  0  0  0  0  0  0  0  0  0  0  0
    5.4630    1.0164   -2.1458 H   0  0  0  0  0  0  0  0  0  0  0  0
    4.7397    2.4514   -1.2821 H   0  0  0  0  0  0  0  0  0  0  0  0
    3.2875   -1.9650    0.4357 H   0  0  0  0  0  0  0  0  0  0  0  0
    1.5370   -3.4256    1.2201 H   0  0  0  0  0  0  0  0  0  0  0  0
   -0.8328   -2.6400    1.0098 H   0  0  0  0  0  0  0  0  0  0  0  0
    0.4929    1.0693   -0.5725 H   0  0  0  0  0  0  0  0  0  0  0  0
   -1.2862    1.8311    0.1582 H   0  0  0  0  0  0  0  0  0  0  0  0
   -5.3826    0.8593    0.4190 H   0  0  0  0  0  0  0  0  0  0  0  0
   -2.5369   -2.2328    0.1286 H   0  0  0  0  0  0  0  0  0  0  0  0
  1  2  1  0
  2  3  1  0
  2  4  1  0
  4  5  2  0
  4  6  1  0
  6  7  2  0
  7  8  1  0
  8  9  2  0
  9 10  1  0
 10 11  2  0
 10 12  1  0
 12 13  2  0
 13 14  1  0
 14 15  2  0
 15 16  1  0
 16 17  2  0
 16 18  1  0
 18 19  1  0
 18 20  1  0
 18 21  1  0
 14 22  1  0
 22 23  1  0
 22 24  1  0
 22 25  1  0
 11  6  1  0
 17 12  1  0
  1 26  1  0
  1 27  1  0
  1 28  1  0
  3 29  1  0
  3 30  1  0
  3 31  1  0
  7 32  1  0
  8 33  1  0
  9 34  1  0
 11 35  1  0
 13 36  1  0
 15 37  1  0
 17 38  1  0
M  END
$$$$
[H]Oc1c([H])c([H])c([C@]2([H])Sc3c([H])c(O[H])c([H])c([H])c3O[C@@]2([H])c2c([H])c([H])c(OC([H])([H])C([H])([H])N3C([H])([H])C([H])([H])C([H])([H])C([H])([H])C3([H])[H])c([H])c2[H])c([H])c1[H]
     RDKit          3D

 62 66  0  0  0  0  0  0  0  0999 V2000
   -4.8072   -1.6446    5.2826 O   0  0  0  0  0  0  0  0  0  0  0  0
   -4.5309   -1.1155    4.0073 C   0  0  0  0  0  0  0  0  0  0  0  0
   -5.0782   -1.6521    2.8640 C   0  0  0  0  0  0  0  0  0  0  0  0
   -4.8087   -1.1352    1.6143 C   0  0  0  0  0  0  0  0  0  0  0  0
   -3.9720   -0.0509    1.4670 C   0  0  0  0  0  0  0  0  0  0  0  0
   -3.4139    0.4984    2.6155 C   0  0  0  0  0  0  0  0  0  0  0  0
   -3.6944   -0.0305    3.8516 C   0  0  0  0  0  0  0  0  0  0  0  0
   -3.6670    0.5234    0.1518 C   0  0  2  0  0  0  0  0  0  0  0  0
   -5.1715    1.0848   -0.7061 S   0  0  0  0  0  0  0  0  0  0  0  0
   -4.7962    1.1071   -2.4239 C   0  0  0  0  0  0  0  0  0  0  0  0
   -5.6375    1.6971   -3.3075 C   0  0  0  0  0  0  0  0  0  0  0  0
   -5.3572    1.7282   -4.6786 C   0  0  0  0  0  0  0  0  0  0  0  0
   -6.1917    2.3210   -5.6052 O   0  0  0  0  0  0  0  0  0  0  0  0
   -4.1971    1.1426   -5.1302 C   0  0  0  0  0  0  0  0  0  0  0  0
   -3.3318    0.5403   -4.2533 C   0  0  0  0  0  0  0  0  0  0  0  0
   -3.6490    0.5315   -2.8952 C   0  0  0  0  0  0  0  0  0  0  0  0
   -2.7850   -0.0674   -2.0422 O   0  0  0  0  0  0  0  0  0  0  0  0
   -3.0079   -0.4874   -0.7232 C   0  0  1  0  0  0  0  0  0  0  0  0
   -1.6460   -0.7969   -0.1649 C   0  0  0  0  0  0  0  0  0  0  0  0
   -1.3949   -1.9510    0.5381 C   0  0  0  0  0  0  0  0  0  0  0  0
   -0.1523   -2.2388    1.0434 C   0  0  0  0  0  0  0  0  0  0  0  0
    0.9443   -1.3648    0.8708 C   0  0  0  0  0  0  0  0  0  0  0  0
    2.1584   -1.7169    1.4054 O   0  0  0  0  0  0  0  0  0  0  0  0
    3.3535   -1.0643    1.3415 C   0  0  0  0  0  0  0  0  0  0  0  0
    3.9840   -0.9242   -0.0283 C   0  0  0  0  0  0  0  0  0  0  0  0
    5.2086   -0.2136    0.1092 N   0  0  0  0  0  0  0  0  0  0  0  0
    6.2780   -0.8616    0.7715 C   0  0  0  0  0  0  0  0  0  0  0  0
    7.0007    0.1919    1.6118 C   0  0  0  0  0  0  0  0  0  0  0  0
    7.2248    1.4179    0.7597 C   0  0  0  0  0  0  0  0  0  0  0  0
    6.9853    1.1533   -0.7161 C   0  0  0  0  0  0  0  0  0  0  0  0
    5.5575    0.6941   -0.9207 C   0  0  0  0  0  0  0  0  0  0  0  0
    0.6790   -0.2162    0.1685 C   0  0  0  0  0  0  0  0  0  0  0  0
   -0.5894    0.0603   -0.3383 C   0  0  0  0  0  0  0  0  0  0  0  0
   -5.6061   -1.2930    5.8303 H   0  0  0  0  0  0  0  0  0  0  0  0
   -5.7459   -2.5096    2.9247 H   0  0  0  0  0  0  0  0  0  0  0  0
   -5.2360   -1.5529    0.7141 H   0  0  0  0  0  0  0  0  0  0  0  0
   -2.7530    1.3491    2.5482 H   0  0  0  0  0  0  0  0  0  0  0  0
   -3.2660    0.3896    4.7548 H   0  0  0  0  0  0  0  0  0  0  0  0
   -3.0051    1.4236    0.2750 H   0  0  0  0  0  0  0  0  0  0  0  0
   -6.5490    2.1615   -2.9811 H   0  0  0  0  0  0  0  0  0  0  0  0
   -6.0107    3.3163   -5.7922 H   0  0  0  0  0  0  0  0  0  0  0  0
   -3.9458    1.1493   -6.2015 H   0  0  0  0  0  0  0  0  0  0  0  0
   -2.4140    0.0762   -4.5958 H   0  0  0  0  0  0  0  0  0  0  0  0
   -3.6123   -1.4125   -0.7508 H   0  0  0  0  0  0  0  0  0  0  0  0
   -2.2314   -2.6471    0.6828 H   0  0  0  0  0  0  0  0  0  0  0  0
    0.0312   -3.1380    1.5883 H   0  0  0  0  0  0  0  0  0  0  0  0
    3.3273   -0.0280    1.8124 H   0  0  0  0  0  0  0  0  0  0  0  0
    4.0712   -1.6051    2.0348 H   0  0  0  0  0  0  0  0  0  0  0  0
    4.1615   -1.9554   -0.4629 H   0  0  0  0  0  0  0  0  0  0  0  0
    3.3437   -0.4065   -0.7281 H   0  0  0  0  0  0  0  0  0  0  0  0
    5.9639   -1.7167    1.3696 H   0  0  0  0  0  0  0  0  0  0  0  0
    7.0408   -1.2010    0.0053 H   0  0  0  0  0  0  0  0  0  0  0  0
    7.9603   -0.2235    1.9934 H   0  0  0  0  0  0  0  0  0  0  0  0
    6.3052    0.4311    2.4410 H   0  0  0  0  0  0  0  0  0  0  0  0
    6.4699    2.1759    1.0589 H   0  0  0  0  0  0  0  0  0  0  0  0
    8.2174    1.8772    0.9345 H   0  0  0  0  0  0  0  0  0  0  0  0
    7.1715    2.1243   -1.2308 H   0  0  0  0  0  0  0  0  0  0  0  0
    7.7264    0.4023   -1.0393 H   0  0  0  0  0  0  0  0  0  0  0  0
    4.8735    1.5689   -0.9154 H   0  0  0  0  0  0  0  0  0  0  0  0
    5.5019    0.2721   -1.9511 H   0  0  0  0  0  0  0  0  0  0  0  0
    1.4631    0.5113    0.0198 H   0  0  0  0  0  0  0  0  0  0  0  0
   -0.7478    0.9683   -0.8795 H   0  0  0  0  0  0  0  0  0  0  0  0
  1  2  1  0
  2  3  2  0
  3  4  1  0
  4  5  2  0
  5  6  1  0
  6  7  2  0
  5  8  1  0
  8  9  1  0
  9 10  1  0
 10 11  2  0
 11 12  1  0
 12 13  1  0
 12 14  2  0
 14 15  1  0
 15 16  2  0
 16 17  1  0
 17 18  1  0
 18 19  1  0
 19 20  2  0
 20 21  1  0
 21 22  2  0
 22 23  1  0
 23 24  1  0
 24 25  1  0
 25 26  1  0
 26 27  1  0
 27 28  1  0
 28 29  1  0
 29 30  1  0
 30 31  1  0
 22 32  1  0
 32 33  2  0
  7  2  1  0
 18  8  1  0
 33 19  1  0
 16 10  1  0
 31 26  1  0
  1 34  1  0
  3 35  1  0
  4 36  1  0
  6 37  1  0
  7 38  1  0
  8 39  1  1
 11 40  1  0
 13 41  1  0
 14 42  1  0
 15 43  1  0
 18 44  1  6
 20 45  1  0
 21 46  1  0
 24 47  1  0
 24 48  1  0
 25 49  1  0
 25 50  1  0
 27 51  1  0
 27 52  1  0
 28 53  1  0
 28 54  1  0
 29 55  1  0
 29 56  1  0
 30 57  1  0
 30 58  1  0
 31 59  1  0
 31 60  1  0
 32 61  1  0
 33 62  1  0
M  END
$$$$
[H]OC(=O)[C@@]([H])(N([H])C(=O)[C@@]([H])(S[H])C([H])(C([H])([H])[H])C([H])([H])[H])C([H])([H])c1c([H])c([H])c([H])c([H])c1[H]
     RDKit          3D

 38 38  0  0  0  0  0  0  0  0999 V2000
    5.3228   -0.1668   -0.7692 C   0  0  0  0  0  0  0  0  0  0  0  0
    4.0382    0.3607   -0.1277 C   0  0  0  0  0  0  0  0  0  0  0  0
    4.3102    0.5167    1.3469 C   0  0  0  0  0  0  0  0  0  0  0  0
    2.9653   -0.6755   -0.3872 C   0  0  2  0  0  0  0  0  0  0  0  0
    2.8329   -0.8169   -2.2121 S   0  0  0  0  0  0  0  0  0  0  0  0
    1.6459   -0.2367    0.0922 C   0  0  0  0  0  0  0  0  0  0  0  0
    1.5792    0.9076    0.6447 O   0  0  0  0  0  0  0  0  0  0  0  0
    0.4653   -0.9852   -0.0160 N   0  0  0  0  0  0  0  0  0  0  0  0
   -0.8259   -0.4778    0.4894 C   0  0  1  0  0  0  0  0  0  0  0  0
   -1.7784   -0.2777   -0.6404 C   0  0  0  0  0  0  0  0  0  0  0  0
   -3.1064    0.2247   -0.2862 C   0  0  0  0  0  0  0  0  0  0  0  0
   -4.1650   -0.6210   -0.0594 C   0  0  0  0  0  0  0  0  0  0  0  0
   -5.4306   -0.1406    0.2761 C   0  0  0  0  0  0  0  0  0  0  0  0
   -5.6239    1.2121    0.3826 C   0  0  0  0  0  0  0  0  0  0  0  0
   -4.5870    2.0834    0.1622 C   0  0  0  0  0  0  0  0  0  0  0  0
   -3.3334    1.5781   -0.1713 C   0  0  0  0  0  0  0  0  0  0  0  0
   -1.3007   -1.3095    1.6026 C   0  0  0  0  0  0  0  0  0  0  0  0
   -2.4340   -1.0840    2.3469 O   0  0  0  0  0  0  0  0  0  0  0  0
   -0.6181   -2.3395    1.9321 O   0  0  0  0  0  0  0  0  0  0  0  0
    5.8707    0.6550   -1.2841 H   0  0  0  0  0  0  0  0  0  0  0  0
    5.9735   -0.6726   -0.0261 H   0  0  0  0  0  0  0  0  0  0  0  0
    5.0985   -0.9263   -1.5537 H   0  0  0  0  0  0  0  0  0  0  0  0
    3.7261    1.3234   -0.5609 H   0  0  0  0  0  0  0  0  0  0  0  0
    5.3916    0.7798    1.4547 H   0  0  0  0  0  0  0  0  0  0  0  0
    3.7527    1.3757    1.7853 H   0  0  0  0  0  0  0  0  0  0  0  0
    4.1663   -0.4259    1.8820 H   0  0  0  0  0  0  0  0  0  0  0  0
    3.3135   -1.6247    0.0545 H   0  0  0  0  0  0  0  0  0  0  0  0
    2.7702    0.5068   -2.6957 H   0  0  0  0  0  0  0  0  0  0  0  0
    0.5183   -1.9231   -0.4688 H   0  0  0  0  0  0  0  0  0  0  0  0
   -0.6185    0.5432    0.9245 H   0  0  0  0  0  0  0  0  0  0  0  0
   -1.9500   -1.3013   -1.0984 H   0  0  0  0  0  0  0  0  0  0  0  0
   -1.3194    0.3499   -1.4622 H   0  0  0  0  0  0  0  0  0  0  0  0
   -4.0753   -1.7027   -0.1284 H   0  0  0  0  0  0  0  0  0  0  0  0
   -6.2725   -0.7974    0.4569 H   0  0  0  0  0  0  0  0  0  0  0  0
   -6.6252    1.5806    0.6480 H   0  0  0  0  0  0  0  0  0  0  0  0
   -4.7883    3.1411    0.2572 H   0  0  0  0  0  0  0  0  0  0  0  0
   -2.5530    2.3069   -0.3340 H   0  0  0  0  0  0  0  0  0  0  0  0
   -2.3355   -0.9406    3.3414 H   0  0  0  0  0  0  0  0  0  0  0  0
  1  2  1  0
  2  3  1  0
  2  4  1  0
  4  5  1  0
  4  6  1  0
  6  7  2  0
  6  8  1  0
  8  9  1  0
  9 10  1  0
 10 11  1  0
 11 12  2  0
 12 13  1  0
 13 14  2  0
 14 15  1  0
 15 16  2  0
  9 17  1  0
 17 18  1  0
 17 19  2  0
 16 11  1  0
  1 20  1  0
  1 21  1  0
  1 22  1  0
  2 23  1  0
  3 24  1  0
  3 25  1  0
  3 26  1  0
  4 27  1  1
  5 28  1  0
  8 29  1  0
  9 30  1  1
 10 31  1  0
 10 32  1  0
 12 33  1  0
 13 34  1  0
 14 35  1  0
 15 36  1  0
 16 37  1  0
 18 38  1  0
M  END
$$$$
[H]OC([H])([H])[C@@]1(O[H])C([H])([H])[C@@]2([H])O[C@]1(C([H])([H])[H])n1c3c([H])c([H])c([H])c([H])c3c3c4c(c5c6c([H])c([H])c([H])c([H])c6n2c5c31)C(=O)N([H])C4([H])[H]
     RDKit          3D

 54 61  0  0  0  0  0  0  0  0999 V2000
    3.1800    0.8838    1.3878 C   0  0  0  0  0  0  0  0  0  0  0  0
    2.1176    0.2237    0.5774 C   0  0  2  0  0  0  0  0  0  0  0  0
    1.6968   -0.7870    1.4854 O   0  0  0  0  0  0  0  0  0  0  0  0
    1.2511   -1.8639    0.7986 C   0  0  2  0  0  0  0  0  0  0  0  0
    2.0328   -1.9517   -0.4419 C   0  0  0  0  0  0  0  0  0  0  0  0
    2.6347   -0.5714   -0.5849 C   0  0  1  0  0  0  0  0  0  0  0  0
    2.2138   -0.0799   -1.8115 O   0  0  0  0  0  0  0  0  0  0  0  0
    4.1191   -0.7109   -0.6110 C   0  0  0  0  0  0  0  0  0  0  0  0
    4.4589   -1.5975   -1.6334 O   0  0  0  0  0  0  0  0  0  0  0  0
   -0.2014   -1.7853    0.5955 N   0  0  0  0  0  0  0  0  0  0  0  0
   -1.1044   -2.7499    0.6347 C   0  0  0  0  0  0  0  0  0  0  0  0
   -0.9179   -4.0868    0.8734 C   0  0  0  0  0  0  0  0  0  0  0  0
   -2.0299   -4.9199    0.8648 C   0  0  0  0  0  0  0  0  0  0  0  0
   -3.2823   -4.4161    0.6235 C   0  0  0  0  0  0  0  0  0  0  0  0
   -3.4758   -3.0511    0.3794 C   0  0  0  0  0  0  0  0  0  0  0  0
   -2.3768   -2.2421    0.3902 C   0  0  0  0  0  0  0  0  0  0  0  0
   -2.2053   -0.8905    0.1945 C   0  0  0  0  0  0  0  0  0  0  0  0
   -3.0670    0.1511   -0.0975 C   0  0  0  0  0  0  0  0  0  0  0  0
   -4.5001    0.2660   -0.2996 C   0  0  0  0  0  0  0  0  0  0  0  0
   -5.3884   -0.5871   -0.2658 O   0  0  0  0  0  0  0  0  0  0  0  0
   -4.7851    1.6416   -0.5724 N   0  0  0  0  0  0  0  0  0  0  0  0
   -3.5735    2.4248   -0.5610 C   0  0  0  0  0  0  0  0  0  0  0  0
   -2.5314    1.4168   -0.2472 C   0  0  0  0  0  0  0  0  0  0  0  0
   -1.1701    1.6669   -0.1133 C   0  0  0  0  0  0  0  0  0  0  0  0
   -0.3770    2.7657   -0.2198 C   0  0  0  0  0  0  0  0  0  0  0  0
   -0.7006    4.0705   -0.5126 C   0  0  0  0  0  0  0  0  0  0  0  0
    0.3203    5.0230   -0.5829 C   0  0  0  0  0  0  0  0  0  0  0  0
    1.6233    4.6180   -0.3553 C   0  0  0  0  0  0  0  0  0  0  0  0
    1.9232    3.2989   -0.0625 C   0  0  0  0  0  0  0  0  0  0  0  0
    0.9354    2.3466    0.0129 C   0  0  0  0  0  0  0  0  0  0  0  0
    0.9590    1.0103    0.2643 N   0  0  0  0  0  0  0  0  0  0  0  0
   -0.3578    0.6223    0.1746 C   0  0  0  0  0  0  0  0  0  0  0  0
   -0.8544   -0.6533    0.3299 C   0  0  0  0  0  0  0  0  0  0  0  0
    4.0624    1.2462    0.8471 H   0  0  0  0  0  0  0  0  0  0  0  0
    3.5596    0.1949    2.1815 H   0  0  0  0  0  0  0  0  0  0  0  0
    2.7312    1.7230    1.9466 H   0  0  0  0  0  0  0  0  0  0  0  0
    1.4219   -2.7643    1.4120 H   0  0  0  0  0  0  0  0  0  0  0  0
    1.4720   -2.2700   -1.3403 H   0  0  0  0  0  0  0  0  0  0  0  0
    2.8377   -2.7359   -0.3258 H   0  0  0  0  0  0  0  0  0  0  0  0
    2.8799   -0.3390   -2.4928 H   0  0  0  0  0  0  0  0  0  0  0  0
    4.5238   -1.1579    0.3296 H   0  0  0  0  0  0  0  0  0  0  0  0
    4.6358    0.2581   -0.8438 H   0  0  0  0  0  0  0  0  0  0  0  0
    4.7979   -2.4633   -1.2908 H   0  0  0  0  0  0  0  0  0  0  0  0
    0.0592   -4.4684    1.0598 H   0  0  0  0  0  0  0  0  0  0  0  0
   -1.8569   -5.9719    1.0560 H   0  0  0  0  0  0  0  0  0  0  0  0
   -4.1224   -5.0759    0.6219 H   0  0  0  0  0  0  0  0  0  0  0  0
   -4.4721   -2.7398    0.2018 H   0  0  0  0  0  0  0  0  0  0  0  0
   -5.7336    2.0654   -0.7610 H   0  0  0  0  0  0  0  0  0  0  0  0
   -3.6366    3.2333    0.1993 H   0  0  0  0  0  0  0  0  0  0  0  0
   -3.3846    2.8954   -1.5673 H   0  0  0  0  0  0  0  0  0  0  0  0
   -1.7294    4.3700   -0.6881 H   0  0  0  0  0  0  0  0  0  0  0  0
    0.0587    6.0490   -0.8135 H   0  0  0  0  0  0  0  0  0  0  0  0
    2.3774    5.3965   -0.4223 H   0  0  0  0  0  0  0  0  0  0  0  0
    2.9510    3.0689    0.0761 H   0  0  0  0  0  0  0  0  0  0  0  0
  2  1  1  1
  2  3  1  0
  3  4  1  0
  4  5  1  0
  5  6  1  0
  6  7  1  6
  6  8  1  0
  8  9  1  0
  4 10  1  0
 10 11  1  0
 11 12  2  0
 12 13  1  0
 13 14  2  0
 14 15  1  0
 15 16  2  0
 16 17  1  0
 17 18  2  0
 18 19  1  0
 19 20  2  0
 19 21  1  0
 21 22  1  0
 22 23  1  0
 23 24  2  0
 24 25  1  0
 25 26  2  0
 26 27  1  0
 27 28  2  0
 28 29  1  0
 29 30  2  0
 30 31  1  0
 31 32  1  0
 32 33  2  0
  6  2  1  0
 33 10  1  0
 31  2  1  0
 16 11  1  0
 33 17  1  0
 23 18  1  0
 32 24  1  0
 30 25  1  0
  1 34  1  0
  1 35  1  0
  1 36  1  0
  4 37  1  1
  5 38  1  0
  5 39  1  0
  7 40  1  0
  8 41  1  0
  8 42  1  0
  9 43  1  0
 12 44  1  0
 13 45  1  0
 14 46  1  0
 15 47  1  0
 21 48  1  0
 22 49  1  0
 22 50  1  0
 26 51  1  0
 27 52  1  0
 28 53  1  0
 29 54  1  0
M  END
$$$$
[H]c1nc(N([H])c2c([H])c(N([H])C(=O)c3c([H])c([H])c(C([H])([H])N4C([H])([H])C([H])([H])N(C([H])([H])[H])C([H])([H])C4([H])[H])c(C(F)(F)F)c3[H])c([H])c([H])c2C([H])([H])[H])nc(-c2c([H])nc([H])c([H])c2[H])c1[H]
     RDKit          3D

 71 75  0  0  0  0  0  0  0  0999 V2000
   -9.9347    0.2361   -1.3530 C   0  0  0  0  0  0  0  0  0  0  0  0
   -8.7315   -0.2431   -2.0052 N   0  0  0  0  0  0  0  0  0  0  0  0
   -8.3643   -1.4998   -1.3435 C   0  0  0  0  0  0  0  0  0  0  0  0
   -7.7519   -1.1751   -0.0144 C   0  0  0  0  0  0  0  0  0  0  0  0
   -6.3847   -0.6145   -0.1490 N   0  0  0  0  0  0  0  0  0  0  0  0
   -5.4582   -1.7716   -0.2410 C   0  0  0  0  0  0  0  0  0  0  0  0
   -4.0923   -1.3053   -0.0157 C   0  0  0  0  0  0  0  0  0  0  0  0
   -3.8574   -0.0110    0.3758 C   0  0  0  0  0  0  0  0  0  0  0  0
   -2.5723    0.4484    0.6525 C   0  0  0  0  0  0  0  0  0  0  0  0
   -1.4841   -0.3764    0.5464 C   0  0  0  0  0  0  0  0  0  0  0  0
   -1.7408   -1.6721    0.1532 C   0  0  0  0  0  0  0  0  0  0  0  0
   -2.9957   -2.1554   -0.1275 C   0  0  0  0  0  0  0  0  0  0  0  0
   -3.2301   -3.5575   -0.5510 C   0  0  0  0  0  0  0  0  0  0  0  0
   -3.7929   -3.6608   -1.8005 F   0  0  0  0  0  0  0  0  0  0  0  0
   -1.9900   -4.1845   -0.5944 F   0  0  0  0  0  0  0  0  0  0  0  0
   -3.9703   -4.2573    0.3945 F   0  0  0  0  0  0  0  0  0  0  0  0
   -0.1205    0.0746    0.8363 C   0  0  0  0  0  0  0  0  0  0  0  0
    0.7874   -0.7156    0.5100 O   0  0  0  0  0  0  0  0  0  0  0  0
    0.1496    1.3030    1.4367 N   0  0  0  0  0  0  0  0  0  0  0  0
    1.3829    1.8862    1.7753 C   0  0  0  0  0  0  0  0  0  0  0  0
    1.3784    2.9682    2.6655 C   0  0  0  0  0  0  0  0  0  0  0  0
    2.5562    3.5802    3.0131 C   0  0  0  0  0  0  0  0  0  0  0  0
    3.7559    3.1427    2.4950 C   0  0  0  0  0  0  0  0  0  0  0  0
    5.0213    3.8036    2.8736 C   0  0  0  0  0  0  0  0  0  0  0  0
    3.8205    2.0721    1.6058 C   0  0  0  0  0  0  0  0  0  0  0  0
    5.0640    1.6812    1.1133 N   0  0  0  0  0  0  0  0  0  0  0  0
    5.4168    0.6392    0.2403 C   0  0  0  0  0  0  0  0  0  0  0  0
    4.5806   -0.2402   -0.3245 N   0  0  0  0  0  0  0  0  0  0  0  0
    4.9838   -1.2125   -1.1507 C   0  0  0  0  0  0  0  0  0  0  0  0
    6.3432   -1.3501   -1.4657 C   0  0  0  0  0  0  0  0  0  0  0  0
    7.2134   -0.4546   -0.8935 C   0  0  0  0  0  0  0  0  0  0  0  0
    6.7169    0.4847   -0.0790 N   0  0  0  0  0  0  0  0  0  0  0  0
    8.6702   -0.5095   -1.1601 C   0  0  0  0  0  0  0  0  0  0  0  0
    9.1974   -1.4582   -1.9850 C   0  0  0  0  0  0  0  0  0  0  0  0
   10.5790   -1.4717   -2.2091 C   0  0  0  0  0  0  0  0  0  0  0  0
   11.4031   -0.5478   -1.6125 C   0  0  0  0  0  0  0  0  0  0  0  0
   10.8420    0.3687   -0.8075 N   0  0  0  0  0  0  0  0  0  0  0  0
    9.5195    0.4071   -0.5731 C   0  0  0  0  0  0  0  0  0  0  0  0
    2.6286    1.4802    1.2763 C   0  0  0  0  0  0  0  0  0  0  0  0
   -6.3661    0.0487   -1.4754 C   0  0  0  0  0  0  0  0  0  0  0  0
   -7.6847    0.7475   -1.7423 C   0  0  0  0  0  0  0  0  0  0  0  0
  -10.8400    0.0820   -1.9782 H   0  0  0  0  0  0  0  0  0  0  0  0
  -10.1219   -0.3026   -0.4045 H   0  0  0  0  0  0  0  0  0  0  0  0
   -9.8649    1.3283   -1.1812 H   0  0  0  0  0  0  0  0  0  0  0  0
   -7.6639   -2.0729   -1.9562 H   0  0  0  0  0  0  0  0  0  0  0  0
   -9.2658   -2.1094   -1.1456 H   0  0  0  0  0  0  0  0  0  0  0  0
   -7.6343   -2.1192    0.5481 H   0  0  0  0  0  0  0  0  0  0  0  0
   -8.3505   -0.4856    0.5888 H   0  0  0  0  0  0  0  0  0  0  0  0
   -5.7781   -2.5230    0.4961 H   0  0  0  0  0  0  0  0  0  0  0  0
   -5.6613   -2.1828   -1.2517 H   0  0  0  0  0  0  0  0  0  0  0  0
   -4.6678    0.6957    0.5168 H   0  0  0  0  0  0  0  0  0  0  0  0
   -2.4771    1.4610    0.9446 H   0  0  0  0  0  0  0  0  0  0  0  0
   -0.9071   -2.3603    0.0566 H   0  0  0  0  0  0  0  0  0  0  0  0
   -0.7059    1.9212    1.6860 H   0  0  0  0  0  0  0  0  0  0  0  0
    0.4539    3.3373    3.0924 H   0  0  0  0  0  0  0  0  0  0  0  0
    2.5407    4.4303    3.7141 H   0  0  0  0  0  0  0  0  0  0  0  0
    5.7606    3.0867    3.2981 H   0  0  0  0  0  0  0  0  0  0  0  0
    4.8047    4.5194    3.6921 H   0  0  0  0  0  0  0  0  0  0  0  0
    5.4494    4.4108    2.0471 H   0  0  0  0  0  0  0  0  0  0  0  0
    5.9212    2.2641    1.4427 H   0  0  0  0  0  0  0  0  0  0  0  0
    4.2947   -1.9013   -1.5878 H   0  0  0  0  0  0  0  0  0  0  0  0
    6.6728   -2.1241   -2.1247 H   0  0  0  0  0  0  0  0  0  0  0  0
    8.6112   -2.2088   -2.4823 H   0  0  0  0  0  0  0  0  0  0  0  0
   11.0325   -2.2048   -2.8536 H   0  0  0  0  0  0  0  0  0  0  0  0
   12.4912   -0.5498   -1.7822 H   0  0  0  0  0  0  0  0  0  0  0  0
    9.0900    1.1545    0.0789 H   0  0  0  0  0  0  0  0  0  0  0  0
    2.6027    0.6574    0.5857 H   0  0  0  0  0  0  0  0  0  0  0  0
   -6.1870   -0.7063   -2.2777 H   0  0  0  0  0  0  0  0  0  0  0  0
   -5.5974    0.8055   -1.4807 H   0  0  0  0  0  0  0  0  0  0  0  0
   -7.5458    1.3496   -2.6604 H   0  0  0  0  0  0  0  0  0  0  0  0
   -7.9450    1.4195   -0.9167 H   0  0  0  0  0  0  0  0  0  0  0  0
  1  2  1  0
  2  3  1  0
  3  4  1  0
  4  5  1  0
  5  6  1  0
  6  7  1  0
  7  8  2  0
  8  9  1  0
  9 10  2  0
 10 11  1  0
 11 12  2  0
 12 13  1  0
 13 14  1  0
 13 15  1  0
 13 16  1  0
 10 17  1  0
 17 18  2  0
 17 19  1  0
 19 20  1  0
 20 21  2  0
 21 22  1  0
 22 23  2  0
 23 24  1  0
 23 25  1  0
 25 26  1  0
 26 27  1  0
 27 28  2  0
 28 29  1  0
 29 30  2  0
 30 31  1  0
 31 32  2  0
 31 33  1  0
 33 34  2  0
 34 35  1  0
 35 36  2  0
 36 37  1  0
 37 38  2  0
 25 39  2  0
  5 40  1  0
 40 41  1  0
 41  2  1  0
 12  7  1  0
 39 20  1  0
 32 27  1  0
 38 33  1  0
  1 42  1  0
  1 43  1  0
  1 44  1  0
  3 45  1  0
  3 46  1  0
  4 47  1  0
  4 48  1  0
  6 49  1  0
  6 50  1  0
  8 51  1  0
  9 52  1  0
 11 53  1  0
 19 54  1  0
 21 55  1  0
 22 56  1  0
 24 57  1  0
 24 58  1  0
 24 59  1  0
 26 60  1  0
 29 61  1  0
 30 62  1  0
 34 63  1  0
 35 64  1  0
 36 65  1  0
 38 66  1  0
 39 67  1  0
 40 68  1  0
 40 69  1  0
 41 70  1  0
 41 71  1  0
M  END
$$$$
[H]/C(=C1/C(=O)N([H])c2c1c([H])c([H])c([H])c2C([H])([H])[H])c1c(C([H])([H])[H])c(C(=O)OC([H])([H])C([H])([H])[H])c(C([H])([H])[H])n1[H]
     RDKit          3D

 44 46  0  0  0  0  0  0  0  0999 V2000
    6.2152    0.8895    2.0504 C   0  0  0  0  0  0  0  0  0  0  0  0
    5.9508   -0.0359    0.8633 C   0  0  0  0  0  0  0  0  0  0  0  0
    4.6203    0.1478    0.4839 O   0  0  0  0  0  0  0  0  0  0  0  0
    3.9711   -0.4960   -0.5530 C   0  0  0  0  0  0  0  0  0  0  0  0
    4.6283   -1.3279   -1.2263 O   0  0  0  0  0  0  0  0  0  0  0  0
    2.5840   -0.2740   -0.9138 C   0  0  0  0  0  0  0  0  0  0  0  0
    2.1181    0.6621   -1.8108 C   0  0  0  0  0  0  0  0  0  0  0  0
    3.0109    1.5961   -2.5467 C   0  0  0  0  0  0  0  0  0  0  0  0
    0.7749    0.5591   -1.8753 N   0  0  0  0  0  0  0  0  0  0  0  0
    0.3297   -0.4117   -1.0528 C   0  0  0  0  0  0  0  0  0  0  0  0
   -0.9895   -0.8965   -0.7428 C   0  0  0  0  0  0  0  0  0  0  0  0
   -1.9397   -0.1302   -0.3036 C   0  0  0  0  0  0  0  0  0  0  0  0
   -1.9279    1.2980   -0.0238 C   0  0  0  0  0  0  0  0  0  0  0  0
   -0.9705    2.0894   -0.1309 O   0  0  0  0  0  0  0  0  0  0  0  0
   -3.2474    1.6431    0.4120 N   0  0  0  0  0  0  0  0  0  0  0  0
   -4.0557    0.4734    0.4063 C   0  0  0  0  0  0  0  0  0  0  0  0
   -5.4005    0.2506    0.7371 C   0  0  0  0  0  0  0  0  0  0  0  0
   -6.1828    1.4456    1.1924 C   0  0  0  0  0  0  0  0  0  0  0  0
   -5.9898   -0.9928    0.6555 C   0  0  0  0  0  0  0  0  0  0  0  0
   -5.2153   -2.0504    0.2305 C   0  0  0  0  0  0  0  0  0  0  0  0
   -3.8919   -1.8624   -0.1013 C   0  0  0  0  0  0  0  0  0  0  0  0
   -3.3202   -0.6087   -0.0127 C   0  0  0  0  0  0  0  0  0  0  0  0
    1.4773   -0.9383   -0.4451 C   0  0  0  0  0  0  0  0  0  0  0  0
    1.4578   -2.0379    0.5418 C   0  0  0  0  0  0  0  0  0  0  0  0
    5.6472    1.8308    1.8347 H   0  0  0  0  0  0  0  0  0  0  0  0
    7.3019    1.1640    2.1097 H   0  0  0  0  0  0  0  0  0  0  0  0
    5.8498    0.4212    2.9861 H   0  0  0  0  0  0  0  0  0  0  0  0
    6.1497   -1.0748    1.2436 H   0  0  0  0  0  0  0  0  0  0  0  0
    6.6904    0.1315    0.0438 H   0  0  0  0  0  0  0  0  0  0  0  0
    3.7761    2.0221   -1.8636 H   0  0  0  0  0  0  0  0  0  0  0  0
    2.4083    2.4441   -2.9470 H   0  0  0  0  0  0  0  0  0  0  0  0
    3.5357    1.0600   -3.3710 H   0  0  0  0  0  0  0  0  0  0  0  0
    0.1755    1.1535   -2.5006 H   0  0  0  0  0  0  0  0  0  0  0  0
   -1.2013   -1.9695   -0.8851 H   0  0  0  0  0  0  0  0  0  0  0  0
   -3.5672    2.5843    0.6869 H   0  0  0  0  0  0  0  0  0  0  0  0
   -6.8476    1.1312    2.0222 H   0  0  0  0  0  0  0  0  0  0  0  0
   -5.5228    2.2709    1.4530 H   0  0  0  0  0  0  0  0  0  0  0  0
   -6.8147    1.7303    0.3126 H   0  0  0  0  0  0  0  0  0  0  0  0
   -7.0336   -1.1019    0.9249 H   0  0  0  0  0  0  0  0  0  0  0  0
   -5.6569   -3.0564    0.1545 H   0  0  0  0  0  0  0  0  0  0  0  0
   -3.2660   -2.6801   -0.4371 H   0  0  0  0  0  0  0  0  0  0  0  0
    2.2203   -2.7944    0.2530 H   0  0  0  0  0  0  0  0  0  0  0  0
    1.6717   -1.7089    1.5754 H   0  0  0  0  0  0  0  0  0  0  0  0
    0.4763   -2.5497    0.5699 H   0  0  0  0  0  0  0  0  0  0  0  0
  1  2  1  0
  2  3  1  0
  3  4  1  0
  4  5  2  0
  4  6  1  0
  6  7  2  0
  7  8  1  0
  7  9  1  0
  9 10  1  0
 10 11  1  0
 11 12  2  0
 12 13  1  0
 13 14  2  0
 13 15  1  0
 15 16  1  0
 16 17  2  0
 17 18  1  0
 17 19  1  0
 19 20  2  0
 20 21  1  0
 21 22  2  0
 10 23  2  0
 23 24  1  0
 23  6  1  0
 22 12  1  0
 22 16  1  0
  1 25  1  0
  1 26  1  0
  1 27  1  0
  2 28  1  0
  2 29  1  0
  8 30  1  0
  8 31  1  0
  8 32  1  0
  9 33  1  0
 11 34  1  0
 15 35  1  0
 18 36  1  0
 18 37  1  0
 18 38  1  0
 19 39  1  0
 20 40  1  0
 21 41  1  0
 24 42  1  0
 24 43  1  0
 24 44  1  0
M  END
$$$$
[H]C1=C2C([H])([H])C([H])([H])[C@@]3([H])[C@]4([H])C([H])([H])C([H])([H])C(=O)[C@@]4(C([H])([H])[H])C([H])([H])C([H])([H])[C@]3([H])[C@]2(C([H])([H])[H])C([H])([H])C([H])([H])C1=O
     RDKit          3D

 47 50  0  0  0  0  0  0  0  0999 V2000
    2.6426    1.3389    1.1245 C   0  0  0  0  0  0  0  0  0  0  0  0
    2.4643    0.8605   -0.2935 C   0  0  2  0  0  0  0  0  0  0  0  0
    1.5532    1.7286   -1.0746 C   0  0  0  0  0  0  0  0  0  0  0  0
    0.1443    1.6144   -0.5690 C   0  0  0  0  0  0  0  0  0  0  0  0
   -0.3559    0.1738   -0.6162 C   0  0  1  0  0  0  0  0  0  0  0  0
    0.5526   -0.6365    0.2741 C   0  0  1  0  0  0  0  0  0  0  0  0
    0.1495   -2.0803    0.3667 C   0  0  0  0  0  0  0  0  0  0  0  0
   -1.2841   -2.3165    0.6560 C   0  0  0  0  0  0  0  0  0  0  0  0
   -2.1708   -1.1557    0.4319 C   0  0  0  0  0  0  0  0  0  0  0  0
   -3.4074   -1.2492    0.9276 C   0  0  0  0  0  0  0  0  0  0  0  0
   -4.3348   -0.1417    0.7439 C   0  0  0  0  0  0  0  0  0  0  0  0
   -5.5540   -0.3642    0.7442 O   0  0  0  0  0  0  0  0  0  0  0  0
   -3.8278    1.2323    0.5592 C   0  0  0  0  0  0  0  0  0  0  0  0
   -2.3061    1.2600    0.5156 C   0  0  0  0  0  0  0  0  0  0  0  0
   -1.8007    0.0639   -0.2816 C   0  0  1  0  0  0  0  0  0  0  0  0
   -2.5812    0.0772   -1.5967 C   0  0  0  0  0  0  0  0  0  0  0  0
    1.8952   -0.5536   -0.3423 C   0  0  2  0  0  0  0  0  0  0  0  0
    2.9761   -1.3658    0.2174 C   0  0  0  0  0  0  0  0  0  0  0  0
    4.2336   -0.7086   -0.3710 C   0  0  0  0  0  0  0  0  0  0  0  0
    3.7871    0.6204   -0.8666 C   0  0  0  0  0  0  0  0  0  0  0  0
    4.4041    1.3572   -1.6025 O   0  0  0  0  0  0  0  0  0  0  0  0
    1.7936    1.8803    1.5359 H   0  0  0  0  0  0  0  0  0  0  0  0
    2.9328    0.5405    1.8205 H   0  0  0  0  0  0  0  0  0  0  0  0
    3.5180    2.0527    1.0998 H   0  0  0  0  0  0  0  0  0  0  0  0
    1.6179    1.5598   -2.1545 H   0  0  0  0  0  0  0  0  0  0  0  0
    1.8550    2.7999   -0.9126 H   0  0  0  0  0  0  0  0  0  0  0  0
    0.0728    2.0179    0.4545 H   0  0  0  0  0  0  0  0  0  0  0  0
   -0.4842    2.2498   -1.2607 H   0  0  0  0  0  0  0  0  0  0  0  0
   -0.1764   -0.1720   -1.6555 H   0  0  0  0  0  0  0  0  0  0  0  0
    0.5931   -0.1479    1.2875 H   0  0  0  0  0  0  0  0  0  0  0  0
    0.7471   -2.5219    1.2095 H   0  0  0  0  0  0  0  0  0  0  0  0
    0.5198   -2.6105   -0.5478 H   0  0  0  0  0  0  0  0  0  0  0  0
   -1.4511   -2.6564    1.7193 H   0  0  0  0  0  0  0  0  0  0  0  0
   -1.6565   -3.1474    0.0213 H   0  0  0  0  0  0  0  0  0  0  0  0
   -3.7436   -2.1313    1.4664 H   0  0  0  0  0  0  0  0  0  0  0  0
   -4.2895    1.6954   -0.3281 H   0  0  0  0  0  0  0  0  0  0  0  0
   -4.1748    1.8411    1.4379 H   0  0  0  0  0  0  0  0  0  0  0  0
   -2.0198    2.2190    0.0802 H   0  0  0  0  0  0  0  0  0  0  0  0
   -1.9607    1.2264    1.5630 H   0  0  0  0  0  0  0  0  0  0  0  0
   -1.8824   -0.1054   -2.4656 H   0  0  0  0  0  0  0  0  0  0  0  0
   -3.0280    1.0687   -1.8009 H   0  0  0  0  0  0  0  0  0  0  0  0
   -3.3137   -0.7502   -1.6517 H   0  0  0  0  0  0  0  0  0  0  0  0
    1.7895   -0.7872   -1.4349 H   0  0  0  0  0  0  0  0  0  0  0  0
    2.8914   -2.4173   -0.1800 H   0  0  0  0  0  0  0  0  0  0  0  0
    3.0257   -1.4514    1.3003 H   0  0  0  0  0  0  0  0  0  0  0  0
    5.0416   -0.6498    0.3711 H   0  0  0  0  0  0  0  0  0  0  0  0
    4.6027   -1.3577   -1.1961 H   0  0  0  0  0  0  0  0  0  0  0  0
  2  1  1  1
  2  3  1  0
  3  4  1  0
  4  5  1  0
  5  6  1  0
  6  7  1  0
  7  8  1  0
  8  9  1  0
  9 10  2  0
 10 11  1  0
 11 12  2  0
 11 13  1  0
 13 14  1  0
 14 15  1  0
 15 16  1  6
  6 17  1  0
 17 18  1  0
 18 19  1  0
 19 20  1  0
 20 21  2  0
 17  2  1  0
 20  2  1  0
 15  5  1  0
 15  9  1  0
  1 22  1  0
  1 23  1  0
  1 24  1  0
  3 25  1  0
  3 26  1  0
  4 27  1  0
  4 28  1  0
  5 29  1  6
  6 30  1  1
  7 31  1  0
  7 32  1  0
  8 33  1  0
  8 34  1  0
 10 35  1  0
 13 36  1  0
 13 37  1  0
 14 38  1  0
 14 39  1  0
 16 40  1  0
 16 41  1  0
 16 42  1  0
 17 43  1  6
 18 44  1  0
 18 45  1  0
 19 46  1  0
 19 47  1  0
M  END
$$$$
[H]c1sc(N2C([H])([H])C([H])([H])[C@@]([H])(N([H])C(=O)c3c([H])c([H])c(F)c([H])c3[H])C2([H])[H])nc1-c1c([H])c([H])c([H])c(Cl)c1[H]
     RDKit          3D

 44 47  0  0  0  0  0  0  0  0999 V2000
   -7.5581    2.9934   -2.6636 F   0  0  0  0  0  0  0  0  0  0  0  0
   -6.5370    2.1204   -2.4194 C   0  0  0  0  0  0  0  0  0  0  0  0
   -6.0038    1.3151   -3.4008 C   0  0  0  0  0  0  0  0  0  0  0  0
   -4.9752    0.4354   -3.1612 C   0  0  0  0  0  0  0  0  0  0  0  0
   -4.4294    0.3269   -1.9003 C   0  0  0  0  0  0  0  0  0  0  0  0
   -4.9435    1.1198   -0.9018 C   0  0  0  0  0  0  0  0  0  0  0  0
   -5.9718    1.9912   -1.1661 C   0  0  0  0  0  0  0  0  0  0  0  0
   -3.3326   -0.6148   -1.6443 C   0  0  0  0  0  0  0  0  0  0  0  0
   -2.9873   -1.3697   -2.5848 O   0  0  0  0  0  0  0  0  0  0  0  0
   -2.6528   -0.7203   -0.4221 N   0  0  0  0  0  0  0  0  0  0  0  0
   -1.5699   -1.6581   -0.1908 C   0  0  2  0  0  0  0  0  0  0  0  0
   -1.7427   -2.4574    1.0816 C   0  0  0  0  0  0  0  0  0  0  0  0
   -0.3277   -2.9062    1.3687 C   0  0  0  0  0  0  0  0  0  0  0  0
    0.4518   -1.7403    1.0136 N   0  0  0  0  0  0  0  0  0  0  0  0
   -0.3329   -0.8301    0.2047 C   0  0  0  0  0  0  0  0  0  0  0  0
    1.8120   -1.5306    1.4118 C   0  0  0  0  0  0  0  0  0  0  0  0
    2.6005   -0.5106    1.1425 N   0  0  0  0  0  0  0  0  0  0  0  0
    3.8174   -0.4921    1.5907 C   0  0  0  0  0  0  0  0  0  0  0  0
    4.2260   -1.5677    2.3421 C   0  0  0  0  0  0  0  0  0  0  0  0
    2.8186   -2.5376    2.3503 S   0  0  0  0  0  0  0  0  0  0  0  0
    4.7387    0.6430    1.3051 C   0  0  0  0  0  0  0  0  0  0  0  0
    4.3458    1.7297    0.5513 C   0  0  0  0  0  0  0  0  0  0  0  0
    5.1619    2.7942    0.2630 C   0  0  0  0  0  0  0  0  0  0  0  0
    6.4600    2.7414    0.7791 C   0  0  0  0  0  0  0  0  0  0  0  0
    6.8993    1.6834    1.5340 C   0  0  0  0  0  0  0  0  0  0  0  0
    8.5340    1.6198    2.1813 Cl  0  0  0  0  0  0  0  0  0  0  0  0
    6.0277    0.6480    1.7852 C   0  0  0  0  0  0  0  0  0  0  0  0
   -6.4302    1.3949   -4.4005 H   0  0  0  0  0  0  0  0  0  0  0  0
   -4.5655   -0.1963   -3.9573 H   0  0  0  0  0  0  0  0  0  0  0  0
   -4.5349    1.0592    0.1076 H   0  0  0  0  0  0  0  0  0  0  0  0
   -6.3971    2.6327   -0.3825 H   0  0  0  0  0  0  0  0  0  0  0  0
   -2.9025   -0.1143    0.3925 H   0  0  0  0  0  0  0  0  0  0  0  0
   -1.3458   -2.2931   -1.0450 H   0  0  0  0  0  0  0  0  0  0  0  0
   -2.3461   -3.3526    0.8154 H   0  0  0  0  0  0  0  0  0  0  0  0
   -2.1828   -1.8727    1.8951 H   0  0  0  0  0  0  0  0  0  0  0  0
   -0.1177   -3.7705    0.6933 H   0  0  0  0  0  0  0  0  0  0  0  0
   -0.2032   -3.1924    2.4297 H   0  0  0  0  0  0  0  0  0  0  0  0
   -0.6712    0.0522    0.7578 H   0  0  0  0  0  0  0  0  0  0  0  0
    0.1753   -0.6083   -0.7461 H   0  0  0  0  0  0  0  0  0  0  0  0
    5.2140   -1.7343    2.8068 H   0  0  0  0  0  0  0  0  0  0  0  0
    3.3184    1.7567    0.1513 H   0  0  0  0  0  0  0  0  0  0  0  0
    4.8795    3.6401   -0.3149 H   0  0  0  0  0  0  0  0  0  0  0  0
    7.1669    3.5476    0.5944 H   0  0  0  0  0  0  0  0  0  0  0  0
    6.4140   -0.1748    2.3896 H   0  0  0  0  0  0  0  0  0  0  0  0
  1  2  1  0
  2  3  2  0
  3  4  1  0
  4  5  2  0
  5  6  1  0
  6  7  2  0
  5  8  1  0
  8  9  2  0
  8 10  1  0
 10 11  1  0
 11 12  1  0
 12 13  1  0
 13 14  1  0
 14 15  1  0
 14 16  1  0
 16 17  2  0
 17 18  1  0
 18 19  2  0
 19 20  1  0
 18 21  1  0
 21 22  2  0
 22 23  1  0
 23 24  2  0
 24 25  1  0
 25 26  1  0
 25 27  2  0
  7  2  1  0
 15 11  1  0
 20 16  1  0
 27 21  1  0
  3 28  1  0
  4 29  1  0
  6 30  1  0
  7 31  1  0
 10 32  1  0
 11 33  1  6
 12 34  1  0
 12 35  1  0
 13 36  1  0
 13 37  1  0
 15 38  1  0
 15 39  1  0
 19 40  1  0
 22 41  1  0
 23 42  1  0
 24 43  1  0
 27 44  1  0
M  END
$$$$
