[H]c1c([H])c([H])c2c(c1[H])c1c3c(c4c5c([H])c([H])c([H])c([H])c5n5c4c1n2[C@@]1([H])O[C@]5(C([H])([H])[H])[C@@]([H])(OC([H])([H])[H])[C@@]([H])(N([H])C([H])([H])[H])C1([H])[H])C([H])([H])N([H])C3=O
     RDKit          3D

 61 68  0  0  0  0  0  0  0  0999 V2000
   -2.5900    1.1246    2.6909 C   0  0  0  0  0  0  0  0  0  0  0  0
   -2.2701    0.1494    1.6691 N   0  0  0  0  0  0  0  0  0  0  0  0
   -2.7037    0.7256    0.3894 C   0  0  1  0  0  0  0  0  0  0  0  0
   -1.9693    1.9591    0.0600 C   0  0  0  0  0  0  0  0  0  0  0  0
   -1.0374    1.8542   -1.1025 C   0  0  2  0  0  0  0  0  0  0  0  0
   -1.1108    0.8211   -1.8978 O   0  0  0  0  0  0  0  0  0  0  0  0
   -1.4719   -0.4453   -1.4993 C   0  0  2  0  0  0  0  0  0  0  0  0
   -1.8587   -1.0747   -2.8537 C   0  0  0  0  0  0  0  0  0  0  0  0
   -2.6627   -0.3659   -0.6565 C   0  0  1  0  0  0  0  0  0  0  0  0
   -3.0555   -1.5061    0.0270 O   0  0  0  0  0  0  0  0  0  0  0  0
   -4.3079   -1.9695   -0.2639 C   0  0  0  0  0  0  0  0  0  0  0  0
   -0.3020   -1.1026   -0.9411 N   0  0  0  0  0  0  0  0  0  0  0  0
   -0.0368   -2.4107   -0.8661 C   0  0  0  0  0  0  0  0  0  0  0  0
   -0.7505   -3.5118   -1.2342 C   0  0  0  0  0  0  0  0  0  0  0  0
   -0.2313   -4.7829   -1.0386 C   0  0  0  0  0  0  0  0  0  0  0  0
    1.0025   -5.0019   -0.4761 C   0  0  0  0  0  0  0  0  0  0  0  0
    1.7444   -3.8826   -0.0939 C   0  0  0  0  0  0  0  0  0  0  0  0
    1.2038   -2.6348   -0.3003 C   0  0  0  0  0  0  0  0  0  0  0  0
    1.7282   -1.3877   -0.0109 C   0  0  0  0  0  0  0  0  0  0  0  0
    2.9250   -0.9637    0.5498 C   0  0  0  0  0  0  0  0  0  0  0  0
    4.0703   -1.7821    1.0519 C   0  0  0  0  0  0  0  0  0  0  0  0
    5.0490   -0.8360    1.5052 N   0  0  0  0  0  0  0  0  0  0  0  0
    4.5511    0.4878    1.3292 C   0  0  0  0  0  0  0  0  0  0  0  0
    5.2116    1.4752    1.6612 O   0  0  0  0  0  0  0  0  0  0  0  0
    3.2325    0.3685    0.7340 C   0  0  0  0  0  0  0  0  0  0  0  0
    2.2736    1.2731    0.3281 C   0  0  0  0  0  0  0  0  0  0  0  0
    2.1943    2.6494    0.3519 C   0  0  0  0  0  0  0  0  0  0  0  0
    3.0346    3.6410    0.7719 C   0  0  0  0  0  0  0  0  0  0  0  0
    2.6237    4.9672    0.6424 C   0  0  0  0  0  0  0  0  0  0  0  0
    1.4040    5.3207    0.1079 C   0  0  0  0  0  0  0  0  0  0  0  0
    0.5569    4.3176   -0.3154 C   0  0  0  0  0  0  0  0  0  0  0  0
    0.9564    3.0255   -0.1896 C   0  0  0  0  0  0  0  0  0  0  0  0
    0.3179    1.9031   -0.5262 N   0  0  0  0  0  0  0  0  0  0  0  0
    1.0813    0.8475   -0.2300 C   0  0  0  0  0  0  0  0  0  0  0  0
    0.8029   -0.4946   -0.4048 C   0  0  0  0  0  0  0  0  0  0  0  0
   -1.7275    1.7656    2.9459 H   0  0  0  0  0  0  0  0  0  0  0  0
   -3.4000    1.7830    2.2910 H   0  0  0  0  0  0  0  0  0  0  0  0
   -3.0290    0.6437    3.5924 H   0  0  0  0  0  0  0  0  0  0  0  0
   -2.7602   -0.7186    1.9035 H   0  0  0  0  0  0  0  0  0  0  0  0
   -3.7998    0.9480    0.5957 H   0  0  0  0  0  0  0  0  0  0  0  0
   -1.4594    2.3204    1.0029 H   0  0  0  0  0  0  0  0  0  0  0  0
   -2.7065    2.7776   -0.1658 H   0  0  0  0  0  0  0  0  0  0  0  0
   -1.0912    2.7965   -1.7221 H   0  0  0  0  0  0  0  0  0  0  0  0
   -2.0056   -0.3257   -3.6573 H   0  0  0  0  0  0  0  0  0  0  0  0
   -1.0068   -1.6950   -3.1940 H   0  0  0  0  0  0  0  0  0  0  0  0
   -2.8277   -1.6039   -2.8044 H   0  0  0  0  0  0  0  0  0  0  0  0
   -3.5358   -0.1252   -1.3381 H   0  0  0  0  0  0  0  0  0  0  0  0
   -4.4650   -2.8889    0.3782 H   0  0  0  0  0  0  0  0  0  0  0  0
   -4.4865   -2.3125   -1.2897 H   0  0  0  0  0  0  0  0  0  0  0  0
   -5.1216   -1.2643    0.0633 H   0  0  0  0  0  0  0  0  0  0  0  0
   -1.7208   -3.3825   -1.6725 H   0  0  0  0  0  0  0  0  0  0  0  0
   -0.8491   -5.6109   -1.3524 H   0  0  0  0  0  0  0  0  0  0  0  0
    1.4213   -5.9802   -0.3168 H   0  0  0  0  0  0  0  0  0  0  0  0
    2.7206   -4.0420    0.3513 H   0  0  0  0  0  0  0  0  0  0  0  0
    3.7648   -2.4865    1.8473 H   0  0  0  0  0  0  0  0  0  0  0  0
    4.5351   -2.3717    0.2322 H   0  0  0  0  0  0  0  0  0  0  0  0
    5.9960   -1.0989    1.9084 H   0  0  0  0  0  0  0  0  0  0  0  0
    3.9823    3.4684    1.1903 H   0  0  0  0  0  0  0  0  0  0  0  0
    3.2909    5.7541    0.9750 H   0  0  0  0  0  0  0  0  0  0  0  0
    1.0902    6.3566    0.0099 H   0  0  0  0  0  0  0  0  0  0  0  0
   -0.4140    4.5350   -0.7434 H   0  0  0  0  0  0  0  0  0  0  0  0
  1  2  1  0
  2  3  1  0
  3  4  1  0
  4  5  1  0
  5  6  1  0
  6  7  1  0
  7  8  1  6
  7  9  1  0
  9 10  1  0
 10 11  1  0
  7 12  1  0
 12 13  1  0
 13 14  2  0
 14 15  1  0
 15 16  2  0
 16 17  1  0
 17 18  2  0
 18 19  1  0
 19 20  2  0
 20 21  1  0
 21 22  1  0
 22 23  1  0
 23 24  2  0
 23 25  1  0
 25 26  2  0
 26 27  1  0
 27 28  2  0
 28 29  1  0
 29 30  2  0
 30 31  1  0
 31 32  2  0
 32 33  1  0
 33 34  1  0
 34 35  2  0
  9  3  1  0
 35 12  1  0
 33  5  1  0
 18 13  1  0
 35 19  1  0
 25 20  1  0
 34 26  1  0
 32 27  1  0
  1 36  1  0
  1 37  1  0
  1 38  1  0
  2 39  1  0
  3 40  1  1
  4 41  1  0
  4 42  1  0
  5 43  1  6
  8 44  1  0
  8 45  1  0
  8 46  1  0
  9 47  1  6
 11 48  1  0
 11 49  1  0
 11 50  1  0
 14 51  1  0
 15 52  1  0
 16 53  1  0
 17 54  1  0
 21 55  1  0
 21 56  1  0
 22 57  1  0
 28 58  1  0
 29 59  1  0
 30 60  1  0
 31 61  1  0
M  END
$$$$
[H]OC([H])([H])[C@@]1(O[H])C([H])([H])[C@@]2([H])O[C@]1(C([H])([H])[H])n1c3c([H])c([H])c([H])c([H])c3c3c4c(c5c6c([H])c([H])c([H])c([H])c6n2c5c31)C(=O)N([H])C4([H])[H]
     RDKit          3D

 54 61  0  0  0  0  0  0  0  0999 V2000
    3.1800    0.8838    1.3878 C   0  0  0  0  0  0  0  0  0  0  0  0
    2.1176    0.2237    0.5774 C   0  0  2  0  0  0  0  0  0  0  0  0
    1.6968   -0.7870    1.4854 O   0  0  0  0  0  0  0  0  0  0  0  0
    1.2511   -1.8639    0.7986 C   0  0  2  0  0  0  0  0  0  0  0  0
    2.0328   -1.9517   -0.4419 C   0  0  0  0  0  0  0  0  0  0  0  0
    2.6347   -0.5714   -0.5849 C   0  0  1  0  0  0  0  0  0  0  0  0
    2.2138   -0.0799   -1.8115 O   0  0  0  0  0  0  0  0  0  0  0  0
    4.1191   -0.7109   -0.6110 C   0  0  0  0  0  0  0  0  0  0  0  0
    4.4589   -1.5975   -1.6334 O   0  0  0  0  0  0  0  0  0  0  0  0
   -0.2014   -1.7853    0.5955 N   0  0  0  0  0  0  0  0  0  0  0  0
   -1.1044   -2.7499    0.6347 C   0  0  0  0  0  0  0  0  0  0  0  0
   -0.9179   -4.0868    0.8734 C   0  0  0  0  0  0  0  0  0  0  0  0
   -2.0299   -4.9199    0.8648 C   0  0  0  0  0  0  0  0  0  0  0  0
   -3.2823   -4.4161    0.6235 C   0  0  0  0  0  0  0  0  0  0  0  0
   -3.4758   -3.0511    0.3794 C   0  0  0  0  0  0  0  0  0  0  0  0
   -2.3768   -2.2421    0.3902 C   0  0  0  0  0  0  0  0  0  0  0  0
   -2.2053   -0.8905    0.1945 C   0  0  0  0  0  0  0  0  0  0  0  0
   -3.0670    0.1511   -0.0975 C   0  0  0  0  0  0  0  0  0  0  0  0
   -4.5001    0.2660   -0.2996 C   0  0  0  0  0  0  0  0  0  0  0  0
   -5.3884   -0.5871   -0.2658 O   0  0  0  0  0  0  0  0  0  0  0  0
   -4.7851    1.6416   -0.5724 N   0  0  0  0  0  0  0  0  0  0  0  0
   -3.5735    2.4248   -0.5610 C   0  0  0  0  0  0  0  0  0  0  0  0
   -2.5314    1.4168   -0.2472 C   0  0  0  0  0  0  0  0  0  0  0  0
   -1.1701    1.6669   -0.1133 C   0  0  0  0  0  0  0  0  0  0  0  0
   -0.3770    2.7657   -0.2198 C   0  0  0  0  0  0  0  0  0  0  0  0
   -0.7006    4.0705   -0.5126 C   0  0  0  0  0  0  0  0  0  0  0  0
    0.3203    5.0230   -0.5829 C   0  0  0  0  0  0  0  0  0  0  0  0
    1.6233    4.6180   -0.3553 C   0  0  0  0  0  0  0  0  0  0  0  0
    1.9232    3.2989   -0.0625 C   0  0  0  0  0  0  0  0  0  0  0  0
    0.9354    2.3466    0.0129 C   0  0  0  0  0  0  0  0  0  0  0  0
    0.9590    1.0103    0.2643 N   0  0  0  0  0  0  0  0  0  0  0  0
   -0.3578    0.6223    0.1746 C   0  0  0  0  0  0  0  0  0  0  0  0
   -0.8544   -0.6533    0.3299 C   0  0  0  0  0  0  0  0  0  0  0  0
    4.0624    1.2462    0.8471 H   0  0  0  0  0  0  0  0  0  0  0  0
    3.5596    0.1949    2.1815 H   0  0  0  0  0  0  0  0  0  0  0  0
    2.7312    1.7230    1.9466 H   0  0  0  0  0  0  0  0  0  0  0  0
    1.4219   -2.7643    1.4120 H   0  0  0  0  0  0  0  0  0  0  0  0
    1.4720   -2.2700   -1.3403 H   0  0  0  0  0  0  0  0  0  0  0  0
    2.8377   -2.7359   -0.3258 H   0  0  0  0  0  0  0  0  0  0  0  0
    2.8799   -0.3390   -2.4928 H   0  0  0  0  0  0  0  0  0  0  0  0
    4.5238   -1.1579    0.3296 H   0  0  0  0  0  0  0  0  0  0  0  0
    4.6358    0.2581   -0.8438 H   0  0  0  0  0  0  0  0  0  0  0  0
    4.7979   -2.4633   -1.2908 H   0  0  0  0  0  0  0  0  0  0  0  0
    0.0592   -4.4684    1.0598 H   0  0  0  0  0  0  0  0  0  0  0  0
   -1.8569   -5.9719    1.0560 H   0  0  0  0  0  0  0  0  0  0  0  0
   -4.1224   -5.0759    0.6219 H   0  0  0  0  0  0  0  0  0  0  0  0
   -4.4721   -2.7398    0.2018 H   0  0  0  0  0  0  0  0  0  0  0  0
   -5.7336    2.0654   -0.7610 H   0  0  0  0  0  0  0  0  0  0  0  0
   -3.6366    3.2333    0.1993 H   0  0  0  0  0  0  0  0  0  0  0  0
   -3.3846    2.8954   -1.5673 H   0  0  0  0  0  0  0  0  0  0  0  0
   -1.7294    4.3700   -0.6881 H   0  0  0  0  0  0  0  0  0  0  0  0
    0.0587    6.0490   -0.8135 H   0  0  0  0  0  0  0  0  0  0  0  0
    2.3774    5.3965   -0.4223 H   0  0  0  0  0  0  0  0  0  0  0  0
    2.9510    3.0689    0.0761 H   0  0  0  0  0  0  0  0  0  0  0  0
  2  1  1  1
  2  3  1  0
  3  4  1  0
  4  5  1  0
  5  6  1  0
  6  7  1  6
  6  8  1  0
  8  9  1  0
  4 10  1  0
 10 11  1  0
 11 12  2  0
 12 13  1  0
 13 14  2  0
 14 15  1  0
 15 16  2  0
 16 17  1  0
 17 18  2  0
 18 19  1  0
 19 20  2  0
 19 21  1  0
 21 22  1  0
 22 23  1  0
 23 24  2  0
 24 25  1  0
 25 26  2  0
 26 27  1  0
 27 28  2  0
 28 29  1  0
 29 30  2  0
 30 31  1  0
 31 32  1  0
 32 33  2  0
  6  2  1  0
 33 10  1  0
 31  2  1  0
 16 11  1  0
 33 17  1  0
 23 18  1  0
 32 24  1  0
 30 25  1  0
  1 34  1  0
  1 35  1  0
  1 36  1  0
  4 37  1  1
  5 38  1  0
  5 39  1  0
  7 40  1  0
  8 41  1  0
  8 42  1  0
  9 43  1  0
 12 44  1  0
 13 45  1  0
 14 46  1  0
 15 47  1  0
 21 48  1  0
 22 49  1  0
 22 50  1  0
 26 51  1  0
 27 52  1  0
 28 53  1  0
 29 54  1  0
M  END
$$$$
[H]c1c([H])c([H])c2c(c1[H])c1c3c(c4c5c([H])c([H])c([H])c([H])c5n5c4c1n2[C@]1([H])O[C@]5(C([H])([H])[H])[C@@]([H])(OC([H])([H])[H])[C@@]([H])(N([H])C([H])([H])[H])C1([H])[H])C([H])([H])N([H])C3=O
     RDKit          3D

 61 68  0  0  0  0  0  0  0  0999 V2000
   -4.7214    2.4097    0.5983 C   0  0  0  0  0  0  0  0  0  0  0  0
   -3.9822    1.1848    0.6324 N   0  0  0  0  0  0  0  0  0  0  0  0
   -3.1808    0.9438   -0.5514 C   0  0  1  0  0  0  0  0  0  0  0  0
   -2.1287    2.1030   -0.6160 C   0  0  0  0  0  0  0  0  0  0  0  0
   -0.9471    1.4134   -0.5220 C   0  0  1  0  0  0  0  0  0  0  0  0
   -0.9638    0.5601   -1.6162 O   0  0  0  0  0  0  0  0  0  0  0  0
   -1.3378   -0.7198   -1.0906 C   0  0  2  0  0  0  0  0  0  0  0  0
   -1.6688   -1.4664   -2.4309 C   0  0  0  0  0  0  0  0  0  0  0  0
   -2.5304   -0.4438   -0.3258 C   0  0  1  0  0  0  0  0  0  0  0  0
   -2.6388   -0.8827    0.9764 O   0  0  0  0  0  0  0  0  0  0  0  0
   -3.5794   -1.8389    1.2299 C   0  0  0  0  0  0  0  0  0  0  0  0
   -0.1297   -1.2831   -0.5475 N   0  0  0  0  0  0  0  0  0  0  0  0
    0.1543   -2.6040   -0.4727 C   0  0  0  0  0  0  0  0  0  0  0  0
   -0.5674   -3.7659   -0.7148 C   0  0  0  0  0  0  0  0  0  0  0  0
    0.0003   -5.0248   -0.5414 C   0  0  0  0  0  0  0  0  0  0  0  0
    1.3049   -5.1599   -0.1206 C   0  0  0  0  0  0  0  0  0  0  0  0
    2.0493   -4.0271    0.1293 C   0  0  0  0  0  0  0  0  0  0  0  0
    1.4590   -2.8076   -0.0520 C   0  0  0  0  0  0  0  0  0  0  0  0
    1.9904   -1.5692    0.1419 C   0  0  0  0  0  0  0  0  0  0  0  0
    3.2344   -1.0437    0.5170 C   0  0  0  0  0  0  0  0  0  0  0  0
    4.4559   -1.7835    0.8800 C   0  0  0  0  0  0  0  0  0  0  0  0
    5.4345   -0.7771    1.2024 N   0  0  0  0  0  0  0  0  0  0  0  0
    4.8582    0.5339    1.0195 C   0  0  0  0  0  0  0  0  0  0  0  0
    5.5482    1.5411    1.2321 O   0  0  0  0  0  0  0  0  0  0  0  0
    3.4942    0.3130    0.5954 C   0  0  0  0  0  0  0  0  0  0  0  0
    2.4992    1.2349    0.2990 C   0  0  0  0  0  0  0  0  0  0  0  0
    2.3596    2.5925    0.3108 C   0  0  0  0  0  0  0  0  0  0  0  0
    3.2065    3.6185    0.5806 C   0  0  0  0  0  0  0  0  0  0  0  0
    2.7033    4.9291    0.4896 C   0  0  0  0  0  0  0  0  0  0  0  0
    1.3946    5.1670    0.1386 C   0  0  0  0  0  0  0  0  0  0  0  0
    0.5300    4.1103   -0.1373 C   0  0  0  0  0  0  0  0  0  0  0  0
    1.0459    2.8409   -0.0415 C   0  0  0  0  0  0  0  0  0  0  0  0
    0.3968    1.7103   -0.2639 N   0  0  0  0  0  0  0  0  0  0  0  0
    1.2898    0.7040   -0.0649 C   0  0  0  0  0  0  0  0  0  0  0  0
    1.0348   -0.6769   -0.1506 C   0  0  0  0  0  0  0  0  0  0  0  0
   -4.1718    3.2170    1.1277 H   0  0  0  0  0  0  0  0  0  0  0  0
   -4.9729    2.6635   -0.4314 H   0  0  0  0  0  0  0  0  0  0  0  0
   -5.6660    2.2404    1.1684 H   0  0  0  0  0  0  0  0  0  0  0  0
   -3.5211    0.9595    1.5171 H   0  0  0  0  0  0  0  0  0  0  0  0
   -3.8406    0.9718   -1.4128 H   0  0  0  0  0  0  0  0  0  0  0  0
   -2.3613    2.6480   -1.5550 H   0  0  0  0  0  0  0  0  0  0  0  0
   -2.3259    2.8337    0.2023 H   0  0  0  0  0  0  0  0  0  0  0  0
   -1.1567    0.8348    0.4905 H   0  0  0  0  0  0  0  0  0  0  0  0
   -1.8666   -0.7570   -3.2417 H   0  0  0  0  0  0  0  0  0  0  0  0
   -0.8467   -2.0981   -2.7423 H   0  0  0  0  0  0  0  0  0  0  0  0
   -2.6367   -1.9690   -2.2345 H   0  0  0  0  0  0  0  0  0  0  0  0
   -3.3459   -1.0936   -0.8266 H   0  0  0  0  0  0  0  0  0  0  0  0
   -3.5387   -2.0794    2.3110 H   0  0  0  0  0  0  0  0  0  0  0  0
   -3.3830   -2.8163    0.6973 H   0  0  0  0  0  0  0  0  0  0  0  0
   -4.6203   -1.5293    1.0081 H   0  0  0  0  0  0  0  0  0  0  0  0
   -1.5742   -3.6918   -1.0322 H   0  0  0  0  0  0  0  0  0  0  0  0
   -0.6332   -5.8901   -0.7533 H   0  0  0  0  0  0  0  0  0  0  0  0
    1.6909   -6.1578   -0.0050 H   0  0  0  0  0  0  0  0  0  0  0  0
    3.0778   -4.1234    0.4614 H   0  0  0  0  0  0  0  0  0  0  0  0
    4.2970   -2.4098    1.7823 H   0  0  0  0  0  0  0  0  0  0  0  0
    4.7645   -2.4091    0.0144 H   0  0  0  0  0  0  0  0  0  0  0  0
    6.4012   -1.0207    1.5162 H   0  0  0  0  0  0  0  0  0  0  0  0
    4.2259    3.4694    0.8539 H   0  0  0  0  0  0  0  0  0  0  0  0
    3.4090    5.7212    0.7122 H   0  0  0  0  0  0  0  0  0  0  0  0
    1.0230    6.1798    0.0722 H   0  0  0  0  0  0  0  0  0  0  0  0
   -0.4958    4.2706   -0.4133 H   0  0  0  0  0  0  0  0  0  0  0  0
  1  2  1  0
  2  3  1  0
  3  4  1  0
  4  5  1  0
  5  6  1  0
  6  7  1  0
  7  8  1  6
  7  9  1  0
  9 10  1  0
 10 11  1  0
  7 12  1  0
 12 13  1  0
 13 14  2  0
 14 15  1  0
 15 16  2  0
 16 17  1  0
 17 18  2  0
 18 19  1  0
 19 20  2  0
 20 21  1  0
 21 22  1  0
 22 23  1  0
 23 24  2  0
 23 25  1  0
 25 26  2  0
 26 27  1  0
 27 28  2  0
 28 29  1  0
 29 30  2  0
 30 31  1  0
 31 32  2  0
 32 33  1  0
 33 34  1  0
 34 35  2  0
  9  3  1  0
 35 12  1  0
 33  5  1  0
 18 13  1  0
 35 19  1  0
 25 20  1  0
 34 26  1  0
 32 27  1  0
  1 36  1  0
  1 37  1  0
  1 38  1  0
  2 39  1  0
  3 40  1  6
  4 41  1  0
  4 42  1  0
  5 43  1  1
  8 44  1  0
  8 45  1  0
  8 46  1  0
  9 47  1  6
 11 48  1  0
 11 49  1  0
 11 50  1  0
 14 51  1  0
 15 52  1  0
 16 53  1  0
 17 54  1  0
 21 55  1  0
 21 56  1  0
 22 57  1  0
 28 58  1  0
 29 59  1  0
 30 60  1  0
 31 61  1  0
M  END
$$$$
[H]c1c([H])c([H])c2c(c1[H])c1c3c(c4c5c([H])c([H])c([H])c([H])c5n5c4c1n2[C@]1([H])O[C@]5(C([H])([H])[H])[C@]([H])(OC([H])([H])[H])[C@@]([H])(N([H])C([H])([H])[H])C1([H])[H])C([H])([H])N([H])C3=O
     RDKit          3D

 61 68  0  0  0  0  0  0  0  0999 V2000
   -4.6729    2.4704    0.6701 C   0  0  0  0  0  0  0  0  0  0  0  0
   -3.9561    1.2431    0.7989 N   0  0  0  0  0  0  0  0  0  0  0  0
   -3.1827    0.9142   -0.3838 C   0  0  1  0  0  0  0  0  0  0  0  0
   -2.1402    2.0723   -0.5185 C   0  0  0  0  0  0  0  0  0  0  0  0
   -0.9578    1.3809   -0.4239 C   0  0  1  0  0  0  0  0  0  0  0  0
   -1.0012    0.5004   -1.5008 O   0  0  0  0  0  0  0  0  0  0  0  0
   -1.3700   -0.7676   -0.9505 C   0  0  2  0  0  0  0  0  0  0  0  0
   -1.7787   -1.5242   -2.2382 C   0  0  0  0  0  0  0  0  0  0  0  0
   -2.4988   -0.4528   -0.0976 C   0  0  2  0  0  0  0  0  0  0  0  0
   -3.5516   -1.3395   -0.4711 O   0  0  0  0  0  0  0  0  0  0  0  0
   -4.0462   -2.0650    0.5660 C   0  0  0  0  0  0  0  0  0  0  0  0
   -0.1182   -1.2988   -0.4529 N   0  0  0  0  0  0  0  0  0  0  0  0
    0.2026   -2.6147   -0.3684 C   0  0  0  0  0  0  0  0  0  0  0  0
   -0.5266   -3.7517   -0.5683 C   0  0  0  0  0  0  0  0  0  0  0  0
    0.0524   -5.0036   -0.4051 C   0  0  0  0  0  0  0  0  0  0  0  0
    1.3926   -5.1477   -0.0325 C   0  0  0  0  0  0  0  0  0  0  0  0
    2.1371   -4.0052    0.1725 C   0  0  0  0  0  0  0  0  0  0  0  0
    1.5289   -2.7803    0.0012 C   0  0  0  0  0  0  0  0  0  0  0  0
    2.0485   -1.5465    0.1558 C   0  0  0  0  0  0  0  0  0  0  0  0
    3.3025   -1.0014    0.4712 C   0  0  0  0  0  0  0  0  0  0  0  0
    4.5400   -1.7303    0.7940 C   0  0  0  0  0  0  0  0  0  0  0  0
    5.5206   -0.7063    1.0489 N   0  0  0  0  0  0  0  0  0  0  0  0
    4.9204    0.5944    0.8755 C   0  0  0  0  0  0  0  0  0  0  0  0
    5.6103    1.6121    1.0433 O   0  0  0  0  0  0  0  0  0  0  0  0
    3.5413    0.3604    0.5176 C   0  0  0  0  0  0  0  0  0  0  0  0
    2.5227    1.2647    0.2507 C   0  0  0  0  0  0  0  0  0  0  0  0
    2.3682    2.6229    0.2472 C   0  0  0  0  0  0  0  0  0  0  0  0
    3.2205    3.6549    0.4650 C   0  0  0  0  0  0  0  0  0  0  0  0
    2.7083    4.9621    0.3758 C   0  0  0  0  0  0  0  0  0  0  0  0
    1.3816    5.1770    0.0757 C   0  0  0  0  0  0  0  0  0  0  0  0
    0.5187    4.1120   -0.1455 C   0  0  0  0  0  0  0  0  0  0  0  0
    1.0401    2.8494   -0.0530 C   0  0  0  0  0  0  0  0  0  0  0  0
    0.3949    1.7020   -0.2301 N   0  0  0  0  0  0  0  0  0  0  0  0
    1.3072    0.7097   -0.0536 C   0  0  0  0  0  0  0  0  0  0  0  0
    1.0653   -0.6739   -0.1093 C   0  0  0  0  0  0  0  0  0  0  0  0
   -4.1378    3.2896    1.1811 H   0  0  0  0  0  0  0  0  0  0  0  0
   -4.9117    2.6802   -0.3866 H   0  0  0  0  0  0  0  0  0  0  0  0
   -5.6527    2.3385    1.2050 H   0  0  0  0  0  0  0  0  0  0  0  0
   -3.2976    1.2798    1.6344 H   0  0  0  0  0  0  0  0  0  0  0  0
   -3.8488    0.8666   -1.2338 H   0  0  0  0  0  0  0  0  0  0  0  0
   -2.3900    2.5503   -1.5008 H   0  0  0  0  0  0  0  0  0  0  0  0
   -2.3278    2.8494    0.2401 H   0  0  0  0  0  0  0  0  0  0  0  0
   -1.1232    0.8155    0.6063 H   0  0  0  0  0  0  0  0  0  0  0  0
   -2.0290   -0.8100   -3.0632 H   0  0  0  0  0  0  0  0  0  0  0  0
   -0.9380   -2.1222   -2.6367 H   0  0  0  0  0  0  0  0  0  0  0  0
   -2.6973   -2.1123   -2.1005 H   0  0  0  0  0  0  0  0  0  0  0  0
   -2.3910   -0.6283    0.9834 H   0  0  0  0  0  0  0  0  0  0  0  0
   -3.2245   -2.6856    1.0089 H   0  0  0  0  0  0  0  0  0  0  0  0
   -4.7508   -2.8108    0.1278 H   0  0  0  0  0  0  0  0  0  0  0  0
   -4.5876   -1.5274    1.3339 H   0  0  0  0  0  0  0  0  0  0  0  0
   -1.5381   -3.7221   -0.8394 H   0  0  0  0  0  0  0  0  0  0  0  0
   -0.5262   -5.8823   -0.5635 H   0  0  0  0  0  0  0  0  0  0  0  0
    1.8193   -6.1363    0.0880 H   0  0  0  0  0  0  0  0  0  0  0  0
    3.1750   -4.0914    0.4618 H   0  0  0  0  0  0  0  0  0  0  0  0
    4.3470   -2.2880    1.7377 H   0  0  0  0  0  0  0  0  0  0  0  0
    4.8560   -2.4302   -0.0043 H   0  0  0  0  0  0  0  0  0  0  0  0
    6.5043   -0.9356    1.3160 H   0  0  0  0  0  0  0  0  0  0  0  0
    4.2542    3.5201    0.6968 H   0  0  0  0  0  0  0  0  0  0  0  0
    3.4136    5.7638    0.5555 H   0  0  0  0  0  0  0  0  0  0  0  0
    0.9998    6.1818    0.0099 H   0  0  0  0  0  0  0  0  0  0  0  0
   -0.5210    4.2535   -0.3844 H   0  0  0  0  0  0  0  0  0  0  0  0
  1  2  1  0
  2  3  1  0
  3  4  1  0
  4  5  1  0
  5  6  1  0
  6  7  1  0
  7  8  1  6
  7  9  1  0
  9 10  1  0
 10 11  1  0
  7 12  1  0
 12 13  1  0
 13 14  2  0
 14 15  1  0
 15 16  2  0
 16 17  1  0
 17 18  2  0
 18 19  1  0
 19 20  2  0
 20 21  1  0
 21 22  1  0
 22 23  1  0
 23 24  2  0
 23 25  1  0
 25 26  2  0
 26 27  1  0
 27 28  2  0
 28 29  1  0
 29 30  2  0
 30 31  1  0
 31 32  2  0
 32 33  1  0
 33 34  1  0
 34 35  2  0
  9  3  1  0
 35 12  1  0
 33  5  1  0
 18 13  1  0
 35 19  1  0
 25 20  1  0
 34 26  1  0
 32 27  1  0
  1 36  1  0
  1 37  1  0
  1 38  1  0
  2 39  1  0
  3 40  1  6
  4 41  1  0
  4 42  1  0
  5 43  1  1
  8 44  1  0
  8 45  1  0
  8 46  1  0
  9 47  1  1
 11 48  1  0
 11 49  1  0
 11 50  1  0
 14 51  1  0
 15 52  1  0
 16 53  1  0
 17 54  1  0
 21 55  1  0
 21 56  1  0
 22 57  1  0
 28 58  1  0
 29 59  1  0
 30 60  1  0
 31 61  1  0
M  END
$$$$
[H]c1c([H])c([H])c2c(c1[H])c1c3c(c4c5c([H])c([H])c([H])c([H])c5n5c4c1n2[C@@]1(C([H])([H])[H])O[C@]5([H])C([H])([H])[C@]([H])(N([H])C([H])([H])[H])[C@]1([H])OC([H])([H])[H])C(=O)N([H])C3([H])[H]
     RDKit          3D

 61 68  0  0  0  0  0  0  0  0999 V2000
   -4.0469   -1.7704    1.7208 C   0  0  0  0  0  0  0  0  0  0  0  0
   -2.8051   -1.1267    1.8532 N   0  0  0  0  0  0  0  0  0  0  0  0
   -2.0631   -0.7295    0.7453 C   0  0  1  0  0  0  0  0  0  0  0  0
   -1.6837   -1.8762   -0.1711 C   0  0  0  0  0  0  0  0  0  0  0  0
   -0.8984   -1.4098   -1.3642 C   0  0  1  0  0  0  0  0  0  0  0  0
   -1.1746   -0.2090   -1.8664 O   0  0  0  0  0  0  0  0  0  0  0  0
   -1.4577    0.8633   -1.0142 C   0  0  1  0  0  0  0  0  0  0  0  0
   -2.0247    1.8974   -1.9699 C   0  0  0  0  0  0  0  0  0  0  0  0
   -2.5753    0.3728   -0.1181 C   0  0  1  0  0  0  0  0  0  0  0  0
   -3.5198   -0.1711   -0.9735 O   0  0  0  0  0  0  0  0  0  0  0  0
   -4.7628    0.3638   -0.9969 C   0  0  0  0  0  0  0  0  0  0  0  0
   -0.2701    1.3169   -0.3284 N   0  0  0  0  0  0  0  0  0  0  0  0
   -0.0959    2.5647    0.1722 C   0  0  0  0  0  0  0  0  0  0  0  0
   -0.9035    3.6566    0.2781 C   0  0  0  0  0  0  0  0  0  0  0  0
   -0.4867    4.8568    0.8587 C   0  0  0  0  0  0  0  0  0  0  0  0
    0.7815    4.9813    1.3559 C   0  0  0  0  0  0  0  0  0  0  0  0
    1.6018    3.8897    1.2562 C   0  0  0  0  0  0  0  0  0  0  0  0
    1.2013    2.7011    0.6855 C   0  0  0  0  0  0  0  0  0  0  0  0
    1.8231    1.4953    0.4914 C   0  0  0  0  0  0  0  0  0  0  0  0
    3.0935    1.0534    0.7971 C   0  0  0  0  0  0  0  0  0  0  0  0
    4.2347    1.7462    1.4443 C   0  0  0  0  0  0  0  0  0  0  0  0
    5.2812    0.7805    1.4850 N   0  0  0  0  0  0  0  0  0  0  0  0
    4.8379   -0.4605    0.9036 C   0  0  0  0  0  0  0  0  0  0  0  0
    5.5848   -1.4446    0.8345 O   0  0  0  0  0  0  0  0  0  0  0  0
    3.4679   -0.2585    0.4835 C   0  0  0  0  0  0  0  0  0  0  0  0
    2.5253   -1.0802   -0.1335 C   0  0  0  0  0  0  0  0  0  0  0  0
    2.5255   -2.4091   -0.5522 C   0  0  0  0  0  0  0  0  0  0  0  0
    3.4661   -3.3824   -0.5335 C   0  0  0  0  0  0  0  0  0  0  0  0
    3.1394   -4.6508   -1.0457 C   0  0  0  0  0  0  0  0  0  0  0  0
    1.8931   -4.8946   -1.5532 C   0  0  0  0  0  0  0  0  0  0  0  0
    0.9234   -3.9194   -1.5814 C   0  0  0  0  0  0  0  0  0  0  0  0
    1.2579   -2.6757   -1.0743 C   0  0  0  0  0  0  0  0  0  0  0  0
    0.5170   -1.5633   -0.9812 N   0  0  0  0  0  0  0  0  0  0  0  0
    1.2574   -0.6011   -0.4262 C   0  0  0  0  0  0  0  0  0  0  0  0
    0.9293    0.6883   -0.1091 C   0  0  0  0  0  0  0  0  0  0  0  0
   -4.8662   -1.0159    1.9108 H   0  0  0  0  0  0  0  0  0  0  0  0
   -4.1813   -2.6236    2.4398 H   0  0  0  0  0  0  0  0  0  0  0  0
   -4.2705   -2.2084    0.7307 H   0  0  0  0  0  0  0  0  0  0  0  0
   -2.8232   -0.4664    2.6590 H   0  0  0  0  0  0  0  0  0  0  0  0
   -1.0753   -0.3131    1.1783 H   0  0  0  0  0  0  0  0  0  0  0  0
   -1.0881   -2.5934    0.4138 H   0  0  0  0  0  0  0  0  0  0  0  0
   -2.6116   -2.3396   -0.5348 H   0  0  0  0  0  0  0  0  0  0  0  0
   -1.0616   -2.1696   -2.1624 H   0  0  0  0  0  0  0  0  0  0  0  0
   -2.9480    2.3656   -1.6768 H   0  0  0  0  0  0  0  0  0  0  0  0
   -1.2023    2.6448   -2.1814 H   0  0  0  0  0  0  0  0  0  0  0  0
   -2.2291    1.4720   -2.9983 H   0  0  0  0  0  0  0  0  0  0  0  0
   -3.0338    1.1533    0.4695 H   0  0  0  0  0  0  0  0  0  0  0  0
   -5.2481    0.3628   -0.0036 H   0  0  0  0  0  0  0  0  0  0  0  0
   -4.9197    1.3034   -1.5454 H   0  0  0  0  0  0  0  0  0  0  0  0
   -5.3837   -0.3816   -1.6336 H   0  0  0  0  0  0  0  0  0  0  0  0
   -1.9195    3.5996   -0.0805 H   0  0  0  0  0  0  0  0  0  0  0  0
   -1.1927    5.6764    0.9018 H   0  0  0  0  0  0  0  0  0  0  0  0
    1.1278    5.9226    1.8176 H   0  0  0  0  0  0  0  0  0  0  0  0
    2.6056    3.9573    1.6392 H   0  0  0  0  0  0  0  0  0  0  0  0
    4.5809    2.6270    0.8499 H   0  0  0  0  0  0  0  0  0  0  0  0
    3.9928    2.1189    2.4526 H   0  0  0  0  0  0  0  0  0  0  0  0
    6.2242    0.9648    1.8822 H   0  0  0  0  0  0  0  0  0  0  0  0
    4.4453   -3.2357   -0.1500 H   0  0  0  0  0  0  0  0  0  0  0  0
    3.9157   -5.4107   -1.0164 H   0  0  0  0  0  0  0  0  0  0  0  0
    1.6559   -5.8901   -1.9485 H   0  0  0  0  0  0  0  0  0  0  0  0
   -0.0671   -4.1156   -1.9855 H   0  0  0  0  0  0  0  0  0  0  0  0
  1  2  1  0
  2  3  1  0
  3  4  1  0
  4  5  1  0
  5  6  1  0
  6  7  1  0
  7  8  1  6
  7  9  1  0
  9 10  1  0
 10 11  1  0
  7 12  1  0
 12 13  1  0
 13 14  2  0
 14 15  1  0
 15 16  2  0
 16 17  1  0
 17 18  2  0
 18 19  1  0
 19 20  2  0
 20 21  1  0
 21 22  1  0
 22 23  1  0
 23 24  2  0
 23 25  1  0
 25 26  2  0
 26 27  1  0
 27 28  2  0
 28 29  1  0
 29 30  2  0
 30 31  1  0
 31 32  2  0
 32 33  1  0
 33 34  1  0
 34 35  2  0
  9  3  1  0
 35 12  1  0
 33  5  1  0
 18 13  1  0
 35 19  1  0
 25 20  1  0
 34 26  1  0
 32 27  1  0
  1 36  1  0
  1 37  1  0
  1 38  1  0
  2 39  1  0
  3 40  1  1
  4 41  1  0
  4 42  1  0
  5 43  1  6
  8 44  1  0
  8 45  1  0
  8 46  1  0
  9 47  1  1
 11 48  1  0
 11 49  1  0
 11 50  1  0
 14 51  1  0
 15 52  1  0
 16 53  1  0
 17 54  1  0
 21 55  1  0
 21 56  1  0
 22 57  1  0
 28 58  1  0
 29 59  1  0
 30 60  1  0
 31 61  1  0
M  END
$$$$
[H]c1c([H])c([H])c2c(c1[H])c1c3c(c4c5c([H])c([H])c([H])c([H])c5n5c4c1n2[C@]1([H])O[C@]5(C([H])([H])[H])[C@@]([H])(OC([H])([H])[H])[C@]([H])(N([H])C([H])([H])[H])C1([H])[H])C([H])([H])N([H])C3=O
     RDKit          3D

 61 68  0  0  0  0  0  0  0  0999 V2000
   -5.0032    2.3015   -0.0847 C   0  0  0  0  0  0  0  0  0  0  0  0
   -4.2911    1.1206   -0.5239 N   0  0  0  0  0  0  0  0  0  0  0  0
   -3.1564    0.9314    0.3042 C   0  0  2  0  0  0  0  0  0  0  0  0
   -2.1540    2.1226    0.1663 C   0  0  0  0  0  0  0  0  0  0  0  0
   -0.9665    1.4540   -0.0205 C   0  0  1  0  0  0  0  0  0  0  0  0
   -1.1415    0.7448   -1.1981 O   0  0  0  0  0  0  0  0  0  0  0  0
   -1.4119   -0.5987   -0.7868 C   0  0  2  0  0  0  0  0  0  0  0  0
   -1.8712   -1.2254   -2.1322 C   0  0  0  0  0  0  0  0  0  0  0  0
   -2.4889   -0.4501    0.1598 C   0  0  1  0  0  0  0  0  0  0  0  0
   -2.3890   -1.1153    1.3880 O   0  0  0  0  0  0  0  0  0  0  0  0
   -3.3269   -2.1274    1.5521 C   0  0  0  0  0  0  0  0  0  0  0  0
   -0.1378   -1.2020   -0.4914 N   0  0  0  0  0  0  0  0  0  0  0  0
    0.1616   -2.5344   -0.6109 C   0  0  0  0  0  0  0  0  0  0  0  0
   -0.5901   -3.6465   -0.8619 C   0  0  0  0  0  0  0  0  0  0  0  0
    0.0056   -4.9014   -0.9123 C   0  0  0  0  0  0  0  0  0  0  0  0
    1.3589   -5.0700   -0.7130 C   0  0  0  0  0  0  0  0  0  0  0  0
    2.1437   -3.9569   -0.4556 C   0  0  0  0  0  0  0  0  0  0  0  0
    1.5172   -2.7445   -0.4151 C   0  0  0  0  0  0  0  0  0  0  0  0
    2.0596   -1.5148   -0.1645 C   0  0  0  0  0  0  0  0  0  0  0  0
    3.3310   -1.0167    0.0798 C   0  0  0  0  0  0  0  0  0  0  0  0
    4.6039   -1.7769    0.1721 C   0  0  0  0  0  0  0  0  0  0  0  0
    5.6037   -0.7850    0.4503 N   0  0  0  0  0  0  0  0  0  0  0  0
    5.0034    0.5280    0.5134 C   0  0  0  0  0  0  0  0  0  0  0  0
    5.7188    1.5160    0.7371 O   0  0  0  0  0  0  0  0  0  0  0  0
    3.6006    0.3262    0.2783 C   0  0  0  0  0  0  0  0  0  0  0  0
    2.5644    1.2461    0.2408 C   0  0  0  0  0  0  0  0  0  0  0  0
    2.4247    2.5831    0.4378 C   0  0  0  0  0  0  0  0  0  0  0  0
    3.2960    3.5951    0.7015 C   0  0  0  0  0  0  0  0  0  0  0  0
    2.7602    4.8881    0.8432 C   0  0  0  0  0  0  0  0  0  0  0  0
    1.4157    5.1498    0.7252 C   0  0  0  0  0  0  0  0  0  0  0  0
    0.5372    4.1127    0.4564 C   0  0  0  0  0  0  0  0  0  0  0  0
    1.0796    2.8483    0.3203 C   0  0  0  0  0  0  0  0  0  0  0  0
    0.4024    1.7469    0.0621 N   0  0  0  0  0  0  0  0  0  0  0  0
    1.3106    0.7318   -0.0025 C   0  0  0  0  0  0  0  0  0  0  0  0
    1.0507   -0.6266   -0.2113 C   0  0  0  0  0  0  0  0  0  0  0  0
   -4.4222    3.2206   -0.0758 H   0  0  0  0  0  0  0  0  0  0  0  0
   -5.9751    2.4312   -0.6421 H   0  0  0  0  0  0  0  0  0  0  0  0
   -5.3325    2.1331    0.9827 H   0  0  0  0  0  0  0  0  0  0  0  0
   -4.9231    0.3185   -0.4524 H   0  0  0  0  0  0  0  0  0  0  0  0
   -3.5204    0.9543    1.3717 H   0  0  0  0  0  0  0  0  0  0  0  0
   -2.2319    2.7634    1.0681 H   0  0  0  0  0  0  0  0  0  0  0  0
   -2.5549    2.7584   -0.6810 H   0  0  0  0  0  0  0  0  0  0  0  0
   -1.0177    0.7572    0.9341 H   0  0  0  0  0  0  0  0  0  0  0  0
   -2.1640   -0.4180   -2.8609 H   0  0  0  0  0  0  0  0  0  0  0  0
   -1.0623   -1.7738   -2.6232 H   0  0  0  0  0  0  0  0  0  0  0  0
   -2.8063   -1.7859   -1.9703 H   0  0  0  0  0  0  0  0  0  0  0  0
   -3.3692   -1.0206   -0.3155 H   0  0  0  0  0  0  0  0  0  0  0  0
   -4.3685   -1.7465    1.5031 H   0  0  0  0  0  0  0  0  0  0  0  0
   -3.1360   -2.7642    2.4105 H   0  0  0  0  0  0  0  0  0  0  0  0
   -3.2309   -2.7727    0.6280 H   0  0  0  0  0  0  0  0  0  0  0  0
   -1.6587   -3.5713   -1.0137 H   0  0  0  0  0  0  0  0  0  0  0  0
   -0.5879   -5.7740   -1.1105 H   0  0  0  0  0  0  0  0  0  0  0  0
    1.8233   -6.0462   -0.7522 H   0  0  0  0  0  0  0  0  0  0  0  0
    3.2016   -4.0714   -0.2980 H   0  0  0  0  0  0  0  0  0  0  0  0
    4.5688   -2.4736    1.0276 H   0  0  0  0  0  0  0  0  0  0  0  0
    4.8295   -2.3223   -0.7651 H   0  0  0  0  0  0  0  0  0  0  0  0
    6.6092   -1.0259    0.5823 H   0  0  0  0  0  0  0  0  0  0  0  0
    4.3503    3.4578    0.8021 H   0  0  0  0  0  0  0  0  0  0  0  0
    3.4660    5.6873    1.0540 H   0  0  0  0  0  0  0  0  0  0  0  0
    1.0161    6.1615    0.8387 H   0  0  0  0  0  0  0  0  0  0  0  0
   -0.5241    4.2689    0.3538 H   0  0  0  0  0  0  0  0  0  0  0  0
  1  2  1  0
  2  3  1  0
  3  4  1  0
  4  5  1  0
  5  6  1  0
  6  7  1  0
  7  8  1  6
  7  9  1  0
  9 10  1  0
 10 11  1  0
  7 12  1  0
 12 13  1  0
 13 14  2  0
 14 15  1  0
 15 16  2  0
 16 17  1  0
 17 18  2  0
 18 19  1  0
 19 20  2  0
 20 21  1  0
 21 22  1  0
 22 23  1  0
 23 24  2  0
 23 25  1  0
 25 26  2  0
 26 27  1  0
 27 28  2  0
 28 29  1  0
 29 30  2  0
 30 31  1  0
 31 32  2  0
 32 33  1  0
 33 34  1  0
 34 35  2  0
  9  3  1  0
 35 12  1  0
 33  5  1  0
 18 13  1  0
 35 19  1  0
 25 20  1  0
 34 26  1  0
 32 27  1  0
  1 36  1  0
  1 37  1  0
  1 38  1  0
  2 39  1  0
  3 40  1  1
  4 41  1  0
  4 42  1  0
  5 43  1  1
  8 44  1  0
  8 45  1  0
  8 46  1  0
  9 47  1  6
 11 48  1  0
 11 49  1  0
 11 50  1  0
 14 51  1  0
 15 52  1  0
 16 53  1  0
 17 54  1  0
 21 55  1  0
 21 56  1  0
 22 57  1  0
 28 58  1  0
 29 59  1  0
 30 60  1  0
 31 61  1  0
M  END
$$$$
[H]c1c([H])c([H])c(/C(=C2/C(=O)N([H])c3c([H])c(C(=O)OC([H])([H])[H])c([H])c([H])c32)N([H])c2c([H])c([H])c(N(C(=O)C([H])([H])N3C([H])([H])C([H])([H])N(C([H])([H])[H])C([H])([H])C3([H])[H])C([H])([H])[H])c([H])c2[H])c([H])c1[H]
     RDKit          3D

 73 77  0  0  0  0  0  0  0  0999 V2000
   -9.6259    2.7362   -3.1505 C   0  0  0  0  0  0  0  0  0  0  0  0
   -8.5822    2.1423   -2.4234 O   0  0  0  0  0  0  0  0  0  0  0  0
   -7.8814    1.0256   -2.8716 C   0  0  0  0  0  0  0  0  0  0  0  0
   -8.1814    0.5157   -3.9683 O   0  0  0  0  0  0  0  0  0  0  0  0
   -6.8215    0.5153   -2.0123 C   0  0  0  0  0  0  0  0  0  0  0  0
   -6.4947    1.0717   -0.8140 C   0  0  0  0  0  0  0  0  0  0  0  0
   -5.4728    0.5613   -0.0049 C   0  0  0  0  0  0  0  0  0  0  0  0
   -4.7972   -0.5386   -0.4611 C   0  0  0  0  0  0  0  0  0  0  0  0
   -3.6924   -1.2784    0.1218 C   0  0  0  0  0  0  0  0  0  0  0  0
   -3.1406   -1.1461    1.2984 C   0  0  0  0  0  0  0  0  0  0  0  0
   -2.0489   -2.0001    1.6122 N   0  0  0  0  0  0  0  0  0  0  0  0
   -0.6955   -1.7404    1.2757 C   0  0  0  0  0  0  0  0  0  0  0  0
   -0.3049   -0.6232    0.5755 C   0  0  0  0  0  0  0  0  0  0  0  0
    1.0409   -0.3967    0.2619 C   0  0  0  0  0  0  0  0  0  0  0  0
    1.9996   -1.2983    0.6546 C   0  0  0  0  0  0  0  0  0  0  0  0
    1.6109   -2.4148    1.3542 C   0  0  0  0  0  0  0  0  0  0  0  0
    0.2717   -2.6400    1.6660 C   0  0  0  0  0  0  0  0  0  0  0  0
    3.3997   -1.0553    0.3267 N   0  0  0  0  0  0  0  0  0  0  0  0
    4.2743   -1.0443    1.4779 C   0  0  0  0  0  0  0  0  0  0  0  0
    3.8217   -0.9048   -0.9850 C   0  0  0  0  0  0  0  0  0  0  0  0
    2.8737   -1.1517   -1.8665 O   0  0  0  0  0  0  0  0  0  0  0  0
    5.0990   -0.5334   -1.5790 C   0  0  0  0  0  0  0  0  0  0  0  0
    6.1819   -0.1535   -0.7808 N   0  0  0  0  0  0  0  0  0  0  0  0
    6.1479    1.1188   -0.1443 C   0  0  0  0  0  0  0  0  0  0  0  0
    7.0593    2.1225   -0.8152 C   0  0  0  0  0  0  0  0  0  0  0  0
    8.4000    1.6684   -0.9414 N   0  0  0  0  0  0  0  0  0  0  0  0
    9.2089    2.3796   -1.8600 C   0  0  0  0  0  0  0  0  0  0  0  0
    8.6125    0.2731   -0.8355 C   0  0  0  0  0  0  0  0  0  0  0  0
    7.4754   -0.6243   -1.1164 C   0  0  0  0  0  0  0  0  0  0  0  0
   -3.6419   -0.3131    2.3473 C   0  0  0  0  0  0  0  0  0  0  0  0
   -3.0180    0.7830    2.8957 C   0  0  0  0  0  0  0  0  0  0  0  0
   -3.5184    1.4571    3.9801 C   0  0  0  0  0  0  0  0  0  0  0  0
   -4.6869    1.0413    4.5595 C   0  0  0  0  0  0  0  0  0  0  0  0
   -5.3502   -0.0483    4.0505 C   0  0  0  0  0  0  0  0  0  0  0  0
   -4.8397   -0.7104    2.9694 C   0  0  0  0  0  0  0  0  0  0  0  0
   -3.3759   -2.3505   -0.8690 C   0  0  0  0  0  0  0  0  0  0  0  0
   -2.4929   -3.2072   -0.7677 O   0  0  0  0  0  0  0  0  0  0  0  0
   -4.2699   -2.2220   -1.9626 N   0  0  0  0  0  0  0  0  0  0  0  0
   -5.1182   -1.1186   -1.6868 C   0  0  0  0  0  0  0  0  0  0  0  0
   -6.1305   -0.5894   -2.4585 C   0  0  0  0  0  0  0  0  0  0  0  0
   -9.4840    3.8397   -3.1260 H   0  0  0  0  0  0  0  0  0  0  0  0
  -10.6287    2.4400   -2.7994 H   0  0  0  0  0  0  0  0  0  0  0  0
   -9.5092    2.4513   -4.2231 H   0  0  0  0  0  0  0  0  0  0  0  0
   -7.0554    1.9338   -0.4979 H   0  0  0  0  0  0  0  0  0  0  0  0
   -5.2980    1.1170    0.8877 H   0  0  0  0  0  0  0  0  0  0  0  0
   -2.3225   -2.8839    2.1371 H   0  0  0  0  0  0  0  0  0  0  0  0
   -1.0852    0.0650    0.2820 H   0  0  0  0  0  0  0  0  0  0  0  0
    1.2956    0.4918   -0.2875 H   0  0  0  0  0  0  0  0  0  0  0  0
    2.3988   -3.1019    1.6458 H   0  0  0  0  0  0  0  0  0  0  0  0
   -0.0090   -3.5256    2.2172 H   0  0  0  0  0  0  0  0  0  0  0  0
    4.3098   -0.0784    2.0033 H   0  0  0  0  0  0  0  0  0  0  0  0
    5.2439   -1.4894    1.2146 H   0  0  0  0  0  0  0  0  0  0  0  0
    3.8678   -1.7578    2.2758 H   0  0  0  0  0  0  0  0  0  0  0  0
    4.9292    0.2743   -2.3603 H   0  0  0  0  0  0  0  0  0  0  0  0
    5.4335   -1.4380   -2.1821 H   0  0  0  0  0  0  0  0  0  0  0  0
    6.5430    1.0192    0.8973 H   0  0  0  0  0  0  0  0  0  0  0  0
    5.1051    1.4958   -0.1442 H   0  0  0  0  0  0  0  0  0  0  0  0
    7.0209    3.0816   -0.2641 H   0  0  0  0  0  0  0  0  0  0  0  0
    6.6418    2.3090   -1.8254 H   0  0  0  0  0  0  0  0  0  0  0  0
    9.5515    1.7468   -2.6801 H   0  0  0  0  0  0  0  0  0  0  0  0
    8.6875    3.2979   -2.1848 H   0  0  0  0  0  0  0  0  0  0  0  0
   10.1414    2.7025   -1.3095 H   0  0  0  0  0  0  0  0  0  0  0  0
    9.4640   -0.0087   -1.5031 H   0  0  0  0  0  0  0  0  0  0  0  0
    8.9967    0.0613    0.2048 H   0  0  0  0  0  0  0  0  0  0  0  0
    7.6214   -1.6038   -0.5691 H   0  0  0  0  0  0  0  0  0  0  0  0
    7.4535   -0.9472   -2.2000 H   0  0  0  0  0  0  0  0  0  0  0  0
   -2.1060    1.1196    2.4536 H   0  0  0  0  0  0  0  0  0  0  0  0
   -3.0267    2.3165    4.4077 H   0  0  0  0  0  0  0  0  0  0  0  0
   -5.1025    1.5578    5.4176 H   0  0  0  0  0  0  0  0  0  0  0  0
   -6.2843   -0.3557    4.5382 H   0  0  0  0  0  0  0  0  0  0  0  0
   -5.4043   -1.5664    2.6063 H   0  0  0  0  0  0  0  0  0  0  0  0
   -4.3057   -2.8330   -2.8311 H   0  0  0  0  0  0  0  0  0  0  0  0
   -6.3795   -1.0398   -3.4080 H   0  0  0  0  0  0  0  0  0  0  0  0
  1  2  1  0
  2  3  1  0
  3  4  2  0
  3  5  1  0
  5  6  2  0
  6  7  1  0
  7  8  2  0
  8  9  1  0
  9 10  2  0
 10 11  1  0
 11 12  1  0
 12 13  2  0
 13 14  1  0
 14 15  2  0
 15 16  1  0
 16 17  2  0
 15 18  1  0
 18 19  1  0
 18 20  1  0
 20 21  2  0
 20 22  1  0
 22 23  1  0
 23 24  1  0
 24 25  1  0
 25 26  1  0
 26 27  1  0
 26 28  1  0
 28 29  1  0
 10 30  1  0
 30 31  2  0
 31 32  1  0
 32 33  2  0
 33 34  1  0
 34 35  2  0
  9 36  1  0
 36 37  2  0
 36 38  1  0
 38 39  1  0
 39 40  2  0
 40  5  1  0
 39  8  1  0
 17 12  1  0
 29 23  1  0
 35 30  1  0
  1 41  1  0
  1 42  1  0
  1 43  1  0
  6 44  1  0
  7 45  1  0
 11 46  1  0
 13 47  1  0
 14 48  1  0
 16 49  1  0
 17 50  1  0
 19 51  1  0
 19 52  1  0
 19 53  1  0
 22 54  1  0
 22 55  1  0
 24 56  1  0
 24 57  1  0
 25 58  1  0
 25 59  1  0
 27 60  1  0
 27 61  1  0
 27 62  1  0
 28 63  1  0
 28 64  1  0
 29 65  1  0
 29 66  1  0
 31 67  1  0
 32 68  1  0
 33 69  1  0
 34 70  1  0
 35 71  1  0
 38 72  1  0
 40 73  1  0
M  END
$$$$
[H]c1nc(N([H])c2c([H])c(OC([H])([H])[H])c(OC([H])([H])[H])c(OC([H])([H])[H])c2[H])nc(N([H])c2nc3c(c([H])c2[H])OC(C([H])([H])[H])(C([H])([H])[H])C(=O)N3[H])c1F
     RDKit          3D

 57 60  0  0  0  0  0  0  0  0999 V2000
   -5.6364    2.1181   -1.8630 C   0  0  0  0  0  0  0  0  0  0  0  0
   -5.8443    0.7587   -1.5880 O   0  0  0  0  0  0  0  0  0  0  0  0
   -4.8072    0.0010   -1.0783 C   0  0  0  0  0  0  0  0  0  0  0  0
   -3.5618    0.6012   -0.8432 C   0  0  0  0  0  0  0  0  0  0  0  0
   -2.5031   -0.0703   -0.3477 C   0  0  0  0  0  0  0  0  0  0  0  0
   -1.2316    0.4626   -0.0655 N   0  0  0  0  0  0  0  0  0  0  0  0
   -0.9067    1.8244    0.0656 C   0  0  0  0  0  0  0  0  0  0  0  0
   -1.7494    2.8585   -0.0431 N   0  0  0  0  0  0  0  0  0  0  0  0
   -1.4116    4.1432    0.0863 C   0  0  0  0  0  0  0  0  0  0  0  0
   -0.1125    4.4539    0.3502 C   0  0  0  0  0  0  0  0  0  0  0  0
    0.3587    5.6995    0.5032 F   0  0  0  0  0  0  0  0  0  0  0  0
    0.8217    3.4140    0.4762 C   0  0  0  0  0  0  0  0  0  0  0  0
    2.1801    3.7060    0.7505 N   0  0  0  0  0  0  0  0  0  0  0  0
    3.1050    2.6399    0.8733 C   0  0  0  0  0  0  0  0  0  0  0  0
    4.4571    2.8965    1.1446 C   0  0  0  0  0  0  0  0  0  0  0  0
    5.3443    1.8517    1.2613 C   0  0  0  0  0  0  0  0  0  0  0  0
    4.9285    0.5481    1.1161 C   0  0  0  0  0  0  0  0  0  0  0  0
    5.7961   -0.5293    1.2273 O   0  0  0  0  0  0  0  0  0  0  0  0
    5.5066   -1.7939    0.6515 C   0  0  0  0  0  0  0  0  0  0  0  0
    6.2846   -2.8749    1.3459 C   0  0  0  0  0  0  0  0  0  0  0  0
    5.8127   -1.7705   -0.8228 C   0  0  0  0  0  0  0  0  0  0  0  0
    4.0556   -2.1122    0.8177 C   0  0  0  0  0  0  0  0  0  0  0  0
    3.6763   -3.3008    1.0572 O   0  0  0  0  0  0  0  0  0  0  0  0
    3.1427   -1.0383    0.6962 N   0  0  0  0  0  0  0  0  0  0  0  0
    3.5828    0.3027    0.8467 C   0  0  0  0  0  0  0  0  0  0  0  0
    2.7547    1.3550    0.7416 N   0  0  0  0  0  0  0  0  0  0  0  0
    0.3826    2.1601    0.3289 N   0  0  0  0  0  0  0  0  0  0  0  0
   -2.7045   -1.4372   -0.0691 C   0  0  0  0  0  0  0  0  0  0  0  0
   -3.9082   -2.0549   -0.2874 C   0  0  0  0  0  0  0  0  0  0  0  0
   -4.0666   -3.3859   -0.0045 O   0  0  0  0  0  0  0  0  0  0  0  0
   -2.9762   -4.1177    0.5153 C   0  0  0  0  0  0  0  0  0  0  0  0
   -4.9761   -1.3425   -0.7952 C   0  0  0  0  0  0  0  0  0  0  0  0
   -6.2188   -1.9257   -1.0338 O   0  0  0  0  0  0  0  0  0  0  0  0
   -7.1743   -1.9137    0.0186 C   0  0  0  0  0  0  0  0  0  0  0  0
   -4.7813    2.3111   -2.5387 H   0  0  0  0  0  0  0  0  0  0  0  0
   -5.4850    2.7232   -0.9417 H   0  0  0  0  0  0  0  0  0  0  0  0
   -6.5386    2.5082   -2.4098 H   0  0  0  0  0  0  0  0  0  0  0  0
   -3.4970    1.6360   -1.0973 H   0  0  0  0  0  0  0  0  0  0  0  0
   -0.4103   -0.2136    0.0641 H   0  0  0  0  0  0  0  0  0  0  0  0
   -2.1604    4.9024   -0.0184 H   0  0  0  0  0  0  0  0  0  0  0  0
    2.4712    4.6872    0.8556 H   0  0  0  0  0  0  0  0  0  0  0  0
    4.7318    3.9285    1.2492 H   0  0  0  0  0  0  0  0  0  0  0  0
    6.3943    2.0780    1.4734 H   0  0  0  0  0  0  0  0  0  0  0  0
    5.7812   -3.1588    2.2953 H   0  0  0  0  0  0  0  0  0  0  0  0
    7.3278   -2.5920    1.5737 H   0  0  0  0  0  0  0  0  0  0  0  0
    6.3119   -3.7970    0.7168 H   0  0  0  0  0  0  0  0  0  0  0  0
    5.5475   -2.7321   -1.2838 H   0  0  0  0  0  0  0  0  0  0  0  0
    5.2428   -0.9509   -1.3072 H   0  0  0  0  0  0  0  0  0  0  0  0
    6.8942   -1.5474   -0.9277 H   0  0  0  0  0  0  0  0  0  0  0  0
    2.1474   -1.2464    0.4955 H   0  0  0  0  0  0  0  0  0  0  0  0
   -1.8577   -2.0119    0.3366 H   0  0  0  0  0  0  0  0  0  0  0  0
   -2.2185   -4.1935   -0.2936 H   0  0  0  0  0  0  0  0  0  0  0  0
   -3.3828   -5.1246    0.7905 H   0  0  0  0  0  0  0  0  0  0  0  0
   -2.5554   -3.6060    1.4036 H   0  0  0  0  0  0  0  0  0  0  0  0
   -7.4919   -2.9486    0.2973 H   0  0  0  0  0  0  0  0  0  0  0  0
   -8.0902   -1.3564   -0.3279 H   0  0  0  0  0  0  0  0  0  0  0  0
   -6.7818   -1.4227    0.9319 H   0  0  0  0  0  0  0  0  0  0  0  0
  1  2  1  0
  2  3  1  0
  3  4  2  0
  4  5  1  0
  5  6  1  0
  6  7  1  0
  7  8  2  0
  8  9  1  0
  9 10  2  0
 10 11  1  0
 10 12  1  0
 12 13  1  0
 13 14  1  0
 14 15  2  0
 15 16  1  0
 16 17  2  0
 17 18  1  0
 18 19  1  0
 19 20  1  0
 19 21  1  0
 19 22  1  0
 22 23  2  0
 22 24  1  0
 24 25  1  0
 25 26  2  0
 12 27  2  0
  5 28  2  0
 28 29  1  0
 29 30  1  0
 30 31  1  0
 29 32  2  0
 32 33  1  0
 33 34  1  0
 32  3  1  0
 27  7  1  0
 26 14  1  0
 25 17  1  0
  1 35  1  0
  1 36  1  0
  1 37  1  0
  4 38  1  0
  6 39  1  0
  9 40  1  0
 13 41  1  0
 15 42  1  0
 16 43  1  0
 20 44  1  0
 20 45  1  0
 20 46  1  0
 21 47  1  0
 21 48  1  0
 21 49  1  0
 24 50  1  0
 28 51  1  0
 31 52  1  0
 31 53  1  0
 31 54  1  0
 34 55  1  0
 34 56  1  0
 34 57  1  0
M  END
$$$$
[H]C1=C([H])C([H])(F)C([H])([H])C([H])=C1N([H])C(=O)C1(C(=O)N([H])c2c([H])c([H])c(Oc3c([H])c([H])nc4c([H])c(OC([H])([H])C([H])([H])C([H])([H])N5C([H])([H])C([H])([H])OC([H])([H])C5([H])[H])c(OC([H])([H])[H])c([H])c34)c(F)c2[H])C([H])([H])C1([H])[H]
     RDKit          3D

 82 87  0  0  0  0  0  0  0  0999 V2000
    3.9666    3.0495   -1.7322 C   0  0  0  0  0  0  0  0  0  0  0  0
    4.8184    1.9472   -1.5191 O   0  0  0  0  0  0  0  0  0  0  0  0
    4.2779    0.7150   -1.2054 C   0  0  0  0  0  0  0  0  0  0  0  0
    2.9355    0.4830   -1.0834 C   0  0  0  0  0  0  0  0  0  0  0  0
    2.5057   -0.7878   -0.7673 C   0  0  0  0  0  0  0  0  0  0  0  0
    1.1302   -1.0757   -0.6337 C   0  0  0  0  0  0  0  0  0  0  0  0
    0.2693   -0.0306   -0.8259 O   0  0  0  0  0  0  0  0  0  0  0  0
   -1.0898   -0.1642   -0.6451 C   0  0  0  0  0  0  0  0  0  0  0  0
   -1.9847   -0.0120   -1.6950 C   0  0  0  0  0  0  0  0  0  0  0  0
   -3.3381   -0.1282   -1.5809 C   0  0  0  0  0  0  0  0  0  0  0  0
   -3.8905   -0.4214   -0.3289 C   0  0  0  0  0  0  0  0  0  0  0  0
   -5.3238   -0.4986   -0.2135 N   0  0  0  0  0  0  0  0  0  0  0  0
   -5.9613   -1.3830    0.6262 C   0  0  0  0  0  0  0  0  0  0  0  0
   -5.1921   -2.1849    1.2964 O   0  0  0  0  0  0  0  0  0  0  0  0
   -7.4011   -1.5958    0.9101 C   0  0  0  0  0  0  0  0  0  0  0  0
   -7.6820   -2.4618    2.1265 C   0  0  0  0  0  0  0  0  0  0  0  0
   -7.8126   -3.1190    0.8294 C   0  0  0  0  0  0  0  0  0  0  0  0
   -8.4706   -0.6963    0.4763 C   0  0  0  0  0  0  0  0  0  0  0  0
   -9.6747   -1.1656    0.7176 O   0  0  0  0  0  0  0  0  0  0  0  0
   -8.4814    0.5528   -0.1324 N   0  0  0  0  0  0  0  0  0  0  0  0
   -9.7446    1.2195   -0.4499 C   0  0  0  0  0  0  0  0  0  0  0  0
   -9.9496    2.4040    0.0799 C   0  0  0  0  0  0  0  0  0  0  0  0
  -11.1350    3.2347   -0.1097 C   0  0  0  0  0  0  0  0  0  0  0  0
  -12.2008    2.6387   -0.9439 C   0  0  0  0  0  0  0  0  0  0  0  0
  -12.4721    3.4850   -2.0494 F   0  0  0  0  0  0  0  0  0  0  0  0
  -11.8730    1.3187   -1.4859 C   0  0  0  0  0  0  0  0  0  0  0  0
  -10.7586    0.6480   -1.2759 C   0  0  0  0  0  0  0  0  0  0  0  0
   -3.0432   -0.5784    0.7341 C   0  0  0  0  0  0  0  0  0  0  0  0
   -1.6522   -0.4525    0.5863 C   0  0  0  0  0  0  0  0  0  0  0  0
   -0.8827   -0.5957    1.6903 F   0  0  0  0  0  0  0  0  0  0  0  0
    0.7223   -2.3515   -0.3227 C   0  0  0  0  0  0  0  0  0  0  0  0
    1.6378   -3.3635   -0.1352 C   0  0  0  0  0  0  0  0  0  0  0  0
    2.9451   -3.0865   -0.2619 N   0  0  0  0  0  0  0  0  0  0  0  0
    3.3732   -1.8309   -0.5703 C   0  0  0  0  0  0  0  0  0  0  0  0
    4.7330   -1.5901   -0.6954 C   0  0  0  0  0  0  0  0  0  0  0  0
    5.1920   -0.3333   -1.0085 C   0  0  0  0  0  0  0  0  0  0  0  0
    6.5206   -0.0853   -1.1253 O   0  0  0  0  0  0  0  0  0  0  0  0
    7.5310   -0.9938   -0.8772 C   0  0  0  0  0  0  0  0  0  0  0  0
    7.6262   -1.3701    0.5948 C   0  0  0  0  0  0  0  0  0  0  0  0
    7.9359   -0.0985    1.3961 C   0  0  0  0  0  0  0  0  0  0  0  0
    9.1945    0.4265    0.9288 N   0  0  0  0  0  0  0  0  0  0  0  0
    9.4053    1.7864    1.4776 C   0  0  0  0  0  0  0  0  0  0  0  0
   10.8161    2.1639    1.0165 C   0  0  0  0  0  0  0  0  0  0  0  0
   11.2632    1.3549   -0.0281 O   0  0  0  0  0  0  0  0  0  0  0  0
   11.4615    0.0232    0.3872 C   0  0  0  0  0  0  0  0  0  0  0  0
   10.3466   -0.3576    1.3702 C   0  0  0  0  0  0  0  0  0  0  0  0
    4.5770    3.9509   -1.9692 H   0  0  0  0  0  0  0  0  0  0  0  0
    3.3066    3.2216   -0.8582 H   0  0  0  0  0  0  0  0  0  0  0  0
    3.3086    2.7911   -2.5987 H   0  0  0  0  0  0  0  0  0  0  0  0
    2.2243    1.2761   -1.2311 H   0  0  0  0  0  0  0  0  0  0  0  0
   -1.5528    0.2161   -2.6750 H   0  0  0  0  0  0  0  0  0  0  0  0
   -4.0246   -0.0039   -2.4200 H   0  0  0  0  0  0  0  0  0  0  0  0
   -5.8260    0.1518   -0.8369 H   0  0  0  0  0  0  0  0  0  0  0  0
   -6.8106   -2.7138    2.7607 H   0  0  0  0  0  0  0  0  0  0  0  0
   -8.5985   -2.2800    2.7131 H   0  0  0  0  0  0  0  0  0  0  0  0
   -7.0275   -3.7752    0.4011 H   0  0  0  0  0  0  0  0  0  0  0  0
   -8.7992   -3.3162    0.3639 H   0  0  0  0  0  0  0  0  0  0  0  0
   -7.6334    1.0911   -0.3743 H   0  0  0  0  0  0  0  0  0  0  0  0
   -9.1652    2.8388    0.7401 H   0  0  0  0  0  0  0  0  0  0  0  0
  -11.5358    3.5321    0.9159 H   0  0  0  0  0  0  0  0  0  0  0  0
  -10.8538    4.2484   -0.5572 H   0  0  0  0  0  0  0  0  0  0  0  0
  -13.1586    2.5647   -0.3407 H   0  0  0  0  0  0  0  0  0  0  0  0
  -12.6648    0.8691   -2.1323 H   0  0  0  0  0  0  0  0  0  0  0  0
  -10.6018   -0.3227   -1.7168 H   0  0  0  0  0  0  0  0  0  0  0  0
   -3.4037   -0.7893    1.7394 H   0  0  0  0  0  0  0  0  0  0  0  0
   -0.3200   -2.5956   -0.2356 H   0  0  0  0  0  0  0  0  0  0  0  0
    1.2680   -4.3480    0.1079 H   0  0  0  0  0  0  0  0  0  0  0  0
    5.3620   -2.4538   -0.5623 H   0  0  0  0  0  0  0  0  0  0  0  0
    7.4424   -1.9223   -1.5038 H   0  0  0  0  0  0  0  0  0  0  0  0
    8.4920   -0.5348   -1.2249 H   0  0  0  0  0  0  0  0  0  0  0  0
    6.7751   -1.8921    1.0071 H   0  0  0  0  0  0  0  0  0  0  0  0
    8.4922   -2.0400    0.6815 H   0  0  0  0  0  0  0  0  0  0  0  0
    7.1233    0.6400    1.3255 H   0  0  0  0  0  0  0  0  0  0  0  0
    8.0487   -0.4301    2.4644 H   0  0  0  0  0  0  0  0  0  0  0  0
    9.4079    1.7624    2.5778 H   0  0  0  0  0  0  0  0  0  0  0  0
    8.6320    2.4413    1.0296 H   0  0  0  0  0  0  0  0  0  0  0  0
   11.5508    2.0414    1.8480 H   0  0  0  0  0  0  0  0  0  0  0  0
   10.8264    3.2054    0.6080 H   0  0  0  0  0  0  0  0  0  0  0  0
   11.3001   -0.6008   -0.5146 H   0  0  0  0  0  0  0  0  0  0  0  0
   12.4569   -0.1361    0.8078 H   0  0  0  0  0  0  0  0  0  0  0  0
   10.1090   -1.3943    1.4038 H   0  0  0  0  0  0  0  0  0  0  0  0
   10.6797    0.0679    2.3647 H   0  0  0  0  0  0  0  0  0  0  0  0
  1  2  1  0
  2  3  1  0
  3  4  2  0
  4  5  1  0
  5  6  2  0
  6  7  1  0
  7  8  1  0
  8  9  2  0
  9 10  1  0
 10 11  2  0
 11 12  1  0
 12 13  1  0
 13 14  2  0
 13 15  1  0
 15 16  1  0
 16 17  1  0
 15 18  1  0
 18 19  2  0
 18 20  1  0
 20 21  1  0
 21 22  2  0
 22 23  1  0
 23 24  1  0
 24 25  1  0
 24 26  1  0
 26 27  2  0
 11 28  1  0
 28 29  2  0
 29 30  1  0
  6 31  1  0
 31 32  2  0
 32 33  1  0
 33 34  2  0
 34 35  1  0
 35 36  2  0
 36 37  1  0
 37 38  1  0
 38 39  1  0
 39 40  1  0
 40 41  1  0
 41 42  1  0
 42 43  1  0
 43 44  1  0
 44 45  1  0
 45 46  1  0
 36  3  1  0
 46 41  1  0
 34  5  1  0
 29  8  1  0
 17 15  1  0
 27 21  1  0
  1 47  1  0
  1 48  1  0
  1 49  1  0
  4 50  1  0
  9 51  1  0
 10 52  1  0
 12 53  1  0
 16 54  1  0
 16 55  1  0
 17 56  1  0
 17 57  1  0
 20 58  1  0
 22 59  1  0
 23 60  1  0
 23 61  1  0
 24 62  1  0
 26 63  1  0
 27 64  1  0
 28 65  1  0
 31 66  1  0
 32 67  1  0
 35 68  1  0
 38 69  1  0
 38 70  1  0
 39 71  1  0
 39 72  1  0
 40 73  1  0
 40 74  1  0
 42 75  1  0
 42 76  1  0
 43 77  1  0
 43 78  1  0
 45 79  1  0
 45 80  1  0
 46 81  1  0
 46 82  1  0
M  END
$$$$
[H]c1nc(N([H])c2c([H])c(OC([H])([H])[H])c(OC([H])([H])[H])c(OC([H])([H])[H])c2[H])nc(N([H])c2nc3c(c([H])c2[H])OC(C([H])([H])[H])(C([H])([H])[H])C(=O)N3[H])c1Cl
     RDKit          3D

 57 60  0  0  0  0  0  0  0  0999 V2000
   -5.7062    2.0896   -1.8319 C   0  0  0  0  0  0  0  0  0  0  0  0
   -5.8757    0.7103   -1.5773 O   0  0  0  0  0  0  0  0  0  0  0  0
   -4.7959   -0.0108   -1.0921 C   0  0  0  0  0  0  0  0  0  0  0  0
   -3.5546    0.6057   -0.8546 C   0  0  0  0  0  0  0  0  0  0  0  0
   -2.4789   -0.0483   -0.3850 C   0  0  0  0  0  0  0  0  0  0  0  0
   -1.2186    0.5079   -0.1103 N   0  0  0  0  0  0  0  0  0  0  0  0
   -0.9117    1.8809   -0.0236 C   0  0  0  0  0  0  0  0  0  0  0  0
   -1.7316    2.9097   -0.1714 N   0  0  0  0  0  0  0  0  0  0  0  0
   -1.4116    4.2063   -0.0835 C   0  0  0  0  0  0  0  0  0  0  0  0
   -0.0987    4.5091    0.1879 C   0  0  0  0  0  0  0  0  0  0  0  0
    0.4772    6.1441    0.3337 Cl  0  0  0  0  0  0  0  0  0  0  0  0
    0.8252    3.4820    0.3568 C   0  0  0  0  0  0  0  0  0  0  0  0
    2.1825    3.7433    0.6365 N   0  0  0  0  0  0  0  0  0  0  0  0
    3.0945    2.6700    0.8022 C   0  0  0  0  0  0  0  0  0  0  0  0
    4.4463    2.9300    1.0807 C   0  0  0  0  0  0  0  0  0  0  0  0
    5.3106    1.8710    1.2370 C   0  0  0  0  0  0  0  0  0  0  0  0
    4.8871    0.5652    1.1279 C   0  0  0  0  0  0  0  0  0  0  0  0
    5.7441   -0.5124    1.2823 O   0  0  0  0  0  0  0  0  0  0  0  0
    5.4343   -1.8103    0.8128 C   0  0  0  0  0  0  0  0  0  0  0  0
    6.1434   -2.8503    1.6735 C   0  0  0  0  0  0  0  0  0  0  0  0
    5.8365   -1.9300   -0.6291 C   0  0  0  0  0  0  0  0  0  0  0  0
    3.9767   -2.1074    0.8967 C   0  0  0  0  0  0  0  0  0  0  0  0
    3.5689   -3.2887    1.1041 O   0  0  0  0  0  0  0  0  0  0  0  0
    3.0836   -1.0158    0.7347 N   0  0  0  0  0  0  0  0  0  0  0  0
    3.5483    0.3295    0.8525 C   0  0  0  0  0  0  0  0  0  0  0  0
    2.7303    1.3839    0.7055 N   0  0  0  0  0  0  0  0  0  0  0  0
    0.3907    2.2269    0.2465 N   0  0  0  0  0  0  0  0  0  0  0  0
   -2.6318   -1.4191   -0.1275 C   0  0  0  0  0  0  0  0  0  0  0  0
   -3.8340   -2.0366   -0.3532 C   0  0  0  0  0  0  0  0  0  0  0  0
   -3.9830   -3.3837   -0.0998 O   0  0  0  0  0  0  0  0  0  0  0  0
   -2.8768   -4.1092    0.3943 C   0  0  0  0  0  0  0  0  0  0  0  0
   -4.9390   -1.3516   -0.8380 C   0  0  0  0  0  0  0  0  0  0  0  0
   -6.1583   -1.9773   -1.0668 O   0  0  0  0  0  0  0  0  0  0  0  0
   -7.0957   -2.0233   -0.0210 C   0  0  0  0  0  0  0  0  0  0  0  0
   -4.8687    2.3174   -2.4925 H   0  0  0  0  0  0  0  0  0  0  0  0
   -5.5637    2.6727   -0.8941 H   0  0  0  0  0  0  0  0  0  0  0  0
   -6.6363    2.4225   -2.3663 H   0  0  0  0  0  0  0  0  0  0  0  0
   -3.5355    1.6514   -1.0934 H   0  0  0  0  0  0  0  0  0  0  0  0
   -0.3837   -0.1446    0.0512 H   0  0  0  0  0  0  0  0  0  0  0  0
   -2.1496    4.9788   -0.2193 H   0  0  0  0  0  0  0  0  0  0  0  0
    2.5200    4.7290    0.7224 H   0  0  0  0  0  0  0  0  0  0  0  0
    4.7319    3.9487    1.1567 H   0  0  0  0  0  0  0  0  0  0  0  0
    6.3555    2.0985    1.4528 H   0  0  0  0  0  0  0  0  0  0  0  0
    5.5589   -2.9828    2.6041 H   0  0  0  0  0  0  0  0  0  0  0  0
    7.1729   -2.5542    1.9049 H   0  0  0  0  0  0  0  0  0  0  0  0
    6.1742   -3.8286    1.1243 H   0  0  0  0  0  0  0  0  0  0  0  0
    5.4932   -2.9015   -1.0386 H   0  0  0  0  0  0  0  0  0  0  0  0
    5.4295   -1.0745   -1.1817 H   0  0  0  0  0  0  0  0  0  0  0  0
    6.9550   -1.8603   -0.6837 H   0  0  0  0  0  0  0  0  0  0  0  0
    2.0871   -1.1991    0.5296 H   0  0  0  0  0  0  0  0  0  0  0  0
   -1.7787   -1.9895    0.2564 H   0  0  0  0  0  0  0  0  0  0  0  0
   -2.1240   -4.1909   -0.4168 H   0  0  0  0  0  0  0  0  0  0  0  0
   -3.2486   -5.1338    0.6530 H   0  0  0  0  0  0  0  0  0  0  0  0
   -2.4656   -3.6018    1.3024 H   0  0  0  0  0  0  0  0  0  0  0  0
   -7.3670   -3.1031    0.1453 H   0  0  0  0  0  0  0  0  0  0  0  0
   -8.0343   -1.4880   -0.2936 H   0  0  0  0  0  0  0  0  0  0  0  0
   -6.7005   -1.6569    0.9464 H   0  0  0  0  0  0  0  0  0  0  0  0
  1  2  1  0
  2  3  1  0
  3  4  2  0
  4  5  1  0
  5  6  1  0
  6  7  1  0
  7  8  2  0
  8  9  1  0
  9 10  2  0
 10 11  1  0
 10 12  1  0
 12 13  1  0
 13 14  1  0
 14 15  2  0
 15 16  1  0
 16 17  2  0
 17 18  1  0
 18 19  1  0
 19 20  1  0
 19 21  1  0
 19 22  1  0
 22 23  2  0
 22 24  1  0
 24 25  1  0
 25 26  2  0
 12 27  2  0
  5 28  2  0
 28 29  1  0
 29 30  1  0
 30 31  1  0
 29 32  2  0
 32 33  1  0
 33 34  1  0
 32  3  1  0
 27  7  1  0
 26 14  1  0
 25 17  1  0
  1 35  1  0
  1 36  1  0
  1 37  1  0
  4 38  1  0
  6 39  1  0
  9 40  1  0
 13 41  1  0
 15 42  1  0
 16 43  1  0
 20 44  1  0
 20 45  1  0
 20 46  1  0
 21 47  1  0
 21 48  1  0
 21 49  1  0
 24 50  1  0
 28 51  1  0
 31 52  1  0
 31 53  1  0
 31 54  1  0
 34 55  1  0
 34 56  1  0
 34 57  1  0
M  END
$$$$
[H]OC([H])([H])[C@@]1(O[H])C([H])([H])[C@@]2([H])O[C@]1(C([H])([H])[H])n1c3c([H])c([H])c([H])c([H])c3c3c4c(c5c6c([H])c([H])c([H])c([H])c6n2c5c31)C(=O)N([H])C4=O
     RDKit          3D

 53 60  0  0  0  0  0  0  0  0999 V2000
   -3.2536   -0.3191   -1.3077 C   0  0  0  0  0  0  0  0  0  0  0  0
   -1.9922   -0.5302   -0.4891 C   0  0  2  0  0  0  0  0  0  0  0  0
   -1.2261   -1.3263   -1.3816 O   0  0  0  0  0  0  0  0  0  0  0  0
   -0.4552   -2.1851   -0.6434 C   0  0  2  0  0  0  0  0  0  0  0  0
   -1.1492   -2.4550    0.6346 C   0  0  0  0  0  0  0  0  0  0  0  0
   -2.1837   -1.3578    0.7255 C   0  0  1  0  0  0  0  0  0  0  0  0
   -1.9546   -0.6647    1.9131 O   0  0  0  0  0  0  0  0  0  0  0  0
   -3.5376   -2.0044    0.8351 C   0  0  0  0  0  0  0  0  0  0  0  0
   -3.5035   -2.8809    1.9429 O   0  0  0  0  0  0  0  0  0  0  0  0
    0.8706   -1.5405   -0.4677 N   0  0  0  0  0  0  0  0  0  0  0  0
    2.0538   -2.1365   -0.4814 C   0  0  0  0  0  0  0  0  0  0  0  0
    2.3914   -3.4572   -0.6338 C   0  0  0  0  0  0  0  0  0  0  0  0
    3.7055   -3.8346   -0.6121 C   0  0  0  0  0  0  0  0  0  0  0  0
    4.7011   -2.9015   -0.4384 C   0  0  0  0  0  0  0  0  0  0  0  0
    4.3734   -1.5527   -0.2818 C   0  0  0  0  0  0  0  0  0  0  0  0
    3.0666   -1.1853   -0.3044 C   0  0  0  0  0  0  0  0  0  0  0  0
    2.4186    0.0421   -0.1795 C   0  0  0  0  0  0  0  0  0  0  0  0
    2.8449    1.3517    0.0302 C   0  0  0  0  0  0  0  0  0  0  0  0
    4.1760    1.9185    0.1715 C   0  0  0  0  0  0  0  0  0  0  0  0
    5.3248    1.4136    0.1523 O   0  0  0  0  0  0  0  0  0  0  0  0
    3.9953    3.3287    0.3634 N   0  0  0  0  0  0  0  0  0  0  0  0
    2.5851    3.6428    0.3433 C   0  0  0  0  0  0  0  0  0  0  0  0
    2.1845    4.8257    0.4922 O   0  0  0  0  0  0  0  0  0  0  0  0
    1.9021    2.3866    0.1339 C   0  0  0  0  0  0  0  0  0  0  0  0
    0.5577    2.0739    0.0234 C   0  0  0  0  0  0  0  0  0  0  0  0
   -0.6212    2.8071    0.1087 C   0  0  0  0  0  0  0  0  0  0  0  0
   -0.8522    4.1373    0.3325 C   0  0  0  0  0  0  0  0  0  0  0  0
   -2.1789    4.5830    0.3956 C   0  0  0  0  0  0  0  0  0  0  0  0
   -3.2184    3.7235    0.2404 C   0  0  0  0  0  0  0  0  0  0  0  0
   -2.9946    2.3720    0.0133 C   0  0  0  0  0  0  0  0  0  0  0  0
   -1.6901    1.9279   -0.0519 C   0  0  0  0  0  0  0  0  0  0  0  0
   -1.2201    0.6787   -0.2397 N   0  0  0  0  0  0  0  0  0  0  0  0
    0.1527    0.7758   -0.1867 C   0  0  0  0  0  0  0  0  0  0  0  0
    1.0789   -0.2375   -0.2874 C   0  0  0  0  0  0  0  0  0  0  0  0
   -3.1208    0.5742   -1.9395 H   0  0  0  0  0  0  0  0  0  0  0  0
   -3.3563   -1.1553   -2.0912 H   0  0  0  0  0  0  0  0  0  0  0  0
   -4.1831   -0.4024   -0.7531 H   0  0  0  0  0  0  0  0  0  0  0  0
   -0.2576   -3.0975   -1.2082 H   0  0  0  0  0  0  0  0  0  0  0  0
   -1.6411   -3.4681    0.5339 H   0  0  0  0  0  0  0  0  0  0  0  0
   -0.4690   -2.4559    1.5142 H   0  0  0  0  0  0  0  0  0  0  0  0
   -1.6587   -1.3562    2.5850 H   0  0  0  0  0  0  0  0  0  0  0  0
   -4.2695   -1.2222    1.1100 H   0  0  0  0  0  0  0  0  0  0  0  0
   -3.8200   -2.6146   -0.0282 H   0  0  0  0  0  0  0  0  0  0  0  0
   -4.2951   -3.4856    1.8211 H   0  0  0  0  0  0  0  0  0  0  0  0
    1.5744   -4.1807   -0.7709 H   0  0  0  0  0  0  0  0  0  0  0  0
    3.9673   -4.8787   -0.7329 H   0  0  0  0  0  0  0  0  0  0  0  0
    5.7406   -3.1581   -0.4159 H   0  0  0  0  0  0  0  0  0  0  0  0
    5.1602   -0.8441   -0.1477 H   0  0  0  0  0  0  0  0  0  0  0  0
    4.7619    4.0384    0.4993 H   0  0  0  0  0  0  0  0  0  0  0  0
   -0.0814    4.8576    0.4628 H   0  0  0  0  0  0  0  0  0  0  0  0
   -2.3091    5.6540    0.5756 H   0  0  0  0  0  0  0  0  0  0  0  0
   -4.2457    4.0593    0.2881 H   0  0  0  0  0  0  0  0  0  0  0  0
   -3.8490    1.7165   -0.0715 H   0  0  0  0  0  0  0  0  0  0  0  0
  2  1  1  6
  2  3  1  0
  3  4  1  0
  4  5  1  0
  5  6  1  0
  6  7  1  1
  6  8  1  0
  8  9  1  0
  4 10  1  0
 10 11  1  0
 11 12  2  0
 12 13  1  0
 13 14  2  0
 14 15  1  0
 15 16  2  0
 16 17  1  0
 17 18  2  0
 18 19  1  0
 19 20  2  0
 19 21  1  0
 21 22  1  0
 22 23  2  0
 22 24  1  0
 24 25  2  0
 25 26  1  0
 26 27  2  0
 27 28  1  0
 28 29  2  0
 29 30  1  0
 30 31  2  0
 31 32  1  0
 32 33  1  0
 33 34  2  0
  6  2  1  0
 34 10  1  0
 32  2  1  0
 16 11  1  0
 34 17  1  0
 24 18  1  0
 33 25  1  0
 31 26  1  0
  1 35  1  0
  1 36  1  0
  1 37  1  0
  4 38  1  6
  5 39  1  0
  5 40  1  0
  7 41  1  0
  8 42  1  0
  8 43  1  0
  9 44  1  0
 12 45  1  0
 13 46  1  0
 14 47  1  0
 15 48  1  0
 21 49  1  0
 27 50  1  0
 28 51  1  0
 29 52  1  0
 30 53  1  0
M  END
$$$$
[H]OC([H])([H])[C@@]1(O[H])C([H])([H])[C@@]2([H])O[C@]1(C([H])([H])[H])n1c3c([H])c([H])c([H])c([H])c3c3c4c(c5c6c([H])c([H])c([H])c([H])c6n2c5c31)C([H])([H])N([H])C4=O
     RDKit          3D

 54 61  0  0  0  0  0  0  0  0999 V2000
   -3.1418    0.1931   -1.6977 C   0  0  0  0  0  0  0  0  0  0  0  0
   -2.0672   -0.2416   -0.7056 C   0  0  2  0  0  0  0  0  0  0  0  0
   -1.3646   -1.1997   -1.4964 O   0  0  0  0  0  0  0  0  0  0  0  0
   -0.7981   -2.1262   -0.6953 C   0  0  2  0  0  0  0  0  0  0  0  0
   -1.5276   -2.1485    0.6200 C   0  0  0  0  0  0  0  0  0  0  0  0
   -2.5695   -1.0630    0.4128 C   0  0  1  0  0  0  0  0  0  0  0  0
   -2.6570   -0.3884    1.6282 O   0  0  0  0  0  0  0  0  0  0  0  0
   -3.8528   -1.7770    0.0694 C   0  0  0  0  0  0  0  0  0  0  0  0
   -4.0858   -2.7043    1.1135 O   0  0  0  0  0  0  0  0  0  0  0  0
    0.5793   -1.7015   -0.4398 N   0  0  0  0  0  0  0  0  0  0  0  0
    1.6738   -2.4346   -0.3714 C   0  0  0  0  0  0  0  0  0  0  0  0
    1.8583   -3.7887   -0.5335 C   0  0  0  0  0  0  0  0  0  0  0  0
    3.1414   -4.3156   -0.4065 C   0  0  0  0  0  0  0  0  0  0  0  0
    4.2342   -3.4936   -0.1189 C   0  0  0  0  0  0  0  0  0  0  0  0
    4.0565   -2.1365    0.0448 C   0  0  0  0  0  0  0  0  0  0  0  0
    2.7810   -1.6383   -0.0852 C   0  0  0  0  0  0  0  0  0  0  0  0
    2.3012   -0.3773    0.0176 C   0  0  0  0  0  0  0  0  0  0  0  0
    2.8723    0.8606    0.3054 C   0  0  0  0  0  0  0  0  0  0  0  0
    4.2732    1.1913    0.5786 C   0  0  0  0  0  0  0  0  0  0  0  0
    4.3352    2.5993    0.8085 N   0  0  0  0  0  0  0  0  0  0  0  0
    2.9989    3.1293    0.6853 C   0  0  0  0  0  0  0  0  0  0  0  0
    2.8128    4.3449    0.8491 O   0  0  0  0  0  0  0  0  0  0  0  0
    2.1260    2.0179    0.3735 C   0  0  0  0  0  0  0  0  0  0  0  0
    0.7457    1.9615    0.1469 C   0  0  0  0  0  0  0  0  0  0  0  0
   -0.2780    2.8547    0.1442 C   0  0  0  0  0  0  0  0  0  0  0  0
   -0.3187    4.2083    0.3824 C   0  0  0  0  0  0  0  0  0  0  0  0
   -1.5450    4.8840    0.3328 C   0  0  0  0  0  0  0  0  0  0  0  0
   -2.6768    4.1782    0.0481 C   0  0  0  0  0  0  0  0  0  0  0  0
   -2.6202    2.7986   -0.1923 C   0  0  0  0  0  0  0  0  0  0  0  0
   -1.4312    2.1354   -0.1473 C   0  0  0  0  0  0  0  0  0  0  0  0
   -1.1606    0.8290   -0.3299 N   0  0  0  0  0  0  0  0  0  0  0  0
    0.1923    0.7267   -0.1399 C   0  0  0  0  0  0  0  0  0  0  0  0
    0.9525   -0.4140   -0.2008 C   0  0  0  0  0  0  0  0  0  0  0  0
   -2.7736    1.0854   -2.2392 H   0  0  0  0  0  0  0  0  0  0  0  0
   -4.1419    0.2639   -1.2813 H   0  0  0  0  0  0  0  0  0  0  0  0
   -3.2680   -0.5679   -2.5374 H   0  0  0  0  0  0  0  0  0  0  0  0
   -0.7545   -3.1251   -1.1405 H   0  0  0  0  0  0  0  0  0  0  0  0
   -0.8671   -1.9293    1.4852 H   0  0  0  0  0  0  0  0  0  0  0  0
   -1.9993   -3.1350    0.8358 H   0  0  0  0  0  0  0  0  0  0  0  0
   -3.6289   -0.2375    1.7982 H   0  0  0  0  0  0  0  0  0  0  0  0
   -4.7401   -1.1363    0.0603 H   0  0  0  0  0  0  0  0  0  0  0  0
   -3.6991   -2.3235   -0.8791 H   0  0  0  0  0  0  0  0  0  0  0  0
   -5.0082   -3.0956    0.9841 H   0  0  0  0  0  0  0  0  0  0  0  0
    1.0005   -4.4111   -0.7561 H   0  0  0  0  0  0  0  0  0  0  0  0
    3.2850   -5.3803   -0.5342 H   0  0  0  0  0  0  0  0  0  0  0  0
    5.1985   -3.9557   -0.0327 H   0  0  0  0  0  0  0  0  0  0  0  0
    4.9100   -1.5059    0.2678 H   0  0  0  0  0  0  0  0  0  0  0  0
    4.9522    0.9665   -0.2718 H   0  0  0  0  0  0  0  0  0  0  0  0
    4.6842    0.6522    1.4610 H   0  0  0  0  0  0  0  0  0  0  0  0
    5.2083    3.1735    1.0330 H   0  0  0  0  0  0  0  0  0  0  0  0
    0.5315    4.8155    0.6109 H   0  0  0  0  0  0  0  0  0  0  0  0
   -1.5422    5.9334    0.5217 H   0  0  0  0  0  0  0  0  0  0  0  0
   -3.6566    4.6541   -0.0027 H   0  0  0  0  0  0  0  0  0  0  0  0
   -3.5301    2.2946   -0.3838 H   0  0  0  0  0  0  0  0  0  0  0  0
  2  1  1  6
  2  3  1  0
  3  4  1  0
  4  5  1  0
  5  6  1  0
  6  7  1  1
  6  8  1  0
  8  9  1  0
  4 10  1  0
 10 11  1  0
 11 12  2  0
 12 13  1  0
 13 14  2  0
 14 15  1  0
 15 16  2  0
 16 17  1  0
 17 18  2  0
 18 19  1  0
 19 20  1  0
 20 21  1  0
 21 22  2  0
 21 23  1  0
 23 24  2  0
 24 25  1  0
 25 26  2  0
 26 27  1  0
 27 28  2  0
 28 29  1  0
 29 30  2  0
 30 31  1  0
 31 32  1  0
 32 33  2  0
  6  2  1  0
 33 10  1  0
 31  2  1  0
 16 11  1  0
 33 17  1  0
 23 18  1  0
 32 24  1  0
 30 25  1  0
  1 34  1  0
  1 35  1  0
  1 36  1  0
  4 37  1  6
  5 38  1  0
  5 39  1  0
  7 40  1  0
  8 41  1  0
  8 42  1  0
  9 43  1  0
 12 44  1  0
 13 45  1  0
 14 46  1  0
 15 47  1  0
 19 48  1  0
 19 49  1  0
 20 50  1  0
 26 51  1  0
 27 52  1  0
 28 53  1  0
 29 54  1  0
M  END
$$$$
[H]C1=C([H])C([H])(F)C([H])([H])C([H])=C1N([H])C(=O)C1(C(=O)N([H])c2c([H])c([H])c(Oc3c([H])c([H])nc4c([H])c(OC([H])([H])C([H])([H])C([H])([H])N5C([H])([H])C([H])([H])C([H])([H])C([H])([H])C5([H])[H])c(OC([H])([H])[H])c([H])c34)c(F)c2[H])C([H])([H])C1([H])[H]
     RDKit          3D

 84 89  0  0  0  0  0  0  0  0999 V2000
    3.8941   -3.7132    0.1913 C   0  0  0  0  0  0  0  0  0  0  0  0
    4.6565   -2.6079   -0.2681 O   0  0  0  0  0  0  0  0  0  0  0  0
    4.0305   -1.4283   -0.6539 C   0  0  0  0  0  0  0  0  0  0  0  0
    2.6597   -1.2972   -0.6016 C   0  0  0  0  0  0  0  0  0  0  0  0
    2.0436   -0.1222   -0.9870 C   0  0  0  0  0  0  0  0  0  0  0  0
    0.6510    0.0367   -0.9451 C   0  0  0  0  0  0  0  0  0  0  0  0
   -0.0755   -1.0256   -0.4996 O   0  0  0  0  0  0  0  0  0  0  0  0
   -1.4492   -1.0402   -0.3255 C   0  0  0  0  0  0  0  0  0  0  0  0
   -2.2606   -1.8743   -1.0649 C   0  0  0  0  0  0  0  0  0  0  0  0
   -3.6423   -1.8715   -0.8692 C   0  0  0  0  0  0  0  0  0  0  0  0
   -4.2526   -1.0654    0.0403 C   0  0  0  0  0  0  0  0  0  0  0  0
   -5.6503   -1.0411    0.3103 N   0  0  0  0  0  0  0  0  0  0  0  0
   -6.4608   -2.1680    0.2347 C   0  0  0  0  0  0  0  0  0  0  0  0
   -5.8498   -3.2675   -0.0680 O   0  0  0  0  0  0  0  0  0  0  0  0
   -7.9176   -2.3168    0.4538 C   0  0  0  0  0  0  0  0  0  0  0  0
   -8.5358   -3.5604   -0.1118 C   0  0  0  0  0  0  0  0  0  0  0  0
   -8.2258   -3.5095    1.3287 C   0  0  0  0  0  0  0  0  0  0  0  0
   -8.8577   -1.1862    0.5085 C   0  0  0  0  0  0  0  0  0  0  0  0
  -10.0295   -1.5183    0.9875 O   0  0  0  0  0  0  0  0  0  0  0  0
   -8.6712    0.1344    0.1256 N   0  0  0  0  0  0  0  0  0  0  0  0
   -9.7018    1.1257    0.2594 C   0  0  0  0  0  0  0  0  0  0  0  0
  -10.1675    1.7824   -0.7844 C   0  0  0  0  0  0  0  0  0  0  0  0
  -11.2276    2.8066   -0.6621 C   0  0  0  0  0  0  0  0  0  0  0  0
  -11.7828    3.0373    0.6810 C   0  0  0  0  0  0  0  0  0  0  0  0
  -13.1708    2.8095    0.6256 F   0  0  0  0  0  0  0  0  0  0  0  0
  -11.1912    2.2557    1.7682 C   0  0  0  0  0  0  0  0  0  0  0  0
  -10.2373    1.3788    1.5761 C   0  0  0  0  0  0  0  0  0  0  0  0
   -3.4356   -0.2282    0.7824 C   0  0  0  0  0  0  0  0  0  0  0  0
   -2.0698   -0.2231    0.5976 C   0  0  0  0  0  0  0  0  0  0  0  0
   -1.3225    0.6137    1.3883 F   0  0  0  0  0  0  0  0  0  0  0  0
    0.0582    1.2154   -1.3358 C   0  0  0  0  0  0  0  0  0  0  0  0
    0.8455    2.2647   -1.7771 C   0  0  0  0  0  0  0  0  0  0  0  0
    2.1789    2.1086   -1.8152 N   0  0  0  0  0  0  0  0  0  0  0  0
    2.7728    0.9564   -1.4354 C   0  0  0  0  0  0  0  0  0  0  0  0
    4.1549    0.8104   -1.4827 C   0  0  0  0  0  0  0  0  0  0  0  0
    4.7873   -0.3669   -1.0977 C   0  0  0  0  0  0  0  0  0  0  0  0
    6.1653   -0.5173   -1.1421 O   0  0  0  0  0  0  0  0  0  0  0  0
    6.9247    0.5946   -1.5969 C   0  0  0  0  0  0  0  0  0  0  0  0
    8.3981    0.2160   -1.5674 C   0  0  0  0  0  0  0  0  0  0  0  0
    8.7652   -0.1374   -0.1628 C   0  0  0  0  0  0  0  0  0  0  0  0
    8.5410    0.9713    0.7124 N   0  0  0  0  0  0  0  0  0  0  0  0
    8.8626    0.5943    2.0908 C   0  0  0  0  0  0  0  0  0  0  0  0
   10.1341    1.2231    2.5590 C   0  0  0  0  0  0  0  0  0  0  0  0
   11.2236    1.2674    1.5088 C   0  0  0  0  0  0  0  0  0  0  0  0
   10.7617    1.8537    0.2168 C   0  0  0  0  0  0  0  0  0  0  0  0
    9.2894    2.1446    0.3223 C   0  0  0  0  0  0  0  0  0  0  0  0
    4.5297   -4.6049    0.2046 H   0  0  0  0  0  0  0  0  0  0  0  0
    3.0368   -3.9207   -0.4537 H   0  0  0  0  0  0  0  0  0  0  0  0
    3.5857   -3.4838    1.2349 H   0  0  0  0  0  0  0  0  0  0  0  0
    2.0594   -2.1200   -0.2574 H   0  0  0  0  0  0  0  0  0  0  0  0
   -1.7910   -2.5214   -1.7915 H   0  0  0  0  0  0  0  0  0  0  0  0
   -4.2011   -2.5275   -1.4890 H   0  0  0  0  0  0  0  0  0  0  0  0
   -5.9930   -0.0843    0.6053 H   0  0  0  0  0  0  0  0  0  0  0  0
   -7.8776   -4.1574   -0.7922 H   0  0  0  0  0  0  0  0  0  0  0  0
   -9.5862   -3.5314   -0.4675 H   0  0  0  0  0  0  0  0  0  0  0  0
   -9.0668   -3.4296    2.0590 H   0  0  0  0  0  0  0  0  0  0  0  0
   -7.4089   -4.1370    1.6985 H   0  0  0  0  0  0  0  0  0  0  0  0
   -7.7902    0.4562   -0.3104 H   0  0  0  0  0  0  0  0  0  0  0  0
   -9.7650    1.5684   -1.7719 H   0  0  0  0  0  0  0  0  0  0  0  0
  -10.7674    3.7837   -1.0343 H   0  0  0  0  0  0  0  0  0  0  0  0
  -12.0168    2.5426   -1.4224 H   0  0  0  0  0  0  0  0  0  0  0  0
  -11.6408    4.1294    0.9469 H   0  0  0  0  0  0  0  0  0  0  0  0
  -11.5771    2.4212    2.8054 H   0  0  0  0  0  0  0  0  0  0  0  0
   -9.8450    0.8363    2.4194 H   0  0  0  0  0  0  0  0  0  0  0  0
   -3.9079    0.4182    1.5091 H   0  0  0  0  0  0  0  0  0  0  0  0
   -0.9995    1.3667   -1.3304 H   0  0  0  0  0  0  0  0  0  0  0  0
    0.3645    3.1827   -2.0801 H   0  0  0  0  0  0  0  0  0  0  0  0
    4.7341    1.6500   -1.8317 H   0  0  0  0  0  0  0  0  0  0  0  0
    6.7902    1.4564   -0.9075 H   0  0  0  0  0  0  0  0  0  0  0  0
    6.6790    0.8981   -2.6163 H   0  0  0  0  0  0  0  0  0  0  0  0
    8.5172   -0.6510   -2.2580 H   0  0  0  0  0  0  0  0  0  0  0  0
    8.9717    1.0419   -1.9999 H   0  0  0  0  0  0  0  0  0  0  0  0
    8.1514   -1.0174    0.1504 H   0  0  0  0  0  0  0  0  0  0  0  0
    9.8226   -0.4865   -0.1718 H   0  0  0  0  0  0  0  0  0  0  0  0
    8.8820   -0.5200    2.1502 H   0  0  0  0  0  0  0  0  0  0  0  0
    8.0335    0.9450    2.7222 H   0  0  0  0  0  0  0  0  0  0  0  0
   10.5337    0.5668    3.3880 H   0  0  0  0  0  0  0  0  0  0  0  0
    9.9539    2.2035    3.0123 H   0  0  0  0  0  0  0  0  0  0  0  0
   11.7159    0.2783    1.3726 H   0  0  0  0  0  0  0  0  0  0  0  0
   12.0186    1.9324    1.9308 H   0  0  0  0  0  0  0  0  0  0  0  0
   10.9303    1.1781   -0.6500 H   0  0  0  0  0  0  0  0  0  0  0  0
   11.3098    2.7776   -0.0117 H   0  0  0  0  0  0  0  0  0  0  0  0
    9.0848    2.9287    1.0867 H   0  0  0  0  0  0  0  0  0  0  0  0
    8.9162    2.5157   -0.6375 H   0  0  0  0  0  0  0  0  0  0  0  0
  1  2  1  0
  2  3  1  0
  3  4  2  0
  4  5  1  0
  5  6  2  0
  6  7  1  0
  7  8  1  0
  8  9  2  0
  9 10  1  0
 10 11  2  0
 11 12  1  0
 12 13  1  0
 13 14  2  0
 13 15  1  0
 15 16  1  0
 16 17  1  0
 15 18  1  0
 18 19  2  0
 18 20  1  0
 20 21  1  0
 21 22  2  0
 22 23  1  0
 23 24  1  0
 24 25  1  0
 24 26  1  0
 26 27  2  0
 11 28  1  0
 28 29  2  0
 29 30  1  0
  6 31  1  0
 31 32  2  0
 32 33  1  0
 33 34  2  0
 34 35  1  0
 35 36  2  0
 36 37  1  0
 37 38  1  0
 38 39  1  0
 39 40  1  0
 40 41  1  0
 41 42  1  0
 42 43  1  0
 43 44  1  0
 44 45  1  0
 45 46  1  0
 36  3  1  0
 46 41  1  0
 34  5  1  0
 29  8  1  0
 17 15  1  0
 27 21  1  0
  1 47  1  0
  1 48  1  0
  1 49  1  0
  4 50  1  0
  9 51  1  0
 10 52  1  0
 12 53  1  0
 16 54  1  0
 16 55  1  0
 17 56  1  0
 17 57  1  0
 20 58  1  0
 22 59  1  0
 23 60  1  0
 23 61  1  0
 24 62  1  0
 26 63  1  0
 27 64  1  0
 28 65  1  0
 31 66  1  0
 32 67  1  0
 35 68  1  0
 38 69  1  0
 38 70  1  0
 39 71  1  0
 39 72  1  0
 40 73  1  0
 40 74  1  0
 42 75  1  0
 42 76  1  0
 43 77  1  0
 43 78  1  0
 44 79  1  0
 44 80  1  0
 45 81  1  0
 45 82  1  0
 46 83  1  0
 46 84  1  0
M  END
$$$$
[H]C1=C([H])C([H])(F)C([H])([H])C([H])=C1N([H])C(=O)C1(C(=O)N([H])c2c([H])c([H])c(Oc3c([H])c([H])nc4c([H])c(OC([H])([H])C([H])([H])C([H])([H])N5C([H])([H])C([H])([H])C([H])([H])C5([H])[H])c(OC([H])([H])[H])c([H])c34)c(F)c2[H])C([H])([H])C1([H])[H]
     RDKit          3D

 81 86  0  0  0  0  0  0  0  0999 V2000
   -3.5877    0.0230   -2.5605 C   0  0  0  0  0  0  0  0  0  0  0  0
   -4.4433   -0.0435   -1.4508 O   0  0  0  0  0  0  0  0  0  0  0  0
   -3.9880   -0.2494   -0.1491 C   0  0  0  0  0  0  0  0  0  0  0  0
   -2.6478   -0.3994    0.1096 C   0  0  0  0  0  0  0  0  0  0  0  0
   -2.1587   -0.6042    1.3755 C   0  0  0  0  0  0  0  0  0  0  0  0
   -0.7923   -0.7567    1.6112 C   0  0  0  0  0  0  0  0  0  0  0  0
    0.0250   -0.6916    0.5279 O   0  0  0  0  0  0  0  0  0  0  0  0
    1.3913   -0.8525    0.4754 C   0  0  0  0  0  0  0  0  0  0  0  0
    2.2342    0.1729    0.0692 C   0  0  0  0  0  0  0  0  0  0  0  0
    3.5918   -0.0103    0.0220 C   0  0  0  0  0  0  0  0  0  0  0  0
    4.2120   -1.2204    0.3732 C   0  0  0  0  0  0  0  0  0  0  0  0
    5.6358   -1.3113    0.3171 N   0  0  0  0  0  0  0  0  0  0  0  0
    6.4056   -2.4553    0.1478 C   0  0  0  0  0  0  0  0  0  0  0  0
    5.7718   -3.5663    0.0427 O   0  0  0  0  0  0  0  0  0  0  0  0
    7.8601   -2.5227    0.0895 C   0  0  0  0  0  0  0  0  0  0  0  0
    8.4588   -3.8753   -0.2867 C   0  0  0  0  0  0  0  0  0  0  0  0
    8.4428   -3.4847    1.1392 C   0  0  0  0  0  0  0  0  0  0  0  0
    8.7035   -1.3424   -0.2300 C   0  0  0  0  0  0  0  0  0  0  0  0
    9.9255   -1.4864    0.1717 O   0  0  0  0  0  0  0  0  0  0  0  0
    8.2626   -0.2155   -0.8859 N   0  0  0  0  0  0  0  0  0  0  0  0
    8.9663    0.9916   -1.2279 C   0  0  0  0  0  0  0  0  0  0  0  0
   10.2261    1.1961   -0.9431 C   0  0  0  0  0  0  0  0  0  0  0  0
   10.9546    2.4310   -1.2907 C   0  0  0  0  0  0  0  0  0  0  0  0
   10.1946    3.4846   -1.9837 C   0  0  0  0  0  0  0  0  0  0  0  0
   10.2335    4.6437   -1.1848 F   0  0  0  0  0  0  0  0  0  0  0  0
    8.8021    3.1813   -2.2644 C   0  0  0  0  0  0  0  0  0  0  0  0
    8.2359    2.0634   -1.9301 C   0  0  0  0  0  0  0  0  0  0  0  0
    3.3805   -2.2291    0.7736 C   0  0  0  0  0  0  0  0  0  0  0  0
    1.9865   -2.0377    0.8203 C   0  0  0  0  0  0  0  0  0  0  0  0
    1.2365   -3.0982    1.2142 F   0  0  0  0  0  0  0  0  0  0  0  0
   -0.4287   -0.9581    2.9201 C   0  0  0  0  0  0  0  0  0  0  0  0
   -1.3521   -1.0070    3.9339 C   0  0  0  0  0  0  0  0  0  0  0  0
   -2.6377   -0.8567    3.6575 N   0  0  0  0  0  0  0  0  0  0  0  0
   -3.0892   -0.6527    2.3915 C   0  0  0  0  0  0  0  0  0  0  0  0
   -4.4416   -0.5052    2.1646 C   0  0  0  0  0  0  0  0  0  0  0  0
   -4.8811   -0.3029    0.8827 C   0  0  0  0  0  0  0  0  0  0  0  0
   -6.2490   -0.1596    0.6965 O   0  0  0  0  0  0  0  0  0  0  0  0
   -7.1921   -0.2052    1.7204 C   0  0  0  0  0  0  0  0  0  0  0  0
   -8.5663   -0.0150    1.1322 C   0  0  0  0  0  0  0  0  0  0  0  0
   -8.6955    1.3020    0.4220 C   0  0  0  0  0  0  0  0  0  0  0  0
  -10.0037    1.4621   -0.1281 N   0  0  0  0  0  0  0  0  0  0  0  0
  -10.2287    2.6808   -0.8350 C   0  0  0  0  0  0  0  0  0  0  0  0
  -11.1566    2.3511   -2.0081 C   0  0  0  0  0  0  0  0  0  0  0  0
  -11.7165    1.0092   -1.5741 C   0  0  0  0  0  0  0  0  0  0  0  0
  -10.4689    0.3786   -0.9383 C   0  0  0  0  0  0  0  0  0  0  0  0
   -4.1462    0.4826   -3.4058 H   0  0  0  0  0  0  0  0  0  0  0  0
   -2.7486    0.7305   -2.3481 H   0  0  0  0  0  0  0  0  0  0  0  0
   -3.2042   -0.9751   -2.8684 H   0  0  0  0  0  0  0  0  0  0  0  0
   -1.9172   -0.3599   -0.6920 H   0  0  0  0  0  0  0  0  0  0  0  0
    1.7492    1.1006   -0.1989 H   0  0  0  0  0  0  0  0  0  0  0  0
    4.2444    0.7990   -0.2985 H   0  0  0  0  0  0  0  0  0  0  0  0
    6.1068   -0.3582    0.4880 H   0  0  0  0  0  0  0  0  0  0  0  0
    7.7266   -4.6220   -0.6534 H   0  0  0  0  0  0  0  0  0  0  0  0
    9.4183   -3.8918   -0.8472 H   0  0  0  0  0  0  0  0  0  0  0  0
    9.4104   -3.1476    1.6028 H   0  0  0  0  0  0  0  0  0  0  0  0
    7.7630   -3.9592    1.8454 H   0  0  0  0  0  0  0  0  0  0  0  0
    7.2650   -0.2466   -1.2614 H   0  0  0  0  0  0  0  0  0  0  0  0
   10.8241    0.4296   -0.4110 H   0  0  0  0  0  0  0  0  0  0  0  0
   11.8456    2.1794   -1.9484 H   0  0  0  0  0  0  0  0  0  0  0  0
   11.3908    2.8108   -0.3161 H   0  0  0  0  0  0  0  0  0  0  0  0
   10.6645    3.7949   -2.9610 H   0  0  0  0  0  0  0  0  0  0  0  0
    8.2315    3.9729   -2.7929 H   0  0  0  0  0  0  0  0  0  0  0  0
    7.1670    1.8981   -2.1758 H   0  0  0  0  0  0  0  0  0  0  0  0
    3.7856   -3.1876    1.0764 H   0  0  0  0  0  0  0  0  0  0  0  0
    0.6075   -1.0712    3.1537 H   0  0  0  0  0  0  0  0  0  0  0  0
   -1.0717   -1.1659    4.9745 H   0  0  0  0  0  0  0  0  0  0  0  0
   -5.1120   -0.5552    3.0169 H   0  0  0  0  0  0  0  0  0  0  0  0
   -7.1820   -1.2490    2.1462 H   0  0  0  0  0  0  0  0  0  0  0  0
   -6.9796    0.4646    2.5680 H   0  0  0  0  0  0  0  0  0  0  0  0
   -9.3685   -0.0413    1.9143 H   0  0  0  0  0  0  0  0  0  0  0  0
   -8.7385   -0.8568    0.4359 H   0  0  0  0  0  0  0  0  0  0  0  0
   -8.5595    2.1075    1.1881 H   0  0  0  0  0  0  0  0  0  0  0  0
   -7.8715    1.4342   -0.3151 H   0  0  0  0  0  0  0  0  0  0  0  0
  -10.7856    3.4045   -0.1999 H   0  0  0  0  0  0  0  0  0  0  0  0
   -9.3011    3.1863   -1.1756 H   0  0  0  0  0  0  0  0  0  0  0  0
  -11.9700    3.1048   -2.1030 H   0  0  0  0  0  0  0  0  0  0  0  0
  -10.5960    2.2617   -2.9622 H   0  0  0  0  0  0  0  0  0  0  0  0
  -12.4672    1.2054   -0.7918 H   0  0  0  0  0  0  0  0  0  0  0  0
  -12.0978    0.4163   -2.4102 H   0  0  0  0  0  0  0  0  0  0  0  0
  -10.7030   -0.5229   -0.3684 H   0  0  0  0  0  0  0  0  0  0  0  0
   -9.7919    0.1704   -1.8195 H   0  0  0  0  0  0  0  0  0  0  0  0
  1  2  1  0
  2  3  1  0
  3  4  2  0
  4  5  1  0
  5  6  2  0
  6  7  1  0
  7  8  1  0
  8  9  2  0
  9 10  1  0
 10 11  2  0
 11 12  1  0
 12 13  1  0
 13 14  2  0
 13 15  1  0
 15 16  1  0
 16 17  1  0
 15 18  1  0
 18 19  2  0
 18 20  1  0
 20 21  1  0
 21 22  2  0
 22 23  1  0
 23 24  1  0
 24 25  1  0
 24 26  1  0
 26 27  2  0
 11 28  1  0
 28 29  2  0
 29 30  1  0
  6 31  1  0
 31 32  2  0
 32 33  1  0
 33 34  2  0
 34 35  1  0
 35 36  2  0
 36 37  1  0
 37 38  1  0
 38 39  1  0
 39 40  1  0
 40 41  1  0
 41 42  1  0
 42 43  1  0
 43 44  1  0
 44 45  1  0
 36  3  1  0
 45 41  1  0
 34  5  1  0
 29  8  1  0
 17 15  1  0
 27 21  1  0
  1 46  1  0
  1 47  1  0
  1 48  1  0
  4 49  1  0
  9 50  1  0
 10 51  1  0
 12 52  1  0
 16 53  1  0
 16 54  1  0
 17 55  1  0
 17 56  1  0
 20 57  1  0
 22 58  1  0
 23 59  1  0
 23 60  1  0
 24 61  1  0
 26 62  1  0
 27 63  1  0
 28 64  1  0
 31 65  1  0
 32 66  1  0
 35 67  1  0
 38 68  1  0
 38 69  1  0
 39 70  1  0
 39 71  1  0
 40 72  1  0
 40 73  1  0
 42 74  1  0
 42 75  1  0
 43 76  1  0
 43 77  1  0
 44 78  1  0
 44 79  1  0
 45 80  1  0
 45 81  1  0
M  END
$$$$
[H]C1=C([H])C([H])(F)C([H])([H])C([H])=C1N([H])C(=O)C1(C(=O)N([H])c2c([H])c([H])c(Oc3c([H])c([H])nc4c([H])c(OC([H])([H])C([H])([H])C([H])([H])N5C([H])([H])C([H])([H])C([H])(C([H])([H])[H])C([H])([H])C5([H])[H])c(OC([H])([H])[H])c([H])c34)c(F)c2[H])C([H])([H])C1([H])[H]
     RDKit          3D

 87 92  0  0  0  0  0  0  0  0999 V2000
   -3.0785    0.9840    2.9446 C   0  0  0  0  0  0  0  0  0  0  0  0
   -3.9031    0.6001    1.8855 O   0  0  0  0  0  0  0  0  0  0  0  0
   -3.3679    0.0849    0.7226 C   0  0  0  0  0  0  0  0  0  0  0  0
   -1.9804   -0.0384    0.6399 C   0  0  0  0  0  0  0  0  0  0  0  0
   -1.4316   -0.5513   -0.5147 C   0  0  0  0  0  0  0  0  0  0  0  0
   -0.0349   -0.6840   -0.6153 C   0  0  0  0  0  0  0  0  0  0  0  0
    0.7128   -0.2873    0.4702 O   0  0  0  0  0  0  0  0  0  0  0  0
    2.0838   -0.4723    0.4829 C   0  0  0  0  0  0  0  0  0  0  0  0
    2.9490    0.6001    0.5003 C   0  0  0  0  0  0  0  0  0  0  0  0
    4.2979    0.4308    0.5145 C   0  0  0  0  0  0  0  0  0  0  0  0
    4.9250   -0.8414    0.5133 C   0  0  0  0  0  0  0  0  0  0  0  0
    6.3265   -0.8966    0.5252 N   0  0  0  0  0  0  0  0  0  0  0  0
    7.1090   -2.0317    0.4365 C   0  0  0  0  0  0  0  0  0  0  0  0
    6.5483   -3.1857    0.3227 O   0  0  0  0  0  0  0  0  0  0  0  0
    8.5926   -2.1273    0.4511 C   0  0  0  0  0  0  0  0  0  0  0  0
    9.2071   -3.3747    1.0628 C   0  0  0  0  0  0  0  0  0  0  0  0
    9.1485   -3.2060   -0.4295 C   0  0  0  0  0  0  0  0  0  0  0  0
    9.3963   -0.9194    0.6715 C   0  0  0  0  0  0  0  0  0  0  0  0
    8.9530    0.0799    1.2391 O   0  0  0  0  0  0  0  0  0  0  0  0
   10.7663   -0.8365    0.2298 N   0  0  0  0  0  0  0  0  0  0  0  0
   11.5347    0.3385    0.4356 C   0  0  0  0  0  0  0  0  0  0  0  0
   12.0434    0.9405   -0.6112 C   0  0  0  0  0  0  0  0  0  0  0  0
   12.8548    2.1592   -0.5102 C   0  0  0  0  0  0  0  0  0  0  0  0
   13.0082    2.7280    0.8563 C   0  0  0  0  0  0  0  0  0  0  0  0
   12.4179    4.0081    0.8164 F   0  0  0  0  0  0  0  0  0  0  0  0
   12.3963    1.9580    1.9334 C   0  0  0  0  0  0  0  0  0  0  0  0
   11.7215    0.8691    1.7600 C   0  0  0  0  0  0  0  0  0  0  0  0
    4.0542   -1.8931    0.4975 C   0  0  0  0  0  0  0  0  0  0  0  0
    2.6604   -1.7176    0.4827 C   0  0  0  0  0  0  0  0  0  0  0  0
    1.8732   -2.8458    0.4930 F   0  0  0  0  0  0  0  0  0  0  0  0
    0.4995   -1.1940   -1.7641 C   0  0  0  0  0  0  0  0  0  0  0  0
   -0.3389   -1.5697   -2.8019 C   0  0  0  0  0  0  0  0  0  0  0  0
   -1.6631   -1.4457   -2.7096 N   0  0  0  0  0  0  0  0  0  0  0  0
   -2.1993   -0.9486   -1.5938 C   0  0  0  0  0  0  0  0  0  0  0  0
   -3.5742   -0.7976   -1.4424 C   0  0  0  0  0  0  0  0  0  0  0  0
   -4.1790   -0.2950   -0.3220 C   0  0  0  0  0  0  0  0  0  0  0  0
   -5.5564   -0.1864   -0.2742 O   0  0  0  0  0  0  0  0  0  0  0  0
   -6.4099   -0.5626   -1.3057 C   0  0  0  0  0  0  0  0  0  0  0  0
   -7.8397   -0.2965   -0.9110 C   0  0  0  0  0  0  0  0  0  0  0  0
   -8.1005    1.1757   -0.6184 C   0  0  0  0  0  0  0  0  0  0  0  0
   -9.4544    1.3229   -0.2890 N   0  0  0  0  0  0  0  0  0  0  0  0
   -9.9778    0.7887    0.8920 C   0  0  0  0  0  0  0  0  0  0  0  0
  -11.4758    1.0809    0.9273 C   0  0  0  0  0  0  0  0  0  0  0  0
  -12.0963    0.6694   -0.3858 C   0  0  0  0  0  0  0  0  0  0  0  0
  -13.6008    0.8365   -0.3682 C   0  0  0  0  0  0  0  0  0  0  0  0
  -11.4634    1.4141   -1.5401 C   0  0  0  0  0  0  0  0  0  0  0  0
  -10.2633    2.2184   -1.0176 C   0  0  0  0  0  0  0  0  0  0  0  0
   -3.7453    1.4806    3.7086 H   0  0  0  0  0  0  0  0  0  0  0  0
   -2.2347    1.6277    2.6636 H   0  0  0  0  0  0  0  0  0  0  0  0
   -2.6654    0.0808    3.4802 H   0  0  0  0  0  0  0  0  0  0  0  0
   -1.3337    0.2521    1.4428 H   0  0  0  0  0  0  0  0  0  0  0  0
    2.5030    1.5961    0.5009 H   0  0  0  0  0  0  0  0  0  0  0  0
    4.9524    1.3060    0.5279 H   0  0  0  0  0  0  0  0  0  0  0  0
    6.8361    0.0334    0.5987 H   0  0  0  0  0  0  0  0  0  0  0  0
    8.5338   -4.1181    1.5207 H   0  0  0  0  0  0  0  0  0  0  0  0
   10.1894   -3.3100    1.5638 H   0  0  0  0  0  0  0  0  0  0  0  0
   10.0992   -3.0657   -0.9463 H   0  0  0  0  0  0  0  0  0  0  0  0
    8.4291   -3.8352   -1.0014 H   0  0  0  0  0  0  0  0  0  0  0  0
   11.2377   -1.6256   -0.2466 H   0  0  0  0  0  0  0  0  0  0  0  0
   11.8517    0.5096   -1.6075 H   0  0  0  0  0  0  0  0  0  0  0  0
   13.8598    1.8851   -0.9567 H   0  0  0  0  0  0  0  0  0  0  0  0
   12.4110    2.9077   -1.2293 H   0  0  0  0  0  0  0  0  0  0  0  0
   14.1005    2.8469    1.0909 H   0  0  0  0  0  0  0  0  0  0  0  0
   12.5083    2.3180    2.9616 H   0  0  0  0  0  0  0  0  0  0  0  0
   11.2949    0.3584    2.6390 H   0  0  0  0  0  0  0  0  0  0  0  0
    4.4171   -2.9195    0.5011 H   0  0  0  0  0  0  0  0  0  0  0  0
    1.5644   -1.2892   -1.8730 H   0  0  0  0  0  0  0  0  0  0  0  0
    0.1295   -1.9794   -3.7181 H   0  0  0  0  0  0  0  0  0  0  0  0
   -4.1966   -1.1029   -2.2772 H   0  0  0  0  0  0  0  0  0  0  0  0
   -6.2368   -1.6646   -1.4691 H   0  0  0  0  0  0  0  0  0  0  0  0
   -6.1593   -0.0998   -2.2911 H   0  0  0  0  0  0  0  0  0  0  0  0
   -8.0234   -0.9092    0.0221 H   0  0  0  0  0  0  0  0  0  0  0  0
   -8.5647   -0.6901   -1.6493 H   0  0  0  0  0  0  0  0  0  0  0  0
   -7.9076    1.7201   -1.5885 H   0  0  0  0  0  0  0  0  0  0  0  0
   -7.4247    1.5726    0.1400 H   0  0  0  0  0  0  0  0  0  0  0  0
   -9.4936    1.1718    1.8359 H   0  0  0  0  0  0  0  0  0  0  0  0
   -9.8858   -0.3337    0.8790 H   0  0  0  0  0  0  0  0  0  0  0  0
  -11.6897    2.1325    1.1977 H   0  0  0  0  0  0  0  0  0  0  0  0
  -11.9304    0.4561    1.7414 H   0  0  0  0  0  0  0  0  0  0  0  0
  -11.9022   -0.4405   -0.4738 H   0  0  0  0  0  0  0  0  0  0  0  0
  -13.9555    0.5945    0.6408 H   0  0  0  0  0  0  0  0  0  0  0  0
  -14.0206    0.0698   -1.0603 H   0  0  0  0  0  0  0  0  0  0  0  0
  -13.9170    1.8572   -0.7058 H   0  0  0  0  0  0  0  0  0  0  0  0
  -12.2165    2.0590   -1.9893 H   0  0  0  0  0  0  0  0  0  0  0  0
  -11.0159    0.7060   -2.2825 H   0  0  0  0  0  0  0  0  0  0  0  0
   -9.7587    2.7468   -1.8315 H   0  0  0  0  0  0  0  0  0  0  0  0
  -10.7312    3.0122   -0.3702 H   0  0  0  0  0  0  0  0  0  0  0  0
  1  2  1  0
  2  3  1  0
  3  4  2  0
  4  5  1  0
  5  6  2  0
  6  7  1  0
  7  8  1  0
  8  9  2  0
  9 10  1  0
 10 11  2  0
 11 12  1  0
 12 13  1  0
 13 14  2  0
 13 15  1  0
 15 16  1  0
 16 17  1  0
 15 18  1  0
 18 19  2  0
 18 20  1  0
 20 21  1  0
 21 22  2  0
 22 23  1  0
 23 24  1  0
 24 25  1  0
 24 26  1  0
 26 27  2  0
 11 28  1  0
 28 29  2  0
 29 30  1  0
  6 31  1  0
 31 32  2  0
 32 33  1  0
 33 34  2  0
 34 35  1  0
 35 36  2  0
 36 37  1  0
 37 38  1  0
 38 39  1  0
 39 40  1  0
 40 41  1  0
 41 42  1  0
 42 43  1  0
 43 44  1  0
 44 45  1  0
 44 46  1  0
 46 47  1  0
 36  3  1  0
 47 41  1  0
 34  5  1  0
 29  8  1  0
 17 15  1  0
 27 21  1  0
  1 48  1  0
  1 49  1  0
  1 50  1  0
  4 51  1  0
  9 52  1  0
 10 53  1  0
 12 54  1  0
 16 55  1  0
 16 56  1  0
 17 57  1  0
 17 58  1  0
 20 59  1  0
 22 60  1  0
 23 61  1  0
 23 62  1  0
 24 63  1  0
 26 64  1  0
 27 65  1  0
 28 66  1  0
 31 67  1  0
 32 68  1  0
 35 69  1  0
 38 70  1  0
 38 71  1  0
 39 72  1  0
 39 73  1  0
 40 74  1  0
 40 75  1  0
 42 76  1  0
 42 77  1  0
 43 78  1  0
 43 79  1  0
 44 80  1  0
 45 81  1  0
 45 82  1  0
 45 83  1  0
 46 84  1  0
 46 85  1  0
 47 86  1  0
 47 87  1  0
M  END
$$$$
[H]c1nc(N([H])c2c([H])c(OC([H])([H])[H])c(OC([H])([H])[H])c(OC([H])([H])[H])c2[H])nc(N([H])c2c([H])c([H])c([H])c([H])c2S(=O)(=O)C([H])(C([H])([H])[H])C([H])([H])[H])c1Cl
     RDKit          3D

 58 60  0  0  0  0  0  0  0  0999 V2000
    4.8824    1.6327    3.2650 C   0  0  0  0  0  0  0  0  0  0  0  0
    5.6399    0.8530    2.3637 O   0  0  0  0  0  0  0  0  0  0  0  0
    5.0338    0.3601    1.2287 C   0  0  0  0  0  0  0  0  0  0  0  0
    3.6917    0.6382    0.9915 C   0  0  0  0  0  0  0  0  0  0  0  0
    3.0898    0.1472   -0.1364 C   0  0  0  0  0  0  0  0  0  0  0  0
    1.7154    0.3610   -0.4381 N   0  0  0  0  0  0  0  0  0  0  0  0
    0.6772    0.6239    0.4691 C   0  0  0  0  0  0  0  0  0  0  0  0
    0.8466    0.6942    1.7901 N   0  0  0  0  0  0  0  0  0  0  0  0
   -0.2050    0.9505    2.5712 C   0  0  0  0  0  0  0  0  0  0  0  0
   -1.4496    1.1444    2.0779 C   0  0  0  0  0  0  0  0  0  0  0  0
   -2.8417    1.4977    3.0729 Cl  0  0  0  0  0  0  0  0  0  0  0  0
   -1.6634    1.0760    0.6823 C   0  0  0  0  0  0  0  0  0  0  0  0
   -2.9612    1.2262    0.1687 N   0  0  0  0  0  0  0  0  0  0  0  0
   -3.3267    1.2497   -1.1821 C   0  0  0  0  0  0  0  0  0  0  0  0
   -2.4002    1.5948   -2.1772 C   0  0  0  0  0  0  0  0  0  0  0  0
   -2.8144    1.7392   -3.4931 C   0  0  0  0  0  0  0  0  0  0  0  0
   -4.1208    1.5535   -3.8588 C   0  0  0  0  0  0  0  0  0  0  0  0
   -5.0009    1.2187   -2.8777 C   0  0  0  0  0  0  0  0  0  0  0  0
   -4.6623    1.0509   -1.5223 C   0  0  0  0  0  0  0  0  0  0  0  0
   -5.8537    0.5101   -0.3977 S   0  0  0  0  0  0  0  0  0  0  0  0
   -7.2166    0.6180   -1.1260 O   0  0  0  0  0  0  0  0  0  0  0  0
   -6.0430    1.4106    0.7926 O   0  0  0  0  0  0  0  0  0  0  0  0
   -5.7296   -1.1786    0.0786 C   0  0  0  0  0  0  0  0  0  0  0  0
   -7.0096   -1.5985    0.8518 C   0  0  0  0  0  0  0  0  0  0  0  0
   -4.5958   -1.5553    0.9554 C   0  0  0  0  0  0  0  0  0  0  0  0
   -0.5528    0.8152   -0.0201 N   0  0  0  0  0  0  0  0  0  0  0  0
    3.8416   -0.6336   -1.0434 C   0  0  0  0  0  0  0  0  0  0  0  0
    5.1615   -0.9085   -0.8134 C   0  0  0  0  0  0  0  0  0  0  0  0
    5.9293   -1.6647   -1.6714 O   0  0  0  0  0  0  0  0  0  0  0  0
    5.3608   -2.1980   -2.8543 C   0  0  0  0  0  0  0  0  0  0  0  0
    5.7283   -0.3902    0.3434 C   0  0  0  0  0  0  0  0  0  0  0  0
    7.0676   -0.6717    0.5733 O   0  0  0  0  0  0  0  0  0  0  0  0
    7.5046   -1.8089    1.2911 C   0  0  0  0  0  0  0  0  0  0  0  0
    4.4833    2.4962    2.7079 H   0  0  0  0  0  0  0  0  0  0  0  0
    4.0719    0.9762    3.6493 H   0  0  0  0  0  0  0  0  0  0  0  0
    5.5689    1.9622    4.0728 H   0  0  0  0  0  0  0  0  0  0  0  0
    3.1602    1.2723    1.7281 H   0  0  0  0  0  0  0  0  0  0  0  0
    1.4625    0.3157   -1.4758 H   0  0  0  0  0  0  0  0  0  0  0  0
   -0.0996    1.0154    3.6675 H   0  0  0  0  0  0  0  0  0  0  0  0
   -3.7205    1.3557    0.8697 H   0  0  0  0  0  0  0  0  0  0  0  0
   -1.3745    1.7671   -1.9145 H   0  0  0  0  0  0  0  0  0  0  0  0
   -2.0560    2.0053   -4.2154 H   0  0  0  0  0  0  0  0  0  0  0  0
   -4.4633    1.6657   -4.8958 H   0  0  0  0  0  0  0  0  0  0  0  0
   -6.0518    1.0663   -3.1550 H   0  0  0  0  0  0  0  0  0  0  0  0
   -5.7948   -1.8130   -0.8585 H   0  0  0  0  0  0  0  0  0  0  0  0
   -7.9006   -1.1390    0.3764 H   0  0  0  0  0  0  0  0  0  0  0  0
   -7.0236   -2.7025    0.8401 H   0  0  0  0  0  0  0  0  0  0  0  0
   -6.8857   -1.2636    1.9023 H   0  0  0  0  0  0  0  0  0  0  0  0
   -3.6585   -1.6702    0.3813 H   0  0  0  0  0  0  0  0  0  0  0  0
   -4.7638   -2.5586    1.4495 H   0  0  0  0  0  0  0  0  0  0  0  0
   -4.4912   -0.8118    1.7449 H   0  0  0  0  0  0  0  0  0  0  0  0
    3.3423   -1.0005   -1.9126 H   0  0  0  0  0  0  0  0  0  0  0  0
    6.1695   -2.5284   -3.5681 H   0  0  0  0  0  0  0  0  0  0  0  0
    4.7353   -1.4024   -3.3469 H   0  0  0  0  0  0  0  0  0  0  0  0
    4.7408   -3.0494   -2.5763 H   0  0  0  0  0  0  0  0  0  0  0  0
    7.0243   -1.7711    2.2923 H   0  0  0  0  0  0  0  0  0  0  0  0
    8.6009   -1.7900    1.3237 H   0  0  0  0  0  0  0  0  0  0  0  0
    7.2009   -2.7555    0.8010 H   0  0  0  0  0  0  0  0  0  0  0  0
  1  2  1  0
  2  3  1  0
  3  4  2  0
  4  5  1  0
  5  6  1  0
  6  7  1  0
  7  8  2  0
  8  9  1  0
  9 10  2  0
 10 11  1  0
 10 12  1  0
 12 13  1  0
 13 14  1  0
 14 15  2  0
 15 16  1  0
 16 17  2  0
 17 18  1  0
 18 19  2  0
 19 20  1  0
 20 21  2  0
 20 22  2  0
 20 23  1  0
 23 24  1  0
 23 25  1  0
 12 26  2  0
  5 27  2  0
 27 28  1  0
 28 29  1  0
 29 30  1  0
 28 31  2  0
 31 32  1  0
 32 33  1  0
 31  3  1  0
 26  7  1  0
 19 14  1  0
  1 34  1  0
  1 35  1  0
  1 36  1  0
  4 37  1  0
  6 38  1  0
  9 39  1  0
 13 40  1  0
 15 41  1  0
 16 42  1  0
 17 43  1  0
 18 44  1  0
 23 45  1  0
 24 46  1  0
 24 47  1  0
 24 48  1  0
 25 49  1  0
 25 50  1  0
 25 51  1  0
 27 52  1  0
 30 53  1  0
 30 54  1  0
 30 55  1  0
 33 56  1  0
 33 57  1  0
 33 58  1  0
M  END
$$$$
[H]c1nc2c([H])c(OC([H])([H])C([H])([H])C([H])([H])N3C([H])([H])C([H])([H])OC([H])([H])C3([H])[H])c(OC([H])([H])[H])c([H])c2c(Oc2c([H])c([H])c(N([H])C(=O)C3(C(=O)N([H])c4c([H])c([H])c(F)c([H])c4[H])C([H])([H])C3([H])[H])c([H])c2F)c1[H]
     RDKit          3D

 80 85  0  0  0  0  0  0  0  0999 V2000
   -3.8348   -0.7830   -2.5268 C   0  0  0  0  0  0  0  0  0  0  0  0
   -4.4085   -0.0831   -1.4692 O   0  0  0  0  0  0  0  0  0  0  0  0
   -3.7050    0.3915   -0.3940 C   0  0  0  0  0  0  0  0  0  0  0  0
   -2.3426    0.2299   -0.2625 C   0  0  0  0  0  0  0  0  0  0  0  0
   -1.6750    0.7344    0.8625 C   0  0  0  0  0  0  0  0  0  0  0  0
   -0.2898    0.5501    0.9662 C   0  0  0  0  0  0  0  0  0  0  0  0
    0.3435   -0.1256   -0.0602 O   0  0  0  0  0  0  0  0  0  0  0  0
    1.7161   -0.3803   -0.1332 C   0  0  0  0  0  0  0  0  0  0  0  0
    2.1597   -1.6934   -0.1033 C   0  0  0  0  0  0  0  0  0  0  0  0
    3.5189   -2.0068   -0.1774 C   0  0  0  0  0  0  0  0  0  0  0  0
    4.4887   -1.0391   -0.2815 C   0  0  0  0  0  0  0  0  0  0  0  0
    5.8792   -1.3421   -0.3734 N   0  0  0  0  0  0  0  0  0  0  0  0
    6.4824   -2.5462    0.0493 C   0  0  0  0  0  0  0  0  0  0  0  0
    5.8571   -3.4761    0.5938 O   0  0  0  0  0  0  0  0  0  0  0  0
    7.9663   -2.7108   -0.2057 C   0  0  0  0  0  0  0  0  0  0  0  0
    8.3768   -4.0792   -0.7264 C   0  0  0  0  0  0  0  0  0  0  0  0
    8.5635   -3.7277    0.7383 C   0  0  0  0  0  0  0  0  0  0  0  0
    8.7412   -1.5075   -0.5379 C   0  0  0  0  0  0  0  0  0  0  0  0
    9.2658   -1.4618   -1.7261 O   0  0  0  0  0  0  0  0  0  0  0  0
    8.9847   -0.4096    0.2987 N   0  0  0  0  0  0  0  0  0  0  0  0
    9.7265    0.7540   -0.0941 C   0  0  0  0  0  0  0  0  0  0  0  0
   10.8357    1.1147    0.5958 C   0  0  0  0  0  0  0  0  0  0  0  0
   11.5248    2.2599    0.2548 C   0  0  0  0  0  0  0  0  0  0  0  0
   11.0639    3.0368   -0.8057 C   0  0  0  0  0  0  0  0  0  0  0  0
   11.7002    4.1760   -1.1980 F   0  0  0  0  0  0  0  0  0  0  0  0
    9.9259    2.6771   -1.5228 C   0  0  0  0  0  0  0  0  0  0  0  0
    9.2822    1.5333   -1.1426 C   0  0  0  0  0  0  0  0  0  0  0  0
    4.0405    0.2679   -0.3104 C   0  0  0  0  0  0  0  0  0  0  0  0
    2.6818    0.5942   -0.2385 C   0  0  0  0  0  0  0  0  0  0  0  0
    2.2895    1.9005   -0.2942 F   0  0  0  0  0  0  0  0  0  0  0  0
    0.3644    1.0374    2.0620 C   0  0  0  0  0  0  0  0  0  0  0  0
   -0.3737    1.7049    3.0395 C   0  0  0  0  0  0  0  0  0  0  0  0
   -1.7048    1.8658    2.9116 N   0  0  0  0  0  0  0  0  0  0  0  0
   -2.3620    1.3966    1.8519 C   0  0  0  0  0  0  0  0  0  0  0  0
   -3.7219    1.5655    1.7321 C   0  0  0  0  0  0  0  0  0  0  0  0
   -4.3695    1.0741    0.6362 C   0  0  0  0  0  0  0  0  0  0  0  0
   -5.7174    1.2662    0.5493 O   0  0  0  0  0  0  0  0  0  0  0  0
   -6.4811    1.9426    1.5276 C   0  0  0  0  0  0  0  0  0  0  0  0
   -7.9347    2.0328    1.1448 C   0  0  0  0  0  0  0  0  0  0  0  0
   -8.4979    0.6486    1.0445 C   0  0  0  0  0  0  0  0  0  0  0  0
   -9.9036    0.6228    0.6831 N   0  0  0  0  0  0  0  0  0  0  0  0
  -10.3079   -0.7910    0.8619 C   0  0  0  0  0  0  0  0  0  0  0  0
  -11.6524   -1.0829    0.2872 C   0  0  0  0  0  0  0  0  0  0  0  0
  -11.9057   -0.4129   -0.9237 O   0  0  0  0  0  0  0  0  0  0  0  0
  -10.6875   -0.1604   -1.5210 C   0  0  0  0  0  0  0  0  0  0  0  0
   -9.9805    0.9527   -0.7449 C   0  0  0  0  0  0  0  0  0  0  0  0
   -3.5752   -1.8606   -2.2552 H   0  0  0  0  0  0  0  0  0  0  0  0
   -4.5499   -0.8738   -3.3932 H   0  0  0  0  0  0  0  0  0  0  0  0
   -2.9103   -0.3554   -2.9443 H   0  0  0  0  0  0  0  0  0  0  0  0
   -1.7881   -0.2915   -1.0522 H   0  0  0  0  0  0  0  0  0  0  0  0
    1.4435   -2.4997   -0.0192 H   0  0  0  0  0  0  0  0  0  0  0  0
    3.8115   -3.0467   -0.1742 H   0  0  0  0  0  0  0  0  0  0  0  0
    6.5102   -0.6145   -0.7952 H   0  0  0  0  0  0  0  0  0  0  0  0
    9.3550   -4.1910   -1.2604 H   0  0  0  0  0  0  0  0  0  0  0  0
    7.5489   -4.7822   -0.9962 H   0  0  0  0  0  0  0  0  0  0  0  0
    7.9285   -4.2048    1.5021 H   0  0  0  0  0  0  0  0  0  0  0  0
    9.5761   -3.4402    1.0968 H   0  0  0  0  0  0  0  0  0  0  0  0
    8.6269   -0.4382    1.3024 H   0  0  0  0  0  0  0  0  0  0  0  0
   11.2158    0.5228    1.4404 H   0  0  0  0  0  0  0  0  0  0  0  0
   12.4267    2.5904    0.7817 H   0  0  0  0  0  0  0  0  0  0  0  0
    9.5578    3.2991   -2.3588 H   0  0  0  0  0  0  0  0  0  0  0  0
    8.3940    1.2002   -1.6567 H   0  0  0  0  0  0  0  0  0  0  0  0
    4.7885    1.0431   -0.3850 H   0  0  0  0  0  0  0  0  0  0  0  0
    1.4077    0.9219    2.2023 H   0  0  0  0  0  0  0  0  0  0  0  0
    0.1267    2.1033    3.9130 H   0  0  0  0  0  0  0  0  0  0  0  0
   -4.2450    2.0957    2.5441 H   0  0  0  0  0  0  0  0  0  0  0  0
   -6.0816    2.9259    1.7614 H   0  0  0  0  0  0  0  0  0  0  0  0
   -6.4223    1.2583    2.4406 H   0  0  0  0  0  0  0  0  0  0  0  0
   -8.0945    2.6326    0.2433 H   0  0  0  0  0  0  0  0  0  0  0  0
   -8.4948    2.5991    1.9539 H   0  0  0  0  0  0  0  0  0  0  0  0
   -7.8870    0.1130    0.2654 H   0  0  0  0  0  0  0  0  0  0  0  0
   -8.3089    0.1370    2.0005 H   0  0  0  0  0  0  0  0  0  0  0  0
   -9.4878   -1.3997    0.4459 H   0  0  0  0  0  0  0  0  0  0  0  0
  -10.2930   -0.9120    1.9864 H   0  0  0  0  0  0  0  0  0  0  0  0
  -11.6772   -2.1790    0.0299 H   0  0  0  0  0  0  0  0  0  0  0  0
  -12.4398   -0.9525    1.0381 H   0  0  0  0  0  0  0  0  0  0  0  0
  -10.0219   -1.0279   -1.4792 H   0  0  0  0  0  0  0  0  0  0  0  0
  -10.8743    0.1453   -2.5500 H   0  0  0  0  0  0  0  0  0  0  0  0
  -10.5228    1.8993   -0.8854 H   0  0  0  0  0  0  0  0  0  0  0  0
   -8.9666    1.0724   -1.1712 H   0  0  0  0  0  0  0  0  0  0  0  0
  1  2  1  0
  2  3  1  0
  3  4  2  0
  4  5  1  0
  5  6  2  0
  6  7  1  0
  7  8  1  0
  8  9  2  0
  9 10  1  0
 10 11  2  0
 11 12  1  0
 12 13  1  0
 13 14  2  0
 13 15  1  0
 15 16  1  0
 16 17  1  0
 15 18  1  0
 18 19  2  0
 18 20  1  0
 20 21  1  0
 21 22  2  0
 22 23  1  0
 23 24  2  0
 24 25  1  0
 24 26  1  0
 26 27  2  0
 11 28  1  0
 28 29  2  0
 29 30  1  0
  6 31  1  0
 31 32  2  0
 32 33  1  0
 33 34  2  0
 34 35  1  0
 35 36  2  0
 36 37  1  0
 37 38  1  0
 38 39  1  0
 39 40  1  0
 40 41  1  0
 41 42  1  0
 42 43  1  0
 43 44  1  0
 44 45  1  0
 45 46  1  0
 36  3  1  0
 46 41  1  0
 34  5  1  0
 29  8  1  0
 17 15  1  0
 27 21  1  0
  1 47  1  0
  1 48  1  0
  1 49  1  0
  4 50  1  0
  9 51  1  0
 10 52  1  0
 12 53  1  0
 16 54  1  0
 16 55  1  0
 17 56  1  0
 17 57  1  0
 20 58  1  0
 22 59  1  0
 23 60  1  0
 26 61  1  0
 27 62  1  0
 28 63  1  0
 31 64  1  0
 32 65  1  0
 35 66  1  0
 38 67  1  0
 38 68  1  0
 39 69  1  0
 39 70  1  0
 40 71  1  0
 40 72  1  0
 42 73  1  0
 42 74  1  0
 43 75  1  0
 43 76  1  0
 45 77  1  0
 45 78  1  0
 46 79  1  0
 46 80  1  0
M  END
$$$$
[H]c1c([H])c([H])c2c(c1[H])c1c3c(c4c5c([H])c([H])c([H])c([H])c5n5c4c1n2[C@@]1([H])O[C@]5(C([H])([H])[H])[C@@]([H])(OC([H])([H])[H])[C@@]([H])(N([H])C([H])([H])[H])C1([H])[H])C([H])([H])N([H])C3=O
     RDKit          3D

 61 68  0  0  0  0  0  0  0  0999 V2000
   -2.5900    1.1246    2.6909 C   0  0  0  0  0  0  0  0  0  0  0  0
   -2.2701    0.1494    1.6691 N   0  0  0  0  0  0  0  0  0  0  0  0
   -2.7037    0.7256    0.3894 C   0  0  1  0  0  0  0  0  0  0  0  0
   -1.9693    1.9591    0.0600 C   0  0  0  0  0  0  0  0  0  0  0  0
   -1.0374    1.8542   -1.1025 C   0  0  2  0  0  0  0  0  0  0  0  0
   -1.1108    0.8211   -1.8978 O   0  0  0  0  0  0  0  0  0  0  0  0
   -1.4719   -0.4453   -1.4993 C   0  0  2  0  0  0  0  0  0  0  0  0
   -1.8587   -1.0747   -2.8537 C   0  0  0  0  0  0  0  0  0  0  0  0
   -2.6627   -0.3659   -0.6565 C   0  0  1  0  0  0  0  0  0  0  0  0
   -3.0555   -1.5061    0.0270 O   0  0  0  0  0  0  0  0  0  0  0  0
   -4.3079   -1.9695   -0.2639 C   0  0  0  0  0  0  0  0  0  0  0  0
   -0.3020   -1.1026   -0.9411 N   0  0  0  0  0  0  0  0  0  0  0  0
   -0.0368   -2.4107   -0.8661 C   0  0  0  0  0  0  0  0  0  0  0  0
   -0.7505   -3.5118   -1.2342 C   0  0  0  0  0  0  0  0  0  0  0  0
   -0.2313   -4.7829   -1.0386 C   0  0  0  0  0  0  0  0  0  0  0  0
    1.0025   -5.0019   -0.4761 C   0  0  0  0  0  0  0  0  0  0  0  0
    1.7444   -3.8826   -0.0939 C   0  0  0  0  0  0  0  0  0  0  0  0
    1.2038   -2.6348   -0.3003 C   0  0  0  0  0  0  0  0  0  0  0  0
    1.7282   -1.3877   -0.0109 C   0  0  0  0  0  0  0  0  0  0  0  0
    2.9250   -0.9637    0.5498 C   0  0  0  0  0  0  0  0  0  0  0  0
    4.0703   -1.7821    1.0519 C   0  0  0  0  0  0  0  0  0  0  0  0
    5.0490   -0.8360    1.5052 N   0  0  0  0  0  0  0  0  0  0  0  0
    4.5511    0.4878    1.3292 C   0  0  0  0  0  0  0  0  0  0  0  0
    5.2116    1.4752    1.6612 O   0  0  0  0  0  0  0  0  0  0  0  0
    3.2325    0.3685    0.7340 C   0  0  0  0  0  0  0  0  0  0  0  0
    2.2736    1.2731    0.3281 C   0  0  0  0  0  0  0  0  0  0  0  0
    2.1943    2.6494    0.3519 C   0  0  0  0  0  0  0  0  0  0  0  0
    3.0346    3.6410    0.7719 C   0  0  0  0  0  0  0  0  0  0  0  0
    2.6237    4.9672    0.6424 C   0  0  0  0  0  0  0  0  0  0  0  0
    1.4040    5.3207    0.1079 C   0  0  0  0  0  0  0  0  0  0  0  0
    0.5569    4.3176   -0.3154 C   0  0  0  0  0  0  0  0  0  0  0  0
    0.9564    3.0255   -0.1896 C   0  0  0  0  0  0  0  0  0  0  0  0
    0.3179    1.9031   -0.5262 N   0  0  0  0  0  0  0  0  0  0  0  0
    1.0813    0.8475   -0.2300 C   0  0  0  0  0  0  0  0  0  0  0  0
    0.8029   -0.4946   -0.4048 C   0  0  0  0  0  0  0  0  0  0  0  0
   -1.7275    1.7656    2.9459 H   0  0  0  0  0  0  0  0  0  0  0  0
   -3.4000    1.7830    2.2910 H   0  0  0  0  0  0  0  0  0  0  0  0
   -3.0290    0.6437    3.5924 H   0  0  0  0  0  0  0  0  0  0  0  0
   -2.7602   -0.7186    1.9035 H   0  0  0  0  0  0  0  0  0  0  0  0
   -3.7998    0.9480    0.5957 H   0  0  0  0  0  0  0  0  0  0  0  0
   -1.4594    2.3204    1.0029 H   0  0  0  0  0  0  0  0  0  0  0  0
   -2.7065    2.7776   -0.1658 H   0  0  0  0  0  0  0  0  0  0  0  0
   -1.0912    2.7965   -1.7221 H   0  0  0  0  0  0  0  0  0  0  0  0
   -2.0056   -0.3257   -3.6573 H   0  0  0  0  0  0  0  0  0  0  0  0
   -1.0068   -1.6950   -3.1940 H   0  0  0  0  0  0  0  0  0  0  0  0
   -2.8277   -1.6039   -2.8044 H   0  0  0  0  0  0  0  0  0  0  0  0
   -3.5358   -0.1252   -1.3381 H   0  0  0  0  0  0  0  0  0  0  0  0
   -4.4650   -2.8889    0.3782 H   0  0  0  0  0  0  0  0  0  0  0  0
   -4.4865   -2.3125   -1.2897 H   0  0  0  0  0  0  0  0  0  0  0  0
   -5.1216   -1.2643    0.0633 H   0  0  0  0  0  0  0  0  0  0  0  0
   -1.7208   -3.3825   -1.6725 H   0  0  0  0  0  0  0  0  0  0  0  0
   -0.8491   -5.6109   -1.3524 H   0  0  0  0  0  0  0  0  0  0  0  0
    1.4213   -5.9802   -0.3168 H   0  0  0  0  0  0  0  0  0  0  0  0
    2.7206   -4.0420    0.3513 H   0  0  0  0  0  0  0  0  0  0  0  0
    3.7648   -2.4865    1.8473 H   0  0  0  0  0  0  0  0  0  0  0  0
    4.5351   -2.3717    0.2322 H   0  0  0  0  0  0  0  0  0  0  0  0
    5.9960   -1.0989    1.9084 H   0  0  0  0  0  0  0  0  0  0  0  0
    3.9823    3.4684    1.1903 H   0  0  0  0  0  0  0  0  0  0  0  0
    3.2909    5.7541    0.9750 H   0  0  0  0  0  0  0  0  0  0  0  0
    1.0902    6.3566    0.0099 H   0  0  0  0  0  0  0  0  0  0  0  0
   -0.4140    4.5350   -0.7434 H   0  0  0  0  0  0  0  0  0  0  0  0
  1  2  1  0
  2  3  1  0
  3  4  1  0
  4  5  1  0
  5  6  1  0
  6  7  1  0
  7  8  1  6
  7  9  1  0
  9 10  1  0
 10 11  1  0
  7 12  1  0
 12 13  1  0
 13 14  2  0
 14 15  1  0
 15 16  2  0
 16 17  1  0
 17 18  2  0
 18 19  1  0
 19 20  2  0
 20 21  1  0
 21 22  1  0
 22 23  1  0
 23 24  2  0
 23 25  1  0
 25 26  2  0
 26 27  1  0
 27 28  2  0
 28 29  1  0
 29 30  2  0
 30 31  1  0
 31 32  2  0
 32 33  1  0
 33 34  1  0
 34 35  2  0
  9  3  1  0
 35 12  1  0
 33  5  1  0
 18 13  1  0
 35 19  1  0
 25 20  1  0
 34 26  1  0
 32 27  1  0
  1 36  1  0
  1 37  1  0
  1 38  1  0
  2 39  1  0
  3 40  1  1
  4 41  1  0
  4 42  1  0
  5 43  1  6
  8 44  1  0
  8 45  1  0
  8 46  1  0
  9 47  1  6
 11 48  1  0
 11 49  1  0
 11 50  1  0
 14 51  1  0
 15 52  1  0
 16 53  1  0
 17 54  1  0
 21 55  1  0
 21 56  1  0
 22 57  1  0
 28 58  1  0
 29 59  1  0
 30 60  1  0
 31 61  1  0
M  END
$$$$
[H]c1nc2c([H])c(OC([H])([H])C([H])([H])C([H])([H])N3C([H])([H])C([H])([H])C([H])([H])C([H])([H])C3([H])[H])c(OC([H])([H])[H])c([H])c2c(Oc2c([H])c([H])c(N([H])C(=O)C3(C(=O)N([H])c4c([H])c([H])c(F)c([H])c4[H])C([H])([H])C3([H])[H])c([H])c2F)c1[H]
     RDKit          3D

 82 87  0  0  0  0  0  0  0  0999 V2000
   -1.9209   -1.3333    3.0451 C   0  0  0  0  0  0  0  0  0  0  0  0
   -2.9832   -1.7818    2.2281 O   0  0  0  0  0  0  0  0  0  0  0  0
   -2.8786   -1.6448    0.8580 C   0  0  0  0  0  0  0  0  0  0  0  0
   -1.7316   -1.0680    0.2922 C   0  0  0  0  0  0  0  0  0  0  0  0
   -1.6665   -0.9491   -1.0819 C   0  0  0  0  0  0  0  0  0  0  0  0
   -0.4802   -0.3771   -1.6175 C   0  0  0  0  0  0  0  0  0  0  0  0
    0.4285   -0.0147   -0.7289 O   0  0  0  0  0  0  0  0  0  0  0  0
    1.6944    0.3930   -0.6360 C   0  0  0  0  0  0  0  0  0  0  0  0
    2.6188    0.4301   -1.6541 C   0  0  0  0  0  0  0  0  0  0  0  0
    3.9313    0.8745   -1.4820 C   0  0  0  0  0  0  0  0  0  0  0  0
    4.3763    1.3085   -0.2501 C   0  0  0  0  0  0  0  0  0  0  0  0
    5.7351    1.7029   -0.0852 N   0  0  0  0  0  0  0  0  0  0  0  0
    6.2268    2.6374    0.8165 C   0  0  0  0  0  0  0  0  0  0  0  0
    5.4560    3.2770    1.5746 O   0  0  0  0  0  0  0  0  0  0  0  0
    7.6644    2.9391    0.9238 C   0  0  0  0  0  0  0  0  0  0  0  0
    8.1038    4.3298    0.5798 C   0  0  0  0  0  0  0  0  0  0  0  0
    8.0915    3.9269    1.9833 C   0  0  0  0  0  0  0  0  0  0  0  0
    8.6209    1.8678    0.5623 C   0  0  0  0  0  0  0  0  0  0  0  0
    9.7692    2.2424    0.1832 O   0  0  0  0  0  0  0  0  0  0  0  0
    8.2825    0.5106    0.6434 N   0  0  0  0  0  0  0  0  0  0  0  0
    9.0724   -0.5986    0.3022 C   0  0  0  0  0  0  0  0  0  0  0  0
   10.2084   -0.5630   -0.4349 C   0  0  0  0  0  0  0  0  0  0  0  0
   10.9465   -1.7016   -0.7351 C   0  0  0  0  0  0  0  0  0  0  0  0
   10.4906   -2.9056   -0.2570 C   0  0  0  0  0  0  0  0  0  0  0  0
   11.1446   -4.0908   -0.4983 F   0  0  0  0  0  0  0  0  0  0  0  0
    9.3451   -2.9715    0.4910 C   0  0  0  0  0  0  0  0  0  0  0  0
    8.6479   -1.8328    0.7652 C   0  0  0  0  0  0  0  0  0  0  0  0
    3.4672    1.2778    0.7745 C   0  0  0  0  0  0  0  0  0  0  0  0
    2.1764    0.8442    0.6174 C   0  0  0  0  0  0  0  0  0  0  0  0
    1.3271    0.8450    1.6680 F   0  0  0  0  0  0  0  0  0  0  0  0
   -0.4426   -0.2893   -2.9832 C   0  0  0  0  0  0  0  0  0  0  0  0
   -1.5048   -0.7395   -3.7466 C   0  0  0  0  0  0  0  0  0  0  0  0
   -2.6043   -1.2729   -3.2053 N   0  0  0  0  0  0  0  0  0  0  0  0
   -2.6929   -1.3815   -1.8816 C   0  0  0  0  0  0  0  0  0  0  0  0
   -3.8279   -1.9550   -1.2977 C   0  0  0  0  0  0  0  0  0  0  0  0
   -3.9356   -2.0931    0.0657 C   0  0  0  0  0  0  0  0  0  0  0  0
   -4.9932   -2.6329    0.7070 O   0  0  0  0  0  0  0  0  0  0  0  0
   -6.1911   -3.1449    0.2709 C   0  0  0  0  0  0  0  0  0  0  0  0
   -7.1260   -2.1894   -0.4224 C   0  0  0  0  0  0  0  0  0  0  0  0
   -7.4688   -1.0934    0.5689 C   0  0  0  0  0  0  0  0  0  0  0  0
   -8.3291   -0.1089    0.0669 N   0  0  0  0  0  0  0  0  0  0  0  0
   -9.6473   -0.4624   -0.2620 C   0  0  0  0  0  0  0  0  0  0  0  0
  -10.5141    0.6511   -0.7176 C   0  0  0  0  0  0  0  0  0  0  0  0
  -10.0079    2.0229   -0.4173 C   0  0  0  0  0  0  0  0  0  0  0  0
   -8.5212    2.1759   -0.4928 C   0  0  0  0  0  0  0  0  0  0  0  0
   -7.8145    0.8762   -0.8225 C   0  0  0  0  0  0  0  0  0  0  0  0
   -0.9571   -1.8306    2.8366 H   0  0  0  0  0  0  0  0  0  0  0  0
   -2.2135   -1.4052    4.1324 H   0  0  0  0  0  0  0  0  0  0  0  0
   -1.7526   -0.2336    2.8951 H   0  0  0  0  0  0  0  0  0  0  0  0
   -0.9452   -0.7395    0.9402 H   0  0  0  0  0  0  0  0  0  0  0  0
    2.3175    0.0736   -2.6345 H   0  0  0  0  0  0  0  0  0  0  0  0
    4.6112    0.8751   -2.3332 H   0  0  0  0  0  0  0  0  0  0  0  0
    6.4199    1.2451   -0.7758 H   0  0  0  0  0  0  0  0  0  0  0  0
    9.0682    4.4257    0.0505 H   0  0  0  0  0  0  0  0  0  0  0  0
    7.3407    5.0399    0.2003 H   0  0  0  0  0  0  0  0  0  0  0  0
    7.3090    4.4067    2.6322 H   0  0  0  0  0  0  0  0  0  0  0  0
    8.9944    3.6337    2.5414 H   0  0  0  0  0  0  0  0  0  0  0  0
    7.3081    0.3234    1.0716 H   0  0  0  0  0  0  0  0  0  0  0  0
   10.5935    0.3593   -0.8357 H   0  0  0  0  0  0  0  0  0  0  0  0
   11.8477   -1.6521   -1.3218 H   0  0  0  0  0  0  0  0  0  0  0  0
    8.9858   -3.9396    0.8697 H   0  0  0  0  0  0  0  0  0  0  0  0
    7.7562   -1.9196    1.3508 H   0  0  0  0  0  0  0  0  0  0  0  0
    3.8168    1.6119    1.7731 H   0  0  0  0  0  0  0  0  0  0  0  0
    0.4064    0.1533   -3.4882 H   0  0  0  0  0  0  0  0  0  0  0  0
   -1.4365   -0.6527   -4.8218 H   0  0  0  0  0  0  0  0  0  0  0  0
   -4.5800   -2.2798   -1.9924 H   0  0  0  0  0  0  0  0  0  0  0  0
   -6.7356   -3.7231    1.0795 H   0  0  0  0  0  0  0  0  0  0  0  0
   -5.9359   -3.9712   -0.4667 H   0  0  0  0  0  0  0  0  0  0  0  0
   -8.0475   -2.8031   -0.6508 H   0  0  0  0  0  0  0  0  0  0  0  0
   -6.6975   -1.7771   -1.3246 H   0  0  0  0  0  0  0  0  0  0  0  0
   -6.4817   -0.5989    0.7986 H   0  0  0  0  0  0  0  0  0  0  0  0
   -7.8063   -1.5547    1.4933 H   0  0  0  0  0  0  0  0  0  0  0  0
   -9.6087   -1.2635   -1.0545 H   0  0  0  0  0  0  0  0  0  0  0  0
  -10.1067   -0.9890    0.6209 H   0  0  0  0  0  0  0  0  0  0  0  0
  -10.6583    0.5452   -1.8287 H   0  0  0  0  0  0  0  0  0  0  0  0
  -11.5245    0.5130   -0.2789 H   0  0  0  0  0  0  0  0  0  0  0  0
  -10.4700    2.7394   -1.1272 H   0  0  0  0  0  0  0  0  0  0  0  0
  -10.3387    2.3502    0.5933 H   0  0  0  0  0  0  0  0  0  0  0  0
   -8.2030    2.9114   -1.2614 H   0  0  0  0  0  0  0  0  0  0  0  0
   -8.0896    2.5269    0.4664 H   0  0  0  0  0  0  0  0  0  0  0  0
   -6.7254    1.0838   -0.6488 H   0  0  0  0  0  0  0  0  0  0  0  0
   -8.0046    0.5785   -1.8753 H   0  0  0  0  0  0  0  0  0  0  0  0
  1  2  1  0
  2  3  1  0
  3  4  2  0
  4  5  1  0
  5  6  2  0
  6  7  1  0
  7  8  1  0
  8  9  2  0
  9 10  1  0
 10 11  2  0
 11 12  1  0
 12 13  1  0
 13 14  2  0
 13 15  1  0
 15 16  1  0
 16 17  1  0
 15 18  1  0
 18 19  2  0
 18 20  1  0
 20 21  1  0
 21 22  2  0
 22 23  1  0
 23 24  2  0
 24 25  1  0
 24 26  1  0
 26 27  2  0
 11 28  1  0
 28 29  2  0
 29 30  1  0
  6 31  1  0
 31 32  2  0
 32 33  1  0
 33 34  2  0
 34 35  1  0
 35 36  2  0
 36 37  1  0
 37 38  1  0
 38 39  1  0
 39 40  1  0
 40 41  1  0
 41 42  1  0
 42 43  1  0
 43 44  1  0
 44 45  1  0
 45 46  1  0
 36  3  1  0
 46 41  1  0
 34  5  1  0
 29  8  1  0
 17 15  1  0
 27 21  1  0
  1 47  1  0
  1 48  1  0
  1 49  1  0
  4 50  1  0
  9 51  1  0
 10 52  1  0
 12 53  1  0
 16 54  1  0
 16 55  1  0
 17 56  1  0
 17 57  1  0
 20 58  1  0
 22 59  1  0
 23 60  1  0
 26 61  1  0
 27 62  1  0
 28 63  1  0
 31 64  1  0
 32 65  1  0
 35 66  1  0
 38 67  1  0
 38 68  1  0
 39 69  1  0
 39 70  1  0
 40 71  1  0
 40 72  1  0
 42 73  1  0
 42 74  1  0
 43 75  1  0
 43 76  1  0
 44 77  1  0
 44 78  1  0
 45 79  1  0
 45 80  1  0
 46 81  1  0
 46 82  1  0
M  END
$$$$
