[H]c1nc(S(=O)(=O)C([H])([H])[H])c([H])c([H])c1C([H])(C#N)N1C([H])([H])C([H])([H])C([H])(S(=O)(=O)N([H])C([H])([H])c2c([H])c([H])c(F)c([H])c2F)C([H])([H])C1([H])[H]
     RDKit          3D

 54 56  0  0  0  0  0  0  0  0999 V2000
   -8.7300    0.0241   -0.7032 C   0  0  0  0  0  0  0  0  0  0  0  0
   -7.4540   -1.1749   -1.0435 S   0  0  0  0  0  0  0  0  0  0  0  0
   -7.3904   -1.3476   -2.5241 O   0  0  0  0  0  0  0  0  0  0  0  0
   -7.8169   -2.4221   -0.3159 O   0  0  0  0  0  0  0  0  0  0  0  0
   -5.8946   -0.6073   -0.4226 C   0  0  0  0  0  0  0  0  0  0  0  0
   -5.1874   -1.3223    0.5166 C   0  0  0  0  0  0  0  0  0  0  0  0
   -3.9509   -0.8511    0.9972 C   0  0  0  0  0  0  0  0  0  0  0  0
   -3.4458    0.3264    0.5289 C   0  0  0  0  0  0  0  0  0  0  0  0
   -2.1900    0.9105    1.0203 C   0  0  0  0  0  0  0  0  0  0  0  0
   -2.4976    2.3274    1.4529 C   0  0  0  0  0  0  0  0  0  0  0  0
   -2.7402    3.4125    1.7705 N   0  0  0  0  0  0  0  0  0  0  0  0
   -1.1328    0.9832    0.1505 N   0  0  0  0  0  0  0  0  0  0  0  0
   -1.1115    0.6130   -1.1871 C   0  0  0  0  0  0  0  0  0  0  0  0
   -0.2684   -0.6388   -1.4287 C   0  0  0  0  0  0  0  0  0  0  0  0
    1.0594   -0.6035   -0.6720 C   0  0  0  0  0  0  0  0  0  0  0  0
    0.9738    0.0203    0.6326 C   0  0  0  0  0  0  0  0  0  0  0  0
    0.1509    1.3065    0.6764 C   0  0  0  0  0  0  0  0  0  0  0  0
    2.3828   -0.2137   -1.7131 S   0  0  0  0  0  0  0  0  0  0  0  0
    2.2196    1.1467   -2.3845 O   0  0  0  0  0  0  0  0  0  0  0  0
    2.3303   -1.1674   -2.9594 O   0  0  0  0  0  0  0  0  0  0  0  0
    3.9304   -0.3876   -1.0803 N   0  0  0  0  0  0  0  0  0  0  0  0
    4.3762    0.3810   -0.0080 C   0  0  0  0  0  0  0  0  0  0  0  0
    5.8077    0.0265    0.3533 C   0  0  0  0  0  0  0  0  0  0  0  0
    6.5102   -0.9574   -0.2584 C   0  0  0  0  0  0  0  0  0  0  0  0
    7.8256   -1.2560    0.1473 C   0  0  0  0  0  0  0  0  0  0  0  0
    8.3812   -0.5387    1.1651 C   0  0  0  0  0  0  0  0  0  0  0  0
    9.6614   -0.7936    1.5972 F   0  0  0  0  0  0  0  0  0  0  0  0
    7.6677    0.4750    1.7984 C   0  0  0  0  0  0  0  0  0  0  0  0
    6.3691    0.7461    1.3733 C   0  0  0  0  0  0  0  0  0  0  0  0
    5.7170    1.7598    2.0277 F   0  0  0  0  0  0  0  0  0  0  0  0
   -4.1925    0.9971   -0.4054 C   0  0  0  0  0  0  0  0  0  0  0  0
   -5.3690    0.5490   -0.8641 N   0  0  0  0  0  0  0  0  0  0  0  0
   -8.6222    0.8962   -1.4109 H   0  0  0  0  0  0  0  0  0  0  0  0
   -8.6609    0.4675    0.2942 H   0  0  0  0  0  0  0  0  0  0  0  0
   -9.6812   -0.5096   -0.8852 H   0  0  0  0  0  0  0  0  0  0  0  0
   -5.6366   -2.2449    0.8534 H   0  0  0  0  0  0  0  0  0  0  0  0
   -3.4317   -1.4400    1.7391 H   0  0  0  0  0  0  0  0  0  0  0  0
   -1.8632    0.4304    1.9945 H   0  0  0  0  0  0  0  0  0  0  0  0
   -2.0449    0.4508   -1.6911 H   0  0  0  0  0  0  0  0  0  0  0  0
   -0.5819    1.4195   -1.7749 H   0  0  0  0  0  0  0  0  0  0  0  0
   -0.1116   -0.7158   -2.5108 H   0  0  0  0  0  0  0  0  0  0  0  0
   -0.8749   -1.4983   -1.1097 H   0  0  0  0  0  0  0  0  0  0  0  0
    1.2138   -1.7444   -0.4476 H   0  0  0  0  0  0  0  0  0  0  0  0
    1.8960    0.1339    1.1642 H   0  0  0  0  0  0  0  0  0  0  0  0
    0.3735   -0.7082    1.3089 H   0  0  0  0  0  0  0  0  0  0  0  0
    0.0644    1.5984    1.7434 H   0  0  0  0  0  0  0  0  0  0  0  0
    0.6550    2.1214    0.1701 H   0  0  0  0  0  0  0  0  0  0  0  0
    4.2150   -1.4080   -0.9680 H   0  0  0  0  0  0  0  0  0  0  0  0
    3.8605    0.1691    0.9336 H   0  0  0  0  0  0  0  0  0  0  0  0
    4.3779    1.4838   -0.2517 H   0  0  0  0  0  0  0  0  0  0  0  0
    6.1507   -1.5668   -1.0674 H   0  0  0  0  0  0  0  0  0  0  0  0
    8.3811   -2.0383   -0.3287 H   0  0  0  0  0  0  0  0  0  0  0  0
    8.1132    1.0421    2.5977 H   0  0  0  0  0  0  0  0  0  0  0  0
   -3.7835    1.9378   -0.7648 H   0  0  0  0  0  0  0  0  0  0  0  0
  1  2  1  0
  2  3  2  0
  2  4  2  0
  2  5  1  0
  5  6  2  0
  6  7  1  0
  7  8  2  0
  8  9  1  0
  9 10  1  0
 10 11  3  0
  9 12  1  0
 12 13  1  0
 13 14  1  0
 14 15  1  0
 15 16  1  0
 16 17  1  0
 15 18  1  0
 18 19  2  0
 18 20  2  0
 18 21  1  0
 21 22  1  0
 22 23  1  0
 23 24  2  0
 24 25  1  0
 25 26  2  0
 26 27  1  0
 26 28  1  0
 28 29  2  0
 29 30  1  0
  8 31  1  0
 31 32  2  0
 32  5  1  0
 17 12  1  0
 29 23  1  0
  1 33  1  0
  1 34  1  0
  1 35  1  0
  6 36  1  0
  7 37  1  0
  9 38  1  0
 13 39  1  0
 13 40  1  0
 14 41  1  0
 14 42  1  0
 15 43  1  0
 16 44  1  0
 16 45  1  0
 17 46  1  0
 17 47  1  0
 21 48  1  0
 22 49  1  0
 22 50  1  0
 24 51  1  0
 25 52  1  0
 28 53  1  0
 31 54  1  0
M  END
$$$$
[H]c1nc2c(N([H])c3c([H])c([H])c([H])c(C(F)(F)F)c3[H])nc(-c3c([H])c(F)c(F)c(F)c3[H])c([H])n2c1-c1c([H])c([H])c([H])c([H])c1[H]
     RDKit          3D

 49 53  0  0  0  0  0  0  0  0999 V2000
   -3.5192    5.6882   -1.2731 F   0  0  0  0  0  0  0  0  0  0  0  0
   -2.7962    4.5538   -1.0280 C   0  0  0  0  0  0  0  0  0  0  0  0
   -3.1897    3.3938   -1.6381 C   0  0  0  0  0  0  0  0  0  0  0  0
   -4.2885    3.3828   -2.4540 F   0  0  0  0  0  0  0  0  0  0  0  0
   -2.4886    2.1910   -1.4419 C   0  0  0  0  0  0  0  0  0  0  0  0
   -1.3921    2.1652   -0.6366 C   0  0  0  0  0  0  0  0  0  0  0  0
   -0.9994    3.3652   -0.0203 C   0  0  0  0  0  0  0  0  0  0  0  0
   -1.6775    4.5497   -0.2024 C   0  0  0  0  0  0  0  0  0  0  0  0
   -1.3299    5.7157    0.3838 F   0  0  0  0  0  0  0  0  0  0  0  0
   -0.7529    0.8976   -0.3374 C   0  0  0  0  0  0  0  0  0  0  0  0
   -1.5769   -0.2325   -0.2120 C   0  0  0  0  0  0  0  0  0  0  0  0
   -1.0633   -1.3845    0.1807 N   0  0  0  0  0  0  0  0  0  0  0  0
   -1.6071   -2.5841    0.3807 C   0  0  0  0  0  0  0  0  0  0  0  0
   -0.5737   -3.4285    0.8122 C   0  0  0  0  0  0  0  0  0  0  0  0
    0.5326   -2.7034    0.8443 N   0  0  0  0  0  0  0  0  0  0  0  0
    0.2593   -1.4649    0.4627 C   0  0  0  0  0  0  0  0  0  0  0  0
    1.1159   -0.3675    0.3495 C   0  0  0  0  0  0  0  0  0  0  0  0
    2.4739   -0.5037    0.6408 N   0  0  0  0  0  0  0  0  0  0  0  0
    3.5090    0.4411    0.3876 C   0  0  0  0  0  0  0  0  0  0  0  0
    3.3795    1.4783   -0.4930 C   0  0  0  0  0  0  0  0  0  0  0  0
    4.4697    2.3349   -0.7625 C   0  0  0  0  0  0  0  0  0  0  0  0
    5.6767    2.1362   -0.1448 C   0  0  0  0  0  0  0  0  0  0  0  0
    5.8195    1.0855    0.7540 C   0  0  0  0  0  0  0  0  0  0  0  0
    4.7383    0.2559    1.0066 C   0  0  0  0  0  0  0  0  0  0  0  0
    7.1420    0.8457    1.4188 C   0  0  0  0  0  0  0  0  0  0  0  0
    8.0278    0.3895    0.4274 F   0  0  0  0  0  0  0  0  0  0  0  0
    7.0174   -0.1584    2.3467 F   0  0  0  0  0  0  0  0  0  0  0  0
    7.6862    1.9822    1.9320 F   0  0  0  0  0  0  0  0  0  0  0  0
    0.5252    0.7694   -0.0561 N   0  0  0  0  0  0  0  0  0  0  0  0
   -2.9779   -3.0727    0.2391 C   0  0  0  0  0  0  0  0  0  0  0  0
   -3.9609   -2.4337   -0.4658 C   0  0  0  0  0  0  0  0  0  0  0  0
   -5.2809   -2.9497   -0.5489 C   0  0  0  0  0  0  0  0  0  0  0  0
   -5.6314   -4.1091    0.0737 C   0  0  0  0  0  0  0  0  0  0  0  0
   -4.6445   -4.7588    0.7845 C   0  0  0  0  0  0  0  0  0  0  0  0
   -3.3697   -4.2566    0.8601 C   0  0  0  0  0  0  0  0  0  0  0  0
   -2.8551    1.2901   -1.9772 H   0  0  0  0  0  0  0  0  0  0  0  0
   -0.1305    3.3780    0.5974 H   0  0  0  0  0  0  0  0  0  0  0  0
   -2.6006   -0.1012   -0.4225 H   0  0  0  0  0  0  0  0  0  0  0  0
   -0.6832   -4.4766    1.0643 H   0  0  0  0  0  0  0  0  0  0  0  0
    2.7719   -1.4390    1.1031 H   0  0  0  0  0  0  0  0  0  0  0  0
    2.4642    1.6935   -1.0110 H   0  0  0  0  0  0  0  0  0  0  0  0
    4.3766    3.1562   -1.4495 H   0  0  0  0  0  0  0  0  0  0  0  0
    6.5564    2.7530   -0.3134 H   0  0  0  0  0  0  0  0  0  0  0  0
    4.8915   -0.5415    1.7197 H   0  0  0  0  0  0  0  0  0  0  0  0
   -3.7953   -1.5515   -1.0194 H   0  0  0  0  0  0  0  0  0  0  0  0
   -6.0507   -2.4275   -1.1208 H   0  0  0  0  0  0  0  0  0  0  0  0
   -6.6385   -4.4948   -0.0133 H   0  0  0  0  0  0  0  0  0  0  0  0
   -4.9502   -5.6804    1.2946 H   0  0  0  0  0  0  0  0  0  0  0  0
   -2.6091   -4.7720    1.4358 H   0  0  0  0  0  0  0  0  0  0  0  0
  1  2  1  0
  2  3  2  0
  3  4  1  0
  3  5  1  0
  5  6  2  0
  6  7  1  0
  7  8  2  0
  8  9  1  0
  6 10  1  0
 10 11  2  0
 11 12  1  0
 12 13  1  0
 13 14  2  0
 14 15  1  0
 15 16  2  0
 16 17  1  0
 17 18  1  0
 18 19  1  0
 19 20  2  0
 20 21  1  0
 21 22  2  0
 22 23  1  0
 23 24  2  0
 23 25  1  0
 25 26  1  0
 25 27  1  0
 25 28  1  0
 17 29  2  0
 13 30  1  0
 30 31  2  0
 31 32  1  0
 32 33  2  0
 33 34  1  0
 34 35  2  0
  8  2  1  0
 29 10  1  0
 35 30  1  0
 16 12  1  0
 24 19  1  0
  5 36  1  0
  7 37  1  0
 11 38  1  0
 14 39  1  0
 18 40  1  0
 20 41  1  0
 21 42  1  0
 22 43  1  0
 24 44  1  0
 31 45  1  0
 32 46  1  0
 33 47  1  0
 34 48  1  0
 35 49  1  0
M  END
$$$$
[H]OC(=O)c1c([H])c([H])nc2c(=O)n([H])c(-c3c([H])c([H])c(OC([H])([H])[C@@]([H])(O[H])c4c([H])c([H])c(-c5c([H])nn(C(C([H])([H])[H])(C([H])([H])[H])C([H])([H])[H])c5[H])c([H])c4[H])c([H])c3[H])nc12
     RDKit          3D

 66 70  0  0  0  0  0  0  0  0999 V2000
   -0.2831    4.3371    1.3589 O   0  0  0  0  0  0  0  0  0  0  0  0
    0.0751    3.2049    0.6125 C   0  0  2  0  0  0  0  0  0  0  0  0
    0.4870    3.6161   -0.7836 C   0  0  0  0  0  0  0  0  0  0  0  0
    0.8874    2.6002   -1.6103 O   0  0  0  0  0  0  0  0  0  0  0  0
    1.9780    1.7618   -1.4959 C   0  0  0  0  0  0  0  0  0  0  0  0
    2.8787    1.8826   -0.4691 C   0  0  0  0  0  0  0  0  0  0  0  0
    3.9614    1.0348   -0.3652 C   0  0  0  0  0  0  0  0  0  0  0  0
    4.1954    0.0242   -1.2865 C   0  0  0  0  0  0  0  0  0  0  0  0
    3.2766   -0.0647   -2.2965 C   0  0  0  0  0  0  0  0  0  0  0  0
    2.1902    0.7586   -2.4311 C   0  0  0  0  0  0  0  0  0  0  0  0
    5.3462   -0.8536   -1.1499 C   0  0  0  0  0  0  0  0  0  0  0  0
    6.2287   -0.7239   -0.1296 N   0  0  0  0  0  0  0  0  0  0  0  0
    7.3044   -1.4814    0.0695 C   0  0  0  0  0  0  0  0  0  0  0  0
    8.1744   -1.3149    1.1190 C   0  0  0  0  0  0  0  0  0  0  0  0
    9.2536   -2.1499    1.2327 C   0  0  0  0  0  0  0  0  0  0  0  0
    9.4542   -3.1433    0.2979 C   0  0  0  0  0  0  0  0  0  0  0  0
    8.6068   -3.3037   -0.7223 N   0  0  0  0  0  0  0  0  0  0  0  0
    7.5428   -2.5044   -0.8618 C   0  0  0  0  0  0  0  0  0  0  0  0
    6.6608   -2.6516   -1.9015 C   0  0  0  0  0  0  0  0  0  0  0  0
    6.8633   -3.5590   -2.7364 O   0  0  0  0  0  0  0  0  0  0  0  0
    5.5909   -1.8358   -2.0283 N   0  0  0  0  0  0  0  0  0  0  0  0
    7.9598   -0.2758    2.0923 C   0  0  0  0  0  0  0  0  0  0  0  0
    6.9087    0.6182    2.0746 O   0  0  0  0  0  0  0  0  0  0  0  0
    8.7773   -0.1314    3.0639 O   0  0  0  0  0  0  0  0  0  0  0  0
   -1.2464    2.4732    0.4289 C   0  0  0  0  0  0  0  0  0  0  0  0
   -1.3794    1.1339    0.6071 C   0  0  0  0  0  0  0  0  0  0  0  0
   -2.6297    0.5397    0.4180 C   0  0  0  0  0  0  0  0  0  0  0  0
   -3.7408    1.2727    0.0541 C   0  0  0  0  0  0  0  0  0  0  0  0
   -3.5716    2.6350   -0.1195 C   0  0  0  0  0  0  0  0  0  0  0  0
   -2.3360    3.2317    0.0659 C   0  0  0  0  0  0  0  0  0  0  0  0
   -5.0346    0.6230   -0.1356 C   0  0  0  0  0  0  0  0  0  0  0  0
   -5.9999    1.0432   -1.0257 C   0  0  0  0  0  0  0  0  0  0  0  0
   -7.0477    0.1978   -0.9146 N   0  0  0  0  0  0  0  0  0  0  0  0
   -6.8124   -0.7350   -0.0103 N   0  0  0  0  0  0  0  0  0  0  0  0
   -5.5694   -0.4872    0.4829 C   0  0  0  0  0  0  0  0  0  0  0  0
   -7.7128   -1.8192    0.3814 C   0  0  0  0  0  0  0  0  0  0  0  0
   -7.2896   -2.3785    1.7202 C   0  0  0  0  0  0  0  0  0  0  0  0
   -9.1200   -1.2910    0.5395 C   0  0  0  0  0  0  0  0  0  0  0  0
   -7.6178   -2.9078   -0.6407 C   0  0  0  0  0  0  0  0  0  0  0  0
    0.0638    4.2994    2.2753 H   0  0  0  0  0  0  0  0  0  0  0  0
    0.7120    2.5050    1.1193 H   0  0  0  0  0  0  0  0  0  0  0  0
   -0.3830    4.1507   -1.2814 H   0  0  0  0  0  0  0  0  0  0  0  0
    1.2533    4.4492   -0.7030 H   0  0  0  0  0  0  0  0  0  0  0  0
    2.8078    2.6482    0.2937 H   0  0  0  0  0  0  0  0  0  0  0  0
    4.6467    1.1588    0.4539 H   0  0  0  0  0  0  0  0  0  0  0  0
    3.4167   -0.8471   -3.0509 H   0  0  0  0  0  0  0  0  0  0  0  0
    1.4743    0.6802   -3.2286 H   0  0  0  0  0  0  0  0  0  0  0  0
    9.9482   -2.0323    2.0531 H   0  0  0  0  0  0  0  0  0  0  0  0
   10.3134   -3.7976    0.4003 H   0  0  0  0  0  0  0  0  0  0  0  0
    4.9521   -2.0021   -2.8492 H   0  0  0  0  0  0  0  0  0  0  0  0
    6.9804    1.5772    1.7676 H   0  0  0  0  0  0  0  0  0  0  0  0
   -0.5223    0.5395    0.8923 H   0  0  0  0  0  0  0  0  0  0  0  0
   -2.7625   -0.5325    0.5547 H   0  0  0  0  0  0  0  0  0  0  0  0
   -4.4453    3.2076   -0.4051 H   0  0  0  0  0  0  0  0  0  0  0  0
   -2.2002    4.3046   -0.0703 H   0  0  0  0  0  0  0  0  0  0  0  0
   -5.9229    1.8950   -1.6876 H   0  0  0  0  0  0  0  0  0  0  0  0
   -5.0762   -1.0659    1.2391 H   0  0  0  0  0  0  0  0  0  0  0  0
   -6.7904   -1.6146    2.3564 H   0  0  0  0  0  0  0  0  0  0  0  0
   -8.1213   -2.8779    2.2447 H   0  0  0  0  0  0  0  0  0  0  0  0
   -6.5033   -3.1509    1.5136 H   0  0  0  0  0  0  0  0  0  0  0  0
   -9.7150   -1.3824   -0.3828 H   0  0  0  0  0  0  0  0  0  0  0  0
   -9.6411   -1.7686    1.3797 H   0  0  0  0  0  0  0  0  0  0  0  0
   -9.0338   -0.1920    0.7402 H   0  0  0  0  0  0  0  0  0  0  0  0
   -6.5428   -3.0842   -0.8510 H   0  0  0  0  0  0  0  0  0  0  0  0
   -8.0320   -3.8718   -0.2831 H   0  0  0  0  0  0  0  0  0  0  0  0
   -8.0869   -2.5717   -1.5925 H   0  0  0  0  0  0  0  0  0  0  0  0
  1  2  1  0
  2  3  1  0
  3  4  1  0
  4  5  1  0
  5  6  2  0
  6  7  1  0
  7  8  2  0
  8  9  1  0
  9 10  2  0
  8 11  1  0
 11 12  2  0
 12 13  1  0
 13 14  2  0
 14 15  1  0
 15 16  2  0
 16 17  1  0
 17 18  2  0
 18 19  1  0
 19 20  2  0
 19 21  1  0
 14 22  1  0
 22 23  1  0
 22 24  2  0
  2 25  1  0
 25 26  2  0
 26 27  1  0
 27 28  2  0
 28 29  1  0
 29 30  2  0
 28 31  1  0
 31 32  1  0
 32 33  2  0
 33 34  1  0
 34 35  1  0
 34 36  1  0
 36 37  1  0
 36 38  1  0
 36 39  1  0
 10  5  1  0
 21 11  1  0
 30 25  1  0
 35 31  2  0
 18 13  1  0
  1 40  1  0
  2 41  1  1
  3 42  1  0
  3 43  1  0
  6 44  1  0
  7 45  1  0
  9 46  1  0
 10 47  1  0
 15 48  1  0
 16 49  1  0
 21 50  1  0
 23 51  1  0
 26 52  1  0
 27 53  1  0
 29 54  1  0
 30 55  1  0
 32 56  1  0
 35 57  1  0
 37 58  1  0
 37 59  1  0
 37 60  1  0
 38 61  1  0
 38 62  1  0
 38 63  1  0
 39 64  1  0
 39 65  1  0
 39 66  1  0
M  END
$$$$
[H]Oc1c([H])c(/C([H])=C(\[H])C(=O)N([H])C([H])([H])c2c(OC([H])([H])[H])c([H])c(C([H])([H])n3c([H])nc([H])c3[H])c([H])c2OC([H])([H])[H])c([H])c(C([H])([H])N2C([H])([H])C([H])([H])OC([H])([H])C2([H])[H])c1O[H]
     RDKit          3D

 69 72  0  0  0  0  0  0  0  0999 V2000
   -3.2588    2.9590    1.4927 C   0  0  0  0  0  0  0  0  0  0  0  0
   -2.9935    2.1490    0.3873 O   0  0  0  0  0  0  0  0  0  0  0  0
   -3.9947    1.2696   -0.0746 C   0  0  0  0  0  0  0  0  0  0  0  0
   -5.2210    1.1368    0.4448 C   0  0  0  0  0  0  0  0  0  0  0  0
   -6.1682    0.2421   -0.0677 C   0  0  0  0  0  0  0  0  0  0  0  0
   -7.4606    0.2561    0.6243 C   0  0  0  0  0  0  0  0  0  0  0  0
   -8.2622   -0.9204    0.6405 N   0  0  0  0  0  0  0  0  0  0  0  0
   -8.2759   -1.9377    1.5128 C   0  0  0  0  0  0  0  0  0  0  0  0
   -9.2545   -2.8210    1.1336 C   0  0  0  0  0  0  0  0  0  0  0  0
   -9.8405   -2.3361    0.0261 N   0  0  0  0  0  0  0  0  0  0  0  0
   -9.2254   -1.1743   -0.2691 C   0  0  0  0  0  0  0  0  0  0  0  0
   -5.7733   -0.5009   -1.1328 C   0  0  0  0  0  0  0  0  0  0  0  0
   -4.4899   -0.4071   -1.7231 C   0  0  0  0  0  0  0  0  0  0  0  0
   -4.0914   -1.1159   -2.7859 O   0  0  0  0  0  0  0  0  0  0  0  0
   -4.2912   -2.0038   -3.7317 C   0  0  0  0  0  0  0  0  0  0  0  0
   -3.5833    0.4870   -1.1873 C   0  0  0  0  0  0  0  0  0  0  0  0
   -2.2981    0.8361   -1.7926 C   0  0  0  0  0  0  0  0  0  0  0  0
   -1.1345    0.2183   -1.1998 N   0  0  0  0  0  0  0  0  0  0  0  0
   -1.1142   -0.4725    0.0253 C   0  0  0  0  0  0  0  0  0  0  0  0
   -2.0735   -0.8938    0.6900 O   0  0  0  0  0  0  0  0  0  0  0  0
    0.2104   -0.6885    0.7081 C   0  0  0  0  0  0  0  0  0  0  0  0
    1.2924   -0.2735    0.1473 C   0  0  0  0  0  0  0  0  0  0  0  0
    2.6419   -0.3694    0.7581 C   0  0  0  0  0  0  0  0  0  0  0  0
    3.7946   -0.1751    0.0350 C   0  0  0  0  0  0  0  0  0  0  0  0
    4.9036    0.3815    0.6454 C   0  0  0  0  0  0  0  0  0  0  0  0
    6.0300    0.8910   -0.1379 C   0  0  0  0  0  0  0  0  0  0  0  0
    7.1744    0.0996   -0.2654 N   0  0  0  0  0  0  0  0  0  0  0  0
    7.1790   -1.2593   -0.1365 C   0  0  0  0  0  0  0  0  0  0  0  0
    8.4824   -1.8521   -0.7467 C   0  0  0  0  0  0  0  0  0  0  0  0
    9.5140   -1.0784   -0.1625 O   0  0  0  0  0  0  0  0  0  0  0  0
    9.5562    0.1286   -0.8083 C   0  0  0  0  0  0  0  0  0  0  0  0
    8.2111    0.7922   -0.9393 C   0  0  0  0  0  0  0  0  0  0  0  0
    4.7972    0.7069    1.9836 C   0  0  0  0  0  0  0  0  0  0  0  0
    5.9215    1.2765    2.5830 O   0  0  0  0  0  0  0  0  0  0  0  0
    3.6787    0.5023    2.7151 C   0  0  0  0  0  0  0  0  0  0  0  0
    3.6755    0.8551    4.0645 O   0  0  0  0  0  0  0  0  0  0  0  0
    2.5576   -0.0446    2.1290 C   0  0  0  0  0  0  0  0  0  0  0  0
   -4.2423    3.4271    1.3616 H   0  0  0  0  0  0  0  0  0  0  0  0
   -3.2723    2.2819    2.4021 H   0  0  0  0  0  0  0  0  0  0  0  0
   -2.4477    3.7051    1.6705 H   0  0  0  0  0  0  0  0  0  0  0  0
   -5.4875    1.7552    1.3085 H   0  0  0  0  0  0  0  0  0  0  0  0
   -7.2493    0.5268    1.7485 H   0  0  0  0  0  0  0  0  0  0  0  0
   -8.0286    1.1928    0.3137 H   0  0  0  0  0  0  0  0  0  0  0  0
   -7.6424   -2.0595    2.3701 H   0  0  0  0  0  0  0  0  0  0  0  0
   -9.5917   -3.7526    1.5754 H   0  0  0  0  0  0  0  0  0  0  0  0
   -9.4531   -0.5237   -1.1053 H   0  0  0  0  0  0  0  0  0  0  0  0
   -6.4969   -1.2002   -1.5577 H   0  0  0  0  0  0  0  0  0  0  0  0
   -3.2901   -2.3850   -4.1751 H   0  0  0  0  0  0  0  0  0  0  0  0
   -4.7734   -1.5662   -4.6993 H   0  0  0  0  0  0  0  0  0  0  0  0
   -4.8729   -2.9444   -3.5641 H   0  0  0  0  0  0  0  0  0  0  0  0
   -2.2486    0.6480   -2.9063 H   0  0  0  0  0  0  0  0  0  0  0  0
   -2.1680    1.9568   -1.7270 H   0  0  0  0  0  0  0  0  0  0  0  0
   -0.2478    0.2893   -1.7603 H   0  0  0  0  0  0  0  0  0  0  0  0
    0.2057   -1.1958    1.6614 H   0  0  0  0  0  0  0  0  0  0  0  0
    1.2677    0.1838   -0.8407 H   0  0  0  0  0  0  0  0  0  0  0  0
    3.7941   -0.4610   -0.9860 H   0  0  0  0  0  0  0  0  0  0  0  0
    5.5784    0.9809   -1.2518 H   0  0  0  0  0  0  0  0  0  0  0  0
    6.2527    1.9845    0.0183 H   0  0  0  0  0  0  0  0  0  0  0  0
    7.3403   -1.5679    0.9813 H   0  0  0  0  0  0  0  0  0  0  0  0
    6.3006   -1.8239   -0.4090 H   0  0  0  0  0  0  0  0  0  0  0  0
    8.4660   -1.6702   -1.8333 H   0  0  0  0  0  0  0  0  0  0  0  0
    8.5688   -2.8857   -0.4263 H   0  0  0  0  0  0  0  0  0  0  0  0
    9.9636   -0.0196   -1.8270 H   0  0  0  0  0  0  0  0  0  0  0  0
   10.2754    0.8346   -0.3060 H   0  0  0  0  0  0  0  0  0  0  0  0
    8.2725    1.8295   -0.5294 H   0  0  0  0  0  0  0  0  0  0  0  0
    7.9423    0.9328   -2.0204 H   0  0  0  0  0  0  0  0  0  0  0  0
    5.8935    1.5599    3.5389 H   0  0  0  0  0  0  0  0  0  0  0  0
    2.9154    0.7517    4.6903 H   0  0  0  0  0  0  0  0  0  0  0  0
    1.6598   -0.2254    2.6991 H   0  0  0  0  0  0  0  0  0  0  0  0
  1  2  1  0
  2  3  1  0
  3  4  2  0
  4  5  1  0
  5  6  1  0
  6  7  1  0
  7  8  1  0
  8  9  2  0
  9 10  1  0
 10 11  2  0
  5 12  2  0
 12 13  1  0
 13 14  1  0
 14 15  1  0
 13 16  2  0
 16 17  1  0
 17 18  1  0
 18 19  1  0
 19 20  2  0
 19 21  1  0
 21 22  2  0
 22 23  1  0
 23 24  2  0
 24 25  1  0
 25 26  1  0
 26 27  1  0
 27 28  1  0
 28 29  1  0
 29 30  1  0
 30 31  1  0
 31 32  1  0
 25 33  2  0
 33 34  1  0
 33 35  1  0
 35 36  1  0
 35 37  2  0
 16  3  1  0
 37 23  1  0
 11  7  1  0
 32 27  1  0
  1 38  1  0
  1 39  1  0
  1 40  1  0
  4 41  1  0
  6 42  1  0
  6 43  1  0
  8 44  1  0
  9 45  1  0
 11 46  1  0
 12 47  1  0
 15 48  1  0
 15 49  1  0
 15 50  1  0
 17 51  1  0
 17 52  1  0
 18 53  1  0
 21 54  1  0
 22 55  1  0
 24 56  1  0
 26 57  1  0
 26 58  1  0
 28 59  1  0
 28 60  1  0
 29 61  1  0
 29 62  1  0
 31 63  1  0
 31 64  1  0
 32 65  1  0
 32 66  1  0
 34 67  1  0
 36 68  1  0
 37 69  1  0
M  END
$$$$
[H]c1c([H])c([H])c(N2C([H])([H])C([H])([H])C([H])(c3c([H])c([H])c(C([H])(Oc4c([H])c([H])c5c(c4[H])c4c([H])c([H])c(C#N)nc4n5[H])C([H])([H])[H])c([H])c3[H])C([H])([H])C2([H])[H])c([H])c1[H]
     RDKit          3D

 64 69  0  0  0  0  0  0  0  0999 V2000
    1.3138    2.4675   -3.5264 C   0  0  0  0  0  0  0  0  0  0  0  0
    1.6529    1.1137   -2.9160 C   0  0  0  0  0  0  0  0  0  0  0  0
    2.4274    1.2301   -1.7691 O   0  0  0  0  0  0  0  0  0  0  0  0
    3.6334    0.5989   -1.5629 C   0  0  0  0  0  0  0  0  0  0  0  0
    4.2464   -0.2370   -2.4629 C   0  0  0  0  0  0  0  0  0  0  0  0
    5.4691   -0.8552   -2.2097 C   0  0  0  0  0  0  0  0  0  0  0  0
    6.1341   -0.6541   -1.0231 C   0  0  0  0  0  0  0  0  0  0  0  0
    7.3067   -1.1112   -0.5113 N   0  0  0  0  0  0  0  0  0  0  0  0
    7.4968   -0.5966    0.7232 C   0  0  0  0  0  0  0  0  0  0  0  0
    8.4949   -0.7405    1.6407 N   0  0  0  0  0  0  0  0  0  0  0  0
    8.4490   -0.1088    2.8236 C   0  0  0  0  0  0  0  0  0  0  0  0
    7.3682    0.6976    3.1053 C   0  0  0  0  0  0  0  0  0  0  0  0
    6.3529    0.8510    2.1855 C   0  0  0  0  0  0  0  0  0  0  0  0
    6.4080    0.2002    0.9764 C   0  0  0  0  0  0  0  0  0  0  0  0
    5.5276    0.1827   -0.1134 C   0  0  0  0  0  0  0  0  0  0  0  0
    4.3219    0.7985   -0.3511 C   0  0  0  0  0  0  0  0  0  0  0  0
    9.5155   -0.2645    3.8034 C   0  0  0  0  0  0  0  0  0  0  0  0
   10.3641   -0.3804    4.5812 N   0  0  0  0  0  0  0  0  0  0  0  0
    0.3773    0.4318   -2.4673 C   0  0  0  0  0  0  0  0  0  0  0  0
   -0.1842   -0.6111   -3.1699 C   0  0  0  0  0  0  0  0  0  0  0  0
   -1.3491   -1.2225   -2.7440 C   0  0  0  0  0  0  0  0  0  0  0  0
   -1.9949   -0.8117   -1.5981 C   0  0  0  0  0  0  0  0  0  0  0  0
   -1.4231    0.2368   -0.8988 C   0  0  0  0  0  0  0  0  0  0  0  0
   -0.2606    0.8503   -1.3197 C   0  0  0  0  0  0  0  0  0  0  0  0
   -3.2258   -1.4898   -1.1749 C   0  0  0  0  0  0  0  0  0  0  0  0
   -3.1906   -1.9894    0.2290 C   0  0  0  0  0  0  0  0  0  0  0  0
   -4.5536   -1.9200    0.9206 C   0  0  0  0  0  0  0  0  0  0  0  0
   -5.1195   -0.5974    0.8343 N   0  0  0  0  0  0  0  0  0  0  0  0
   -4.8841    0.2220   -0.3361 C   0  0  0  0  0  0  0  0  0  0  0  0
   -4.4205   -0.6226   -1.4808 C   0  0  0  0  0  0  0  0  0  0  0  0
   -5.9269   -0.0480    1.8801 C   0  0  0  0  0  0  0  0  0  0  0  0
   -6.3806    1.2447    1.8136 C   0  0  0  0  0  0  0  0  0  0  0  0
   -7.1635    1.8206    2.7931 C   0  0  0  0  0  0  0  0  0  0  0  0
   -7.5275    1.1032    3.8995 C   0  0  0  0  0  0  0  0  0  0  0  0
   -7.0881   -0.1957    3.9946 C   0  0  0  0  0  0  0  0  0  0  0  0
   -6.2947   -0.7727    2.9974 C   0  0  0  0  0  0  0  0  0  0  0  0
    2.0992    2.6847   -4.2981 H   0  0  0  0  0  0  0  0  0  0  0  0
    0.3152    2.5083   -3.9664 H   0  0  0  0  0  0  0  0  0  0  0  0
    1.4832    3.2188   -2.7159 H   0  0  0  0  0  0  0  0  0  0  0  0
    2.0489    0.4733   -3.7212 H   0  0  0  0  0  0  0  0  0  0  0  0
    3.7420   -0.4183   -3.4187 H   0  0  0  0  0  0  0  0  0  0  0  0
    5.8958   -1.5001   -2.9590 H   0  0  0  0  0  0  0  0  0  0  0  0
    7.9593   -1.7636   -1.0058 H   0  0  0  0  0  0  0  0  0  0  0  0
    7.3315    1.2080    4.0614 H   0  0  0  0  0  0  0  0  0  0  0  0
    5.4861    1.4729    2.3608 H   0  0  0  0  0  0  0  0  0  0  0  0
    3.8626    1.4525    0.3772 H   0  0  0  0  0  0  0  0  0  0  0  0
    0.2940   -0.9674   -4.0826 H   0  0  0  0  0  0  0  0  0  0  0  0
   -1.7887   -2.0570   -3.3160 H   0  0  0  0  0  0  0  0  0  0  0  0
   -1.9085    0.5883    0.0188 H   0  0  0  0  0  0  0  0  0  0  0  0
    0.1555    1.6767   -0.7338 H   0  0  0  0  0  0  0  0  0  0  0  0
   -3.3634   -2.4026   -1.8303 H   0  0  0  0  0  0  0  0  0  0  0  0
   -2.8595   -3.0464    0.3262 H   0  0  0  0  0  0  0  0  0  0  0  0
   -2.4580   -1.3802    0.7942 H   0  0  0  0  0  0  0  0  0  0  0  0
   -4.3362   -2.1923    1.9867 H   0  0  0  0  0  0  0  0  0  0  0  0
   -5.2210   -2.6634    0.4619 H   0  0  0  0  0  0  0  0  0  0  0  0
   -4.2320    1.0782   -0.1685 H   0  0  0  0  0  0  0  0  0  0  0  0
   -5.8931    0.6268   -0.6162 H   0  0  0  0  0  0  0  0  0  0  0  0
   -4.1126    0.0824   -2.3076 H   0  0  0  0  0  0  0  0  0  0  0  0
   -5.2650   -1.2075   -1.9434 H   0  0  0  0  0  0  0  0  0  0  0  0
   -6.1312    1.8874    0.9559 H   0  0  0  0  0  0  0  0  0  0  0  0
   -7.5027    2.8614    2.6940 H   0  0  0  0  0  0  0  0  0  0  0  0
   -8.1422    1.5257    4.6875 H   0  0  0  0  0  0  0  0  0  0  0  0
   -7.3620   -0.7841    4.8598 H   0  0  0  0  0  0  0  0  0  0  0  0
   -5.9699   -1.7827    3.0969 H   0  0  0  0  0  0  0  0  0  0  0  0
  1  2  1  0
  2  3  1  0
  3  4  1  0
  4  5  2  0
  5  6  1  0
  6  7  2  0
  7  8  1  0
  8  9  1  0
  9 10  2  0
 10 11  1  0
 11 12  2  0
 12 13  1  0
 13 14  2  0
 14 15  1  0
 15 16  2  0
 11 17  1  0
 17 18  3  0
  2 19  1  0
 19 20  2  0
 20 21  1  0
 21 22  2  0
 22 23  1  0
 23 24  2  0
 22 25  1  0
 25 26  1  0
 26 27  1  0
 27 28  1  0
 28 29  1  0
 29 30  1  0
 28 31  1  0
 31 32  2  0
 32 33  1  0
 33 34  2  0
 34 35  1  0
 35 36  2  0
 16  4  1  0
 24 19  1  0
 30 25  1  0
 36 31  1  0
 15  7  1  0
 14  9  1  0
  1 37  1  0
  1 38  1  0
  1 39  1  0
  2 40  1  0
  5 41  1  0
  6 42  1  0
  8 43  1  0
 12 44  1  0
 13 45  1  0
 16 46  1  0
 20 47  1  0
 21 48  1  0
 23 49  1  0
 24 50  1  0
 25 51  1  0
 26 52  1  0
 26 53  1  0
 27 54  1  0
 27 55  1  0
 29 56  1  0
 29 57  1  0
 30 58  1  0
 30 59  1  0
 32 60  1  0
 33 61  1  0
 34 62  1  0
 35 63  1  0
 36 64  1  0
M  END
$$$$
[H]OC([H])([H])c1c([H])c([H])c(C(F)(F)F)c(-c2nc3c(N4C([H])([H])[C@]([H])(C([H])([H])[H])N([H])[C@]([H])(C([H])([H])[H])C4([H])[H])c([H])c([H])c([H])c3n2[H])c1[H]
     RDKit          3D

 52 55  0  0  0  0  0  0  0  0999 V2000
   -3.1164   -3.1384    0.0822 C   0  0  0  0  0  0  0  0  0  0  0  0
   -3.0015   -2.0819   -0.9955 C   0  0  2  0  0  0  0  0  0  0  0  0
   -1.7284   -1.2959   -0.8113 C   0  0  0  0  0  0  0  0  0  0  0  0
   -2.0975    0.0714   -0.5223 N   0  0  0  0  0  0  0  0  0  0  0  0
   -3.1271    0.2313    0.4797 C   0  0  0  0  0  0  0  0  0  0  0  0
   -4.3983   -0.3721   -0.0426 C   0  0  2  0  0  0  0  0  0  0  0  0
   -5.2411   -0.9787    1.0598 C   0  0  0  0  0  0  0  0  0  0  0  0
   -4.1697   -1.2726   -1.1269 N   0  0  0  0  0  0  0  0  0  0  0  0
   -1.5225    1.2020   -1.1472 C   0  0  0  0  0  0  0  0  0  0  0  0
   -2.2877    2.1101   -1.8839 C   0  0  0  0  0  0  0  0  0  0  0  0
   -1.6963    3.2016   -2.4803 C   0  0  0  0  0  0  0  0  0  0  0  0
   -0.3307    3.3600   -2.3220 C   0  0  0  0  0  0  0  0  0  0  0  0
    0.4222    2.4649   -1.5961 C   0  0  0  0  0  0  0  0  0  0  0  0
    1.7544    2.3673   -1.2782 N   0  0  0  0  0  0  0  0  0  0  0  0
    2.0326    1.3158   -0.5395 C   0  0  0  0  0  0  0  0  0  0  0  0
    0.7870    0.6935   -0.3742 N   0  0  0  0  0  0  0  0  0  0  0  0
   -0.1549    1.3786   -1.0004 C   0  0  0  0  0  0  0  0  0  0  0  0
    3.2110    0.7759    0.1199 C   0  0  0  0  0  0  0  0  0  0  0  0
    3.1666   -0.5726    0.5337 C   0  0  0  0  0  0  0  0  0  0  0  0
    4.1299   -1.2010    1.2396 C   0  0  0  0  0  0  0  0  0  0  0  0
    4.0324   -2.6244    1.6466 C   0  0  0  0  0  0  0  0  0  0  0  0
    2.8691   -3.2226    1.2305 O   0  0  0  0  0  0  0  0  0  0  0  0
    5.2401   -0.4662    1.5808 C   0  0  0  0  0  0  0  0  0  0  0  0
    5.3541    0.8497    1.2133 C   0  0  0  0  0  0  0  0  0  0  0  0
    4.3158    1.4774    0.4674 C   0  0  0  0  0  0  0  0  0  0  0  0
    4.5924    2.8697    0.1067 C   0  0  0  0  0  0  0  0  0  0  0  0
    4.8180    3.0463   -1.2332 F   0  0  0  0  0  0  0  0  0  0  0  0
    3.6589    3.7504    0.6495 F   0  0  0  0  0  0  0  0  0  0  0  0
    5.7895    3.2779    0.7269 F   0  0  0  0  0  0  0  0  0  0  0  0
   -3.1862   -2.6950    1.0850 H   0  0  0  0  0  0  0  0  0  0  0  0
   -3.9087   -3.8518   -0.1609 H   0  0  0  0  0  0  0  0  0  0  0  0
   -2.1565   -3.7146    0.0653 H   0  0  0  0  0  0  0  0  0  0  0  0
   -2.8814   -2.6455   -1.9610 H   0  0  0  0  0  0  0  0  0  0  0  0
   -1.0331   -1.3852   -1.6630 H   0  0  0  0  0  0  0  0  0  0  0  0
   -1.1896   -1.6738    0.1030 H   0  0  0  0  0  0  0  0  0  0  0  0
   -2.8372   -0.3417    1.4012 H   0  0  0  0  0  0  0  0  0  0  0  0
   -3.2441    1.2784    0.8100 H   0  0  0  0  0  0  0  0  0  0  0  0
   -5.0069    0.4858   -0.4555 H   0  0  0  0  0  0  0  0  0  0  0  0
   -5.6445   -1.9747    0.7422 H   0  0  0  0  0  0  0  0  0  0  0  0
   -4.6702   -1.0579    2.0225 H   0  0  0  0  0  0  0  0  0  0  0  0
   -6.1341   -0.3660    1.3014 H   0  0  0  0  0  0  0  0  0  0  0  0
   -4.9725   -1.8704   -1.3362 H   0  0  0  0  0  0  0  0  0  0  0  0
   -3.3603    1.9137   -1.9614 H   0  0  0  0  0  0  0  0  0  0  0  0
   -2.3283    3.8735   -3.0379 H   0  0  0  0  0  0  0  0  0  0  0  0
    0.1474    4.1999   -2.7764 H   0  0  0  0  0  0  0  0  0  0  0  0
    2.3896    3.0904   -1.6608 H   0  0  0  0  0  0  0  0  0  0  0  0
    2.2881   -1.1245    0.2476 H   0  0  0  0  0  0  0  0  0  0  0  0
    4.1925   -2.6764    2.7397 H   0  0  0  0  0  0  0  0  0  0  0  0
    4.9085   -3.1632    1.1854 H   0  0  0  0  0  0  0  0  0  0  0  0
    3.0559   -3.9500    0.5786 H   0  0  0  0  0  0  0  0  0  0  0  0
    6.0240   -0.9737    2.1549 H   0  0  0  0  0  0  0  0  0  0  0  0
    6.2457    1.4050    1.4981 H   0  0  0  0  0  0  0  0  0  0  0  0
  1  2  1  0
  2  3  1  0
  3  4  1  0
  4  5  1  0
  5  6  1  0
  6  7  1  0
  6  8  1  0
  4  9  1  0
  9 10  2  0
 10 11  1  0
 11 12  2  0
 12 13  1  0
 13 14  1  0
 14 15  1  0
 15 16  2  0
 16 17  1  0
 15 18  1  0
 18 19  2  0
 19 20  1  0
 20 21  1  0
 21 22  1  0
 20 23  2  0
 23 24  1  0
 24 25  2  0
 25 26  1  0
 26 27  1  0
 26 28  1  0
 26 29  1  0
  8  2  1  0
 17  9  1  0
 25 18  1  0
 17 13  2  0
  1 30  1  0
  1 31  1  0
  1 32  1  0
  2 33  1  6
  3 34  1  0
  3 35  1  0
  5 36  1  0
  5 37  1  0
  6 38  1  6
  7 39  1  0
  7 40  1  0
  7 41  1  0
  8 42  1  0
 10 43  1  0
 11 44  1  0
 12 45  1  0
 14 46  1  0
 19 47  1  0
 21 48  1  0
 21 49  1  0
 22 50  1  0
 23 51  1  0
 24 52  1  0
M  END
$$$$
[H]c1c([H])c([H])c2c(nc(N([H])C([H])(C([H])([H])[H])C([H])([H])[H])n2[H])c1[H]
     RDKit          3D

 26 27  0  0  0  0  0  0  0  0999 V2000
   -2.6480   -0.3578   -0.8829 C   0  0  0  0  0  0  0  0  0  0  0  0
   -2.4603    0.8714   -0.0437 C   0  0  0  0  0  0  0  0  0  0  0  0
   -3.7276    1.3994    0.5392 C   0  0  0  0  0  0  0  0  0  0  0  0
   -1.4750    0.5863    0.9849 N   0  0  0  0  0  0  0  0  0  0  0  0
   -0.1548    0.2092    0.6460 C   0  0  0  0  0  0  0  0  0  0  0  0
    0.8175   -0.0722    1.5209 N   0  0  0  0  0  0  0  0  0  0  0  0
    1.9564   -0.3955    0.8925 C   0  0  0  0  0  0  0  0  0  0  0  0
    3.1960   -0.7518    1.3522 C   0  0  0  0  0  0  0  0  0  0  0  0
    4.1801   -1.0298    0.4318 C   0  0  0  0  0  0  0  0  0  0  0  0
    3.9522   -0.9596   -0.9241 C   0  0  0  0  0  0  0  0  0  0  0  0
    2.6859   -0.5957   -1.3602 C   0  0  0  0  0  0  0  0  0  0  0  0
    1.6742   -0.3098   -0.4648 C   0  0  0  0  0  0  0  0  0  0  0  0
    0.3802    0.0608   -0.5707 N   0  0  0  0  0  0  0  0  0  0  0  0
   -2.5041   -0.1602   -1.9808 H   0  0  0  0  0  0  0  0  0  0  0  0
   -1.9135   -1.1468   -0.6133 H   0  0  0  0  0  0  0  0  0  0  0  0
   -3.6526   -0.8070   -0.6873 H   0  0  0  0  0  0  0  0  0  0  0  0
   -2.0339    1.6924   -0.6909 H   0  0  0  0  0  0  0  0  0  0  0  0
   -3.5024    1.9386    1.5057 H   0  0  0  0  0  0  0  0  0  0  0  0
   -4.4790    0.6321    0.7850 H   0  0  0  0  0  0  0  0  0  0  0  0
   -4.1989    2.1663   -0.1430 H   0  0  0  0  0  0  0  0  0  0  0  0
   -1.7862    0.6725    1.9799 H   0  0  0  0  0  0  0  0  0  0  0  0
    3.3828   -0.8091    2.4053 H   0  0  0  0  0  0  0  0  0  0  0  0
    5.1673   -1.3136    0.8112 H   0  0  0  0  0  0  0  0  0  0  0  0
    4.7417   -1.1828   -1.6004 H   0  0  0  0  0  0  0  0  0  0  0  0
    2.5037   -0.5397   -2.4199 H   0  0  0  0  0  0  0  0  0  0  0  0
   -0.1017    0.2023   -1.4727 H   0  0  0  0  0  0  0  0  0  0  0  0
  1  2  1  0
  2  3  1  0
  2  4  1  0
  4  5  1  0
  5  6  2  0
  6  7  1  0
  7  8  2  0
  8  9  1  0
  9 10  2  0
 10 11  1  0
 11 12  2  0
 12 13  1  0
 13  5  1  0
 12  7  1  0
  1 14  1  0
  1 15  1  0
  1 16  1  0
  2 17  1  0
  3 18  1  0
  3 19  1  0
  3 20  1  0
  4 21  1  0
  8 22  1  0
  9 23  1  0
 10 24  1  0
 11 25  1  0
 13 26  1  0
M  END
$$$$
[H]OC(=O)C1=C([H])C(c2c([H])c([H])c(C3([H])C([H])([H])C3([H])[H])c([H])c2[H])=NN([H])c2c([H])c(O[H])c([H])c([H])c21
     RDKit          3D

 40 43  0  0  0  0  0  0  0  0999 V2000
   -6.2950    2.5398   -0.5621 O   0  0  0  0  0  0  0  0  0  0  0  0
   -5.2686    1.6901   -0.1727 C   0  0  0  0  0  0  0  0  0  0  0  0
   -5.1808    1.1231    1.0776 C   0  0  0  0  0  0  0  0  0  0  0  0
   -4.1759    0.2774    1.4874 C   0  0  0  0  0  0  0  0  0  0  0  0
   -3.1984   -0.0121    0.5643 C   0  0  0  0  0  0  0  0  0  0  0  0
   -2.2231   -0.9571    1.0762 C   0  0  0  0  0  0  0  0  0  0  0  0
   -0.9704   -1.0476    0.6208 C   0  0  0  0  0  0  0  0  0  0  0  0
   -0.2830   -0.3158   -0.4121 C   0  0  0  0  0  0  0  0  0  0  0  0
   -0.8506    0.3097   -1.4276 N   0  0  0  0  0  0  0  0  0  0  0  0
   -2.2372    0.4076   -1.7289 N   0  0  0  0  0  0  0  0  0  0  0  0
   -3.2511    0.5444   -0.7024 C   0  0  0  0  0  0  0  0  0  0  0  0
   -4.2569    1.3765   -1.0787 C   0  0  0  0  0  0  0  0  0  0  0  0
    1.1704   -0.2126   -0.4021 C   0  0  0  0  0  0  0  0  0  0  0  0
    1.7868    0.4930   -1.4304 C   0  0  0  0  0  0  0  0  0  0  0  0
    3.1436    0.6350   -1.4864 C   0  0  0  0  0  0  0  0  0  0  0  0
    3.9727    0.0882   -0.5295 C   0  0  0  0  0  0  0  0  0  0  0  0
    3.3505   -0.6088    0.4847 C   0  0  0  0  0  0  0  0  0  0  0  0
    1.9610   -0.7600    0.5512 C   0  0  0  0  0  0  0  0  0  0  0  0
    5.4343    0.2671   -0.6306 C   0  0  0  0  0  0  0  0  0  0  0  0
    6.3588   -0.7373   -0.0456 C   0  0  0  0  0  0  0  0  0  0  0  0
    6.1185    0.5075    0.6874 C   0  0  0  0  0  0  0  0  0  0  0  0
   -2.5828   -1.8768    2.0829 C   0  0  0  0  0  0  0  0  0  0  0  0
   -3.7858   -2.0562    2.6821 O   0  0  0  0  0  0  0  0  0  0  0  0
   -1.6601   -2.6670    2.5125 O   0  0  0  0  0  0  0  0  0  0  0  0
   -7.1099    2.0905   -0.9799 H   0  0  0  0  0  0  0  0  0  0  0  0
   -5.9512    1.3494    1.8029 H   0  0  0  0  0  0  0  0  0  0  0  0
   -4.0823   -0.1200    2.4573 H   0  0  0  0  0  0  0  0  0  0  0  0
   -0.3585   -1.7954    1.0950 H   0  0  0  0  0  0  0  0  0  0  0  0
   -2.5890    0.4077   -2.6909 H   0  0  0  0  0  0  0  0  0  0  0  0
   -4.2382    1.7668   -2.0789 H   0  0  0  0  0  0  0  0  0  0  0  0
    1.1974    0.9594   -2.2323 H   0  0  0  0  0  0  0  0  0  0  0  0
    3.5867    1.1930   -2.3051 H   0  0  0  0  0  0  0  0  0  0  0  0
    3.9953   -1.0405    1.2390 H   0  0  0  0  0  0  0  0  0  0  0  0
    1.5500   -1.3152    1.3736 H   0  0  0  0  0  0  0  0  0  0  0  0
    5.7676    0.8530   -1.5065 H   0  0  0  0  0  0  0  0  0  0  0  0
    7.3522   -0.8144   -0.5578 H   0  0  0  0  0  0  0  0  0  0  0  0
    6.0178   -1.6924    0.3620 H   0  0  0  0  0  0  0  0  0  0  0  0
    6.8110    1.3631    0.6988 H   0  0  0  0  0  0  0  0  0  0  0  0
    5.5244    0.4130    1.6361 H   0  0  0  0  0  0  0  0  0  0  0  0
   -4.5502   -2.6261    2.2891 H   0  0  0  0  0  0  0  0  0  0  0  0
  1  2  1  0
  2  3  2  0
  3  4  1  0
  4  5  2  0
  5  6  1  0
  6  7  2  0
  7  8  1  0
  8  9  2  0
  9 10  1  0
 10 11  1  0
 11 12  2  0
  8 13  1  0
 13 14  2  0
 14 15  1  0
 15 16  2  0
 16 17  1  0
 17 18  2  0
 16 19  1  0
 19 20  1  0
 20 21  1  0
  6 22  1  0
 22 23  1  0
 22 24  2  0
 12  2  1  0
 18 13  1  0
 21 19  1  0
 11  5  1  0
  1 25  1  0
  3 26  1  0
  4 27  1  0
  7 28  1  0
 10 29  1  0
 12 30  1  0
 14 31  1  0
 15 32  1  0
 17 33  1  0
 18 34  1  0
 19 35  1  0
 20 36  1  0
 20 37  1  0
 21 38  1  0
 21 39  1  0
 23 40  1  0
M  END
$$$$
[H]c1c([H])c(C#Cc2c([H])c([H])c(N([H])C([H])([H])C([H])([H])C([H])([H])C([H])([H])C([H])([H])C(=O)N3C([H])([H])C([H])([H])C([H])(N4C([H])([H])C([H])([H])C([H])([H])C4([H])[H])C([H])([H])C3([H])[H])c([H])c2[H])c([H])c(C(F)(F)F)c1[H]
     RDKit          3D

 73 76  0  0  0  0  0  0  0  0999 V2000
   13.0870    1.3869    0.0762 F   0  0  0  0  0  0  0  0  0  0  0  0
   13.1932    0.0503   -0.3153 C   0  0  0  0  0  0  0  0  0  0  0  0
   14.3962   -0.4869    0.1103 F   0  0  0  0  0  0  0  0  0  0  0  0
   13.2307    0.0444   -1.6911 F   0  0  0  0  0  0  0  0  0  0  0  0
   12.0603   -0.7414    0.2268 C   0  0  0  0  0  0  0  0  0  0  0  0
   12.2925   -1.8644    0.9841 C   0  0  0  0  0  0  0  0  0  0  0  0
   11.2560   -2.5956    1.4984 C   0  0  0  0  0  0  0  0  0  0  0  0
    9.9660   -2.1877    1.2434 C   0  0  0  0  0  0  0  0  0  0  0  0
    9.6854   -1.0652    0.4873 C   0  0  0  0  0  0  0  0  0  0  0  0
   10.7498   -0.3559   -0.0114 C   0  0  0  0  0  0  0  0  0  0  0  0
    8.3054   -0.6796    0.2801 C   0  0  0  0  0  0  0  0  0  0  0  0
    7.1438   -0.3436    0.1319 C   0  0  0  0  0  0  0  0  0  0  0  0
    5.7612    0.0655   -0.0031 C   0  0  0  0  0  0  0  0  0  0  0  0
    4.7513   -0.6135    0.6498 C   0  0  0  0  0  0  0  0  0  0  0  0
    3.4119   -0.2110    0.5490 C   0  0  0  0  0  0  0  0  0  0  0  0
    3.0714    0.8641   -0.1980 C   0  0  0  0  0  0  0  0  0  0  0  0
    1.6965    1.2962   -0.2964 N   0  0  0  0  0  0  0  0  0  0  0  0
    1.3808    2.5458   -0.8813 C   0  0  0  0  0  0  0  0  0  0  0  0
   -0.0146    2.9874   -0.8362 C   0  0  0  0  0  0  0  0  0  0  0  0
   -1.0267    2.2608   -1.5823 C   0  0  0  0  0  0  0  0  0  0  0  0
   -1.4468    0.8857   -1.3836 C   0  0  0  0  0  0  0  0  0  0  0  0
   -2.0792    0.4611   -0.1035 C   0  0  0  0  0  0  0  0  0  0  0  0
   -3.3165    1.2011    0.2713 C   0  0  0  0  0  0  0  0  0  0  0  0
   -3.1980    2.4539    0.4436 O   0  0  0  0  0  0  0  0  0  0  0  0
   -4.5785    0.5838    0.4455 N   0  0  0  0  0  0  0  0  0  0  0  0
   -4.7487   -0.8112    0.1500 C   0  0  0  0  0  0  0  0  0  0  0  0
   -6.1784   -1.2105    0.4102 C   0  0  0  0  0  0  0  0  0  0  0  0
   -7.1143   -0.2790   -0.2837 C   0  0  0  0  0  0  0  0  0  0  0  0
   -6.9232    1.1690    0.0619 C   0  0  0  0  0  0  0  0  0  0  0  0
   -5.6865    1.3566    0.9414 C   0  0  0  0  0  0  0  0  0  0  0  0
   -8.5134   -0.6602   -0.1936 N   0  0  0  0  0  0  0  0  0  0  0  0
   -8.7854   -1.9170   -0.8619 C   0  0  0  0  0  0  0  0  0  0  0  0
   -9.6934   -2.7290    0.0346 C   0  0  0  0  0  0  0  0  0  0  0  0
  -10.2242   -1.6425    0.9826 C   0  0  0  0  0  0  0  0  0  0  0  0
   -8.9267   -0.8707    1.1944 C   0  0  0  0  0  0  0  0  0  0  0  0
    4.0646    1.5528   -0.8565 C   0  0  0  0  0  0  0  0  0  0  0  0
    5.4046    1.1592   -0.7634 C   0  0  0  0  0  0  0  0  0  0  0  0
   13.3038   -2.1849    1.1831 H   0  0  0  0  0  0  0  0  0  0  0  0
   11.4603   -3.4968    2.1029 H   0  0  0  0  0  0  0  0  0  0  0  0
    9.1316   -2.7465    1.6384 H   0  0  0  0  0  0  0  0  0  0  0  0
   10.5501    0.5388   -0.6141 H   0  0  0  0  0  0  0  0  0  0  0  0
    5.0126   -1.4637    1.2468 H   0  0  0  0  0  0  0  0  0  0  0  0
    2.6534   -0.7868    1.0848 H   0  0  0  0  0  0  0  0  0  0  0  0
    0.9604    0.6701    0.0702 H   0  0  0  0  0  0  0  0  0  0  0  0
    1.6762    2.5524   -1.9915 H   0  0  0  0  0  0  0  0  0  0  0  0
    2.0551    3.3117   -0.3684 H   0  0  0  0  0  0  0  0  0  0  0  0
   -0.2723    3.1033    0.2756 H   0  0  0  0  0  0  0  0  0  0  0  0
    0.0001    4.0748   -1.2482 H   0  0  0  0  0  0  0  0  0  0  0  0
   -2.0013    2.8957   -1.6113 H   0  0  0  0  0  0  0  0  0  0  0  0
   -0.7842    2.3334   -2.7282 H   0  0  0  0  0  0  0  0  0  0  0  0
   -2.1711    0.6427   -2.2500 H   0  0  0  0  0  0  0  0  0  0  0  0
   -0.5715    0.2021   -1.6406 H   0  0  0  0  0  0  0  0  0  0  0  0
   -1.3883    0.5817    0.7687 H   0  0  0  0  0  0  0  0  0  0  0  0
   -2.3153   -0.6401   -0.1744 H   0  0  0  0  0  0  0  0  0  0  0  0
   -4.1224   -1.4400    0.8254 H   0  0  0  0  0  0  0  0  0  0  0  0
   -4.4745   -1.0097   -0.9314 H   0  0  0  0  0  0  0  0  0  0  0  0
   -6.2931   -1.1747    1.5339 H   0  0  0  0  0  0  0  0  0  0  0  0
   -6.3078   -2.2441    0.0361 H   0  0  0  0  0  0  0  0  0  0  0  0
   -6.8739   -0.3748   -1.3909 H   0  0  0  0  0  0  0  0  0  0  0  0
   -6.7230    1.7766   -0.8436 H   0  0  0  0  0  0  0  0  0  0  0  0
   -7.7673    1.6136    0.5951 H   0  0  0  0  0  0  0  0  0  0  0  0
   -5.9324    1.1169    2.0006 H   0  0  0  0  0  0  0  0  0  0  0  0
   -5.4280    2.4243    0.8926 H   0  0  0  0  0  0  0  0  0  0  0  0
   -9.4542   -1.6320   -1.7394 H   0  0  0  0  0  0  0  0  0  0  0  0
   -7.9016   -2.4507   -1.2160 H   0  0  0  0  0  0  0  0  0  0  0  0
  -10.5084   -3.2480   -0.4953 H   0  0  0  0  0  0  0  0  0  0  0  0
   -9.0837   -3.3934    0.6687 H   0  0  0  0  0  0  0  0  0  0  0  0
  -10.5894   -2.0898    1.9220 H   0  0  0  0  0  0  0  0  0  0  0  0
  -10.9845   -1.0596    0.4373 H   0  0  0  0  0  0  0  0  0  0  0  0
   -8.2542   -1.6274    1.7022 H   0  0  0  0  0  0  0  0  0  0  0  0
   -9.0385    0.0420    1.7624 H   0  0  0  0  0  0  0  0  0  0  0  0
    3.8224    2.3997   -1.4498 H   0  0  0  0  0  0  0  0  0  0  0  0
    6.1606    1.7233   -1.2989 H   0  0  0  0  0  0  0  0  0  0  0  0
  1  2  1  0
  2  3  1  0
  2  4  1  0
  2  5  1  0
  5  6  2  0
  6  7  1  0
  7  8  2  0
  8  9  1  0
  9 10  2  0
  9 11  1  0
 11 12  3  0
 12 13  1  0
 13 14  2  0
 14 15  1  0
 15 16  2  0
 16 17  1  0
 17 18  1  0
 18 19  1  0
 19 20  1  0
 20 21  1  0
 21 22  1  0
 22 23  1  0
 23 24  2  0
 23 25  1  0
 25 26  1  0
 26 27  1  0
 27 28  1  0
 28 29  1  0
 29 30  1  0
 28 31  1  0
 31 32  1  0
 32 33  1  0
 33 34  1  0
 34 35  1  0
 16 36  1  0
 36 37  2  0
 10  5  1  0
 37 13  1  0
 30 25  1  0
 35 31  1  0
  6 38  1  0
  7 39  1  0
  8 40  1  0
 10 41  1  0
 14 42  1  0
 15 43  1  0
 17 44  1  0
 18 45  1  0
 18 46  1  0
 19 47  1  0
 19 48  1  0
 20 49  1  0
 20 50  1  0
 21 51  1  0
 21 52  1  0
 22 53  1  0
 22 54  1  0
 26 55  1  0
 26 56  1  0
 27 57  1  0
 27 58  1  0
 28 59  1  0
 29 60  1  0
 29 61  1  0
 30 62  1  0
 30 63  1  0
 32 64  1  0
 32 65  1  0
 33 66  1  0
 33 67  1  0
 34 68  1  0
 34 69  1  0
 35 70  1  0
 35 71  1  0
 36 72  1  0
 37 73  1  0
M  END
$$$$
[H]OC(C(=O)N([H])c1nc([H])c(C(=O)N([H])c2c([H])c([H])c([H])c(C(=O)N(c3c([H])c([H])nc([H])c3[H])C([H])([H])[H])c2[H])c(C2([H])C([H])([H])OC2([H])[H])c1[H])(C([H])([H])[H])C([H])([H])[H]
     RDKit          3D

 63 66  0  0  0  0  0  0  0  0999 V2000
    7.8212    0.8818   -1.8279 C   0  0  0  0  0  0  0  0  0  0  0  0
    7.5281    1.6378   -0.5616 C   0  0  0  0  0  0  0  0  0  0  0  0
    8.4354    1.0744    0.5160 C   0  0  0  0  0  0  0  0  0  0  0  0
    7.8856    2.9742   -0.7422 O   0  0  0  0  0  0  0  0  0  0  0  0
    6.1116    1.5887   -0.1496 C   0  0  0  0  0  0  0  0  0  0  0  0
    5.4618    2.6420   -0.0336 O   0  0  0  0  0  0  0  0  0  0  0  0
    5.5082    0.3293    0.1096 N   0  0  0  0  0  0  0  0  0  0  0  0
    4.1298    0.2749    0.5314 C   0  0  0  0  0  0  0  0  0  0  0  0
    3.5828   -0.9911    0.7787 C   0  0  0  0  0  0  0  0  0  0  0  0
    2.2608   -1.0734    1.2031 C   0  0  0  0  0  0  0  0  0  0  0  0
    1.6981   -2.3640    1.5560 C   0  0  0  0  0  0  0  0  0  0  0  0
    2.4722   -3.5850    1.1434 C   0  0  0  0  0  0  0  0  0  0  0  0
    3.2352   -3.4880    2.3100 O   0  0  0  0  0  0  0  0  0  0  0  0
    2.1466   -2.9027    2.9113 C   0  0  0  0  0  0  0  0  0  0  0  0
    1.5870    0.0882    1.3452 C   0  0  0  0  0  0  0  0  0  0  0  0
    2.1386    1.3340    1.0987 C   0  0  0  0  0  0  0  0  0  0  0  0
    3.4191    1.4108    0.6905 N   0  0  0  0  0  0  0  0  0  0  0  0
    0.1527    0.0916    1.7215 C   0  0  0  0  0  0  0  0  0  0  0  0
   -0.0078    0.6588    2.8621 O   0  0  0  0  0  0  0  0  0  0  0  0
   -0.8431   -0.4266    0.9720 N   0  0  0  0  0  0  0  0  0  0  0  0
   -1.8628   -0.9482    0.2227 C   0  0  0  0  0  0  0  0  0  0  0  0
   -1.6185   -2.0281   -0.6273 C   0  0  0  0  0  0  0  0  0  0  0  0
   -2.5755   -2.4773   -1.4923 C   0  0  0  0  0  0  0  0  0  0  0  0
   -3.8158   -1.8903   -1.5606 C   0  0  0  0  0  0  0  0  0  0  0  0
   -4.1306   -0.7989   -0.7291 C   0  0  0  0  0  0  0  0  0  0  0  0
   -3.1490   -0.3671    0.1300 C   0  0  0  0  0  0  0  0  0  0  0  0
   -5.4242   -0.1516   -0.8573 C   0  0  0  0  0  0  0  0  0  0  0  0
   -6.0898   -0.5572   -1.9138 O   0  0  0  0  0  0  0  0  0  0  0  0
   -6.0623    0.7945   -0.0787 N   0  0  0  0  0  0  0  0  0  0  0  0
   -5.6682    1.2536    1.2178 C   0  0  0  0  0  0  0  0  0  0  0  0
   -7.3068    1.3599   -0.6072 C   0  0  0  0  0  0  0  0  0  0  0  0
   -8.3551    0.5758   -0.9808 C   0  0  0  0  0  0  0  0  0  0  0  0
   -9.5288    1.1263   -1.4801 C   0  0  0  0  0  0  0  0  0  0  0  0
   -9.6030    2.4609   -1.5857 N   0  0  0  0  0  0  0  0  0  0  0  0
   -8.5644    3.2551   -1.2162 C   0  0  0  0  0  0  0  0  0  0  0  0
   -7.3870    2.7312   -0.7169 C   0  0  0  0  0  0  0  0  0  0  0  0
    7.2093    1.2369   -2.6832 H   0  0  0  0  0  0  0  0  0  0  0  0
    8.9203    1.0678   -2.0362 H   0  0  0  0  0  0  0  0  0  0  0  0
    7.6824   -0.2052   -1.6925 H   0  0  0  0  0  0  0  0  0  0  0  0
    8.0580    1.3130    1.5487 H   0  0  0  0  0  0  0  0  0  0  0  0
    9.4115    1.5918    0.4273 H   0  0  0  0  0  0  0  0  0  0  0  0
    8.5394   -0.0237    0.3715 H   0  0  0  0  0  0  0  0  0  0  0  0
    8.6821    3.0888   -1.3359 H   0  0  0  0  0  0  0  0  0  0  0  0
    6.0724   -0.5288    0.0012 H   0  0  0  0  0  0  0  0  0  0  0  0
    4.2299   -1.8374    0.6207 H   0  0  0  0  0  0  0  0  0  0  0  0
    0.6143   -2.5038    1.4002 H   0  0  0  0  0  0  0  0  0  0  0  0
    3.1205   -3.4855    0.2618 H   0  0  0  0  0  0  0  0  0  0  0  0
    1.8579   -4.5112    1.1269 H   0  0  0  0  0  0  0  0  0  0  0  0
    2.3236   -2.1606    3.6762 H   0  0  0  0  0  0  0  0  0  0  0  0
    1.4385   -3.6721    3.2598 H   0  0  0  0  0  0  0  0  0  0  0  0
    1.5867    2.2469    1.2202 H   0  0  0  0  0  0  0  0  0  0  0  0
   -1.6816   -0.3351    2.0685 H   0  0  0  0  0  0  0  0  0  0  0  0
   -0.6254   -2.4852   -0.5629 H   0  0  0  0  0  0  0  0  0  0  0  0
   -2.3625   -3.3266   -2.1546 H   0  0  0  0  0  0  0  0  0  0  0  0
   -4.5647   -2.2366   -2.2325 H   0  0  0  0  0  0  0  0  0  0  0  0
   -3.2820    0.4709    0.7852 H   0  0  0  0  0  0  0  0  0  0  0  0
   -5.3515    0.3774    1.8664 H   0  0  0  0  0  0  0  0  0  0  0  0
   -4.9198    2.0467    1.1457 H   0  0  0  0  0  0  0  0  0  0  0  0
   -6.5701    1.6569    1.7701 H   0  0  0  0  0  0  0  0  0  0  0  0
   -8.3162   -0.4904   -0.9064 H   0  0  0  0  0  0  0  0  0  0  0  0
  -10.3591    0.5169   -1.7794 H   0  0  0  0  0  0  0  0  0  0  0  0
   -8.6990    4.3137   -1.3305 H   0  0  0  0  0  0  0  0  0  0  0  0
   -6.5969    3.3803   -0.4398 H   0  0  0  0  0  0  0  0  0  0  0  0
  1  2  1  0
  2  3  1  0
  2  4  1  0
  2  5  1  0
  5  6  2  0
  5  7  1  0
  7  8  1  0
  8  9  2  0
  9 10  1  0
 10 11  1  0
 11 12  1  0
 12 13  1  0
 13 14  1  0
 10 15  2  0
 15 16  1  0
 16 17  2  0
 15 18  1  0
 18 19  2  0
 18 20  1  0
 20 21  1  0
 21 22  2  0
 22 23  1  0
 23 24  2  0
 24 25  1  0
 25 26  2  0
 25 27  1  0
 27 28  2  0
 27 29  1  0
 29 30  1  0
 29 31  1  0
 31 32  2  0
 32 33  1  0
 33 34  2  0
 34 35  1  0
 35 36  2  0
 17  8  1  0
 26 21  1  0
 36 31  1  0
 14 11  1  0
  1 37  1  0
  1 38  1  0
  1 39  1  0
  3 40  1  0
  3 41  1  0
  3 42  1  0
  4 43  1  0
  7 44  1  0
  9 45  1  0
 11 46  1  0
 12 47  1  0
 12 48  1  0
 14 49  1  0
 14 50  1  0
 16 51  1  0
 20 52  1  0
 22 53  1  0
 23 54  1  0
 24 55  1  0
 26 56  1  0
 30 57  1  0
 30 58  1  0
 30 59  1  0
 32 60  1  0
 33 61  1  0
 35 62  1  0
 36 63  1  0
M  END
$$$$
[H]c1c(C([H])([H])[H])nc([C@]2([H])C([H])([H])[C@@]2([H])C(=Nc2oc(C([H])([H])[H])c([H])c2[H])N([H])[H])c(Oc2c([H])c([H])c(C(=O)N([H])C3(C(F)(F)F)C([H])([H])C([H])([H])C([H])([H])C([H])([H])C3([H])[H])c([H])c2C#N)c1[H]
     RDKit          3D

 71 75  0  0  0  0  0  0  0  0999 V2000
    6.4569    1.6111    4.5694 C   0  0  0  0  0  0  0  0  0  0  0  0
    6.3413    0.6251    3.4406 C   0  0  0  0  0  0  0  0  0  0  0  0
    5.4878   -0.4459    3.4675 C   0  0  0  0  0  0  0  0  0  0  0  0
    5.6547   -1.1045    2.2927 C   0  0  0  0  0  0  0  0  0  0  0  0
    6.6268   -0.4108    1.5532 C   0  0  0  0  0  0  0  0  0  0  0  0
    6.9916    0.6143    2.3059 O   0  0  0  0  0  0  0  0  0  0  0  0
    7.0373   -0.8164    0.3036 N   0  0  0  0  0  0  0  0  0  0  0  0
    6.7346   -0.5653   -0.8785 C   0  0  0  0  0  0  0  0  0  0  0  0
    7.4966   -1.2886   -1.8802 N   0  0  0  0  0  0  0  0  0  0  0  0
    5.7247    0.3509   -1.3796 C   0  0  2  0  0  0  0  0  0  0  0  0
    4.8456    1.2115   -0.5955 C   0  0  0  0  0  0  0  0  0  0  0  0
    4.2371   -0.0080   -1.1264 C   0  0  1  0  0  0  0  0  0  0  0  0
    3.3974   -0.0266   -2.3603 C   0  0  0  0  0  0  0  0  0  0  0  0
    3.8743    0.1567   -3.5957 N   0  0  0  0  0  0  0  0  0  0  0  0
    3.1118    0.1299   -4.6964 C   0  0  0  0  0  0  0  0  0  0  0  0
    3.7213    0.3432   -6.0283 C   0  0  0  0  0  0  0  0  0  0  0  0
    1.7659   -0.0939   -4.6014 C   0  0  0  0  0  0  0  0  0  0  0  0
    1.2084   -0.2902   -3.3643 C   0  0  0  0  0  0  0  0  0  0  0  0
    2.0122   -0.2571   -2.2530 C   0  0  0  0  0  0  0  0  0  0  0  0
    1.5269   -0.4396   -1.0058 O   0  0  0  0  0  0  0  0  0  0  0  0
    0.2537   -0.6178   -0.5385 C   0  0  0  0  0  0  0  0  0  0  0  0
   -0.1296   -1.8171    0.0665 C   0  0  0  0  0  0  0  0  0  0  0  0
   -1.3890   -2.0145    0.5408 C   0  0  0  0  0  0  0  0  0  0  0  0
   -2.3541   -1.0513    0.4538 C   0  0  0  0  0  0  0  0  0  0  0  0
   -2.0077    0.1419   -0.1368 C   0  0  0  0  0  0  0  0  0  0  0  0
   -0.7133    0.3574   -0.6290 C   0  0  0  0  0  0  0  0  0  0  0  0
   -0.4365    1.6511   -1.1918 C   0  0  0  0  0  0  0  0  0  0  0  0
   -0.2148    2.7037   -1.6232 N   0  0  0  0  0  0  0  0  0  0  0  0
   -3.7215   -1.2797    0.9892 C   0  0  0  0  0  0  0  0  0  0  0  0
   -3.7899   -2.1731    1.8467 O   0  0  0  0  0  0  0  0  0  0  0  0
   -4.8231   -0.5531    0.5625 N   0  0  0  0  0  0  0  0  0  0  0  0
   -6.2018   -0.6174    0.9387 C   0  0  0  0  0  0  0  0  0  0  0  0
   -6.9233    0.5046    0.1953 C   0  0  0  0  0  0  0  0  0  0  0  0
   -8.1680    0.9836    0.8414 C   0  0  0  0  0  0  0  0  0  0  0  0
   -8.1134    1.1376    2.3265 C   0  0  0  0  0  0  0  0  0  0  0  0
   -6.6781    0.9958    2.8012 C   0  0  0  0  0  0  0  0  0  0  0  0
   -6.2650   -0.4173    2.4394 C   0  0  0  0  0  0  0  0  0  0  0  0
   -6.8790   -1.9371    0.6338 C   0  0  0  0  0  0  0  0  0  0  0  0
   -8.2145   -1.8124    1.0372 F   0  0  0  0  0  0  0  0  0  0  0  0
   -6.3739   -2.8988    1.4778 F   0  0  0  0  0  0  0  0  0  0  0  0
   -6.8884   -2.2756   -0.6809 F   0  0  0  0  0  0  0  0  0  0  0  0
    6.2265    1.0874    5.5148 H   0  0  0  0  0  0  0  0  0  0  0  0
    7.4538    2.0826    4.5744 H   0  0  0  0  0  0  0  0  0  0  0  0
    5.7111    2.4241    4.3448 H   0  0  0  0  0  0  0  0  0  0  0  0
    4.7871   -0.7595    4.2504 H   0  0  0  0  0  0  0  0  0  0  0  0
    5.1370   -1.9906    1.9897 H   0  0  0  0  0  0  0  0  0  0  0  0
    7.0608   -2.1333   -2.2681 H   0  0  0  0  0  0  0  0  0  0  0  0
    8.4248   -0.9807   -2.1927 H   0  0  0  0  0  0  0  0  0  0  0  0
    5.9423    0.7414   -2.4163 H   0  0  0  0  0  0  0  0  0  0  0  0
    4.9046    1.3280    0.4978 H   0  0  0  0  0  0  0  0  0  0  0  0
    4.4679    2.1671   -1.0772 H   0  0  0  0  0  0  0  0  0  0  0  0
    4.1167   -0.8621   -0.4186 H   0  0  0  0  0  0  0  0  0  0  0  0
    3.9277    1.4059   -6.2211 H   0  0  0  0  0  0  0  0  0  0  0  0
    4.6984   -0.1848   -6.0588 H   0  0  0  0  0  0  0  0  0  0  0  0
    3.1033   -0.1188   -6.8412 H   0  0  0  0  0  0  0  0  0  0  0  0
    1.1434   -0.1154   -5.5066 H   0  0  0  0  0  0  0  0  0  0  0  0
    0.1439   -0.4726   -3.3504 H   0  0  0  0  0  0  0  0  0  0  0  0
    0.6035   -2.5818    0.1475 H   0  0  0  0  0  0  0  0  0  0  0  0
   -1.6503   -2.9570    1.0042 H   0  0  0  0  0  0  0  0  0  0  0  0
   -2.7525    0.9375   -0.2210 H   0  0  0  0  0  0  0  0  0  0  0  0
   -4.6089    0.1981   -0.1956 H   0  0  0  0  0  0  0  0  0  0  0  0
   -7.1194    0.1644   -0.8213 H   0  0  0  0  0  0  0  0  0  0  0  0
   -6.1975    1.3589    0.1712 H   0  0  0  0  0  0  0  0  0  0  0  0
   -8.3451    2.0285    0.4394 H   0  0  0  0  0  0  0  0  0  0  0  0
   -9.0978    0.4425    0.4965 H   0  0  0  0  0  0  0  0  0  0  0  0
   -8.7632    0.4003    2.8682 H   0  0  0  0  0  0  0  0  0  0  0  0
   -8.4483    2.1363    2.6894 H   0  0  0  0  0  0  0  0  0  0  0  0
   -6.0762    1.7672    2.3079 H   0  0  0  0  0  0  0  0  0  0  0  0
   -6.6834    1.0654    3.8967 H   0  0  0  0  0  0  0  0  0  0  0  0
   -5.3107   -0.5998    2.9539 H   0  0  0  0  0  0  0  0  0  0  0  0
   -7.0218   -1.0853    2.9241 H   0  0  0  0  0  0  0  0  0  0  0  0
  1  2  1  0
  2  3  2  0
  3  4  1  0
  4  5  2  0
  5  6  1  0
  5  7  1  0
  7  8  2  3
  8  9  1  0
  8 10  1  0
 10 11  1  0
 11 12  1  0
 12 13  1  0
 13 14  2  0
 14 15  1  0
 15 16  1  0
 15 17  2  0
 17 18  1  0
 18 19  2  0
 19 20  1  0
 20 21  1  0
 21 22  2  0
 22 23  1  0
 23 24  2  0
 24 25  1  0
 25 26  2  0
 26 27  1  0
 27 28  3  0
 24 29  1  0
 29 30  2  0
 29 31  1  0
 31 32  1  0
 32 33  1  0
 33 34  1  0
 34 35  1  0
 35 36  1  0
 36 37  1  0
 32 38  1  0
 38 39  1  0
 38 40  1  0
 38 41  1  0
  6  2  1  0
 12 10  1  0
 19 13  1  0
 26 21  1  0
 37 32  1  0
  1 42  1  0
  1 43  1  0
  1 44  1  0
  3 45  1  0
  4 46  1  0
  9 47  1  0
  9 48  1  0
 10 49  1  6
 11 50  1  0
 11 51  1  0
 12 52  1  1
 16 53  1  0
 16 54  1  0
 16 55  1  0
 17 56  1  0
 18 57  1  0
 22 58  1  0
 23 59  1  0
 25 60  1  0
 31 61  1  0
 33 62  1  0
 33 63  1  0
 34 64  1  0
 34 65  1  0
 35 66  1  0
 35 67  1  0
 36 68  1  0
 36 69  1  0
 37 70  1  0
 37 71  1  0
M  END
$$$$
[H]/C(=C(/[H])c1c([H])c([H])c(C([H])([H])N=C(N([H])[H])N([H])[H])c([H])c1[H])c1c([H])c([H])c([H])c([H])c1[H]
     RDKit          3D

 36 37  0  0  0  0  0  0  0  0999 V2000
    4.7916    2.5745   -1.0555 N   0  0  0  0  0  0  0  0  0  0  0  0
    5.1263    1.4536   -0.2554 C   0  0  0  0  0  0  0  0  0  0  0  0
    5.9686    1.6011    0.8914 N   0  0  0  0  0  0  0  0  0  0  0  0
    4.6794    0.2729   -0.5412 N   0  0  0  0  0  0  0  0  0  0  0  0
    3.8316   -0.0413   -1.6457 C   0  0  0  0  0  0  0  0  0  0  0  0
    2.4549   -0.3122   -1.1646 C   0  0  0  0  0  0  0  0  0  0  0  0
    1.5412    0.7173   -1.0787 C   0  0  0  0  0  0  0  0  0  0  0  0
    0.2302    0.4787   -0.6233 C   0  0  0  0  0  0  0  0  0  0  0  0
   -0.1715   -0.7791   -0.2547 C   0  0  0  0  0  0  0  0  0  0  0  0
   -1.4904   -1.0747    0.2174 C   0  0  0  0  0  0  0  0  0  0  0  0
   -2.4120   -0.1601    0.3357 C   0  0  0  0  0  0  0  0  0  0  0  0
   -3.7739   -0.4164    0.8142 C   0  0  0  0  0  0  0  0  0  0  0  0
   -4.1849   -1.6612    1.1803 C   0  0  0  0  0  0  0  0  0  0  0  0
   -5.5000   -1.8384    1.6300 C   0  0  0  0  0  0  0  0  0  0  0  0
   -6.3727   -0.7834    1.7062 C   0  0  0  0  0  0  0  0  0  0  0  0
   -5.9573    0.4736    1.3363 C   0  0  0  0  0  0  0  0  0  0  0  0
   -4.6731    0.6373    0.8989 C   0  0  0  0  0  0  0  0  0  0  0  0
    0.7719   -1.8141   -0.3488 C   0  0  0  0  0  0  0  0  0  0  0  0
    2.0515   -1.5792   -0.7936 C   0  0  0  0  0  0  0  0  0  0  0  0
    5.2323    2.7223   -1.9778 H   0  0  0  0  0  0  0  0  0  0  0  0
    4.0932    3.2598   -0.7115 H   0  0  0  0  0  0  0  0  0  0  0  0
    6.9495    1.2447    0.8822 H   0  0  0  0  0  0  0  0  0  0  0  0
    5.6360    2.0592    1.7539 H   0  0  0  0  0  0  0  0  0  0  0  0
    3.8527    0.7150   -2.4552 H   0  0  0  0  0  0  0  0  0  0  0  0
    4.2033   -0.9872   -2.1115 H   0  0  0  0  0  0  0  0  0  0  0  0
    1.8596    1.7117   -1.3706 H   0  0  0  0  0  0  0  0  0  0  0  0
   -0.4216    1.3421   -0.5871 H   0  0  0  0  0  0  0  0  0  0  0  0
   -1.7540   -2.1034    0.4945 H   0  0  0  0  0  0  0  0  0  0  0  0
   -2.1765    0.8761    0.0667 H   0  0  0  0  0  0  0  0  0  0  0  0
   -3.5461   -2.5369    1.1441 H   0  0  0  0  0  0  0  0  0  0  0  0
   -5.7945   -2.8439    1.9139 H   0  0  0  0  0  0  0  0  0  0  0  0
   -7.3711   -0.9524    2.0545 H   0  0  0  0  0  0  0  0  0  0  0  0
   -6.6299    1.3341    1.3858 H   0  0  0  0  0  0  0  0  0  0  0  0
   -4.3481    1.6361    0.6064 H   0  0  0  0  0  0  0  0  0  0  0  0
    0.5091   -2.8364   -0.0690 H   0  0  0  0  0  0  0  0  0  0  0  0
    2.7947   -2.3900   -0.8686 H   0  0  0  0  0  0  0  0  0  0  0  0
  1  2  1  0
  2  3  1  0
  2  4  2  3
  4  5  1  0
  5  6  1  0
  6  7  2  0
  7  8  1  0
  8  9  2  0
  9 10  1  0
 10 11  2  0
 11 12  1  0
 12 13  2  0
 13 14  1  0
 14 15  2  0
 15 16  1  0
 16 17  2  0
  9 18  1  0
 18 19  2  0
 19  6  1  0
 17 12  1  0
  1 20  1  0
  1 21  1  0
  3 22  1  0
  3 23  1  0
  5 24  1  0
  5 25  1  0
  7 26  1  0
  8 27  1  0
 10 28  1  0
 11 29  1  0
 13 30  1  0
 14 31  1  0
 15 32  1  0
 16 33  1  0
 17 34  1  0
 18 35  1  0
 19 36  1  0
M  END
$$$$
[H]c1nc(-c2c([H])c([H])nc(N([H])C(=O)c3c([H])c([H])c(C([H])([H])[H])c([H])c3[H])c2[H])c([H])c(C(=O)N([H])c2c([H])c([H])c([H])c(C([H])([H])N([H])C([H])([H])C([H])([H])c3c([H])c([H])c4c(c3[H])OC([H])([H])O4)c2[H])c1[H]
     RDKit          3D

 75 80  0  0  0  0  0  0  0  0999 V2000
    8.5480    2.4317    3.1119 C   0  0  0  0  0  0  0  0  0  0  0  0
    8.7016    1.4036    2.0374 C   0  0  0  0  0  0  0  0  0  0  0  0
    8.6383    1.8156    0.7255 C   0  0  0  0  0  0  0  0  0  0  0  0
    8.7777    0.8809   -0.2685 C   0  0  0  0  0  0  0  0  0  0  0  0
    8.9820   -0.4794   -0.0048 C   0  0  0  0  0  0  0  0  0  0  0  0
    9.0358   -0.8297    1.3373 C   0  0  0  0  0  0  0  0  0  0  0  0
    8.9026    0.0686    2.3524 C   0  0  0  0  0  0  0  0  0  0  0  0
    9.1535   -1.4004   -1.0897 C   0  0  0  0  0  0  0  0  0  0  0  0
   10.4105   -1.6110   -1.3832 O   0  0  0  0  0  0  0  0  0  0  0  0
    8.2285   -2.0796   -1.8522 N   0  0  0  0  0  0  0  0  0  0  0  0
    6.8377   -2.1357   -1.8204 C   0  0  0  0  0  0  0  0  0  0  0  0
    5.9897   -1.5309   -0.9316 C   0  0  0  0  0  0  0  0  0  0  0  0
    4.5995   -1.6251   -0.9807 C   0  0  0  0  0  0  0  0  0  0  0  0
    4.0301   -2.3635   -1.9719 C   0  0  0  0  0  0  0  0  0  0  0  0
    4.8643   -2.9777   -2.8717 C   0  0  0  0  0  0  0  0  0  0  0  0
    6.1804   -2.8639   -2.7911 N   0  0  0  0  0  0  0  0  0  0  0  0
    3.8034   -0.9515    0.0282 C   0  0  0  0  0  0  0  0  0  0  0  0
    2.4268   -0.9828    0.0868 C   0  0  0  0  0  0  0  0  0  0  0  0
    1.7331   -0.3252    1.0957 C   0  0  0  0  0  0  0  0  0  0  0  0
    2.4679    0.3571    2.0313 C   0  0  0  0  0  0  0  0  0  0  0  0
    3.8591    0.4015    1.9891 C   0  0  0  0  0  0  0  0  0  0  0  0
    4.4389   -0.2578    0.9872 N   0  0  0  0  0  0  0  0  0  0  0  0
    0.2679   -0.3650    1.1566 C   0  0  0  0  0  0  0  0  0  0  0  0
   -0.2597   -0.1424    2.2935 O   0  0  0  0  0  0  0  0  0  0  0  0
   -0.5469   -0.6266    0.0617 N   0  0  0  0  0  0  0  0  0  0  0  0
   -1.9630   -0.6974    0.0536 C   0  0  0  0  0  0  0  0  0  0  0  0
   -2.7058   -1.0794    1.1490 C   0  0  0  0  0  0  0  0  0  0  0  0
   -4.0959   -1.1102    1.1184 C   0  0  0  0  0  0  0  0  0  0  0  0
   -4.7643   -0.7528   -0.0302 C   0  0  0  0  0  0  0  0  0  0  0  0
   -4.0533   -0.3576   -1.1680 C   0  0  0  0  0  0  0  0  0  0  0  0
   -4.8189    0.0340   -2.3759 C   0  0  0  0  0  0  0  0  0  0  0  0
   -5.7722    1.0280   -1.9420 N   0  0  0  0  0  0  0  0  0  0  0  0
   -6.6159    1.5551   -2.9711 C   0  0  0  0  0  0  0  0  0  0  0  0
   -7.5395    2.5674   -2.2696 C   0  0  0  0  0  0  0  0  0  0  0  0
   -8.3080    1.8184   -1.2448 C   0  0  0  0  0  0  0  0  0  0  0  0
   -9.5277    1.2774   -1.6017 C   0  0  0  0  0  0  0  0  0  0  0  0
  -10.2363    0.5738   -0.6427 C   0  0  0  0  0  0  0  0  0  0  0  0
   -9.7514    0.4120    0.6274 C   0  0  0  0  0  0  0  0  0  0  0  0
  -10.2883   -0.2470    1.7264 O   0  0  0  0  0  0  0  0  0  0  0  0
   -9.2498   -0.4626    2.6736 C   0  0  0  0  0  0  0  0  0  0  0  0
   -8.3574    0.5948    2.3378 O   0  0  0  0  0  0  0  0  0  0  0  0
   -8.5350    0.9448    1.0028 C   0  0  0  0  0  0  0  0  0  0  0  0
   -7.8407    1.6409    0.0453 C   0  0  0  0  0  0  0  0  0  0  0  0
   -2.6914   -0.3473   -1.0778 C   0  0  0  0  0  0  0  0  0  0  0  0
    9.0322    3.3892    2.8548 H   0  0  0  0  0  0  0  0  0  0  0  0
    7.4416    2.6163    3.1872 H   0  0  0  0  0  0  0  0  0  0  0  0
    8.9274    2.0421    4.0784 H   0  0  0  0  0  0  0  0  0  0  0  0
    8.4771    2.8804    0.4983 H   0  0  0  0  0  0  0  0  0  0  0  0
    8.7253    1.2363   -1.3028 H   0  0  0  0  0  0  0  0  0  0  0  0
    9.1927   -1.8769    1.5848 H   0  0  0  0  0  0  0  0  0  0  0  0
    8.9428   -0.1760    3.4149 H   0  0  0  0  0  0  0  0  0  0  0  0
    8.6491   -2.7317   -2.6409 H   0  0  0  0  0  0  0  0  0  0  0  0
    6.3922   -0.9528   -0.1366 H   0  0  0  0  0  0  0  0  0  0  0  0
    2.9442   -2.4574   -2.0419 H   0  0  0  0  0  0  0  0  0  0  0  0
    4.3798   -3.5612   -3.6526 H   0  0  0  0  0  0  0  0  0  0  0  0
    1.8822   -1.5172   -0.6498 H   0  0  0  0  0  0  0  0  0  0  0  0
    2.0000    0.8945    2.8480 H   0  0  0  0  0  0  0  0  0  0  0  0
    4.4284    0.9392    2.7262 H   0  0  0  0  0  0  0  0  0  0  0  0
   -0.1070   -0.8029   -0.9043 H   0  0  0  0  0  0  0  0  0  0  0  0
   -2.2215   -1.3854    2.0828 H   0  0  0  0  0  0  0  0  0  0  0  0
   -4.6118   -1.4173    2.0064 H   0  0  0  0  0  0  0  0  0  0  0  0
   -5.8257   -0.7644   -0.0970 H   0  0  0  0  0  0  0  0  0  0  0  0
   -4.0675    0.4834   -3.0780 H   0  0  0  0  0  0  0  0  0  0  0  0
   -5.3017   -0.8051   -2.8719 H   0  0  0  0  0  0  0  0  0  0  0  0
   -5.2498    1.8350   -1.5171 H   0  0  0  0  0  0  0  0  0  0  0  0
   -6.0634    2.0794   -3.7851 H   0  0  0  0  0  0  0  0  0  0  0  0
   -7.2915    0.7869   -3.4071 H   0  0  0  0  0  0  0  0  0  0  0  0
   -8.1945    3.0961   -2.9594 H   0  0  0  0  0  0  0  0  0  0  0  0
   -6.8754    3.2656   -1.7063 H   0  0  0  0  0  0  0  0  0  0  0  0
   -9.9391    1.3924   -2.6094 H   0  0  0  0  0  0  0  0  0  0  0  0
  -11.1883    0.1574   -0.9426 H   0  0  0  0  0  0  0  0  0  0  0  0
   -9.6091   -0.4071    3.7017 H   0  0  0  0  0  0  0  0  0  0  0  0
   -8.8066   -1.4631    2.5266 H   0  0  0  0  0  0  0  0  0  0  0  0
   -6.8856    2.0692    0.3105 H   0  0  0  0  0  0  0  0  0  0  0  0
   -2.1322   -0.0481   -1.9433 H   0  0  0  0  0  0  0  0  0  0  0  0
  1  2  1  0
  2  3  2  0
  3  4  1  0
  4  5  2  0
  5  6  1  0
  6  7  2  0
  5  8  1  0
  8  9  2  0
  8 10  1  0
 10 11  1  0
 11 12  2  0
 12 13  1  0
 13 14  2  0
 14 15  1  0
 15 16  2  0
 13 17  1  0
 17 18  2  0
 18 19  1  0
 19 20  2  0
 20 21  1  0
 21 22  2  0
 19 23  1  0
 23 24  2  0
 23 25  1  0
 25 26  1  0
 26 27  2  0
 27 28  1  0
 28 29  2  0
 29 30  1  0
 30 31  1  0
 31 32  1  0
 32 33  1  0
 33 34  1  0
 34 35  1  0
 35 36  2  0
 36 37  1  0
 37 38  2  0
 38 39  1  0
 39 40  1  0
 40 41  1  0
 41 42  1  0
 42 43  2  0
 30 44  2  0
  7  2  1  0
 16 11  1  0
 22 17  1  0
 44 26  1  0
 43 35  1  0
 42 38  1  0
  1 45  1  0
  1 46  1  0
  1 47  1  0
  3 48  1  0
  4 49  1  0
  6 50  1  0
  7 51  1  0
 10 52  1  0
 12 53  1  0
 14 54  1  0
 15 55  1  0
 18 56  1  0
 20 57  1  0
 21 58  1  0
 25 59  1  0
 27 60  1  0
 28 61  1  0
 29 62  1  0
 31 63  1  0
 31 64  1  0
 32 65  1  0
 33 66  1  0
 33 67  1  0
 34 68  1  0
 34 69  1  0
 36 70  1  0
 37 71  1  0
 40 72  1  0
 40 73  1  0
 43 74  1  0
 44 75  1  0
M  END
$$$$
[H]c1nc([H])c(C([H])(C([H])([H])[H])C([H])([H])[H])c([H])c1N([H])C(=O)N([H])c1c([H])c([H])c(C([H])(C([H])([H])[H])C([H])([H])[H])c([H])c1[H]
     RDKit          3D

 45 46  0  0  0  0  0  0  0  0999 V2000
   -6.6999    1.9264    0.2859 C   0  0  0  0  0  0  0  0  0  0  0  0
   -6.2082    0.5229    0.5865 C   0  0  0  0  0  0  0  0  0  0  0  0
   -7.2668   -0.5077    0.2668 C   0  0  0  0  0  0  0  0  0  0  0  0
   -4.9439    0.2514   -0.1348 C   0  0  0  0  0  0  0  0  0  0  0  0
   -4.9644    0.2830   -1.5121 C   0  0  0  0  0  0  0  0  0  0  0  0
   -3.8235    0.0375   -2.1633 N   0  0  0  0  0  0  0  0  0  0  0  0
   -2.6513   -0.2408   -1.4975 C   0  0  0  0  0  0  0  0  0  0  0  0
   -2.6120   -0.2754   -0.1349 C   0  0  0  0  0  0  0  0  0  0  0  0
   -1.4596   -0.5252    0.6232 N   0  0  0  0  0  0  0  0  0  0  0  0
   -0.1252   -0.3456    0.1936 C   0  0  0  0  0  0  0  0  0  0  0  0
    0.0798    0.0831   -0.9600 O   0  0  0  0  0  0  0  0  0  0  0  0
    0.9273   -0.6520    1.0695 N   0  0  0  0  0  0  0  0  0  0  0  0
    2.2879   -0.5295    0.7669 C   0  0  0  0  0  0  0  0  0  0  0  0
    2.7719   -0.5167   -0.5084 C   0  0  0  0  0  0  0  0  0  0  0  0
    4.1473   -0.3654   -0.7630 C   0  0  0  0  0  0  0  0  0  0  0  0
    5.0025   -0.2302    0.3074 C   0  0  0  0  0  0  0  0  0  0  0  0
    4.5038   -0.2449    1.6022 C   0  0  0  0  0  0  0  0  0  0  0  0
    3.1681   -0.3911    1.8609 C   0  0  0  0  0  0  0  0  0  0  0  0
    6.4544   -0.0709    0.0251 C   0  0  0  0  0  0  0  0  0  0  0  0
    6.6485    1.2519   -0.7229 C   0  0  0  0  0  0  0  0  0  0  0  0
    6.9500   -1.1924   -0.8584 C   0  0  0  0  0  0  0  0  0  0  0  0
   -3.8133   -0.0178    0.5680 C   0  0  0  0  0  0  0  0  0  0  0  0
   -6.9602    2.0251   -0.7957 H   0  0  0  0  0  0  0  0  0  0  0  0
   -5.8881    2.6265    0.5544 H   0  0  0  0  0  0  0  0  0  0  0  0
   -7.5809    2.1176    0.9439 H   0  0  0  0  0  0  0  0  0  0  0  0
   -6.0117    0.4575    1.6692 H   0  0  0  0  0  0  0  0  0  0  0  0
   -7.6675   -0.4268   -0.7457 H   0  0  0  0  0  0  0  0  0  0  0  0
   -8.0632   -0.4243    1.0353 H   0  0  0  0  0  0  0  0  0  0  0  0
   -6.7832   -1.5077    0.4473 H   0  0  0  0  0  0  0  0  0  0  0  0
   -5.8956    0.5033   -2.0050 H   0  0  0  0  0  0  0  0  0  0  0  0
   -1.7719   -0.4485   -2.1039 H   0  0  0  0  0  0  0  0  0  0  0  0
   -1.5523   -0.8890    1.6309 H   0  0  0  0  0  0  0  0  0  0  0  0
    0.6354   -1.0081    2.0421 H   0  0  0  0  0  0  0  0  0  0  0  0
    2.1685   -0.6341   -1.3732 H   0  0  0  0  0  0  0  0  0  0  0  0
    4.5026   -0.3581   -1.7812 H   0  0  0  0  0  0  0  0  0  0  0  0
    5.2199   -0.1345    2.4254 H   0  0  0  0  0  0  0  0  0  0  0  0
    2.7478   -0.4066    2.8552 H   0  0  0  0  0  0  0  0  0  0  0  0
    7.0451    0.0288    0.9570 H   0  0  0  0  0  0  0  0  0  0  0  0
    6.4877    2.0552    0.0517 H   0  0  0  0  0  0  0  0  0  0  0  0
    7.7020    1.2736   -1.0345 H   0  0  0  0  0  0  0  0  0  0  0  0
    5.9380    1.3556   -1.5413 H   0  0  0  0  0  0  0  0  0  0  0  0
    6.3614   -2.1022   -0.6038 H   0  0  0  0  0  0  0  0  0  0  0  0
    6.7405   -0.8917   -1.9211 H   0  0  0  0  0  0  0  0  0  0  0  0
    8.0164   -1.4118   -0.7092 H   0  0  0  0  0  0  0  0  0  0  0  0
   -3.7639   -0.0502    1.6517 H   0  0  0  0  0  0  0  0  0  0  0  0
  1  2  1  0
  2  3  1  0
  2  4  1  0
  4  5  2  0
  5  6  1  0
  6  7  2  0
  7  8  1  0
  8  9  1  0
  9 10  1  0
 10 11  2  0
 10 12  1  0
 12 13  1  0
 13 14  2  0
 14 15  1  0
 15 16  2  0
 16 17  1  0
 17 18  2  0
 16 19  1  0
 19 20  1  0
 19 21  1  0
  8 22  2  0
 22  4  1  0
 18 13  1  0
  1 23  1  0
  1 24  1  0
  1 25  1  0
  2 26  1  0
  3 27  1  0
  3 28  1  0
  3 29  1  0
  5 30  1  0
  7 31  1  0
  9 32  1  0
 12 33  1  0
 14 34  1  0
 15 35  1  0
 17 36  1  0
 18 37  1  0
 19 38  1  0
 20 39  1  0
 20 40  1  0
 20 41  1  0
 21 42  1  0
 21 43  1  0
 21 44  1  0
 22 45  1  0
M  END
$$$$
[H]c1nc(C([H])([H])N2C([H])([H])C([H])([H])N(C3([H])C([H])([H])C3([H])[H])C([H])([H])C2([H])[H])c([H])nc1N([H])C(=O)c1nc(-c2onc(C([H])([H])[H])c2F)c([H])c([H])c1-c1nc([H])c([H])s1
     RDKit          3D

 62 67  0  0  0  0  0  0  0  0999 V2000
   -6.9560    1.0431    4.7578 C   0  0  0  0  0  0  0  0  0  0  0  0
   -7.0563    0.8901    3.2751 C   0  0  0  0  0  0  0  0  0  0  0  0
   -8.1324    1.1000    2.4926 N   0  0  0  0  0  0  0  0  0  0  0  0
   -7.8403    0.8649    1.2485 O   0  0  0  0  0  0  0  0  0  0  0  0
   -6.5833    0.4921    1.1180 C   0  0  0  0  0  0  0  0  0  0  0  0
   -6.0660    0.5014    2.3954 C   0  0  0  0  0  0  0  0  0  0  0  0
   -4.7892    0.1806    2.7351 F   0  0  0  0  0  0  0  0  0  0  0  0
   -5.9113    0.1481   -0.1343 C   0  0  0  0  0  0  0  0  0  0  0  0
   -6.5636    0.1901   -1.3337 C   0  0  0  0  0  0  0  0  0  0  0  0
   -5.9631   -0.1250   -2.5322 C   0  0  0  0  0  0  0  0  0  0  0  0
   -4.5931   -0.5125   -2.5057 C   0  0  0  0  0  0  0  0  0  0  0  0
   -3.9763   -0.5533   -1.3393 C   0  0  0  0  0  0  0  0  0  0  0  0
   -2.6274   -1.0715   -1.1070 C   0  0  0  0  0  0  0  0  0  0  0  0
   -2.2039   -1.9415   -1.8654 O   0  0  0  0  0  0  0  0  0  0  0  0
   -1.8463   -0.5854   -0.0490 N   0  0  0  0  0  0  0  0  0  0  0  0
   -0.5406   -0.9945    0.2779 C   0  0  0  0  0  0  0  0  0  0  0  0
    0.0667   -0.3979    1.3725 N   0  0  0  0  0  0  0  0  0  0  0  0
    1.2945   -0.7381    1.7304 C   0  0  0  0  0  0  0  0  0  0  0  0
    2.0391   -1.6839    1.0601 C   0  0  0  0  0  0  0  0  0  0  0  0
    3.4278   -2.0263    1.5316 C   0  0  0  0  0  0  0  0  0  0  0  0
    4.2783   -0.9456    1.1746 N   0  0  0  0  0  0  0  0  0  0  0  0
    5.6583   -1.1411    1.5696 C   0  0  0  0  0  0  0  0  0  0  0  0
    6.3478    0.1979    1.4920 C   0  0  0  0  0  0  0  0  0  0  0  0
    6.1443    0.8817    0.2515 N   0  0  0  0  0  0  0  0  0  0  0  0
    4.7866    0.9245   -0.1954 C   0  0  0  0  0  0  0  0  0  0  0  0
    4.2420   -0.5127   -0.1802 C   0  0  0  0  0  0  0  0  0  0  0  0
    6.5728    2.2729    0.4618 C   0  0  0  0  0  0  0  0  0  0  0  0
    6.4890    3.2609   -0.6160 C   0  0  0  0  0  0  0  0  0  0  0  0
    7.8479    2.6956   -0.2589 C   0  0  0  0  0  0  0  0  0  0  0  0
    1.4912   -2.2777    0.0059 N   0  0  0  0  0  0  0  0  0  0  0  0
    0.2297   -1.9269   -0.3603 C   0  0  0  0  0  0  0  0  0  0  0  0
   -4.6302   -0.2222   -0.1544 N   0  0  0  0  0  0  0  0  0  0  0  0
   -3.9735   -0.7846   -3.8005 C   0  0  0  0  0  0  0  0  0  0  0  0
   -4.6684   -0.9458   -4.9536 N   0  0  0  0  0  0  0  0  0  0  0  0
   -4.0576   -1.1981   -6.0453 C   0  0  0  0  0  0  0  0  0  0  0  0
   -2.6911   -1.3009   -6.0219 C   0  0  0  0  0  0  0  0  0  0  0  0
   -2.3912   -1.0157   -4.3724 S   0  0  0  0  0  0  0  0  0  0  0  0
   -7.8772    0.6561    5.2073 H   0  0  0  0  0  0  0  0  0  0  0  0
   -6.0372    0.5361    5.1126 H   0  0  0  0  0  0  0  0  0  0  0  0
   -6.8136    2.1329    5.0009 H   0  0  0  0  0  0  0  0  0  0  0  0
   -7.6019    0.4836   -1.3557 H   0  0  0  0  0  0  0  0  0  0  0  0
   -6.4650   -0.0933   -3.4654 H   0  0  0  0  0  0  0  0  0  0  0  0
   -2.2702    0.1717    0.5776 H   0  0  0  0  0  0  0  0  0  0  0  0
    1.7712   -0.2517    2.6112 H   0  0  0  0  0  0  0  0  0  0  0  0
    3.7296   -2.9893    1.0297 H   0  0  0  0  0  0  0  0  0  0  0  0
    3.3586   -2.1523    2.6144 H   0  0  0  0  0  0  0  0  0  0  0  0
    6.1755   -1.8849    0.9561 H   0  0  0  0  0  0  0  0  0  0  0  0
    5.6668   -1.4535    2.6416 H   0  0  0  0  0  0  0  0  0  0  0  0
    5.9115    0.8172    2.3296 H   0  0  0  0  0  0  0  0  0  0  0  0
    7.4413    0.0811    1.6361 H   0  0  0  0  0  0  0  0  0  0  0  0
    4.7451    1.3551   -1.2005 H   0  0  0  0  0  0  0  0  0  0  0  0
    4.1912    1.4775    0.5584 H   0  0  0  0  0  0  0  0  0  0  0  0
    4.9768   -1.0888   -0.8117 H   0  0  0  0  0  0  0  0  0  0  0  0
    3.2858   -0.5823   -0.6939 H   0  0  0  0  0  0  0  0  0  0  0  0
    6.4543    2.6711    1.5126 H   0  0  0  0  0  0  0  0  0  0  0  0
    6.2883    4.3339   -0.3272 H   0  0  0  0  0  0  0  0  0  0  0  0
    6.1392    3.0312   -1.6307 H   0  0  0  0  0  0  0  0  0  0  0  0
    8.3115    1.9575   -0.9348 H   0  0  0  0  0  0  0  0  0  0  0  0
    8.5613    3.3392    0.2967 H   0  0  0  0  0  0  0  0  0  0  0  0
   -0.1945   -2.4392   -1.2403 H   0  0  0  0  0  0  0  0  0  0  0  0
   -4.5881   -1.3389   -7.0124 H   0  0  0  0  0  0  0  0  0  0  0  0
   -2.0151   -1.5127   -6.8691 H   0  0  0  0  0  0  0  0  0  0  0  0
  1  2  1  0
  2  3  2  0
  3  4  1  0
  4  5  1  0
  5  6  2  0
  6  7  1  0
  5  8  1  0
  8  9  2  0
  9 10  1  0
 10 11  2  0
 11 12  1  0
 12 13  1  0
 13 14  2  0
 13 15  1  0
 15 16  1  0
 16 17  2  0
 17 18  1  0
 18 19  2  0
 19 20  1  0
 20 21  1  0
 21 22  1  0
 22 23  1  0
 23 24  1  0
 24 25  1  0
 25 26  1  0
 24 27  1  0
 27 28  1  0
 28 29  1  0
 19 30  1  0
 30 31  2  0
 12 32  2  0
 11 33  1  0
 33 34  2  0
 34 35  1  0
 35 36  2  0
 36 37  1  0
  6  2  1  0
 32  8  1  0
 37 33  1  0
 31 16  1  0
 26 21  1  0
 29 27  1  0
  1 38  1  0
  1 39  1  0
  1 40  1  0
  9 41  1  0
 10 42  1  0
 15 43  1  0
 18 44  1  0
 20 45  1  0
 20 46  1  0
 22 47  1  0
 22 48  1  0
 23 49  1  0
 23 50  1  0
 25 51  1  0
 25 52  1  0
 26 53  1  0
 26 54  1  0
 27 55  1  0
 28 56  1  0
 28 57  1  0
 29 58  1  0
 29 59  1  0
 31 60  1  0
 35 61  1  0
 36 62  1  0
M  END
$$$$
[H]OC(=O)C([H])([H])C([H])([H])P(=O)(O[H])O[H]
     RDKit          3D

 16 15  0  0  0  0  0  0  0  0999 V2000
    2.8556   -0.1884    1.2523 O   0  0  0  0  0  0  0  0  0  0  0  0
    2.1976   -0.1130    0.0326 C   0  0  0  0  0  0  0  0  0  0  0  0
    2.7191   -0.5696   -1.0318 O   0  0  0  0  0  0  0  0  0  0  0  0
    0.8585    0.5211    0.0090 C   0  0  0  0  0  0  0  0  0  0  0  0
   -0.1611   -0.5968   -0.0517 C   0  0  0  0  0  0  0  0  0  0  0  0
   -1.8589    0.0315   -0.0863 P   0  0  0  0  0  0  0  0  0  0  0  0
   -1.9000    1.3150   -1.1966 O   0  0  0  0  0  0  0  0  0  0  0  0
   -2.8439   -1.2347   -0.6477 O   0  0  0  0  0  0  0  0  0  0  0  0
   -2.3130    0.4701    1.2892 O   0  0  0  0  0  0  0  0  0  0  0  0
    2.7663    0.6017    1.8735 H   0  0  0  0  0  0  0  0  0  0  0  0
    0.7846    1.1528   -0.8987 H   0  0  0  0  0  0  0  0  0  0  0  0
    0.7104    1.1888    0.8747 H   0  0  0  0  0  0  0  0  0  0  0  0
   -0.0117   -1.1448   -1.0060 H   0  0  0  0  0  0  0  0  0  0  0  0
   -0.0361   -1.3165    0.7597 H   0  0  0  0  0  0  0  0  0  0  0  0
   -1.1123    1.8989   -1.1038 H   0  0  0  0  0  0  0  0  0  0  0  0
   -2.6553   -2.0160   -0.0685 H   0  0  0  0  0  0  0  0  0  0  0  0
  1  2  1  0
  2  3  2  0
  2  4  1  0
  4  5  1  0
  5  6  1  0
  6  7  1  0
  6  8  1  0
  6  9  2  0
  1 10  1  0
  4 11  1  0
  4 12  1  0
  5 13  1  0
  5 14  1  0
  7 15  1  0
  8 16  1  0
M  END
$$$$
[H]/C(C(=O)N([H])c1c([H])c([H])c(Cl)c(Cl)c1[H])=C(/[H])c1nc(OC([H])([H])C([H])([H])C([H])([H])Oc2c([H])c([H])c(Oc3c([H])c([H])c([H])c([H])c3[H])c([H])c2OC([H])([H])[H])c(C([H])([H])[H])n1C([H])([H])[H]
     RDKit          3D

 69 72  0  0  0  0  0  0  0  0999 V2000
   -4.1165   -1.7993    2.5536 C   0  0  0  0  0  0  0  0  0  0  0  0
   -3.7453   -0.4597    2.2400 O   0  0  0  0  0  0  0  0  0  0  0  0
   -4.3900    0.1987    1.2228 C   0  0  0  0  0  0  0  0  0  0  0  0
   -5.3979   -0.4166    0.4937 C   0  0  0  0  0  0  0  0  0  0  0  0
   -6.0642    0.2192   -0.5339 C   0  0  0  0  0  0  0  0  0  0  0  0
   -7.0672   -0.3830   -1.2661 O   0  0  0  0  0  0  0  0  0  0  0  0
   -7.4241   -1.6853   -0.9819 C   0  0  0  0  0  0  0  0  0  0  0  0
   -6.7630   -2.7241   -1.6402 C   0  0  0  0  0  0  0  0  0  0  0  0
   -7.0808   -4.0420   -1.3932 C   0  0  0  0  0  0  0  0  0  0  0  0
   -8.0530   -4.3649   -0.4958 C   0  0  0  0  0  0  0  0  0  0  0  0
   -8.7263   -3.3661    0.1723 C   0  0  0  0  0  0  0  0  0  0  0  0
   -8.3899   -2.0429   -0.0919 C   0  0  0  0  0  0  0  0  0  0  0  0
   -5.7243    1.5197   -0.8598 C   0  0  0  0  0  0  0  0  0  0  0  0
   -4.7267    2.1414   -0.1450 C   0  0  0  0  0  0  0  0  0  0  0  0
   -4.0665    1.4951    0.8816 C   0  0  0  0  0  0  0  0  0  0  0  0
   -3.0657    2.1530    1.5795 O   0  0  0  0  0  0  0  0  0  0  0  0
   -2.7358    3.4751    1.2276 C   0  0  0  0  0  0  0  0  0  0  0  0
   -1.6396    4.0743    2.0441 C   0  0  0  0  0  0  0  0  0  0  0  0
   -0.3414    3.2629    1.9163 C   0  0  0  0  0  0  0  0  0  0  0  0
   -0.0143    3.2742    0.5640 O   0  0  0  0  0  0  0  0  0  0  0  0
    1.0926    2.6548    0.0022 C   0  0  0  0  0  0  0  0  0  0  0  0
    1.9885    1.9691    0.6953 N   0  0  0  0  0  0  0  0  0  0  0  0
    2.9632    1.4780   -0.1361 C   0  0  0  0  0  0  0  0  0  0  0  0
    4.0836    0.6808    0.3356 C   0  0  0  0  0  0  0  0  0  0  0  0
    5.0589    0.1725   -0.3649 C   0  0  0  0  0  0  0  0  0  0  0  0
    6.1333   -0.6240    0.2749 C   0  0  0  0  0  0  0  0  0  0  0  0
    6.0658   -0.7844    1.4932 O   0  0  0  0  0  0  0  0  0  0  0  0
    7.1537   -1.1450   -0.5263 N   0  0  0  0  0  0  0  0  0  0  0  0
    8.2604   -1.9307   -0.1109 C   0  0  0  0  0  0  0  0  0  0  0  0
    9.2970   -2.1410   -1.0366 C   0  0  0  0  0  0  0  0  0  0  0  0
   10.3868   -2.8902   -0.7283 C   0  0  0  0  0  0  0  0  0  0  0  0
   10.5201   -3.4763    0.5090 C   0  0  0  0  0  0  0  0  0  0  0  0
   11.9225   -4.4423    0.9109 Cl  0  0  0  0  0  0  0  0  0  0  0  0
    9.5260   -3.2805    1.4101 C   0  0  0  0  0  0  0  0  0  0  0  0
    9.6732   -4.0150    2.9884 Cl  0  0  0  0  0  0  0  0  0  0  0  0
    8.4071   -2.5189    1.1113 C   0  0  0  0  0  0  0  0  0  0  0  0
    2.6253    1.8921   -1.3614 N   0  0  0  0  0  0  0  0  0  0  0  0
    3.3252    1.6436   -2.6096 C   0  0  0  0  0  0  0  0  0  0  0  0
    1.4920    2.6084   -1.2977 C   0  0  0  0  0  0  0  0  0  0  0  0
    0.7564    3.2635   -2.4333 C   0  0  0  0  0  0  0  0  0  0  0  0
   -3.4031   -2.2720    3.2569 H   0  0  0  0  0  0  0  0  0  0  0  0
   -4.0505   -2.4013    1.6146 H   0  0  0  0  0  0  0  0  0  0  0  0
   -5.1531   -1.8519    2.9279 H   0  0  0  0  0  0  0  0  0  0  0  0
   -5.6734   -1.4256    0.7346 H   0  0  0  0  0  0  0  0  0  0  0  0
   -5.9930   -2.4565   -2.3506 H   0  0  0  0  0  0  0  0  0  0  0  0
   -6.5626   -4.8366   -1.9076 H   0  0  0  0  0  0  0  0  0  0  0  0
   -8.3241   -5.3877   -0.2816 H   0  0  0  0  0  0  0  0  0  0  0  0
   -9.4944   -3.6430    0.8804 H   0  0  0  0  0  0  0  0  0  0  0  0
   -8.9206   -1.2781    0.4338 H   0  0  0  0  0  0  0  0  0  0  0  0
   -6.2373    2.0202   -1.6572 H   0  0  0  0  0  0  0  0  0  0  0  0
   -4.4505    3.1696   -0.3952 H   0  0  0  0  0  0  0  0  0  0  0  0
   -3.6183    4.1380    1.3073 H   0  0  0  0  0  0  0  0  0  0  0  0
   -2.4356    3.5261    0.1400 H   0  0  0  0  0  0  0  0  0  0  0  0
   -1.9580    4.1476    3.1073 H   0  0  0  0  0  0  0  0  0  0  0  0
   -1.4763    5.1076    1.6790 H   0  0  0  0  0  0  0  0  0  0  0  0
    0.4242    3.8336    2.5144 H   0  0  0  0  0  0  0  0  0  0  0  0
   -0.4359    2.2800    2.3679 H   0  0  0  0  0  0  0  0  0  0  0  0
    4.1112    0.4836    1.4129 H   0  0  0  0  0  0  0  0  0  0  0  0
    5.1166    0.3110   -1.4063 H   0  0  0  0  0  0  0  0  0  0  0  0
    7.1143   -0.9433   -1.5892 H   0  0  0  0  0  0  0  0  0  0  0  0
    9.2340   -1.6912   -2.0357 H   0  0  0  0  0  0  0  0  0  0  0  0
   11.2080   -3.0681   -1.4358 H   0  0  0  0  0  0  0  0  0  0  0  0
    7.6306   -2.3944    1.8604 H   0  0  0  0  0  0  0  0  0  0  0  0
    2.7060    2.0957   -3.4400 H   0  0  0  0  0  0  0  0  0  0  0  0
    3.3375    0.5564   -2.8879 H   0  0  0  0  0  0  0  0  0  0  0  0
    4.3050    2.1183   -2.6431 H   0  0  0  0  0  0  0  0  0  0  0  0
    1.4461    3.8369   -3.0777 H   0  0  0  0  0  0  0  0  0  0  0  0
    0.3555    2.4337   -3.0417 H   0  0  0  0  0  0  0  0  0  0  0  0
   -0.0014    3.9474   -2.0547 H   0  0  0  0  0  0  0  0  0  0  0  0
  1  2  1  0
  2  3  1  0
  3  4  2  0
  4  5  1  0
  5  6  1  0
  6  7  1  0
  7  8  2  0
  8  9  1  0
  9 10  2  0
 10 11  1  0
 11 12  2  0
  5 13  2  0
 13 14  1  0
 14 15  2  0
 15 16  1  0
 16 17  1  0
 17 18  1  0
 18 19  1  0
 19 20  1  0
 20 21  1  0
 21 22  1  0
 22 23  2  0
 23 24  1  0
 24 25  2  0
 25 26  1  0
 26 27  2  0
 26 28  1  0
 28 29  1  0
 29 30  2  0
 30 31  1  0
 31 32  2  0
 32 33  1  0
 32 34  1  0
 34 35  1  0
 34 36  2  0
 23 37  1  0
 37 38  1  0
 37 39  1  0
 39 40  1  0
 15  3  1  0
 39 21  2  0
 12  7  1  0
 36 29  1  0
  1 41  1  0
  1 42  1  0
  1 43  1  0
  4 44  1  0
  8 45  1  0
  9 46  1  0
 10 47  1  0
 11 48  1  0
 12 49  1  0
 13 50  1  0
 14 51  1  0
 17 52  1  0
 17 53  1  0
 18 54  1  0
 18 55  1  0
 19 56  1  0
 19 57  1  0
 24 58  1  0
 25 59  1  0
 28 60  1  0
 30 61  1  0
 31 62  1  0
 36 63  1  0
 38 64  1  0
 38 65  1  0
 38 66  1  0
 40 67  1  0
 40 68  1  0
 40 69  1  0
M  END
$$$$
[H]/C(C(=O)N([H])C([H])([H])C(=O)N(c1c([H])c([H])c([H])c([H])c1C([H])([H])[H])C(C([H])([H])[H])(C([H])([H])[H])C([H])([H])[H])=C(/[H])c1c([H])c([H])c(C([H])([H])[H])c([H])c1[H]
     RDKit          3D

 55 56  0  0  0  0  0  0  0  0999 V2000
    9.4999   -0.0132   -0.5806 C   0  0  0  0  0  0  0  0  0  0  0  0
    8.0602   -0.3927   -0.5733 C   0  0  0  0  0  0  0  0  0  0  0  0
    7.6629   -1.6423   -0.9896 C   0  0  0  0  0  0  0  0  0  0  0  0
    6.3266   -1.9750   -0.9937 C   0  0  0  0  0  0  0  0  0  0  0  0
    5.3296   -1.0946   -0.5910 C   0  0  0  0  0  0  0  0  0  0  0  0
    3.9318   -1.4988   -0.6485 C   0  0  0  0  0  0  0  0  0  0  0  0
    2.9575   -0.7076   -0.2888 C   0  0  0  0  0  0  0  0  0  0  0  0
    1.5706   -1.1586   -0.3691 C   0  0  0  0  0  0  0  0  0  0  0  0
    1.2847   -2.3051   -0.7832 O   0  0  0  0  0  0  0  0  0  0  0  0
    0.5086   -0.2991    0.0205 N   0  0  0  0  0  0  0  0  0  0  0  0
   -0.8908   -0.5979   -0.0236 C   0  0  0  0  0  0  0  0  0  0  0  0
   -1.6435    0.5990    0.5004 C   0  0  0  0  0  0  0  0  0  0  0  0
   -0.9476    1.6030    0.8904 O   0  0  0  0  0  0  0  0  0  0  0  0
   -3.0554    0.6278    0.5664 N   0  0  0  0  0  0  0  0  0  0  0  0
   -3.6464    1.8144    1.1940 C   0  0  0  0  0  0  0  0  0  0  0  0
   -3.2214    3.0202    0.4192 C   0  0  0  0  0  0  0  0  0  0  0  0
   -5.1100    1.7047    1.4358 C   0  0  0  0  0  0  0  0  0  0  0  0
   -2.9499    1.9084    2.5610 C   0  0  0  0  0  0  0  0  0  0  0  0
   -3.8582   -0.4172    0.0926 C   0  0  0  0  0  0  0  0  0  0  0  0
   -3.9486   -1.5901    0.8596 C   0  0  0  0  0  0  0  0  0  0  0  0
   -4.7246   -2.6418    0.4526 C   0  0  0  0  0  0  0  0  0  0  0  0
   -5.4471   -2.5936   -0.7229 C   0  0  0  0  0  0  0  0  0  0  0  0
   -5.3694   -1.4544   -1.4845 C   0  0  0  0  0  0  0  0  0  0  0  0
   -4.5775   -0.3700   -1.0788 C   0  0  0  0  0  0  0  0  0  0  0  0
   -4.5385    0.8052   -1.9608 C   0  0  0  0  0  0  0  0  0  0  0  0
    5.7402    0.1368   -0.1819 C   0  0  0  0  0  0  0  0  0  0  0  0
    7.0862    0.4947   -0.1682 C   0  0  0  0  0  0  0  0  0  0  0  0
    9.9747   -0.2459    0.3818 H   0  0  0  0  0  0  0  0  0  0  0  0
    9.5404    1.1069   -0.6970 H   0  0  0  0  0  0  0  0  0  0  0  0
    9.9996   -0.4734   -1.4634 H   0  0  0  0  0  0  0  0  0  0  0  0
    8.4457   -2.3345   -1.3052 H   0  0  0  0  0  0  0  0  0  0  0  0
    6.0496   -2.9606   -1.3200 H   0  0  0  0  0  0  0  0  0  0  0  0
    3.7109   -2.5171   -1.0085 H   0  0  0  0  0  0  0  0  0  0  0  0
    3.1833    0.2874    0.0706 H   0  0  0  0  0  0  0  0  0  0  0  0
    0.7922    0.6636    0.3812 H   0  0  0  0  0  0  0  0  0  0  0  0
   -1.0773   -1.4748    0.6195 H   0  0  0  0  0  0  0  0  0  0  0  0
   -1.1629   -0.7980   -1.0800 H   0  0  0  0  0  0  0  0  0  0  0  0
   -2.5910    3.7337    1.0049 H   0  0  0  0  0  0  0  0  0  0  0  0
   -2.6093    2.7729   -0.4712 H   0  0  0  0  0  0  0  0  0  0  0  0
   -4.0699    3.6320    0.0248 H   0  0  0  0  0  0  0  0  0  0  0  0
   -5.4117    0.6501    1.4800 H   0  0  0  0  0  0  0  0  0  0  0  0
   -5.7174    2.2898    0.6908 H   0  0  0  0  0  0  0  0  0  0  0  0
   -5.3507    2.1734    2.4104 H   0  0  0  0  0  0  0  0  0  0  0  0
   -2.3843    0.9877    2.8018 H   0  0  0  0  0  0  0  0  0  0  0  0
   -3.6919    2.0495    3.3749 H   0  0  0  0  0  0  0  0  0  0  0  0
   -2.2595    2.7651    2.6223 H   0  0  0  0  0  0  0  0  0  0  0  0
   -3.3966   -1.6878    1.8040 H   0  0  0  0  0  0  0  0  0  0  0  0
   -4.8138   -3.5581    1.0258 H   0  0  0  0  0  0  0  0  0  0  0  0
   -6.0602   -3.3953   -1.0706 H   0  0  0  0  0  0  0  0  0  0  0  0
   -5.9262   -1.3664   -2.4252 H   0  0  0  0  0  0  0  0  0  0  0  0
   -4.9073    0.5477   -3.0033 H   0  0  0  0  0  0  0  0  0  0  0  0
   -3.5241    1.2183   -2.1193 H   0  0  0  0  0  0  0  0  0  0  0  0
   -5.2272    1.6094   -1.6417 H   0  0  0  0  0  0  0  0  0  0  0  0
    5.0555    0.8850    0.1500 H   0  0  0  0  0  0  0  0  0  0  0  0
    7.3994    1.4772    0.1595 H   0  0  0  0  0  0  0  0  0  0  0  0
  1  2  1  0
  2  3  2  0
  3  4  1  0
  4  5  2  0
  5  6  1  0
  6  7  2  0
  7  8  1  0
  8  9  2  0
  8 10  1  0
 10 11  1  0
 11 12  1  0
 12 13  2  0
 12 14  1  0
 14 15  1  0
 15 16  1  0
 15 17  1  0
 15 18  1  0
 14 19  1  0
 19 20  2  0
 20 21  1  0
 21 22  2  0
 22 23  1  0
 23 24  2  0
 24 25  1  0
  5 26  1  0
 26 27  2  0
 27  2  1  0
 24 19  1  0
  1 28  1  0
  1 29  1  0
  1 30  1  0
  3 31  1  0
  4 32  1  0
  6 33  1  0
  7 34  1  0
 10 35  1  0
 11 36  1  0
 11 37  1  0
 16 38  1  0
 16 39  1  0
 16 40  1  0
 17 41  1  0
 17 42  1  0
 17 43  1  0
 18 44  1  0
 18 45  1  0
 18 46  1  0
 20 47  1  0
 21 48  1  0
 22 49  1  0
 23 50  1  0
 25 51  1  0
 25 52  1  0
 25 53  1  0
 26 54  1  0
 27 55  1  0
M  END
$$$$
[H]c1c([H])c(-c2nnnn2[H])c([H])c([H])c1-c1c([H])c([H])c(C([H])([H])C(=O)N([H])c2c([H])c([H])c(C([H])([H])S(=O)(=O)N([H])[H])c([H])c2[H])c(C([H])([H])[H])c1[H]
     RDKit          3D

 55 58  0  0  0  0  0  0  0  0999 V2000
    0.2585    1.7351   -1.8616 C   0  0  0  0  0  0  0  0  0  0  0  0
    1.1848    1.4890   -0.7311 C   0  0  0  0  0  0  0  0  0  0  0  0
    2.4430    0.9255   -0.9369 C   0  0  0  0  0  0  0  0  0  0  0  0
    3.3120    0.6901    0.0904 C   0  0  0  0  0  0  0  0  0  0  0  0
    2.9521    1.0115    1.3675 C   0  0  0  0  0  0  0  0  0  0  0  0
    1.7084    1.5706    1.5866 C   0  0  0  0  0  0  0  0  0  0  0  0
    0.8003    1.8214    0.5489 C   0  0  0  0  0  0  0  0  0  0  0  0
   -0.5241    2.4216    0.8158 C   0  0  0  0  0  0  0  0  0  0  0  0
   -1.5606    1.3409    0.7338 C   0  0  0  0  0  0  0  0  0  0  0  0
   -1.1310    0.2021    0.4687 O   0  0  0  0  0  0  0  0  0  0  0  0
   -2.9215    1.6247    0.9473 N   0  0  0  0  0  0  0  0  0  0  0  0
   -3.9376    0.6668    0.8769 C   0  0  0  0  0  0  0  0  0  0  0  0
   -5.1634    0.9153    1.5335 C   0  0  0  0  0  0  0  0  0  0  0  0
   -6.2150    0.0347    1.4896 C   0  0  0  0  0  0  0  0  0  0  0  0
   -6.1187   -1.1481    0.7924 C   0  0  0  0  0  0  0  0  0  0  0  0
   -7.2808   -2.0981    0.7583 C   0  0  0  0  0  0  0  0  0  0  0  0
   -8.2564   -1.6146   -0.6644 S   0  0  0  0  0  0  0  0  0  0  0  0
   -8.7304    0.0411   -0.3616 N   0  0  0  0  0  0  0  0  0  0  0  0
   -7.3603   -1.6700   -1.8759 O   0  0  0  0  0  0  0  0  0  0  0  0
   -9.4621   -2.4775   -0.8113 O   0  0  0  0  0  0  0  0  0  0  0  0
   -4.9537   -1.4297    0.1426 C   0  0  0  0  0  0  0  0  0  0  0  0
   -3.8951   -0.5141    0.2025 C   0  0  0  0  0  0  0  0  0  0  0  0
    4.6078    0.1025   -0.1814 C   0  0  0  0  0  0  0  0  0  0  0  0
    5.2892    0.3318   -1.3587 C   0  0  0  0  0  0  0  0  0  0  0  0
    6.5139   -0.2037   -1.6518 C   0  0  0  0  0  0  0  0  0  0  0  0
    7.1064   -1.0284   -0.7050 C   0  0  0  0  0  0  0  0  0  0  0  0
    6.4656   -1.2916    0.4937 C   0  0  0  0  0  0  0  0  0  0  0  0
    5.2369   -0.7331    0.7468 C   0  0  0  0  0  0  0  0  0  0  0  0
    8.4073   -1.5955   -1.0190 C   0  0  0  0  0  0  0  0  0  0  0  0
    9.1029   -1.3993   -2.1469 N   0  0  0  0  0  0  0  0  0  0  0  0
   10.2342   -2.0599   -2.0978 N   0  0  0  0  0  0  0  0  0  0  0  0
   10.2513   -2.6763   -0.9308 N   0  0  0  0  0  0  0  0  0  0  0  0
    9.1418   -2.4046   -0.2557 N   0  0  0  0  0  0  0  0  0  0  0  0
   -0.4716    2.5246   -1.6760 H   0  0  0  0  0  0  0  0  0  0  0  0
   -0.2237    0.7932   -2.2182 H   0  0  0  0  0  0  0  0  0  0  0  0
    0.8542    2.0845   -2.7568 H   0  0  0  0  0  0  0  0  0  0  0  0
    2.7150    0.6766   -1.9484 H   0  0  0  0  0  0  0  0  0  0  0  0
    3.6134    0.8431    2.2304 H   0  0  0  0  0  0  0  0  0  0  0  0
    1.4162    1.8274    2.5905 H   0  0  0  0  0  0  0  0  0  0  0  0
   -0.7651    3.2884    0.1832 H   0  0  0  0  0  0  0  0  0  0  0  0
   -0.5266    2.7226    1.9050 H   0  0  0  0  0  0  0  0  0  0  0  0
   -3.2350    2.6196    1.1762 H   0  0  0  0  0  0  0  0  0  0  0  0
   -5.2384    1.8509    2.0853 H   0  0  0  0  0  0  0  0  0  0  0  0
   -7.1588    0.2521    2.0094 H   0  0  0  0  0  0  0  0  0  0  0  0
   -6.9267   -3.1440    0.6649 H   0  0  0  0  0  0  0  0  0  0  0  0
   -7.8765   -1.8992    1.6558 H   0  0  0  0  0  0  0  0  0  0  0  0
   -8.5555    0.6498   -1.1679 H   0  0  0  0  0  0  0  0  0  0  0  0
   -9.6635    0.1038    0.0634 H   0  0  0  0  0  0  0  0  0  0  0  0
   -4.8616   -2.3509   -0.4074 H   0  0  0  0  0  0  0  0  0  0  0  0
   -2.9904   -0.7819   -0.3516 H   0  0  0  0  0  0  0  0  0  0  0  0
    4.7829    0.9874   -2.0732 H   0  0  0  0  0  0  0  0  0  0  0  0
    7.0312   -0.0011   -2.5999 H   0  0  0  0  0  0  0  0  0  0  0  0
    6.9364   -1.9305    1.2148 H   0  0  0  0  0  0  0  0  0  0  0  0
    4.7234   -0.9228    1.6666 H   0  0  0  0  0  0  0  0  0  0  0  0
    8.9150   -2.7740    0.6994 H   0  0  0  0  0  0  0  0  0  0  0  0
  1  2  1  0
  2  3  2  0
  3  4  1  0
  4  5  2  0
  5  6  1  0
  6  7  2  0
  7  8  1  0
  8  9  1  0
  9 10  2  0
  9 11  1  0
 11 12  1  0
 12 13  2  0
 13 14  1  0
 14 15  2  0
 15 16  1  0
 16 17  1  0
 17 18  1  0
 17 19  2  0
 17 20  2  0
 15 21  1  0
 21 22  2  0
  4 23  1  0
 23 24  2  0
 24 25  1  0
 25 26  2  0
 26 27  1  0
 27 28  2  0
 26 29  1  0
 29 30  2  0
 30 31  1  0
 31 32  2  0
 32 33  1  0
  7  2  1  0
 22 12  1  0
 28 23  1  0
 33 29  1  0
  1 34  1  0
  1 35  1  0
  1 36  1  0
  3 37  1  0
  5 38  1  0
  6 39  1  0
  8 40  1  0
  8 41  1  0
 11 42  1  0
 13 43  1  0
 14 44  1  0
 16 45  1  0
 16 46  1  0
 18 47  1  0
 18 48  1  0
 21 49  1  0
 22 50  1  0
 24 51  1  0
 25 52  1  0
 27 53  1  0
 28 54  1  0
 33 55  1  0
M  END
$$$$
[H]c1c(C([H])([H])[H])c(C([H])([H])[H])nc(C([H])([H])[H])c1C1([H])C([H])([H])C([H])([H])N(C(=O)c2nc3c([H])c([H])c([H])c([H])c3n2[H])C([H])([H])C1([H])[H]
     RDKit          3D

 50 53  0  0  0  0  0  0  0  0999 V2000
   -6.0664    0.6061   -1.8675 C   0  0  0  0  0  0  0  0  0  0  0  0
   -5.1194    0.3186   -0.7458 C   0  0  0  0  0  0  0  0  0  0  0  0
   -3.7690    0.2602   -0.9316 C   0  0  0  0  0  0  0  0  0  0  0  0
   -2.8297    0.0062    0.1064 C   0  0  0  0  0  0  0  0  0  0  0  0
   -1.4197    0.0817   -0.1825 C   0  0  0  0  0  0  0  0  0  0  0  0
   -1.0076   -0.3843   -1.5694 C   0  0  0  0  0  0  0  0  0  0  0  0
    0.2740    0.2322   -1.9481 C   0  0  0  0  0  0  0  0  0  0  0  0
    1.3651    0.0856   -0.9766 N   0  0  0  0  0  0  0  0  0  0  0  0
    1.0661    0.1878    0.4076 C   0  0  0  0  0  0  0  0  0  0  0  0
   -0.3656    0.0269    0.8076 C   0  0  0  0  0  0  0  0  0  0  0  0
    2.6249   -0.1761   -1.5194 C   0  0  0  0  0  0  0  0  0  0  0  0
    2.6854   -0.3405   -2.7919 O   0  0  0  0  0  0  0  0  0  0  0  0
    3.8885   -0.2837   -0.8281 C   0  0  0  0  0  0  0  0  0  0  0  0
    5.0698   -0.6034   -1.4704 N   0  0  0  0  0  0  0  0  0  0  0  0
    6.0406   -0.6225   -0.5680 C   0  0  0  0  0  0  0  0  0  0  0  0
    7.4125   -0.8718   -0.6664 C   0  0  0  0  0  0  0  0  0  0  0  0
    8.1910   -0.8111    0.4734 C   0  0  0  0  0  0  0  0  0  0  0  0
    7.6616   -0.5076    1.7153 C   0  0  0  0  0  0  0  0  0  0  0  0
    6.3147   -0.2663    1.7733 C   0  0  0  0  0  0  0  0  0  0  0  0
    5.5192   -0.3228    0.6496 C   0  0  0  0  0  0  0  0  0  0  0  0
    4.1818   -0.1179    0.4528 N   0  0  0  0  0  0  0  0  0  0  0  0
   -3.3792   -0.1817    1.3344 C   0  0  0  0  0  0  0  0  0  0  0  0
   -2.6573   -0.5222    2.5347 C   0  0  0  0  0  0  0  0  0  0  0  0
   -4.7490   -0.1173    1.5032 N   0  0  0  0  0  0  0  0  0  0  0  0
   -5.6001    0.1208    0.5224 C   0  0  0  0  0  0  0  0  0  0  0  0
   -7.0784    0.1723    0.6944 C   0  0  0  0  0  0  0  0  0  0  0  0
   -6.6942   -0.2852   -2.1239 H   0  0  0  0  0  0  0  0  0  0  0  0
   -6.6846    1.5079   -1.6799 H   0  0  0  0  0  0  0  0  0  0  0  0
   -5.4716    0.8294   -2.7989 H   0  0  0  0  0  0  0  0  0  0  0  0
   -3.3965    0.4377   -1.9243 H   0  0  0  0  0  0  0  0  0  0  0  0
   -1.3512    1.2637   -0.4604 H   0  0  0  0  0  0  0  0  0  0  0  0
   -0.9693   -1.4816   -1.6560 H   0  0  0  0  0  0  0  0  0  0  0  0
   -1.7605   -0.0424   -2.2941 H   0  0  0  0  0  0  0  0  0  0  0  0
    0.1794    1.3178   -2.2565 H   0  0  0  0  0  0  0  0  0  0  0  0
    0.6466   -0.2853   -2.8955 H   0  0  0  0  0  0  0  0  0  0  0  0
    1.5038    1.1808    0.7383 H   0  0  0  0  0  0  0  0  0  0  0  0
    1.6749   -0.6431    0.9099 H   0  0  0  0  0  0  0  0  0  0  0  0
   -0.4756    0.8814    1.5876 H   0  0  0  0  0  0  0  0  0  0  0  0
   -0.3692   -0.8653    1.4926 H   0  0  0  0  0  0  0  0  0  0  0  0
    7.8494   -1.1042   -1.6094 H   0  0  0  0  0  0  0  0  0  0  0  0
    9.2461   -1.0069    0.3600 H   0  0  0  0  0  0  0  0  0  0  0  0
    8.3081   -0.4737    2.5588 H   0  0  0  0  0  0  0  0  0  0  0  0
    5.8753   -0.0309    2.7216 H   0  0  0  0  0  0  0  0  0  0  0  0
    3.5813    0.1563    1.2484 H   0  0  0  0  0  0  0  0  0  0  0  0
   -2.0484    0.2803    2.9479 H   0  0  0  0  0  0  0  0  0  0  0  0
   -3.4083   -0.6800    3.4100 H   0  0  0  0  0  0  0  0  0  0  0  0
   -2.1796   -1.5224    2.5488 H   0  0  0  0  0  0  0  0  0  0  0  0
   -7.5447   -0.4593   -0.1142 H   0  0  0  0  0  0  0  0  0  0  0  0
   -7.2788   -0.2761    1.7059 H   0  0  0  0  0  0  0  0  0  0  0  0
   -7.4865    1.1960    0.6739 H   0  0  0  0  0  0  0  0  0  0  0  0
  1  2  1  0
  2  3  2  0
  3  4  1  0
  4  5  1  0
  5  6  1  0
  6  7  1  0
  7  8  1  0
  8  9  1  0
  9 10  1  0
  8 11  1  0
 11 12  2  0
 11 13  1  0
 13 14  2  0
 14 15  1  0
 15 16  2  0
 16 17  1  0
 17 18  2  0
 18 19  1  0
 19 20  2  0
 20 21  1  0
  4 22  2  0
 22 23  1  0
 22 24  1  0
 24 25  2  0
 25 26  1  0
 25  2  1  0
 10  5  1  0
 21 13  1  0
 20 15  1  0
  1 27  1  0
  1 28  1  0
  1 29  1  0
  3 30  1  0
  5 31  1  0
  6 32  1  0
  6 33  1  0
  7 34  1  0
  7 35  1  0
  9 36  1  0
  9 37  1  0
 10 38  1  0
 10 39  1  0
 16 40  1  0
 17 41  1  0
 18 42  1  0
 19 43  1  0
 21 44  1  0
 23 45  1  0
 23 46  1  0
 23 47  1  0
 26 48  1  0
 26 49  1  0
 26 50  1  0
M  END
$$$$
[H]c1nc(N([H])c2c([H])c([H])c(N([H])c3nc([H])c(Cl)c(N([H])C4([H])C([H])([H])C([H])([H])N(C([H])([H])[H])C([H])([H])C4([H])[H])n3)c([H])c2OC([H])([H])[H])c2c([H])c([H])c(OC([H])([H])[H])c([H])c2n1
     RDKit          3D

 66 70  0  0  0  0  0  0  0  0999 V2000
    1.4397    2.7541   -2.1706 C   0  0  0  0  0  0  0  0  0  0  0  0
    2.2428    1.8985   -1.4112 O   0  0  0  0  0  0  0  0  0  0  0  0
    1.7192    0.9109   -0.6023 C   0  0  0  0  0  0  0  0  0  0  0  0
    0.3636    0.7729   -0.5490 C   0  0  0  0  0  0  0  0  0  0  0  0
   -0.2699   -0.2034    0.2451 C   0  0  0  0  0  0  0  0  0  0  0  0
   -1.6785   -0.2856    0.2178 N   0  0  0  0  0  0  0  0  0  0  0  0
   -2.4943   -0.8809    1.2087 C   0  0  0  0  0  0  0  0  0  0  0  0
   -2.0851   -1.4455    2.3265 N   0  0  0  0  0  0  0  0  0  0  0  0
   -2.8848   -2.0000    3.2432 C   0  0  0  0  0  0  0  0  0  0  0  0
   -4.2480   -2.0075    3.0519 C   0  0  0  0  0  0  0  0  0  0  0  0
   -5.3270   -2.7248    4.2311 Cl  0  0  0  0  0  0  0  0  0  0  0  0
   -4.7163   -1.4265    1.8948 C   0  0  0  0  0  0  0  0  0  0  0  0
   -6.1111   -1.3875    1.6150 N   0  0  0  0  0  0  0  0  0  0  0  0
   -6.7204   -0.8200    0.4590 C   0  0  0  0  0  0  0  0  0  0  0  0
   -6.4549    0.6309    0.2355 C   0  0  0  0  0  0  0  0  0  0  0  0
   -6.0254    0.9549   -1.1688 C   0  0  0  0  0  0  0  0  0  0  0  0
   -6.8285    0.3081   -2.1733 N   0  0  0  0  0  0  0  0  0  0  0  0
   -8.1638    0.9143   -2.0908 C   0  0  0  0  0  0  0  0  0  0  0  0
   -6.9777   -1.1003   -2.0127 C   0  0  0  0  0  0  0  0  0  0  0  0
   -6.4057   -1.6693   -0.7515 C   0  0  0  0  0  0  0  0  0  0  0  0
   -3.8600   -0.8927    1.0253 N   0  0  0  0  0  0  0  0  0  0  0  0
    0.5700   -1.0130    0.9664 C   0  0  0  0  0  0  0  0  0  0  0  0
    1.9657   -0.8778    0.9177 C   0  0  0  0  0  0  0  0  0  0  0  0
    2.5488    0.0707    0.1452 C   0  0  0  0  0  0  0  0  0  0  0  0
    3.9380    0.2737    0.0386 N   0  0  0  0  0  0  0  0  0  0  0  0
    4.9836   -0.4145    0.6704 C   0  0  0  0  0  0  0  0  0  0  0  0
    4.8106   -1.4298    1.5231 N   0  0  0  0  0  0  0  0  0  0  0  0
    5.8187   -2.0729    2.1155 C   0  0  0  0  0  0  0  0  0  0  0  0
    7.1044   -1.7305    1.8852 N   0  0  0  0  0  0  0  0  0  0  0  0
    7.3584   -0.7181    1.0388 C   0  0  0  0  0  0  0  0  0  0  0  0
    8.6917   -0.3884    0.8214 C   0  0  0  0  0  0  0  0  0  0  0  0
    9.0186    0.6349   -0.0310 C   0  0  0  0  0  0  0  0  0  0  0  0
   10.3410    0.9759   -0.2585 O   0  0  0  0  0  0  0  0  0  0  0  0
   10.7187    2.0170   -1.1236 C   0  0  0  0  0  0  0  0  0  0  0  0
    7.9750    1.2942   -0.6388 C   0  0  0  0  0  0  0  0  0  0  0  0
    6.6572    0.9631   -0.4196 C   0  0  0  0  0  0  0  0  0  0  0  0
    6.3151   -0.0557    0.4284 C   0  0  0  0  0  0  0  0  0  0  0  0
    2.1117    3.3713   -2.8267 H   0  0  0  0  0  0  0  0  0  0  0  0
    0.7755    2.1794   -2.8445 H   0  0  0  0  0  0  0  0  0  0  0  0
    0.8681    3.4145   -1.4834 H   0  0  0  0  0  0  0  0  0  0  0  0
   -0.3002    1.4195   -1.1238 H   0  0  0  0  0  0  0  0  0  0  0  0
   -2.1610    0.1380   -0.6302 H   0  0  0  0  0  0  0  0  0  0  0  0
   -2.4666   -2.4487    4.1454 H   0  0  0  0  0  0  0  0  0  0  0  0
   -6.7421   -1.8284    2.3485 H   0  0  0  0  0  0  0  0  0  0  0  0
   -7.8442   -0.8995    0.5924 H   0  0  0  0  0  0  0  0  0  0  0  0
   -5.6512    0.9527    0.9267 H   0  0  0  0  0  0  0  0  0  0  0  0
   -7.3306    1.2729    0.5026 H   0  0  0  0  0  0  0  0  0  0  0  0
   -6.0983    2.0563   -1.2810 H   0  0  0  0  0  0  0  0  0  0  0  0
   -4.9569    0.7029   -1.3247 H   0  0  0  0  0  0  0  0  0  0  0  0
   -8.1373    1.9311   -1.6946 H   0  0  0  0  0  0  0  0  0  0  0  0
   -8.7330    0.2845   -1.3504 H   0  0  0  0  0  0  0  0  0  0  0  0
   -8.7137    0.8421   -3.0324 H   0  0  0  0  0  0  0  0  0  0  0  0
   -6.4108   -1.5850   -2.8618 H   0  0  0  0  0  0  0  0  0  0  0  0
   -8.0331   -1.4065   -2.1797 H   0  0  0  0  0  0  0  0  0  0  0  0
   -5.3201   -1.8543   -0.8505 H   0  0  0  0  0  0  0  0  0  0  0  0
   -6.8680   -2.6834   -0.6175 H   0  0  0  0  0  0  0  0  0  0  0  0
    0.1563   -1.8039    1.5923 H   0  0  0  0  0  0  0  0  0  0  0  0
    2.5066   -1.5656    1.5230 H   0  0  0  0  0  0  0  0  0  0  0  0
    4.2329    1.0603   -0.6135 H   0  0  0  0  0  0  0  0  0  0  0  0
    5.6149   -2.8969    2.8045 H   0  0  0  0  0  0  0  0  0  0  0  0
    9.4840   -0.9301    1.3178 H   0  0  0  0  0  0  0  0  0  0  0  0
   10.1161    2.9022   -0.9218 H   0  0  0  0  0  0  0  0  0  0  0  0
   11.7897    2.2412   -0.9608 H   0  0  0  0  0  0  0  0  0  0  0  0
   10.6097    1.6600   -2.1843 H   0  0  0  0  0  0  0  0  0  0  0  0
    8.2561    2.1106   -1.3180 H   0  0  0  0  0  0  0  0  0  0  0  0
    5.9159    1.5338   -0.9382 H   0  0  0  0  0  0  0  0  0  0  0  0
  1  2  1  0
  2  3  1  0
  3  4  2  0
  4  5  1  0
  5  6  1  0
  6  7  1  0
  7  8  2  0
  8  9  1  0
  9 10  2  0
 10 11  1  0
 10 12  1  0
 12 13  1  0
 13 14  1  0
 14 15  1  0
 15 16  1  0
 16 17  1  0
 17 18  1  0
 17 19  1  0
 19 20  1  0
 12 21  2  0
  5 22  2  0
 22 23  1  0
 23 24  2  0
 24 25  1  0
 25 26  1  0
 26 27  2  0
 27 28  1  0
 28 29  2  0
 29 30  1  0
 30 31  2  0
 31 32  1  0
 32 33  1  0
 33 34  1  0
 32 35  2  0
 35 36  1  0
 36 37  2  0
 24  3  1  0
 37 26  1  0
 21  7  1  0
 37 30  1  0
 20 14  1  0
  1 38  1  0
  1 39  1  0
  1 40  1  0
  4 41  1  0
  6 42  1  0
  9 43  1  0
 13 44  1  0
 14 45  1  0
 15 46  1  0
 15 47  1  0
 16 48  1  0
 16 49  1  0
 18 50  1  0
 18 51  1  0
 18 52  1  0
 19 53  1  0
 19 54  1  0
 20 55  1  0
 20 56  1  0
 22 57  1  0
 23 58  1  0
 25 59  1  0
 28 60  1  0
 31 61  1  0
 34 62  1  0
 34 63  1  0
 34 64  1  0
 35 65  1  0
 36 66  1  0
M  END
$$$$
[H]c1c([H])c([H])c([N+](=O)[O-])c(OC([H])([H])C([H])([H])N2C([H])([H])C([H])([H])C([H])(n3nnc4c([H])c(OC(F)(F)F)c([H])c([H])c43)C([H])([H])C2([H])[H])c1[H]
     RDKit          3D

 52 55  0  0  0  0  0  0  0  0999 V2000
   -4.2699    0.6123    2.2503 O   0  0  0  0  0  0  0  0  0  0  0  0
   -4.9537    1.6303    1.6098 N   0  0  0  0  0  0  0  0  0  0  0  0
   -5.0261    2.7739    2.0674 O   0  0  0  0  0  0  0  0  0  0  0  0
   -5.5749    1.2553    0.3744 C   0  0  0  0  0  0  0  0  0  0  0  0
   -6.7059    1.9797    0.0312 C   0  0  0  0  0  0  0  0  0  0  0  0
   -7.3812    1.6781   -1.1265 C   0  0  0  0  0  0  0  0  0  0  0  0
   -6.9059    0.6553   -1.9125 C   0  0  0  0  0  0  0  0  0  0  0  0
   -5.7663   -0.0718   -1.5638 C   0  0  0  0  0  0  0  0  0  0  0  0
   -5.0795    0.2243   -0.4028 C   0  0  0  0  0  0  0  0  0  0  0  0
   -3.9495   -0.4498   -0.0095 O   0  0  0  0  0  0  0  0  0  0  0  0
   -3.3666   -1.5134   -0.6997 C   0  0  0  0  0  0  0  0  0  0  0  0
   -2.1095   -2.0245   -0.0359 C   0  0  0  0  0  0  0  0  0  0  0  0
   -1.1377   -1.0157   -0.0069 N   0  0  0  0  0  0  0  0  0  0  0  0
   -0.5368   -0.5960   -1.2135 C   0  0  0  0  0  0  0  0  0  0  0  0
    0.9977   -0.5151   -1.1194 C   0  0  0  0  0  0  0  0  0  0  0  0
    1.3748   -0.6499    0.2655 C   0  0  0  0  0  0  0  0  0  0  0  0
    0.4853    0.3295    1.0623 C   0  0  0  0  0  0  0  0  0  0  0  0
   -0.9113   -0.2578    1.1450 C   0  0  0  0  0  0  0  0  0  0  0  0
    2.6830   -0.5126    0.7416 N   0  0  0  0  0  0  0  0  0  0  0  0
    2.8839   -0.4859    2.0814 N   0  0  0  0  0  0  0  0  0  0  0  0
    4.1502   -0.3640    2.3299 N   0  0  0  0  0  0  0  0  0  0  0  0
    4.8315   -0.3052    1.1765 C   0  0  0  0  0  0  0  0  0  0  0  0
    6.1494   -0.1858    0.8188 C   0  0  0  0  0  0  0  0  0  0  0  0
    6.5593   -0.1579   -0.5069 C   0  0  0  0  0  0  0  0  0  0  0  0
    7.9066   -0.0358   -0.8066 O   0  0  0  0  0  0  0  0  0  0  0  0
    8.5654    1.1968   -0.9818 C   0  0  0  0  0  0  0  0  0  0  0  0
    8.4970    1.9927    0.1559 F   0  0  0  0  0  0  0  0  0  0  0  0
    9.8416    1.0129   -1.4251 F   0  0  0  0  0  0  0  0  0  0  0  0
    7.8768    1.8987   -1.9828 F   0  0  0  0  0  0  0  0  0  0  0  0
    5.5768   -0.2559   -1.4612 C   0  0  0  0  0  0  0  0  0  0  0  0
    4.2348   -0.3776   -1.1617 C   0  0  0  0  0  0  0  0  0  0  0  0
    3.8765   -0.4012    0.1672 C   0  0  0  0  0  0  0  0  0  0  0  0
   -7.1075    2.7904    0.6283 H   0  0  0  0  0  0  0  0  0  0  0  0
   -8.2770    2.2146   -1.4475 H   0  0  0  0  0  0  0  0  0  0  0  0
   -7.4357    0.4210   -2.8182 H   0  0  0  0  0  0  0  0  0  0  0  0
   -5.3912   -0.8741   -2.1776 H   0  0  0  0  0  0  0  0  0  0  0  0
   -4.1241   -2.3255   -0.8189 H   0  0  0  0  0  0  0  0  0  0  0  0
   -3.1009   -1.1611   -1.7152 H   0  0  0  0  0  0  0  0  0  0  0  0
   -1.7596   -2.9813   -0.4756 H   0  0  0  0  0  0  0  0  0  0  0  0
   -2.4149   -2.2274    1.0371 H   0  0  0  0  0  0  0  0  0  0  0  0
   -0.8564   -1.3203   -2.0132 H   0  0  0  0  0  0  0  0  0  0  0  0
   -0.9772    0.3738   -1.5137 H   0  0  0  0  0  0  0  0  0  0  0  0
    1.3405   -1.4362   -1.6842 H   0  0  0  0  0  0  0  0  0  0  0  0
    1.2639    0.4086   -1.6311 H   0  0  0  0  0  0  0  0  0  0  0  0
    0.9958   -1.6635    0.6316 H   0  0  0  0  0  0  0  0  0  0  0  0
    0.9196    0.5002    2.0590 H   0  0  0  0  0  0  0  0  0  0  0  0
    0.5108    1.2709    0.4947 H   0  0  0  0  0  0  0  0  0  0  0  0
   -1.6322    0.5906    1.1510 H   0  0  0  0  0  0  0  0  0  0  0  0
   -1.0085   -0.8464    2.0612 H   0  0  0  0  0  0  0  0  0  0  0  0
    6.8769   -0.1148    1.6086 H   0  0  0  0  0  0  0  0  0  0  0  0
    5.8867   -0.2326   -2.5010 H   0  0  0  0  0  0  0  0  0  0  0  0
    3.4752   -0.4511   -1.9312 H   0  0  0  0  0  0  0  0  0  0  0  0
  1  2  1  0
  2  3  2  0
  2  4  1  0
  4  5  2  0
  5  6  1  0
  6  7  2  0
  7  8  1  0
  8  9  2  0
  9 10  1  0
 10 11  1  0
 11 12  1  0
 12 13  1  0
 13 14  1  0
 14 15  1  0
 15 16  1  0
 16 17  1  0
 17 18  1  0
 16 19  1  0
 19 20  1  0
 20 21  2  0
 21 22  1  0
 22 23  2  0
 23 24  1  0
 24 25  1  0
 25 26  1  0
 26 27  1  0
 26 28  1  0
 26 29  1  0
 24 30  2  0
 30 31  1  0
 31 32  2  0
  9  4  1  0
 18 13  1  0
 32 19  1  0
 32 22  1  0
  5 33  1  0
  6 34  1  0
  7 35  1  0
  8 36  1  0
 11 37  1  0
 11 38  1  0
 12 39  1  0
 12 40  1  0
 14 41  1  0
 14 42  1  0
 15 43  1  0
 15 44  1  0
 16 45  1  0
 17 46  1  0
 17 47  1  0
 18 48  1  0
 18 49  1  0
 23 50  1  0
 30 51  1  0
 31 52  1  0
M  CHG  2   1  -1   2   1
M  END
$$$$
[H]OC([H])([H])C([H])([H])N1C([H])([H])C([H])([H])C([H])(C(=O)N([H])c2c([H])c([H])c(Oc3c([H])nc([H])c(-c4noc(-c5c([H])c([H])c(C(F)(F)F)c([H])c5[H])n4)c3[H])c([H])c2[H])C([H])([H])C1([H])[H]
     RDKit          3D

 66 70  0  0  0  0  0  0  0  0999 V2000
  -11.3357    0.1877    1.1120 O   0  0  0  0  0  0  0  0  0  0  0  0
  -10.9768    0.1141   -0.2523 C   0  0  0  0  0  0  0  0  0  0  0  0
   -9.8333   -0.8365   -0.4258 C   0  0  0  0  0  0  0  0  0  0  0  0
   -8.7006   -0.4716    0.3311 N   0  0  0  0  0  0  0  0  0  0  0  0
   -7.6765   -1.5113    0.2055 C   0  0  0  0  0  0  0  0  0  0  0  0
   -6.9344   -1.3563   -1.0812 C   0  0  0  0  0  0  0  0  0  0  0  0
   -6.2281   -0.0119   -1.1545 C   0  0  0  0  0  0  0  0  0  0  0  0
   -6.9467    1.0966   -0.5116 C   0  0  0  0  0  0  0  0  0  0  0  0
   -8.1801    0.8309    0.2590 C   0  0  0  0  0  0  0  0  0  0  0  0
   -4.8304   -0.1447   -0.6814 C   0  0  0  0  0  0  0  0  0  0  0  0
   -4.5158   -1.2364   -0.0995 O   0  0  0  0  0  0  0  0  0  0  0  0
   -3.8548    0.8402   -0.8390 N   0  0  0  0  0  0  0  0  0  0  0  0
   -2.5476    0.5561   -0.3395 C   0  0  0  0  0  0  0  0  0  0  0  0
   -2.4034    0.2676    0.9930 C   0  0  0  0  0  0  0  0  0  0  0  0
   -1.2030   -0.1440    1.5294 C   0  0  0  0  0  0  0  0  0  0  0  0
   -0.1128   -0.2656    0.6723 C   0  0  0  0  0  0  0  0  0  0  0  0
    1.0381   -0.6663    1.1238 O   0  0  0  0  0  0  0  0  0  0  0  0
    2.2007   -0.2686    1.5749 C   0  0  0  0  0  0  0  0  0  0  0  0
    2.4975    0.0446    2.9086 C   0  0  0  0  0  0  0  0  0  0  0  0
    3.7155    0.4315    3.2912 N   0  0  0  0  0  0  0  0  0  0  0  0
    4.7237    0.5381    2.3984 C   0  0  0  0  0  0  0  0  0  0  0  0
    4.5205    0.2518    1.0675 C   0  0  0  0  0  0  0  0  0  0  0  0
    3.2694   -0.1440    0.6811 C   0  0  0  0  0  0  0  0  0  0  0  0
    5.6575    0.2841    0.1302 C   0  0  0  0  0  0  0  0  0  0  0  0
    5.6414    0.2665   -1.2076 N   0  0  0  0  0  0  0  0  0  0  0  0
    6.8769    0.2202   -1.6293 O   0  0  0  0  0  0  0  0  0  0  0  0
    7.7291    0.2049   -0.6613 C   0  0  0  0  0  0  0  0  0  0  0  0
    6.9614    0.2478    0.4752 N   0  0  0  0  0  0  0  0  0  0  0  0
    9.1797    0.1525   -0.6030 C   0  0  0  0  0  0  0  0  0  0  0  0
    9.8481    0.0477    0.6183 C   0  0  0  0  0  0  0  0  0  0  0  0
   11.2227   -0.0402    0.6094 C   0  0  0  0  0  0  0  0  0  0  0  0
   11.9031   -0.0234   -0.5736 C   0  0  0  0  0  0  0  0  0  0  0  0
   11.2538    0.0808   -1.7691 C   0  0  0  0  0  0  0  0  0  0  0  0
    9.8755    0.1704   -1.7903 C   0  0  0  0  0  0  0  0  0  0  0  0
   13.4025   -0.1382   -0.5980 C   0  0  0  0  0  0  0  0  0  0  0  0
   13.7141   -1.2161   -1.4236 F   0  0  0  0  0  0  0  0  0  0  0  0
   13.9797    1.0117   -1.0418 F   0  0  0  0  0  0  0  0  0  0  0  0
   13.8848   -0.5121    0.6600 F   0  0  0  0  0  0  0  0  0  0  0  0
   -0.2431    0.0323   -0.6955 C   0  0  0  0  0  0  0  0  0  0  0  0
   -1.4688    0.4386   -1.1662 C   0  0  0  0  0  0  0  0  0  0  0  0
  -10.7209    0.7658    1.6018 H   0  0  0  0  0  0  0  0  0  0  0  0
  -11.8546   -0.3885   -0.7577 H   0  0  0  0  0  0  0  0  0  0  0  0
  -10.7487    1.0665   -0.7085 H   0  0  0  0  0  0  0  0  0  0  0  0
   -9.5568   -0.9195   -1.4963 H   0  0  0  0  0  0  0  0  0  0  0  0
  -10.1258   -1.8851   -0.0962 H   0  0  0  0  0  0  0  0  0  0  0  0
   -8.2223   -2.4767    0.1733 H   0  0  0  0  0  0  0  0  0  0  0  0
   -7.0227   -1.5240    1.0973 H   0  0  0  0  0  0  0  0  0  0  0  0
   -6.1596   -2.1561   -1.1153 H   0  0  0  0  0  0  0  0  0  0  0  0
   -7.6234   -1.4274   -1.9262 H   0  0  0  0  0  0  0  0  0  0  0  0
   -6.2071    0.2296   -2.2658 H   0  0  0  0  0  0  0  0  0  0  0  0
   -7.1014    1.9773   -1.2336 H   0  0  0  0  0  0  0  0  0  0  0  0
   -6.2036    1.5733    0.2201 H   0  0  0  0  0  0  0  0  0  0  0  0
   -8.0752    1.2481    1.3184 H   0  0  0  0  0  0  0  0  0  0  0  0
   -8.9732    1.5230   -0.1588 H   0  0  0  0  0  0  0  0  0  0  0  0
   -4.0386    1.7475   -1.2891 H   0  0  0  0  0  0  0  0  0  0  0  0
   -3.2625    0.3722    1.6596 H   0  0  0  0  0  0  0  0  0  0  0  0
   -1.0525   -0.3694    2.5585 H   0  0  0  0  0  0  0  0  0  0  0  0
    1.7118   -0.0289    3.6379 H   0  0  0  0  0  0  0  0  0  0  0  0
    5.7068    0.8414    2.7236 H   0  0  0  0  0  0  0  0  0  0  0  0
    3.1434   -0.3655   -0.3747 H   0  0  0  0  0  0  0  0  0  0  0  0
    9.3058    0.0351    1.5360 H   0  0  0  0  0  0  0  0  0  0  0  0
   11.8155   -0.1291    1.5271 H   0  0  0  0  0  0  0  0  0  0  0  0
   11.7503    0.0946   -2.7251 H   0  0  0  0  0  0  0  0  0  0  0  0
    9.3615    0.2590   -2.7580 H   0  0  0  0  0  0  0  0  0  0  0  0
    0.6056   -0.0585   -1.3535 H   0  0  0  0  0  0  0  0  0  0  0  0
   -1.5556    0.6659   -2.2297 H   0  0  0  0  0  0  0  0  0  0  0  0
  1  2  1  0
  2  3  1  0
  3  4  1  0
  4  5  1  0
  5  6  1  0
  6  7  1  0
  7  8  1  0
  8  9  1  0
  7 10  1  0
 10 11  2  0
 10 12  1  0
 12 13  1  0
 13 14  2  0
 14 15  1  0
 15 16  2  0
 16 17  1  0
 17 18  1  0
 18 19  2  0
 19 20  1  0
 20 21  2  0
 21 22  1  0
 22 23  2  0
 22 24  1  0
 24 25  2  0
 25 26  1  0
 26 27  1  0
 27 28  2  0
 27 29  1  0
 29 30  2  0
 30 31  1  0
 31 32  2  0
 32 33  1  0
 33 34  2  0
 32 35  1  0
 35 36  1  0
 35 37  1  0
 35 38  1  0
 16 39  1  0
 39 40  2  0
  9  4  1  0
 40 13  1  0
 23 18  1  0
 28 24  1  0
 34 29  1  0
  1 41  1  0
  2 42  1  0
  2 43  1  0
  3 44  1  0
  3 45  1  0
  5 46  1  0
  5 47  1  0
  6 48  1  0
  6 49  1  0
  7 50  1  0
  8 51  1  0
  8 52  1  0
  9 53  1  0
  9 54  1  0
 12 55  1  0
 14 56  1  0
 15 57  1  0
 19 58  1  0
 21 59  1  0
 23 60  1  0
 30 61  1  0
 31 62  1  0
 33 63  1  0
 34 64  1  0
 39 65  1  0
 40 66  1  0
M  END
$$$$
[H]c1nc(N([H])C([H])(C([H])([H])[H])C([H])([H])[H])c2c([H])c(-n3c([H])nc4c(N([H])[H])nc(N([H])[H])nc43)c([H])c([H])c2n1
     RDKit          3D

 42 45  0  0  0  0  0  0  0  0999 V2000
    5.3188   -0.2283    0.6370 C   0  0  0  0  0  0  0  0  0  0  0  0
    4.5093   -0.6070   -0.5840 C   0  0  0  0  0  0  0  0  0  0  0  0
    4.8311   -2.0309   -0.9299 C   0  0  0  0  0  0  0  0  0  0  0  0
    3.0755   -0.4089   -0.2861 N   0  0  0  0  0  0  0  0  0  0  0  0
    2.6918    0.9042    0.0543 C   0  0  0  0  0  0  0  0  0  0  0  0
    3.5713    1.9079    0.1037 N   0  0  0  0  0  0  0  0  0  0  0  0
    3.2167    3.1592    0.4257 C   0  0  0  0  0  0  0  0  0  0  0  0
    1.9436    3.4641    0.7173 N   0  0  0  0  0  0  0  0  0  0  0  0
    1.0183    2.4923    0.6827 C   0  0  0  0  0  0  0  0  0  0  0  0
   -0.3066    2.7303    0.9697 C   0  0  0  0  0  0  0  0  0  0  0  0
   -1.2373    1.7173    0.9276 C   0  0  0  0  0  0  0  0  0  0  0  0
   -0.9093    0.4228    0.6014 C   0  0  0  0  0  0  0  0  0  0  0  0
    0.4326    0.1741    0.3091 C   0  0  0  0  0  0  0  0  0  0  0  0
    1.3733    1.1794    0.3478 C   0  0  0  0  0  0  0  0  0  0  0  0
   -1.9009   -0.5963    0.5690 N   0  0  0  0  0  0  0  0  0  0  0  0
   -1.7999   -1.8699    0.9817 C   0  0  0  0  0  0  0  0  0  0  0  0
   -2.9615   -2.5280    0.7845 N   0  0  0  0  0  0  0  0  0  0  0  0
   -3.8293   -1.6744    0.2372 C   0  0  0  0  0  0  0  0  0  0  0  0
   -5.1396   -1.7336   -0.1883 C   0  0  0  0  0  0  0  0  0  0  0  0
   -5.8240   -2.9641   -0.0540 N   0  0  0  0  0  0  0  0  0  0  0  0
   -5.7433   -0.6363   -0.7186 N   0  0  0  0  0  0  0  0  0  0  0  0
   -5.0818    0.5330   -0.8425 C   0  0  0  0  0  0  0  0  0  0  0  0
   -5.7662    1.6324   -1.4008 N   0  0  0  0  0  0  0  0  0  0  0  0
   -3.8120    0.5575   -0.4203 N   0  0  0  0  0  0  0  0  0  0  0  0
   -3.1674   -0.4812    0.1064 C   0  0  0  0  0  0  0  0  0  0  0  0
    5.8444    0.7151    0.4462 H   0  0  0  0  0  0  0  0  0  0  0  0
    4.6223   -0.1030    1.5100 H   0  0  0  0  0  0  0  0  0  0  0  0
    6.0944   -0.9919    0.8717 H   0  0  0  0  0  0  0  0  0  0  0  0
    4.8273    0.0270   -1.4174 H   0  0  0  0  0  0  0  0  0  0  0  0
    5.6761   -2.0754   -1.6572 H   0  0  0  0  0  0  0  0  0  0  0  0
    5.1670   -2.5814   -0.0325 H   0  0  0  0  0  0  0  0  0  0  0  0
    3.9803   -2.5563   -1.4097 H   0  0  0  0  0  0  0  0  0  0  0  0
    2.5239   -1.2452   -0.3603 H   0  0  0  0  0  0  0  0  0  0  0  0
    4.0081    3.9268    0.4422 H   0  0  0  0  0  0  0  0  0  0  0  0
   -0.5801    3.7434    1.2280 H   0  0  0  0  0  0  0  0  0  0  0  0
   -2.2788    1.9282    1.1582 H   0  0  0  0  0  0  0  0  0  0  0  0
    0.7058   -0.8306    0.0526 H   0  0  0  0  0  0  0  0  0  0  0  0
   -0.9163   -2.3012    1.4088 H   0  0  0  0  0  0  0  0  0  0  0  0
   -5.6499   -3.7358   -0.7255 H   0  0  0  0  0  0  0  0  0  0  0  0
   -6.4948   -3.0921    0.7113 H   0  0  0  0  0  0  0  0  0  0  0  0
   -6.6925    1.8910   -1.0278 H   0  0  0  0  0  0  0  0  0  0  0  0
   -5.3404    2.1658   -2.1710 H   0  0  0  0  0  0  0  0  0  0  0  0
  1  2  1  0
  2  3  1  0
  2  4  1  0
  4  5  1  0
  5  6  2  0
  6  7  1  0
  7  8  2  0
  8  9  1  0
  9 10  2  0
 10 11  1  0
 11 12  2  0
 12 13  1  0
 13 14  2  0
 12 15  1  0
 15 16  1  0
 16 17  2  0
 17 18  1  0
 18 19  2  0
 19 20  1  0
 19 21  1  0
 21 22  2  0
 22 23  1  0
 22 24  1  0
 24 25  2  0
 14  5  1  0
 25 15  1  0
 14  9  1  0
 25 18  1  0
  1 26  1  0
  1 27  1  0
  1 28  1  0
  2 29  1  0
  3 30  1  0
  3 31  1  0
  3 32  1  0
  4 33  1  0
  7 34  1  0
 10 35  1  0
 11 36  1  0
 13 37  1  0
 16 38  1  0
 20 39  1  0
 20 40  1  0
 23 41  1  0
 23 42  1  0
M  END
$$$$
[H]OC(=O)C([H])([H])C([H])([H])C([H])([H])C([H])([H])C([H])([H])C([H])(C(=O)O[H])N([H])C(=O)c1c([H])c([H])c(Oc2c([H])c([H])c([H])c3c([H])c(C([H])([H])C(=O)C(C([H])([H])[H])(C([H])([H])[H])C([H])([H])[H])c(C([H])([H])[H])c([H])c23)c(F)c1[H]
     RDKit          3D

 77 79  0  0  0  0  0  0  0  0999 V2000
   -6.2315    0.9266    2.1892 C   0  0  0  0  0  0  0  0  0  0  0  0
   -5.6783    0.0207    1.1718 C   0  0  0  0  0  0  0  0  0  0  0  0
   -4.2988   -0.1170    1.1030 C   0  0  0  0  0  0  0  0  0  0  0  0
   -3.7376   -0.9459    0.1753 C   0  0  0  0  0  0  0  0  0  0  0  0
   -2.3389   -1.1030    0.0847 C   0  0  0  0  0  0  0  0  0  0  0  0
   -1.5791   -0.3790    0.9816 O   0  0  0  0  0  0  0  0  0  0  0  0
   -0.2058   -0.5392    1.0191 C   0  0  0  0  0  0  0  0  0  0  0  0
    0.6441    0.5100    0.6675 C   0  0  0  0  0  0  0  0  0  0  0  0
    2.0007    0.3637    0.7023 C   0  0  0  0  0  0  0  0  0  0  0  0
    2.6181   -0.8148    1.0820 C   0  0  0  0  0  0  0  0  0  0  0  0
    1.7650   -1.8620    1.4343 C   0  0  0  0  0  0  0  0  0  0  0  0
    0.3976   -1.7096    1.3981 C   0  0  0  0  0  0  0  0  0  0  0  0
   -0.3979   -2.7532    1.7809 F   0  0  0  0  0  0  0  0  0  0  0  0
    4.0578   -0.9986    1.1097 C   0  0  0  0  0  0  0  0  0  0  0  0
    4.5090   -2.0417    1.6466 O   0  0  0  0  0  0  0  0  0  0  0  0
    4.9722   -0.0756    0.5683 N   0  0  0  0  0  0  0  0  0  0  0  0
    6.4596   -0.3399    0.6321 C   0  0  0  0  0  0  0  0  0  0  0  0
    6.9258   -0.3765   -0.7734 C   0  0  0  0  0  0  0  0  0  0  0  0
    8.2980   -0.6472   -1.1536 C   0  0  0  0  0  0  0  0  0  0  0  0
    9.4098    0.2332   -0.7190 C   0  0  0  0  0  0  0  0  0  0  0  0
   10.7411   -0.2461   -1.3268 C   0  0  0  0  0  0  0  0  0  0  0  0
   11.8294    0.6660   -0.8732 C   0  0  0  0  0  0  0  0  0  0  0  0
   11.7210    2.0587   -1.3317 C   0  0  0  0  0  0  0  0  0  0  0  0
   12.6052    3.0485   -0.8341 O   0  0  0  0  0  0  0  0  0  0  0  0
   10.8808    2.4536   -2.1552 O   0  0  0  0  0  0  0  0  0  0  0  0
    6.9911    0.8532    1.3405 C   0  0  0  0  0  0  0  0  0  0  0  0
    7.9393    0.8589    2.3256 O   0  0  0  0  0  0  0  0  0  0  0  0
    6.4908    1.9702    0.9777 O   0  0  0  0  0  0  0  0  0  0  0  0
   -1.8034   -1.9449   -0.8607 C   0  0  0  0  0  0  0  0  0  0  0  0
   -2.6153   -2.6411   -1.7241 C   0  0  0  0  0  0  0  0  0  0  0  0
   -3.9845   -2.4957   -1.6450 C   0  0  0  0  0  0  0  0  0  0  0  0
   -4.5338   -1.6390   -0.6841 C   0  0  0  0  0  0  0  0  0  0  0  0
   -5.8861   -1.5061   -0.6190 C   0  0  0  0  0  0  0  0  0  0  0  0
   -6.4781   -0.6790    0.3043 C   0  0  0  0  0  0  0  0  0  0  0  0
   -7.9494   -0.5595    0.3451 C   0  0  0  0  0  0  0  0  0  0  0  0
   -8.4239    0.7162   -0.2532 C   0  0  0  0  0  0  0  0  0  0  0  0
   -7.5902    1.4877   -0.6833 O   0  0  0  0  0  0  0  0  0  0  0  0
   -9.8538    1.0828   -0.3470 C   0  0  0  0  0  0  0  0  0  0  0  0
  -10.5183    1.1469    1.0135 C   0  0  0  0  0  0  0  0  0  0  0  0
   -9.9690    2.4515   -0.9731 C   0  0  0  0  0  0  0  0  0  0  0  0
  -10.6334    0.1208   -1.2184 C   0  0  0  0  0  0  0  0  0  0  0  0
   -7.2388    0.6483    2.5295 H   0  0  0  0  0  0  0  0  0  0  0  0
   -6.1516    1.9674    1.8441 H   0  0  0  0  0  0  0  0  0  0  0  0
   -5.5832    0.8721    3.1100 H   0  0  0  0  0  0  0  0  0  0  0  0
   -3.6496    0.4285    1.7807 H   0  0  0  0  0  0  0  0  0  0  0  0
    0.2102    1.4486    0.3645 H   0  0  0  0  0  0  0  0  0  0  0  0
    2.6827    1.1866    0.4278 H   0  0  0  0  0  0  0  0  0  0  0  0
    2.1672   -2.8231    1.7453 H   0  0  0  0  0  0  0  0  0  0  0  0
    4.6269    0.7902    0.1219 H   0  0  0  0  0  0  0  0  0  0  0  0
    6.5471   -1.2788    1.1804 H   0  0  0  0  0  0  0  0  0  0  0  0
    6.2482   -1.1370   -1.3004 H   0  0  0  0  0  0  0  0  0  0  0  0
    6.5869    0.5835   -1.3137 H   0  0  0  0  0  0  0  0  0  0  0  0
    8.5696   -1.7067   -0.8672 H   0  0  0  0  0  0  0  0  0  0  0  0
    8.3849   -0.6953   -2.2969 H   0  0  0  0  0  0  0  0  0  0  0  0
    9.2955    1.2854   -0.9544 H   0  0  0  0  0  0  0  0  0  0  0  0
    9.5947    0.0568    0.3808 H   0  0  0  0  0  0  0  0  0  0  0  0
   10.9637   -1.2730   -1.0018 H   0  0  0  0  0  0  0  0  0  0  0  0
   10.6558   -0.1678   -2.4421 H   0  0  0  0  0  0  0  0  0  0  0  0
   12.8467    0.2431   -1.0639 H   0  0  0  0  0  0  0  0  0  0  0  0
   11.7354    0.7095    0.2599 H   0  0  0  0  0  0  0  0  0  0  0  0
   12.2602    3.9256   -0.5036 H   0  0  0  0  0  0  0  0  0  0  0  0
    7.8944    1.3360    3.2090 H   0  0  0  0  0  0  0  0  0  0  0  0
   -0.7442   -2.0705   -0.9622 H   0  0  0  0  0  0  0  0  0  0  0  0
   -2.1536   -3.3024   -2.4632 H   0  0  0  0  0  0  0  0  0  0  0  0
   -4.6229   -3.0263   -2.3047 H   0  0  0  0  0  0  0  0  0  0  0  0
   -6.4866   -2.0881   -1.3360 H   0  0  0  0  0  0  0  0  0  0  0  0
   -8.4510   -1.3764   -0.2266 H   0  0  0  0  0  0  0  0  0  0  0  0
   -8.2892   -0.6835    1.3976 H   0  0  0  0  0  0  0  0  0  0  0  0
   -9.7474    1.4161    1.7509 H   0  0  0  0  0  0  0  0  0  0  0  0
  -10.9708    0.1425    1.1866 H   0  0  0  0  0  0  0  0  0  0  0  0
  -11.3327    1.8893    1.0113 H   0  0  0  0  0  0  0  0  0  0  0  0
   -9.7348    3.2521   -0.2171 H   0  0  0  0  0  0  0  0  0  0  0  0
  -10.9242    2.6461   -1.4615 H   0  0  0  0  0  0  0  0  0  0  0  0
   -9.1852    2.5280   -1.7529 H   0  0  0  0  0  0  0  0  0  0  0  0
  -11.5730    0.6481   -1.5115 H   0  0  0  0  0  0  0  0  0  0  0  0
  -10.0515   -0.1359   -2.1414 H   0  0  0  0  0  0  0  0  0  0  0  0
  -10.9293   -0.7931   -0.6980 H   0  0  0  0  0  0  0  0  0  0  0  0
  1  2  1  0
  2  3  2  0
  3  4  1  0
  4  5  2  0
  5  6  1  0
  6  7  1  0
  7  8  2  0
  8  9  1  0
  9 10  2  0
 10 11  1  0
 11 12  2  0
 12 13  1  0
 10 14  1  0
 14 15  2  0
 14 16  1  0
 16 17  1  0
 17 18  1  0
 18 19  1  0
 19 20  1  0
 20 21  1  0
 21 22  1  0
 22 23  1  0
 23 24  1  0
 23 25  2  0
 17 26  1  0
 26 27  1  0
 26 28  2  0
  5 29  1  0
 29 30  2  0
 30 31  1  0
 31 32  2  0
 32 33  1  0
 33 34  2  0
 34 35  1  0
 35 36  1  0
 36 37  2  0
 36 38  1  0
 38 39  1  0
 38 40  1  0
 38 41  1  0
 34  2  1  0
 32  4  1  0
 12  7  1  0
  1 42  1  0
  1 43  1  0
  1 44  1  0
  3 45  1  0
  8 46  1  0
  9 47  1  0
 11 48  1  0
 16 49  1  0
 17 50  1  0
 18 51  1  0
 18 52  1  0
 19 53  1  0
 19 54  1  0
 20 55  1  0
 20 56  1  0
 21 57  1  0
 21 58  1  0
 22 59  1  0
 22 60  1  0
 24 61  1  0
 27 62  1  0
 29 63  1  0
 30 64  1  0
 31 65  1  0
 33 66  1  0
 35 67  1  0
 35 68  1  0
 39 69  1  0
 39 70  1  0
 39 71  1  0
 40 72  1  0
 40 73  1  0
 40 74  1  0
 41 75  1  0
 41 76  1  0
 41 77  1  0
M  END
$$$$
[H]OC([H])([H])[C@]1([H])O[C@@]([H])([C@@]([H])(N([H])c2nc([H])nc3c(C#N)c([H])c([H])c([H])c23)C([H])([H])[H])[C@]([H])(O[H])[C@]1([H])O[H]
     RDKit          3D

 42 44  0  0  0  0  0  0  0  0999 V2000
   -0.4368   -2.1534    0.6559 C   0  0  0  0  0  0  0  0  0  0  0  0
   -0.6030   -0.9913   -0.2555 C   0  0  2  0  0  0  0  0  0  0  0  0
    0.4781   -0.0519   -0.0318 N   0  0  0  0  0  0  0  0  0  0  0  0
    1.8081   -0.5151   -0.2468 C   0  0  0  0  0  0  0  0  0  0  0  0
    2.0296   -1.7909   -0.6451 N   0  0  0  0  0  0  0  0  0  0  0  0
    3.2610   -2.2447   -0.8517 C   0  0  0  0  0  0  0  0  0  0  0  0
    4.3382   -1.4716   -0.6785 N   0  0  0  0  0  0  0  0  0  0  0  0
    4.2082   -0.1937   -0.2846 C   0  0  0  0  0  0  0  0  0  0  0  0
    5.3510    0.5934   -0.1109 C   0  0  0  0  0  0  0  0  0  0  0  0
    5.1904    1.8993    0.2931 C   0  0  0  0  0  0  0  0  0  0  0  0
    3.9235    2.3911    0.5132 C   0  0  0  0  0  0  0  0  0  0  0  0
    2.7883    1.5881    0.3342 C   0  0  0  0  0  0  0  0  0  0  0  0
    2.9263    0.2960   -0.0643 C   0  0  0  0  0  0  0  0  0  0  0  0
    6.6519    0.0218   -0.3570 C   0  0  0  0  0  0  0  0  0  0  0  0
    7.7002   -0.4438   -0.5388 N   0  0  0  0  0  0  0  0  0  0  0  0
   -1.9472   -0.3454   -0.2110 C   0  0  2  0  0  0  0  0  0  0  0  0
   -2.2219    0.2616    1.0042 O   0  0  0  0  0  0  0  0  0  0  0  0
   -3.5700    0.4510    1.1074 C   0  0  1  0  0  0  0  0  0  0  0  0
   -3.9900    1.8930    0.9330 C   0  0  0  0  0  0  0  0  0  0  0  0
   -3.6461    2.4226   -0.2865 O   0  0  0  0  0  0  0  0  0  0  0  0
   -4.2527   -0.3796    0.0515 C   0  0  1  0  0  0  0  0  0  0  0  0
   -4.6822    0.4003   -1.0237 O   0  0  0  0  0  0  0  0  0  0  0  0
   -3.0895   -1.2871   -0.3813 C   0  0  1  0  0  0  0  0  0  0  0  0
   -3.3423   -1.6251   -1.7044 O   0  0  0  0  0  0  0  0  0  0  0  0
   -0.1712   -3.1000    0.1126 H   0  0  0  0  0  0  0  0  0  0  0  0
    0.4070   -2.0157    1.3924 H   0  0  0  0  0  0  0  0  0  0  0  0
   -1.3209   -2.3952    1.2676 H   0  0  0  0  0  0  0  0  0  0  0  0
   -0.4591   -1.3680   -1.3078 H   0  0  0  0  0  0  0  0  0  0  0  0
    0.3098    0.9112    0.2692 H   0  0  0  0  0  0  0  0  0  0  0  0
    3.4561   -3.2836   -1.1769 H   0  0  0  0  0  0  0  0  0  0  0  0
    6.0682    2.5368    0.4365 H   0  0  0  0  0  0  0  0  0  0  0  0
    3.7756    3.4162    0.8315 H   0  0  0  0  0  0  0  0  0  0  0  0
    1.8127    2.0211    0.5201 H   0  0  0  0  0  0  0  0  0  0  0  0
   -2.0303    0.4360   -0.9941 H   0  0  0  0  0  0  0  0  0  0  0  0
   -3.9248    0.1317    2.1127 H   0  0  0  0  0  0  0  0  0  0  0  0
   -3.5275    2.5225    1.7385 H   0  0  0  0  0  0  0  0  0  0  0  0
   -5.0835    1.9778    1.0882 H   0  0  0  0  0  0  0  0  0  0  0  0
   -3.3077    3.3635   -0.1708 H   0  0  0  0  0  0  0  0  0  0  0  0
   -5.0796   -0.9817    0.4384 H   0  0  0  0  0  0  0  0  0  0  0  0
   -3.9938    0.4586   -1.7398 H   0  0  0  0  0  0  0  0  0  0  0  0
   -3.1047   -2.1352    0.3013 H   0  0  0  0  0  0  0  0  0  0  0  0
   -2.6996   -1.2210   -2.3401 H   0  0  0  0  0  0  0  0  0  0  0  0
  1  2  1  0
  2  3  1  0
  3  4  1  0
  4  5  2  0
  5  6  1  0
  6  7  2  0
  7  8  1  0
  8  9  2  0
  9 10  1  0
 10 11  2  0
 11 12  1  0
 12 13  2  0
  9 14  1  0
 14 15  3  0
  2 16  1  0
 16 17  1  0
 17 18  1  0
 18 19  1  0
 19 20  1  0
 18 21  1  0
 21 22  1  0
 21 23  1  0
 23 24  1  0
 13  4  1  0
 23 16  1  0
 13  8  1  0
  1 25  1  0
  1 26  1  0
  1 27  1  0
  2 28  1  6
  3 29  1  0
  6 30  1  0
 10 31  1  0
 11 32  1  0
 12 33  1  0
 16 34  1  6
 18 35  1  1
 19 36  1  0
 19 37  1  0
 20 38  1  0
 21 39  1  1
 22 40  1  0
 23 41  1  1
 24 42  1  0
M  END
$$$$
[H]OC([H])([H])C([H])(C([H])([H])N([H])c1nc(N([H])[H])nc2nc(N([H])C(=O)C([H])(c3c([H])c([H])c([H])c(C(F)(F)F)c3[H])C([H])(C([H])([H])[H])C([H])([H])[H])c([H])nc12)C(C([H])([H])[H])(C([H])([H])[H])C([H])([H])[H]
     RDKit          3D

 69 71  0  0  0  0  0  0  0  0999 V2000
    3.6067   -2.8130   -2.0423 C   0  0  0  0  0  0  0  0  0  0  0  0
    4.7886   -2.1255   -1.3915 C   0  0  0  0  0  0  0  0  0  0  0  0
    5.6477   -3.0612   -0.6091 C   0  0  0  0  0  0  0  0  0  0  0  0
    4.2927   -0.9152   -0.6606 C   0  0  0  0  0  0  0  0  0  0  0  0
    3.6655   -0.0319   -1.6605 C   0  0  0  0  0  0  0  0  0  0  0  0
    4.4532    0.0925   -2.7399 O   0  0  0  0  0  0  0  0  0  0  0  0
    2.5140    0.6803   -1.7406 N   0  0  0  0  0  0  0  0  0  0  0  0
    1.2810    0.6486   -1.0384 C   0  0  0  0  0  0  0  0  0  0  0  0
    0.8192   -0.3962   -0.2828 C   0  0  0  0  0  0  0  0  0  0  0  0
   -0.3972   -0.3371    0.3274 N   0  0  0  0  0  0  0  0  0  0  0  0
   -1.1728    0.7474    0.2073 C   0  0  0  0  0  0  0  0  0  0  0  0
   -2.4402    0.8329    0.8078 C   0  0  0  0  0  0  0  0  0  0  0  0
   -2.9674   -0.3063    1.4493 N   0  0  0  0  0  0  0  0  0  0  0  0
   -4.2358   -0.3714    2.0967 C   0  0  0  0  0  0  0  0  0  0  0  0
   -5.4640    0.0086    1.3909 C   0  0  0  0  0  0  0  0  0  0  0  0
   -6.6485   -0.1400    2.4050 C   0  0  0  0  0  0  0  0  0  0  0  0
   -6.4384    0.6791    3.4957 O   0  0  0  0  0  0  0  0  0  0  0  0
   -5.9096   -0.7249    0.1834 C   0  0  0  0  0  0  0  0  0  0  0  0
   -7.2370   -0.0434   -0.2710 C   0  0  0  0  0  0  0  0  0  0  0  0
   -5.0187   -0.6375   -1.0276 C   0  0  0  0  0  0  0  0  0  0  0  0
   -6.1943   -2.2041    0.4083 C   0  0  0  0  0  0  0  0  0  0  0  0
   -3.1609    1.9518    0.6383 N   0  0  0  0  0  0  0  0  0  0  0  0
   -2.7318    2.9926   -0.0791 C   0  0  0  0  0  0  0  0  0  0  0  0
   -3.6051    4.1175   -0.2193 N   0  0  0  0  0  0  0  0  0  0  0  0
   -1.5356    2.9156   -0.6542 N   0  0  0  0  0  0  0  0  0  0  0  0
   -0.7359    1.8135   -0.5368 C   0  0  0  0  0  0  0  0  0  0  0  0
    0.4558    1.7460   -1.1339 N   0  0  0  0  0  0  0  0  0  0  0  0
    5.3641   -0.1688    0.0896 C   0  0  0  0  0  0  0  0  0  0  0  0
    5.8463   -0.7127    1.2548 C   0  0  0  0  0  0  0  0  0  0  0  0
    6.8509   -0.0068    1.9242 C   0  0  0  0  0  0  0  0  0  0  0  0
    7.3460    1.1839    1.4488 C   0  0  0  0  0  0  0  0  0  0  0  0
    6.8748    1.7383    0.2820 C   0  0  0  0  0  0  0  0  0  0  0  0
    5.8664    1.0173   -0.3727 C   0  0  0  0  0  0  0  0  0  0  0  0
    7.3637    3.0039   -0.2885 C   0  0  0  0  0  0  0  0  0  0  0  0
    6.5347    3.3424   -1.3768 F   0  0  0  0  0  0  0  0  0  0  0  0
    7.2243    4.0453    0.5978 F   0  0  0  0  0  0  0  0  0  0  0  0
    8.6425    2.9240   -0.8111 F   0  0  0  0  0  0  0  0  0  0  0  0
    3.1002   -2.0163   -2.6483 H   0  0  0  0  0  0  0  0  0  0  0  0
    3.9299   -3.5679   -2.7589 H   0  0  0  0  0  0  0  0  0  0  0  0
    2.9137   -3.2374   -1.2835 H   0  0  0  0  0  0  0  0  0  0  0  0
    5.4361   -1.7612   -2.2481 H   0  0  0  0  0  0  0  0  0  0  0  0
    5.2278   -3.5180    0.2751 H   0  0  0  0  0  0  0  0  0  0  0  0
    6.6326   -2.5832   -0.4595 H   0  0  0  0  0  0  0  0  0  0  0  0
    5.8813   -3.9179   -1.3086 H   0  0  0  0  0  0  0  0  0  0  0  0
    3.5946   -1.2580    0.0854 H   0  0  0  0  0  0  0  0  0  0  0  0
    2.3938    1.2896   -2.6513 H   0  0  0  0  0  0  0  0  0  0  0  0
    1.4110   -1.3090   -0.1674 H   0  0  0  0  0  0  0  0  0  0  0  0
   -2.3886   -1.1942    1.4695 H   0  0  0  0  0  0  0  0  0  0  0  0
   -4.1642    0.3391    2.9993 H   0  0  0  0  0  0  0  0  0  0  0  0
   -4.3698   -1.3681    2.6270 H   0  0  0  0  0  0  0  0  0  0  0  0
   -5.4750    1.0962    1.1545 H   0  0  0  0  0  0  0  0  0  0  0  0
   -6.6674   -1.1877    2.7364 H   0  0  0  0  0  0  0  0  0  0  0  0
   -7.5932    0.1620    1.9323 H   0  0  0  0  0  0  0  0  0  0  0  0
   -5.9422    1.4887    3.2779 H   0  0  0  0  0  0  0  0  0  0  0  0
   -8.0382   -0.6560    0.1663 H   0  0  0  0  0  0  0  0  0  0  0  0
   -7.2346    1.0185    0.1081 H   0  0  0  0  0  0  0  0  0  0  0  0
   -7.2943   -0.0126   -1.3619 H   0  0  0  0  0  0  0  0  0  0  0  0
   -4.8625    0.4287   -1.3128 H   0  0  0  0  0  0  0  0  0  0  0  0
   -5.5768   -1.1500   -1.8765 H   0  0  0  0  0  0  0  0  0  0  0  0
   -4.0806   -1.1761   -0.8807 H   0  0  0  0  0  0  0  0  0  0  0  0
   -7.2852   -2.3174    0.3622 H   0  0  0  0  0  0  0  0  0  0  0  0
   -5.7607   -2.7837   -0.4381 H   0  0  0  0  0  0  0  0  0  0  0  0
   -5.8530   -2.5258    1.3985 H   0  0  0  0  0  0  0  0  0  0  0  0
   -3.4373    4.8376   -0.9455 H   0  0  0  0  0  0  0  0  0  0  0  0
   -4.4328    4.2454    0.3965 H   0  0  0  0  0  0  0  0  0  0  0  0
    5.5160   -1.6502    1.6973 H   0  0  0  0  0  0  0  0  0  0  0  0
    7.2445   -0.4144    2.8645 H   0  0  0  0  0  0  0  0  0  0  0  0
    8.1382    1.7200    1.9841 H   0  0  0  0  0  0  0  0  0  0  0  0
    5.4917    1.4938   -1.2841 H   0  0  0  0  0  0  0  0  0  0  0  0
  1  2  1  0
  2  3  1  0
  2  4  1  0
  4  5  1  0
  5  6  2  0
  5  7  1  0
  7  8  1  0
  8  9  2  0
  9 10  1  0
 10 11  2  0
 11 12  1  0
 12 13  1  0
 13 14  1  0
 14 15  1  0
 15 16  1  0
 16 17  1  0
 15 18  1  0
 18 19  1  0
 18 20  1  0
 18 21  1  0
 12 22  2  0
 22 23  1  0
 23 24  1  0
 23 25  2  0
 25 26  1  0
 26 27  2  0
  4 28  1  0
 28 29  2  0
 29 30  1  0
 30 31  2  0
 31 32  1  0
 32 33  2  0
 32 34  1  0
 34 35  1  0
 34 36  1  0
 34 37  1  0
 27  8  1  0
 33 28  1  0
 26 11  1  0
  1 38  1  0
  1 39  1  0
  1 40  1  0
  2 41  1  0
  3 42  1  0
  3 43  1  0
  3 44  1  0
  4 45  1  0
  7 46  1  0
  9 47  1  0
 13 48  1  0
 14 49  1  0
 14 50  1  0
 15 51  1  0
 16 52  1  0
 16 53  1  0
 17 54  1  0
 19 55  1  0
 19 56  1  0
 19 57  1  0
 20 58  1  0
 20 59  1  0
 20 60  1  0
 21 61  1  0
 21 62  1  0
 21 63  1  0
 24 64  1  0
 24 65  1  0
 29 66  1  0
 30 67  1  0
 31 68  1  0
 33 69  1  0
M  END
$$$$
[H]c1nc([C@]2([H])C([H])([H])C([H])([H])[C@]([H])(N([H])c3c([H])c([H])c(F)c([H])c3[H])C([H])([H])C2([H])[H])c([H])c([H])c1-c1c([H])c([H])c([H])c([H])c1C([H])([H])C([H])([H])[H]
     RDKit          3D

 55 58  0  0  0  0  0  0  0  0999 V2000
   -5.0448   -2.0576   -0.2051 C   0  0  0  0  0  0  0  0  0  0  0  0
   -5.5787   -0.9577    0.6918 C   0  0  0  0  0  0  0  0  0  0  0  0
   -5.7726    0.3051   -0.0583 C   0  0  0  0  0  0  0  0  0  0  0  0
   -7.0680    0.6995   -0.4250 C   0  0  0  0  0  0  0  0  0  0  0  0
   -7.3199    1.8379   -1.1436 C   0  0  0  0  0  0  0  0  0  0  0  0
   -6.2291    2.5985   -1.5009 C   0  0  0  0  0  0  0  0  0  0  0  0
   -4.9556    2.2337   -1.1536 C   0  0  0  0  0  0  0  0  0  0  0  0
   -4.6908    1.0687   -0.4169 C   0  0  0  0  0  0  0  0  0  0  0  0
   -3.3113    0.7730   -0.0662 C   0  0  0  0  0  0  0  0  0  0  0  0
   -2.8936    0.7113    1.2328 C   0  0  0  0  0  0  0  0  0  0  0  0
   -1.5660    0.4005    1.5168 C   0  0  0  0  0  0  0  0  0  0  0  0
   -0.6709    0.1563    0.5142 C   0  0  0  0  0  0  0  0  0  0  0  0
   -1.0928    0.2209   -0.7555 N   0  0  0  0  0  0  0  0  0  0  0  0
   -2.3797    0.5207   -1.0621 C   0  0  0  0  0  0  0  0  0  0  0  0
    0.7648   -0.1825    0.7811 C   0  0  2  0  0  0  0  0  0  0  0  0
    1.5828    0.9159    0.2120 C   0  0  0  0  0  0  0  0  0  0  0  0
    2.9151    0.5352   -0.3497 C   0  0  0  0  0  0  0  0  0  0  0  0
    3.3083   -0.8717    0.0053 C   0  0  1  0  0  0  0  0  0  0  0  0
    2.2154   -1.7559   -0.5731 C   0  0  0  0  0  0  0  0  0  0  0  0
    0.9808   -1.5449    0.2273 C   0  0  0  0  0  0  0  0  0  0  0  0
    4.6010   -1.2054   -0.4973 N   0  0  0  0  0  0  0  0  0  0  0  0
    5.7847   -0.5887   -0.0330 C   0  0  0  0  0  0  0  0  0  0  0  0
    6.9762   -0.8244   -0.7191 C   0  0  0  0  0  0  0  0  0  0  0  0
    8.1377   -0.2594   -0.2957 C   0  0  0  0  0  0  0  0  0  0  0  0
    8.1263    0.5549    0.8265 C   0  0  0  0  0  0  0  0  0  0  0  0
    9.3207    1.0833    1.1894 F   0  0  0  0  0  0  0  0  0  0  0  0
    6.9549    0.7965    1.5147 C   0  0  0  0  0  0  0  0  0  0  0  0
    5.7849    0.2210    1.0799 C   0  0  0  0  0  0  0  0  0  0  0  0
   -5.4121   -3.0329    0.1659 H   0  0  0  0  0  0  0  0  0  0  0  0
   -5.3545   -1.9283   -1.2549 H   0  0  0  0  0  0  0  0  0  0  0  0
   -3.9193   -2.1156   -0.1552 H   0  0  0  0  0  0  0  0  0  0  0  0
   -6.6173   -1.3134    0.9895 H   0  0  0  0  0  0  0  0  0  0  0  0
   -4.9715   -0.8625    1.5986 H   0  0  0  0  0  0  0  0  0  0  0  0
   -7.9083    0.0868   -0.1340 H   0  0  0  0  0  0  0  0  0  0  0  0
   -8.3180    2.1522   -1.4326 H   0  0  0  0  0  0  0  0  0  0  0  0
   -6.3970    3.5029   -2.0697 H   0  0  0  0  0  0  0  0  0  0  0  0
   -4.0841    2.8338   -1.4348 H   0  0  0  0  0  0  0  0  0  0  0  0
   -3.5875    0.9202    2.0679 H   0  0  0  0  0  0  0  0  0  0  0  0
   -1.2734    0.3607    2.5686 H   0  0  0  0  0  0  0  0  0  0  0  0
   -2.6401    0.5525   -2.1161 H   0  0  0  0  0  0  0  0  0  0  0  0
    0.8564   -0.1819    1.9108 H   0  0  0  0  0  0  0  0  0  0  0  0
    0.9799    1.5270   -0.5231 H   0  0  0  0  0  0  0  0  0  0  0  0
    1.7903    1.6582    1.0388 H   0  0  0  0  0  0  0  0  0  0  0  0
    3.7058    1.2898   -0.2136 H   0  0  0  0  0  0  0  0  0  0  0  0
    2.7663    0.5120   -1.4771 H   0  0  0  0  0  0  0  0  0  0  0  0
    3.3143   -0.9341    1.1246 H   0  0  0  0  0  0  0  0  0  0  0  0
    2.0014   -1.3947   -1.6219 H   0  0  0  0  0  0  0  0  0  0  0  0
    2.4999   -2.8145   -0.5810 H   0  0  0  0  0  0  0  0  0  0  0  0
    0.1185   -1.9128   -0.4030 H   0  0  0  0  0  0  0  0  0  0  0  0
    1.0143   -2.2673    1.0924 H   0  0  0  0  0  0  0  0  0  0  0  0
    4.6953   -1.9375   -1.2420 H   0  0  0  0  0  0  0  0  0  0  0  0
    6.9598   -1.4685   -1.5993 H   0  0  0  0  0  0  0  0  0  0  0  0
    9.0353   -0.4744   -0.8639 H   0  0  0  0  0  0  0  0  0  0  0  0
    6.9930    1.4414    2.3902 H   0  0  0  0  0  0  0  0  0  0  0  0
    4.8729    0.4161    1.6382 H   0  0  0  0  0  0  0  0  0  0  0  0
  1  2  1  0
  2  3  1  0
  3  4  2  0
  4  5  1  0
  5  6  2  0
  6  7  1  0
  7  8  2  0
  8  9  1  0
  9 10  2  0
 10 11  1  0
 11 12  2  0
 12 13  1  0
 13 14  2  0
 12 15  1  0
 15 16  1  0
 16 17  1  0
 17 18  1  0
 18 19  1  0
 19 20  1  0
 18 21  1  0
 21 22  1  0
 22 23  2  0
 23 24  1  0
 24 25  2  0
 25 26  1  0
 25 27  1  0
 27 28  2  0
  8  3  1  0
 14  9  1  0
 20 15  1  0
 28 22  1  0
  1 29  1  0
  1 30  1  0
  1 31  1  0
  2 32  1  0
  2 33  1  0
  4 34  1  0
  5 35  1  0
  6 36  1  0
  7 37  1  0
 10 38  1  0
 11 39  1  0
 14 40  1  0
 15 41  1  1
 16 42  1  0
 16 43  1  0
 17 44  1  0
 17 45  1  0
 18 46  1  1
 19 47  1  0
 19 48  1  0
 20 49  1  0
 20 50  1  0
 21 51  1  0
 23 52  1  0
 24 53  1  0
 27 54  1  0
 28 55  1  0
M  END
$$$$
[H]Oc1c([H])c([H])c(C(=O)N(C([H])([H])c2c([H])c([H])c([H])c([H])c2C([H])([H])[H])[C@@]2([H])N(C(=O)C([H])([H])C(=O)N3C([H])([H])Oc4c([H])c([H])c([H])c([H])c4C3([H])[H])C([H])([H])C([H])([H])N(c3c([H])c([H])c([H])c([H])c3[H])C2([H])[H])c([H])c1C([H])([H])N([H])[H]
     RDKit          3D

 86 91  0  0  0  0  0  0  0  0999 V2000
   -5.1622   -3.4812   -2.0633 C   0  0  0  0  0  0  0  0  0  0  0  0
   -6.3892   -4.1394   -1.7453 N   0  0  0  0  0  0  0  0  0  0  0  0
   -4.2211   -3.4961   -0.8999 C   0  0  0  0  0  0  0  0  0  0  0  0
   -3.4146   -2.3632   -0.7328 C   0  0  0  0  0  0  0  0  0  0  0  0
   -2.3728   -2.3384    0.1544 C   0  0  0  0  0  0  0  0  0  0  0  0
   -2.1959   -3.5232    0.8695 C   0  0  0  0  0  0  0  0  0  0  0  0
   -2.9454   -4.6401    0.7461 C   0  0  0  0  0  0  0  0  0  0  0  0
   -3.9832   -4.6091   -0.1646 C   0  0  0  0  0  0  0  0  0  0  0  0
   -4.8341   -5.7035   -0.3771 O   0  0  0  0  0  0  0  0  0  0  0  0
   -1.5240   -1.2303    0.4907 C   0  0  0  0  0  0  0  0  0  0  0  0
   -0.2426   -1.7429    0.4897 O   0  0  0  0  0  0  0  0  0  0  0  0
   -1.5840    0.1002    0.8056 N   0  0  0  0  0  0  0  0  0  0  0  0
   -2.7389    0.8582    1.1694 C   0  0  0  0  0  0  0  0  0  0  0  0
   -3.0496    0.7025    2.6457 C   0  0  0  0  0  0  0  0  0  0  0  0
   -3.6327   -0.4689    3.0687 C   0  0  0  0  0  0  0  0  0  0  0  0
   -4.1204   -0.5436    4.3638 C   0  0  0  0  0  0  0  0  0  0  0  0
   -4.0458    0.5046    5.2396 C   0  0  0  0  0  0  0  0  0  0  0  0
   -3.4580    1.6597    4.8019 C   0  0  0  0  0  0  0  0  0  0  0  0
   -2.9636    1.7490    3.5072 C   0  0  0  0  0  0  0  0  0  0  0  0
   -2.1975    3.0087    3.1723 C   0  0  0  0  0  0  0  0  0  0  0  0
   -0.3792    0.9296    0.4172 C   0  0  2  0  0  0  0  0  0  0  0  0
   -0.8414    2.2224   -0.3758 C   0  0  0  0  0  0  0  0  0  0  0  0
   -0.7517    2.2402   -1.7536 N   0  0  0  0  0  0  0  0  0  0  0  0
   -0.2048    1.2447   -2.6187 C   0  0  0  0  0  0  0  0  0  0  0  0
   -0.3146   -0.0611   -1.7939 C   0  0  0  0  0  0  0  0  0  0  0  0
    0.4146    0.3169   -0.5108 N   0  0  0  0  0  0  0  0  0  0  0  0
    1.7730    0.0025   -0.5763 C   0  0  0  0  0  0  0  0  0  0  0  0
    2.2341   -0.6203   -1.6315 O   0  0  0  0  0  0  0  0  0  0  0  0
    2.8331    0.2906    0.4616 C   0  0  0  0  0  0  0  0  0  0  0  0
    4.0819   -0.3111   -0.0749 C   0  0  0  0  0  0  0  0  0  0  0  0
    3.8579   -1.5222   -0.5501 O   0  0  0  0  0  0  0  0  0  0  0  0
    5.3508    0.1539   -0.1735 N   0  0  0  0  0  0  0  0  0  0  0  0
    6.0346    1.2829    0.3677 C   0  0  0  0  0  0  0  0  0  0  0  0
    7.4097    0.9194    0.6910 O   0  0  0  0  0  0  0  0  0  0  0  0
    7.8552   -0.3825    0.6722 C   0  0  0  0  0  0  0  0  0  0  0  0
    8.8128   -0.9122    1.5031 C   0  0  0  0  0  0  0  0  0  0  0  0
    9.2144   -2.2560    1.4425 C   0  0  0  0  0  0  0  0  0  0  0  0
    8.6221   -3.0715    0.5212 C   0  0  0  0  0  0  0  0  0  0  0  0
    7.6491   -2.5573   -0.3381 C   0  0  0  0  0  0  0  0  0  0  0  0
    7.2814   -1.2597   -0.2675 C   0  0  0  0  0  0  0  0  0  0  0  0
    6.2523   -0.6326   -1.1227 C   0  0  0  0  0  0  0  0  0  0  0  0
   -1.2197    3.4344   -2.4349 C   0  0  0  0  0  0  0  0  0  0  0  0
   -2.0555    3.2249   -3.4803 C   0  0  0  0  0  0  0  0  0  0  0  0
   -2.5348    4.3098   -4.2050 C   0  0  0  0  0  0  0  0  0  0  0  0
   -2.1761    5.6031   -3.8791 C   0  0  0  0  0  0  0  0  0  0  0  0
   -1.3292    5.7994   -2.8104 C   0  0  0  0  0  0  0  0  0  0  0  0
   -0.8502    4.6979   -2.0895 C   0  0  0  0  0  0  0  0  0  0  0  0
   -4.6346   -4.0025   -2.9174 H   0  0  0  0  0  0  0  0  0  0  0  0
   -5.3067   -2.4101   -2.4163 H   0  0  0  0  0  0  0  0  0  0  0  0
   -7.2082   -3.5275   -1.8751 H   0  0  0  0  0  0  0  0  0  0  0  0
   -6.5333   -4.9470   -2.4269 H   0  0  0  0  0  0  0  0  0  0  0  0
   -3.6006   -1.4851   -1.3177 H   0  0  0  0  0  0  0  0  0  0  0  0
   -1.3589   -3.5297    1.5912 H   0  0  0  0  0  0  0  0  0  0  0  0
   -2.7575   -5.5120    1.3334 H   0  0  0  0  0  0  0  0  0  0  0  0
   -4.7542   -6.5710    0.1508 H   0  0  0  0  0  0  0  0  0  0  0  0
   -3.6019    0.2931    0.6397 H   0  0  0  0  0  0  0  0  0  0  0  0
   -2.8694    1.8622    0.8995 H   0  0  0  0  0  0  0  0  0  0  0  0
   -3.7695   -1.3433    2.4625 H   0  0  0  0  0  0  0  0  0  0  0  0
   -4.6013   -1.4663    4.7175 H   0  0  0  0  0  0  0  0  0  0  0  0
   -4.4297    0.4067    6.2600 H   0  0  0  0  0  0  0  0  0  0  0  0
   -3.3744    2.4960    5.5176 H   0  0  0  0  0  0  0  0  0  0  0  0
   -2.2765    3.7252    3.9963 H   0  0  0  0  0  0  0  0  0  0  0  0
   -2.5078    3.4818    2.2384 H   0  0  0  0  0  0  0  0  0  0  0  0
   -1.1278    2.6580    3.1335 H   0  0  0  0  0  0  0  0  0  0  0  0
   -0.1250    1.4535    1.3152 H   0  0  0  0  0  0  0  0  0  0  0  0
   -1.6497    2.7407    0.0682 H   0  0  0  0  0  0  0  0  0  0  0  0
    0.0743    2.9234   -0.0492 H   0  0  0  0  0  0  0  0  0  0  0  0
   -0.7936    1.1129   -3.5488 H   0  0  0  0  0  0  0  0  0  0  0  0
    0.8632    1.3654   -2.8366 H   0  0  0  0  0  0  0  0  0  0  0  0
   -1.3925   -0.1210   -1.6099 H   0  0  0  0  0  0  0  0  0  0  0  0
    0.1612   -0.9089   -2.2442 H   0  0  0  0  0  0  0  0  0  0  0  0
    2.5604   -0.2493    1.3853 H   0  0  0  0  0  0  0  0  0  0  0  0
    2.9438    1.3757    0.5844 H   0  0  0  0  0  0  0  0  0  0  0  0
    5.6358    1.7077    1.2917 H   0  0  0  0  0  0  0  0  0  0  0  0
    6.1473    2.0914   -0.4184 H   0  0  0  0  0  0  0  0  0  0  0  0
    9.2914   -0.2994    2.2350 H   0  0  0  0  0  0  0  0  0  0  0  0
    9.9684   -2.6321    2.1058 H   0  0  0  0  0  0  0  0  0  0  0  0
    8.8816   -4.1332    0.4318 H   0  0  0  0  0  0  0  0  0  0  0  0
    7.2124   -3.2316   -1.0570 H   0  0  0  0  0  0  0  0  0  0  0  0
    6.7202    0.1182   -1.7667 H   0  0  0  0  0  0  0  0  0  0  0  0
    5.6533   -1.3290   -1.7005 H   0  0  0  0  0  0  0  0  0  0  0  0
   -2.3894    2.2471   -3.7950 H   0  0  0  0  0  0  0  0  0  0  0  0
   -3.2028    4.1083   -5.0280 H   0  0  0  0  0  0  0  0  0  0  0  0
   -2.5465    6.4567   -4.4352 H   0  0  0  0  0  0  0  0  0  0  0  0
   -1.0674    6.8162   -2.5865 H   0  0  0  0  0  0  0  0  0  0  0  0
   -0.1781    4.8696   -1.2597 H   0  0  0  0  0  0  0  0  0  0  0  0
  1  2  1  0
  1  3  1  0
  3  4  2  0
  4  5  1  0
  5  6  2  0
  6  7  1  0
  7  8  2  0
  8  9  1  0
  5 10  1  0
 10 11  2  0
 10 12  1  0
 12 13  1  0
 13 14  1  0
 14 15  2  0
 15 16  1  0
 16 17  2  0
 17 18  1  0
 18 19  2  0
 19 20  1  0
 12 21  1  0
 21 22  1  0
 22 23  1  0
 23 24  1  0
 24 25  1  0
 25 26  1  0
 26 27  1  0
 27 28  2  0
 27 29  1  0
 29 30  1  0
 30 31  2  0
 30 32  1  0
 32 33  1  0
 33 34  1  0
 34 35  1  0
 35 36  2  0
 36 37  1  0
 37 38  2  0
 38 39  1  0
 39 40  2  0
 40 41  1  0
 23 42  1  0
 42 43  2  0
 43 44  1  0
 44 45  2  0
 45 46  1  0
 46 47  2  0
  8  3  1  0
 19 14  1  0
 26 21  1  0
 41 32  1  0
 47 42  1  0
 40 35  1  0
  1 48  1  0
  1 49  1  0
  2 50  1  0
  2 51  1  0
  4 52  1  0
  6 53  1  0
  7 54  1  0
  9 55  1  0
 13 56  1  0
 13 57  1  0
 15 58  1  0
 16 59  1  0
 17 60  1  0
 18 61  1  0
 20 62  1  0
 20 63  1  0
 20 64  1  0
 21 65  1  1
 22 66  1  0
 22 67  1  0
 24 68  1  0
 24 69  1  0
 25 70  1  0
 25 71  1  0
 29 72  1  0
 29 73  1  0
 33 74  1  0
 33 75  1  0
 36 76  1  0
 37 77  1  0
 38 78  1  0
 39 79  1  0
 41 80  1  0
 41 81  1  0
 43 82  1  0
 44 83  1  0
 45 84  1  0
 46 85  1  0
 47 86  1  0
M  END
$$$$
[H]C1=C(C(=O)N([H])[H])N([H])C(=O)c2c([H])c(nn2-c2sc(C([H])(C([H])([H])[H])C([H])([H])[H])c(C([H])([H])[H])c2[H])C(=O)N([H])c2nc([H])c([H])c([H])c2N([H])C([C@@]([H])(N2C([H])([H])C([H])([H])C([H])([H])C([H])([H])C2([H])[H])C([H])([H])[H])=C1[H]
     RDKit          3D

 78 82  0  0  0  0  0  0  0  0999 V2000
    3.9371   -0.6020   -2.1419 C   0  0  0  0  0  0  0  0  0  0  0  0
    2.8469    0.0468   -1.3170 C   0  0  2  0  0  0  0  0  0  0  0  0
    3.2119    1.2613   -0.7279 N   0  0  0  0  0  0  0  0  0  0  0  0
    3.4153    2.2877   -1.7804 C   0  0  0  0  0  0  0  0  0  0  0  0
    4.8622    2.5516   -2.0815 C   0  0  0  0  0  0  0  0  0  0  0  0
    5.5285    3.2588   -0.8969 C   0  0  0  0  0  0  0  0  0  0  0  0
    4.7511    2.7690    0.3249 C   0  0  0  0  0  0  0  0  0  0  0  0
    4.4449    1.2921    0.0374 C   0  0  0  0  0  0  0  0  0  0  0  0
    2.2215   -1.0466   -0.4577 C   0  0  0  0  0  0  0  0  0  0  0  0
    1.0771   -1.6054   -0.8950 C   0  0  0  0  0  0  0  0  0  0  0  0
    0.1040   -2.5664   -0.5799 C   0  0  0  0  0  0  0  0  0  0  0  0
   -0.7747   -3.4379   -0.2951 C   0  0  0  0  0  0  0  0  0  0  0  0
   -2.1874   -3.0600    0.0586 N   0  0  0  0  0  0  0  0  0  0  0  0
   -2.6415   -1.9207    0.7364 C   0  0  0  0  0  0  0  0  0  0  0  0
   -3.9210   -1.8397    0.9356 O   0  0  0  0  0  0  0  0  0  0  0  0
   -1.8783   -0.7578    1.2771 C   0  0  0  0  0  0  0  0  0  0  0  0
   -0.6933   -0.7412    1.9916 C   0  0  0  0  0  0  0  0  0  0  0  0
   -0.3254    0.5675    2.0462 C   0  0  0  0  0  0  0  0  0  0  0  0
   -1.2827    1.3105    1.3940 N   0  0  0  0  0  0  0  0  0  0  0  0
   -2.2297    0.5337    0.9261 N   0  0  0  0  0  0  0  0  0  0  0  0
   -3.4272    0.9854    0.2733 C   0  0  0  0  0  0  0  0  0  0  0  0
   -4.6744    1.0574    0.8499 C   0  0  0  0  0  0  0  0  0  0  0  0
   -5.6795    1.5034    0.0872 C   0  0  0  0  0  0  0  0  0  0  0  0
   -7.1130    1.6312    0.5949 C   0  0  0  0  0  0  0  0  0  0  0  0
   -5.3870    1.8530   -1.2055 C   0  0  0  0  0  0  0  0  0  0  0  0
   -3.6839    1.5291   -1.2829 S   0  0  0  0  0  0  0  0  0  0  0  0
   -6.3205    2.3796   -2.2642 C   0  0  0  0  0  0  0  0  0  0  0  0
   -5.5507    2.5848   -3.5524 C   0  0  0  0  0  0  0  0  0  0  0  0
   -7.4526    1.4276   -2.5616 C   0  0  0  0  0  0  0  0  0  0  0  0
    0.8810    1.2637    2.5337 C   0  0  0  0  0  0  0  0  0  0  0  0
    0.8875    2.5709    2.6084 O   0  0  0  0  0  0  0  0  0  0  0  0
    2.1036    0.7075    2.9538 N   0  0  0  0  0  0  0  0  0  0  0  0
    2.4893   -0.6793    3.0483 C   0  0  0  0  0  0  0  0  0  0  0  0
    2.4856   -1.1041    4.3819 N   0  0  0  0  0  0  0  0  0  0  0  0
    2.8080   -2.3229    4.7710 C   0  0  0  0  0  0  0  0  0  0  0  0
    3.1733   -3.2392    3.8181 C   0  0  0  0  0  0  0  0  0  0  0  0
    3.1896   -2.8546    2.5008 C   0  0  0  0  0  0  0  0  0  0  0  0
    2.8467   -1.5528    2.0555 C   0  0  0  0  0  0  0  0  0  0  0  0
    3.0094   -1.3893    0.6662 N   0  0  0  0  0  0  0  0  0  0  0  0
   -0.5527   -4.8877   -0.1486 C   0  0  0  0  0  0  0  0  0  0  0  0
    0.7043   -5.5049   -0.2520 N   0  0  0  0  0  0  0  0  0  0  0  0
   -1.5197   -5.6644    0.0872 O   0  0  0  0  0  0  0  0  0  0  0  0
    4.9193   -0.6357   -1.6813 H   0  0  0  0  0  0  0  0  0  0  0  0
    3.6758   -1.6696   -2.3679 H   0  0  0  0  0  0  0  0  0  0  0  0
    4.0544   -0.1080   -3.1518 H   0  0  0  0  0  0  0  0  0  0  0  0
    2.0918    0.3595   -2.1160 H   0  0  0  0  0  0  0  0  0  0  0  0
    2.9510    1.9398   -2.7301 H   0  0  0  0  0  0  0  0  0  0  0  0
    2.9600    3.2281   -1.4398 H   0  0  0  0  0  0  0  0  0  0  0  0
    5.4363    1.6458   -2.4037 H   0  0  0  0  0  0  0  0  0  0  0  0
    4.8851    3.2575   -2.9162 H   0  0  0  0  0  0  0  0  0  0  0  0
    5.4705    4.3555   -1.0074 H   0  0  0  0  0  0  0  0  0  0  0  0
    6.5562    2.8922   -0.8287 H   0  0  0  0  0  0  0  0  0  0  0  0
    5.3526    2.8699    1.2361 H   0  0  0  0  0  0  0  0  0  0  0  0
    3.7952    3.3255    0.3955 H   0  0  0  0  0  0  0  0  0  0  0  0
    4.3620    0.8071    1.0135 H   0  0  0  0  0  0  0  0  0  0  0  0
    5.3312    0.9181   -0.5369 H   0  0  0  0  0  0  0  0  0  0  0  0
    0.7973   -1.0787   -1.9021 H   0  0  0  0  0  0  0  0  0  0  0  0
    0.8864   -3.5805   -1.1599 H   0  0  0  0  0  0  0  0  0  0  0  0
   -2.8872   -3.7643   -0.2616 H   0  0  0  0  0  0  0  0  0  0  0  0
   -0.1627   -1.6429    2.4852 H   0  0  0  0  0  0  0  0  0  0  0  0
   -4.8197    0.7453    1.9202 H   0  0  0  0  0  0  0  0  0  0  0  0
   -7.1666    1.4548    1.6920 H   0  0  0  0  0  0  0  0  0  0  0  0
   -7.3952    2.6668    0.3906 H   0  0  0  0  0  0  0  0  0  0  0  0
   -7.7323    0.8524    0.1274 H   0  0  0  0  0  0  0  0  0  0  0  0
   -6.7504    3.3203   -1.8669 H   0  0  0  0  0  0  0  0  0  0  0  0
   -6.1852    2.4582   -4.4423 H   0  0  0  0  0  0  0  0  0  0  0  0
   -5.0339    3.5500   -3.5567 H   0  0  0  0  0  0  0  0  0  0  0  0
   -4.7566    1.7904   -3.6276 H   0  0  0  0  0  0  0  0  0  0  0  0
   -8.3536    1.7583   -1.9783 H   0  0  0  0  0  0  0  0  0  0  0  0
   -7.7615    1.4597   -3.6392 H   0  0  0  0  0  0  0  0  0  0  0  0
   -7.2565    0.3872   -2.2982 H   0  0  0  0  0  0  0  0  0  0  0  0
    2.8740    1.3875    3.2717 H   0  0  0  0  0  0  0  0  0  0  0  0
    2.7933   -2.6143    5.8296 H   0  0  0  0  0  0  0  0  0  0  0  0
    3.4439   -4.2607    4.0689 H   0  0  0  0  0  0  0  0  0  0  0  0
    3.5157   -3.6367    1.7865 H   0  0  0  0  0  0  0  0  0  0  0  0
    4.0642   -1.5987    0.3215 H   0  0  0  0  0  0  0  0  0  0  0  0
    1.0132   -6.0416   -1.0750 H   0  0  0  0  0  0  0  0  0  0  0  0
    1.3484   -5.3934    0.5689 H   0  0  0  0  0  0  0  0  0  0  0  0
  1  2  1  0
  2  3  1  0
  3  4  1  0
  4  5  1  0
  5  6  1  0
  6  7  1  0
  7  8  1  0
  2  9  1  0
  9 10  2  0
 10 11  1  0
 11 12  2  0
 12 13  1  0
 13 14  1  0
 14 15  2  0
 14 16  1  0
 16 17  2  0
 17 18  1  0
 18 19  2  0
 19 20  1  0
 20 21  1  0
 21 22  2  0
 22 23  1  0
 23 24  1  0
 23 25  2  0
 25 26  1  0
 25 27  1  0
 27 28  1  0
 27 29  1  0
 18 30  1  0
 30 31  2  0
 30 32  1  0
 32 33  1  0
 33 34  2  0
 34 35  1  0
 35 36  2  0
 36 37  1  0
 37 38  2  0
 38 39  1  0
 12 40  1  0
 40 41  1  0
 40 42  2  0
  8  3  1  0
 39  9  1  0
 20 16  1  0
 26 21  1  0
 38 33  1  0
  1 43  1  0
  1 44  1  0
  1 45  1  0
  2 46  1  6
  4 47  1  0
  4 48  1  0
  5 49  1  0
  5 50  1  0
  6 51  1  0
  6 52  1  0
  7 53  1  0
  7 54  1  0
  8 55  1  0
  8 56  1  0
 10 57  1  0
 11 58  1  0
 13 59  1  0
 17 60  1  0
 22 61  1  0
 24 62  1  0
 24 63  1  0
 24 64  1  0
 27 65  1  0
 28 66  1  0
 28 67  1  0
 28 68  1  0
 29 69  1  0
 29 70  1  0
 29 71  1  0
 32 72  1  0
 35 73  1  0
 36 74  1  0
 37 75  1  0
 39 76  1  0
 41 77  1  0
 41 78  1  0
M  END
$$$$
[H]c1c([H])c(OC(F)(F)F)c([H])c(N([H])c2nc(-c3c([C@@]4([H])C([H])([H])C([H])([H])C(C([H])([H])[H])(C([H])([H])[H])C4([H])[H])c([H])c4c(nc(-c5c([H])c([H])c([H])c(C(F)(F)F)c5[H])n4[H])c3[H])ns2)c1[H]
     RDKit          3D

 68 73  0  0  0  0  0  0  0  0999 V2000
   -2.1340    4.8028    0.5593 C   0  0  0  0  0  0  0  0  0  0  0  0
   -0.7533    4.6917   -0.1212 C   0  0  0  0  0  0  0  0  0  0  0  0
    0.0379    5.9278    0.3296 C   0  0  0  0  0  0  0  0  0  0  0  0
   -0.9094    4.7585   -1.6001 C   0  0  0  0  0  0  0  0  0  0  0  0
   -0.7042    3.3797   -2.1202 C   0  0  0  0  0  0  0  0  0  0  0  0
   -0.0490    2.5334   -1.0672 C   0  0  1  0  0  0  0  0  0  0  0  0
   -0.0441    3.4202    0.1909 C   0  0  0  0  0  0  0  0  0  0  0  0
   -0.7806    1.2766   -0.8171 C   0  0  0  0  0  0  0  0  0  0  0  0
   -2.1864    1.2105   -0.9656 C   0  0  0  0  0  0  0  0  0  0  0  0
   -2.9030    0.0689   -0.6822 C   0  0  0  0  0  0  0  0  0  0  0  0
   -4.2187   -0.2888   -0.7366 N   0  0  0  0  0  0  0  0  0  0  0  0
   -4.3664   -1.5466   -0.3554 C   0  0  0  0  0  0  0  0  0  0  0  0
   -3.1040   -2.0086   -0.0440 N   0  0  0  0  0  0  0  0  0  0  0  0
   -2.2118   -1.0328   -0.2430 C   0  0  0  0  0  0  0  0  0  0  0  0
   -0.8560   -1.0010   -0.0895 C   0  0  0  0  0  0  0  0  0  0  0  0
   -0.1102    0.1777   -0.3817 C   0  0  0  0  0  0  0  0  0  0  0  0
    1.3325   -0.0337   -0.3091 C   0  0  0  0  0  0  0  0  0  0  0  0
    1.7769   -1.1377   -1.0579 N   0  0  0  0  0  0  0  0  0  0  0  0
    3.3496   -1.3023   -0.6026 S   0  0  0  0  0  0  0  0  0  0  0  0
    3.4450    0.0230    0.5264 C   0  0  0  0  0  0  0  0  0  0  0  0
    4.5896    0.2854    1.3702 N   0  0  0  0  0  0  0  0  0  0  0  0
    5.5777   -0.7345    1.3770 C   0  0  0  0  0  0  0  0  0  0  0  0
    5.4651   -1.7266    2.3309 C   0  0  0  0  0  0  0  0  0  0  0  0
    6.3159   -2.8329    2.3620 C   0  0  0  0  0  0  0  0  0  0  0  0
    7.3074   -2.9517    1.4181 C   0  0  0  0  0  0  0  0  0  0  0  0
    7.4284   -1.9608    0.4624 C   0  0  0  0  0  0  0  0  0  0  0  0
    8.4226   -2.0869   -0.4897 O   0  0  0  0  0  0  0  0  0  0  0  0
    9.7264   -1.5790   -0.2664 C   0  0  0  0  0  0  0  0  0  0  0  0
    9.6758   -0.2350   -0.0258 F   0  0  0  0  0  0  0  0  0  0  0  0
   10.5005   -1.7378   -1.4356 F   0  0  0  0  0  0  0  0  0  0  0  0
   10.4007   -2.2920    0.7001 F   0  0  0  0  0  0  0  0  0  0  0  0
    6.5596   -0.8630    0.4588 C   0  0  0  0  0  0  0  0  0  0  0  0
    2.2246    0.4917    0.4539 N   0  0  0  0  0  0  0  0  0  0  0  0
   -5.5387   -2.4286   -0.2416 C   0  0  0  0  0  0  0  0  0  0  0  0
   -6.7915   -2.1113   -0.6705 C   0  0  0  0  0  0  0  0  0  0  0  0
   -7.8262   -3.0376   -0.5283 C   0  0  0  0  0  0  0  0  0  0  0  0
   -7.6579   -4.2769    0.0323 C   0  0  0  0  0  0  0  0  0  0  0  0
   -6.3776   -4.5690    0.4644 C   0  0  0  0  0  0  0  0  0  0  0  0
   -5.3426   -3.6779    0.3342 C   0  0  0  0  0  0  0  0  0  0  0  0
   -6.0678   -5.9190    1.0888 C   0  0  0  0  0  0  0  0  0  0  0  0
   -5.7687   -5.7624    2.4571 F   0  0  0  0  0  0  0  0  0  0  0  0
   -7.1540   -6.7331    1.0152 F   0  0  0  0  0  0  0  0  0  0  0  0
   -4.9566   -6.3909    0.4040 F   0  0  0  0  0  0  0  0  0  0  0  0
   -2.0451    4.9215    1.6365 H   0  0  0  0  0  0  0  0  0  0  0  0
   -2.5857    5.7587    0.0853 H   0  0  0  0  0  0  0  0  0  0  0  0
   -2.7366    3.9580    0.2336 H   0  0  0  0  0  0  0  0  0  0  0  0
   -0.6983    6.8037    0.2925 H   0  0  0  0  0  0  0  0  0  0  0  0
    0.4377    5.8265    1.3350 H   0  0  0  0  0  0  0  0  0  0  0  0
    0.8684    6.1388   -0.3813 H   0  0  0  0  0  0  0  0  0  0  0  0
   -0.1829    5.5059   -2.0399 H   0  0  0  0  0  0  0  0  0  0  0  0
   -1.9130    5.1780   -1.9235 H   0  0  0  0  0  0  0  0  0  0  0  0
   -0.0158    3.4797   -3.0289 H   0  0  0  0  0  0  0  0  0  0  0  0
   -1.6232    3.0184   -2.5371 H   0  0  0  0  0  0  0  0  0  0  0  0
    0.9929    2.3749   -1.3262 H   0  0  0  0  0  0  0  0  0  0  0  0
   -0.4713    2.8895    1.0758 H   0  0  0  0  0  0  0  0  0  0  0  0
    0.9939    3.7066    0.4996 H   0  0  0  0  0  0  0  0  0  0  0  0
   -2.6824    2.1126   -1.2892 H   0  0  0  0  0  0  0  0  0  0  0  0
   -5.0057    0.3638   -1.0268 H   0  0  0  0  0  0  0  0  0  0  0  0
   -0.3327   -1.8877    0.2514 H   0  0  0  0  0  0  0  0  0  0  0  0
    4.6556    1.1306    1.9069 H   0  0  0  0  0  0  0  0  0  0  0  0
    4.6877   -1.6348    3.0721 H   0  0  0  0  0  0  0  0  0  0  0  0
    6.2151   -3.5996    3.1147 H   0  0  0  0  0  0  0  0  0  0  0  0
    8.0038   -3.8020    1.4134 H   0  0  0  0  0  0  0  0  0  0  0  0
    6.6908   -0.1046   -0.3157 H   0  0  0  0  0  0  0  0  0  0  0  0
   -6.9706   -1.1313   -1.1304 H   0  0  0  0  0  0  0  0  0  0  0  0
   -8.8139   -2.8008   -0.8574 H   0  0  0  0  0  0  0  0  0  0  0  0
   -8.4333   -5.0165    0.1672 H   0  0  0  0  0  0  0  0  0  0  0  0
   -4.3586   -3.9792    0.7032 H   0  0  0  0  0  0  0  0  0  0  0  0
  1  2  1  0
  2  3  1  0
  2  4  1  0
  4  5  1  0
  5  6  1  0
  6  7  1  0
  6  8  1  0
  8  9  2  0
  9 10  1  0
 10 11  1  0
 11 12  1  0
 12 13  2  0
 13 14  1  0
 14 15  1  0
 15 16  2  0
 16 17  1  0
 17 18  2  0
 18 19  1  0
 19 20  1  0
 20 21  1  0
 21 22  1  0
 22 23  2  0
 23 24  1  0
 24 25  2  0
 25 26  1  0
 26 27  1  0
 27 28  1  0
 28 29  1  0
 28 30  1  0
 28 31  1  0
 26 32  2  0
 20 33  2  0
 12 34  1  0
 34 35  2  0
 35 36  1  0
 36 37  2  0
 37 38  1  0
 38 39  2  0
 38 40  1  0
 40 41  1  0
 40 42  1  0
 40 43  1  0
  7  2  1  0
 16  8  1  0
 33 17  1  0
 39 34  1  0
 14 10  2  0
 32 22  1  0
  1 44  1  0
  1 45  1  0
  1 46  1  0
  3 47  1  0
  3 48  1  0
  3 49  1  0
  4 50  1  0
  4 51  1  0
  5 52  1  0
  5 53  1  0
  6 54  1  6
  7 55  1  0
  7 56  1  0
  9 57  1  0
 11 58  1  0
 15 59  1  0
 21 60  1  0
 23 61  1  0
 24 62  1  0
 25 63  1  0
 32 64  1  0
 35 65  1  0
 36 66  1  0
 37 67  1  0
 39 68  1  0
M  END
$$$$
[H]OC(=O)C(O[C@@]1([H])OC([H])([H])c2c([H])c([H])c(OC([H])([H])[H])c([H])c2OC1(C([H])([H])[H])C([H])([H])[H])(C([H])([H])[H])C([H])([H])[H]
     RDKit          3D

 44 45  0  0  0  0  0  0  0  0999 V2000
    6.7858   -0.1734    0.5880 C   0  0  0  0  0  0  0  0  0  0  0  0
    5.6688    0.2966   -0.1180 O   0  0  0  0  0  0  0  0  0  0  0  0
    4.3779   -0.1253    0.1193 C   0  0  0  0  0  0  0  0  0  0  0  0
    4.0944   -1.0591    1.0893 C   0  0  0  0  0  0  0  0  0  0  0  0
    2.7855   -1.4984    1.3423 C   0  0  0  0  0  0  0  0  0  0  0  0
    1.8144   -0.9514    0.5776 C   0  0  0  0  0  0  0  0  0  0  0  0
    0.4770   -1.4995    0.9314 C   0  0  0  0  0  0  0  0  0  0  0  0
   -0.3663   -1.4442   -0.2074 O   0  0  0  0  0  0  0  0  0  0  0  0
   -1.0814   -0.2412   -0.2768 C   0  0  2  0  0  0  0  0  0  0  0  0
   -2.2338   -0.3402   -0.9677 O   0  0  0  0  0  0  0  0  0  0  0  0
   -3.4467   -0.2628   -0.4367 C   0  0  0  0  0  0  0  0  0  0  0  0
   -3.6472    1.0662    0.2628 C   0  0  0  0  0  0  0  0  0  0  0  0
   -4.4686   -0.2087   -1.6073 C   0  0  0  0  0  0  0  0  0  0  0  0
   -3.8496   -1.2887    0.5184 C   0  0  0  0  0  0  0  0  0  0  0  0
   -5.0967   -1.2361    1.0996 O   0  0  0  0  0  0  0  0  0  0  0  0
   -3.0779   -2.2158    0.8171 O   0  0  0  0  0  0  0  0  0  0  0  0
    2.0427   -0.0180   -0.4011 C   0  0  0  0  0  0  0  0  0  0  0  0
    1.0585    0.5521   -1.1924 O   0  0  0  0  0  0  0  0  0  0  0  0
   -0.2788    0.8907   -0.8514 C   0  0  0  0  0  0  0  0  0  0  0  0
   -0.3159    2.0527    0.1043 C   0  0  0  0  0  0  0  0  0  0  0  0
   -0.9282    1.3472   -2.1638 C   0  0  0  0  0  0  0  0  0  0  0  0
    3.3228    0.3851   -0.6199 C   0  0  0  0  0  0  0  0  0  0  0  0
    7.0985   -1.1718    0.1802 H   0  0  0  0  0  0  0  0  0  0  0  0
    6.5171   -0.2726    1.6796 H   0  0  0  0  0  0  0  0  0  0  0  0
    7.6475    0.5191    0.5293 H   0  0  0  0  0  0  0  0  0  0  0  0
    4.8836   -1.4918    1.6978 H   0  0  0  0  0  0  0  0  0  0  0  0
    2.6222   -2.2381    2.1213 H   0  0  0  0  0  0  0  0  0  0  0  0
    0.0879   -0.9007    1.7631 H   0  0  0  0  0  0  0  0  0  0  0  0
    0.5743   -2.5634    1.1973 H   0  0  0  0  0  0  0  0  0  0  0  0
   -1.3263   -0.0077    0.7819 H   0  0  0  0  0  0  0  0  0  0  0  0
   -3.0394    1.0298    1.2009 H   0  0  0  0  0  0  0  0  0  0  0  0
   -3.4022    1.9416   -0.3391 H   0  0  0  0  0  0  0  0  0  0  0  0
   -4.7082    1.1285    0.6523 H   0  0  0  0  0  0  0  0  0  0  0  0
   -5.4837   -0.0241   -1.1861 H   0  0  0  0  0  0  0  0  0  0  0  0
   -4.2106    0.6972   -2.1863 H   0  0  0  0  0  0  0  0  0  0  0  0
   -4.3962   -1.0992   -2.2303 H   0  0  0  0  0  0  0  0  0  0  0  0
   -5.6785   -2.0841    1.0171 H   0  0  0  0  0  0  0  0  0  0  0  0
   -0.6574    1.6890    1.0862 H   0  0  0  0  0  0  0  0  0  0  0  0
   -1.0666    2.7778   -0.2564 H   0  0  0  0  0  0  0  0  0  0  0  0
    0.6601    2.5821    0.1631 H   0  0  0  0  0  0  0  0  0  0  0  0
   -1.4340    0.4908   -2.6293 H   0  0  0  0  0  0  0  0  0  0  0  0
   -0.1528    1.7132   -2.8696 H   0  0  0  0  0  0  0  0  0  0  0  0
   -1.6729    2.1342   -1.9804 H   0  0  0  0  0  0  0  0  0  0  0  0
    3.5009    1.1223   -1.3935 H   0  0  0  0  0  0  0  0  0  0  0  0
  1  2  1  0
  2  3  1  0
  3  4  2  0
  4  5  1  0
  5  6  2  0
  6  7  1  0
  7  8  1  0
  8  9  1  0
  9 10  1  0
 10 11  1  0
 11 12  1  0
 11 13  1  0
 11 14  1  0
 14 15  1  0
 14 16  2  0
  6 17  1  0
 17 18  1  0
 18 19  1  0
 19 20  1  0
 19 21  1  0
 17 22  2  0
 22  3  1  0
 19  9  1  0
  1 23  1  0
  1 24  1  0
  1 25  1  0
  4 26  1  0
  5 27  1  0
  7 28  1  0
  7 29  1  0
  9 30  1  1
 12 31  1  0
 12 32  1  0
 12 33  1  0
 13 34  1  0
 13 35  1  0
 13 36  1  0
 15 37  1  0
 20 38  1  0
 20 39  1  0
 20 40  1  0
 21 41  1  0
 21 42  1  0
 21 43  1  0
 22 44  1  0
M  END
$$$$
[H]c1c([H])c(-c2c(-c3c([H])c(Cl)c([H])c(C([H])([H])[H])c3[H])nc(C3([H])C([H])([H])C([H])([H])N([C@]4([H])C([H])([H])C([H])([H])[C@]([H])(N([H])C(=O)OC(C([H])([H])[H])(C([H])([H])[H])C([H])([H])[H])C([H])([H])C4([H])[H])C([H])([H])C3([H])[H])n2[H])c([H])c([H])c1F
     RDKit          3D

 80 84  0  0  0  0  0  0  0  0999 V2000
   10.1437    1.5533   -0.4664 C   0  0  0  0  0  0  0  0  0  0  0  0
    9.7632    0.1090   -0.4422 C   0  0  0  0  0  0  0  0  0  0  0  0
   10.3728   -0.5855   -1.6389 C   0  0  0  0  0  0  0  0  0  0  0  0
   10.2051   -0.5892    0.8244 C   0  0  0  0  0  0  0  0  0  0  0  0
    8.3628   -0.0022   -0.5528 O   0  0  0  0  0  0  0  0  0  0  0  0
    7.4758    0.5400    0.3382 C   0  0  0  0  0  0  0  0  0  0  0  0
    7.9692    1.1786    1.3165 O   0  0  0  0  0  0  0  0  0  0  0  0
    6.0781    0.3877    0.1645 N   0  0  0  0  0  0  0  0  0  0  0  0
    5.0927    0.9546    1.0992 C   0  0  1  0  0  0  0  0  0  0  0  0
    4.2378    1.8927    0.3354 C   0  0  0  0  0  0  0  0  0  0  0  0
    2.9875    1.3293   -0.2504 C   0  0  0  0  0  0  0  0  0  0  0  0
    2.2869    0.5137    0.8139 C   0  0  2  0  0  0  0  0  0  0  0  0
    3.1568   -0.6746    1.0765 C   0  0  0  0  0  0  0  0  0  0  0  0
    4.4209   -0.2014    1.7503 C   0  0  0  0  0  0  0  0  0  0  0  0
    0.9422    0.2600    0.5465 N   0  0  0  0  0  0  0  0  0  0  0  0
    0.0660    1.3700    0.4634 C   0  0  0  0  0  0  0  0  0  0  0  0
   -1.2947    0.9449    0.9780 C   0  0  0  0  0  0  0  0  0  0  0  0
   -1.6300   -0.4730    0.6221 C   0  0  0  0  0  0  0  0  0  0  0  0
   -0.8504   -0.9800   -0.5666 C   0  0  0  0  0  0  0  0  0  0  0  0
    0.6424   -0.7913   -0.3810 C   0  0  0  0  0  0  0  0  0  0  0  0
   -3.0907   -0.5561    0.3546 C   0  0  0  0  0  0  0  0  0  0  0  0
   -3.8133    0.1111   -0.5621 N   0  0  0  0  0  0  0  0  0  0  0  0
   -5.1167   -0.2187   -0.5204 C   0  0  0  0  0  0  0  0  0  0  0  0
   -5.2200   -1.1505    0.4844 C   0  0  0  0  0  0  0  0  0  0  0  0
   -3.9995   -1.3447    1.0014 N   0  0  0  0  0  0  0  0  0  0  0  0
   -6.4807   -1.7824    0.8721 C   0  0  0  0  0  0  0  0  0  0  0  0
   -7.0033   -1.6424    2.1384 C   0  0  0  0  0  0  0  0  0  0  0  0
   -8.1939   -2.2595    2.4499 C   0  0  0  0  0  0  0  0  0  0  0  0
   -8.8835   -3.0184    1.5284 C   0  0  0  0  0  0  0  0  0  0  0  0
  -10.0564   -3.6236    1.8439 F   0  0  0  0  0  0  0  0  0  0  0  0
   -8.3378   -3.1394    0.2773 C   0  0  0  0  0  0  0  0  0  0  0  0
   -7.1654   -2.5420   -0.0585 C   0  0  0  0  0  0  0  0  0  0  0  0
   -6.1939    0.3050   -1.3713 C   0  0  0  0  0  0  0  0  0  0  0  0
   -7.2272    0.9748   -0.7819 C   0  0  0  0  0  0  0  0  0  0  0  0
   -8.2744    1.4948   -1.5402 C   0  0  0  0  0  0  0  0  0  0  0  0
   -9.4025    2.2198   -0.9252 C   0  0  0  0  0  0  0  0  0  0  0  0
   -8.2610    1.3268   -2.9089 C   0  0  0  0  0  0  0  0  0  0  0  0
   -7.2230    0.6528   -3.5144 C   0  0  0  0  0  0  0  0  0  0  0  0
   -7.2171    0.4466   -5.2559 Cl  0  0  0  0  0  0  0  0  0  0  0  0
   -6.2072    0.1525   -2.7417 C   0  0  0  0  0  0  0  0  0  0  0  0
   11.1456    1.7163   -0.9334 H   0  0  0  0  0  0  0  0  0  0  0  0
    9.4115    2.0984   -1.0956 H   0  0  0  0  0  0  0  0  0  0  0  0
   10.1580    2.0311    0.5319 H   0  0  0  0  0  0  0  0  0  0  0  0
   11.4894   -0.5387   -1.5448 H   0  0  0  0  0  0  0  0  0  0  0  0
   10.0237   -0.1392   -2.5802 H   0  0  0  0  0  0  0  0  0  0  0  0
   10.0092   -1.6360   -1.6177 H   0  0  0  0  0  0  0  0  0  0  0  0
    9.3172   -0.8953    1.4326 H   0  0  0  0  0  0  0  0  0  0  0  0
   10.7319   -1.5241    0.5603 H   0  0  0  0  0  0  0  0  0  0  0  0
   10.8518    0.0836    1.4010 H   0  0  0  0  0  0  0  0  0  0  0  0
    5.7266   -0.1431   -0.6518 H   0  0  0  0  0  0  0  0  0  0  0  0
    5.7228    1.4967    1.8731 H   0  0  0  0  0  0  0  0  0  0  0  0
    4.7886    2.4543   -0.4540 H   0  0  0  0  0  0  0  0  0  0  0  0
    3.9103    2.7041    1.0536 H   0  0  0  0  0  0  0  0  0  0  0  0
    3.2735    0.6644   -1.0901 H   0  0  0  0  0  0  0  0  0  0  0  0
    2.3048    2.1136   -0.6359 H   0  0  0  0  0  0  0  0  0  0  0  0
    2.3402    1.1483    1.7490 H   0  0  0  0  0  0  0  0  0  0  0  0
    2.7019   -1.4570    1.6823 H   0  0  0  0  0  0  0  0  0  0  0  0
    3.4612   -1.1231    0.1091 H   0  0  0  0  0  0  0  0  0  0  0  0
    5.1398   -1.0581    1.9095 H   0  0  0  0  0  0  0  0  0  0  0  0
    4.1781    0.1232    2.8065 H   0  0  0  0  0  0  0  0  0  0  0  0
    0.4254    2.2260    1.0232 H   0  0  0  0  0  0  0  0  0  0  0  0
   -0.0692    1.6072   -0.6331 H   0  0  0  0  0  0  0  0  0  0  0  0
   -1.2924    1.0621    2.0910 H   0  0  0  0  0  0  0  0  0  0  0  0
   -2.0258    1.6879    0.5987 H   0  0  0  0  0  0  0  0  0  0  0  0
   -1.4090   -1.1581    1.4658 H   0  0  0  0  0  0  0  0  0  0  0  0
   -1.0927   -2.0500   -0.7080 H   0  0  0  0  0  0  0  0  0  0  0  0
   -1.2113   -0.4324   -1.4590 H   0  0  0  0  0  0  0  0  0  0  0  0
    1.1050   -1.7565   -0.1427 H   0  0  0  0  0  0  0  0  0  0  0  0
    1.0392   -0.4785   -1.3703 H   0  0  0  0  0  0  0  0  0  0  0  0
   -3.7541   -1.9997    1.7867 H   0  0  0  0  0  0  0  0  0  0  0  0
   -6.4575   -1.0394    2.8723 H   0  0  0  0  0  0  0  0  0  0  0  0
   -8.6093   -2.1506    3.4474 H   0  0  0  0  0  0  0  0  0  0  0  0
   -8.8385   -3.7256   -0.4885 H   0  0  0  0  0  0  0  0  0  0  0  0
   -6.7123   -2.6282   -1.0587 H   0  0  0  0  0  0  0  0  0  0  0  0
   -7.2793    1.1290    0.2792 H   0  0  0  0  0  0  0  0  0  0  0  0
  -10.3410    1.8942   -1.4016 H   0  0  0  0  0  0  0  0  0  0  0  0
   -9.2997    3.3103   -1.0147 H   0  0  0  0  0  0  0  0  0  0  0  0
   -9.4817    1.9008    0.1537 H   0  0  0  0  0  0  0  0  0  0  0  0
   -9.0568    1.7202   -3.5127 H   0  0  0  0  0  0  0  0  0  0  0  0
   -5.3863   -0.3815   -3.2346 H   0  0  0  0  0  0  0  0  0  0  0  0
  1  2  1  0
  2  3  1  0
  2  4  1  0
  2  5  1  0
  5  6  1  0
  6  7  2  0
  6  8  1  0
  8  9  1  0
  9 10  1  0
 10 11  1  0
 11 12  1  0
 12 13  1  0
 13 14  1  0
 12 15  1  0
 15 16  1  0
 16 17  1  0
 17 18  1  0
 18 19  1  0
 19 20  1  0
 18 21  1  0
 21 22  2  0
 22 23  1  0
 23 24  2  0
 24 25  1  0
 24 26  1  0
 26 27  2  0
 27 28  1  0
 28 29  2  0
 29 30  1  0
 29 31  1  0
 31 32  2  0
 23 33  1  0
 33 34  2  0
 34 35  1  0
 35 36  1  0
 35 37  2  0
 37 38  1  0
 38 39  1  0
 38 40  2  0
 14  9  1  0
 20 15  1  0
 25 21  1  0
 32 26  1  0
 40 33  1  0
  1 41  1  0
  1 42  1  0
  1 43  1  0
  3 44  1  0
  3 45  1  0
  3 46  1  0
  4 47  1  0
  4 48  1  0
  4 49  1  0
  8 50  1  0
  9 51  1  1
 10 52  1  0
 10 53  1  0
 11 54  1  0
 11 55  1  0
 12 56  1  1
 13 57  1  0
 13 58  1  0
 14 59  1  0
 14 60  1  0
 16 61  1  0
 16 62  1  0
 17 63  1  0
 17 64  1  0
 18 65  1  0
 19 66  1  0
 19 67  1  0
 20 68  1  0
 20 69  1  0
 25 70  1  0
 27 71  1  0
 28 72  1  0
 31 73  1  0
 32 74  1  0
 34 75  1  0
 36 76  1  0
 36 77  1  0
 36 78  1  0
 37 79  1  0
 40 80  1  0
M  END
$$$$
[H]OC(=O)c1c([H])c([H])c2nc(C([H])([H])c3c([H])c([H])c([H])c([H])c3[H])sc2c1[H]
     RDKit          3D

 30 32  0  0  0  0  0  0  0  0999 V2000
    5.8649    0.9532    1.3706 O   0  0  0  0  0  0  0  0  0  0  0  0
    5.3813   -0.2899    1.0127 C   0  0  0  0  0  0  0  0  0  0  0  0
    6.1473   -1.2752    1.1724 O   0  0  0  0  0  0  0  0  0  0  0  0
    4.0588   -0.4733    0.4773 C   0  0  0  0  0  0  0  0  0  0  0  0
    3.5349   -1.6949    0.1069 C   0  0  0  0  0  0  0  0  0  0  0  0
    2.2772   -1.8861   -0.4046 C   0  0  0  0  0  0  0  0  0  0  0  0
    1.4279   -0.7746   -0.5791 C   0  0  0  0  0  0  0  0  0  0  0  0
    0.2148   -0.8083   -1.0517 N   0  0  0  0  0  0  0  0  0  0  0  0
   -0.4866    0.2992   -1.1696 C   0  0  0  0  0  0  0  0  0  0  0  0
   -1.8667    0.5278   -1.6705 C   0  0  0  0  0  0  0  0  0  0  0  0
   -2.8886    0.4502   -0.6462 C   0  0  0  0  0  0  0  0  0  0  0  0
   -3.5045   -0.7374   -0.3493 C   0  0  0  0  0  0  0  0  0  0  0  0
   -4.4815   -0.8463    0.6201 C   0  0  0  0  0  0  0  0  0  0  0  0
   -4.8603    0.2743    1.3227 C   0  0  0  0  0  0  0  0  0  0  0  0
   -4.2607    1.4844    1.0488 C   0  0  0  0  0  0  0  0  0  0  0  0
   -3.2693    1.5687    0.0576 C   0  0  0  0  0  0  0  0  0  0  0  0
    0.6043    1.4757   -0.5867 S   0  0  0  0  0  0  0  0  0  0  0  0
    1.9343    0.4434   -0.2159 C   0  0  0  0  0  0  0  0  0  0  0  0
    3.2234    0.6186    0.3055 C   0  0  0  0  0  0  0  0  0  0  0  0
    6.3859    1.5247    0.7206 H   0  0  0  0  0  0  0  0  0  0  0  0
    4.1859   -2.5812    0.2359 H   0  0  0  0  0  0  0  0  0  0  0  0
    1.9738   -2.8909   -0.6601 H   0  0  0  0  0  0  0  0  0  0  0  0
   -2.0448   -0.1409   -2.5459 H   0  0  0  0  0  0  0  0  0  0  0  0
   -1.8971    1.5689   -2.1069 H   0  0  0  0  0  0  0  0  0  0  0  0
   -3.2105   -1.6160   -0.8971 H   0  0  0  0  0  0  0  0  0  0  0  0
   -4.9289   -1.8232    0.8038 H   0  0  0  0  0  0  0  0  0  0  0  0
   -5.6283    0.1448    2.0725 H   0  0  0  0  0  0  0  0  0  0  0  0
   -4.5735    2.3523    1.6129 H   0  0  0  0  0  0  0  0  0  0  0  0
   -2.8113    2.5323   -0.1405 H   0  0  0  0  0  0  0  0  0  0  0  0
    3.4982    1.6195    0.5494 H   0  0  0  0  0  0  0  0  0  0  0  0
  1  2  1  0
  2  3  2  0
  2  4  1  0
  4  5  2  0
  5  6  1  0
  6  7  2  0
  7  8  1  0
  8  9  2  0
  9 10  1  0
 10 11  1  0
 11 12  2  0
 12 13  1  0
 13 14  2  0
 14 15  1  0
 15 16  2  0
  9 17  1  0
 17 18  1  0
 18 19  2  0
 19  4  1  0
 18  7  1  0
 16 11  1  0
  1 20  1  0
  5 21  1  0
  6 22  1  0
 10 23  1  0
 10 24  1  0
 12 25  1  0
 13 26  1  0
 14 27  1  0
 15 28  1  0
 16 29  1  0
 19 30  1  0
M  END
$$$$
[H]O[C@]([H])(C([H])([H])c1nc([H])c(OC([H])([H])[H])c([H])n1)C([H])([H])N1C([H])([H])C([H])([H])N(C(=O)[C@@]2([H])N(C(=O)[C@@]([H])(N([H])C(=O)[C@@]([H])(N([H])C(=O)C([H])([H])[H])C([H])([H])c3c([H])c([H])c(Cl)c([H])c3[H])C([H])([H])c3c([H])c([H])c([H])c([H])c3[H])C([H])([H])C([H])([H])C2([H])[H])C([H])([H])C1([H])[H]
     RDKit          3D

 97101  0  0  0  0  0  0  0  0999 V2000
   13.1119   -1.3021    2.0971 C   0  0  0  0  0  0  0  0  0  0  0  0
   12.1885   -2.2265    1.5648 O   0  0  0  0  0  0  0  0  0  0  0  0
   11.0057   -1.7617    1.0294 C   0  0  0  0  0  0  0  0  0  0  0  0
   10.7378   -0.4216    1.0184 C   0  0  0  0  0  0  0  0  0  0  0  0
    9.5898    0.0494    0.5007 N   0  0  0  0  0  0  0  0  0  0  0  0
    8.6701   -0.7813   -0.0220 C   0  0  0  0  0  0  0  0  0  0  0  0
    7.4386   -0.1624   -0.5632 C   0  0  0  0  0  0  0  0  0  0  0  0
    6.3655   -0.0588    0.5028 C   0  0  1  0  0  0  0  0  0  0  0  0
    6.8907    0.7305    1.5368 O   0  0  0  0  0  0  0  0  0  0  0  0
    5.1857    0.6624   -0.1263 C   0  0  0  0  0  0  0  0  0  0  0  0
    4.1402    0.9197    0.7981 N   0  0  0  0  0  0  0  0  0  0  0  0
    3.4880   -0.3074    1.2114 C   0  0  0  0  0  0  0  0  0  0  0  0
    1.9837   -0.0855    1.3010 C   0  0  0  0  0  0  0  0  0  0  0  0
    1.5267    0.2303   -0.0726 N   0  0  0  0  0  0  0  0  0  0  0  0
    2.2005    1.3287   -0.6865 C   0  0  0  0  0  0  0  0  0  0  0  0
    3.2308    1.8860    0.2984 C   0  0  0  0  0  0  0  0  0  0  0  0
    0.4948   -0.5723   -0.5986 C   0  0  0  0  0  0  0  0  0  0  0  0
    0.0747   -1.4619    0.1782 O   0  0  0  0  0  0  0  0  0  0  0  0
   -0.0615   -0.4316   -1.8918 C   0  0  2  0  0  0  0  0  0  0  0  0
   -0.0423    0.9298   -2.5617 C   0  0  0  0  0  0  0  0  0  0  0  0
   -0.9052    0.6461   -3.8164 C   0  0  0  0  0  0  0  0  0  0  0  0
   -1.2572   -0.8474   -3.6997 C   0  0  0  0  0  0  0  0  0  0  0  0
   -1.3998   -0.8398   -2.1939 N   0  0  0  0  0  0  0  0  0  0  0  0
   -2.6227   -1.1539   -1.6361 C   0  0  0  0  0  0  0  0  0  0  0  0
   -3.5624   -1.4345   -2.5346 O   0  0  0  0  0  0  0  0  0  0  0  0
   -3.1329   -1.2440   -0.2754 C   0  0  2  0  0  0  0  0  0  0  0  0
   -3.6235   -2.6106    0.1428 C   0  0  0  0  0  0  0  0  0  0  0  0
   -2.7110   -3.7186    0.1362 C   0  0  0  0  0  0  0  0  0  0  0  0
   -2.5228   -4.4522   -1.0139 C   0  0  0  0  0  0  0  0  0  0  0  0
   -1.6842   -5.5402   -1.0781 C   0  0  0  0  0  0  0  0  0  0  0  0
   -0.9987   -5.9190    0.0562 C   0  0  0  0  0  0  0  0  0  0  0  0
   -1.1593   -5.2117    1.2270 C   0  0  0  0  0  0  0  0  0  0  0  0
   -2.0030   -4.1285    1.2633 C   0  0  0  0  0  0  0  0  0  0  0  0
   -4.4395   -0.4892   -0.3365 N   0  0  0  0  0  0  0  0  0  0  0  0
   -4.6855    0.5679    0.5301 C   0  0  0  0  0  0  0  0  0  0  0  0
   -3.7741    0.8763    1.3753 O   0  0  0  0  0  0  0  0  0  0  0  0
   -5.9459    1.3455    0.5170 C   0  0  2  0  0  0  0  0  0  0  0  0
   -6.1363    2.0462   -0.8258 C   0  0  0  0  0  0  0  0  0  0  0  0
   -7.4103    2.7961   -0.7466 C   0  0  0  0  0  0  0  0  0  0  0  0
   -7.4200    4.0891   -0.2906 C   0  0  0  0  0  0  0  0  0  0  0  0
   -8.6049    4.7890   -0.2144 C   0  0  0  0  0  0  0  0  0  0  0  0
   -9.8108    4.2021   -0.5964 C   0  0  0  0  0  0  0  0  0  0  0  0
  -11.3188    5.0928   -0.4986 Cl  0  0  0  0  0  0  0  0  0  0  0  0
   -9.8021    2.9062   -1.0538 C   0  0  0  0  0  0  0  0  0  0  0  0
   -8.6082    2.2292   -1.1205 C   0  0  0  0  0  0  0  0  0  0  0  0
   -5.8707    2.3854    1.5312 N   0  0  0  0  0  0  0  0  0  0  0  0
   -6.8332    2.5025    2.5583 C   0  0  0  0  0  0  0  0  0  0  0  0
   -6.6643    3.6092    3.5560 C   0  0  0  0  0  0  0  0  0  0  0  0
   -7.8074    1.7328    2.6704 O   0  0  0  0  0  0  0  0  0  0  0  0
    8.9034   -2.1007   -0.0263 N   0  0  0  0  0  0  0  0  0  0  0  0
   10.0598   -2.6086    0.4923 C   0  0  0  0  0  0  0  0  0  0  0  0
   13.3837   -0.6130    1.2531 H   0  0  0  0  0  0  0  0  0  0  0  0
   12.5689   -0.7463    2.9053 H   0  0  0  0  0  0  0  0  0  0  0  0
   14.0333   -1.7813    2.4656 H   0  0  0  0  0  0  0  0  0  0  0  0
   11.4428    0.2907    1.4253 H   0  0  0  0  0  0  0  0  0  0  0  0
    7.7102    0.8170   -0.9951 H   0  0  0  0  0  0  0  0  0  0  0  0
    7.0854   -0.7809   -1.4294 H   0  0  0  0  0  0  0  0  0  0  0  0
    6.1197   -1.0756    0.8390 H   0  0  0  0  0  0  0  0  0  0  0  0
    6.1700    1.2693    1.9479 H   0  0  0  0  0  0  0  0  0  0  0  0
    5.5816    1.6233   -0.5132 H   0  0  0  0  0  0  0  0  0  0  0  0
    4.8604    0.0851   -1.0016 H   0  0  0  0  0  0  0  0  0  0  0  0
    3.8336   -0.5561    2.2349 H   0  0  0  0  0  0  0  0  0  0  0  0
    3.6942   -1.1708    0.5641 H   0  0  0  0  0  0  0  0  0  0  0  0
    1.6901    0.6794    2.0177 H   0  0  0  0  0  0  0  0  0  0  0  0
    1.5490   -1.0678    1.5527 H   0  0  0  0  0  0  0  0  0  0  0  0
    1.5484    2.1968   -0.9378 H   0  0  0  0  0  0  0  0  0  0  0  0
    2.8007    0.9514   -1.5371 H   0  0  0  0  0  0  0  0  0  0  0  0
    3.7427    2.7745   -0.1356 H   0  0  0  0  0  0  0  0  0  0  0  0
    2.6423    2.2925    1.1754 H   0  0  0  0  0  0  0  0  0  0  0  0
    0.6071   -1.0565   -2.6102 H   0  0  0  0  0  0  0  0  0  0  0  0
   -0.5287    1.7227   -1.9795 H   0  0  0  0  0  0  0  0  0  0  0  0
    0.9422    1.2021   -2.9792 H   0  0  0  0  0  0  0  0  0  0  0  0
   -1.8807    1.1806   -3.7244 H   0  0  0  0  0  0  0  0  0  0  0  0
   -0.3797    0.8720   -4.7424 H   0  0  0  0  0  0  0  0  0  0  0  0
   -2.1755   -1.1161   -4.1925 H   0  0  0  0  0  0  0  0  0  0  0  0
   -0.3653   -1.4246   -3.9234 H   0  0  0  0  0  0  0  0  0  0  0  0
   -2.5342   -0.8220    0.5253 H   0  0  0  0  0  0  0  0  0  0  0  0
   -4.5710   -2.8682   -0.4153 H   0  0  0  0  0  0  0  0  0  0  0  0
   -4.0008   -2.4767    1.2018 H   0  0  0  0  0  0  0  0  0  0  0  0
   -3.0395   -4.2008   -1.9371 H   0  0  0  0  0  0  0  0  0  0  0  0
   -1.5525   -6.1060   -2.0066 H   0  0  0  0  0  0  0  0  0  0  0  0
   -0.3443   -6.7801   -0.0204 H   0  0  0  0  0  0  0  0  0  0  0  0
   -0.5972   -5.5413    2.1126 H   0  0  0  0  0  0  0  0  0  0  0  0
   -2.1332   -3.5623    2.1935 H   0  0  0  0  0  0  0  0  0  0  0  0
   -5.1020   -0.8077   -1.0411 H   0  0  0  0  0  0  0  0  0  0  0  0
   -6.8460    0.7346    0.6933 H   0  0  0  0  0  0  0  0  0  0  0  0
   -6.1397    1.2672   -1.6066 H   0  0  0  0  0  0  0  0  0  0  0  0
   -5.2581    2.7422   -0.9178 H   0  0  0  0  0  0  0  0  0  0  0  0
   -6.5002    4.5881    0.0187 H   0  0  0  0  0  0  0  0  0  0  0  0
   -8.5803    5.7979    0.1459 H   0  0  0  0  0  0  0  0  0  0  0  0
  -10.7225    2.4345   -1.3549 H   0  0  0  0  0  0  0  0  0  0  0  0
   -8.6413    1.1995   -1.4902 H   0  0  0  0  0  0  0  0  0  0  0  0
   -5.0691    3.0314    1.4520 H   0  0  0  0  0  0  0  0  0  0  0  0
   -6.0391    4.4288    3.0944 H   0  0  0  0  0  0  0  0  0  0  0  0
   -7.6465    4.0536    3.8033 H   0  0  0  0  0  0  0  0  0  0  0  0
   -6.1018    3.2940    4.4513 H   0  0  0  0  0  0  0  0  0  0  0  0
   10.2745   -3.6565    0.5023 H   0  0  0  0  0  0  0  0  0  0  0  0
  1  2  1  0
  2  3  1  0
  3  4  2  0
  4  5  1  0
  5  6  2  0
  6  7  1  0
  7  8  1  0
  8  9  1  0
  8 10  1  0
 10 11  1  0
 11 12  1  0
 12 13  1  0
 13 14  1  0
 14 15  1  0
 15 16  1  0
 14 17  1  0
 17 18  2  0
 17 19  1  0
 19 20  1  0
 20 21  1  0
 21 22  1  0
 22 23  1  0
 23 24  1  0
 24 25  2  0
 24 26  1  0
 26 27  1  0
 27 28  1  0
 28 29  2  0
 29 30  1  0
 30 31  2  0
 31 32  1  0
 32 33  2  0
 26 34  1  0
 34 35  1  0
 35 36  2  0
 35 37  1  0
 37 38  1  0
 38 39  1  0
 39 40  2  0
 40 41  1  0
 41 42  2  0
 42 43  1  0
 42 44  1  0
 44 45  2  0
 37 46  1  0
 46 47  1  0
 47 48  1  0
 47 49  2  0
  6 50  1  0
 50 51  2  0
 51  3  1  0
 16 11  1  0
 23 19  1  0
 33 28  1  0
 45 39  1  0
  1 52  1  0
  1 53  1  0
  1 54  1  0
  4 55  1  0
  7 56  1  0
  7 57  1  0
  8 58  1  1
  9 59  1  0
 10 60  1  0
 10 61  1  0
 12 62  1  0
 12 63  1  0
 13 64  1  0
 13 65  1  0
 15 66  1  0
 15 67  1  0
 16 68  1  0
 16 69  1  0
 19 70  1  6
 20 71  1  0
 20 72  1  0
 21 73  1  0
 21 74  1  0
 22 75  1  0
 22 76  1  0
 26 77  1  1
 27 78  1  0
 27 79  1  0
 29 80  1  0
 30 81  1  0
 31 82  1  0
 32 83  1  0
 33 84  1  0
 34 85  1  0
 37 86  1  1
 38 87  1  0
 38 88  1  0
 40 89  1  0
 41 90  1  0
 44 91  1  0
 45 92  1  0
 46 93  1  0
 48 94  1  0
 48 95  1  0
 48 96  1  0
 51 97  1  0
M  END
$$$$
[H]OC(=O)C([H])([H])N([H])c1c([H])c2c([H])c(N([H])S(=O)(=O)C([H])([H])C([H])([H])O[H])c([H])c([H])c2n1[H]
     RDKit          3D

 36 37  0  0  0  0  0  0  0  0999 V2000
   -6.5335    2.4632   -0.3062 O   0  0  0  0  0  0  0  0  0  0  0  0
   -6.0924    1.1760   -0.9619 C   0  0  0  0  0  0  0  0  0  0  0  0
   -6.0533    1.1364   -2.1325 O   0  0  0  0  0  0  0  0  0  0  0  0
   -5.7777    0.1702    0.0867 C   0  0  0  0  0  0  0  0  0  0  0  0
   -4.5014    0.3597    0.6449 N   0  0  0  0  0  0  0  0  0  0  0  0
   -3.2131   -0.0015    0.2860 C   0  0  0  0  0  0  0  0  0  0  0  0
   -2.1011    0.3472    1.0827 C   0  0  0  0  0  0  0  0  0  0  0  0
   -0.9962   -0.2714    0.4749 C   0  0  0  0  0  0  0  0  0  0  0  0
    0.3314   -0.3204    0.8460 C   0  0  0  0  0  0  0  0  0  0  0  0
    1.2740   -1.0225    0.1539 C   0  0  0  0  0  0  0  0  0  0  0  0
    2.6105   -1.1500    0.5723 N   0  0  0  0  0  0  0  0  0  0  0  0
    4.0561   -0.6827   -0.1382 S   0  0  0  0  0  0  0  0  0  0  0  0
    4.9835   -1.8039   -0.4574 O   0  0  0  0  0  0  0  0  0  0  0  0
    3.8451    0.1234   -1.4048 O   0  0  0  0  0  0  0  0  0  0  0  0
    4.9194    0.4151    1.0012 C   0  0  0  0  0  0  0  0  0  0  0  0
    6.2264    0.8447    0.3409 C   0  0  0  0  0  0  0  0  0  0  0  0
    5.8833    1.5283   -0.8260 O   0  0  0  0  0  0  0  0  0  0  0  0
    0.8399   -1.7097   -0.9917 C   0  0  0  0  0  0  0  0  0  0  0  0
   -0.4887   -1.6660   -1.3612 C   0  0  0  0  0  0  0  0  0  0  0  0
   -1.4178   -0.9515   -0.6352 C   0  0  0  0  0  0  0  0  0  0  0  0
   -2.7585   -0.7624   -0.7194 N   0  0  0  0  0  0  0  0  0  0  0  0
   -5.7179    2.8171    0.2382 H   0  0  0  0  0  0  0  0  0  0  0  0
   -6.6075    0.1290    0.8050 H   0  0  0  0  0  0  0  0  0  0  0  0
   -5.7639   -0.8642   -0.3827 H   0  0  0  0  0  0  0  0  0  0  0  0
   -4.5640    0.9536    1.5750 H   0  0  0  0  0  0  0  0  0  0  0  0
   -2.0308    0.9281    2.0001 H   0  0  0  0  0  0  0  0  0  0  0  0
    0.6168    0.2703    1.7442 H   0  0  0  0  0  0  0  0  0  0  0  0
    2.7237   -1.6385    1.5416 H   0  0  0  0  0  0  0  0  0  0  0  0
    4.3447    1.2926    1.2639 H   0  0  0  0  0  0  0  0  0  0  0  0
    5.1427   -0.2373    1.8889 H   0  0  0  0  0  0  0  0  0  0  0  0
    6.7034   -0.1324   -0.0087 H   0  0  0  0  0  0  0  0  0  0  0  0
    6.9147    1.3755    1.0074 H   0  0  0  0  0  0  0  0  0  0  0  0
    5.7702    2.5153   -0.6052 H   0  0  0  0  0  0  0  0  0  0  0  0
    1.5925   -2.2623   -1.5029 H   0  0  0  0  0  0  0  0  0  0  0  0
   -0.8236   -2.1874   -2.2140 H   0  0  0  0  0  0  0  0  0  0  0  0
   -3.3368   -1.1817   -1.5059 H   0  0  0  0  0  0  0  0  0  0  0  0
  1  2  1  0
  2  3  2  0
  2  4  1  0
  4  5  1  0
  5  6  1  0
  6  7  2  0
  7  8  1  0
  8  9  2  0
  9 10  1  0
 10 11  1  0
 11 12  1  0
 12 13  2  0
 12 14  2  0
 12 15  1  0
 15 16  1  0
 16 17  1  0
 10 18  2  0
 18 19  1  0
 19 20  2  0
 20 21  1  0
 21  6  1  0
 20  8  1  0
  1 22  1  0
  4 23  1  0
  4 24  1  0
  5 25  1  0
  7 26  1  0
  9 27  1  0
 11 28  1  0
 15 29  1  0
 15 30  1  0
 16 31  1  0
 16 32  1  0
 17 33  1  0
 18 34  1  0
 19 35  1  0
 21 36  1  0
M  END
$$$$
[H]c1nc(N([H])C2([H])C([H])([H])C([H])([H])C([H])([H])C([H])([H])C2([H])[H])nc(-c2c([H])c([H])c(C(=O)N3C([H])([H])C([H])([H])N(c4c([H])nc([H])c([H])c4-c4c([H])c([H])c([H])c(Cl)c4[H])C([H])([H])C3([H])[H])c([H])c2[H])c1[H]
     RDKit          3D

 73 78  0  0  0  0  0  0  0  0999 V2000
   -8.8835   -2.7965   -2.7228 Cl  0  0  0  0  0  0  0  0  0  0  0  0
   -8.9163   -1.5715   -1.4605 C   0  0  0  0  0  0  0  0  0  0  0  0
   -9.9740   -1.5674   -0.5680 C   0  0  0  0  0  0  0  0  0  0  0  0
   -9.9902   -0.6040    0.4164 C   0  0  0  0  0  0  0  0  0  0  0  0
   -8.9789    0.3268    0.5051 C   0  0  0  0  0  0  0  0  0  0  0  0
   -7.9084    0.3430   -0.3779 C   0  0  0  0  0  0  0  0  0  0  0  0
   -7.9078   -0.6244   -1.3536 C   0  0  0  0  0  0  0  0  0  0  0  0
   -6.9020    1.3805   -0.2238 C   0  0  0  0  0  0  0  0  0  0  0  0
   -7.2895    2.7351   -0.2008 C   0  0  0  0  0  0  0  0  0  0  0  0
   -6.4095    3.7654   -0.0844 C   0  0  0  0  0  0  0  0  0  0  0  0
   -5.1132    3.4983    0.0139 N   0  0  0  0  0  0  0  0  0  0  0  0
   -4.7125    2.2292   -0.0039 C   0  0  0  0  0  0  0  0  0  0  0  0
   -5.5634    1.1298   -0.1203 C   0  0  0  0  0  0  0  0  0  0  0  0
   -5.0698   -0.1857   -0.1038 N   0  0  0  0  0  0  0  0  0  0  0  0
   -5.4271   -1.1337    0.9611 C   0  0  0  0  0  0  0  0  0  0  0  0
   -4.1723   -1.5537    1.7160 C   0  0  0  0  0  0  0  0  0  0  0  0
   -3.0284   -1.5109    0.7526 N   0  0  0  0  0  0  0  0  0  0  0  0
   -3.3823   -1.8767   -0.5639 C   0  0  0  0  0  0  0  0  0  0  0  0
   -4.1473   -0.6692   -1.1484 C   0  0  0  0  0  0  0  0  0  0  0  0
   -1.7974   -1.1644    1.2704 C   0  0  0  0  0  0  0  0  0  0  0  0
   -1.7880   -0.9732    2.5868 O   0  0  0  0  0  0  0  0  0  0  0  0
   -0.5061   -0.9640    0.6875 C   0  0  0  0  0  0  0  0  0  0  0  0
    0.6316   -0.8366    1.5045 C   0  0  0  0  0  0  0  0  0  0  0  0
    1.8855   -0.5971    0.9885 C   0  0  0  0  0  0  0  0  0  0  0  0
    2.0742   -0.4722   -0.3610 C   0  0  0  0  0  0  0  0  0  0  0  0
    1.0073   -0.5875   -1.1789 C   0  0  0  0  0  0  0  0  0  0  0  0
   -0.2696   -0.8314   -0.6415 C   0  0  0  0  0  0  0  0  0  0  0  0
    3.4157   -0.2188   -0.8611 C   0  0  0  0  0  0  0  0  0  0  0  0
    3.7117   -0.0871   -2.2012 C   0  0  0  0  0  0  0  0  0  0  0  0
    5.0275    0.1550   -2.5996 C   0  0  0  0  0  0  0  0  0  0  0  0
    6.0010    0.2599   -1.6978 N   0  0  0  0  0  0  0  0  0  0  0  0
    5.7336    0.1354   -0.3965 C   0  0  0  0  0  0  0  0  0  0  0  0
    6.7474    0.2446    0.6218 N   0  0  0  0  0  0  0  0  0  0  0  0
    8.0986    0.4968    0.3036 C   0  0  0  0  0  0  0  0  0  0  0  0
    8.3798    1.8073   -0.3871 C   0  0  0  0  0  0  0  0  0  0  0  0
    9.8077    1.9605   -0.7869 C   0  0  0  0  0  0  0  0  0  0  0  0
   10.6518    0.9234   -0.1118 C   0  0  0  0  0  0  0  0  0  0  0  0
   10.2461   -0.4398   -0.6088 C   0  0  0  0  0  0  0  0  0  0  0  0
    8.7667   -0.6153   -0.4742 C   0  0  0  0  0  0  0  0  0  0  0  0
    4.4583   -0.0989   -0.0163 N   0  0  0  0  0  0  0  0  0  0  0  0
  -10.7638   -2.3104   -0.6530 H   0  0  0  0  0  0  0  0  0  0  0  0
  -10.8189   -0.6106    1.1062 H   0  0  0  0  0  0  0  0  0  0  0  0
   -9.0141    1.0808    1.2949 H   0  0  0  0  0  0  0  0  0  0  0  0
   -7.1194   -0.6632   -2.0650 H   0  0  0  0  0  0  0  0  0  0  0  0
   -8.3523    2.9400   -0.2824 H   0  0  0  0  0  0  0  0  0  0  0  0
   -6.7788    4.7901   -0.0734 H   0  0  0  0  0  0  0  0  0  0  0  0
   -3.6645    2.0147    0.0756 H   0  0  0  0  0  0  0  0  0  0  0  0
   -6.1431   -0.6620    1.6566 H   0  0  0  0  0  0  0  0  0  0  0  0
   -5.8821   -2.0187    0.5239 H   0  0  0  0  0  0  0  0  0  0  0  0
   -3.9722   -0.9717    2.6068 H   0  0  0  0  0  0  0  0  0  0  0  0
   -4.2868   -2.6188    1.9719 H   0  0  0  0  0  0  0  0  0  0  0  0
   -4.1949   -2.7102   -0.4563 H   0  0  0  0  0  0  0  0  0  0  0  0
   -2.6450   -2.2184   -1.2579 H   0  0  0  0  0  0  0  0  0  0  0  0
   -4.6969   -0.9555   -2.0638 H   0  0  0  0  0  0  0  0  0  0  0  0
   -3.3696    0.0828   -1.3797 H   0  0  0  0  0  0  0  0  0  0  0  0
    0.4812   -0.9390    2.5649 H   0  0  0  0  0  0  0  0  0  0  0  0
    2.7221   -0.5095    1.6855 H   0  0  0  0  0  0  0  0  0  0  0  0
    1.1110   -0.4946   -2.2647 H   0  0  0  0  0  0  0  0  0  0  0  0
   -1.0405   -0.8727   -1.3669 H   0  0  0  0  0  0  0  0  0  0  0  0
    2.9417   -0.1680   -2.9433 H   0  0  0  0  0  0  0  0  0  0  0  0
    5.2558    0.2593   -3.6646 H   0  0  0  0  0  0  0  0  0  0  0  0
    6.4612    0.1320    1.6372 H   0  0  0  0  0  0  0  0  0  0  0  0
    8.6724    0.5361    1.2802 H   0  0  0  0  0  0  0  0  0  0  0  0
    7.7578    2.0148   -1.2635 H   0  0  0  0  0  0  0  0  0  0  0  0
    8.1280    2.6012    0.3574 H   0  0  0  0  0  0  0  0  0  0  0  0
   10.1364    2.9996   -0.5325 H   0  0  0  0  0  0  0  0  0  0  0  0
    9.9715    1.8495   -1.8807 H   0  0  0  0  0  0  0  0  0  0  0  0
   11.7222    1.0828   -0.4406 H   0  0  0  0  0  0  0  0  0  0  0  0
   10.6147    0.9505    0.9953 H   0  0  0  0  0  0  0  0  0  0  0  0
   10.5806   -0.4986   -1.6673 H   0  0  0  0  0  0  0  0  0  0  0  0
   10.7683   -1.2030    0.0094 H   0  0  0  0  0  0  0  0  0  0  0  0
    8.3334   -0.7579   -1.4776 H   0  0  0  0  0  0  0  0  0  0  0  0
    8.5772   -1.5624    0.0938 H   0  0  0  0  0  0  0  0  0  0  0  0
  1  2  1  0
  2  3  2  0
  3  4  1  0
  4  5  2  0
  5  6  1  0
  6  7  2  0
  6  8  1  0
  8  9  2  0
  9 10  1  0
 10 11  2  0
 11 12  1  0
 12 13  2  0
 13 14  1  0
 14 15  1  0
 15 16  1  0
 16 17  1  0
 17 18  1  0
 18 19  1  0
 17 20  1  0
 20 21  2  0
 20 22  1  0
 22 23  2  0
 23 24  1  0
 24 25  2  0
 25 26  1  0
 26 27  2  0
 25 28  1  0
 28 29  2  0
 29 30  1  0
 30 31  2  0
 31 32  1  0
 32 33  1  0
 33 34  1  0
 34 35  1  0
 35 36  1  0
 36 37  1  0
 37 38  1  0
 38 39  1  0
 32 40  2  0
  7  2  1  0
 13  8  1  0
 19 14  1  0
 27 22  1  0
 40 28  1  0
 39 34  1  0
  3 41  1  0
  4 42  1  0
  5 43  1  0
  7 44  1  0
  9 45  1  0
 10 46  1  0
 12 47  1  0
 15 48  1  0
 15 49  1  0
 16 50  1  0
 16 51  1  0
 18 52  1  0
 18 53  1  0
 19 54  1  0
 19 55  1  0
 23 56  1  0
 24 57  1  0
 26 58  1  0
 27 59  1  0
 29 60  1  0
 30 61  1  0
 33 62  1  0
 34 63  1  0
 35 64  1  0
 35 65  1  0
 36 66  1  0
 36 67  1  0
 37 68  1  0
 37 69  1  0
 38 70  1  0
 38 71  1  0
 39 72  1  0
 39 73  1  0
M  END
$$$$
[H]c1nc(N2C([H])([H])C([H])([H])N(C([H])([H])C([H])([H])C(=O)N([H])C3([H])C([H])([H])C([H])([H])N(C(=O)C([H])([H])C([H])([H])[H])C([H])([H])C3([H])[H])C([H])([H])C2([H])[H])c2c([H])c([H])n([H])c2n1
     RDKit          3D

 61 64  0  0  0  0  0  0  0  0999 V2000
   -8.2597   -1.8369    1.6468 C   0  0  0  0  0  0  0  0  0  0  0  0
   -8.1012   -0.6830    0.6837 C   0  0  0  0  0  0  0  0  0  0  0  0
   -7.0545   -1.0552   -0.3058 C   0  0  0  0  0  0  0  0  0  0  0  0
   -7.3138   -1.9438   -1.1825 O   0  0  0  0  0  0  0  0  0  0  0  0
   -5.7678   -0.4637   -0.3247 N   0  0  0  0  0  0  0  0  0  0  0  0
   -4.8233   -0.8735   -1.3315 C   0  0  0  0  0  0  0  0  0  0  0  0
   -3.9198    0.3511   -1.5629 C   0  0  0  0  0  0  0  0  0  0  0  0
   -3.1268    0.4685   -0.2479 C   0  0  0  0  0  0  0  0  0  0  0  0
   -4.0636    0.9441    0.8003 C   0  0  0  0  0  0  0  0  0  0  0  0
   -5.4819    0.5259    0.6841 C   0  0  0  0  0  0  0  0  0  0  0  0
   -2.0649    1.4201   -0.3883 N   0  0  0  0  0  0  0  0  0  0  0  0
   -0.6892    0.9528   -0.4830 C   0  0  0  0  0  0  0  0  0  0  0  0
   -0.5612   -0.2777   -0.4370 O   0  0  0  0  0  0  0  0  0  0  0  0
    0.3398    1.9846   -0.6184 C   0  0  0  0  0  0  0  0  0  0  0  0
    1.7639    1.5952   -0.6254 C   0  0  0  0  0  0  0  0  0  0  0  0
    2.2917    1.0269    0.5040 N   0  0  0  0  0  0  0  0  0  0  0  0
    2.0957   -0.2129    1.0443 C   0  0  0  0  0  0  0  0  0  0  0  0
    3.3493   -0.6827    1.8170 C   0  0  0  0  0  0  0  0  0  0  0  0
    4.5047   -0.1331    1.0855 N   0  0  0  0  0  0  0  0  0  0  0  0
    4.6151    1.2902    1.1422 C   0  0  0  0  0  0  0  0  0  0  0  0
    3.1822    1.8783    1.2258 C   0  0  0  0  0  0  0  0  0  0  0  0
    5.3238   -1.0303    0.3946 C   0  0  0  0  0  0  0  0  0  0  0  0
    4.8485   -2.2565    0.0181 N   0  0  0  0  0  0  0  0  0  0  0  0
    5.5417   -3.1556   -0.6827 C   0  0  0  0  0  0  0  0  0  0  0  0
    6.7906   -2.8375   -1.0441 N   0  0  0  0  0  0  0  0  0  0  0  0
    7.3154   -1.6246   -0.6923 C   0  0  0  0  0  0  0  0  0  0  0  0
    8.5350   -1.0984   -0.9300 N   0  0  0  0  0  0  0  0  0  0  0  0
    8.6349    0.1178   -0.3936 C   0  0  0  0  0  0  0  0  0  0  0  0
    7.4329    0.3904    0.2155 C   0  0  0  0  0  0  0  0  0  0  0  0
    6.6104   -0.6888    0.0309 C   0  0  0  0  0  0  0  0  0  0  0  0
   -7.3608   -1.9635    2.2907 H   0  0  0  0  0  0  0  0  0  0  0  0
   -9.0994   -1.6486    2.3516 H   0  0  0  0  0  0  0  0  0  0  0  0
   -8.4474   -2.7944    1.0802 H   0  0  0  0  0  0  0  0  0  0  0  0
   -9.0490   -0.6015    0.1142 H   0  0  0  0  0  0  0  0  0  0  0  0
   -7.8700    0.2301    1.2364 H   0  0  0  0  0  0  0  0  0  0  0  0
   -4.1296   -1.6752   -0.9688 H   0  0  0  0  0  0  0  0  0  0  0  0
   -5.3106   -1.1409   -2.2744 H   0  0  0  0  0  0  0  0  0  0  0  0
   -3.2660    0.2146   -2.4348 H   0  0  0  0  0  0  0  0  0  0  0  0
   -4.5821    1.2275   -1.5966 H   0  0  0  0  0  0  0  0  0  0  0  0
   -2.7398   -0.5608   -0.0822 H   0  0  0  0  0  0  0  0  0  0  0  0
   -3.6782    0.6371    1.8169 H   0  0  0  0  0  0  0  0  0  0  0  0
   -3.9785    2.0739    0.8234 H   0  0  0  0  0  0  0  0  0  0  0  0
   -6.0913    1.4325    0.3945 H   0  0  0  0  0  0  0  0  0  0  0  0
   -5.8857    0.2304    1.6933 H   0  0  0  0  0  0  0  0  0  0  0  0
   -2.3164    2.4165   -0.4189 H   0  0  0  0  0  0  0  0  0  0  0  0
    0.1519    2.6899    0.2719 H   0  0  0  0  0  0  0  0  0  0  0  0
    0.1022    2.6377   -1.5224 H   0  0  0  0  0  0  0  0  0  0  0  0
    1.8864    0.8833   -1.5342 H   0  0  0  0  0  0  0  0  0  0  0  0
    2.3476    2.5382   -0.9349 H   0  0  0  0  0  0  0  0  0  0  0  0
    1.2111   -0.3310    1.7272 H   0  0  0  0  0  0  0  0  0  0  0  0
    2.0487   -0.9905    0.2117 H   0  0  0  0  0  0  0  0  0  0  0  0
    3.3869   -1.7799    1.8635 H   0  0  0  0  0  0  0  0  0  0  0  0
    3.2668   -0.2424    2.8327 H   0  0  0  0  0  0  0  0  0  0  0  0
    5.0004    1.7173    0.1996 H   0  0  0  0  0  0  0  0  0  0  0  0
    5.2210    1.6482    1.9798 H   0  0  0  0  0  0  0  0  0  0  0  0
    3.1806    2.8833    0.8190 H   0  0  0  0  0  0  0  0  0  0  0  0
    2.9302    1.8259    2.3007 H   0  0  0  0  0  0  0  0  0  0  0  0
    5.0980   -4.1290   -0.9566 H   0  0  0  0  0  0  0  0  0  0  0  0
    9.3054   -1.5934   -1.4722 H   0  0  0  0  0  0  0  0  0  0  0  0
    9.5220    0.7746   -0.4352 H   0  0  0  0  0  0  0  0  0  0  0  0
    7.1974    1.2984    0.7523 H   0  0  0  0  0  0  0  0  0  0  0  0
  1  2  1  0
  2  3  1  0
  3  4  2  0
  3  5  1  0
  5  6  1  0
  6  7  1  0
  7  8  1  0
  8  9  1  0
  9 10  1  0
  8 11  1  0
 11 12  1  0
 12 13  2  0
 12 14  1  0
 14 15  1  0
 15 16  1  0
 16 17  1  0
 17 18  1  0
 18 19  1  0
 19 20  1  0
 20 21  1  0
 19 22  1  0
 22 23  2  0
 23 24  1  0
 24 25  2  0
 25 26  1  0
 26 27  1  0
 27 28  1  0
 28 29  2  0
 29 30  1  0
 10  5  1  0
 21 16  1  0
 30 22  1  0
 30 26  2  0
  1 31  1  0
  1 32  1  0
  1 33  1  0
  2 34  1  0
  2 35  1  0
  6 36  1  0
  6 37  1  0
  7 38  1  0
  7 39  1  0
  8 40  1  0
  9 41  1  0
  9 42  1  0
 10 43  1  0
 10 44  1  0
 11 45  1  0
 14 46  1  0
 14 47  1  0
 15 48  1  0
 15 49  1  0
 17 50  1  0
 17 51  1  0
 18 52  1  0
 18 53  1  0
 20 54  1  0
 20 55  1  0
 21 56  1  0
 21 57  1  0
 24 58  1  0
 27 59  1  0
 28 60  1  0
 29 61  1  0
M  END
$$$$
[H]c1c([H])c(C(=O)N2[C@@]3([H])C([H])([H])C([H])([H])[C@]2([H])C([H])([H])[C@]([H])(C(=O)N2C([H])([H])C([H])([H])OC([H])([H])C2([H])[H])C3([H])[H])c([H])c([H])c1C#CC([H])([H])N([H])C([H])(C([H])([H])[H])C([H])([H])[H]
     RDKit          3D

 64 67  0  0  0  0  0  0  0  0999 V2000
    9.9181   -1.2511    1.0572 C   0  0  0  0  0  0  0  0  0  0  0  0
    9.0083   -0.4648    1.9526 C   0  0  0  0  0  0  0  0  0  0  0  0
    9.3921    1.0193    1.9500 C   0  0  0  0  0  0  0  0  0  0  0  0
    7.6301   -0.5364    1.5714 N   0  0  0  0  0  0  0  0  0  0  0  0
    7.4135    0.0283    0.2557 C   0  0  0  0  0  0  0  0  0  0  0  0
    6.0108   -0.0451   -0.1290 C   0  0  0  0  0  0  0  0  0  0  0  0
    4.8582   -0.0985   -0.4657 C   0  0  0  0  0  0  0  0  0  0  0  0
    3.4876   -0.1483   -0.8878 C   0  0  0  0  0  0  0  0  0  0  0  0
    3.1135   -0.7199   -2.0836 C   0  0  0  0  0  0  0  0  0  0  0  0
    1.8086   -0.7727   -2.5003 C   0  0  0  0  0  0  0  0  0  0  0  0
    0.7605   -0.2407   -1.7233 C   0  0  0  0  0  0  0  0  0  0  0  0
    1.1382    0.3245   -0.5363 C   0  0  0  0  0  0  0  0  0  0  0  0
    2.4750    0.3726   -0.1225 C   0  0  0  0  0  0  0  0  0  0  0  0
   -0.6086   -0.3734   -2.2025 C   0  0  0  0  0  0  0  0  0  0  0  0
   -0.7490   -1.1740   -3.2374 O   0  0  0  0  0  0  0  0  0  0  0  0
   -1.7838    0.1917   -1.7635 N   0  0  0  0  0  0  0  0  0  0  0  0
   -3.0871   -0.1546   -2.3776 C   0  0  2  0  0  0  0  0  0  0  0  0
   -3.7001    1.1922   -2.6057 C   0  0  0  0  0  0  0  0  0  0  0  0
   -3.1137    2.0691   -1.5519 C   0  0  0  0  0  0  0  0  0  0  0  0
   -2.1120    1.1623   -0.7795 C   0  0  1  0  0  0  0  0  0  0  0  0
   -2.8461    0.5160    0.3869 C   0  0  0  0  0  0  0  0  0  0  0  0
   -3.4444   -0.7955    0.0138 C   0  0  1  0  0  0  0  0  0  0  0  0
   -4.4868   -1.2405    0.9594 C   0  0  0  0  0  0  0  0  0  0  0  0
   -4.3400   -2.4129    1.5247 O   0  0  0  0  0  0  0  0  0  0  0  0
   -5.6480   -0.5580    1.3449 N   0  0  0  0  0  0  0  0  0  0  0  0
   -6.0405    0.7371    0.8855 C   0  0  0  0  0  0  0  0  0  0  0  0
   -7.5661    0.7027    0.7204 C   0  0  0  0  0  0  0  0  0  0  0  0
   -8.2113    0.4993    1.9143 O   0  0  0  0  0  0  0  0  0  0  0  0
   -7.4005   -0.0632    2.8911 C   0  0  0  0  0  0  0  0  0  0  0  0
   -6.5758   -1.1870    2.3031 C   0  0  0  0  0  0  0  0  0  0  0  0
   -3.9358   -0.9192   -1.3858 C   0  0  0  0  0  0  0  0  0  0  0  0
   10.2998   -0.5828    0.2533 H   0  0  0  0  0  0  0  0  0  0  0  0
    9.4224   -2.1128    0.5766 H   0  0  0  0  0  0  0  0  0  0  0  0
   10.8235   -1.6293    1.5916 H   0  0  0  0  0  0  0  0  0  0  0  0
    9.0871   -0.8826    2.9847 H   0  0  0  0  0  0  0  0  0  0  0  0
   10.0736    1.2332    2.7727 H   0  0  0  0  0  0  0  0  0  0  0  0
    9.7973    1.2416    0.9407 H   0  0  0  0  0  0  0  0  0  0  0  0
    8.4858    1.6507    2.0982 H   0  0  0  0  0  0  0  0  0  0  0  0
    7.1810   -1.4481    1.7219 H   0  0  0  0  0  0  0  0  0  0  0  0
    8.0845   -0.5179   -0.4461 H   0  0  0  0  0  0  0  0  0  0  0  0
    7.7626    1.0740    0.2637 H   0  0  0  0  0  0  0  0  0  0  0  0
    3.9334   -1.1334   -2.6854 H   0  0  0  0  0  0  0  0  0  0  0  0
    1.5670   -1.2294   -3.4450 H   0  0  0  0  0  0  0  0  0  0  0  0
    0.4144    0.7223    0.1254 H   0  0  0  0  0  0  0  0  0  0  0  0
    2.7460    0.8271    0.8228 H   0  0  0  0  0  0  0  0  0  0  0  0
   -2.9571   -0.6953   -3.3246 H   0  0  0  0  0  0  0  0  0  0  0  0
   -3.4453    1.5081   -3.6390 H   0  0  0  0  0  0  0  0  0  0  0  0
   -4.7998    1.0770   -2.5123 H   0  0  0  0  0  0  0  0  0  0  0  0
   -3.8486    2.4504   -0.8194 H   0  0  0  0  0  0  0  0  0  0  0  0
   -2.5004    2.8554   -2.0204 H   0  0  0  0  0  0  0  0  0  0  0  0
   -1.3128    1.8134   -0.4116 H   0  0  0  0  0  0  0  0  0  0  0  0
   -2.0252    0.3016    1.1377 H   0  0  0  0  0  0  0  0  0  0  0  0
   -3.4827    1.2484    0.8639 H   0  0  0  0  0  0  0  0  0  0  0  0
   -2.6021   -1.5878    0.0824 H   0  0  0  0  0  0  0  0  0  0  0  0
   -5.7801    1.4898    1.6723 H   0  0  0  0  0  0  0  0  0  0  0  0
   -5.6573    1.0248   -0.1024 H   0  0  0  0  0  0  0  0  0  0  0  0
   -7.8897    1.6848    0.2942 H   0  0  0  0  0  0  0  0  0  0  0  0
   -7.7871   -0.0756   -0.0402 H   0  0  0  0  0  0  0  0  0  0  0  0
   -8.0949   -0.4637    3.6755 H   0  0  0  0  0  0  0  0  0  0  0  0
   -6.7594    0.7456    3.2983 H   0  0  0  0  0  0  0  0  0  0  0  0
   -6.0376   -1.7343    3.0846 H   0  0  0  0  0  0  0  0  0  0  0  0
   -7.2355   -1.8326    1.6899 H   0  0  0  0  0  0  0  0  0  0  0  0
   -4.9879   -0.6786   -1.5145 H   0  0  0  0  0  0  0  0  0  0  0  0
   -3.8400   -2.0036   -1.7155 H   0  0  0  0  0  0  0  0  0  0  0  0
  1  2  1  0
  2  3  1  0
  2  4  1  0
  4  5  1  0
  5  6  1  0
  6  7  3  0
  7  8  1  0
  8  9  2  0
  9 10  1  0
 10 11  2  0
 11 12  1  0
 12 13  2  0
 11 14  1  0
 14 15  2  0
 14 16  1  0
 16 17  1  0
 17 18  1  0
 18 19  1  0
 19 20  1  0
 20 21  1  0
 21 22  1  0
 22 23  1  0
 23 24  2  0
 23 25  1  0
 25 26  1  0
 26 27  1  0
 27 28  1  0
 28 29  1  0
 29 30  1  0
 22 31  1  0
 13  8  1  0
 20 16  1  0
 30 25  1  0
 31 17  1  0
  1 32  1  0
  1 33  1  0
  1 34  1  0
  2 35  1  0
  3 36  1  0
  3 37  1  0
  3 38  1  0
  4 39  1  0
  5 40  1  0
  5 41  1  0
  9 42  1  0
 10 43  1  0
 12 44  1  0
 13 45  1  0
 17 46  1  6
 18 47  1  0
 18 48  1  0
 19 49  1  0
 19 50  1  0
 20 51  1  1
 21 52  1  0
 21 53  1  0
 22 54  1  6
 26 55  1  0
 26 56  1  0
 27 57  1  0
 27 58  1  0
 29 59  1  0
 29 60  1  0
 30 61  1  0
 30 62  1  0
 31 63  1  0
 31 64  1  0
M  END
$$$$
[H]c1nc2c(C#N)c([H])nn2c([H])c1-c1nc([H])c([C@]2([H])N(C([H])([H])[H])C([H])([H])C([H])([H])N(C(=O)N([H])c3c([H])c([H])c([H])c(Cl)c3[H])C([H])([H])C2([H])[H])c([H])c1[H]
     RDKit          3D

 58 62  0  0  0  0  0  0  0  0999 V2000
   -0.0659    3.0537    1.0742 C   0  0  0  0  0  0  0  0  0  0  0  0
   -0.5148    1.7275    0.7479 N   0  0  0  0  0  0  0  0  0  0  0  0
   -1.4166    1.1379    1.6065 C   0  0  0  0  0  0  0  0  0  0  0  0
   -2.8429    0.9414    1.1187 C   0  0  0  0  0  0  0  0  0  0  0  0
   -2.8750   -0.1286    0.1741 N   0  0  0  0  0  0  0  0  0  0  0  0
   -1.7231   -0.7462   -0.4594 C   0  0  0  0  0  0  0  0  0  0  0  0
   -0.9803    0.2840   -1.2394 C   0  0  0  0  0  0  0  0  0  0  0  0
   -0.1267    1.2316   -0.4876 C   0  0  2  0  0  0  0  0  0  0  0  0
    1.3079    0.7949   -0.4482 C   0  0  0  0  0  0  0  0  0  0  0  0
    1.7811    0.0698    0.6101 C   0  0  0  0  0  0  0  0  0  0  0  0
    3.1303   -0.3259    0.6143 C   0  0  0  0  0  0  0  0  0  0  0  0
    3.9955   -0.0189   -0.3936 C   0  0  0  0  0  0  0  0  0  0  0  0
    3.4781    0.7053   -1.4269 N   0  0  0  0  0  0  0  0  0  0  0  0
    2.1923    1.0976   -1.4583 C   0  0  0  0  0  0  0  0  0  0  0  0
    5.3956   -0.4052   -0.4330 C   0  0  0  0  0  0  0  0  0  0  0  0
    5.9650   -1.1319    0.5776 C   0  0  0  0  0  0  0  0  0  0  0  0
    7.2855   -1.4729    0.4983 N   0  0  0  0  0  0  0  0  0  0  0  0
    8.0484   -1.1145   -0.5486 C   0  0  0  0  0  0  0  0  0  0  0  0
    9.3854   -1.3228   -0.8760 C   0  0  0  0  0  0  0  0  0  0  0  0
    9.6233   -0.7188   -2.0898 C   0  0  0  0  0  0  0  0  0  0  0  0
    8.4659   -0.1677   -2.4748 N   0  0  0  0  0  0  0  0  0  0  0  0
    7.5283   -0.4019   -1.5598 N   0  0  0  0  0  0  0  0  0  0  0  0
    6.2156   -0.0561   -1.4933 C   0  0  0  0  0  0  0  0  0  0  0  0
   10.3051   -2.0448   -0.0579 C   0  0  0  0  0  0  0  0  0  0  0  0
   11.0645   -2.6337    0.5934 N   0  0  0  0  0  0  0  0  0  0  0  0
   -4.1296   -0.6506   -0.2071 C   0  0  0  0  0  0  0  0  0  0  0  0
   -4.1324   -1.6023   -1.0342 O   0  0  0  0  0  0  0  0  0  0  0  0
   -5.2786   -0.0710    0.3625 N   0  0  0  0  0  0  0  0  0  0  0  0
   -6.5862   -0.5003    0.0774 C   0  0  0  0  0  0  0  0  0  0  0  0
   -7.6143    0.4060    0.3130 C   0  0  0  0  0  0  0  0  0  0  0  0
   -8.9063    0.0680    0.0864 C   0  0  0  0  0  0  0  0  0  0  0  0
   -9.2344   -1.1816   -0.3831 C   0  0  0  0  0  0  0  0  0  0  0  0
   -8.2530   -2.1130   -0.6312 C   0  0  0  0  0  0  0  0  0  0  0  0
   -8.6242   -3.7182   -1.2301 Cl  0  0  0  0  0  0  0  0  0  0  0  0
   -6.9252   -1.7361   -0.3874 C   0  0  0  0  0  0  0  0  0  0  0  0
    0.2002    3.0687    2.1516 H   0  0  0  0  0  0  0  0  0  0  0  0
    0.8060    3.2983    0.4604 H   0  0  0  0  0  0  0  0  0  0  0  0
   -0.8317    3.8322    0.8876 H   0  0  0  0  0  0  0  0  0  0  0  0
   -1.0895    0.1405    1.9526 H   0  0  0  0  0  0  0  0  0  0  0  0
   -1.5064    1.7626    2.5369 H   0  0  0  0  0  0  0  0  0  0  0  0
   -3.2428    1.8564    0.6932 H   0  0  0  0  0  0  0  0  0  0  0  0
   -3.4407    0.7223    2.0521 H   0  0  0  0  0  0  0  0  0  0  0  0
   -2.0511   -1.5404   -1.1596 H   0  0  0  0  0  0  0  0  0  0  0  0
   -1.1358   -1.2293    0.3311 H   0  0  0  0  0  0  0  0  0  0  0  0
   -0.3324   -0.2006   -2.0322 H   0  0  0  0  0  0  0  0  0  0  0  0
   -1.7351    0.8596   -1.8262 H   0  0  0  0  0  0  0  0  0  0  0  0
   -0.0612    2.1630   -1.1802 H   0  0  0  0  0  0  0  0  0  0  0  0
    1.1647   -0.2186    1.4540 H   0  0  0  0  0  0  0  0  0  0  0  0
    3.4701   -0.8942    1.4601 H   0  0  0  0  0  0  0  0  0  0  0  0
    1.7864    1.6781   -2.2914 H   0  0  0  0  0  0  0  0  0  0  0  0
    5.3728   -1.4320    1.4300 H   0  0  0  0  0  0  0  0  0  0  0  0
   10.5852   -0.7058   -2.6188 H   0  0  0  0  0  0  0  0  0  0  0  0
    5.7698    0.5206   -2.2986 H   0  0  0  0  0  0  0  0  0  0  0  0
   -5.1797    0.7367    1.0534 H   0  0  0  0  0  0  0  0  0  0  0  0
   -7.3550    1.4087    0.6878 H   0  0  0  0  0  0  0  0  0  0  0  0
   -9.6752    0.8238    0.2902 H   0  0  0  0  0  0  0  0  0  0  0  0
  -10.2795   -1.4171   -0.5534 H   0  0  0  0  0  0  0  0  0  0  0  0
   -6.1778   -2.4885   -0.5747 H   0  0  0  0  0  0  0  0  0  0  0  0
  1  2  1  0
  2  3  1  0
  3  4  1  0
  4  5  1  0
  5  6  1  0
  6  7  1  0
  7  8  1  0
  8  9  1  0
  9 10  2  0
 10 11  1  0
 11 12  2  0
 12 13  1  0
 13 14  2  0
 12 15  1  0
 15 16  1  0
 16 17  2  0
 17 18  1  0
 18 19  2  0
 19 20  1  0
 20 21  2  0
 21 22  1  0
 22 23  1  0
 19 24  1  0
 24 25  3  0
  5 26  1  0
 26 27  2  0
 26 28  1  0
 28 29  1  0
 29 30  2  0
 30 31  1  0
 31 32  2  0
 32 33  1  0
 33 34  1  0
 33 35  2  0
  8  2  1  0
 14  9  1  0
 23 15  2  0
 35 29  1  0
 22 18  1  0
  1 36  1  0
  1 37  1  0
  1 38  1  0
  3 39  1  0
  3 40  1  0
  4 41  1  0
  4 42  1  0
  6 43  1  0
  6 44  1  0
  7 45  1  0
  7 46  1  0
  8 47  1  6
 10 48  1  0
 11 49  1  0
 14 50  1  0
 16 51  1  0
 20 52  1  0
 23 53  1  0
 28 54  1  0
 30 55  1  0
 31 56  1  0
 32 57  1  0
 35 58  1  0
M  END
$$$$
[H]OC(c1c([H])c([H])c2c(-c3nc(N([H])c4noc(-c5c([H])c([H])c([H])c(C([H])([H])[H])c5[H])c4[H])nc([H])c3Cl)c([H])nn2c1[H])(C([H])([H])[H])C([H])([H])[H]
     RDKit          3D

 54 58  0  0  0  0  0  0  0  0999 V2000
    8.0714    2.0669   -0.6952 C   0  0  0  0  0  0  0  0  0  0  0  0
    7.9127    0.6490   -0.3057 C   0  0  0  0  0  0  0  0  0  0  0  0
    9.0492   -0.0699    0.0791 C   0  0  0  0  0  0  0  0  0  0  0  0
    8.8494   -1.3924    0.4304 C   0  0  0  0  0  0  0  0  0  0  0  0
    7.6287   -2.0180    0.4212 C   0  0  0  0  0  0  0  0  0  0  0  0
    6.5193   -1.2780    0.0361 C   0  0  0  0  0  0  0  0  0  0  0  0
    6.6857    0.0274   -0.3155 C   0  0  0  0  0  0  0  0  0  0  0  0
    5.2090   -1.9286    0.0632 C   0  0  0  0  0  0  0  0  0  0  0  0
    3.9968   -1.2700   -0.2008 C   0  0  0  0  0  0  0  0  0  0  0  0
    3.0214   -2.1987   -0.0648 C   0  0  0  0  0  0  0  0  0  0  0  0
    1.6130   -2.0233   -0.1210 N   0  0  0  0  0  0  0  0  0  0  0  0
    1.0297   -0.7811   -0.4062 C   0  0  0  0  0  0  0  0  0  0  0  0
    1.7393    0.2607   -0.7803 N   0  0  0  0  0  0  0  0  0  0  0  0
    1.2827    1.5122   -0.8680 C   0  0  0  0  0  0  0  0  0  0  0  0
   -0.0546    1.6888   -0.5222 C   0  0  0  0  0  0  0  0  0  0  0  0
   -0.7298    3.3123   -0.6189 Cl  0  0  0  0  0  0  0  0  0  0  0  0
   -0.8257    0.6235   -0.1250 C   0  0  0  0  0  0  0  0  0  0  0  0
   -0.3210   -0.6002   -0.0661 N   0  0  0  0  0  0  0  0  0  0  0  0
   -2.1391    0.9436    0.3971 C   0  0  0  0  0  0  0  0  0  0  0  0
   -2.3127    1.8087    1.5049 C   0  0  0  0  0  0  0  0  0  0  0  0
   -3.6096    1.8477    1.7729 N   0  0  0  0  0  0  0  0  0  0  0  0
   -4.2734    1.0600    0.9053 N   0  0  0  0  0  0  0  0  0  0  0  0
   -5.5874    0.8325    0.8240 C   0  0  0  0  0  0  0  0  0  0  0  0
   -6.1454    0.0060   -0.1380 C   0  0  0  0  0  0  0  0  0  0  0  0
   -5.2532   -0.5756   -1.0177 C   0  0  0  0  0  0  0  0  0  0  0  0
   -3.9067   -0.3227   -0.9096 C   0  0  0  0  0  0  0  0  0  0  0  0
   -3.3721    0.5153    0.0713 C   0  0  0  0  0  0  0  0  0  0  0  0
   -7.6122   -0.2092   -0.1606 C   0  0  0  0  0  0  0  0  0  0  0  0
   -8.3291    1.1134   -0.2414 C   0  0  0  0  0  0  0  0  0  0  0  0
   -8.0931   -0.9390    1.0752 C   0  0  0  0  0  0  0  0  0  0  0  0
   -7.9955   -0.9646   -1.2599 O   0  0  0  0  0  0  0  0  0  0  0  0
    3.6426   -3.3600    0.2572 N   0  0  0  0  0  0  0  0  0  0  0  0
    4.9190   -3.1671    0.3272 O   0  0  0  0  0  0  0  0  0  0  0  0
    7.8410    2.7506    0.1756 H   0  0  0  0  0  0  0  0  0  0  0  0
    9.0916    2.2298   -1.0866 H   0  0  0  0  0  0  0  0  0  0  0  0
    7.3841    2.2817   -1.5325 H   0  0  0  0  0  0  0  0  0  0  0  0
   10.0208    0.3712    0.0988 H   0  0  0  0  0  0  0  0  0  0  0  0
    9.7729   -1.9196    0.7296 H   0  0  0  0  0  0  0  0  0  0  0  0
    7.5390   -3.0524    0.7121 H   0  0  0  0  0  0  0  0  0  0  0  0
    5.8079    0.6091   -0.6153 H   0  0  0  0  0  0  0  0  0  0  0  0
    3.9859   -0.2375   -0.4475 H   0  0  0  0  0  0  0  0  0  0  0  0
    1.0154   -2.8666    0.0688 H   0  0  0  0  0  0  0  0  0  0  0  0
    1.8889    2.3448   -1.1838 H   0  0  0  0  0  0  0  0  0  0  0  0
   -1.4856    2.2996    1.9801 H   0  0  0  0  0  0  0  0  0  0  0  0
   -6.3052    1.2919    1.5218 H   0  0  0  0  0  0  0  0  0  0  0  0
   -5.6488   -1.2361   -1.7987 H   0  0  0  0  0  0  0  0  0  0  0  0
   -3.1817   -0.7595   -1.5792 H   0  0  0  0  0  0  0  0  0  0  0  0
   -9.3268    0.9672   -0.6563 H   0  0  0  0  0  0  0  0  0  0  0  0
   -8.3844    1.5124    0.8194 H   0  0  0  0  0  0  0  0  0  0  0  0
   -7.6955    1.8165   -0.8065 H   0  0  0  0  0  0  0  0  0  0  0  0
   -9.2097   -0.9999    0.9739 H   0  0  0  0  0  0  0  0  0  0  0  0
   -7.8720   -0.3238    1.9810 H   0  0  0  0  0  0  0  0  0  0  0  0
   -7.7074   -1.9503    1.1333 H   0  0  0  0  0  0  0  0  0  0  0  0
   -8.1393   -0.2988   -2.0099 H   0  0  0  0  0  0  0  0  0  0  0  0
  1  2  1  0
  2  3  2  0
  3  4  1  0
  4  5  2  0
  5  6  1  0
  6  7  2  0
  6  8  1  0
  8  9  2  0
  9 10  1  0
 10 11  1  0
 11 12  1  0
 12 13  2  0
 13 14  1  0
 14 15  2  0
 15 16  1  0
 15 17  1  0
 17 18  2  0
 17 19  1  0
 19 20  1  0
 20 21  2  0
 21 22  1  0
 22 23  1  0
 23 24  2  0
 24 25  1  0
 25 26  2  0
 26 27  1  0
 24 28  1  0
 28 29  1  0
 28 30  1  0
 28 31  1  0
 10 32  2  0
 32 33  1  0
  7  2  1  0
 33  8  1  0
 18 12  1  0
 27 19  2  0
 27 22  1  0
  1 34  1  0
  1 35  1  0
  1 36  1  0
  3 37  1  0
  4 38  1  0
  5 39  1  0
  7 40  1  0
  9 41  1  0
 11 42  1  0
 14 43  1  0
 20 44  1  0
 23 45  1  0
 25 46  1  0
 26 47  1  0
 29 48  1  0
 29 49  1  0
 29 50  1  0
 30 51  1  0
 30 52  1  0
 30 53  1  0
 31 54  1  0
M  END
$$$$
[H]c1onc(N2[C@]([H])(c3c([H])c([H])c([H])c(OC([H])([H])c4c([H])c([H])c([H])c(Cl)c4[H])c3[H])[C@@]2([H])C([H])([H])C2([H])C([H])([H])C([H])([H])C([H])([H])C([H])([H])C2([H])[H])c1[H]
     RDKit          3D

 57 61  0  0  0  0  0  0  0  0999 V2000
   10.1618    0.1467    1.2639 Cl  0  0  0  0  0  0  0  0  0  0  0  0
    8.4768    0.5676    1.2926 C   0  0  0  0  0  0  0  0  0  0  0  0
    7.9790    1.6858    1.9547 C   0  0  0  0  0  0  0  0  0  0  0  0
    6.6506    2.0130    1.9742 C   0  0  0  0  0  0  0  0  0  0  0  0
    5.7792    1.1703    1.2917 C   0  0  0  0  0  0  0  0  0  0  0  0
    6.2280    0.0572    0.6258 C   0  0  0  0  0  0  0  0  0  0  0  0
    5.2823   -0.8177   -0.0890 C   0  0  0  0  0  0  0  0  0  0  0  0
    3.9804   -0.2954    0.0586 O   0  0  0  0  0  0  0  0  0  0  0  0
    2.8839   -0.9204   -0.5151 C   0  0  0  0  0  0  0  0  0  0  0  0
    3.0859   -2.0655   -1.2353 C   0  0  0  0  0  0  0  0  0  0  0  0
    2.0270   -2.7079   -1.8147 C   0  0  0  0  0  0  0  0  0  0  0  0
    0.7491   -2.1710   -1.6541 C   0  0  0  0  0  0  0  0  0  0  0  0
    0.5305   -1.0317   -0.9401 C   0  0  0  0  0  0  0  0  0  0  0  0
    1.5951   -0.3884   -0.3593 C   0  0  0  0  0  0  0  0  0  0  0  0
   -0.8300   -0.4389   -0.7542 C   0  0  2  0  0  0  0  0  0  0  0  0
   -1.4101   -0.3889    0.5970 C   0  0  1  0  0  0  0  0  0  0  0  0
   -2.2186    0.7006    1.1722 C   0  0  0  0  0  0  0  0  0  0  0  0
   -3.5029    1.0608    0.5173 C   0  0  0  0  0  0  0  0  0  0  0  0
   -4.1949    2.1981    1.2932 C   0  0  0  0  0  0  0  0  0  0  0  0
   -5.6486    2.1797    0.9122 C   0  0  0  0  0  0  0  0  0  0  0  0
   -5.7973    2.0453   -0.5565 C   0  0  0  0  0  0  0  0  0  0  0  0
   -4.5442    2.4180   -1.2886 C   0  0  0  0  0  0  0  0  0  0  0  0
   -3.3950    1.4763   -0.9360 C   0  0  0  0  0  0  0  0  0  0  0  0
   -1.9330   -1.3005   -0.4005 N   0  0  0  0  0  0  0  0  0  0  0  0
   -2.8886   -2.3067   -0.7002 C   0  0  0  0  0  0  0  0  0  0  0  0
   -3.8274   -2.8856    0.1237 C   0  0  0  0  0  0  0  0  0  0  0  0
   -4.5373   -3.8132   -0.6029 C   0  0  0  0  0  0  0  0  0  0  0  0
   -4.0405   -3.7879   -1.8136 O   0  0  0  0  0  0  0  0  0  0  0  0
   -3.0787   -2.9183   -1.8955 N   0  0  0  0  0  0  0  0  0  0  0  0
    7.5677   -0.2540    0.6184 C   0  0  0  0  0  0  0  0  0  0  0  0
    8.7012    2.3148    2.4746 H   0  0  0  0  0  0  0  0  0  0  0  0
    6.3413    2.8944    2.5083 H   0  0  0  0  0  0  0  0  0  0  0  0
    4.7335    1.4203    1.3022 H   0  0  0  0  0  0  0  0  0  0  0  0
    5.5674   -0.8900   -1.1754 H   0  0  0  0  0  0  0  0  0  0  0  0
    5.2948   -1.8666    0.3161 H   0  0  0  0  0  0  0  0  0  0  0  0
    4.0795   -2.5064   -1.3755 H   0  0  0  0  0  0  0  0  0  0  0  0
    2.1530   -3.6142   -2.3898 H   0  0  0  0  0  0  0  0  0  0  0  0
   -0.0609   -2.6844   -2.1127 H   0  0  0  0  0  0  0  0  0  0  0  0
    1.5285    0.5116    0.2206 H   0  0  0  0  0  0  0  0  0  0  0  0
   -1.0970    0.2685   -1.5730 H   0  0  0  0  0  0  0  0  0  0  0  0
   -0.7896   -0.9775    1.3592 H   0  0  0  0  0  0  0  0  0  0  0  0
   -2.4860    0.4308    2.2462 H   0  0  0  0  0  0  0  0  0  0  0  0
   -1.5962    1.6444    1.3370 H   0  0  0  0  0  0  0  0  0  0  0  0
   -4.1942    0.2028    0.5669 H   0  0  0  0  0  0  0  0  0  0  0  0
   -4.1112    2.0230    2.3825 H   0  0  0  0  0  0  0  0  0  0  0  0
   -3.7790    3.1784    0.9737 H   0  0  0  0  0  0  0  0  0  0  0  0
   -6.1652    3.1306    1.2333 H   0  0  0  0  0  0  0  0  0  0  0  0
   -6.1906    1.3173    1.3771 H   0  0  0  0  0  0  0  0  0  0  0  0
   -6.6076    2.7344   -0.9166 H   0  0  0  0  0  0  0  0  0  0  0  0
   -6.1653    1.0233   -0.8531 H   0  0  0  0  0  0  0  0  0  0  0  0
   -4.7298    2.2907   -2.3737 H   0  0  0  0  0  0  0  0  0  0  0  0
   -4.2683    3.4554   -1.1083 H   0  0  0  0  0  0  0  0  0  0  0  0
   -3.4159    0.6385   -1.6252 H   0  0  0  0  0  0  0  0  0  0  0  0
   -2.4824    2.0777   -1.0728 H   0  0  0  0  0  0  0  0  0  0  0  0
   -3.9961   -2.6677    1.1590 H   0  0  0  0  0  0  0  0  0  0  0  0
   -5.3599   -4.4588   -0.2624 H   0  0  0  0  0  0  0  0  0  0  0  0
    7.9657   -1.1186    0.1084 H   0  0  0  0  0  0  0  0  0  0  0  0
  1  2  1  0
  2  3  2  0
  3  4  1  0
  4  5  2  0
  5  6  1  0
  6  7  1  0
  7  8  1  0
  8  9  1  0
  9 10  2  0
 10 11  1  0
 11 12  2  0
 12 13  1  0
 13 14  2  0
 13 15  1  0
 15 16  1  0
 16 17  1  0
 17 18  1  0
 18 19  1  0
 19 20  1  0
 20 21  1  0
 21 22  1  0
 22 23  1  0
 16 24  1  0
 24 25  1  0
 25 26  1  0
 26 27  2  0
 27 28  1  0
 28 29  1  0
  6 30  2  0
 30  2  1  0
 14  9  1  0
 23 18  1  0
 29 25  2  0
 24 15  1  0
  3 31  1  0
  4 32  1  0
  5 33  1  0
  7 34  1  0
  7 35  1  0
 10 36  1  0
 11 37  1  0
 12 38  1  0
 14 39  1  0
 15 40  1  6
 16 41  1  1
 17 42  1  0
 17 43  1  0
 18 44  1  0
 19 45  1  0
 19 46  1  0
 20 47  1  0
 20 48  1  0
 21 49  1  0
 21 50  1  0
 22 51  1  0
 22 52  1  0
 23 53  1  0
 23 54  1  0
 26 55  1  0
 27 56  1  0
 30 57  1  0
M  END
$$$$
[H]c1nc(-c2c(-c3c([H])c([H])c(C(F)(F)F)c([H])c3[H])nc3c([H])c([H])n(C([H])([H])[H])c3c2[H])c([H])c([H])c1C([H])([H])[H]
     RDKit          3D

 43 46  0  0  0  0  0  0  0  0999 V2000
   -2.3003   -4.4601   -1.6470 C   0  0  0  0  0  0  0  0  0  0  0  0
   -1.8120   -3.1145   -1.2905 C   0  0  0  0  0  0  0  0  0  0  0  0
   -2.4817   -2.4139   -0.3264 C   0  0  0  0  0  0  0  0  0  0  0  0
   -2.0969   -1.1679    0.0538 C   0  0  0  0  0  0  0  0  0  0  0  0
   -0.9935   -0.5672   -0.5391 C   0  0  0  0  0  0  0  0  0  0  0  0
   -0.3356   -1.2506   -1.4824 N   0  0  0  0  0  0  0  0  0  0  0  0
   -0.7201   -2.4976   -1.8641 C   0  0  0  0  0  0  0  0  0  0  0  0
   -0.6717    0.7704   -0.0760 C   0  0  0  0  0  0  0  0  0  0  0  0
   -1.6387    1.7886   -0.1375 C   0  0  0  0  0  0  0  0  0  0  0  0
   -1.2800    3.0332    0.3237 C   0  0  0  0  0  0  0  0  0  0  0  0
   -1.9606    4.1802    0.3995 N   0  0  0  0  0  0  0  0  0  0  0  0
   -3.3253    4.3422   -0.0217 C   0  0  0  0  0  0  0  0  0  0  0  0
   -1.1976    5.1572    0.9291 C   0  0  0  0  0  0  0  0  0  0  0  0
    0.0462    4.6437    1.2212 C   0  0  0  0  0  0  0  0  0  0  0  0
   -0.0263    3.3015    0.8320 C   0  0  0  0  0  0  0  0  0  0  0  0
    0.8731    2.3098    0.8777 N   0  0  0  0  0  0  0  0  0  0  0  0
    0.5593    1.0505    0.4285 C   0  0  0  0  0  0  0  0  0  0  0  0
    1.5746    0.0053    0.5032 C   0  0  0  0  0  0  0  0  0  0  0  0
    2.7552    0.3016   -0.1983 C   0  0  0  0  0  0  0  0  0  0  0  0
    3.7883   -0.5984   -0.1700 C   0  0  0  0  0  0  0  0  0  0  0  0
    3.7135   -1.7948    0.5266 C   0  0  0  0  0  0  0  0  0  0  0  0
    2.5331   -2.0388    1.1972 C   0  0  0  0  0  0  0  0  0  0  0  0
    1.4681   -1.1585    1.1945 C   0  0  0  0  0  0  0  0  0  0  0  0
    4.8825   -2.7017    0.5138 C   0  0  0  0  0  0  0  0  0  0  0  0
    5.2154   -3.0866   -0.7479 F   0  0  0  0  0  0  0  0  0  0  0  0
    4.7022   -3.7338    1.4025 F   0  0  0  0  0  0  0  0  0  0  0  0
    5.9424   -1.9458    1.0399 F   0  0  0  0  0  0  0  0  0  0  0  0
   -2.0036   -5.2129   -0.8996 H   0  0  0  0  0  0  0  0  0  0  0  0
   -1.9641   -4.8059   -2.6230 H   0  0  0  0  0  0  0  0  0  0  0  0
   -3.4286   -4.4416   -1.6790 H   0  0  0  0  0  0  0  0  0  0  0  0
   -3.3593   -2.8763    0.1544 H   0  0  0  0  0  0  0  0  0  0  0  0
   -2.6552   -0.6368    0.8266 H   0  0  0  0  0  0  0  0  0  0  0  0
   -0.1844   -3.0516   -2.6319 H   0  0  0  0  0  0  0  0  0  0  0  0
   -2.6113    1.5546   -0.5366 H   0  0  0  0  0  0  0  0  0  0  0  0
   -3.3455    5.1827   -0.7271 H   0  0  0  0  0  0  0  0  0  0  0  0
   -3.7477    3.4445   -0.4785 H   0  0  0  0  0  0  0  0  0  0  0  0
   -3.9180    4.6488    0.8903 H   0  0  0  0  0  0  0  0  0  0  0  0
   -1.4811    6.1880    1.1089 H   0  0  0  0  0  0  0  0  0  0  0  0
    0.9189    5.1237    1.6509 H   0  0  0  0  0  0  0  0  0  0  0  0
    2.8752    1.2159   -0.7580 H   0  0  0  0  0  0  0  0  0  0  0  0
    4.7142   -0.3797   -0.7109 H   0  0  0  0  0  0  0  0  0  0  0  0
    2.4322   -2.9474    1.7446 H   0  0  0  0  0  0  0  0  0  0  0  0
    0.5449   -1.3598    1.7264 H   0  0  0  0  0  0  0  0  0  0  0  0
  1  2  1  0
  2  3  2  0
  3  4  1  0
  4  5  2  0
  5  6  1  0
  6  7  2  0
  5  8  1  0
  8  9  2  0
  9 10  1  0
 10 11  1  0
 11 12  1  0
 11 13  1  0
 13 14  2  0
 14 15  1  0
 15 16  1  0
 16 17  2  0
 17 18  1  0
 18 19  2  0
 19 20  1  0
 20 21  2  0
 21 22  1  0
 22 23  2  0
 21 24  1  0
 24 25  1  0
 24 26  1  0
 24 27  1  0
  7  2  1  0
 17  8  1  0
 23 18  1  0
 15 10  2  0
  1 28  1  0
  1 29  1  0
  1 30  1  0
  3 31  1  0
  4 32  1  0
  7 33  1  0
  9 34  1  0
 12 35  1  0
 12 36  1  0
 12 37  1  0
 13 38  1  0
 14 39  1  0
 19 40  1  0
 20 41  1  0
 22 42  1  0
 23 43  1  0
M  END
$$$$
[H]c1c([H])c(-c2nnc(N3C([H])([H])c4c([H])c(OC([H])([H])[H])c(OC([H])([H])[H])c([H])c4C([H])([H])C3([H])[H])o2)c(Cl)c(Cl)c1OC([H])([H])C([H])([H])C(F)(F)F
     RDKit          3D

 54 57  0  0  0  0  0  0  0  0999 V2000
   -7.5742   -2.1416   -2.6201 C   0  0  0  0  0  0  0  0  0  0  0  0
   -7.6780   -1.4884   -1.3618 O   0  0  0  0  0  0  0  0  0  0  0  0
   -6.5226   -0.9559   -0.8106 C   0  0  0  0  0  0  0  0  0  0  0  0
   -5.2920   -1.0461   -1.4500 C   0  0  0  0  0  0  0  0  0  0  0  0
   -4.1477   -0.5140   -0.8952 C   0  0  0  0  0  0  0  0  0  0  0  0
   -2.8720   -0.6361   -1.6114 C   0  0  0  0  0  0  0  0  0  0  0  0
   -2.0045    0.5582   -1.2758 C   0  0  0  0  0  0  0  0  0  0  0  0
   -1.8620    0.6478    0.1505 N   0  0  0  0  0  0  0  0  0  0  0  0
   -3.0273    0.7225    0.9828 C   0  0  0  0  0  0  0  0  0  0  0  0
   -4.2174    0.1228    0.3196 C   0  0  0  0  0  0  0  0  0  0  0  0
   -5.4244    0.2227    0.9680 C   0  0  0  0  0  0  0  0  0  0  0  0
   -6.5755   -0.3220    0.3924 C   0  0  0  0  0  0  0  0  0  0  0  0
   -7.7970   -0.2172    1.0556 O   0  0  0  0  0  0  0  0  0  0  0  0
   -7.8960    0.4294    2.2998 C   0  0  0  0  0  0  0  0  0  0  0  0
   -0.5728    0.6632    0.7446 C   0  0  0  0  0  0  0  0  0  0  0  0
   -0.2982    0.7434    2.0604 N   0  0  0  0  0  0  0  0  0  0  0  0
    1.0120    0.7287    2.1961 N   0  0  0  0  0  0  0  0  0  0  0  0
    1.5917    0.6403    0.9890 C   0  0  0  0  0  0  0  0  0  0  0  0
    0.5984    0.6031    0.1408 O   0  0  0  0  0  0  0  0  0  0  0  0
    3.0174    0.5955    0.6915 C   0  0  0  0  0  0  0  0  0  0  0  0
    3.9229    0.6461    1.7252 C   0  0  0  0  0  0  0  0  0  0  0  0
    5.3017    0.6055    1.4804 C   0  0  0  0  0  0  0  0  0  0  0  0
    5.7874    0.5136    0.1939 C   0  0  0  0  0  0  0  0  0  0  0  0
    7.1476    0.4731   -0.0550 O   0  0  0  0  0  0  0  0  0  0  0  0
    8.0375    0.5266    1.0190 C   0  0  0  0  0  0  0  0  0  0  0  0
    9.4838    0.4727    0.5867 C   0  0  0  0  0  0  0  0  0  0  0  0
    9.6684   -0.8454   -0.1540 C   0  0  0  0  0  0  0  0  0  0  0  0
    8.8090   -0.8378   -1.2380 F   0  0  0  0  0  0  0  0  0  0  0  0
   10.9719   -1.0377   -0.5495 F   0  0  0  0  0  0  0  0  0  0  0  0
    9.2473   -1.8419    0.7204 F   0  0  0  0  0  0  0  0  0  0  0  0
    4.8529    0.4649   -0.8173 C   0  0  0  0  0  0  0  0  0  0  0  0
    5.4855    0.3468   -2.4667 Cl  0  0  0  0  0  0  0  0  0  0  0  0
    3.4949    0.5037   -0.5934 C   0  0  0  0  0  0  0  0  0  0  0  0
    2.3595    0.4377   -1.9284 Cl  0  0  0  0  0  0  0  0  0  0  0  0
   -6.9582   -3.0576   -2.5535 H   0  0  0  0  0  0  0  0  0  0  0  0
   -7.0652   -1.4714   -3.3679 H   0  0  0  0  0  0  0  0  0  0  0  0
   -8.6016   -2.3566   -3.0286 H   0  0  0  0  0  0  0  0  0  0  0  0
   -5.2687   -1.5531   -2.4049 H   0  0  0  0  0  0  0  0  0  0  0  0
   -2.3401   -1.5316   -1.2028 H   0  0  0  0  0  0  0  0  0  0  0  0
   -3.0168   -0.7254   -2.6928 H   0  0  0  0  0  0  0  0  0  0  0  0
   -1.0226    0.4108   -1.7352 H   0  0  0  0  0  0  0  0  0  0  0  0
   -2.4759    1.5121   -1.6142 H   0  0  0  0  0  0  0  0  0  0  0  0
   -3.2213    1.8054    1.2144 H   0  0  0  0  0  0  0  0  0  0  0  0
   -2.8618    0.2390    1.9886 H   0  0  0  0  0  0  0  0  0  0  0  0
   -5.5283    0.7147    1.9257 H   0  0  0  0  0  0  0  0  0  0  0  0
   -7.1892    0.0009    3.0129 H   0  0  0  0  0  0  0  0  0  0  0  0
   -7.7786    1.5358    2.1730 H   0  0  0  0  0  0  0  0  0  0  0  0
   -8.9344    0.2315    2.6868 H   0  0  0  0  0  0  0  0  0  0  0  0
    3.5588    0.7186    2.7433 H   0  0  0  0  0  0  0  0  0  0  0  0
    6.0124    0.6456    2.2958 H   0  0  0  0  0  0  0  0  0  0  0  0
    7.9039    1.5010    1.5668 H   0  0  0  0  0  0  0  0  0  0  0  0
    7.8953   -0.2946    1.7580 H   0  0  0  0  0  0  0  0  0  0  0  0
   10.1421    0.5637    1.4570 H   0  0  0  0  0  0  0  0  0  0  0  0
    9.7222    1.3270   -0.0966 H   0  0  0  0  0  0  0  0  0  0  0  0
  1  2  1  0
  2  3  1  0
  3  4  2  0
  4  5  1  0
  5  6  1  0
  6  7  1  0
  7  8  1  0
  8  9  1  0
  9 10  1  0
 10 11  1  0
 11 12  2  0
 12 13  1  0
 13 14  1  0
  8 15  1  0
 15 16  2  0
 16 17  1  0
 17 18  2  0
 18 19  1  0
 18 20  1  0
 20 21  2  0
 21 22  1  0
 22 23  2  0
 23 24  1  0
 24 25  1  0
 25 26  1  0
 26 27  1  0
 27 28  1  0
 27 29  1  0
 27 30  1  0
 23 31  1  0
 31 32  1  0
 31 33  2  0
 33 34  1  0
 12  3  1  0
 19 15  1  0
 33 20  1  0
 10  5  2  0
  1 35  1  0
  1 36  1  0
  1 37  1  0
  4 38  1  0
  6 39  1  0
  6 40  1  0
  7 41  1  0
  7 42  1  0
  9 43  1  0
  9 44  1  0
 11 45  1  0
 14 46  1  0
 14 47  1  0
 14 48  1  0
 21 49  1  0
 22 50  1  0
 25 51  1  0
 25 52  1  0
 26 53  1  0
 26 54  1  0
M  END
$$$$
[H]c1c([H])c([H])c(C([H])([H])c2c([H])c([H])c([H])c(OC([H])([H])[H])c2N([H])[H])c(C(=O)N([H])[H])c1[H]
     RDKit          3D

 35 36  0  0  0  0  0  0  0  0999 V2000
    4.3804    2.1155    0.9692 C   0  0  0  0  0  0  0  0  0  0  0  0
    3.1020    1.8827    0.4693 O   0  0  0  0  0  0  0  0  0  0  0  0
    2.5993    0.6721    0.0861 C   0  0  0  0  0  0  0  0  0  0  0  0
    3.3325   -0.4777    0.1548 C   0  0  0  0  0  0  0  0  0  0  0  0
    2.7740   -1.6721   -0.2468 C   0  0  0  0  0  0  0  0  0  0  0  0
    1.5001   -1.6681   -0.7018 C   0  0  0  0  0  0  0  0  0  0  0  0
    0.6812   -0.5140   -0.7993 C   0  0  0  0  0  0  0  0  0  0  0  0
   -0.6986   -0.7345   -1.2858 C   0  0  0  0  0  0  0  0  0  0  0  0
   -1.7370   -0.9009   -0.2691 C   0  0  0  0  0  0  0  0  0  0  0  0
   -1.7225   -2.1493    0.3981 C   0  0  0  0  0  0  0  0  0  0  0  0
   -2.5439   -2.3751    1.4560 C   0  0  0  0  0  0  0  0  0  0  0  0
   -3.4218   -1.4342    1.9393 C   0  0  0  0  0  0  0  0  0  0  0  0
   -3.4433   -0.2278    1.2981 C   0  0  0  0  0  0  0  0  0  0  0  0
   -2.6005    0.0334    0.1925 C   0  0  0  0  0  0  0  0  0  0  0  0
   -2.9078    1.3033   -0.4611 C   0  0  0  0  0  0  0  0  0  0  0  0
   -2.7436    1.5982   -1.8319 N   0  0  0  0  0  0  0  0  0  0  0  0
   -3.3737    2.2276    0.2772 O   0  0  0  0  0  0  0  0  0  0  0  0
    1.2656    0.6255   -0.3991 C   0  0  0  0  0  0  0  0  0  0  0  0
    0.5678    1.8605   -0.4803 N   0  0  0  0  0  0  0  0  0  0  0  0
    4.4209    1.7876    2.0347 H   0  0  0  0  0  0  0  0  0  0  0  0
    5.1817    1.5025    0.4597 H   0  0  0  0  0  0  0  0  0  0  0  0
    4.7198    3.1689    0.8466 H   0  0  0  0  0  0  0  0  0  0  0  0
    4.3600   -0.4108    0.5343 H   0  0  0  0  0  0  0  0  0  0  0  0
    3.3945   -2.5552   -0.1742 H   0  0  0  0  0  0  0  0  0  0  0  0
    1.0848   -2.6316   -1.0143 H   0  0  0  0  0  0  0  0  0  0  0  0
   -0.7056   -1.7185   -1.8822 H   0  0  0  0  0  0  0  0  0  0  0  0
   -0.9683    0.0055   -2.0715 H   0  0  0  0  0  0  0  0  0  0  0  0
   -1.0379   -2.9401    0.0511 H   0  0  0  0  0  0  0  0  0  0  0  0
   -2.5153   -3.3436    1.9541 H   0  0  0  0  0  0  0  0  0  0  0  0
   -4.0755   -1.6287    2.7935 H   0  0  0  0  0  0  0  0  0  0  0  0
   -4.1324    0.5291    1.6647 H   0  0  0  0  0  0  0  0  0  0  0  0
   -2.0831    2.3394   -2.1135 H   0  0  0  0  0  0  0  0  0  0  0  0
   -3.2722    1.0858   -2.5549 H   0  0  0  0  0  0  0  0  0  0  0  0
    0.2147    2.2368   -1.3809 H   0  0  0  0  0  0  0  0  0  0  0  0
    0.4037    2.4076    0.3863 H   0  0  0  0  0  0  0  0  0  0  0  0
  1  2  1  0
  2  3  1  0
  3  4  2  0
  4  5  1  0
  5  6  2  0
  6  7  1  0
  7  8  1  0
  8  9  1  0
  9 10  2  0
 10 11  1  0
 11 12  2  0
 12 13  1  0
 13 14  2  0
 14 15  1  0
 15 16  1  0
 15 17  2  0
  7 18  2  0
 18 19  1  0
 18  3  1  0
 14  9  1  0
  1 20  1  0
  1 21  1  0
  1 22  1  0
  4 23  1  0
  5 24  1  0
  6 25  1  0
  8 26  1  0
  8 27  1  0
 10 28  1  0
 11 29  1  0
 12 30  1  0
 13 31  1  0
 16 32  1  0
 16 33  1  0
 19 34  1  0
 19 35  1  0
M  END
$$$$
[H]c1nc(N([H])C(=O)c2c([H])c([H])c(N(C([H])([H])C([H])([H])[H])C([H])([H])C([H])([H])[H])c([H])c2[H])nc([H])c1C(=O)N([H])[C@]1([H])C([H])([H])C([H])([H])C([H])([H])C([H])([H])[C@]1([H])Oc1c([H])c([H])c(F)c(C(F)(F)F)c1[H]
     RDKit          3D

 72 75  0  0  0  0  0  0  0  0999 V2000
   10.8832    0.4826   -0.8163 C   0  0  0  0  0  0  0  0  0  0  0  0
    9.9582   -0.6928   -0.5403 C   0  0  0  0  0  0  0  0  0  0  0  0
    9.1231   -0.4171    0.6244 N   0  0  0  0  0  0  0  0  0  0  0  0
    9.7678   -0.3555    1.9290 C   0  0  0  0  0  0  0  0  0  0  0  0
   10.2414   -1.7258    2.3601 C   0  0  0  0  0  0  0  0  0  0  0  0
    7.7266   -0.2098    0.5259 C   0  0  0  0  0  0  0  0  0  0  0  0
    6.9241   -0.0642    1.6287 C   0  0  0  0  0  0  0  0  0  0  0  0
    5.5542    0.1403    1.4922 C   0  0  0  0  0  0  0  0  0  0  0  0
    4.9528    0.2039    0.2629 C   0  0  0  0  0  0  0  0  0  0  0  0
    5.7504    0.0598   -0.8353 C   0  0  0  0  0  0  0  0  0  0  0  0
    7.1242   -0.1454   -0.7160 C   0  0  0  0  0  0  0  0  0  0  0  0
    3.5259    0.4075    0.1201 C   0  0  0  0  0  0  0  0  0  0  0  0
    2.8787    0.7262    1.1609 O   0  0  0  0  0  0  0  0  0  0  0  0
    2.8091    0.2736   -1.0894 N   0  0  0  0  0  0  0  0  0  0  0  0
    1.3982    0.4765   -1.1259 C   0  0  0  0  0  0  0  0  0  0  0  0
    0.8081    0.3206   -2.3420 N   0  0  0  0  0  0  0  0  0  0  0  0
   -0.5120    0.4836   -2.4231 C   0  0  0  0  0  0  0  0  0  0  0  0
   -1.2697    0.7985   -1.3272 C   0  0  0  0  0  0  0  0  0  0  0  0
   -0.6523    0.9519   -0.1076 C   0  0  0  0  0  0  0  0  0  0  0  0
    0.6849    0.7824   -0.0478 N   0  0  0  0  0  0  0  0  0  0  0  0
   -2.7252    0.9631   -1.4593 C   0  0  0  0  0  0  0  0  0  0  0  0
   -3.1977    0.8966   -2.6336 O   0  0  0  0  0  0  0  0  0  0  0  0
   -3.5917    1.1837   -0.3764 N   0  0  0  0  0  0  0  0  0  0  0  0
   -5.0084    1.3342   -0.5837 C   0  0  2  0  0  0  0  0  0  0  0  0
   -5.3368    2.7625   -0.1228 C   0  0  0  0  0  0  0  0  0  0  0  0
   -4.9768    2.9548    1.3135 C   0  0  0  0  0  0  0  0  0  0  0  0
   -5.3555    1.8594    2.2380 C   0  0  0  0  0  0  0  0  0  0  0  0
   -5.3790    0.4822    1.6802 C   0  0  0  0  0  0  0  0  0  0  0  0
   -5.8717    0.4418    0.2553 C   0  0  2  0  0  0  0  0  0  0  0  0
   -5.8673   -0.8945   -0.1618 O   0  0  0  0  0  0  0  0  0  0  0  0
   -6.9376   -1.6535   -0.5403 C   0  0  0  0  0  0  0  0  0  0  0  0
   -6.7230   -2.9680   -0.9120 C   0  0  0  0  0  0  0  0  0  0  0  0
   -7.7374   -3.8075   -1.3080 C   0  0  0  0  0  0  0  0  0  0  0  0
   -9.0167   -3.3319   -1.3392 C   0  0  0  0  0  0  0  0  0  0  0  0
  -10.0486   -4.1539   -1.7325 F   0  0  0  0  0  0  0  0  0  0  0  0
   -9.2798   -2.0373   -0.9799 C   0  0  0  0  0  0  0  0  0  0  0  0
   -8.2454   -1.2174   -0.5873 C   0  0  0  0  0  0  0  0  0  0  0  0
  -10.6761   -1.5359   -1.0211 C   0  0  0  0  0  0  0  0  0  0  0  0
  -11.5074   -2.2619   -0.1882 F   0  0  0  0  0  0  0  0  0  0  0  0
  -10.7235   -0.1789   -0.7427 F   0  0  0  0  0  0  0  0  0  0  0  0
  -11.2138   -1.6660   -2.3010 F   0  0  0  0  0  0  0  0  0  0  0  0
   10.6003    0.9687   -1.7657 H   0  0  0  0  0  0  0  0  0  0  0  0
   10.8224    1.2312    0.0051 H   0  0  0  0  0  0  0  0  0  0  0  0
   11.9381    0.1524   -0.8766 H   0  0  0  0  0  0  0  0  0  0  0  0
   10.6240   -1.5620   -0.2722 H   0  0  0  0  0  0  0  0  0  0  0  0
    9.3690   -0.9889   -1.3939 H   0  0  0  0  0  0  0  0  0  0  0  0
   10.7117    0.2664    1.8072 H   0  0  0  0  0  0  0  0  0  0  0  0
    9.1622    0.1394    2.6464 H   0  0  0  0  0  0  0  0  0  0  0  0
   10.6426   -1.6153    3.3988 H   0  0  0  0  0  0  0  0  0  0  0  0
   11.0245   -2.0568    1.6695 H   0  0  0  0  0  0  0  0  0  0  0  0
    9.3731   -2.4260    2.3791 H   0  0  0  0  0  0  0  0  0  0  0  0
    7.3414   -0.1166    2.6419 H   0  0  0  0  0  0  0  0  0  0  0  0
    4.9449    0.2565    2.3892 H   0  0  0  0  0  0  0  0  0  0  0  0
    5.3613    0.0971   -1.8510 H   0  0  0  0  0  0  0  0  0  0  0  0
    7.6879   -0.2410   -1.6240 H   0  0  0  0  0  0  0  0  0  0  0  0
    3.3470    0.0118   -1.9430 H   0  0  0  0  0  0  0  0  0  0  0  0
   -0.9692    0.3556   -3.4058 H   0  0  0  0  0  0  0  0  0  0  0  0
   -1.1941    1.2006    0.7915 H   0  0  0  0  0  0  0  0  0  0  0  0
   -3.2017    1.2417    0.5816 H   0  0  0  0  0  0  0  0  0  0  0  0
   -5.2422    1.2412   -1.6674 H   0  0  0  0  0  0  0  0  0  0  0  0
   -6.4368    2.8643   -0.2246 H   0  0  0  0  0  0  0  0  0  0  0  0
   -4.8878    3.5046   -0.7922 H   0  0  0  0  0  0  0  0  0  0  0  0
   -5.3260    3.9426    1.7038 H   0  0  0  0  0  0  0  0  0  0  0  0
   -3.8498    3.0364    1.3558 H   0  0  0  0  0  0  0  0  0  0  0  0
   -6.3886    2.1064    2.6296 H   0  0  0  0  0  0  0  0  0  0  0  0
   -4.6950    1.9263    3.1501 H   0  0  0  0  0  0  0  0  0  0  0  0
   -6.0044   -0.2165    2.2933 H   0  0  0  0  0  0  0  0  0  0  0  0
   -4.3532    0.0258    1.6788 H   0  0  0  0  0  0  0  0  0  0  0  0
   -6.8921    0.8866    0.2691 H   0  0  0  0  0  0  0  0  0  0  0  0
   -5.7084   -3.3759   -0.8964 H   0  0  0  0  0  0  0  0  0  0  0  0
   -7.5685   -4.8433   -1.5991 H   0  0  0  0  0  0  0  0  0  0  0  0
   -8.4901   -0.2042   -0.3097 H   0  0  0  0  0  0  0  0  0  0  0  0
  1  2  1  0
  2  3  1  0
  3  4  1  0
  4  5  1  0
  3  6  1  0
  6  7  2  0
  7  8  1  0
  8  9  2  0
  9 10  1  0
 10 11  2  0
  9 12  1  0
 12 13  2  0
 12 14  1  0
 14 15  1  0
 15 16  2  0
 16 17  1  0
 17 18  2  0
 18 19  1  0
 19 20  2  0
 18 21  1  0
 21 22  2  0
 21 23  1  0
 23 24  1  0
 24 25  1  0
 25 26  1  0
 26 27  1  0
 27 28  1  0
 28 29  1  0
 29 30  1  0
 30 31  1  0
 31 32  2  0
 32 33  1  0
 33 34  2  0
 34 35  1  0
 34 36  1  0
 36 37  2  0
 36 38  1  0
 38 39  1  0
 38 40  1  0
 38 41  1  0
 11  6  1  0
 20 15  1  0
 29 24  1  0
 37 31  1  0
  1 42  1  0
  1 43  1  0
  1 44  1  0
  2 45  1  0
  2 46  1  0
  4 47  1  0
  4 48  1  0
  5 49  1  0
  5 50  1  0
  5 51  1  0
  7 52  1  0
  8 53  1  0
 10 54  1  0
 11 55  1  0
 14 56  1  0
 17 57  1  0
 19 58  1  0
 23 59  1  0
 24 60  1  6
 25 61  1  0
 25 62  1  0
 26 63  1  0
 26 64  1  0
 27 65  1  0
 27 66  1  0
 28 67  1  0
 28 68  1  0
 29 69  1  1
 32 70  1  0
 33 71  1  0
 37 72  1  0
M  END
$$$$
[H]c1nn(C([H])([H])[H])c([H])c1-c1c([H])c(N([H])[H])c2nc([H])n(-c3c([H])nc(N4C([H])([H])C([H])([H])OC([H])([H])C4([H])[H])nc3[H])c2c1C([H])([H])C(F)(F)F
     RDKit          3D

 54 58  0  0  0  0  0  0  0  0999 V2000
   -6.0921    3.2627    0.2580 C   0  0  0  0  0  0  0  0  0  0  0  0
   -5.5770    1.9749   -0.1347 N   0  0  0  0  0  0  0  0  0  0  0  0
   -4.4734    1.3198    0.3401 C   0  0  0  0  0  0  0  0  0  0  0  0
   -4.3350    0.1290   -0.2942 C   0  0  0  0  0  0  0  0  0  0  0  0
   -5.3867    0.0429   -1.1903 C   0  0  0  0  0  0  0  0  0  0  0  0
   -6.0941    1.1758   -1.0486 N   0  0  0  0  0  0  0  0  0  0  0  0
   -3.3591   -0.9136   -0.0865 C   0  0  0  0  0  0  0  0  0  0  0  0
   -3.9295   -2.1691    0.2270 C   0  0  0  0  0  0  0  0  0  0  0  0
   -3.1687   -3.2144    0.5516 C   0  0  0  0  0  0  0  0  0  0  0  0
   -3.7114   -4.5164    0.8758 N   0  0  0  0  0  0  0  0  0  0  0  0
   -1.8140   -3.0541    0.5809 C   0  0  0  0  0  0  0  0  0  0  0  0
   -0.8457   -3.9450    0.9177 N   0  0  0  0  0  0  0  0  0  0  0  0
    0.3230   -3.3519    0.8485 C   0  0  0  0  0  0  0  0  0  0  0  0
    0.0693   -2.0364    0.4512 N   0  0  0  0  0  0  0  0  0  0  0  0
    1.1867   -1.1816    0.3899 C   0  0  0  0  0  0  0  0  0  0  0  0
    1.9367   -1.0269   -0.7170 C   0  0  0  0  0  0  0  0  0  0  0  0
    3.0561   -0.2699   -0.7661 N   0  0  0  0  0  0  0  0  0  0  0  0
    3.4436    0.3632    0.3476 C   0  0  0  0  0  0  0  0  0  0  0  0
    2.7209    0.2442    1.5056 N   0  0  0  0  0  0  0  0  0  0  0  0
    1.5926   -0.5260    1.5332 C   0  0  0  0  0  0  0  0  0  0  0  0
    4.6149    1.1624    0.3182 N   0  0  0  0  0  0  0  0  0  0  0  0
    5.3651    1.2863   -0.8979 C   0  0  0  0  0  0  0  0  0  0  0  0
    6.8309    1.0308   -0.5400 C   0  0  0  0  0  0  0  0  0  0  0  0
    7.1708    1.9870    0.4075 O   0  0  0  0  0  0  0  0  0  0  0  0
    6.5606    1.6871    1.6115 C   0  0  0  0  0  0  0  0  0  0  0  0
    5.0542    1.8490    1.5020 C   0  0  0  0  0  0  0  0  0  0  0  0
   -1.2213   -1.8365    0.2781 C   0  0  0  0  0  0  0  0  0  0  0  0
   -2.0011   -0.7089   -0.0779 C   0  0  0  0  0  0  0  0  0  0  0  0
   -1.3251    0.5044   -0.5030 C   0  0  0  0  0  0  0  0  0  0  0  0
   -1.2029    0.7306   -2.0026 C   0  0  0  0  0  0  0  0  0  0  0  0
   -0.4657    1.9137   -2.2312 F   0  0  0  0  0  0  0  0  0  0  0  0
   -0.7950   -0.3311   -2.7327 F   0  0  0  0  0  0  0  0  0  0  0  0
   -2.4240    1.1059   -2.5983 F   0  0  0  0  0  0  0  0  0  0  0  0
   -7.1983    3.3079    0.2307 H   0  0  0  0  0  0  0  0  0  0  0  0
   -5.7234    4.0771   -0.4039 H   0  0  0  0  0  0  0  0  0  0  0  0
   -5.7922    3.4269    1.3205 H   0  0  0  0  0  0  0  0  0  0  0  0
   -3.8855    1.7869    1.1178 H   0  0  0  0  0  0  0  0  0  0  0  0
   -5.5902   -0.7797   -1.8675 H   0  0  0  0  0  0  0  0  0  0  0  0
   -5.0002   -2.2679    0.1981 H   0  0  0  0  0  0  0  0  0  0  0  0
   -4.1393   -4.6115    1.8224 H   0  0  0  0  0  0  0  0  0  0  0  0
   -3.6840   -5.3076    0.2231 H   0  0  0  0  0  0  0  0  0  0  0  0
    1.3251   -3.7281    1.0410 H   0  0  0  0  0  0  0  0  0  0  0  0
    1.6517   -1.5343   -1.6623 H   0  0  0  0  0  0  0  0  0  0  0  0
    1.0605   -0.5842    2.4752 H   0  0  0  0  0  0  0  0  0  0  0  0
    5.0358    0.5088   -1.6315 H   0  0  0  0  0  0  0  0  0  0  0  0
    5.2247    2.2881   -1.3207 H   0  0  0  0  0  0  0  0  0  0  0  0
    7.4820    1.0442   -1.4186 H   0  0  0  0  0  0  0  0  0  0  0  0
    6.8630    0.0124   -0.1041 H   0  0  0  0  0  0  0  0  0  0  0  0
    6.8844    2.4287    2.3897 H   0  0  0  0  0  0  0  0  0  0  0  0
    6.8359    0.6559    1.9128 H   0  0  0  0  0  0  0  0  0  0  0  0
    4.8604    2.9328    1.3523 H   0  0  0  0  0  0  0  0  0  0  0  0
    4.5770    1.4442    2.4051 H   0  0  0  0  0  0  0  0  0  0  0  0
   -0.4493    0.8454    0.0378 H   0  0  0  0  0  0  0  0  0  0  0  0
   -2.0422    1.3664   -0.2260 H   0  0  0  0  0  0  0  0  0  0  0  0
  1  2  1  0
  2  3  1  0
  3  4  2  0
  4  5  1  0
  5  6  2  0
  4  7  1  0
  7  8  2  0
  8  9  1  0
  9 10  1  0
  9 11  2  0
 11 12  1  0
 12 13  2  0
 13 14  1  0
 14 15  1  0
 15 16  2  0
 16 17  1  0
 17 18  2  0
 18 19  1  0
 19 20  2  0
 18 21  1  0
 21 22  1  0
 22 23  1  0
 23 24  1  0
 24 25  1  0
 25 26  1  0
 14 27  1  0
 27 28  2  0
 28 29  1  0
 29 30  1  0
 30 31  1  0
 30 32  1  0
 30 33  1  0
  6  2  1  0
 28  7  1  0
 27 11  1  0
 20 15  1  0
 26 21  1  0
  1 34  1  0
  1 35  1  0
  1 36  1  0
  3 37  1  0
  5 38  1  0
  8 39  1  0
 10 40  1  0
 10 41  1  0
 13 42  1  0
 16 43  1  0
 20 44  1  0
 22 45  1  0
 22 46  1  0
 23 47  1  0
 23 48  1  0
 25 49  1  0
 25 50  1  0
 26 51  1  0
 26 52  1  0
 29 53  1  0
 29 54  1  0
M  END
$$$$
[H]OC([H])([H])C(=O)N1C([H])([H])C([H])([H])C([H])(C(=O)N([H])c2c([H])c([H])c(N([H])c3nc(-c4c([H])c([H])c([H])c([H])c4C([H])([H])[H])c([H])s3)c([H])c2[H])C([H])([H])C1([H])[H]
     RDKit          3D

 58 61  0  0  0  0  0  0  0  0999 V2000
    6.8433    1.9633    0.0751 O   0  0  0  0  0  0  0  0  0  0  0  0
    7.1395    0.8379    0.7542 C   0  0  0  0  0  0  0  0  0  0  0  0
    6.6999   -0.3917    0.1030 C   0  0  0  0  0  0  0  0  0  0  0  0
    6.8819   -1.4805    0.8161 O   0  0  0  0  0  0  0  0  0  0  0  0
    6.1290   -0.4969   -1.1544 N   0  0  0  0  0  0  0  0  0  0  0  0
    5.8497    0.4816   -2.1483 C   0  0  0  0  0  0  0  0  0  0  0  0
    4.3429    0.6864   -2.1460 C   0  0  0  0  0  0  0  0  0  0  0  0
    3.6056   -0.6203   -2.3011 C   0  0  0  0  0  0  0  0  0  0  0  0
    4.1857   -1.7810   -1.5875 C   0  0  0  0  0  0  0  0  0  0  0  0
    5.6872   -1.8666   -1.5720 C   0  0  0  0  0  0  0  0  0  0  0  0
    2.2385   -0.3734   -1.6681 C   0  0  0  0  0  0  0  0  0  0  0  0
    1.2135   -0.4956   -2.3421 O   0  0  0  0  0  0  0  0  0  0  0  0
    2.2579   -0.0123   -0.3144 N   0  0  0  0  0  0  0  0  0  0  0  0
    1.1597    0.2760    0.5072 C   0  0  0  0  0  0  0  0  0  0  0  0
   -0.0838    0.5150    0.0283 C   0  0  0  0  0  0  0  0  0  0  0  0
   -1.1791    0.7858    0.8620 C   0  0  0  0  0  0  0  0  0  0  0  0
   -1.0173    0.8162    2.2081 C   0  0  0  0  0  0  0  0  0  0  0  0
   -2.0539    1.0581    3.1257 N   0  0  0  0  0  0  0  0  0  0  0  0
   -3.4310    0.9597    2.7996 C   0  0  0  0  0  0  0  0  0  0  0  0
   -4.0713    0.6387    1.7309 N   0  0  0  0  0  0  0  0  0  0  0  0
   -5.3904    0.6141    1.6492 C   0  0  0  0  0  0  0  0  0  0  0  0
   -6.0502    0.9595    2.7937 C   0  0  0  0  0  0  0  0  0  0  0  0
   -4.7551    1.2845    3.8793 S   0  0  0  0  0  0  0  0  0  0  0  0
   -6.0351    0.2800    0.3451 C   0  0  0  0  0  0  0  0  0  0  0  0
   -5.3132    0.4760   -0.8449 C   0  0  0  0  0  0  0  0  0  0  0  0
   -5.8110    0.1512   -2.0828 C   0  0  0  0  0  0  0  0  0  0  0  0
   -7.0656   -0.3907   -2.2003 C   0  0  0  0  0  0  0  0  0  0  0  0
   -7.7844   -0.5906   -1.0554 C   0  0  0  0  0  0  0  0  0  0  0  0
   -7.2660   -0.2557    0.2101 C   0  0  0  0  0  0  0  0  0  0  0  0
   -8.1307   -0.5788    1.3617 C   0  0  0  0  0  0  0  0  0  0  0  0
    0.2632    0.5729    2.7416 C   0  0  0  0  0  0  0  0  0  0  0  0
    1.2945    0.3154    1.9033 C   0  0  0  0  0  0  0  0  0  0  0  0
    7.5309    2.6503    0.0472 H   0  0  0  0  0  0  0  0  0  0  0  0
    8.2533    0.8054    0.9216 H   0  0  0  0  0  0  0  0  0  0  0  0
    6.6255    0.9031    1.7519 H   0  0  0  0  0  0  0  0  0  0  0  0
    6.3239    1.4521   -2.0190 H   0  0  0  0  0  0  0  0  0  0  0  0
    6.1644    0.0242   -3.1369 H   0  0  0  0  0  0  0  0  0  0  0  0
    4.0672    1.2533   -1.2566 H   0  0  0  0  0  0  0  0  0  0  0  0
    4.1067    1.3012   -3.0384 H   0  0  0  0  0  0  0  0  0  0  0  0
    3.3997   -0.8317   -3.3647 H   0  0  0  0  0  0  0  0  0  0  0  0
    3.8392   -1.8854   -0.5393 H   0  0  0  0  0  0  0  0  0  0  0  0
    3.8163   -2.7143   -2.1058 H   0  0  0  0  0  0  0  0  0  0  0  0
    5.9956   -2.5717   -0.8065 H   0  0  0  0  0  0  0  0  0  0  0  0
    6.1383   -2.0574   -2.5450 H   0  0  0  0  0  0  0  0  0  0  0  0
    3.2267    0.0608    0.1725 H   0  0  0  0  0  0  0  0  0  0  0  0
   -0.3219    0.5265   -1.0439 H   0  0  0  0  0  0  0  0  0  0  0  0
   -2.1478    0.9813    0.3707 H   0  0  0  0  0  0  0  0  0  0  0  0
   -1.8197    1.3310    4.1161 H   0  0  0  0  0  0  0  0  0  0  0  0
   -7.1313    1.0495    3.0159 H   0  0  0  0  0  0  0  0  0  0  0  0
   -4.3143    0.9126   -0.7241 H   0  0  0  0  0  0  0  0  0  0  0  0
   -5.2386    0.3110   -2.9754 H   0  0  0  0  0  0  0  0  0  0  0  0
   -7.4913   -0.6603   -3.1776 H   0  0  0  0  0  0  0  0  0  0  0  0
   -8.7728   -1.0172   -1.1354 H   0  0  0  0  0  0  0  0  0  0  0  0
   -8.8751   -1.3847    1.0290 H   0  0  0  0  0  0  0  0  0  0  0  0
   -7.6182   -1.0704    2.2028 H   0  0  0  0  0  0  0  0  0  0  0  0
   -8.7966    0.2614    1.6235 H   0  0  0  0  0  0  0  0  0  0  0  0
    0.3843    0.6011    3.8421 H   0  0  0  0  0  0  0  0  0  0  0  0
    2.3014    0.1221    2.2988 H   0  0  0  0  0  0  0  0  0  0  0  0
  1  2  1  0
  2  3  1  0
  3  4  2  0
  3  5  1  0
  5  6  1  0
  6  7  1  0
  7  8  1  0
  8  9  1  0
  9 10  1  0
  8 11  1  0
 11 12  2  0
 11 13  1  0
 13 14  1  0
 14 15  2  0
 15 16  1  0
 16 17  2  0
 17 18  1  0
 18 19  1  0
 19 20  2  0
 20 21  1  0
 21 22  2  0
 22 23  1  0
 21 24  1  0
 24 25  2  0
 25 26  1  0
 26 27  2  0
 27 28  1  0
 28 29  2  0
 29 30  1  0
 17 31  1  0
 31 32  2  0
 10  5  1  0
 32 14  1  0
 23 19  1  0
 29 24  1  0
  1 33  1  0
  2 34  1  0
  2 35  1  0
  6 36  1  0
  6 37  1  0
  7 38  1  0
  7 39  1  0
  8 40  1  0
  9 41  1  0
  9 42  1  0
 10 43  1  0
 10 44  1  0
 13 45  1  0
 15 46  1  0
 16 47  1  0
 18 48  1  0
 22 49  1  0
 25 50  1  0
 26 51  1  0
 27 52  1  0
 28 53  1  0
 30 54  1  0
 30 55  1  0
 30 56  1  0
 31 57  1  0
 32 58  1  0
M  END
$$$$
[H]Oc1c([H])c([H])c2c(c1[H])C(=O)N([H])/C(=C(\[H])c1c([H])c([H])c(C(C([H])([H])[H])(C([H])([H])O[H])C([H])([H])N(C([H])([H])[H])C([H])([H])[H])c([H])c1[H])C([H])([H])S2(=O)=O
     RDKit          3D

 56 58  0  0  0  0  0  0  0  0999 V2000
   -4.8026   -2.8551    0.8956 C   0  0  0  0  0  0  0  0  0  0  0  0
   -4.8568   -1.6257    0.0427 N   0  0  0  0  0  0  0  0  0  0  0  0
   -6.3529   -1.4231   -0.1432 C   0  0  0  0  0  0  0  0  0  0  0  0
   -4.4577   -0.4651    0.7973 C   0  0  0  0  0  0  0  0  0  0  0  0
   -4.0170    0.6655   -0.0554 C   0  0  0  0  0  0  0  0  0  0  0  0
   -4.9302    1.0824   -1.1526 C   0  0  0  0  0  0  0  0  0  0  0  0
   -4.3583    2.1841   -1.8281 O   0  0  0  0  0  0  0  0  0  0  0  0
   -4.2523    1.9173    0.9929 C   0  0  0  0  0  0  0  0  0  0  0  0
   -2.6168    0.7554   -0.3526 C   0  0  0  0  0  0  0  0  0  0  0  0
   -1.7848   -0.2694   -0.7238 C   0  0  0  0  0  0  0  0  0  0  0  0
   -0.4163   -0.1164   -0.9586 C   0  0  0  0  0  0  0  0  0  0  0  0
    0.1892    1.0827   -0.8314 C   0  0  0  0  0  0  0  0  0  0  0  0
    1.5531    1.4926   -0.9943 C   0  0  0  0  0  0  0  0  0  0  0  0
    2.6347    0.9936   -0.5191 C   0  0  0  0  0  0  0  0  0  0  0  0
    2.5421   -0.1849    0.3362 C   0  0  0  0  0  0  0  0  0  0  0  0
    3.5923   -1.5150   -0.2165 S   0  0  0  0  0  0  0  0  0  0  0  0
    3.3640   -2.7229    0.6482 O   0  0  0  0  0  0  0  0  0  0  0  0
    3.2381   -1.8882   -1.6066 O   0  0  0  0  0  0  0  0  0  0  0  0
    5.2920   -1.0671   -0.1056 C   0  0  0  0  0  0  0  0  0  0  0  0
    6.0717   -2.1880    0.0501 C   0  0  0  0  0  0  0  0  0  0  0  0
    7.4491   -2.0165    0.1458 C   0  0  0  0  0  0  0  0  0  0  0  0
    8.0557   -0.7778    0.0886 C   0  0  0  0  0  0  0  0  0  0  0  0
    9.4340   -0.6498    0.1873 O   0  0  0  0  0  0  0  0  0  0  0  0
    7.2235    0.3290   -0.0719 C   0  0  0  0  0  0  0  0  0  0  0  0
    5.8609    0.1855   -0.1675 C   0  0  0  0  0  0  0  0  0  0  0  0
    5.1842    1.4787   -0.3531 C   0  0  0  0  0  0  0  0  0  0  0  0
    5.8364    2.5166   -0.0553 O   0  0  0  0  0  0  0  0  0  0  0  0
    3.8677    1.6946   -0.8297 N   0  0  0  0  0  0  0  0  0  0  0  0
   -0.6498    2.1557   -0.4513 C   0  0  0  0  0  0  0  0  0  0  0  0
   -1.9624    1.9927   -0.2290 C   0  0  0  0  0  0  0  0  0  0  0  0
   -3.8573   -2.8306    1.4385 H   0  0  0  0  0  0  0  0  0  0  0  0
   -5.7152   -2.9232    1.4826 H   0  0  0  0  0  0  0  0  0  0  0  0
   -4.7530   -3.7271    0.1779 H   0  0  0  0  0  0  0  0  0  0  0  0
   -6.8964   -2.3441    0.1972 H   0  0  0  0  0  0  0  0  0  0  0  0
   -6.6631   -0.6455    0.5808 H   0  0  0  0  0  0  0  0  0  0  0  0
   -6.5866   -1.1611   -1.1522 H   0  0  0  0  0  0  0  0  0  0  0  0
   -5.3305   -0.1657    1.4565 H   0  0  0  0  0  0  0  0  0  0  0  0
   -3.6638   -0.7338    1.5497 H   0  0  0  0  0  0  0  0  0  0  0  0
   -5.0723    0.3351   -1.9636 H   0  0  0  0  0  0  0  0  0  0  0  0
   -5.8804    1.3740   -0.7232 H   0  0  0  0  0  0  0  0  0  0  0  0
   -5.0571    2.7054   -2.3098 H   0  0  0  0  0  0  0  0  0  0  0  0
   -3.3887    1.9413    1.6397 H   0  0  0  0  0  0  0  0  0  0  0  0
   -5.1674    1.6940    1.5330 H   0  0  0  0  0  0  0  0  0  0  0  0
   -4.4304    2.7933    0.3616 H   0  0  0  0  0  0  0  0  0  0  0  0
   -2.2054   -1.2839   -0.8520 H   0  0  0  0  0  0  0  0  0  0  0  0
    0.1549   -0.9598   -1.2526 H   0  0  0  0  0  0  0  0  0  0  0  0
    1.7168    2.4045   -1.6479 H   0  0  0  0  0  0  0  0  0  0  0  0
    2.9821    0.1042    1.3586 H   0  0  0  0  0  0  0  0  0  0  0  0
    1.5800   -0.5878    0.5668 H   0  0  0  0  0  0  0  0  0  0  0  0
    5.6991   -3.1965    0.1004 H   0  0  0  0  0  0  0  0  0  0  0  0
    8.1170   -2.8725    0.2686 H   0  0  0  0  0  0  0  0  0  0  0  0
    9.8625   -0.5359    1.0951 H   0  0  0  0  0  0  0  0  0  0  0  0
    7.6445    1.3056   -0.1189 H   0  0  0  0  0  0  0  0  0  0  0  0
    3.7486    2.4833   -1.5092 H   0  0  0  0  0  0  0  0  0  0  0  0
   -0.2248    3.1739   -0.3292 H   0  0  0  0  0  0  0  0  0  0  0  0
   -2.5439    2.8913    0.0593 H   0  0  0  0  0  0  0  0  0  0  0  0
  1  2  1  0
  2  3  1  0
  2  4  1  0
  4  5  1  0
  5  6  1  0
  6  7  1  0
  5  8  1  0
  5  9  1  0
  9 10  2  0
 10 11  1  0
 11 12  2  0
 12 13  1  0
 13 14  2  0
 14 15  1  0
 15 16  1  0
 16 17  2  0
 16 18  2  0
 16 19  1  0
 19 20  2  0
 20 21  1  0
 21 22  2  0
 22 23  1  0
 22 24  1  0
 24 25  2  0
 25 26  1  0
 26 27  2  0
 26 28  1  0
 12 29  1  0
 29 30  2  0
 30  9  1  0
 28 14  1  0
 25 19  1  0
  1 31  1  0
  1 32  1  0
  1 33  1  0
  3 34  1  0
  3 35  1  0
  3 36  1  0
  4 37  1  0
  4 38  1  0
  6 39  1  0
  6 40  1  0
  7 41  1  0
  8 42  1  0
  8 43  1  0
  8 44  1  0
 10 45  1  0
 11 46  1  0
 13 47  1  0
 15 48  1  0
 15 49  1  0
 20 50  1  0
 21 51  1  0
 23 52  1  0
 24 53  1  0
 28 54  1  0
 29 55  1  0
 30 56  1  0
M  END
$$$$
[H]Oc1c([H])c(Cl)c2c(-c3c(Cl)c([H])c([H])c(OC([H])(C([H])([H])O[H])C([H])([H])O[H])c3Cl)c([H])nc([H])c2c1[H]
     RDKit          3D

 40 42  0  0  0  0  0  0  0  0999 V2000
    6.1402    0.1167   -2.7396 O   0  0  0  0  0  0  0  0  0  0  0  0
    5.0415    0.0263   -1.8641 C   0  0  0  0  0  0  0  0  0  0  0  0
    3.8412   -0.4933   -2.2582 C   0  0  0  0  0  0  0  0  0  0  0  0
    2.7607   -0.5702   -1.3584 C   0  0  0  0  0  0  0  0  0  0  0  0
    1.2631   -1.2319   -1.9462 Cl  0  0  0  0  0  0  0  0  0  0  0  0
    2.9144   -0.1198   -0.0744 C   0  0  0  0  0  0  0  0  0  0  0  0
    1.8803   -0.1773    0.8291 C   0  0  0  0  0  0  0  0  0  0  0  0
    2.1746    0.3293    2.1272 C   0  0  0  0  0  0  0  0  0  0  0  0
    3.3574    0.8250    2.4606 N   0  0  0  0  0  0  0  0  0  0  0  0
    4.3832    0.8946    1.6074 C   0  0  0  0  0  0  0  0  0  0  0  0
    4.1483    0.4142    0.3289 C   0  0  0  0  0  0  0  0  0  0  0  0
    5.1853    0.4746   -0.5781 C   0  0  0  0  0  0  0  0  0  0  0  0
    0.5552   -0.6986    0.6324 C   0  0  0  0  0  0  0  0  0  0  0  0
    0.2824   -2.0120    0.9065 C   0  0  0  0  0  0  0  0  0  0  0  0
    1.5141   -3.1680    1.3968 Cl  0  0  0  0  0  0  0  0  0  0  0  0
   -1.0289   -2.5115    0.8280 C   0  0  0  0  0  0  0  0  0  0  0  0
   -2.0410   -1.6678    0.4721 C   0  0  0  0  0  0  0  0  0  0  0  0
   -1.7990   -0.3603    0.1946 C   0  0  0  0  0  0  0  0  0  0  0  0
   -2.7561    0.5285   -0.1639 O   0  0  0  0  0  0  0  0  0  0  0  0
   -4.1155    0.3878   -0.3359 C   0  0  0  0  0  0  0  0  0  0  0  0
   -4.6124    0.9029   -1.6785 C   0  0  0  0  0  0  0  0  0  0  0  0
   -4.0108    0.2264   -2.7374 O   0  0  0  0  0  0  0  0  0  0  0  0
   -4.7893    1.2875    0.7149 C   0  0  0  0  0  0  0  0  0  0  0  0
   -4.4160    2.6193    0.5383 O   0  0  0  0  0  0  0  0  0  0  0  0
   -0.4800    0.1212    0.2786 C   0  0  0  0  0  0  0  0  0  0  0  0
   -0.1841    1.8381   -0.0658 Cl  0  0  0  0  0  0  0  0  0  0  0  0
    6.8103   -0.6435   -2.8171 H   0  0  0  0  0  0  0  0  0  0  0  0
    3.6894   -0.8571   -3.2647 H   0  0  0  0  0  0  0  0  0  0  0  0
    1.3670    0.2888    2.8442 H   0  0  0  0  0  0  0  0  0  0  0  0
    5.3568    1.2941    1.8557 H   0  0  0  0  0  0  0  0  0  0  0  0
    6.1512    0.8884   -0.2753 H   0  0  0  0  0  0  0  0  0  0  0  0
   -1.2548   -3.5410    1.0411 H   0  0  0  0  0  0  0  0  0  0  0  0
   -3.0839   -1.9860    0.3907 H   0  0  0  0  0  0  0  0  0  0  0  0
   -4.4965   -0.6278   -0.1494 H   0  0  0  0  0  0  0  0  0  0  0  0
   -4.4830    1.9843   -1.7502 H   0  0  0  0  0  0  0  0  0  0  0  0
   -5.7009    0.6918   -1.7520 H   0  0  0  0  0  0  0  0  0  0  0  0
   -4.1456   -0.7440   -2.5531 H   0  0  0  0  0  0  0  0  0  0  0  0
   -5.8884    1.2366    0.6176 H   0  0  0  0  0  0  0  0  0  0  0  0
   -4.5438    0.9368    1.7350 H   0  0  0  0  0  0  0  0  0  0  0  0
   -4.9866    3.0970   -0.1155 H   0  0  0  0  0  0  0  0  0  0  0  0
  1  2  1  0
  2  3  2  0
  3  4  1  0
  4  5  1  0
  4  6  2  0
  6  7  1  0
  7  8  2  0
  8  9  1  0
  9 10  2  0
 10 11  1  0
 11 12  2  0
  7 13  1  0
 13 14  2  0
 14 15  1  0
 14 16  1  0
 16 17  2  0
 17 18  1  0
 18 19  1  0
 19 20  1  0
 20 21  1  0
 21 22  1  0
 20 23  1  0
 23 24  1  0
 18 25  2  0
 25 26  1  0
 12  2  1  0
 25 13  1  0
 11  6  1  0
  1 27  1  0
  3 28  1  0
  8 29  1  0
 10 30  1  0
 12 31  1  0
 16 32  1  0
 17 33  1  0
 20 34  1  0
 21 35  1  0
 21 36  1  0
 22 37  1  0
 23 38  1  0
 23 39  1  0
 24 40  1  0
M  END
$$$$
[H]OC([H])([H])[C@]1([H])C(=O)N([H])C([H])([H])c2c([H])c([H])c([H])c(Oc3c([H])c([H])c(C#N)c([H])c3[H])c2C(=O)N(c2nc(N(C([H])([H])[H])C([H])([H])[H])c([H])c(C([H])([H])[H])n2)C1([H])[H]
     RDKit          3D

 62 65  0  0  0  0  0  0  0  0999 V2000
   -2.8092    3.4905    2.3108 C   0  0  0  0  0  0  0  0  0  0  0  0
   -3.3053    2.1677    2.0305 N   0  0  0  0  0  0  0  0  0  0  0  0
   -4.3822    1.6241    2.8210 C   0  0  0  0  0  0  0  0  0  0  0  0
   -2.7537    1.3980    0.9848 C   0  0  0  0  0  0  0  0  0  0  0  0
   -3.2444    1.5034   -0.3078 C   0  0  0  0  0  0  0  0  0  0  0  0
   -2.7348    0.7627   -1.3567 C   0  0  0  0  0  0  0  0  0  0  0  0
   -3.2538    0.8808   -2.7396 C   0  0  0  0  0  0  0  0  0  0  0  0
   -1.7231   -0.0787   -1.0545 N   0  0  0  0  0  0  0  0  0  0  0  0
   -1.2424   -0.1932    0.1699 C   0  0  0  0  0  0  0  0  0  0  0  0
   -1.7401    0.5274    1.1826 N   0  0  0  0  0  0  0  0  0  0  0  0
   -0.1365   -1.1039    0.5039 N   0  0  0  0  0  0  0  0  0  0  0  0
   -0.6563   -2.2721    1.1823 C   0  0  0  0  0  0  0  0  0  0  0  0
   -1.4317   -3.2101    0.2940 C   0  0  2  0  0  0  0  0  0  0  0  0
   -2.5009   -3.9543    1.1324 C   0  0  0  0  0  0  0  0  0  0  0  0
   -3.3878   -3.0976    1.7188 O   0  0  0  0  0  0  0  0  0  0  0  0
   -0.6183   -4.2179   -0.4094 C   0  0  0  0  0  0  0  0  0  0  0  0
   -1.1841   -5.3541   -0.6591 O   0  0  0  0  0  0  0  0  0  0  0  0
    0.7020   -4.1138   -0.8523 N   0  0  0  0  0  0  0  0  0  0  0  0
    1.8736   -3.7060   -0.1229 C   0  0  0  0  0  0  0  0  0  0  0  0
    2.4615   -2.5676   -0.9220 C   0  0  0  0  0  0  0  0  0  0  0  0
    3.3595   -3.0055   -1.8728 C   0  0  0  0  0  0  0  0  0  0  0  0
    4.0269   -2.1293   -2.7022 C   0  0  0  0  0  0  0  0  0  0  0  0
    3.7839   -0.8059   -2.5657 C   0  0  0  0  0  0  0  0  0  0  0  0
    2.8676   -0.3335   -1.5973 C   0  0  0  0  0  0  0  0  0  0  0  0
    2.7314    0.9923   -1.5859 O   0  0  0  0  0  0  0  0  0  0  0  0
    2.9714    2.1270   -0.9503 C   0  0  0  0  0  0  0  0  0  0  0  0
    4.1580    2.2494   -0.1975 C   0  0  0  0  0  0  0  0  0  0  0  0
    4.4802    3.3930    0.4846 C   0  0  0  0  0  0  0  0  0  0  0  0
    3.6319    4.4752    0.4507 C   0  0  0  0  0  0  0  0  0  0  0  0
    2.4517    4.3755   -0.2876 C   0  0  0  0  0  0  0  0  0  0  0  0
    2.1199    3.2445   -0.9703 C   0  0  0  0  0  0  0  0  0  0  0  0
    3.9367    5.6938    1.1516 C   0  0  0  0  0  0  0  0  0  0  0  0
    4.1694    6.6852    1.7229 N   0  0  0  0  0  0  0  0  0  0  0  0
    2.1800   -1.2421   -0.7471 C   0  0  0  0  0  0  0  0  0  0  0  0
    1.1814   -0.7358    0.1891 C   0  0  0  0  0  0  0  0  0  0  0  0
    1.5985    0.2759    0.8805 O   0  0  0  0  0  0  0  0  0  0  0  0
   -1.8140    3.5145    2.7678 H   0  0  0  0  0  0  0  0  0  0  0  0
   -3.4984    4.0162    3.0358 H   0  0  0  0  0  0  0  0  0  0  0  0
   -2.8618    4.1256    1.3885 H   0  0  0  0  0  0  0  0  0  0  0  0
   -5.1169    2.3882    3.1105 H   0  0  0  0  0  0  0  0  0  0  0  0
   -3.9816    1.1318    3.7308 H   0  0  0  0  0  0  0  0  0  0  0  0
   -4.9432    0.8864    2.1860 H   0  0  0  0  0  0  0  0  0  0  0  0
   -4.0683    2.1997   -0.5120 H   0  0  0  0  0  0  0  0  0  0  0  0
   -4.2773    1.3046   -2.6966 H   0  0  0  0  0  0  0  0  0  0  0  0
   -3.3343   -0.1062   -3.2379 H   0  0  0  0  0  0  0  0  0  0  0  0
   -2.5532    1.5772   -3.2730 H   0  0  0  0  0  0  0  0  0  0  0  0
   -1.4979   -1.9020    1.9199 H   0  0  0  0  0  0  0  0  0  0  0  0
   -0.0180   -2.7711    1.9025 H   0  0  0  0  0  0  0  0  0  0  0  0
   -2.0475   -2.5797   -0.3871 H   0  0  0  0  0  0  0  0  0  0  0  0
   -1.9343   -4.4791    1.9286 H   0  0  0  0  0  0  0  0  0  0  0  0
   -2.9714   -4.7148    0.4739 H   0  0  0  0  0  0  0  0  0  0  0  0
   -3.7601   -2.4013    1.1310 H   0  0  0  0  0  0  0  0  0  0  0  0
    0.8768   -4.3778   -1.8829 H   0  0  0  0  0  0  0  0  0  0  0  0
    1.7848   -3.4881    0.9189 H   0  0  0  0  0  0  0  0  0  0  0  0
    2.6015   -4.5932   -0.1354 H   0  0  0  0  0  0  0  0  0  0  0  0
    3.5886   -4.0770   -2.0189 H   0  0  0  0  0  0  0  0  0  0  0  0
    4.7272   -2.4760   -3.4484 H   0  0  0  0  0  0  0  0  0  0  0  0
    4.3114   -0.1282   -3.2241 H   0  0  0  0  0  0  0  0  0  0  0  0
    4.8207    1.4036   -0.1670 H   0  0  0  0  0  0  0  0  0  0  0  0
    5.4181    3.4425    1.0592 H   0  0  0  0  0  0  0  0  0  0  0  0
    1.7702    5.2215   -0.3215 H   0  0  0  0  0  0  0  0  0  0  0  0
    1.1974    3.1376   -1.5583 H   0  0  0  0  0  0  0  0  0  0  0  0
  1  2  1  0
  2  3  1  0
  2  4  1  0
  4  5  2  0
  5  6  1  0
  6  7  1  0
  6  8  2  0
  8  9  1  0
  9 10  2  0
  9 11  1  0
 11 12  1  0
 12 13  1  0
 13 14  1  0
 14 15  1  0
 13 16  1  0
 16 17  2  0
 16 18  1  0
 18 19  1  0
 19 20  1  0
 20 21  2  0
 21 22  1  0
 22 23  2  0
 23 24  1  0
 24 25  1  0
 25 26  1  0
 26 27  2  0
 27 28  1  0
 28 29  2  0
 29 30  1  0
 30 31  2  0
 29 32  1  0
 32 33  3  0
 24 34  2  0
 34 35  1  0
 35 36  2  0
 10  4  1  0
 35 11  1  0
 34 20  1  0
 31 26  1  0
  1 37  1  0
  1 38  1  0
  1 39  1  0
  3 40  1  0
  3 41  1  0
  3 42  1  0
  5 43  1  0
  7 44  1  0
  7 45  1  0
  7 46  1  0
 12 47  1  0
 12 48  1  0
 13 49  1  6
 14 50  1  0
 14 51  1  0
 15 52  1  0
 18 53  1  0
 19 54  1  0
 19 55  1  0
 21 56  1  0
 22 57  1  0
 23 58  1  0
 27 59  1  0
 28 60  1  0
 30 61  1  0
 31 62  1  0
M  END
$$$$
[H]C1=C2ON=C(C3=C([H])c4c([H])c([H])c(Cl)c([H])c43)N=C1C1=C(C(=O)N1[H])C([H])([H])C([H])([H])C([H])([H])N2[H]
     RDKit          3D

 38 42  0  0  0  0  0  0  0  0999 V2000
    6.5418    3.1392    0.6908 Cl  0  0  0  0  0  0  0  0  0  0  0  0
    5.7892    1.5800    0.5033 C   0  0  0  0  0  0  0  0  0  0  0  0
    6.5327    0.4306    0.3004 C   0  0  0  0  0  0  0  0  0  0  0  0
    5.8735   -0.7663    0.1605 C   0  0  0  0  0  0  0  0  0  0  0  0
    4.4885   -0.8404    0.2189 C   0  0  0  0  0  0  0  0  0  0  0  0
    3.2168   -1.5418    0.1810 C   0  0  0  0  0  0  0  0  0  0  0  0
    2.4889   -0.4366    0.3768 C   0  0  0  0  0  0  0  0  0  0  0  0
    1.1209   -0.1298    0.4893 C   0  0  0  0  0  0  0  0  0  0  0  0
    0.1348   -1.2412    0.3772 N   0  0  0  0  0  0  0  0  0  0  0  0
   -0.9540   -1.1168   -0.2474 C   0  0  0  0  0  0  0  0  0  0  0  0
   -1.6299   -0.0443   -1.0348 C   0  0  0  0  0  0  0  0  0  0  0  0
   -1.5986    1.1025   -0.3866 C   0  0  0  0  0  0  0  0  0  0  0  0
   -2.2210    2.3206   -0.7043 N   0  0  0  0  0  0  0  0  0  0  0  0
   -3.7557    2.1278   -0.6379 C   0  0  0  0  0  0  0  0  0  0  0  0
   -4.1255    0.6588   -0.4772 C   0  0  0  0  0  0  0  0  0  0  0  0
   -3.7490   -0.1323    0.6635 C   0  0  0  0  0  0  0  0  0  0  0  0
   -3.2364   -1.5097    0.7207 C   0  0  0  0  0  0  0  0  0  0  0  0
   -3.5960   -2.8826    1.1607 C   0  0  0  0  0  0  0  0  0  0  0  0
   -4.6268   -3.4292    1.6902 O   0  0  0  0  0  0  0  0  0  0  0  0
   -2.3336   -3.3527    0.7577 N   0  0  0  0  0  0  0  0  0  0  0  0
   -2.0459   -2.0477    0.3577 C   0  0  0  0  0  0  0  0  0  0  0  0
   -0.7919    1.3416    0.8322 O   0  0  0  0  0  0  0  0  0  0  0  0
    0.6731    1.0968    0.7299 N   0  0  0  0  0  0  0  0  0  0  0  0
    3.7600    0.3074    0.4208 C   0  0  0  0  0  0  0  0  0  0  0  0
    4.4134    1.5113    0.5620 C   0  0  0  0  0  0  0  0  0  0  0  0
    7.6306    0.4954    0.2550 H   0  0  0  0  0  0  0  0  0  0  0  0
    6.4292   -1.6674    0.0028 H   0  0  0  0  0  0  0  0  0  0  0  0
    2.9784   -2.5847    0.0424 H   0  0  0  0  0  0  0  0  0  0  0  0
   -1.9077   -0.2352   -2.1115 H   0  0  0  0  0  0  0  0  0  0  0  0
   -1.9169    3.2256   -0.9038 H   0  0  0  0  0  0  0  0  0  0  0  0
   -4.1732    2.7286    0.1341 H   0  0  0  0  0  0  0  0  0  0  0  0
   -4.0667    2.4438   -1.6310 H   0  0  0  0  0  0  0  0  0  0  0  0
   -5.3124    0.7768   -0.4550 H   0  0  0  0  0  0  0  0  0  0  0  0
   -4.0545    0.1600   -1.4627 H   0  0  0  0  0  0  0  0  0  0  0  0
   -4.7801   -0.1529    1.3095 H   0  0  0  0  0  0  0  0  0  0  0  0
   -3.2174    0.5227    1.4472 H   0  0  0  0  0  0  0  0  0  0  0  0
   -1.7867   -4.2688    0.7441 H   0  0  0  0  0  0  0  0  0  0  0  0
    3.8082    2.4108    0.7219 H   0  0  0  0  0  0  0  0  0  0  0  0
  1  2  1  0
  2  3  2  0
  3  4  1  0
  4  5  2  0
  5  6  1  0
  6  7  2  0
  7  8  1  0
  8  9  1  0
  9 10  2  0
 10 11  1  0
 11 12  2  0
 12 13  1  0
 13 14  1  0
 14 15  1  0
 15 16  1  0
 16 17  1  0
 17 18  1  0
 18 19  2  0
 18 20  1  0
 20 21  1  0
 12 22  1  0
 22 23  1  0
  7 24  1  0
 24 25  2  0
 25  2  1  0
 24  5  1  0
 23  8  2  0
 21 10  1  0
 21 17  2  0
  3 26  1  0
  4 27  1  0
  6 28  1  0
 11 29  1  0
 13 30  1  0
 14 31  1  0
 14 32  1  0
 15 33  1  0
 15 34  1  0
 16 35  1  0
 16 36  1  0
 20 37  1  0
 25 38  1  0
M  END
$$$$
[H]/C(=C1\N([H])[C@@]([H])(c2nc(-c3c([H])c([H])c(Cl)c(Cl)c3[H])oc2C([H])([H])[H])C([H])([H])C1([H])[H])C([H])([H])[H]
     RDKit          3D

 37 39  0  0  0  0  0  0  0  0999 V2000
   -4.9767    2.0162   -0.5659 C   0  0  0  0  0  0  0  0  0  0  0  0
   -3.9122    1.2319   -1.2960 C   0  0  0  0  0  0  0  0  0  0  0  0
   -3.2795    0.2826   -0.6810 C   0  0  0  0  0  0  0  0  0  0  0  0
   -3.5692   -0.0911    0.7779 C   0  0  0  0  0  0  0  0  0  0  0  0
   -2.0770    0.0221    1.1778 C   0  0  0  0  0  0  0  0  0  0  0  0
   -1.5995   -1.1227    0.2088 C   0  0  1  0  0  0  0  0  0  0  0  0
   -2.1956   -0.5772   -1.0194 N   0  0  0  0  0  0  0  0  0  0  0  0
   -0.1409   -1.0963    0.2380 C   0  0  0  0  0  0  0  0  0  0  0  0
    0.7114   -0.0470    0.1273 N   0  0  0  0  0  0  0  0  0  0  0  0
    2.0014   -0.5017    0.1093 C   0  0  0  0  0  0  0  0  0  0  0  0
    1.9081   -1.8171    0.2097 O   0  0  0  0  0  0  0  0  0  0  0  0
    0.6791   -2.2248    0.2892 C   0  0  0  0  0  0  0  0  0  0  0  0
    0.1296   -3.6227    0.4315 C   0  0  0  0  0  0  0  0  0  0  0  0
    3.2181    0.3077    0.0067 C   0  0  0  0  0  0  0  0  0  0  0  0
    4.4506   -0.2947    0.1916 C   0  0  0  0  0  0  0  0  0  0  0  0
    5.6660    0.4306    0.0521 C   0  0  0  0  0  0  0  0  0  0  0  0
    5.5709    1.7570   -0.2725 C   0  0  0  0  0  0  0  0  0  0  0  0
    7.0570    2.7210   -0.4462 Cl  0  0  0  0  0  0  0  0  0  0  0  0
    4.3740    2.3789   -0.4637 C   0  0  0  0  0  0  0  0  0  0  0  0
    4.3306    4.0641   -0.8949 Cl  0  0  0  0  0  0  0  0  0  0  0  0
    3.1766    1.6269   -0.3154 C   0  0  0  0  0  0  0  0  0  0  0  0
   -5.2019    2.9646   -1.0858 H   0  0  0  0  0  0  0  0  0  0  0  0
   -4.5556    2.3564    0.4427 H   0  0  0  0  0  0  0  0  0  0  0  0
   -5.8760    1.4270   -0.3844 H   0  0  0  0  0  0  0  0  0  0  0  0
   -3.6818    1.4771   -2.3185 H   0  0  0  0  0  0  0  0  0  0  0  0
   -4.2143    0.6003    1.2793 H   0  0  0  0  0  0  0  0  0  0  0  0
   -3.8067   -1.1540    0.7842 H   0  0  0  0  0  0  0  0  0  0  0  0
   -1.8934   -0.2869    2.1960 H   0  0  0  0  0  0  0  0  0  0  0  0
   -1.7165    0.9918    0.8432 H   0  0  0  0  0  0  0  0  0  0  0  0
   -2.0874   -2.0036    0.5009 H   0  0  0  0  0  0  0  0  0  0  0  0
   -1.9127   -0.7506   -1.9949 H   0  0  0  0  0  0  0  0  0  0  0  0
    0.9588   -4.3253    0.2692 H   0  0  0  0  0  0  0  0  0  0  0  0
   -0.7750   -3.7713   -0.1463 H   0  0  0  0  0  0  0  0  0  0  0  0
   -0.1216   -3.7469    1.5475 H   0  0  0  0  0  0  0  0  0  0  0  0
    4.4824   -1.3312    0.4517 H   0  0  0  0  0  0  0  0  0  0  0  0
    6.6266   -0.0204    0.2066 H   0  0  0  0  0  0  0  0  0  0  0  0
    2.2524    2.1295   -0.4564 H   0  0  0  0  0  0  0  0  0  0  0  0
  1  2  1  0
  2  3  2  0
  3  4  1  0
  4  5  1  0
  5  6  1  0
  6  7  1  0
  6  8  1  0
  8  9  1  0
  9 10  2  0
 10 11  1  0
 11 12  1  0
 12 13  1  0
 10 14  1  0
 14 15  2  0
 15 16  1  0
 16 17  2  0
 17 18  1  0
 17 19  1  0
 19 20  1  0
 19 21  2  0
  7  3  1  0
 12  8  2  0
 21 14  1  0
  1 22  1  0
  1 23  1  0
  1 24  1  0
  2 25  1  0
  4 26  1  0
  4 27  1  0
  5 28  1  0
  5 29  1  0
  6 30  1  1
  7 31  1  0
 13 32  1  0
 13 33  1  0
 13 34  1  0
 15 35  1  0
 16 36  1  0
 21 37  1  0
M  END
$$$$
[H]C#CC([H])([H])C([H])([H])C([H])([H])Oc1c([H])c(-n2nc([H])c3c([H])c(N([H])C(=O)N([H])c4c([H])nc([H])nc4[H])nc([H])c32)c([H])c([H])c1OC([H])([H])[H]
     RDKit          3D

 54 57  0  0  0  0  0  0  0  0999 V2000
    6.4768   -2.2346   -0.8939 C   0  0  0  0  0  0  0  0  0  0  0  0
    5.6503   -1.1146   -0.6155 O   0  0  0  0  0  0  0  0  0  0  0  0
    4.4346   -1.3610    0.0343 C   0  0  0  0  0  0  0  0  0  0  0  0
    4.0409   -2.6314    0.3956 C   0  0  0  0  0  0  0  0  0  0  0  0
    2.8265   -2.8363    1.0395 C   0  0  0  0  0  0  0  0  0  0  0  0
    1.9758   -1.7922    1.3400 C   0  0  0  0  0  0  0  0  0  0  0  0
    2.3852   -0.5282    0.9715 C   0  0  0  0  0  0  0  0  0  0  0  0
    3.5920   -0.3019    0.3288 C   0  0  0  0  0  0  0  0  0  0  0  0
    3.9664    0.9895   -0.0256 O   0  0  0  0  0  0  0  0  0  0  0  0
    3.1057    2.0727    0.2733 C   0  0  0  0  0  0  0  0  0  0  0  0
    3.6949    3.3885   -0.1949 C   0  0  0  0  0  0  0  0  0  0  0  0
    5.0313    3.6518    0.4851 C   0  0  0  0  0  0  0  0  0  0  0  0
    5.5651    4.9235    0.0100 C   0  0  0  0  0  0  0  0  0  0  0  0
    6.0258    5.9747   -0.3741 C   0  0  0  0  0  0  0  0  0  0  0  0
    0.7303   -2.0415    2.0044 N   0  0  0  0  0  0  0  0  0  0  0  0
    0.5434   -2.6140    3.1865 N   0  0  0  0  0  0  0  0  0  0  0  0
   -0.7392   -2.6943    3.5095 C   0  0  0  0  0  0  0  0  0  0  0  0
   -1.4411   -2.1316    2.4585 C   0  0  0  0  0  0  0  0  0  0  0  0
   -2.7780   -1.9138    2.1836 C   0  0  0  0  0  0  0  0  0  0  0  0
   -3.2023   -1.3116    1.0174 C   0  0  0  0  0  0  0  0  0  0  0  0
   -4.5803   -1.1040    0.7594 N   0  0  0  0  0  0  0  0  0  0  0  0
   -5.0366   -0.4709   -0.4521 C   0  0  0  0  0  0  0  0  0  0  0  0
   -4.1259   -0.1257   -1.2351 O   0  0  0  0  0  0  0  0  0  0  0  0
   -6.3988   -0.2954   -0.6581 N   0  0  0  0  0  0  0  0  0  0  0  0
   -6.9877    0.3013   -1.7686 C   0  0  0  0  0  0  0  0  0  0  0  0
   -8.3681    0.1272   -2.0035 C   0  0  0  0  0  0  0  0  0  0  0  0
   -8.9938    0.6921   -3.0461 N   0  0  0  0  0  0  0  0  0  0  0  0
   -8.3318    1.4572   -3.9245 C   0  0  0  0  0  0  0  0  0  0  0  0
   -7.0233    1.6451   -3.7345 N   0  0  0  0  0  0  0  0  0  0  0  0
   -6.3480    1.0876   -2.6846 C   0  0  0  0  0  0  0  0  0  0  0  0
   -2.2330   -0.9463    0.1576 N   0  0  0  0  0  0  0  0  0  0  0  0
   -0.9207   -1.1376    0.3815 C   0  0  0  0  0  0  0  0  0  0  0  0
   -0.4920   -1.7389    1.5453 C   0  0  0  0  0  0  0  0  0  0  0  0
    7.4157   -1.8880   -1.3674 H   0  0  0  0  0  0  0  0  0  0  0  0
    6.7808   -2.7460    0.0570 H   0  0  0  0  0  0  0  0  0  0  0  0
    5.9570   -2.9744   -1.5271 H   0  0  0  0  0  0  0  0  0  0  0  0
    4.6819   -3.4790    0.1766 H   0  0  0  0  0  0  0  0  0  0  0  0
    2.5118   -3.8284    1.3254 H   0  0  0  0  0  0  0  0  0  0  0  0
    1.7582    0.3264    1.1822 H   0  0  0  0  0  0  0  0  0  0  0  0
    2.1625    1.9093   -0.3000 H   0  0  0  0  0  0  0  0  0  0  0  0
    2.9161    2.1261    1.3626 H   0  0  0  0  0  0  0  0  0  0  0  0
    3.8507    3.3943   -1.2822 H   0  0  0  0  0  0  0  0  0  0  0  0
    3.0339    4.2347    0.0665 H   0  0  0  0  0  0  0  0  0  0  0  0
    4.9522    3.6933    1.5763 H   0  0  0  0  0  0  0  0  0  0  0  0
    5.7661    2.8362    0.2423 H   0  0  0  0  0  0  0  0  0  0  0  0
    6.4329    6.9136   -0.6976 H   0  0  0  0  0  0  0  0  0  0  0  0
   -1.2342   -3.0941    4.3810 H   0  0  0  0  0  0  0  0  0  0  0  0
   -3.4994   -2.2316    2.9166 H   0  0  0  0  0  0  0  0  0  0  0  0
   -5.2907   -1.4090    1.4424 H   0  0  0  0  0  0  0  0  0  0  0  0
   -7.0597   -0.6463    0.1070 H   0  0  0  0  0  0  0  0  0  0  0  0
   -8.8846   -0.4929   -1.2864 H   0  0  0  0  0  0  0  0  0  0  0  0
   -8.8660    1.9111   -4.7736 H   0  0  0  0  0  0  0  0  0  0  0  0
   -5.2782    1.2945   -2.5852 H   0  0  0  0  0  0  0  0  0  0  0  0
   -0.1511   -0.8353   -0.3256 H   0  0  0  0  0  0  0  0  0  0  0  0
  1  2  1  0
  2  3  1  0
  3  4  2  0
  4  5  1  0
  5  6  2  0
  6  7  1  0
  7  8  2  0
  8  9  1  0
  9 10  1  0
 10 11  1  0
 11 12  1  0
 12 13  1  0
 13 14  3  0
  6 15  1  0
 15 16  1  0
 16 17  2  0
 17 18  1  0
 18 19  2  0
 19 20  1  0
 20 21  1  0
 21 22  1  0
 22 23  2  0
 22 24  1  0
 24 25  1  0
 25 26  2  0
 26 27  1  0
 27 28  2  0
 28 29  1  0
 29 30  2  0
 20 31  2  0
 31 32  1  0
 32 33  2  0
  8  3  1  0
 33 15  1  0
 33 18  1  0
 30 25  1  0
  1 34  1  0
  1 35  1  0
  1 36  1  0
  4 37  1  0
  5 38  1  0
  7 39  1  0
 10 40  1  0
 10 41  1  0
 11 42  1  0
 11 43  1  0
 12 44  1  0
 12 45  1  0
 14 46  1  0
 17 47  1  0
 19 48  1  0
 21 49  1  0
 24 50  1  0
 26 51  1  0
 28 52  1  0
 30 53  1  0
 32 54  1  0
M  END
$$$$
[H]c1c(N([H])C(=O)C([H])([H])[H])c(C([H])([H])[H])c([H])c(-c2noc(C([H])([H])C([H])([H])[H])n2)c1C([H])([H])[H]
     RDKit          3D

 36 37  0  0  0  0  0  0  0  0999 V2000
    5.5348    0.6618    0.2183 C   0  0  0  0  0  0  0  0  0  0  0  0
    5.4631   -0.5813   -0.6722 C   0  0  0  0  0  0  0  0  0  0  0  0
    4.0227   -0.9095   -0.8420 C   0  0  0  0  0  0  0  0  0  0  0  0
    2.9482   -0.2757   -0.3370 N   0  0  0  0  0  0  0  0  0  0  0  0
    1.8173   -0.8785   -0.7184 C   0  0  0  0  0  0  0  0  0  0  0  0
    2.2459   -1.9215   -1.4881 N   0  0  0  0  0  0  0  0  0  0  0  0
    3.5317   -1.9102   -1.5391 O   0  0  0  0  0  0  0  0  0  0  0  0
    0.4113   -0.5512   -0.4185 C   0  0  0  0  0  0  0  0  0  0  0  0
   -0.5949   -1.3354   -0.9372 C   0  0  0  0  0  0  0  0  0  0  0  0
   -1.9120   -1.0649   -0.6826 C   0  0  0  0  0  0  0  0  0  0  0  0
   -2.9969   -1.9448   -1.2666 C   0  0  0  0  0  0  0  0  0  0  0  0
   -2.2389    0.0329    0.1224 C   0  0  0  0  0  0  0  0  0  0  0  0
   -3.6010    0.2849    0.3661 N   0  0  0  0  0  0  0  0  0  0  0  0
   -4.1564    1.3115    1.1292 C   0  0  0  0  0  0  0  0  0  0  0  0
   -5.6691    1.3696    1.2405 C   0  0  0  0  0  0  0  0  0  0  0  0
   -3.5115    2.1788    1.7227 O   0  0  0  0  0  0  0  0  0  0  0  0
   -1.2518    0.8207    0.6445 C   0  0  0  0  0  0  0  0  0  0  0  0
    0.0845    0.5234    0.3698 C   0  0  0  0  0  0  0  0  0  0  0  0
    1.1552    1.4054    0.9564 C   0  0  0  0  0  0  0  0  0  0  0  0
    6.5186    0.7967    0.6675 H   0  0  0  0  0  0  0  0  0  0  0  0
    5.2287    1.5231   -0.4210 H   0  0  0  0  0  0  0  0  0  0  0  0
    4.7095    0.5369    0.9632 H   0  0  0  0  0  0  0  0  0  0  0  0
    5.9561   -0.4295   -1.6378 H   0  0  0  0  0  0  0  0  0  0  0  0
    5.9494   -1.3990   -0.0664 H   0  0  0  0  0  0  0  0  0  0  0  0
   -0.3319   -2.1823   -1.5587 H   0  0  0  0  0  0  0  0  0  0  0  0
   -2.5238   -2.6299   -1.9708 H   0  0  0  0  0  0  0  0  0  0  0  0
   -3.7158   -1.3273   -1.8446 H   0  0  0  0  0  0  0  0  0  0  0  0
   -3.4595   -2.4475   -0.3922 H   0  0  0  0  0  0  0  0  0  0  0  0
   -4.2886   -0.4216   -0.1098 H   0  0  0  0  0  0  0  0  0  0  0  0
   -6.0186    0.3298    1.2748 H   0  0  0  0  0  0  0  0  0  0  0  0
   -6.0876    1.8880    0.3629 H   0  0  0  0  0  0  0  0  0  0  0  0
   -5.9603    1.9449    2.1414 H   0  0  0  0  0  0  0  0  0  0  0  0
   -1.4201    1.6812    1.2714 H   0  0  0  0  0  0  0  0  0  0  0  0
    1.7256    1.9239    0.1720 H   0  0  0  0  0  0  0  0  0  0  0  0
    1.7659    0.8107    1.6650 H   0  0  0  0  0  0  0  0  0  0  0  0
    0.6703    2.1856    1.6151 H   0  0  0  0  0  0  0  0  0  0  0  0
  1  2  1  0
  2  3  1  0
  3  4  2  0
  4  5  1  0
  5  6  2  0
  6  7  1  0
  5  8  1  0
  8  9  2  0
  9 10  1  0
 10 11  1  0
 10 12  2  0
 12 13  1  0
 13 14  1  0
 14 15  1  0
 14 16  2  0
 12 17  1  0
 17 18  2  0
 18 19  1  0
  7  3  1  0
 18  8  1  0
  1 20  1  0
  1 21  1  0
  1 22  1  0
  2 23  1  0
  2 24  1  0
  9 25  1  0
 11 26  1  0
 11 27  1  0
 11 28  1  0
 13 29  1  0
 15 30  1  0
 15 31  1  0
 15 32  1  0
 17 33  1  0
 19 34  1  0
 19 35  1  0
 19 36  1  0
M  END
$$$$
[H]O[C@@]1([H])C([H])([H])C([H])([H])[C@@]([H])(c2c(C(=O)N([H])c3c([H])c([H])nc(C([H])([H])[H])c3[H])c([H])nn2C2([H])C([H])([H])C2([H])[H])C1([H])[H]
     RDKit          3D

 46 49  0  0  0  0  0  0  0  0999 V2000
    5.5582    1.8488    1.0206 C   0  0  0  0  0  0  0  0  0  0  0  0
    5.0788    0.8297    0.0378 C   0  0  0  0  0  0  0  0  0  0  0  0
    3.7503    0.4508    0.0713 C   0  0  0  0  0  0  0  0  0  0  0  0
    3.2866   -0.4615   -0.8326 C   0  0  0  0  0  0  0  0  0  0  0  0
    1.9251   -0.8730   -0.8009 N   0  0  0  0  0  0  0  0  0  0  0  0
    1.2813   -1.1898    0.4165 C   0  0  0  0  0  0  0  0  0  0  0  0
    1.9296   -1.1242    1.4833 O   0  0  0  0  0  0  0  0  0  0  0  0
   -0.1048   -1.5961    0.4494 C   0  0  0  0  0  0  0  0  0  0  0  0
   -0.5059   -2.8856    0.7276 C   0  0  0  0  0  0  0  0  0  0  0  0
   -1.8224   -2.9311    0.5883 N   0  0  0  0  0  0  0  0  0  0  0  0
   -2.2776   -1.7052    0.2303 N   0  0  0  0  0  0  0  0  0  0  0  0
   -1.2699   -0.8677    0.1379 C   0  0  0  0  0  0  0  0  0  0  0  0
   -1.2176    0.5670   -0.1047 C   0  0  1  0  0  0  0  0  0  0  0  0
   -2.2931    1.2855   -0.7525 C   0  0  0  0  0  0  0  0  0  0  0  0
   -2.4162    2.6170   -0.0012 C   0  0  1  0  0  0  0  0  0  0  0  0
   -3.6980    3.1406   -0.1296 O   0  0  0  0  0  0  0  0  0  0  0  0
   -2.0653    2.2580    1.4051 C   0  0  0  0  0  0  0  0  0  0  0  0
   -0.9070    1.2927    1.2271 C   0  0  0  0  0  0  0  0  0  0  0  0
   -3.6717   -1.4861    0.0308 C   0  0  0  0  0  0  0  0  0  0  0  0
   -4.3300   -1.9619   -1.2119 C   0  0  0  0  0  0  0  0  0  0  0  0
   -4.5903   -2.7323    0.0234 C   0  0  0  0  0  0  0  0  0  0  0  0
    4.1851   -0.9791   -1.7593 C   0  0  0  0  0  0  0  0  0  0  0  0
    5.5101   -0.5768   -1.7599 C   0  0  0  0  0  0  0  0  0  0  0  0
    5.9538    0.3290   -0.8614 N   0  0  0  0  0  0  0  0  0  0  0  0
    4.9085    2.7588    0.9577 H   0  0  0  0  0  0  0  0  0  0  0  0
    5.4909    1.4774    2.0544 H   0  0  0  0  0  0  0  0  0  0  0  0
    6.5958    2.1082    0.7403 H   0  0  0  0  0  0  0  0  0  0  0  0
    3.1122    0.9017    0.8299 H   0  0  0  0  0  0  0  0  0  0  0  0
    1.4615   -0.9258   -1.7420 H   0  0  0  0  0  0  0  0  0  0  0  0
    0.1017   -3.7326    1.0122 H   0  0  0  0  0  0  0  0  0  0  0  0
   -0.2753    0.7873   -0.7305 H   0  0  0  0  0  0  0  0  0  0  0  0
   -3.2845    0.8743   -0.8540 H   0  0  0  0  0  0  0  0  0  0  0  0
   -2.0167    1.6267   -1.8216 H   0  0  0  0  0  0  0  0  0  0  0  0
   -1.6589    3.2955   -0.3822 H   0  0  0  0  0  0  0  0  0  0  0  0
   -3.7359    3.9497    0.4361 H   0  0  0  0  0  0  0  0  0  0  0  0
   -2.8749    1.7457    1.9542 H   0  0  0  0  0  0  0  0  0  0  0  0
   -1.7096    3.1569    1.9985 H   0  0  0  0  0  0  0  0  0  0  0  0
    0.0629    1.7988    1.1745 H   0  0  0  0  0  0  0  0  0  0  0  0
   -0.8813    0.5319    2.0328 H   0  0  0  0  0  0  0  0  0  0  0  0
   -4.1262   -0.7071    0.6768 H   0  0  0  0  0  0  0  0  0  0  0  0
   -5.1930   -1.4323   -1.6745 H   0  0  0  0  0  0  0  0  0  0  0  0
   -3.6786   -2.4247   -1.9874 H   0  0  0  0  0  0  0  0  0  0  0  0
   -5.5919   -2.6470    0.4490 H   0  0  0  0  0  0  0  0  0  0  0  0
   -4.0204   -3.6786    0.2182 H   0  0  0  0  0  0  0  0  0  0  0  0
    3.8246   -1.7047   -2.4742 H   0  0  0  0  0  0  0  0  0  0  0  0
    6.2002   -1.0089   -2.5036 H   0  0  0  0  0  0  0  0  0  0  0  0
  1  2  1  0
  2  3  2  0
  3  4  1  0
  4  5  1  0
  5  6  1  0
  6  7  2  0
  6  8  1  0
  8  9  1  0
  9 10  2  0
 10 11  1  0
 11 12  1  0
 12 13  1  0
 13 14  1  0
 14 15  1  0
 15 16  1  0
 15 17  1  0
 17 18  1  0
 11 19  1  0
 19 20  1  0
 20 21  1  0
  4 22  2  0
 22 23  1  0
 23 24  2  0
 24  2  1  0
 12  8  2  0
 18 13  1  0
 21 19  1  0
  1 25  1  0
  1 26  1  0
  1 27  1  0
  3 28  1  0
  5 29  1  0
  9 30  1  0
 13 31  1  6
 14 32  1  0
 14 33  1  0
 15 34  1  6
 16 35  1  0
 17 36  1  0
 17 37  1  0
 18 38  1  0
 18 39  1  0
 19 40  1  0
 20 41  1  0
 20 42  1  0
 21 43  1  0
 21 44  1  0
 22 45  1  0
 23 46  1  0
M  END
$$$$
[H]OC(c1c([H])c([H])c(Cl)c([H])c1[H])(c1c([H])c([H])c(-c2nn(C3([H])C([H])([H])C([H])([H])C([H])([H])C3([H])[H])c(=O)n([H])c2=O)c([H])c1[H])C([H])([H])C([H])([H])C([H])([H])C([H])([H])C([H])([H])C([H])([H])C([H])([H])C([H])([H])C([H])([H])C([H])([H])[H]
     RDKit          3D

 78 81  0  0  0  0  0  0  0  0999 V2000
    9.7966    0.8408   -1.3374 C   0  0  0  0  0  0  0  0  0  0  0  0
    8.5065    1.5260   -1.7610 C   0  0  0  0  0  0  0  0  0  0  0  0
    7.9105    0.7766   -2.9420 C   0  0  0  0  0  0  0  0  0  0  0  0
    7.6027   -0.6575   -2.5866 C   0  0  0  0  0  0  0  0  0  0  0  0
    6.6263   -0.7881   -1.4638 C   0  0  0  0  0  0  0  0  0  0  0  0
    5.2876   -0.1345   -1.7965 C   0  0  0  0  0  0  0  0  0  0  0  0
    4.3221   -0.2809   -0.6396 C   0  0  0  0  0  0  0  0  0  0  0  0
    3.0330    0.3707   -1.0084 C   0  0  0  0  0  0  0  0  0  0  0  0
    1.9915    0.2841    0.0890 C   0  0  0  0  0  0  0  0  0  0  0  0
    1.6863   -1.1554    0.4101 C   0  0  0  0  0  0  0  0  0  0  0  0
    0.6691   -1.3708    1.4578 C   0  0  0  0  0  0  0  0  0  0  0  0
    0.5554   -2.7869    1.5998 O   0  0  0  0  0  0  0  0  0  0  0  0
   -0.6957   -0.9203    1.1716 C   0  0  0  0  0  0  0  0  0  0  0  0
   -1.1513   -0.6226   -0.0827 C   0  0  0  0  0  0  0  0  0  0  0  0
   -2.4684   -0.2015   -0.2142 C   0  0  0  0  0  0  0  0  0  0  0  0
   -3.3228   -0.0748    0.8635 C   0  0  0  0  0  0  0  0  0  0  0  0
   -2.8605   -0.3761    2.1274 C   0  0  0  0  0  0  0  0  0  0  0  0
   -1.5539   -0.7942    2.2619 C   0  0  0  0  0  0  0  0  0  0  0  0
   -4.6913    0.3636    0.6876 C   0  0  0  0  0  0  0  0  0  0  0  0
   -5.4372   -0.1734   -0.3058 N   0  0  0  0  0  0  0  0  0  0  0  0
   -6.6913    0.2000   -0.5002 N   0  0  0  0  0  0  0  0  0  0  0  0
   -7.2096    1.1368    0.3240 C   0  0  0  0  0  0  0  0  0  0  0  0
   -8.4216    1.4896    0.1269 O   0  0  0  0  0  0  0  0  0  0  0  0
   -6.5002    1.6866    1.3139 N   0  0  0  0  0  0  0  0  0  0  0  0
   -5.2284    1.3236    1.5292 C   0  0  0  0  0  0  0  0  0  0  0  0
   -4.5569    1.8385    2.4596 O   0  0  0  0  0  0  0  0  0  0  0  0
   -7.5193   -0.3510   -1.5474 C   0  0  0  0  0  0  0  0  0  0  0  0
   -8.7053   -1.1083   -0.9969 C   0  0  0  0  0  0  0  0  0  0  0  0
   -9.9322   -0.5901   -1.6704 C   0  0  0  0  0  0  0  0  0  0  0  0
   -9.5246    0.5068   -2.6076 C   0  0  0  0  0  0  0  0  0  0  0  0
   -8.0341    0.6610   -2.5142 C   0  0  0  0  0  0  0  0  0  0  0  0
    1.0716   -0.7818    2.7564 C   0  0  0  0  0  0  0  0  0  0  0  0
    1.6202   -1.6016    3.7405 C   0  0  0  0  0  0  0  0  0  0  0  0
    2.0027   -1.1116    4.9735 C   0  0  0  0  0  0  0  0  0  0  0  0
    1.8558    0.2217    5.2836 C   0  0  0  0  0  0  0  0  0  0  0  0
    2.3557    0.7946    6.8617 Cl  0  0  0  0  0  0  0  0  0  0  0  0
    1.3185    1.0392    4.3269 C   0  0  0  0  0  0  0  0  0  0  0  0
    0.9388    0.5441    3.0987 C   0  0  0  0  0  0  0  0  0  0  0  0
   10.2883    1.5260   -0.6131 H   0  0  0  0  0  0  0  0  0  0  0  0
    9.5908   -0.1040   -0.8175 H   0  0  0  0  0  0  0  0  0  0  0  0
   10.4654    0.7432   -2.2067 H   0  0  0  0  0  0  0  0  0  0  0  0
    8.7173    2.5566   -2.1114 H   0  0  0  0  0  0  0  0  0  0  0  0
    7.8047    1.5937   -0.9188 H   0  0  0  0  0  0  0  0  0  0  0  0
    8.7232    0.7332   -3.7161 H   0  0  0  0  0  0  0  0  0  0  0  0
    7.0609    1.3087   -3.3726 H   0  0  0  0  0  0  0  0  0  0  0  0
    7.1526   -1.1172   -3.4974 H   0  0  0  0  0  0  0  0  0  0  0  0
    8.5334   -1.1639   -2.2958 H   0  0  0  0  0  0  0  0  0  0  0  0
    6.4687   -1.8678   -1.2769 H   0  0  0  0  0  0  0  0  0  0  0  0
    7.0515   -0.3608   -0.5319 H   0  0  0  0  0  0  0  0  0  0  0  0
    5.5087    0.9476   -2.0133 H   0  0  0  0  0  0  0  0  0  0  0  0
    4.9278   -0.6178   -2.7222 H   0  0  0  0  0  0  0  0  0  0  0  0
    4.8126    0.1767    0.2430 H   0  0  0  0  0  0  0  0  0  0  0  0
    4.1619   -1.3773   -0.5200 H   0  0  0  0  0  0  0  0  0  0  0  0
    2.6784   -0.0351   -1.9573 H   0  0  0  0  0  0  0  0  0  0  0  0
    3.2348    1.4552   -1.1767 H   0  0  0  0  0  0  0  0  0  0  0  0
    1.1225    0.8788   -0.2406 H   0  0  0  0  0  0  0  0  0  0  0  0
    2.4883    0.7265    0.9854 H   0  0  0  0  0  0  0  0  0  0  0  0
    1.5353   -1.7626   -0.5076 H   0  0  0  0  0  0  0  0  0  0  0  0
    2.6568   -1.5625    0.8330 H   0  0  0  0  0  0  0  0  0  0  0  0
    0.0231   -3.1379    0.8431 H   0  0  0  0  0  0  0  0  0  0  0  0
   -0.4710   -0.7343   -0.9063 H   0  0  0  0  0  0  0  0  0  0  0  0
   -2.8052    0.0283   -1.2157 H   0  0  0  0  0  0  0  0  0  0  0  0
   -3.4840   -0.2991    3.0263 H   0  0  0  0  0  0  0  0  0  0  0  0
   -1.2138   -1.0277    3.2790 H   0  0  0  0  0  0  0  0  0  0  0  0
   -6.9182    2.4082    1.9394 H   0  0  0  0  0  0  0  0  0  0  0  0
   -6.8872   -1.0762   -2.1075 H   0  0  0  0  0  0  0  0  0  0  0  0
   -8.6284   -2.1982   -1.1923 H   0  0  0  0  0  0  0  0  0  0  0  0
   -8.7560   -1.0236    0.1248 H   0  0  0  0  0  0  0  0  0  0  0  0
  -10.4510   -1.3697   -2.2801 H   0  0  0  0  0  0  0  0  0  0  0  0
  -10.7028   -0.2444   -0.9254 H   0  0  0  0  0  0  0  0  0  0  0  0
   -9.9847    1.4858   -2.3144 H   0  0  0  0  0  0  0  0  0  0  0  0
   -9.8773    0.3256   -3.6506 H   0  0  0  0  0  0  0  0  0  0  0  0
   -7.7260    1.7118   -2.2586 H   0  0  0  0  0  0  0  0  0  0  0  0
   -7.6198    0.5010   -3.5466 H   0  0  0  0  0  0  0  0  0  0  0  0
    1.7405   -2.6590    3.5046 H   0  0  0  0  0  0  0  0  0  0  0  0
    2.4280   -1.7595    5.7316 H   0  0  0  0  0  0  0  0  0  0  0  0
    1.1945    2.0841    4.5474 H   0  0  0  0  0  0  0  0  0  0  0  0
    0.5091    1.2225    2.3466 H   0  0  0  0  0  0  0  0  0  0  0  0
  1  2  1  0
  2  3  1  0
  3  4  1  0
  4  5  1  0
  5  6  1  0
  6  7  1  0
  7  8  1  0
  8  9  1  0
  9 10  1  0
 10 11  1  0
 11 12  1  0
 11 13  1  0
 13 14  2  0
 14 15  1  0
 15 16  2  0
 16 17  1  0
 17 18  2  0
 16 19  1  0
 19 20  2  0
 20 21  1  0
 21 22  1  0
 22 23  2  0
 22 24  1  0
 24 25  1  0
 25 26  2  0
 21 27  1  0
 27 28  1  0
 28 29  1  0
 29 30  1  0
 30 31  1  0
 11 32  1  0
 32 33  2  0
 33 34  1  0
 34 35  2  0
 35 36  1  0
 35 37  1  0
 37 38  2  0
 18 13  1  0
 25 19  1  0
 31 27  1  0
 38 32  1  0
  1 39  1  0
  1 40  1  0
  1 41  1  0
  2 42  1  0
  2 43  1  0
  3 44  1  0
  3 45  1  0
  4 46  1  0
  4 47  1  0
  5 48  1  0
  5 49  1  0
  6 50  1  0
  6 51  1  0
  7 52  1  0
  7 53  1  0
  8 54  1  0
  8 55  1  0
  9 56  1  0
  9 57  1  0
 10 58  1  0
 10 59  1  0
 12 60  1  0
 14 61  1  0
 15 62  1  0
 17 63  1  0
 18 64  1  0
 24 65  1  0
 27 66  1  0
 28 67  1  0
 28 68  1  0
 29 69  1  0
 29 70  1  0
 30 71  1  0
 30 72  1  0
 31 73  1  0
 31 74  1  0
 33 75  1  0
 34 76  1  0
 37 77  1  0
 38 78  1  0
M  END
$$$$
[H]OS(=O)(=O)C([H])([H])c1nc([H])c(C(=O)N([H])c2c([H])c(-c3c(OC([H])([H])[H])c([H])nc(N([H])[H])c3C([H])([H])[H])c([H])c([H])c2F)c([H])c1[H]
     RDKit          3D

 50 52  0  0  0  0  0  0  0  0999 V2000
   -4.2897    3.6343    0.3276 C   0  0  0  0  0  0  0  0  0  0  0  0
   -3.7601    2.3439    0.5646 O   0  0  0  0  0  0  0  0  0  0  0  0
   -4.2883    1.2500   -0.1077 C   0  0  0  0  0  0  0  0  0  0  0  0
   -5.3241    1.4054   -1.0050 C   0  0  0  0  0  0  0  0  0  0  0  0
   -5.8361    0.3443   -1.6564 N   0  0  0  0  0  0  0  0  0  0  0  0
   -5.3453   -0.8933   -1.4440 C   0  0  0  0  0  0  0  0  0  0  0  0
   -5.8930   -2.0299   -2.1394 N   0  0  0  0  0  0  0  0  0  0  0  0
   -4.3069   -1.1347   -0.5602 C   0  0  0  0  0  0  0  0  0  0  0  0
   -3.7946   -2.5132   -0.3488 C   0  0  0  0  0  0  0  0  0  0  0  0
   -3.8013   -0.0280    0.0936 C   0  0  0  0  0  0  0  0  0  0  0  0
   -2.7187   -0.2076    1.0276 C   0  0  0  0  0  0  0  0  0  0  0  0
   -2.9788   -0.3435    2.3650 C   0  0  0  0  0  0  0  0  0  0  0  0
   -1.9153   -0.5066    3.2267 C   0  0  0  0  0  0  0  0  0  0  0  0
   -0.6207   -0.5347    2.7700 C   0  0  0  0  0  0  0  0  0  0  0  0
    0.4347   -0.6961    3.6170 F   0  0  0  0  0  0  0  0  0  0  0  0
   -0.3078   -0.3988    1.3971 C   0  0  0  0  0  0  0  0  0  0  0  0
    1.0445   -0.4320    1.0210 N   0  0  0  0  0  0  0  0  0  0  0  0
    1.5314   -0.3156   -0.2824 C   0  0  0  0  0  0  0  0  0  0  0  0
    0.8567   -0.1633   -1.3445 O   0  0  0  0  0  0  0  0  0  0  0  0
    2.9977   -0.3653   -0.5332 C   0  0  0  0  0  0  0  0  0  0  0  0
    3.5541    0.1948   -1.6682 C   0  0  0  0  0  0  0  0  0  0  0  0
    4.9092    0.1125   -1.8479 C   0  0  0  0  0  0  0  0  0  0  0  0
    5.7595   -0.5014   -0.9562 C   0  0  0  0  0  0  0  0  0  0  0  0
    7.2265   -0.5699   -1.1850 C   0  0  0  0  0  0  0  0  0  0  0  0
    8.0372    0.8543   -0.4674 S   0  0  0  0  0  0  0  0  0  0  0  0
    7.4690    2.2649   -1.1478 O   0  0  0  0  0  0  0  0  0  0  0  0
    7.8520    0.8226    1.0299 O   0  0  0  0  0  0  0  0  0  0  0  0
    9.5094    0.7370   -0.7407 O   0  0  0  0  0  0  0  0  0  0  0  0
    5.1821   -1.0451    0.1543 N   0  0  0  0  0  0  0  0  0  0  0  0
    3.8319   -0.9739    0.3529 C   0  0  0  0  0  0  0  0  0  0  0  0
   -1.4059   -0.2396    0.5927 C   0  0  0  0  0  0  0  0  0  0  0  0
   -5.3491    3.7215    0.6420 H   0  0  0  0  0  0  0  0  0  0  0  0
   -3.6283    4.3958    0.8168 H   0  0  0  0  0  0  0  0  0  0  0  0
   -4.2717    3.8126   -0.7757 H   0  0  0  0  0  0  0  0  0  0  0  0
   -5.7084    2.4171   -1.1656 H   0  0  0  0  0  0  0  0  0  0  0  0
   -6.8724   -2.2998   -2.0352 H   0  0  0  0  0  0  0  0  0  0  0  0
   -5.2611   -2.5793   -2.7572 H   0  0  0  0  0  0  0  0  0  0  0  0
   -3.4748   -2.7187    0.6714 H   0  0  0  0  0  0  0  0  0  0  0  0
   -3.0412   -2.8118   -1.1180 H   0  0  0  0  0  0  0  0  0  0  0  0
   -4.6735   -3.1833   -0.5421 H   0  0  0  0  0  0  0  0  0  0  0  0
   -3.9777   -0.3306    2.7927 H   0  0  0  0  0  0  0  0  0  0  0  0
   -2.0922   -0.6174    4.2974 H   0  0  0  0  0  0  0  0  0  0  0  0
    1.7756   -0.5494    1.7735 H   0  0  0  0  0  0  0  0  0  0  0  0
    2.8776    0.6774   -2.3693 H   0  0  0  0  0  0  0  0  0  0  0  0
    5.3240    0.5601   -2.7434 H   0  0  0  0  0  0  0  0  0  0  0  0
    7.4431   -0.5334   -2.2752 H   0  0  0  0  0  0  0  0  0  0  0  0
    7.5858   -1.4928   -0.7046 H   0  0  0  0  0  0  0  0  0  0  0  0
    7.4551    3.0206   -0.5088 H   0  0  0  0  0  0  0  0  0  0  0  0
    3.4699   -1.4302    1.2459 H   0  0  0  0  0  0  0  0  0  0  0  0
   -1.1905   -0.1299   -0.4858 H   0  0  0  0  0  0  0  0  0  0  0  0
  1  2  1  0
  2  3  1  0
  3  4  2  0
  4  5  1  0
  5  6  2  0
  6  7  1  0
  6  8  1  0
  8  9  1  0
  8 10  2  0
 10 11  1  0
 11 12  2  0
 12 13  1  0
 13 14  2  0
 14 15  1  0
 14 16  1  0
 16 17  1  0
 17 18  1  0
 18 19  2  0
 18 20  1  0
 20 21  2  0
 21 22  1  0
 22 23  2  0
 23 24  1  0
 24 25  1  0
 25 26  1  0
 25 27  2  0
 25 28  2  0
 23 29  1  0
 29 30  2  0
 16 31  2  0
 10  3  1  0
 31 11  1  0
 30 20  1  0
  1 32  1  0
  1 33  1  0
  1 34  1  0
  4 35  1  0
  7 36  1  0
  7 37  1  0
  9 38  1  0
  9 39  1  0
  9 40  1  0
 12 41  1  0
 13 42  1  0
 17 43  1  0
 21 44  1  0
 22 45  1  0
 24 46  1  0
 24 47  1  0
 26 48  1  0
 30 49  1  0
 31 50  1  0
M  END
$$$$
[H]c1nc(N([H])C2([H])C([H])([H])C([H])([H])N(C(F)(F)F)C([H])([H])C2([H])[H])nc(-c2c([H])c([H])nc([H])c2[H])c1[H]
     RDKit          3D

 39 41  0  0  0  0  0  0  0  0999 V2000
    5.7452    2.0810   -0.5732 F   0  0  0  0  0  0  0  0  0  0  0  0
    4.8871    1.1174   -1.0481 C   0  0  0  0  0  0  0  0  0  0  0  0
    5.5082   -0.1021   -0.8879 F   0  0  0  0  0  0  0  0  0  0  0  0
    4.7128    1.3497   -2.3987 F   0  0  0  0  0  0  0  0  0  0  0  0
    3.6391    1.2275   -0.3968 N   0  0  0  0  0  0  0  0  0  0  0  0
    3.6297    1.0768    1.0110 C   0  0  0  0  0  0  0  0  0  0  0  0
    2.9235   -0.1797    1.4319 C   0  0  0  0  0  0  0  0  0  0  0  0
    1.4836   -0.1077    0.9728 C   0  0  0  0  0  0  0  0  0  0  0  0
    1.5482   -0.0925   -0.5464 C   0  0  0  0  0  0  0  0  0  0  0  0
    2.4870    0.9071   -1.1112 C   0  0  0  0  0  0  0  0  0  0  0  0
    0.8364   -1.3430    1.3567 N   0  0  0  0  0  0  0  0  0  0  0  0
   -0.5445   -1.5920    1.1174 C   0  0  0  0  0  0  0  0  0  0  0  0
   -1.0487   -2.7730    1.5100 N   0  0  0  0  0  0  0  0  0  0  0  0
   -2.3318   -3.1214    1.3432 C   0  0  0  0  0  0  0  0  0  0  0  0
   -3.1536   -2.1709    0.7215 C   0  0  0  0  0  0  0  0  0  0  0  0
   -2.6631   -0.9613    0.3129 C   0  0  0  0  0  0  0  0  0  0  0  0
   -1.3412   -0.7173    0.5351 N   0  0  0  0  0  0  0  0  0  0  0  0
   -3.5047    0.0405   -0.3362 C   0  0  0  0  0  0  0  0  0  0  0  0
   -4.8399   -0.1451   -0.5874 C   0  0  0  0  0  0  0  0  0  0  0  0
   -5.6297    0.8079   -1.2022 C   0  0  0  0  0  0  0  0  0  0  0  0
   -5.0663    1.9632   -1.5689 N   0  0  0  0  0  0  0  0  0  0  0  0
   -3.7547    2.1922   -1.3426 C   0  0  0  0  0  0  0  0  0  0  0  0
   -2.9505    1.2617   -0.7341 C   0  0  0  0  0  0  0  0  0  0  0  0
    4.6728    1.0674    1.3907 H   0  0  0  0  0  0  0  0  0  0  0  0
    3.0411    1.9321    1.4444 H   0  0  0  0  0  0  0  0  0  0  0  0
    3.3882   -1.0178    0.8341 H   0  0  0  0  0  0  0  0  0  0  0  0
    3.0277   -0.3696    2.5090 H   0  0  0  0  0  0  0  0  0  0  0  0
    0.9605    0.7837    1.3659 H   0  0  0  0  0  0  0  0  0  0  0  0
    0.5585    0.0658   -1.0069 H   0  0  0  0  0  0  0  0  0  0  0  0
    1.8686   -1.1208   -0.8604 H   0  0  0  0  0  0  0  0  0  0  0  0
    1.9034    1.8484   -1.3149 H   0  0  0  0  0  0  0  0  0  0  0  0
    2.7796    0.5497   -2.1416 H   0  0  0  0  0  0  0  0  0  0  0  0
    1.4259   -2.0664    1.8264 H   0  0  0  0  0  0  0  0  0  0  0  0
   -2.7236   -4.0734    1.6634 H   0  0  0  0  0  0  0  0  0  0  0  0
   -4.1739   -2.4401    0.5855 H   0  0  0  0  0  0  0  0  0  0  0  0
   -5.3313   -1.0907   -0.2948 H   0  0  0  0  0  0  0  0  0  0  0  0
   -6.6887    0.5988   -1.3742 H   0  0  0  0  0  0  0  0  0  0  0  0
   -3.3769    3.1560   -1.6715 H   0  0  0  0  0  0  0  0  0  0  0  0
   -1.9039    1.4578   -0.5595 H   0  0  0  0  0  0  0  0  0  0  0  0
  1  2  1  0
  2  3  1  0
  2  4  1  0
  2  5  1  0
  5  6  1  0
  6  7  1  0
  7  8  1  0
  8  9  1  0
  9 10  1  0
  8 11  1  0
 11 12  1  0
 12 13  2  0
 13 14  1  0
 14 15  2  0
 15 16  1  0
 16 17  2  0
 16 18  1  0
 18 19  2  0
 19 20  1  0
 20 21  2  0
 21 22  1  0
 22 23  2  0
 10  5  1  0
 17 12  1  0
 23 18  1  0
  6 24  1  0
  6 25  1  0
  7 26  1  0
  7 27  1  0
  8 28  1  0
  9 29  1  0
  9 30  1  0
 10 31  1  0
 10 32  1  0
 11 33  1  0
 14 34  1  0
 15 35  1  0
 19 36  1  0
 20 37  1  0
 22 38  1  0
 23 39  1  0
M  END
$$$$
[H]c1nc(C(=O)N([H])[H])oc1C([H])([H])c1c([H])c([H])c([H])c(C([H])([H])N(C(=O)c2c([H])c([H])c([H])c([H])c2[H])C([H])([H])[H])c1[H]
     RDKit          3D

 45 47  0  0  0  0  0  0  0  0999 V2000
    0.1000    2.0811    1.7493 C   0  0  0  0  0  0  0  0  0  0  0  0
   -1.1105    1.2147    1.4185 N   0  0  0  0  0  0  0  0  0  0  0  0
   -1.1821    0.0002    2.1802 C   0  0  0  0  0  0  0  0  0  0  0  0
   -0.4425   -1.0923    1.4527 C   0  0  0  0  0  0  0  0  0  0  0  0
   -0.3672   -2.3652    1.9742 C   0  0  0  0  0  0  0  0  0  0  0  0
    0.3193   -3.3799    1.2995 C   0  0  0  0  0  0  0  0  0  0  0  0
    0.9402   -3.1317    0.0916 C   0  0  0  0  0  0  0  0  0  0  0  0
    0.8644   -1.8584   -0.4292 C   0  0  0  0  0  0  0  0  0  0  0  0
    1.5248   -1.5709   -1.7261 C   0  0  0  0  0  0  0  0  0  0  0  0
    2.9252   -1.1267   -1.4936 C   0  0  0  0  0  0  0  0  0  0  0  0
    4.0198   -1.9604   -1.4290 C   0  0  0  0  0  0  0  0  0  0  0  0
    5.0784   -1.1628   -1.2075 N   0  0  0  0  0  0  0  0  0  0  0  0
    4.6649    0.1288   -1.1350 C   0  0  0  0  0  0  0  0  0  0  0  0
    3.3605    0.0915   -1.3142 O   0  0  0  0  0  0  0  0  0  0  0  0
    5.5038    1.2939   -0.9066 C   0  0  0  0  0  0  0  0  0  0  0  0
    4.9506    2.5837   -0.8531 N   0  0  0  0  0  0  0  0  0  0  0  0
    6.7343    1.1303   -0.7572 O   0  0  0  0  0  0  0  0  0  0  0  0
    0.1847   -0.8606    0.2423 C   0  0  0  0  0  0  0  0  0  0  0  0
   -1.9219    1.7661    0.4480 C   0  0  0  0  0  0  0  0  0  0  0  0
   -1.5111    2.9410   -0.0060 O   0  0  0  0  0  0  0  0  0  0  0  0
   -3.1347    1.2812   -0.1506 C   0  0  0  0  0  0  0  0  0  0  0  0
   -3.7280    0.0812    0.1106 C   0  0  0  0  0  0  0  0  0  0  0  0
   -4.9236   -0.2701   -0.5339 C   0  0  0  0  0  0  0  0  0  0  0  0
   -5.5466    0.5502   -1.4388 C   0  0  0  0  0  0  0  0  0  0  0  0
   -4.9443    1.7490   -1.6935 C   0  0  0  0  0  0  0  0  0  0  0  0
   -3.7823    2.1116   -1.0788 C   0  0  0  0  0  0  0  0  0  0  0  0
    0.8905    1.3766    2.0081 H   0  0  0  0  0  0  0  0  0  0  0  0
   -0.2335    2.7674    2.5231 H   0  0  0  0  0  0  0  0  0  0  0  0
    0.3866    2.5886    0.8090 H   0  0  0  0  0  0  0  0  0  0  0  0
   -2.1518   -0.2864    2.5540 H   0  0  0  0  0  0  0  0  0  0  0  0
   -0.5122    0.1924    3.1137 H   0  0  0  0  0  0  0  0  0  0  0  0
   -0.8495   -2.5732    2.9203 H   0  0  0  0  0  0  0  0  0  0  0  0
    0.3721   -4.3888    1.7249 H   0  0  0  0  0  0  0  0  0  0  0  0
    1.4698   -3.9322   -0.4198 H   0  0  0  0  0  0  0  0  0  0  0  0
    1.4773   -2.4359   -2.4193 H   0  0  0  0  0  0  0  0  0  0  0  0
    0.9653   -0.7395   -2.2036 H   0  0  0  0  0  0  0  0  0  0  0  0
    3.9899   -3.0369   -1.5398 H   0  0  0  0  0  0  0  0  0  0  0  0
    4.0787    2.7701   -1.4011 H   0  0  0  0  0  0  0  0  0  0  0  0
    5.3583    3.3579   -0.3018 H   0  0  0  0  0  0  0  0  0  0  0  0
    0.1207    0.1483   -0.1634 H   0  0  0  0  0  0  0  0  0  0  0  0
   -3.3222   -0.6362    0.7928 H   0  0  0  0  0  0  0  0  0  0  0  0
   -5.4011   -1.2319   -0.3255 H   0  0  0  0  0  0  0  0  0  0  0  0
   -6.4642    0.2983   -1.9435 H   0  0  0  0  0  0  0  0  0  0  0  0
   -5.3938    2.4515   -2.4093 H   0  0  0  0  0  0  0  0  0  0  0  0
   -3.3571    3.0842   -1.3297 H   0  0  0  0  0  0  0  0  0  0  0  0
  1  2  1  0
  2  3  1  0
  3  4  1  0
  4  5  2  0
  5  6  1  0
  6  7  2  0
  7  8  1  0
  8  9  1  0
  9 10  1  0
 10 11  2  0
 11 12  1  0
 12 13  2  0
 13 14  1  0
 13 15  1  0
 15 16  1  0
 15 17  2  0
  8 18  2  0
  2 19  1  0
 19 20  2  0
 19 21  1  0
 21 22  2  0
 22 23  1  0
 23 24  2  0
 24 25  1  0
 25 26  2  0
 18  4  1  0
 26 21  1  0
 14 10  1  0
  1 27  1  0
  1 28  1  0
  1 29  1  0
  3 30  1  0
  3 31  1  0
  5 32  1  0
  6 33  1  0
  7 34  1  0
  9 35  1  0
  9 36  1  0
 11 37  1  0
 16 38  1  0
 16 39  1  0
 18 40  1  0
 22 41  1  0
 23 42  1  0
 24 43  1  0
 25 44  1  0
 26 45  1  0
M  END
$$$$
[H]c1c(C([H])([H])[H])sc(N2C([H])([H])C([H])([H])N(C([H])([H])C([H])([H])c3c([H])n([H])c(=O)c4c([H])c([H])c(F)c([H])c34)C([H])([H])C2([H])[H])c1C(=O)N([H])[H]
     RDKit          3D

 52 55  0  0  0  0  0  0  0  0999 V2000
   -6.9668   -1.9436   -1.1489 C   0  0  0  0  0  0  0  0  0  0  0  0
   -5.8508   -0.9760   -0.8190 C   0  0  0  0  0  0  0  0  0  0  0  0
   -5.9641    0.3680   -0.6365 C   0  0  0  0  0  0  0  0  0  0  0  0
   -4.8445    1.0649   -0.3467 C   0  0  0  0  0  0  0  0  0  0  0  0
   -4.8710    2.5417   -0.1272 C   0  0  0  0  0  0  0  0  0  0  0  0
   -6.0689    3.3004   -0.2350 N   0  0  0  0  0  0  0  0  0  0  0  0
   -3.8179    3.1146    0.1554 O   0  0  0  0  0  0  0  0  0  0  0  0
   -3.6750    0.3586   -0.2591 C   0  0  0  0  0  0  0  0  0  0  0  0
   -4.1947   -1.2598   -0.5873 S   0  0  0  0  0  0  0  0  0  0  0  0
   -2.3529    0.8118    0.0170 N   0  0  0  0  0  0  0  0  0  0  0  0
   -1.4382    1.1444   -1.0362 C   0  0  0  0  0  0  0  0  0  0  0  0
   -0.0358    0.7127   -0.7252 C   0  0  0  0  0  0  0  0  0  0  0  0
    0.1423   -0.0955    0.4143 N   0  0  0  0  0  0  0  0  0  0  0  0
    1.5128   -0.4038    0.7259 C   0  0  0  0  0  0  0  0  0  0  0  0
    2.1539   -1.3203   -0.2833 C   0  0  0  0  0  0  0  0  0  0  0  0
    3.5589   -1.6221    0.0339 C   0  0  0  0  0  0  0  0  0  0  0  0
    3.9380   -2.7992    0.6436 C   0  0  0  0  0  0  0  0  0  0  0  0
    5.2387   -3.0100    0.9306 N   0  0  0  0  0  0  0  0  0  0  0  0
    6.1894   -2.1057    0.6411 C   0  0  0  0  0  0  0  0  0  0  0  0
    7.4129   -2.3351    0.9260 O   0  0  0  0  0  0  0  0  0  0  0  0
    5.8660   -0.9130    0.0316 C   0  0  0  0  0  0  0  0  0  0  0  0
    6.8487    0.0167   -0.2724 C   0  0  0  0  0  0  0  0  0  0  0  0
    6.4430    1.1840   -0.8898 C   0  0  0  0  0  0  0  0  0  0  0  0
    5.1227    1.4323   -1.1985 C   0  0  0  0  0  0  0  0  0  0  0  0
    4.7322    2.5710   -1.8009 F   0  0  0  0  0  0  0  0  0  0  0  0
    4.1558    0.4897   -0.8857 C   0  0  0  0  0  0  0  0  0  0  0  0
    4.5213   -0.6787   -0.2730 C   0  0  0  0  0  0  0  0  0  0  0  0
   -0.6961    0.0681    1.5344 C   0  0  0  0  0  0  0  0  0  0  0  0
   -1.9065    0.9251    1.3744 C   0  0  0  0  0  0  0  0  0  0  0  0
   -6.5115   -2.7090   -1.7987 H   0  0  0  0  0  0  0  0  0  0  0  0
   -7.3552   -2.3241   -0.1982 H   0  0  0  0  0  0  0  0  0  0  0  0
   -7.7732   -1.3742   -1.6479 H   0  0  0  0  0  0  0  0  0  0  0  0
   -6.9721    0.8384   -0.7332 H   0  0  0  0  0  0  0  0  0  0  0  0
   -6.1265    4.2052   -0.7491 H   0  0  0  0  0  0  0  0  0  0  0  0
   -6.9198    2.9157    0.2297 H   0  0  0  0  0  0  0  0  0  0  0  0
   -1.7620    0.6050   -1.9605 H   0  0  0  0  0  0  0  0  0  0  0  0
   -1.4586    2.2428   -1.1962 H   0  0  0  0  0  0  0  0  0  0  0  0
    0.5969    1.6386   -0.5969 H   0  0  0  0  0  0  0  0  0  0  0  0
    0.3892    0.1558   -1.6128 H   0  0  0  0  0  0  0  0  0  0  0  0
    1.4577   -1.0217    1.6775 H   0  0  0  0  0  0  0  0  0  0  0  0
    2.1150    0.4678    1.0115 H   0  0  0  0  0  0  0  0  0  0  0  0
    1.9911   -1.0310   -1.3343 H   0  0  0  0  0  0  0  0  0  0  0  0
    1.5941   -2.3005   -0.1878 H   0  0  0  0  0  0  0  0  0  0  0  0
    3.1561   -3.5105    0.8664 H   0  0  0  0  0  0  0  0  0  0  0  0
    5.5157   -3.9035    1.3921 H   0  0  0  0  0  0  0  0  0  0  0  0
    7.8876   -0.1795   -0.0286 H   0  0  0  0  0  0  0  0  0  0  0  0
    7.2257    1.9079   -1.1234 H   0  0  0  0  0  0  0  0  0  0  0  0
    3.1041    0.6568   -1.1244 H   0  0  0  0  0  0  0  0  0  0  0  0
   -0.0580    0.4654    2.3759 H   0  0  0  0  0  0  0  0  0  0  0  0
   -0.9933   -0.9684    1.8807 H   0  0  0  0  0  0  0  0  0  0  0  0
   -2.6697    0.5998    2.1112 H   0  0  0  0  0  0  0  0  0  0  0  0
   -1.5869    1.9822    1.5478 H   0  0  0  0  0  0  0  0  0  0  0  0
  1  2  1  0
  2  3  2  0
  3  4  1  0
  4  5  1  0
  5  6  1  0
  5  7  2  0
  4  8  2  0
  8  9  1  0
  8 10  1  0
 10 11  1  0
 11 12  1  0
 12 13  1  0
 13 14  1  0
 14 15  1  0
 15 16  1  0
 16 17  2  0
 17 18  1  0
 18 19  1  0
 19 20  2  0
 19 21  1  0
 21 22  2  0
 22 23  1  0
 23 24  2  0
 24 25  1  0
 24 26  1  0
 26 27  2  0
 13 28  1  0
 28 29  1  0
  9  2  1  0
 29 10  1  0
 27 16  1  0
 27 21  1  0
  1 30  1  0
  1 31  1  0
  1 32  1  0
  3 33  1  0
  6 34  1  0
  6 35  1  0
 11 36  1  0
 11 37  1  0
 12 38  1  0
 12 39  1  0
 14 40  1  0
 14 41  1  0
 15 42  1  0
 15 43  1  0
 17 44  1  0
 18 45  1  0
 22 46  1  0
 23 47  1  0
 26 48  1  0
 28 49  1  0
 28 50  1  0
 29 51  1  0
 29 52  1  0
M  END
$$$$
[H]Oc1c([H])c([H])c(C([H])([H])[C@@]([H])(C(=O)N([H])[H])N([H])C(=O)[C@]([H])(N([H])C(=O)[C@]([H])(O[H])N([H])[H])C([H])([H])C([H])([H])[H])c([H])c1[H]
     RDKit          3D

 46 46  0  0  0  0  0  0  0  0999 V2000
    2.9320   -0.7677   -1.1001 C   0  0  0  0  0  0  0  0  0  0  0  0
    2.6566   -1.8048   -0.0210 C   0  0  0  0  0  0  0  0  0  0  0  0
    2.1697   -1.1117    1.2601 C   0  0  1  0  0  0  0  0  0  0  0  0
    3.1774   -0.2110    1.7148 N   0  0  0  0  0  0  0  0  0  0  0  0
    3.8738   -0.2575    2.9349 C   0  0  0  0  0  0  0  0  0  0  0  0
    3.5944   -1.1905    3.7315 O   0  0  0  0  0  0  0  0  0  0  0  0
    4.9073    0.7149    3.3383 C   0  0  1  0  0  0  0  0  0  0  0  0
    4.3712    2.0590    3.4726 N   0  0  0  0  0  0  0  0  0  0  0  0
    5.4211    0.3875    4.5907 O   0  0  0  0  0  0  0  0  0  0  0  0
    0.9034   -0.4338    0.9026 C   0  0  0  0  0  0  0  0  0  0  0  0
    0.8284    0.8096    1.0405 O   0  0  0  0  0  0  0  0  0  0  0  0
   -0.2289   -1.1202    0.4113 N   0  0  0  0  0  0  0  0  0  0  0  0
   -1.4796   -0.3992    0.0640 C   0  0  1  0  0  0  0  0  0  0  0  0
   -1.6114   -0.5621   -1.4072 C   0  0  0  0  0  0  0  0  0  0  0  0
   -2.7751    0.0617   -2.0557 C   0  0  0  0  0  0  0  0  0  0  0  0
   -2.7037    1.3979   -2.4736 C   0  0  0  0  0  0  0  0  0  0  0  0
   -3.7640    2.0085   -3.1069 C   0  0  0  0  0  0  0  0  0  0  0  0
   -4.9437    1.3416   -3.3613 C   0  0  0  0  0  0  0  0  0  0  0  0
   -6.0160    1.9776   -4.0080 O   0  0  0  0  0  0  0  0  0  0  0  0
   -5.0217    0.0288   -2.9537 C   0  0  0  0  0  0  0  0  0  0  0  0
   -3.9606   -0.5817   -2.3203 C   0  0  0  0  0  0  0  0  0  0  0  0
   -2.5849   -0.8807    0.8899 C   0  0  0  0  0  0  0  0  0  0  0  0
   -3.8933   -0.3508    0.8274 N   0  0  0  0  0  0  0  0  0  0  0  0
   -2.3812   -1.8145    1.7072 O   0  0  0  0  0  0  0  0  0  0  0  0
    3.8529   -0.1708   -0.8497 H   0  0  0  0  0  0  0  0  0  0  0  0
    2.1131   -0.0344   -1.1748 H   0  0  0  0  0  0  0  0  0  0  0  0
    3.0999   -1.2570   -2.0594 H   0  0  0  0  0  0  0  0  0  0  0  0
    1.7832   -2.3962   -0.3824 H   0  0  0  0  0  0  0  0  0  0  0  0
    3.5518   -2.4067    0.1537 H   0  0  0  0  0  0  0  0  0  0  0  0
    1.9288   -1.9147    1.9835 H   0  0  0  0  0  0  0  0  0  0  0  0
    3.4228    0.5815    1.0476 H   0  0  0  0  0  0  0  0  0  0  0  0
    5.7573    0.6691    2.6198 H   0  0  0  0  0  0  0  0  0  0  0  0
    4.4204    2.5027    2.5294 H   0  0  0  0  0  0  0  0  0  0  0  0
    4.8737    2.6536    4.1396 H   0  0  0  0  0  0  0  0  0  0  0  0
    5.6985    1.1975    5.0909 H   0  0  0  0  0  0  0  0  0  0  0  0
   -0.1650   -2.1583    0.2961 H   0  0  0  0  0  0  0  0  0  0  0  0
   -1.2641    0.6638    0.3315 H   0  0  0  0  0  0  0  0  0  0  0  0
   -1.5688   -1.6613   -1.6832 H   0  0  0  0  0  0  0  0  0  0  0  0
   -0.6406   -0.1790   -1.8485 H   0  0  0  0  0  0  0  0  0  0  0  0
   -1.8037    1.9408   -2.2899 H   0  0  0  0  0  0  0  0  0  0  0  0
   -3.7212    3.0471   -3.4373 H   0  0  0  0  0  0  0  0  0  0  0  0
   -6.1156    1.9648   -5.0202 H   0  0  0  0  0  0  0  0  0  0  0  0
   -5.9391   -0.5183   -3.1417 H   0  0  0  0  0  0  0  0  0  0  0  0
   -4.0298   -1.6211   -2.0017 H   0  0  0  0  0  0  0  0  0  0  0  0
   -3.9620    0.7076    0.9017 H   0  0  0  0  0  0  0  0  0  0  0  0
   -4.7636   -0.9115    0.7172 H   0  0  0  0  0  0  0  0  0  0  0  0
  1  2  1  0
  2  3  1  0
  3  4  1  0
  4  5  1  0
  5  6  2  0
  5  7  1  0
  7  8  1  0
  7  9  1  0
  3 10  1  0
 10 11  2  0
 10 12  1  0
 12 13  1  0
 13 14  1  0
 14 15  1  0
 15 16  2  0
 16 17  1  0
 17 18  2  0
 18 19  1  0
 18 20  1  0
 20 21  2  0
 13 22  1  0
 22 23  1  0
 22 24  2  0
 21 15  1  0
  1 25  1  0
  1 26  1  0
  1 27  1  0
  2 28  1  0
  2 29  1  0
  3 30  1  1
  4 31  1  0
  7 32  1  6
  8 33  1  0
  8 34  1  0
  9 35  1  0
 12 36  1  0
 13 37  1  6
 14 38  1  0
 14 39  1  0
 16 40  1  0
 17 41  1  0
 19 42  1  0
 20 43  1  0
 21 44  1  0
 23 45  1  0
 23 46  1  0
M  END
$$$$
[H]c1c([H])c(C([H])([H])[C@@]([H])(C(=O)N2C([H])([H])C([H])([H])C([H])([H])C2([H])[H])N([H])C(=O)C([H])([H])[H])c([H])c([H])c1OC1(C(=O)N([H])C2([H])C([H])([H])C([H])([H])C([H])([H])C([H])([H])C2([H])[H])C([H])([H])C([H])([H])C([H])([H])C1([H])[H]
     RDKit          3D

 73 76  0  0  0  0  0  0  0  0999 V2000
    6.6014    2.8873    1.5386 C   0  0  0  0  0  0  0  0  0  0  0  0
    6.0253    2.0582    0.4658 C   0  0  0  0  0  0  0  0  0  0  0  0
    6.6210    2.1119   -0.6661 O   0  0  0  0  0  0  0  0  0  0  0  0
    4.8692    1.2266    0.6634 N   0  0  0  0  0  0  0  0  0  0  0  0
    4.4296    0.4236   -0.4447 C   0  0  1  0  0  0  0  0  0  0  0  0
    3.3121    1.0876   -1.2019 C   0  0  0  0  0  0  0  0  0  0  0  0
    2.0919    0.9996   -0.3934 C   0  0  0  0  0  0  0  0  0  0  0  0
    1.7587    1.7260    0.6737 C   0  0  0  0  0  0  0  0  0  0  0  0
    0.5087    1.5403    1.3379 C   0  0  0  0  0  0  0  0  0  0  0  0
   -0.3405    0.6122    0.8692 C   0  0  0  0  0  0  0  0  0  0  0  0
   -1.5937    0.3173    1.3853 O   0  0  0  0  0  0  0  0  0  0  0  0
   -2.7597    1.0298    0.9976 C   0  0  0  0  0  0  0  0  0  0  0  0
   -2.7879    1.2367   -0.5198 C   0  0  0  0  0  0  0  0  0  0  0  0
   -3.3346    2.6418   -0.7358 C   0  0  0  0  0  0  0  0  0  0  0  0
   -3.4299    3.3036    0.6036 C   0  0  0  0  0  0  0  0  0  0  0  0
   -3.0184    2.2906    1.6557 C   0  0  0  0  0  0  0  0  0  0  0  0
   -3.9234    0.0529    1.2658 C   0  0  0  0  0  0  0  0  0  0  0  0
   -3.6433   -0.9423    1.9300 O   0  0  0  0  0  0  0  0  0  0  0  0
   -5.1529    0.3371    0.7443 N   0  0  0  0  0  0  0  0  0  0  0  0
   -6.4442   -0.3407    0.7239 C   0  0  0  0  0  0  0  0  0  0  0  0
   -6.5035   -1.7024    1.3122 C   0  0  0  0  0  0  0  0  0  0  0  0
   -7.1938   -2.6379    0.2691 C   0  0  0  0  0  0  0  0  0  0  0  0
   -6.1314   -2.7065   -0.8431 C   0  0  0  0  0  0  0  0  0  0  0  0
   -6.1288   -1.3610   -1.5275 C   0  0  0  0  0  0  0  0  0  0  0  0
   -6.9170   -0.3353   -0.7335 C   0  0  0  0  0  0  0  0  0  0  0  0
   -0.0051   -0.1603   -0.2536 C   0  0  0  0  0  0  0  0  0  0  0  0
    1.1727    0.0304   -0.8601 C   0  0  0  0  0  0  0  0  0  0  0  0
    5.4831   -0.2030   -1.2151 C   0  0  0  0  0  0  0  0  0  0  0  0
    5.9288    0.1921   -2.2949 O   0  0  0  0  0  0  0  0  0  0  0  0
    6.0607   -1.4054   -0.6251 N   0  0  0  0  0  0  0  0  0  0  0  0
    6.9941   -2.3157   -1.2014 C   0  0  0  0  0  0  0  0  0  0  0  0
    6.8261   -3.6345   -0.4623 C   0  0  0  0  0  0  0  0  0  0  0  0
    6.3858   -3.2125    0.9069 C   0  0  0  0  0  0  0  0  0  0  0  0
    5.8604   -1.8278    0.7831 C   0  0  0  0  0  0  0  0  0  0  0  0
    6.9623    2.1499    2.3188 H   0  0  0  0  0  0  0  0  0  0  0  0
    7.5339    3.3943    1.1671 H   0  0  0  0  0  0  0  0  0  0  0  0
    5.8639    3.5538    1.9629 H   0  0  0  0  0  0  0  0  0  0  0  0
    4.4155    1.2347    1.5858 H   0  0  0  0  0  0  0  0  0  0  0  0
    3.9032   -0.4913    0.0882 H   0  0  0  0  0  0  0  0  0  0  0  0
    3.5366    2.2171   -1.2804 H   0  0  0  0  0  0  0  0  0  0  0  0
    3.1554    0.7126   -2.2114 H   0  0  0  0  0  0  0  0  0  0  0  0
    2.3868    2.4966    1.1082 H   0  0  0  0  0  0  0  0  0  0  0  0
    0.2800    2.1635    2.2200 H   0  0  0  0  0  0  0  0  0  0  0  0
   -1.7335    1.3113   -0.8651 H   0  0  0  0  0  0  0  0  0  0  0  0
   -3.3137    0.4561   -1.0615 H   0  0  0  0  0  0  0  0  0  0  0  0
   -4.2559    2.5884   -1.3144 H   0  0  0  0  0  0  0  0  0  0  0  0
   -2.6146    3.2514   -1.3563 H   0  0  0  0  0  0  0  0  0  0  0  0
   -2.7282    4.1795    0.6903 H   0  0  0  0  0  0  0  0  0  0  0  0
   -4.4326    3.6935    0.7576 H   0  0  0  0  0  0  0  0  0  0  0  0
   -3.7470    2.2474    2.4870 H   0  0  0  0  0  0  0  0  0  0  0  0
   -2.0716    2.6515    2.1659 H   0  0  0  0  0  0  0  0  0  0  0  0
   -5.2024    1.3237    0.2449 H   0  0  0  0  0  0  0  0  0  0  0  0
   -7.1435    0.2660    1.3181 H   0  0  0  0  0  0  0  0  0  0  0  0
   -5.6007   -2.1985    1.5943 H   0  0  0  0  0  0  0  0  0  0  0  0
   -7.1835   -1.7424    2.2231 H   0  0  0  0  0  0  0  0  0  0  0  0
   -7.2341   -3.6138    0.7804 H   0  0  0  0  0  0  0  0  0  0  0  0
   -8.1359   -2.2325   -0.0785 H   0  0  0  0  0  0  0  0  0  0  0  0
   -6.2684   -3.5494   -1.5019 H   0  0  0  0  0  0  0  0  0  0  0  0
   -5.1517   -2.8037   -0.3127 H   0  0  0  0  0  0  0  0  0  0  0  0
   -6.5922   -1.4675   -2.5086 H   0  0  0  0  0  0  0  0  0  0  0  0
   -5.0693   -1.0097   -1.6875 H   0  0  0  0  0  0  0  0  0  0  0  0
   -7.9769   -0.4511   -0.8443 H   0  0  0  0  0  0  0  0  0  0  0  0
   -6.6147    0.6659   -1.1292 H   0  0  0  0  0  0  0  0  0  0  0  0
   -0.7149   -0.8812   -0.5985 H   0  0  0  0  0  0  0  0  0  0  0  0
    1.4865   -0.5405   -1.7502 H   0  0  0  0  0  0  0  0  0  0  0  0
    6.7368   -2.5230   -2.2767 H   0  0  0  0  0  0  0  0  0  0  0  0
    8.0467   -2.0053   -1.0747 H   0  0  0  0  0  0  0  0  0  0  0  0
    6.0109   -4.2383   -0.9242 H   0  0  0  0  0  0  0  0  0  0  0  0
    7.7808   -4.1722   -0.4186 H   0  0  0  0  0  0  0  0  0  0  0  0
    5.5778   -3.8997    1.2687 H   0  0  0  0  0  0  0  0  0  0  0  0
    7.2078   -3.2214    1.6664 H   0  0  0  0  0  0  0  0  0  0  0  0
    4.8139   -1.7305    1.0520 H   0  0  0  0  0  0  0  0  0  0  0  0
    6.4652   -1.1054    1.4336 H   0  0  0  0  0  0  0  0  0  0  0  0
  1  2  1  0
  2  3  2  0
  2  4  1  0
  4  5  1  0
  5  6  1  0
  6  7  1  0
  7  8  2  0
  8  9  1  0
  9 10  2  0
 10 11  1  0
 11 12  1  0
 12 13  1  0
 13 14  1  0
 14 15  1  0
 15 16  1  0
 12 17  1  0
 17 18  2  0
 17 19  1  0
 19 20  1  0
 20 21  1  0
 21 22  1  0
 22 23  1  0
 23 24  1  0
 24 25  1  0
 10 26  1  0
 26 27  2  0
  5 28  1  0
 28 29  2  0
 28 30  1  0
 30 31  1  0
 31 32  1  0
 32 33  1  0
 33 34  1  0
 27  7  1  0
 34 30  1  0
 16 12  1  0
 25 20  1  0
  1 35  1  0
  1 36  1  0
  1 37  1  0
  4 38  1  0
  5 39  1  1
  6 40  1  0
  6 41  1  0
  8 42  1  0
  9 43  1  0
 13 44  1  0
 13 45  1  0
 14 46  1  0
 14 47  1  0
 15 48  1  0
 15 49  1  0
 16 50  1  0
 16 51  1  0
 19 52  1  0
 20 53  1  0
 21 54  1  0
 21 55  1  0
 22 56  1  0
 22 57  1  0
 23 58  1  0
 23 59  1  0
 24 60  1  0
 24 61  1  0
 25 62  1  0
 25 63  1  0
 26 64  1  0
 27 65  1  0
 31 66  1  0
 31 67  1  0
 32 68  1  0
 32 69  1  0
 33 70  1  0
 33 71  1  0
 34 72  1  0
 34 73  1  0
M  END
$$$$
[H]c1nc(Oc2c([H])c([H])c([H])c([H])c2F)c([H])c([H])c1-c1nc(N([H])[C@@]([H])(C([H])([H])[H])C([H])([H])OC([H])([H])[H])nc2c([H])c(F)c([H])c([H])c12
     RDKit          3D

 51 54  0  0  0  0  0  0  0  0999 V2000
   -6.7981    3.2551   -1.0518 C   0  0  0  0  0  0  0  0  0  0  0  0
   -5.9064    2.1684   -1.1217 O   0  0  0  0  0  0  0  0  0  0  0  0
   -6.0221    1.5151    0.1140 C   0  0  0  0  0  0  0  0  0  0  0  0
   -5.1301    0.3121    0.2187 C   0  0  2  0  0  0  0  0  0  0  0  0
   -5.4114   -0.4004    1.5075 C   0  0  0  0  0  0  0  0  0  0  0  0
   -3.7636    0.7005    0.0603 N   0  0  0  0  0  0  0  0  0  0  0  0
   -2.6748   -0.2197    0.1261 C   0  0  0  0  0  0  0  0  0  0  0  0
   -1.4156    0.2098   -0.0379 N   0  0  0  0  0  0  0  0  0  0  0  0
   -0.3307   -0.6105    0.0113 C   0  0  0  0  0  0  0  0  0  0  0  0
    0.9933   -0.0381   -0.1804 C   0  0  0  0  0  0  0  0  0  0  0  0
    1.4318    1.0324    0.6004 C   0  0  0  0  0  0  0  0  0  0  0  0
    2.6745    1.5917    0.3542 C   0  0  0  0  0  0  0  0  0  0  0  0
    3.5226    1.1615   -0.6187 C   0  0  0  0  0  0  0  0  0  0  0  0
    4.7554    1.6823   -0.9020 O   0  0  0  0  0  0  0  0  0  0  0  0
    5.9811    1.3703   -0.4032 C   0  0  0  0  0  0  0  0  0  0  0  0
    6.9755    0.9110   -1.3077 C   0  0  0  0  0  0  0  0  0  0  0  0
    8.2131    0.5888   -0.8502 C   0  0  0  0  0  0  0  0  0  0  0  0
    8.5875    0.6767    0.4645 C   0  0  0  0  0  0  0  0  0  0  0  0
    7.6297    1.1204    1.3452 C   0  0  0  0  0  0  0  0  0  0  0  0
    6.3560    1.4566    0.9026 C   0  0  0  0  0  0  0  0  0  0  0  0
    5.5007    1.8817    1.8562 F   0  0  0  0  0  0  0  0  0  0  0  0
    3.0659    0.1066   -1.3736 N   0  0  0  0  0  0  0  0  0  0  0  0
    1.8780   -0.4441   -1.1551 C   0  0  0  0  0  0  0  0  0  0  0  0
   -0.5192   -1.9506    0.2426 C   0  0  0  0  0  0  0  0  0  0  0  0
    0.5212   -2.8574    0.3281 C   0  0  0  0  0  0  0  0  0  0  0  0
    0.2816   -4.2161    0.5801 C   0  0  0  0  0  0  0  0  0  0  0  0
   -1.0085   -4.6666    0.7476 C   0  0  0  0  0  0  0  0  0  0  0  0
   -1.1905   -5.9851    0.9880 F   0  0  0  0  0  0  0  0  0  0  0  0
   -2.0192   -3.7387    0.6579 C   0  0  0  0  0  0  0  0  0  0  0  0
   -1.8340   -2.3968    0.4131 C   0  0  0  0  0  0  0  0  0  0  0  0
   -2.8566   -1.5289    0.3501 N   0  0  0  0  0  0  0  0  0  0  0  0
   -6.5174    3.9281   -0.2054 H   0  0  0  0  0  0  0  0  0  0  0  0
   -6.8144    3.7901   -2.0172 H   0  0  0  0  0  0  0  0  0  0  0  0
   -7.7923    2.8339   -0.8013 H   0  0  0  0  0  0  0  0  0  0  0  0
   -5.7424    2.2067    0.9398 H   0  0  0  0  0  0  0  0  0  0  0  0
   -7.0931    1.2052    0.2689 H   0  0  0  0  0  0  0  0  0  0  0  0
   -5.4044   -0.3629   -0.6233 H   0  0  0  0  0  0  0  0  0  0  0  0
   -6.4547   -0.1458    1.8098 H   0  0  0  0  0  0  0  0  0  0  0  0
   -4.7421   -0.1246    2.3237 H   0  0  0  0  0  0  0  0  0  0  0  0
   -5.4382   -1.5143    1.3378 H   0  0  0  0  0  0  0  0  0  0  0  0
   -3.5484    1.7064   -0.1120 H   0  0  0  0  0  0  0  0  0  0  0  0
    0.7808    1.3889    1.3751 H   0  0  0  0  0  0  0  0  0  0  0  0
    2.9518    2.4498    0.9837 H   0  0  0  0  0  0  0  0  0  0  0  0
    6.6910    0.8399   -2.3328 H   0  0  0  0  0  0  0  0  0  0  0  0
    8.9608    0.2384   -1.5652 H   0  0  0  0  0  0  0  0  0  0  0  0
    9.5759    0.4152    0.8107 H   0  0  0  0  0  0  0  0  0  0  0  0
    7.8783    1.2041    2.3799 H   0  0  0  0  0  0  0  0  0  0  0  0
    1.5687   -1.2772   -1.7941 H   0  0  0  0  0  0  0  0  0  0  0  0
    1.5427   -2.5210    0.2187 H   0  0  0  0  0  0  0  0  0  0  0  0
    1.1471   -4.8630    0.6325 H   0  0  0  0  0  0  0  0  0  0  0  0
   -3.0367   -4.0857    0.7892 H   0  0  0  0  0  0  0  0  0  0  0  0
  1  2  1  0
  2  3  1  0
  3  4  1  0
  4  5  1  0
  4  6  1  0
  6  7  1  0
  7  8  2  0
  8  9  1  0
  9 10  1  0
 10 11  2  0
 11 12  1  0
 12 13  2  0
 13 14  1  0
 14 15  1  0
 15 16  2  0
 16 17  1  0
 17 18  2  0
 18 19  1  0
 19 20  2  0
 20 21  1  0
 13 22  1  0
 22 23  2  0
  9 24  2  0
 24 25  1  0
 25 26  2  0
 26 27  1  0
 27 28  1  0
 27 29  2  0
 29 30  1  0
 30 31  2  0
 31  7  1  0
 23 10  1  0
 30 24  1  0
 20 15  1  0
  1 32  1  0
  1 33  1  0
  1 34  1  0
  3 35  1  0
  3 36  1  0
  4 37  1  6
  5 38  1  0
  5 39  1  0
  5 40  1  0
  6 41  1  0
 11 42  1  0
 12 43  1  0
 16 44  1  0
 17 45  1  0
 18 46  1  0
 19 47  1  0
 23 48  1  0
 25 49  1  0
 26 50  1  0
 29 51  1  0
M  END
$$$$
[H]c1nc(N2C([H])([H])C([H])([H])C(c3c([H])c([H])c([H])c([H])c3[H])(N([H])[H])C([H])([H])C2([H])[H])c(N([H])C(=O)c2nc([H])c(C3([H])C([H])([H])C3([H])[H])c([H])n2)c([H])c1[H]
     RDKit          3D

 57 61  0  0  0  0  0  0  0  0999 V2000
   -2.6307    1.6777    0.9627 N   0  0  0  0  0  0  0  0  0  0  0  0
   -3.4034    0.6892    0.2341 C   0  0  0  0  0  0  0  0  0  0  0  0
   -3.3974   -0.5716    1.0747 C   0  0  0  0  0  0  0  0  0  0  0  0
   -1.9503   -0.7974    1.5141 C   0  0  0  0  0  0  0  0  0  0  0  0
   -1.2496   -1.0910    0.2403 N   0  0  0  0  0  0  0  0  0  0  0  0
   -1.2109   -0.0104   -0.6872 C   0  0  0  0  0  0  0  0  0  0  0  0
   -2.6450    0.3781   -1.0430 C   0  0  0  0  0  0  0  0  0  0  0  0
   -0.7510   -2.3927    0.1158 C   0  0  0  0  0  0  0  0  0  0  0  0
   -1.6828   -3.3829    0.1644 N   0  0  0  0  0  0  0  0  0  0  0  0
   -1.4336   -4.6737    0.0710 C   0  0  0  0  0  0  0  0  0  0  0  0
   -0.1263   -5.0336   -0.0856 C   0  0  0  0  0  0  0  0  0  0  0  0
    0.8747   -4.0521   -0.1421 C   0  0  0  0  0  0  0  0  0  0  0  0
    0.5654   -2.7112   -0.0420 C   0  0  0  0  0  0  0  0  0  0  0  0
    1.5925   -1.6935   -0.0401 N   0  0  0  0  0  0  0  0  0  0  0  0
    2.8992   -1.8620   -0.3716 C   0  0  0  0  0  0  0  0  0  0  0  0
    3.3058   -3.0437   -0.7704 O   0  0  0  0  0  0  0  0  0  0  0  0
    3.9504   -0.8508   -0.3296 C   0  0  0  0  0  0  0  0  0  0  0  0
    3.8180    0.3595    0.2129 N   0  0  0  0  0  0  0  0  0  0  0  0
    4.8569    1.2590    0.2351 C   0  0  0  0  0  0  0  0  0  0  0  0
    6.0778    0.9701   -0.2940 C   0  0  0  0  0  0  0  0  0  0  0  0
    6.2112   -0.3145   -0.8702 C   0  0  0  0  0  0  0  0  0  0  0  0
    5.1823   -1.1412   -0.8652 N   0  0  0  0  0  0  0  0  0  0  0  0
    7.2552    1.8661   -0.2829 C   0  0  0  0  0  0  0  0  0  0  0  0
    7.9282    2.2712    0.9843 C   0  0  0  0  0  0  0  0  0  0  0  0
    7.1412    3.2563    0.1313 C   0  0  0  0  0  0  0  0  0  0  0  0
   -4.7584    1.1892   -0.0736 C   0  0  0  0  0  0  0  0  0  0  0  0
   -5.2698    2.3108    0.5876 C   0  0  0  0  0  0  0  0  0  0  0  0
   -6.5327    2.8107    0.3119 C   0  0  0  0  0  0  0  0  0  0  0  0
   -7.3331    2.2076   -0.6362 C   0  0  0  0  0  0  0  0  0  0  0  0
   -6.8433    1.1054   -1.2929 C   0  0  0  0  0  0  0  0  0  0  0  0
   -5.5771    0.6016   -1.0183 C   0  0  0  0  0  0  0  0  0  0  0  0
   -2.5028    2.5346    0.4189 H   0  0  0  0  0  0  0  0  0  0  0  0
   -2.9870    1.8102    1.9335 H   0  0  0  0  0  0  0  0  0  0  0  0
   -4.0602   -0.4971    1.9493 H   0  0  0  0  0  0  0  0  0  0  0  0
   -3.6985   -1.4076    0.4099 H   0  0  0  0  0  0  0  0  0  0  0  0
   -1.8535   -1.6081    2.2344 H   0  0  0  0  0  0  0  0  0  0  0  0
   -1.5376    0.1329    1.9243 H   0  0  0  0  0  0  0  0  0  0  0  0
   -0.7178   -0.2787   -1.6391 H   0  0  0  0  0  0  0  0  0  0  0  0
   -0.7721    0.9183   -0.2528 H   0  0  0  0  0  0  0  0  0  0  0  0
   -2.6748    1.2632   -1.6810 H   0  0  0  0  0  0  0  0  0  0  0  0
   -3.1061   -0.4625   -1.6084 H   0  0  0  0  0  0  0  0  0  0  0  0
   -2.2372   -5.4134    0.1237 H   0  0  0  0  0  0  0  0  0  0  0  0
    0.1643   -6.0539   -0.1679 H   0  0  0  0  0  0  0  0  0  0  0  0
    1.8907   -4.4010   -0.2405 H   0  0  0  0  0  0  0  0  0  0  0  0
    1.2679   -0.7059    0.2418 H   0  0  0  0  0  0  0  0  0  0  0  0
    4.7276    2.2497    0.6928 H   0  0  0  0  0  0  0  0  0  0  0  0
    7.1825   -0.5368   -1.2971 H   0  0  0  0  0  0  0  0  0  0  0  0
    8.0335    1.6451   -1.0933 H   0  0  0  0  0  0  0  0  0  0  0  0
    9.0404    2.3712    0.9980 H   0  0  0  0  0  0  0  0  0  0  0  0
    7.5267    1.9290    1.9376 H   0  0  0  0  0  0  0  0  0  0  0  0
    7.7308    4.0345   -0.4190 H   0  0  0  0  0  0  0  0  0  0  0  0
    6.2873    3.6994    0.6775 H   0  0  0  0  0  0  0  0  0  0  0  0
   -4.6519    2.7723    1.3089 H   0  0  0  0  0  0  0  0  0  0  0  0
   -6.9348    3.6851    0.8245 H   0  0  0  0  0  0  0  0  0  0  0  0
   -8.3336    2.6116   -0.8474 H   0  0  0  0  0  0  0  0  0  0  0  0
   -7.4625    0.6390   -2.0303 H   0  0  0  0  0  0  0  0  0  0  0  0
   -5.1850   -0.2614   -1.5267 H   0  0  0  0  0  0  0  0  0  0  0  0
  1  2  1  0
  2  3  1  0
  3  4  1  0
  4  5  1  0
  5  6  1  0
  6  7  1  0
  5  8  1  0
  8  9  2  0
  9 10  1  0
 10 11  2  0
 11 12  1  0
 12 13  2  0
 13 14  1  0
 14 15  1  0
 15 16  2  0
 15 17  1  0
 17 18  2  0
 18 19  1  0
 19 20  2  0
 20 21  1  0
 21 22  2  0
 20 23  1  0
 23 24  1  0
 24 25  1  0
  2 26  1  0
 26 27  2  0
 27 28  1  0
 28 29  2  0
 29 30  1  0
 30 31  2  0
  7  2  1  0
 13  8  1  0
 22 17  1  0
 25 23  1  0
 31 26  1  0
  1 32  1  0
  1 33  1  0
  3 34  1  0
  3 35  1  0
  4 36  1  0
  4 37  1  0
  6 38  1  0
  6 39  1  0
  7 40  1  0
  7 41  1  0
 10 42  1  0
 11 43  1  0
 12 44  1  0
 14 45  1  0
 19 46  1  0
 21 47  1  0
 23 48  1  0
 24 49  1  0
 24 50  1  0
 25 51  1  0
 25 52  1  0
 27 53  1  0
 28 54  1  0
 29 55  1  0
 30 56  1  0
 31 57  1  0
M  END
$$$$
