[H]OC(=O)[C@@]1([H])N(C([H])([H])C([H])([H])c2c([H])nc(-c3c([H])c([H])c([H])c([N+](=O)[O-])c3[H])c([H])c2[H])C([H])([H])C([H])([H])C1([H])[H]
     RDKit          3D

 44 46  0  0  0  0  0  0  0  0999 V2000
   -5.8738   -0.9292    1.4888 O   0  0  0  0  0  0  0  0  0  0  0  0
   -5.3789    0.3627    1.4087 C   0  0  0  0  0  0  0  0  0  0  0  0
   -5.9550    1.2456    2.0922 O   0  0  0  0  0  0  0  0  0  0  0  0
   -4.2230    0.7723    0.5781 C   0  0  2  0  0  0  0  0  0  0  0  0
   -4.7602    1.7827   -0.4361 C   0  0  0  0  0  0  0  0  0  0  0  0
   -4.7604    1.0405   -1.7471 C   0  0  0  0  0  0  0  0  0  0  0  0
   -4.1997   -0.3192   -1.4831 C   0  0  0  0  0  0  0  0  0  0  0  0
   -3.6522   -0.2949   -0.1539 N   0  0  0  0  0  0  0  0  0  0  0  0
   -2.2399   -0.3718   -0.2058 C   0  0  0  0  0  0  0  0  0  0  0  0
   -1.5451   -0.7248    1.0787 C   0  0  0  0  0  0  0  0  0  0  0  0
   -0.0685   -0.7143    0.7456 C   0  0  0  0  0  0  0  0  0  0  0  0
    0.5747   -1.8313    0.2725 C   0  0  0  0  0  0  0  0  0  0  0  0
    1.9411   -1.7335   -0.0133 C   0  0  0  0  0  0  0  0  0  0  0  0
    2.6238   -0.5729    0.1674 C   0  0  0  0  0  0  0  0  0  0  0  0
    1.9815    0.5066    0.6304 N   0  0  0  0  0  0  0  0  0  0  0  0
    0.6684    0.4430    0.9138 C   0  0  0  0  0  0  0  0  0  0  0  0
    4.0407   -0.4766   -0.1288 C   0  0  0  0  0  0  0  0  0  0  0  0
    4.7963   -1.5067   -0.6629 C   0  0  0  0  0  0  0  0  0  0  0  0
    6.1411   -1.3436   -0.9138 C   0  0  0  0  0  0  0  0  0  0  0  0
    6.7932   -0.1695   -0.6509 C   0  0  0  0  0  0  0  0  0  0  0  0
    6.0770    0.8824   -0.1179 C   0  0  0  0  0  0  0  0  0  0  0  0
    4.7395    0.7106    0.1283 C   0  0  0  0  0  0  0  0  0  0  0  0
    6.7117    2.1324    0.1760 N   0  0  0  0  0  0  0  0  0  0  0  0
    8.0420    2.3067   -0.0729 O   0  0  0  0  0  0  0  0  0  0  0  0
    6.0341    3.0571    0.6605 O   0  0  0  0  0  0  0  0  0  0  0  0
   -5.3279   -1.7668    1.4841 H   0  0  0  0  0  0  0  0  0  0  0  0
   -3.5179    1.2860    1.2650 H   0  0  0  0  0  0  0  0  0  0  0  0
   -5.7650    2.1408   -0.1866 H   0  0  0  0  0  0  0  0  0  0  0  0
   -4.1054    2.6644   -0.5107 H   0  0  0  0  0  0  0  0  0  0  0  0
   -5.8052    0.9502   -2.1306 H   0  0  0  0  0  0  0  0  0  0  0  0
   -4.0924    1.5449   -2.4857 H   0  0  0  0  0  0  0  0  0  0  0  0
   -3.3806   -0.6012   -2.2104 H   0  0  0  0  0  0  0  0  0  0  0  0
   -4.9581   -1.1196   -1.6202 H   0  0  0  0  0  0  0  0  0  0  0  0
   -1.9614   -1.1101   -1.0008 H   0  0  0  0  0  0  0  0  0  0  0  0
   -1.7685    0.5972   -0.5430 H   0  0  0  0  0  0  0  0  0  0  0  0
   -1.7570   -1.7438    1.4416 H   0  0  0  0  0  0  0  0  0  0  0  0
   -1.6920    0.0761    1.8212 H   0  0  0  0  0  0  0  0  0  0  0  0
    0.0246   -2.7479    0.1343 H   0  0  0  0  0  0  0  0  0  0  0  0
    2.3913   -2.6573   -0.3858 H   0  0  0  0  0  0  0  0  0  0  0  0
    0.1849    1.3330    1.2852 H   0  0  0  0  0  0  0  0  0  0  0  0
    4.2985   -2.4529   -0.8844 H   0  0  0  0  0  0  0  0  0  0  0  0
    6.6957   -2.1658   -1.3313 H   0  0  0  0  0  0  0  0  0  0  0  0
    7.8660   -0.0186   -0.8413 H   0  0  0  0  0  0  0  0  0  0  0  0
    4.1620    1.5373    0.5519 H   0  0  0  0  0  0  0  0  0  0  0  0
  1  2  1  0
  2  3  2  0
  2  4  1  0
  4  5  1  0
  5  6  1  0
  6  7  1  0
  7  8  1  0
  8  9  1  0
  9 10  1  0
 10 11  1  0
 11 12  2  0
 12 13  1  0
 13 14  2  0
 14 15  1  0
 15 16  2  0
 14 17  1  0
 17 18  2  0
 18 19  1  0
 19 20  2  0
 20 21  1  0
 21 22  2  0
 21 23  1  0
 23 24  1  0
 23 25  2  0
  8  4  1  0
 16 11  1  0
 22 17  1  0
  1 26  1  0
  4 27  1  1
  5 28  1  0
  5 29  1  0
  6 30  1  0
  6 31  1  0
  7 32  1  0
  7 33  1  0
  9 34  1  0
  9 35  1  0
 10 36  1  0
 10 37  1  0
 12 38  1  0
 13 39  1  0
 16 40  1  0
 18 41  1  0
 19 42  1  0
 20 43  1  0
 22 44  1  0
M  CHG  2  23   1  24  -1
M  END
$$$$
[H]OC(=O)C([H])([H])N(c1c([H])c([H])c(C([H])([H])[H])c([H])c1[H])c1c([H])c([H])c(/N=C(\[H])c2c([H])c(OC([H])([H])[H])c([H])c(OC([H])([H])[H])c2[H])c([H])c1OC([H])([H])C([H])([H])O[H]
     RDKit          3D

 62 64  0  0  0  0  0  0  0  0999 V2000
    8.5531   -0.0631   -1.4695 C   0  0  0  0  0  0  0  0  0  0  0  0
    7.1849    0.2916   -1.5112 O   0  0  0  0  0  0  0  0  0  0  0  0
    6.3559   -0.1276   -0.4938 C   0  0  0  0  0  0  0  0  0  0  0  0
    4.9984    0.2086   -0.5082 C   0  0  0  0  0  0  0  0  0  0  0  0
    4.1217   -0.1745    0.4689 C   0  0  0  0  0  0  0  0  0  0  0  0
    2.7065    0.1779    0.4516 C   0  0  0  0  0  0  0  0  0  0  0  0
    2.1670    0.8735   -0.4812 N   0  0  0  0  0  0  0  0  0  0  0  0
    0.7926    1.2146   -0.4958 C   0  0  0  0  0  0  0  0  0  0  0  0
    0.2822    2.4563   -0.7826 C   0  0  0  0  0  0  0  0  0  0  0  0
   -1.0736    2.7098   -0.7758 C   0  0  0  0  0  0  0  0  0  0  0  0
   -1.9947    1.7135   -0.4772 C   0  0  0  0  0  0  0  0  0  0  0  0
   -3.3752    2.0148   -0.4639 N   0  0  0  0  0  0  0  0  0  0  0  0
   -3.7993    3.3389   -0.9487 C   0  0  0  0  0  0  0  0  0  0  0  0
   -3.5766    3.4873   -2.3921 C   0  0  0  0  0  0  0  0  0  0  0  0
   -3.0560    2.4639   -3.1342 O   0  0  0  0  0  0  0  0  0  0  0  0
   -3.8780    4.5774   -2.9199 O   0  0  0  0  0  0  0  0  0  0  0  0
   -4.4118    1.1517   -0.0139 C   0  0  0  0  0  0  0  0  0  0  0  0
   -4.7662    1.0429    1.3144 C   0  0  0  0  0  0  0  0  0  0  0  0
   -5.7891    0.2187    1.7316 C   0  0  0  0  0  0  0  0  0  0  0  0
   -6.5175   -0.5452    0.8439 C   0  0  0  0  0  0  0  0  0  0  0  0
   -7.6236   -1.4354    1.2997 C   0  0  0  0  0  0  0  0  0  0  0  0
   -6.1739   -0.4462   -0.4876 C   0  0  0  0  0  0  0  0  0  0  0  0
   -5.1515    0.3774   -0.9062 C   0  0  0  0  0  0  0  0  0  0  0  0
   -1.4987    0.4348   -0.1807 C   0  0  0  0  0  0  0  0  0  0  0  0
   -2.4192   -0.5224    0.1115 O   0  0  0  0  0  0  0  0  0  0  0  0
   -2.2888   -1.8593    0.4187 C   0  0  0  0  0  0  0  0  0  0  0  0
   -1.7353   -2.7504   -0.6571 C   0  0  0  0  0  0  0  0  0  0  0  0
   -2.6355   -2.6353   -1.7433 O   0  0  0  0  0  0  0  0  0  0  0  0
   -0.1318    0.2351   -0.2003 C   0  0  0  0  0  0  0  0  0  0  0  0
    4.6327   -0.9280    1.5041 C   0  0  0  0  0  0  0  0  0  0  0  0
    5.9824   -1.2890    1.5624 C   0  0  0  0  0  0  0  0  0  0  0  0
    6.4656   -2.0458    2.6143 O   0  0  0  0  0  0  0  0  0  0  0  0
    7.8346   -2.3895    2.6368 C   0  0  0  0  0  0  0  0  0  0  0  0
    6.8410   -0.8850    0.5582 C   0  0  0  0  0  0  0  0  0  0  0  0
    9.0543    0.5581   -0.7031 H   0  0  0  0  0  0  0  0  0  0  0  0
    8.9649    0.1277   -2.4893 H   0  0  0  0  0  0  0  0  0  0  0  0
    8.7044   -1.1463   -1.2852 H   0  0  0  0  0  0  0  0  0  0  0  0
    4.5898    0.8048   -1.3254 H   0  0  0  0  0  0  0  0  0  0  0  0
    2.0662   -0.1515    1.2499 H   0  0  0  0  0  0  0  0  0  0  0  0
    0.9655    3.2556   -1.0199 H   0  0  0  0  0  0  0  0  0  0  0  0
   -1.3907    3.7271   -1.0059 H   0  0  0  0  0  0  0  0  0  0  0  0
   -3.2758    4.1388   -0.3571 H   0  0  0  0  0  0  0  0  0  0  0  0
   -4.8795    3.4960   -0.7588 H   0  0  0  0  0  0  0  0  0  0  0  0
   -3.1231    2.4847   -4.1282 H   0  0  0  0  0  0  0  0  0  0  0  0
   -4.2095    1.6335    2.0389 H   0  0  0  0  0  0  0  0  0  0  0  0
   -6.0710    0.1321    2.7864 H   0  0  0  0  0  0  0  0  0  0  0  0
   -7.5409   -2.4491    0.8584 H   0  0  0  0  0  0  0  0  0  0  0  0
   -8.6227   -1.0492    1.0049 H   0  0  0  0  0  0  0  0  0  0  0  0
   -7.6209   -1.5525    2.3839 H   0  0  0  0  0  0  0  0  0  0  0  0
   -6.7309   -1.0381   -1.2159 H   0  0  0  0  0  0  0  0  0  0  0  0
   -4.8629    0.4710   -1.9566 H   0  0  0  0  0  0  0  0  0  0  0  0
   -1.6657   -2.0201    1.3534 H   0  0  0  0  0  0  0  0  0  0  0  0
   -3.3038   -2.2744    0.6744 H   0  0  0  0  0  0  0  0  0  0  0  0
   -0.7197   -2.5220   -0.9582 H   0  0  0  0  0  0  0  0  0  0  0  0
   -1.8211   -3.8047   -0.2666 H   0  0  0  0  0  0  0  0  0  0  0  0
   -2.1992   -3.1260   -2.4902 H   0  0  0  0  0  0  0  0  0  0  0  0
    0.2163   -0.7744    0.0628 H   0  0  0  0  0  0  0  0  0  0  0  0
    3.9828   -1.2573    2.3026 H   0  0  0  0  0  0  0  0  0  0  0  0
    8.4486   -1.4646    2.6919 H   0  0  0  0  0  0  0  0  0  0  0  0
    8.0771   -3.0415    3.4983 H   0  0  0  0  0  0  0  0  0  0  0  0
    8.0514   -2.8938    1.6634 H   0  0  0  0  0  0  0  0  0  0  0  0
    7.8939   -1.1559    0.5858 H   0  0  0  0  0  0  0  0  0  0  0  0
  1  2  1  0
  2  3  1  0
  3  4  2  0
  4  5  1  0
  5  6  1  0
  6  7  2  0
  7  8  1  0
  8  9  2  0
  9 10  1  0
 10 11  2  0
 11 12  1  0
 12 13  1  0
 13 14  1  0
 14 15  1  0
 14 16  2  0
 12 17  1  0
 17 18  2  0
 18 19  1  0
 19 20  2  0
 20 21  1  0
 20 22  1  0
 22 23  2  0
 11 24  1  0
 24 25  1  0
 25 26  1  0
 26 27  1  0
 27 28  1  0
 24 29  2  0
  5 30  2  0
 30 31  1  0
 31 32  1  0
 32 33  1  0
 31 34  2  0
 34  3  1  0
 29  8  1  0
 23 17  1  0
  1 35  1  0
  1 36  1  0
  1 37  1  0
  4 38  1  0
  6 39  1  0
  9 40  1  0
 10 41  1  0
 13 42  1  0
 13 43  1  0
 15 44  1  0
 18 45  1  0
 19 46  1  0
 21 47  1  0
 21 48  1  0
 21 49  1  0
 22 50  1  0
 23 51  1  0
 26 52  1  0
 26 53  1  0
 27 54  1  0
 27 55  1  0
 28 56  1  0
 29 57  1  0
 30 58  1  0
 33 59  1  0
 33 60  1  0
 33 61  1  0
 34 62  1  0
M  END
$$$$
[H]c1c(C(=O)N([H])C([H])([H])C([H])([H])C([H])(C([H])([H])[H])C([H])([H])[H])oc(C([H])([H])N([H])C([H])([H])c2c([H])c([H])c([H])c([H])c2OC([H])([H])[H])c1[H]
     RDKit          3D

 50 51  0  0  0  0  0  0  0  0999 V2000
    6.3037   -2.6587    0.9399 C   0  0  0  0  0  0  0  0  0  0  0  0
    5.6217   -1.5713    0.4329 O   0  0  0  0  0  0  0  0  0  0  0  0
    6.1807   -0.2964    0.2015 C   0  0  0  0  0  0  0  0  0  0  0  0
    7.4789    0.0210    0.4299 C   0  0  0  0  0  0  0  0  0  0  0  0
    8.0109    1.2957    0.1734 C   0  0  0  0  0  0  0  0  0  0  0  0
    7.1076    2.2323   -0.3316 C   0  0  0  0  0  0  0  0  0  0  0  0
    5.7732    1.9006   -0.5602 C   0  0  0  0  0  0  0  0  0  0  0  0
    5.2660    0.6490   -0.3090 C   0  0  0  0  0  0  0  0  0  0  0  0
    3.8463    0.2477   -0.3706 C   0  0  0  0  0  0  0  0  0  0  0  0
    2.9262    1.1618   -0.9408 N   0  0  0  0  0  0  0  0  0  0  0  0
    1.8933    1.5620   -0.0362 C   0  0  0  0  0  0  0  0  0  0  0  0
    0.6021    0.9345   -0.0415 C   0  0  0  0  0  0  0  0  0  0  0  0
    0.4043   -0.3654    0.4866 C   0  0  0  0  0  0  0  0  0  0  0  0
   -0.9244   -0.6573    0.3376 C   0  0  0  0  0  0  0  0  0  0  0  0
   -1.4757    0.4632   -0.2659 C   0  0  0  0  0  0  0  0  0  0  0  0
   -0.5505    1.3687   -0.4725 O   0  0  0  0  0  0  0  0  0  0  0  0
   -2.9278    0.4795   -0.5683 C   0  0  0  0  0  0  0  0  0  0  0  0
   -3.4927    1.5685   -0.7366 O   0  0  0  0  0  0  0  0  0  0  0  0
   -3.6366   -0.7296   -0.6514 N   0  0  0  0  0  0  0  0  0  0  0  0
   -5.0867   -0.7149   -0.8285 C   0  0  0  0  0  0  0  0  0  0  0  0
   -5.6207   -0.2330    0.5287 C   0  0  0  0  0  0  0  0  0  0  0  0
   -7.0640   -0.1495    0.6499 C   0  0  0  0  0  0  0  0  0  0  0  0
   -7.6384    0.8678   -0.3158 C   0  0  0  0  0  0  0  0  0  0  0  0
   -7.6592   -1.5261    0.2382 C   0  0  0  0  0  0  0  0  0  0  0  0
    7.1124   -2.4215    1.6231 H   0  0  0  0  0  0  0  0  0  0  0  0
    5.5483   -3.2752    1.5364 H   0  0  0  0  0  0  0  0  0  0  0  0
    6.6787   -3.3050    0.1138 H   0  0  0  0  0  0  0  0  0  0  0  0
    8.1774   -0.7129    0.8346 H   0  0  0  0  0  0  0  0  0  0  0  0
    9.0412    1.4936    0.3591 H   0  0  0  0  0  0  0  0  0  0  0  0
    7.5161    3.2242   -0.5112 H   0  0  0  0  0  0  0  0  0  0  0  0
    5.0976    2.6637   -0.9522 H   0  0  0  0  0  0  0  0  0  0  0  0
    3.4594   -0.2102    0.5871 H   0  0  0  0  0  0  0  0  0  0  0  0
    3.8653   -0.6526   -1.1002 H   0  0  0  0  0  0  0  0  0  0  0  0
    2.7024    1.0850   -1.9263 H   0  0  0  0  0  0  0  0  0  0  0  0
    1.7559    2.7056   -0.3390 H   0  0  0  0  0  0  0  0  0  0  0  0
    2.3307    1.6843    0.9808 H   0  0  0  0  0  0  0  0  0  0  0  0
    1.1435   -1.0268    0.9359 H   0  0  0  0  0  0  0  0  0  0  0  0
   -1.4428   -1.5799    0.6367 H   0  0  0  0  0  0  0  0  0  0  0  0
   -3.1277   -1.6432   -0.5922 H   0  0  0  0  0  0  0  0  0  0  0  0
   -5.4192    0.0661   -1.5691 H   0  0  0  0  0  0  0  0  0  0  0  0
   -5.4108   -1.6952   -1.1034 H   0  0  0  0  0  0  0  0  0  0  0  0
   -5.1091    0.7194    0.7356 H   0  0  0  0  0  0  0  0  0  0  0  0
   -5.1488   -0.9529    1.2614 H   0  0  0  0  0  0  0  0  0  0  0  0
   -7.3783    0.1195    1.6694 H   0  0  0  0  0  0  0  0  0  0  0  0
   -6.9370    1.7321   -0.2839 H   0  0  0  0  0  0  0  0  0  0  0  0
   -7.7725    0.4508   -1.3388 H   0  0  0  0  0  0  0  0  0  0  0  0
   -8.6178    1.2462    0.0227 H   0  0  0  0  0  0  0  0  0  0  0  0
   -7.1005   -2.3485    0.7041 H   0  0  0  0  0  0  0  0  0  0  0  0
   -8.6827   -1.5731    0.5997 H   0  0  0  0  0  0  0  0  0  0  0  0
   -7.6200   -1.6439   -0.8741 H   0  0  0  0  0  0  0  0  0  0  0  0
  1  2  1  0
  2  3  1  0
  3  4  2  0
  4  5  1  0
  5  6  2  0
  6  7  1  0
  7  8  2  0
  8  9  1  0
  9 10  1  0
 10 11  1  0
 11 12  1  0
 12 13  2  0
 13 14  1  0
 14 15  2  0
 15 16  1  0
 15 17  1  0
 17 18  2  0
 17 19  1  0
 19 20  1  0
 20 21  1  0
 21 22  1  0
 22 23  1  0
 22 24  1  0
  8  3  1  0
 16 12  1  0
  1 25  1  0
  1 26  1  0
  1 27  1  0
  4 28  1  0
  5 29  1  0
  6 30  1  0
  7 31  1  0
  9 32  1  0
  9 33  1  0
 10 34  1  0
 11 35  1  0
 11 36  1  0
 13 37  1  0
 14 38  1  0
 19 39  1  0
 20 40  1  0
 20 41  1  0
 21 42  1  0
 21 43  1  0
 22 44  1  0
 23 45  1  0
 23 46  1  0
 23 47  1  0
 24 48  1  0
 24 49  1  0
 24 50  1  0
M  END
$$$$
[H]OC(=O)[C@]([H])(N([H])C(=O)C([H])(N([H])C(=O)c1nc([H])c([H])c([H])c1[H])C([H])([H])S[H])C([H])([H])c1c([H])c([H])c([H])c([H])c1[H]
     RDKit          3D

 45 46  0  0  0  0  0  0  0  0999 V2000
   -4.3391   -1.3194   -0.7864 O   0  0  0  0  0  0  0  0  0  0  0  0
   -3.1101   -1.3817   -0.1559 C   0  0  0  0  0  0  0  0  0  0  0  0
   -2.7082   -2.5731    0.0991 O   0  0  0  0  0  0  0  0  0  0  0  0
   -2.2562   -0.2725    0.2311 C   0  0  1  0  0  0  0  0  0  0  0  0
   -2.8309    0.7866    1.0924 C   0  0  0  0  0  0  0  0  0  0  0  0
   -3.9778    1.4475    0.4468 C   0  0  0  0  0  0  0  0  0  0  0  0
   -3.7830    2.5194   -0.4341 C   0  0  0  0  0  0  0  0  0  0  0  0
   -4.8282    3.1817   -1.0320 C   0  0  0  0  0  0  0  0  0  0  0  0
   -6.1279    2.8160   -0.7881 C   0  0  0  0  0  0  0  0  0  0  0  0
   -6.3370    1.7680    0.0723 C   0  0  0  0  0  0  0  0  0  0  0  0
   -5.2871    1.1063    0.6701 C   0  0  0  0  0  0  0  0  0  0  0  0
   -1.0227   -0.8190    0.7955 N   0  0  0  0  0  0  0  0  0  0  0  0
    0.2431   -0.6737    0.1922 C   0  0  0  0  0  0  0  0  0  0  0  0
    0.3491   -0.0346   -0.9057 O   0  0  0  0  0  0  0  0  0  0  0  0
    1.4246   -1.2630    0.8403 C   0  0  0  0  0  0  0  0  0  0  0  0
    1.1779   -2.7313    1.1004 C   0  0  0  0  0  0  0  0  0  0  0  0
    0.8541   -3.6616   -0.4120 S   0  0  0  0  0  0  0  0  0  0  0  0
    2.6488   -1.0310    0.1189 N   0  0  0  0  0  0  0  0  0  0  0  0
    3.7488   -0.3211    0.6450 C   0  0  0  0  0  0  0  0  0  0  0  0
    3.6877    0.1441    1.7961 O   0  0  0  0  0  0  0  0  0  0  0  0
    4.9961   -0.0974   -0.1173 C   0  0  0  0  0  0  0  0  0  0  0  0
    6.0169    0.5994    0.4635 C   0  0  0  0  0  0  0  0  0  0  0  0
    7.1748    0.8158   -0.2220 C   0  0  0  0  0  0  0  0  0  0  0  0
    7.3336    0.3334   -1.5153 C   0  0  0  0  0  0  0  0  0  0  0  0
    6.2560   -0.3672   -2.0468 C   0  0  0  0  0  0  0  0  0  0  0  0
    5.1354   -0.5652   -1.3565 N   0  0  0  0  0  0  0  0  0  0  0  0
   -5.1258   -1.9093   -0.5138 H   0  0  0  0  0  0  0  0  0  0  0  0
   -1.9395    0.2403   -0.7263 H   0  0  0  0  0  0  0  0  0  0  0  0
   -2.0437    1.5936    1.1962 H   0  0  0  0  0  0  0  0  0  0  0  0
   -3.0895    0.4424    2.1188 H   0  0  0  0  0  0  0  0  0  0  0  0
   -2.7551    2.8189   -0.6355 H   0  0  0  0  0  0  0  0  0  0  0  0
   -4.6316    3.9998   -1.7018 H   0  0  0  0  0  0  0  0  0  0  0  0
   -6.9783    3.3146   -1.2411 H   0  0  0  0  0  0  0  0  0  0  0  0
   -7.3549    1.4699    0.2725 H   0  0  0  0  0  0  0  0  0  0  0  0
   -5.4775    0.2755    1.3522 H   0  0  0  0  0  0  0  0  0  0  0  0
   -1.1182   -1.3365    1.6914 H   0  0  0  0  0  0  0  0  0  0  0  0
    1.5299   -0.7851    1.8412 H   0  0  0  0  0  0  0  0  0  0  0  0
    0.2804   -2.8081    1.7449 H   0  0  0  0  0  0  0  0  0  0  0  0
    2.0078   -3.1921    1.6839 H   0  0  0  0  0  0  0  0  0  0  0  0
    0.9587   -2.8039   -1.5235 H   0  0  0  0  0  0  0  0  0  0  0  0
    2.7630   -1.4019   -0.8678 H   0  0  0  0  0  0  0  0  0  0  0  0
    5.9056    0.9743    1.4570 H   0  0  0  0  0  0  0  0  0  0  0  0
    8.0046    1.3662    0.2121 H   0  0  0  0  0  0  0  0  0  0  0  0
    8.2390    0.4919   -2.0763 H   0  0  0  0  0  0  0  0  0  0  0  0
    6.3864   -0.7494   -3.0756 H   0  0  0  0  0  0  0  0  0  0  0  0
  1  2  1  0
  2  3  2  0
  2  4  1  0
  4  5  1  0
  5  6  1  0
  6  7  2  0
  7  8  1  0
  8  9  2  0
  9 10  1  0
 10 11  2  0
  4 12  1  0
 12 13  1  0
 13 14  2  0
 13 15  1  0
 15 16  1  0
 16 17  1  0
 15 18  1  0
 18 19  1  0
 19 20  2  0
 19 21  1  0
 21 22  2  0
 22 23  1  0
 23 24  2  0
 24 25  1  0
 25 26  2  0
 11  6  1  0
 26 21  1  0
  1 27  1  0
  4 28  1  6
  5 29  1  0
  5 30  1  0
  7 31  1  0
  8 32  1  0
  9 33  1  0
 10 34  1  0
 11 35  1  0
 12 36  1  0
 15 37  1  0
 16 38  1  0
 16 39  1  0
 17 40  1  0
 18 41  1  0
 22 42  1  0
 23 43  1  0
 24 44  1  0
 25 45  1  0
M  END
$$$$
[H]Oc1c([H])c([H])c([N+](=O)[O-])c([H])c1SC(=O)N([H])c1c([H])c([H])c([H])c([H])c1[H]
     RDKit          3D

 30 31  0  0  0  0  0  0  0  0999 V2000
   -1.6248   -3.0481   -0.2461 O   0  0  0  0  0  0  0  0  0  0  0  0
   -2.2582   -1.8057   -0.1135 C   0  0  0  0  0  0  0  0  0  0  0  0
   -3.1255   -1.5739    0.9324 C   0  0  0  0  0  0  0  0  0  0  0  0
   -3.7520   -0.3534    1.0685 C   0  0  0  0  0  0  0  0  0  0  0  0
   -3.4799    0.6167    0.1271 C   0  0  0  0  0  0  0  0  0  0  0  0
   -2.6124    0.3817   -0.9172 C   0  0  0  0  0  0  0  0  0  0  0  0
   -1.9742   -0.8398   -1.0687 C   0  0  0  0  0  0  0  0  0  0  0  0
   -0.8527   -1.1609   -2.4086 S   0  0  0  0  0  0  0  0  0  0  0  0
    0.8309   -0.7148   -1.9264 C   0  0  0  0  0  0  0  0  0  0  0  0
    1.7575   -0.8754   -2.7525 O   0  0  0  0  0  0  0  0  0  0  0  0
    1.0448   -0.2062   -0.6504 N   0  0  0  0  0  0  0  0  0  0  0  0
    2.2700    0.1969   -0.1136 C   0  0  0  0  0  0  0  0  0  0  0  0
    2.3830    0.2629    1.2894 C   0  0  0  0  0  0  0  0  0  0  0  0
    3.5188    0.6636    1.9128 C   0  0  0  0  0  0  0  0  0  0  0  0
    4.5973    1.0173    1.1401 C   0  0  0  0  0  0  0  0  0  0  0  0
    4.5143    0.9627   -0.2199 C   0  0  0  0  0  0  0  0  0  0  0  0
    3.3435    0.5498   -0.8751 C   0  0  0  0  0  0  0  0  0  0  0  0
   -4.1223    1.8765    0.2617 N   0  0  0  0  0  0  0  0  0  0  0  0
   -3.8706    2.8631   -0.6617 O   0  0  0  0  0  0  0  0  0  0  0  0
   -4.9068    2.1426    1.1744 O   0  0  0  0  0  0  0  0  0  0  0  0
   -0.9861   -3.2435   -1.0018 H   0  0  0  0  0  0  0  0  0  0  0  0
   -3.3148   -2.3639    1.6550 H   0  0  0  0  0  0  0  0  0  0  0  0
   -4.4397   -0.1695    1.8977 H   0  0  0  0  0  0  0  0  0  0  0  0
   -2.3865    1.1449   -1.6741 H   0  0  0  0  0  0  0  0  0  0  0  0
    0.1756   -0.1146   -0.0270 H   0  0  0  0  0  0  0  0  0  0  0  0
    1.5150   -0.0245    1.8520 H   0  0  0  0  0  0  0  0  0  0  0  0
    3.5541    0.6971    3.0112 H   0  0  0  0  0  0  0  0  0  0  0  0
    5.5043    1.3365    1.6135 H   0  0  0  0  0  0  0  0  0  0  0  0
    5.3591    1.2394   -0.8454 H   0  0  0  0  0  0  0  0  0  0  0  0
    3.3382    0.5425   -1.9679 H   0  0  0  0  0  0  0  0  0  0  0  0
  1  2  1  0
  2  3  2  0
  3  4  1  0
  4  5  2  0
  5  6  1  0
  6  7  2  0
  7  8  1  0
  8  9  1  0
  9 10  2  0
  9 11  1  0
 11 12  1  0
 12 13  2  0
 13 14  1  0
 14 15  2  0
 15 16  1  0
 16 17  2  0
  5 18  1  0
 18 19  1  0
 18 20  2  0
  7  2  1  0
 17 12  1  0
  1 21  1  0
  3 22  1  0
  4 23  1  0
  6 24  1  0
 11 25  1  0
 13 26  1  0
 14 27  1  0
 15 28  1  0
 16 29  1  0
 17 30  1  0
M  CHG  2  18   1  19  -1
M  END
$$$$
[H]OC(=O)C([H])([H])[C@@]([H])(C(=O)O[H])N([H])C(=O)[C@]([H])(N([H])[H])C([H])([H])[C@]([H])(C(=O)O[H])C([H])([H])C([H])([H])C([H])([H])C([H])([H])C([H])([H])C([H])([H])C([H])([H])C([H])([H])[H]
     RDKit          3D

 56 55  0  0  0  0  0  0  0  0999 V2000
    6.0493    2.0901   -1.7104 C   0  0  0  0  0  0  0  0  0  0  0  0
    6.1233    0.6798   -1.1855 C   0  0  0  0  0  0  0  0  0  0  0  0
    5.2195    0.5351    0.0152 C   0  0  0  0  0  0  0  0  0  0  0  0
    3.8143    0.8530   -0.3954 C   0  0  0  0  0  0  0  0  0  0  0  0
    3.3354   -0.0716   -1.4813 C   0  0  0  0  0  0  0  0  0  0  0  0
    3.3553   -1.5113   -1.0532 C   0  0  0  0  0  0  0  0  0  0  0  0
    2.5158   -1.7984    0.1416 C   0  0  0  0  0  0  0  0  0  0  0  0
    1.0445   -1.4678   -0.0899 C   0  0  0  0  0  0  0  0  0  0  0  0
    0.2496   -1.7958    1.1446 C   0  0  2  0  0  0  0  0  0  0  0  0
   -1.1969   -1.5507    1.0965 C   0  0  0  0  0  0  0  0  0  0  0  0
   -1.7253   -0.2044    0.8562 C   0  0  1  0  0  0  0  0  0  0  0  0
   -1.3717    0.4249   -0.3905 N   0  0  0  0  0  0  0  0  0  0  0  0
   -3.2304   -0.3106    0.8526 C   0  0  0  0  0  0  0  0  0  0  0  0
   -3.8023   -0.8309    1.8420 O   0  0  0  0  0  0  0  0  0  0  0  0
   -4.0238    0.1512   -0.2184 N   0  0  0  0  0  0  0  0  0  0  0  0
   -5.4496    0.0548   -0.2250 C   0  0  1  0  0  0  0  0  0  0  0  0
   -6.1756    1.3294   -0.5100 C   0  0  0  0  0  0  0  0  0  0  0  0
   -5.9121    2.4129    0.4452 C   0  0  0  0  0  0  0  0  0  0  0  0
   -6.5530    3.6236    0.2436 O   0  0  0  0  0  0  0  0  0  0  0  0
   -5.1320    2.2427    1.4097 O   0  0  0  0  0  0  0  0  0  0  0  0
   -5.8964   -0.9579   -1.2500 C   0  0  0  0  0  0  0  0  0  0  0  0
   -7.2293   -1.2348   -1.4507 O   0  0  0  0  0  0  0  0  0  0  0  0
   -5.0261   -1.5470   -1.9206 O   0  0  0  0  0  0  0  0  0  0  0  0
    0.9103   -1.2362    2.3716 C   0  0  0  0  0  0  0  0  0  0  0  0
    1.1357    0.1261    2.5189 O   0  0  0  0  0  0  0  0  0  0  0  0
    1.2925   -1.9635    3.3251 O   0  0  0  0  0  0  0  0  0  0  0  0
    7.0923    2.4416   -1.9197 H   0  0  0  0  0  0  0  0  0  0  0  0
    5.5131    2.1596   -2.6815 H   0  0  0  0  0  0  0  0  0  0  0  0
    5.6480    2.7881   -0.9508 H   0  0  0  0  0  0  0  0  0  0  0  0
    5.8661   -0.0883   -1.9225 H   0  0  0  0  0  0  0  0  0  0  0  0
    7.1703    0.4486   -0.8370 H   0  0  0  0  0  0  0  0  0  0  0  0
    5.3338   -0.4896    0.4098 H   0  0  0  0  0  0  0  0  0  0  0  0
    5.5363    1.2490    0.8121 H   0  0  0  0  0  0  0  0  0  0  0  0
    3.7970    1.8874   -0.8495 H   0  0  0  0  0  0  0  0  0  0  0  0
    3.0979    0.8226    0.4504 H   0  0  0  0  0  0  0  0  0  0  0  0
    3.9187    0.0865   -2.4232 H   0  0  0  0  0  0  0  0  0  0  0  0
    2.2796    0.2257   -1.7408 H   0  0  0  0  0  0  0  0  0  0  0  0
    3.0140   -2.1202   -1.9432 H   0  0  0  0  0  0  0  0  0  0  0  0
    4.4044   -1.8098   -0.7928 H   0  0  0  0  0  0  0  0  0  0  0  0
    2.8392   -1.1270    0.9745 H   0  0  0  0  0  0  0  0  0  0  0  0
    2.5491   -2.8543    0.4452 H   0  0  0  0  0  0  0  0  0  0  0  0
    1.0236   -0.4065   -0.3526 H   0  0  0  0  0  0  0  0  0  0  0  0
    0.7240   -2.0663   -0.9610 H   0  0  0  0  0  0  0  0  0  0  0  0
    0.3633   -2.9213    1.2478 H   0  0  0  0  0  0  0  0  0  0  0  0
   -1.6096   -2.2291    0.2844 H   0  0  0  0  0  0  0  0  0  0  0  0
   -1.6520   -1.9692    2.0239 H   0  0  0  0  0  0  0  0  0  0  0  0
   -1.5135    0.5358    1.6581 H   0  0  0  0  0  0  0  0  0  0  0  0
   -1.2069   -0.2024   -1.1759 H   0  0  0  0  0  0  0  0  0  0  0  0
   -0.7175    1.2249   -0.2952 H   0  0  0  0  0  0  0  0  0  0  0  0
   -3.5681    0.5919   -1.0651 H   0  0  0  0  0  0  0  0  0  0  0  0
   -5.7815   -0.3469    0.7648 H   0  0  0  0  0  0  0  0  0  0  0  0
   -7.2698    1.0940   -0.4479 H   0  0  0  0  0  0  0  0  0  0  0  0
   -6.0143    1.6847   -1.5477 H   0  0  0  0  0  0  0  0  0  0  0  0
   -6.5637    4.3123    0.9609 H   0  0  0  0  0  0  0  0  0  0  0  0
   -7.7605   -1.5753   -0.6696 H   0  0  0  0  0  0  0  0  0  0  0  0
    1.1655    0.6110    3.3811 H   0  0  0  0  0  0  0  0  0  0  0  0
  1  2  1  0
  2  3  1  0
  3  4  1  0
  4  5  1  0
  5  6  1  0
  6  7  1  0
  7  8  1  0
  8  9  1  0
  9 10  1  0
 10 11  1  0
 11 12  1  0
 11 13  1  0
 13 14  2  0
 13 15  1  0
 15 16  1  0
 16 17  1  0
 17 18  1  0
 18 19  1  0
 18 20  2  0
 16 21  1  0
 21 22  1  0
 21 23  2  0
  9 24  1  0
 24 25  1  0
 24 26  2  0
  1 27  1  0
  1 28  1  0
  1 29  1  0
  2 30  1  0
  2 31  1  0
  3 32  1  0
  3 33  1  0
  4 34  1  0
  4 35  1  0
  5 36  1  0
  5 37  1  0
  6 38  1  0
  6 39  1  0
  7 40  1  0
  7 41  1  0
  8 42  1  0
  8 43  1  0
  9 44  1  1
 10 45  1  0
 10 46  1  0
 11 47  1  1
 12 48  1  0
 12 49  1  0
 15 50  1  0
 16 51  1  1
 17 52  1  0
 17 53  1  0
 19 54  1  0
 22 55  1  0
 25 56  1  0
M  END
$$$$
[H]c1nc(N([H])[H])c2c([H])c1-c1c(nn(C([H])([H])[H])c1C#N)C([H])([H])N(C([H])([H])[H])C(=O)c1c([H])c([H])c(N(C([H])([H])[H])C([H])([H])[H])c([H])c1[C@@]([H])(C([H])([H])[H])O2
     RDKit          3D

 57 60  0  0  0  0  0  0  0  0999 V2000
   -2.4677    2.1164   -2.1426 C   0  0  0  0  0  0  0  0  0  0  0  0
   -1.2898    1.4224   -1.5229 C   0  0  1  0  0  0  0  0  0  0  0  0
   -0.7645    2.3865   -0.5485 O   0  0  0  0  0  0  0  0  0  0  0  0
    0.6016    2.2754   -0.1583 C   0  0  0  0  0  0  0  0  0  0  0  0
    1.0982    1.1410    0.4555 C   0  0  0  0  0  0  0  0  0  0  0  0
    2.4371    1.0504    0.7109 C   0  0  0  0  0  0  0  0  0  0  0  0
    3.2744    2.1481    0.3819 C   0  0  0  0  0  0  0  0  0  0  0  0
    2.7843    3.2646   -0.1894 N   0  0  0  0  0  0  0  0  0  0  0  0
    1.4414    3.3157   -0.4600 C   0  0  0  0  0  0  0  0  0  0  0  0
    1.0495    4.5667   -1.0600 N   0  0  0  0  0  0  0  0  0  0  0  0
    3.2621   -0.1835    0.8784 C   0  0  0  0  0  0  0  0  0  0  0  0
    2.9350   -1.4132    0.1462 C   0  0  0  0  0  0  0  0  0  0  0  0
    1.7008   -1.2569   -0.5936 C   0  0  0  0  0  0  0  0  0  0  0  0
    1.0864   -1.9560   -1.6088 N   0  0  0  0  0  0  0  0  0  0  0  0
    1.8848   -2.7790   -2.5052 C   0  0  0  0  0  0  0  0  0  0  0  0
   -0.3492   -1.8268   -1.7433 C   0  0  0  0  0  0  0  0  0  0  0  0
   -0.7764   -2.5246   -2.7605 O   0  0  0  0  0  0  0  0  0  0  0  0
   -1.4100   -1.1432   -1.0502 C   0  0  0  0  0  0  0  0  0  0  0  0
   -2.2448   -2.0826   -0.3388 C   0  0  0  0  0  0  0  0  0  0  0  0
   -3.3085   -1.7711    0.4384 C   0  0  0  0  0  0  0  0  0  0  0  0
   -3.6534   -0.4487    0.5831 C   0  0  0  0  0  0  0  0  0  0  0  0
   -2.8949    0.4667   -0.0752 C   0  0  0  0  0  0  0  0  0  0  0  0
   -1.7795    0.1603   -0.8940 C   0  0  0  0  0  0  0  0  0  0  0  0
   -4.7625   -0.1363    1.4028 N   0  0  0  0  0  0  0  0  0  0  0  0
   -5.1253    1.2539    1.5466 C   0  0  0  0  0  0  0  0  0  0  0  0
   -5.5385   -1.1347    2.0950 C   0  0  0  0  0  0  0  0  0  0  0  0
    3.8713   -2.2885    0.4276 N   0  0  0  0  0  0  0  0  0  0  0  0
    4.7318   -1.7464    1.2438 N   0  0  0  0  0  0  0  0  0  0  0  0
    5.9019   -2.4850    1.7437 C   0  0  0  0  0  0  0  0  0  0  0  0
    4.4086   -0.4864    1.5423 C   0  0  0  0  0  0  0  0  0  0  0  0
    5.1241    0.4126    2.3912 C   0  0  0  0  0  0  0  0  0  0  0  0
    5.7007    1.1381    3.0937 N   0  0  0  0  0  0  0  0  0  0  0  0
   -2.1883    2.7179   -3.0352 H   0  0  0  0  0  0  0  0  0  0  0  0
   -2.8716    2.8454   -1.4149 H   0  0  0  0  0  0  0  0  0  0  0  0
   -3.3036    1.4172   -2.3617 H   0  0  0  0  0  0  0  0  0  0  0  0
   -0.6032    1.1631   -2.3162 H   0  0  0  0  0  0  0  0  0  0  0  0
    0.3155    0.4246    0.9522 H   0  0  0  0  0  0  0  0  0  0  0  0
    4.3298    2.1687    0.5669 H   0  0  0  0  0  0  0  0  0  0  0  0
    0.3513    5.1896   -0.6418 H   0  0  0  0  0  0  0  0  0  0  0  0
    1.5257    4.8022   -1.9572 H   0  0  0  0  0  0  0  0  0  0  0  0
    1.8453   -0.2590   -1.1008 H   0  0  0  0  0  0  0  0  0  0  0  0
    0.9406   -1.3216    0.2255 H   0  0  0  0  0  0  0  0  0  0  0  0
    1.2676   -3.3595   -3.1929 H   0  0  0  0  0  0  0  0  0  0  0  0
    2.5180   -3.4405   -1.8437 H   0  0  0  0  0  0  0  0  0  0  0  0
    2.6345   -2.1541   -3.0667 H   0  0  0  0  0  0  0  0  0  0  0  0
   -2.0552   -3.1704   -0.4469 H   0  0  0  0  0  0  0  0  0  0  0  0
   -3.8792   -2.5556    0.9388 H   0  0  0  0  0  0  0  0  0  0  0  0
   -3.2069    1.5135    0.0715 H   0  0  0  0  0  0  0  0  0  0  0  0
   -4.3788    1.8290    2.1299 H   0  0  0  0  0  0  0  0  0  0  0  0
   -5.1725    1.7663    0.5407 H   0  0  0  0  0  0  0  0  0  0  0  0
   -6.1496    1.3208    1.9439 H   0  0  0  0  0  0  0  0  0  0  0  0
   -6.1096   -0.6472    2.9037 H   0  0  0  0  0  0  0  0  0  0  0  0
   -4.9107   -1.9147    2.5732 H   0  0  0  0  0  0  0  0  0  0  0  0
   -6.2841   -1.6288    1.4358 H   0  0  0  0  0  0  0  0  0  0  0  0
    6.1865   -2.0747    2.7182 H   0  0  0  0  0  0  0  0  0  0  0  0
    6.7016   -2.5442    1.0020 H   0  0  0  0  0  0  0  0  0  0  0  0
    5.5679   -3.5439    1.9459 H   0  0  0  0  0  0  0  0  0  0  0  0
  1  2  1  0
  2  3  1  0
  3  4  1  0
  4  5  1  0
  5  6  2  0
  6  7  1  0
  7  8  2  0
  8  9  1  0
  9 10  1  0
  6 11  1  0
 11 12  1  0
 12 13  1  0
 13 14  1  0
 14 15  1  0
 14 16  1  0
 16 17  2  0
 16 18  1  0
 18 19  2  0
 19 20  1  0
 20 21  2  0
 21 22  1  0
 22 23  2  0
 21 24  1  0
 24 25  1  0
 24 26  1  0
 12 27  2  0
 27 28  1  0
 28 29  1  0
 28 30  1  0
 30 31  1  0
 31 32  3  0
 23  2  1  0
  9  4  2  0
 30 11  2  0
 23 18  1  0
  1 33  1  0
  1 34  1  0
  1 35  1  0
  2 36  1  6
  5 37  1  0
  7 38  1  0
 10 39  1  0
 10 40  1  0
 13 41  1  0
 13 42  1  0
 15 43  1  0
 15 44  1  0
 15 45  1  0
 19 46  1  0
 20 47  1  0
 22 48  1  0
 25 49  1  0
 25 50  1  0
 25 51  1  0
 26 52  1  0
 26 53  1  0
 26 54  1  0
 29 55  1  0
 29 56  1  0
 29 57  1  0
M  END
$$$$
[H]c1c([H])c(N([H])C(=O)C([H])([H])Sc2nc3c([H])c([H])c([H])c([H])c3c(=O)n2-c2c([H])c([H])c(OC([H])([H])C([H])([H])[H])c([H])c2[H])c([H])c(C([H])([H])[H])c1[H]
     RDKit          3D

 55 58  0  0  0  0  0  0  0  0999 V2000
   -4.7584    5.1153   -0.7596 C   0  0  0  0  0  0  0  0  0  0  0  0
   -5.9522    4.2244   -0.5800 C   0  0  0  0  0  0  0  0  0  0  0  0
   -5.7819    2.9183   -1.0723 O   0  0  0  0  0  0  0  0  0  0  0  0
   -4.8550    1.9975   -0.6629 C   0  0  0  0  0  0  0  0  0  0  0  0
   -4.8769    0.7625   -1.3143 C   0  0  0  0  0  0  0  0  0  0  0  0
   -3.9650   -0.1799   -0.9290 C   0  0  0  0  0  0  0  0  0  0  0  0
   -3.0165    0.0080    0.0685 C   0  0  0  0  0  0  0  0  0  0  0  0
   -3.0009    1.2095    0.6972 C   0  0  0  0  0  0  0  0  0  0  0  0
   -3.9149    2.1899    0.3292 C   0  0  0  0  0  0  0  0  0  0  0  0
   -2.1412   -1.0888    0.3464 N   0  0  0  0  0  0  0  0  0  0  0  0
   -0.9390   -1.2143   -0.2263 C   0  0  0  0  0  0  0  0  0  0  0  0
   -0.3625    0.0498   -1.3425 S   0  0  0  0  0  0  0  0  0  0  0  0
    0.5957    1.3303   -0.4681 C   0  0  0  0  0  0  0  0  0  0  0  0
    1.8727    0.7086    0.0381 C   0  0  0  0  0  0  0  0  0  0  0  0
    1.8525    0.1442    1.1419 O   0  0  0  0  0  0  0  0  0  0  0  0
    3.0316    0.7910   -0.7535 N   0  0  0  0  0  0  0  0  0  0  0  0
    4.3131    0.2935   -0.4955 C   0  0  0  0  0  0  0  0  0  0  0  0
    4.6785   -0.4802    0.5717 C   0  0  0  0  0  0  0  0  0  0  0  0
    5.9795   -0.9389    0.7748 C   0  0  0  0  0  0  0  0  0  0  0  0
    6.9548   -0.6083   -0.1293 C   0  0  0  0  0  0  0  0  0  0  0  0
    6.6338    0.1650   -1.2136 C   0  0  0  0  0  0  0  0  0  0  0  0
    7.6918    0.5425   -2.2209 C   0  0  0  0  0  0  0  0  0  0  0  0
    5.3433    0.6037   -1.3899 C   0  0  0  0  0  0  0  0  0  0  0  0
   -0.1195   -2.2827    0.0304 N   0  0  0  0  0  0  0  0  0  0  0  0
   -0.4743   -3.2679    0.8728 C   0  0  0  0  0  0  0  0  0  0  0  0
    0.3721   -4.3428    1.1159 C   0  0  0  0  0  0  0  0  0  0  0  0
    0.0001   -5.3515    1.9804 C   0  0  0  0  0  0  0  0  0  0  0  0
   -1.2354   -5.2418    2.5827 C   0  0  0  0  0  0  0  0  0  0  0  0
   -2.0875   -4.1659    2.3419 C   0  0  0  0  0  0  0  0  0  0  0  0
   -1.7089   -3.1615    1.4764 C   0  0  0  0  0  0  0  0  0  0  0  0
   -2.5190   -2.0758    1.2030 C   0  0  0  0  0  0  0  0  0  0  0  0
   -3.6363   -1.9663    1.7408 O   0  0  0  0  0  0  0  0  0  0  0  0
   -4.6390    5.7591    0.1282 H   0  0  0  0  0  0  0  0  0  0  0  0
   -3.8275    4.5830   -1.0528 H   0  0  0  0  0  0  0  0  0  0  0  0
   -4.9574    5.8252   -1.6134 H   0  0  0  0  0  0  0  0  0  0  0  0
   -6.8342    4.6510   -1.1025 H   0  0  0  0  0  0  0  0  0  0  0  0
   -6.2149    4.1219    0.4960 H   0  0  0  0  0  0  0  0  0  0  0  0
   -5.6110    0.5901   -2.0991 H   0  0  0  0  0  0  0  0  0  0  0  0
   -3.9959   -1.1381   -1.4456 H   0  0  0  0  0  0  0  0  0  0  0  0
   -2.2629    1.3796    1.4839 H   0  0  0  0  0  0  0  0  0  0  0  0
   -3.9062    3.1489    0.8338 H   0  0  0  0  0  0  0  0  0  0  0  0
    0.0429    1.7472    0.3925 H   0  0  0  0  0  0  0  0  0  0  0  0
    0.8104    2.1686   -1.1660 H   0  0  0  0  0  0  0  0  0  0  0  0
    2.9328    1.3095   -1.6996 H   0  0  0  0  0  0  0  0  0  0  0  0
    3.9536   -0.7635    1.2977 H   0  0  0  0  0  0  0  0  0  0  0  0
    6.2200   -1.5374    1.6168 H   0  0  0  0  0  0  0  0  0  0  0  0
    7.9902   -0.9322   -0.0302 H   0  0  0  0  0  0  0  0  0  0  0  0
    8.4843   -0.2225   -2.2283 H   0  0  0  0  0  0  0  0  0  0  0  0
    7.1884    0.5364   -3.2153 H   0  0  0  0  0  0  0  0  0  0  0  0
    8.1097    1.5417   -1.9993 H   0  0  0  0  0  0  0  0  0  0  0  0
    5.1705    1.2107   -2.2717 H   0  0  0  0  0  0  0  0  0  0  0  0
    1.3532   -4.4065    0.6231 H   0  0  0  0  0  0  0  0  0  0  0  0
    0.6574   -6.1890    2.1716 H   0  0  0  0  0  0  0  0  0  0  0  0
   -1.5841   -6.0071    3.2740 H   0  0  0  0  0  0  0  0  0  0  0  0
   -3.0540   -4.0638    2.8030 H   0  0  0  0  0  0  0  0  0  0  0  0
  1  2  1  0
  2  3  1  0
  3  4  1  0
  4  5  2  0
  5  6  1  0
  6  7  2  0
  7  8  1  0
  8  9  2  0
  7 10  1  0
 10 11  1  0
 11 12  1  0
 12 13  1  0
 13 14  1  0
 14 15  2  0
 14 16  1  0
 16 17  1  0
 17 18  2  0
 18 19  1  0
 19 20  2  0
 20 21  1  0
 21 22  1  0
 21 23  2  0
 11 24  2  0
 24 25  1  0
 25 26  2  0
 26 27  1  0
 27 28  2  0
 28 29  1  0
 29 30  2  0
 30 31  1  0
 31 32  2  0
  9  4  1  0
 31 10  1  0
 23 17  1  0
 30 25  1  0
  1 33  1  0
  1 34  1  0
  1 35  1  0
  2 36  1  0
  2 37  1  0
  5 38  1  0
  6 39  1  0
  8 40  1  0
  9 41  1  0
 13 42  1  0
 13 43  1  0
 16 44  1  0
 18 45  1  0
 19 46  1  0
 20 47  1  0
 22 48  1  0
 22 49  1  0
 22 50  1  0
 23 51  1  0
 26 52  1  0
 27 53  1  0
 28 54  1  0
 29 55  1  0
M  END
$$$$
[H]c1nc(C(C#N)(C([H])([H])[H])C([H])([H])[H])c([H])c(C(=O)N([H])c2c([H])c([H])c(C([H])([H])[H])c(-c3c([H])c(N4C([H])([H])C([H])([H])OC([H])([H])C4([H])[H])c(=O)n(C([H])([H])[H])c3[H])c2[H])c1[H]
     RDKit          3D

 64 67  0  0  0  0  0  0  0  0999 V2000
    2.9871   -1.6291   -2.2750 C   0  0  0  0  0  0  0  0  0  0  0  0
    1.5850   -1.5046   -1.8764 C   0  0  0  0  0  0  0  0  0  0  0  0
    0.6843   -2.4482   -2.3823 C   0  0  0  0  0  0  0  0  0  0  0  0
   -0.6685   -2.3946   -2.0782 C   0  0  0  0  0  0  0  0  0  0  0  0
   -1.1215   -1.4021   -1.2706 C   0  0  0  0  0  0  0  0  0  0  0  0
   -2.4765   -1.2773   -0.9094 N   0  0  0  0  0  0  0  0  0  0  0  0
   -3.4159   -2.3200   -0.8825 C   0  0  0  0  0  0  0  0  0  0  0  0
   -3.0811   -3.4883   -1.1841 O   0  0  0  0  0  0  0  0  0  0  0  0
   -4.8242   -2.0819   -0.5011 C   0  0  0  0  0  0  0  0  0  0  0  0
   -5.7979   -3.0287   -0.7001 C   0  0  0  0  0  0  0  0  0  0  0  0
   -7.0817   -2.7558   -0.3297 C   0  0  0  0  0  0  0  0  0  0  0  0
   -7.4302   -1.5753    0.2320 N   0  0  0  0  0  0  0  0  0  0  0  0
   -6.4995   -0.6182    0.4444 C   0  0  0  0  0  0  0  0  0  0  0  0
   -5.2042   -0.9001    0.0682 C   0  0  0  0  0  0  0  0  0  0  0  0
   -6.8854    0.6690    1.0587 C   0  0  0  0  0  0  0  0  0  0  0  0
   -6.0264    0.8971    2.2893 C   0  0  0  0  0  0  0  0  0  0  0  0
   -6.6858    1.7642    0.0353 C   0  0  0  0  0  0  0  0  0  0  0  0
   -8.2771    0.6313    1.5114 C   0  0  0  0  0  0  0  0  0  0  0  0
   -9.3688    0.6184    1.8546 N   0  0  0  0  0  0  0  0  0  0  0  0
   -0.1926   -0.4549   -0.7678 C   0  0  0  0  0  0  0  0  0  0  0  0
    1.1455   -0.5007   -1.0638 C   0  0  0  0  0  0  0  0  0  0  0  0
    2.0673    0.4816   -0.5277 C   0  0  0  0  0  0  0  0  0  0  0  0
    3.2590    0.1786    0.0782 C   0  0  0  0  0  0  0  0  0  0  0  0
    4.1207    1.1268    0.5737 C   0  0  0  0  0  0  0  0  0  0  0  0
    5.3491    0.8078    1.1859 N   0  0  0  0  0  0  0  0  0  0  0  0
    6.5795    1.3328    0.6627 C   0  0  0  0  0  0  0  0  0  0  0  0
    7.6529    0.2723    0.6010 C   0  0  0  0  0  0  0  0  0  0  0  0
    7.0915   -0.9410    0.9860 O   0  0  0  0  0  0  0  0  0  0  0  0
    6.7262   -0.8286    2.3351 C   0  0  0  0  0  0  0  0  0  0  0  0
    5.4065   -0.0579    2.3360 C   0  0  0  0  0  0  0  0  0  0  0  0
    3.7276    2.4677    0.4370 C   0  0  0  0  0  0  0  0  0  0  0  0
    4.5190    3.3303    0.8940 O   0  0  0  0  0  0  0  0  0  0  0  0
    2.5772    2.8033   -0.1443 N   0  0  0  0  0  0  0  0  0  0  0  0
    2.1732    4.1812   -0.2852 C   0  0  0  0  0  0  0  0  0  0  0  0
    1.7599    1.8533   -0.6183 C   0  0  0  0  0  0  0  0  0  0  0  0
    3.0400   -2.1250   -3.2980 H   0  0  0  0  0  0  0  0  0  0  0  0
    3.4993   -2.3849   -1.6230 H   0  0  0  0  0  0  0  0  0  0  0  0
    3.5343   -0.6975   -2.4094 H   0  0  0  0  0  0  0  0  0  0  0  0
    1.0292   -3.2442   -3.0211 H   0  0  0  0  0  0  0  0  0  0  0  0
   -1.3098   -3.1711   -2.5377 H   0  0  0  0  0  0  0  0  0  0  0  0
   -2.7972   -0.2707   -0.6362 H   0  0  0  0  0  0  0  0  0  0  0  0
   -5.5669   -3.9780   -1.1411 H   0  0  0  0  0  0  0  0  0  0  0  0
   -7.9023   -3.4573   -0.4615 H   0  0  0  0  0  0  0  0  0  0  0  0
   -4.4997   -0.0800    0.2783 H   0  0  0  0  0  0  0  0  0  0  0  0
   -5.7272   -0.1010    2.6624 H   0  0  0  0  0  0  0  0  0  0  0  0
   -5.0747    1.3972    1.9837 H   0  0  0  0  0  0  0  0  0  0  0  0
   -6.5709    1.4775    3.0341 H   0  0  0  0  0  0  0  0  0  0  0  0
   -5.6747    2.1928    0.2151 H   0  0  0  0  0  0  0  0  0  0  0  0
   -6.6965    1.3142   -0.9664 H   0  0  0  0  0  0  0  0  0  0  0  0
   -7.4785    2.5408    0.1288 H   0  0  0  0  0  0  0  0  0  0  0  0
   -0.5874    0.3268   -0.1265 H   0  0  0  0  0  0  0  0  0  0  0  0
    3.5581   -0.8582    0.1921 H   0  0  0  0  0  0  0  0  0  0  0  0
    6.9725    2.1729    1.2855 H   0  0  0  0  0  0  0  0  0  0  0  0
    6.4615    1.7572   -0.3575 H   0  0  0  0  0  0  0  0  0  0  0  0
    8.4943    0.5482    1.2947 H   0  0  0  0  0  0  0  0  0  0  0  0
    8.0290    0.2207   -0.4522 H   0  0  0  0  0  0  0  0  0  0  0  0
    7.4744   -0.3294    2.9562 H   0  0  0  0  0  0  0  0  0  0  0  0
    6.5219   -1.8364    2.7071 H   0  0  0  0  0  0  0  0  0  0  0  0
    5.2832    0.4757    3.3026 H   0  0  0  0  0  0  0  0  0  0  0  0
    4.5960   -0.8086    2.2713 H   0  0  0  0  0  0  0  0  0  0  0  0
    1.0885    4.2890   -0.0480 H   0  0  0  0  0  0  0  0  0  0  0  0
    2.7981    4.8175    0.3654 H   0  0  0  0  0  0  0  0  0  0  0  0
    2.3278    4.5214   -1.3299 H   0  0  0  0  0  0  0  0  0  0  0  0
    0.8036    2.0819   -1.1026 H   0  0  0  0  0  0  0  0  0  0  0  0
  1  2  1  0
  2  3  2  0
  3  4  1  0
  4  5  2  0
  5  6  1  0
  6  7  1  0
  7  8  2  0
  7  9  1  0
  9 10  2  0
 10 11  1  0
 11 12  2  0
 12 13  1  0
 13 14  2  0
 13 15  1  0
 15 16  1  0
 15 17  1  0
 15 18  1  0
 18 19  3  0
  5 20  1  0
 20 21  2  0
 21 22  1  0
 22 23  1  0
 23 24  2  0
 24 25  1  0
 25 26  1  0
 26 27  1  0
 27 28  1  0
 28 29  1  0
 29 30  1  0
 24 31  1  0
 31 32  2  0
 31 33  1  0
 33 34  1  0
 33 35  1  0
 21  2  1  0
 35 22  2  0
 14  9  1  0
 30 25  1  0
  1 36  1  0
  1 37  1  0
  1 38  1  0
  3 39  1  0
  4 40  1  0
  6 41  1  0
 10 42  1  0
 11 43  1  0
 14 44  1  0
 16 45  1  0
 16 46  1  0
 16 47  1  0
 17 48  1  0
 17 49  1  0
 17 50  1  0
 20 51  1  0
 23 52  1  0
 26 53  1  0
 26 54  1  0
 27 55  1  0
 27 56  1  0
 29 57  1  0
 29 58  1  0
 30 59  1  0
 30 60  1  0
 34 61  1  0
 34 62  1  0
 34 63  1  0
 35 64  1  0
M  END
$$$$
[H]N=C(c1c([H])c([H])c([H])c(C([H])([H])[C@@]([H])(C(=O)N([H])[C@]([H])(C(=O)c2nc3c([H])c([H])c([H])c([H])c3s2)C([H])([H])C([H])([H])C([H])([H])N=C(N([H])[H])N([H])[H])N([H])C(=O)[C@]([H])(N([H])C(=O)C([H])([H])[H])C(C([H])([H])[H])(C([H])([H])[H])C([H])([H])[H])c1[H])N([H])[H]
     RDKit          3D

 86 88  0  0  0  0  0  0  0  0999 V2000
   -4.3760    6.0177   -0.6828 C   0  0  0  0  0  0  0  0  0  0  0  0
   -3.8794    4.8080   -1.3646 C   0  0  0  0  0  0  0  0  0  0  0  0
   -3.1861    4.9619   -2.3922 O   0  0  0  0  0  0  0  0  0  0  0  0
   -4.1468    3.4980   -0.9166 N   0  0  0  0  0  0  0  0  0  0  0  0
   -3.6420    2.3062   -1.6153 C   0  0  1  0  0  0  0  0  0  0  0  0
   -2.7445    1.5425   -0.7633 C   0  0  0  0  0  0  0  0  0  0  0  0
   -2.5835    2.0633    0.4246 O   0  0  0  0  0  0  0  0  0  0  0  0
   -2.0214    0.3761   -0.9574 N   0  0  0  0  0  0  0  0  0  0  0  0
   -1.1513   -0.2095    0.0485 C   0  0  1  0  0  0  0  0  0  0  0  0
   -1.3679   -1.6357    0.3596 C   0  0  0  0  0  0  0  0  0  0  0  0
   -2.6803   -2.0280    0.8691 C   0  0  0  0  0  0  0  0  0  0  0  0
   -3.6248   -2.4591   -0.0190 C   0  0  0  0  0  0  0  0  0  0  0  0
   -4.8757   -2.8338    0.4111 C   0  0  0  0  0  0  0  0  0  0  0  0
   -5.1586   -2.7660    1.7570 C   0  0  0  0  0  0  0  0  0  0  0  0
   -4.2391   -2.3380    2.6887 C   0  0  0  0  0  0  0  0  0  0  0  0
   -2.9906   -1.9711    2.2022 C   0  0  0  0  0  0  0  0  0  0  0  0
   -4.5611   -2.2689    4.1051 C   0  0  0  0  0  0  0  0  0  0  0  0
   -5.8454   -2.6291    4.5550 N   0  0  0  0  0  0  0  0  0  0  0  0
   -3.6812   -1.8772    4.9415 N   0  0  0  0  0  0  0  0  0  0  0  0
    0.2843   -0.0920   -0.4151 C   0  0  0  0  0  0  0  0  0  0  0  0
    0.5146    0.4318   -1.5334 O   0  0  0  0  0  0  0  0  0  0  0  0
    1.3700   -0.5478    0.3580 N   0  0  0  0  0  0  0  0  0  0  0  0
    2.7483   -0.4069   -0.1562 C   0  0  1  0  0  0  0  0  0  0  0  0
    3.3280    0.6751    0.7718 C   0  0  0  0  0  0  0  0  0  0  0  0
    4.7425    1.0238    0.5023 C   0  0  0  0  0  0  0  0  0  0  0  0
    5.1684    2.1334    1.4414 C   0  0  0  0  0  0  0  0  0  0  0  0
    5.0447    1.7449    2.7845 N   0  0  0  0  0  0  0  0  0  0  0  0
    5.6190    0.8796    3.4760 C   0  0  0  0  0  0  0  0  0  0  0  0
    6.6136    0.0311    2.9879 N   0  0  0  0  0  0  0  0  0  0  0  0
    5.2442    0.7433    4.8609 N   0  0  0  0  0  0  0  0  0  0  0  0
    3.3988   -1.6961   -0.0410 C   0  0  0  0  0  0  0  0  0  0  0  0
    2.9351   -2.5718    0.7348 O   0  0  0  0  0  0  0  0  0  0  0  0
    4.5968   -2.0406   -0.8060 C   0  0  0  0  0  0  0  0  0  0  0  0
    5.2919   -1.3811   -1.7077 N   0  0  0  0  0  0  0  0  0  0  0  0
    6.3502   -1.9136   -2.2568 C   0  0  0  0  0  0  0  0  0  0  0  0
    7.1727   -1.3037   -3.2298 C   0  0  0  0  0  0  0  0  0  0  0  0
    8.2417   -1.9822   -3.7070 C   0  0  0  0  0  0  0  0  0  0  0  0
    8.6287   -3.2486   -3.3334 C   0  0  0  0  0  0  0  0  0  0  0  0
    7.8181   -3.8499   -2.3740 C   0  0  0  0  0  0  0  0  0  0  0  0
    6.7002   -3.1751   -1.8565 C   0  0  0  0  0  0  0  0  0  0  0  0
    5.4806   -3.5202   -0.7097 S   0  0  0  0  0  0  0  0  0  0  0  0
   -4.7984    1.5361   -2.1973 C   0  0  0  0  0  0  0  0  0  0  0  0
   -4.3867    0.3172   -2.9699 C   0  0  0  0  0  0  0  0  0  0  0  0
   -5.5689    2.4155   -3.1842 C   0  0  0  0  0  0  0  0  0  0  0  0
   -5.7451    1.0497   -1.1090 C   0  0  0  0  0  0  0  0  0  0  0  0
   -5.1025    6.5912   -1.2929 H   0  0  0  0  0  0  0  0  0  0  0  0
   -3.5110    6.7019   -0.5309 H   0  0  0  0  0  0  0  0  0  0  0  0
   -4.8166    5.8263    0.2984 H   0  0  0  0  0  0  0  0  0  0  0  0
   -4.7246    3.3844   -0.0553 H   0  0  0  0  0  0  0  0  0  0  0  0
   -3.0507    2.6841   -2.4843 H   0  0  0  0  0  0  0  0  0  0  0  0
   -2.0726   -0.1303   -1.8585 H   0  0  0  0  0  0  0  0  0  0  0  0
   -1.1856    0.3924    0.9653 H   0  0  0  0  0  0  0  0  0  0  0  0
   -1.0480   -2.3081   -0.4827 H   0  0  0  0  0  0  0  0  0  0  0  0
   -0.6294   -1.9008    1.1766 H   0  0  0  0  0  0  0  0  0  0  0  0
   -3.4049   -2.5170   -1.1041 H   0  0  0  0  0  0  0  0  0  0  0  0
   -5.6415   -3.1837   -0.3047 H   0  0  0  0  0  0  0  0  0  0  0  0
   -6.1530   -3.0607    2.1241 H   0  0  0  0  0  0  0  0  0  0  0  0
   -2.2688   -1.6320    2.9569 H   0  0  0  0  0  0  0  0  0  0  0  0
   -6.2248   -3.5637    4.3213 H   0  0  0  0  0  0  0  0  0  0  0  0
   -6.4324   -1.9860    5.1179 H   0  0  0  0  0  0  0  0  0  0  0  0
   -3.8731   -1.8114    5.9833 H   0  0  0  0  0  0  0  0  0  0  0  0
    1.2593   -0.9828    1.2793 H   0  0  0  0  0  0  0  0  0  0  0  0
    2.6823    0.0010   -1.1940 H   0  0  0  0  0  0  0  0  0  0  0  0
    2.6438    1.5594    0.6445 H   0  0  0  0  0  0  0  0  0  0  0  0
    3.1962    0.3295    1.8169 H   0  0  0  0  0  0  0  0  0  0  0  0
    4.9375    1.3854   -0.5190 H   0  0  0  0  0  0  0  0  0  0  0  0
    5.3631    0.1368    0.7864 H   0  0  0  0  0  0  0  0  0  0  0  0
    4.4595    2.9889    1.2675 H   0  0  0  0  0  0  0  0  0  0  0  0
    6.2003    2.4188    1.1313 H   0  0  0  0  0  0  0  0  0  0  0  0
    6.6066   -0.9985    3.1520 H   0  0  0  0  0  0  0  0  0  0  0  0
    7.4113    0.4098    2.4297 H   0  0  0  0  0  0  0  0  0  0  0  0
    5.9502    0.5045    5.5845 H   0  0  0  0  0  0  0  0  0  0  0  0
    4.2638    0.8794    5.1696 H   0  0  0  0  0  0  0  0  0  0  0  0
    6.9753   -0.3141   -3.6059 H   0  0  0  0  0  0  0  0  0  0  0  0
    8.8765   -1.5049   -4.4602 H   0  0  0  0  0  0  0  0  0  0  0  0
    9.4715   -3.7665   -3.7181 H   0  0  0  0  0  0  0  0  0  0  0  0
    7.9879   -4.8327   -1.9811 H   0  0  0  0  0  0  0  0  0  0  0  0
   -5.2153    0.1049   -3.7246 H   0  0  0  0  0  0  0  0  0  0  0  0
   -3.5020    0.4869   -3.6219 H   0  0  0  0  0  0  0  0  0  0  0  0
   -4.3483   -0.6086   -2.3745 H   0  0  0  0  0  0  0  0  0  0  0  0
   -6.0789    1.7898   -3.9482 H   0  0  0  0  0  0  0  0  0  0  0  0
   -6.2854    3.0348   -2.6412 H   0  0  0  0  0  0  0  0  0  0  0  0
   -4.8210    3.0098   -3.7464 H   0  0  0  0  0  0  0  0  0  0  0  0
   -6.6379    0.6071   -1.6109 H   0  0  0  0  0  0  0  0  0  0  0  0
   -5.2821    0.2290   -0.5236 H   0  0  0  0  0  0  0  0  0  0  0  0
   -6.0122    1.8363   -0.4043 H   0  0  0  0  0  0  0  0  0  0  0  0
  1  2  1  0
  2  3  2  0
  2  4  1  0
  4  5  1  0
  5  6  1  0
  6  7  2  0
  6  8  1  0
  8  9  1  0
  9 10  1  0
 10 11  1  0
 11 12  2  0
 12 13  1  0
 13 14  2  0
 14 15  1  0
 15 16  2  0
 15 17  1  0
 17 18  1  0
 17 19  2  3
  9 20  1  0
 20 21  2  0
 20 22  1  0
 22 23  1  0
 23 24  1  0
 24 25  1  0
 25 26  1  0
 26 27  1  0
 27 28  2  3
 28 29  1  0
 28 30  1  0
 23 31  1  0
 31 32  2  0
 31 33  1  0
 33 34  2  0
 34 35  1  0
 35 36  2  0
 36 37  1  0
 37 38  2  0
 38 39  1  0
 39 40  2  0
 40 41  1  0
  5 42  1  0
 42 43  1  0
 42 44  1  0
 42 45  1  0
 16 11  1  0
 41 33  1  0
 40 35  1  0
  1 46  1  0
  1 47  1  0
  1 48  1  0
  4 49  1  0
  5 50  1  6
  8 51  1  0
  9 52  1  1
 10 53  1  0
 10 54  1  0
 12 55  1  0
 13 56  1  0
 14 57  1  0
 16 58  1  0
 18 59  1  0
 18 60  1  0
 19 61  1  0
 22 62  1  0
 23 63  1  6
 24 64  1  0
 24 65  1  0
 25 66  1  0
 25 67  1  0
 26 68  1  0
 26 69  1  0
 29 70  1  0
 29 71  1  0
 30 72  1  0
 30 73  1  0
 36 74  1  0
 37 75  1  0
 38 76  1  0
 39 77  1  0
 43 78  1  0
 43 79  1  0
 43 80  1  0
 44 81  1  0
 44 82  1  0
 44 83  1  0
 45 84  1  0
 45 85  1  0
 45 86  1  0
M  END
$$$$
[H]c1nc2c([H])c(OC([H])([H])[H])c(OC([H])([H])[H])c([H])c2c(Oc2c([H])c([H])c(N([H])C(=O)N([H])c3c([H])c([H])c(F)c([H])c3F)c([H])c2[H])c1[H]
     RDKit          3D

 52 55  0  0  0  0  0  0  0  0999 V2000
   -6.6475    1.8047   -3.2450 C   0  0  0  0  0  0  0  0  0  0  0  0
   -5.6927    1.8691   -2.2319 O   0  0  0  0  0  0  0  0  0  0  0  0
   -5.1221    0.8019   -1.5809 C   0  0  0  0  0  0  0  0  0  0  0  0
   -5.4072   -0.5222   -1.8297 C   0  0  0  0  0  0  0  0  0  0  0  0
   -4.8004   -1.5713   -1.1416 C   0  0  0  0  0  0  0  0  0  0  0  0
   -5.1478   -2.8287   -1.4299 N   0  0  0  0  0  0  0  0  0  0  0  0
   -4.5675   -3.8260   -0.7437 C   0  0  0  0  0  0  0  0  0  0  0  0
   -3.6351   -3.6019    0.2363 C   0  0  0  0  0  0  0  0  0  0  0  0
   -3.2442   -2.2927    0.5657 C   0  0  0  0  0  0  0  0  0  0  0  0
   -2.3276   -2.0430    1.5257 O   0  0  0  0  0  0  0  0  0  0  0  0
   -1.0703   -1.5189    1.4689 C   0  0  0  0  0  0  0  0  0  0  0  0
   -0.4251   -1.1945    2.6454 C   0  0  0  0  0  0  0  0  0  0  0  0
    0.8355   -0.6686    2.6918 C   0  0  0  0  0  0  0  0  0  0  0  0
    1.5806   -0.4154    1.5202 C   0  0  0  0  0  0  0  0  0  0  0  0
    2.8576    0.1432    1.6487 N   0  0  0  0  0  0  0  0  0  0  0  0
    3.9284    0.1346    0.6863 C   0  0  0  0  0  0  0  0  0  0  0  0
    3.6772   -0.4529   -0.3877 O   0  0  0  0  0  0  0  0  0  0  0  0
    5.1487    0.7503    0.9683 N   0  0  0  0  0  0  0  0  0  0  0  0
    6.2693    0.8341    0.1660 C   0  0  0  0  0  0  0  0  0  0  0  0
    6.3534    0.2962   -1.0913 C   0  0  0  0  0  0  0  0  0  0  0  0
    7.5135    0.4050   -1.8733 C   0  0  0  0  0  0  0  0  0  0  0  0
    8.6047    1.0656   -1.3808 C   0  0  0  0  0  0  0  0  0  0  0  0
    9.7041    1.1506   -2.1620 F   0  0  0  0  0  0  0  0  0  0  0  0
    8.5296    1.6105   -0.1161 C   0  0  0  0  0  0  0  0  0  0  0  0
    7.4140    1.5110    0.6472 C   0  0  0  0  0  0  0  0  0  0  0  0
    7.4002    2.0697    1.8885 F   0  0  0  0  0  0  0  0  0  0  0  0
    0.9358   -0.7386    0.3511 C   0  0  0  0  0  0  0  0  0  0  0  0
   -0.3578   -1.2778    0.3179 C   0  0  0  0  0  0  0  0  0  0  0  0
   -3.8542   -1.2879   -0.1486 C   0  0  0  0  0  0  0  0  0  0  0  0
   -3.5672    0.0342    0.1044 C   0  0  0  0  0  0  0  0  0  0  0  0
   -4.1894    1.0542   -0.5989 C   0  0  0  0  0  0  0  0  0  0  0  0
   -3.8592    2.3600   -0.3008 O   0  0  0  0  0  0  0  0  0  0  0  0
   -2.9059    2.6251    0.7026 C   0  0  0  0  0  0  0  0  0  0  0  0
   -7.3866    2.6294   -3.0581 H   0  0  0  0  0  0  0  0  0  0  0  0
   -6.1338    2.1154   -4.2015 H   0  0  0  0  0  0  0  0  0  0  0  0
   -7.1458    0.8406   -3.3634 H   0  0  0  0  0  0  0  0  0  0  0  0
   -6.1393   -0.7600   -2.5981 H   0  0  0  0  0  0  0  0  0  0  0  0
   -4.8523   -4.8632   -0.9782 H   0  0  0  0  0  0  0  0  0  0  0  0
   -3.2062   -4.4426    0.7503 H   0  0  0  0  0  0  0  0  0  0  0  0
   -0.9768   -1.3785    3.5842 H   0  0  0  0  0  0  0  0  0  0  0  0
    1.3273   -0.4201    3.6325 H   0  0  0  0  0  0  0  0  0  0  0  0
    3.0850    0.6419    2.5576 H   0  0  0  0  0  0  0  0  0  0  0  0
    5.2152    1.2148    1.9334 H   0  0  0  0  0  0  0  0  0  0  0  0
    5.5509   -0.2393   -1.5624 H   0  0  0  0  0  0  0  0  0  0  0  0
    7.4983   -0.0398   -2.8382 H   0  0  0  0  0  0  0  0  0  0  0  0
    9.4098    2.1344    0.2614 H   0  0  0  0  0  0  0  0  0  0  0  0
    1.4291   -0.5622   -0.5971 H   0  0  0  0  0  0  0  0  0  0  0  0
   -0.8054   -1.5088   -0.6249 H   0  0  0  0  0  0  0  0  0  0  0  0
   -2.8700    0.2911    0.8724 H   0  0  0  0  0  0  0  0  0  0  0  0
   -3.1875    2.1446    1.6811 H   0  0  0  0  0  0  0  0  0  0  0  0
   -2.8414    3.7112    0.9299 H   0  0  0  0  0  0  0  0  0  0  0  0
   -1.9017    2.2118    0.4510 H   0  0  0  0  0  0  0  0  0  0  0  0
  1  2  1  0
  2  3  1  0
  3  4  2  0
  4  5  1  0
  5  6  2  0
  6  7  1  0
  7  8  2  0
  8  9  1  0
  9 10  1  0
 10 11  1  0
 11 12  2  0
 12 13  1  0
 13 14  2  0
 14 15  1  0
 15 16  1  0
 16 17  2  0
 16 18  1  0
 18 19  1  0
 19 20  2  0
 20 21  1  0
 21 22  2  0
 22 23  1  0
 22 24  1  0
 24 25  2  0
 25 26  1  0
 14 27  1  0
 27 28  2  0
  9 29  2  0
 29 30  1  0
 30 31  2  0
 31 32  1  0
 32 33  1  0
 31  3  1  0
 29  5  1  0
 28 11  1  0
 25 19  1  0
  1 34  1  0
  1 35  1  0
  1 36  1  0
  4 37  1  0
  7 38  1  0
  8 39  1  0
 12 40  1  0
 13 41  1  0
 15 42  1  0
 18 43  1  0
 20 44  1  0
 21 45  1  0
 24 46  1  0
 27 47  1  0
 28 48  1  0
 30 49  1  0
 33 50  1  0
 33 51  1  0
 33 52  1  0
M  END
$$$$
[H]c1nc(N([H])c2c([H])c(C3([H])C([H])([H])C([H])([H])N(C(=O)OC([H])([H])C([H])(C([H])([H])[H])C([H])([H])[H])C([H])([H])C3([H])[H])c([H])c([H])c2F)nc(N([H])c2c([H])c([H])c([H])c([H])c2S(=O)(=O)C([H])(C([H])([H])[H])C([H])([H])[H])c1C([H])([H])[H]
     RDKit          3D

 79 82  0  0  0  0  0  0  0  0999 V2000
   11.7237    1.4315    1.2823 C   0  0  0  0  0  0  0  0  0  0  0  0
   10.2450    1.0641    1.4207 C   0  0  0  0  0  0  0  0  0  0  0  0
   10.1296    0.1478    2.6409 C   0  0  0  0  0  0  0  0  0  0  0  0
    9.8226    0.3719    0.1692 C   0  0  0  0  0  0  0  0  0  0  0  0
    8.4772    0.0014    0.2264 O   0  0  0  0  0  0  0  0  0  0  0  0
    7.4023    0.8324    0.3419 C   0  0  0  0  0  0  0  0  0  0  0  0
    7.6098    2.0762    0.3993 O   0  0  0  0  0  0  0  0  0  0  0  0
    6.0558    0.3888    0.4026 N   0  0  0  0  0  0  0  0  0  0  0  0
    4.9779    1.3376    0.5237 C   0  0  0  0  0  0  0  0  0  0  0  0
    4.0975    1.1451   -0.7129 C   0  0  0  0  0  0  0  0  0  0  0  0
    3.6340   -0.3043   -0.6456 C   0  0  0  0  0  0  0  0  0  0  0  0
    4.7708   -1.2608   -0.7683 C   0  0  0  0  0  0  0  0  0  0  0  0
    5.7664   -1.0183    0.3464 C   0  0  0  0  0  0  0  0  0  0  0  0
    2.6044   -0.5635   -1.6934 C   0  0  0  0  0  0  0  0  0  0  0  0
    2.9495   -0.8558   -2.9850 C   0  0  0  0  0  0  0  0  0  0  0  0
    1.9633   -1.0716   -3.9119 C   0  0  0  0  0  0  0  0  0  0  0  0
    0.6331   -0.9994   -3.5684 C   0  0  0  0  0  0  0  0  0  0  0  0
   -0.2655   -1.2278   -4.5482 F   0  0  0  0  0  0  0  0  0  0  0  0
    0.2228   -0.7017   -2.2552 C   0  0  0  0  0  0  0  0  0  0  0  0
   -1.1575   -0.6353   -2.0119 N   0  0  0  0  0  0  0  0  0  0  0  0
   -1.8350   -0.3660   -0.8079 C   0  0  0  0  0  0  0  0  0  0  0  0
   -1.2582   -0.1239    0.3696 N   0  0  0  0  0  0  0  0  0  0  0  0
   -1.9628    0.1429    1.4787 C   0  0  0  0  0  0  0  0  0  0  0  0
   -3.3429    0.1695    1.4045 C   0  0  0  0  0  0  0  0  0  0  0  0
   -4.1571    0.4586    2.6000 C   0  0  0  0  0  0  0  0  0  0  0  0
   -4.0051   -0.0791    0.1839 C   0  0  0  0  0  0  0  0  0  0  0  0
   -5.3997   -0.0269    0.1785 N   0  0  0  0  0  0  0  0  0  0  0  0
   -6.2381   -0.2520   -0.9192 C   0  0  0  0  0  0  0  0  0  0  0  0
   -5.8173   -0.5502   -2.2022 C   0  0  0  0  0  0  0  0  0  0  0  0
   -6.7395   -0.7521   -3.2436 C   0  0  0  0  0  0  0  0  0  0  0  0
   -8.0796   -0.6546   -2.9993 C   0  0  0  0  0  0  0  0  0  0  0  0
   -8.5320   -0.3578   -1.7267 C   0  0  0  0  0  0  0  0  0  0  0  0
   -7.6306   -0.1610   -0.7073 C   0  0  0  0  0  0  0  0  0  0  0  0
   -8.2094    0.2102    0.8902 S   0  0  0  0  0  0  0  0  0  0  0  0
   -7.8239    1.5743    1.3464 O   0  0  0  0  0  0  0  0  0  0  0  0
   -7.7817   -0.8607    1.8888 O   0  0  0  0  0  0  0  0  0  0  0  0
  -10.0107    0.2237    0.8351 C   0  0  0  0  0  0  0  0  0  0  0  0
  -10.6005   -1.1282    0.6858 C   0  0  0  0  0  0  0  0  0  0  0  0
  -10.4185    0.8769    2.1641 C   0  0  0  0  0  0  0  0  0  0  0  0
   -3.1764   -0.3278   -0.8220 N   0  0  0  0  0  0  0  0  0  0  0  0
    1.2415   -0.4962   -1.3705 C   0  0  0  0  0  0  0  0  0  0  0  0
   11.7937    2.5199    1.0591 H   0  0  0  0  0  0  0  0  0  0  0  0
   12.1701    0.8549    0.4670 H   0  0  0  0  0  0  0  0  0  0  0  0
   12.2683    1.1782    2.2108 H   0  0  0  0  0  0  0  0  0  0  0  0
    9.6503    1.9598    1.6365 H   0  0  0  0  0  0  0  0  0  0  0  0
   11.1419   -0.2510    2.9186 H   0  0  0  0  0  0  0  0  0  0  0  0
    9.4870   -0.7034    2.4133 H   0  0  0  0  0  0  0  0  0  0  0  0
    9.7831    0.7163    3.5227 H   0  0  0  0  0  0  0  0  0  0  0  0
   10.4516   -0.5165   -0.0461 H   0  0  0  0  0  0  0  0  0  0  0  0
    9.9836    1.0880   -0.6682 H   0  0  0  0  0  0  0  0  0  0  0  0
    5.3085    2.3739    0.5961 H   0  0  0  0  0  0  0  0  0  0  0  0
    4.3335    1.0513    1.3949 H   0  0  0  0  0  0  0  0  0  0  0  0
    3.1946    1.7627   -0.5859 H   0  0  0  0  0  0  0  0  0  0  0  0
    4.6418    1.3260   -1.6495 H   0  0  0  0  0  0  0  0  0  0  0  0
    3.1314   -0.4102    0.3310 H   0  0  0  0  0  0  0  0  0  0  0  0
    4.3622   -2.2854   -0.6882 H   0  0  0  0  0  0  0  0  0  0  0  0
    5.3356   -1.1128   -1.7129 H   0  0  0  0  0  0  0  0  0  0  0  0
    6.7137   -1.5927    0.1447 H   0  0  0  0  0  0  0  0  0  0  0  0
    5.3206   -1.4133    1.2858 H   0  0  0  0  0  0  0  0  0  0  0  0
    4.0114   -0.9103   -3.2424 H   0  0  0  0  0  0  0  0  0  0  0  0
    2.2803   -1.3045   -4.9387 H   0  0  0  0  0  0  0  0  0  0  0  0
   -1.7775   -0.8131   -2.8599 H   0  0  0  0  0  0  0  0  0  0  0  0
   -1.4911    0.3413    2.4440 H   0  0  0  0  0  0  0  0  0  0  0  0
   -4.7706    1.3789    2.5010 H   0  0  0  0  0  0  0  0  0  0  0  0
   -4.8906   -0.3740    2.7864 H   0  0  0  0  0  0  0  0  0  0  0  0
   -3.5260    0.5570    3.5113 H   0  0  0  0  0  0  0  0  0  0  0  0
   -5.8638    0.2142    1.0955 H   0  0  0  0  0  0  0  0  0  0  0  0
   -4.7710   -0.6324   -2.4218 H   0  0  0  0  0  0  0  0  0  0  0  0
   -6.3678   -0.9788   -4.2091 H   0  0  0  0  0  0  0  0  0  0  0  0
   -8.8041   -0.8099   -3.7998 H   0  0  0  0  0  0  0  0  0  0  0  0
   -9.6157   -0.2723   -1.5519 H   0  0  0  0  0  0  0  0  0  0  0  0
  -10.2978    0.9257    0.0547 H   0  0  0  0  0  0  0  0  0  0  0  0
  -11.2399   -1.3361    1.5877 H   0  0  0  0  0  0  0  0  0  0  0  0
   -9.8520   -1.9413    0.5610 H   0  0  0  0  0  0  0  0  0  0  0  0
  -11.3506   -1.1380   -0.1591 H   0  0  0  0  0  0  0  0  0  0  0  0
  -10.6116    0.0701    2.8827 H   0  0  0  0  0  0  0  0  0  0  0  0
   -9.6683    1.6005    2.5168 H   0  0  0  0  0  0  0  0  0  0  0  0
  -11.3572    1.4621    2.0218 H   0  0  0  0  0  0  0  0  0  0  0  0
    1.0071   -0.2626   -0.3474 H   0  0  0  0  0  0  0  0  0  0  0  0
  1  2  1  0
  2  3  1  0
  2  4  1  0
  4  5  1  0
  5  6  1  0
  6  7  2  0
  6  8  1  0
  8  9  1  0
  9 10  1  0
 10 11  1  0
 11 12  1  0
 12 13  1  0
 11 14  1  0
 14 15  2  0
 15 16  1  0
 16 17  2  0
 17 18  1  0
 17 19  1  0
 19 20  1  0
 20 21  1  0
 21 22  2  0
 22 23  1  0
 23 24  2  0
 24 25  1  0
 24 26  1  0
 26 27  1  0
 27 28  1  0
 28 29  2  0
 29 30  1  0
 30 31  2  0
 31 32  1  0
 32 33  2  0
 33 34  1  0
 34 35  2  0
 34 36  2  0
 34 37  1  0
 37 38  1  0
 37 39  1  0
 26 40  2  0
 19 41  2  0
 13  8  1  0
 41 14  1  0
 40 21  1  0
 33 28  1  0
  1 42  1  0
  1 43  1  0
  1 44  1  0
  2 45  1  0
  3 46  1  0
  3 47  1  0
  3 48  1  0
  4 49  1  0
  4 50  1  0
  9 51  1  0
  9 52  1  0
 10 53  1  0
 10 54  1  0
 11 55  1  0
 12 56  1  0
 12 57  1  0
 13 58  1  0
 13 59  1  0
 15 60  1  0
 16 61  1  0
 20 62  1  0
 23 63  1  0
 25 64  1  0
 25 65  1  0
 25 66  1  0
 27 67  1  0
 29 68  1  0
 30 69  1  0
 31 70  1  0
 32 71  1  0
 37 72  1  0
 38 73  1  0
 38 74  1  0
 38 75  1  0
 39 76  1  0
 39 77  1  0
 39 78  1  0
 41 79  1  0
M  END
$$$$
[H]ON([H])C(=O)C([H])([H])C([H])([H])C([H])([H])C([H])([H])C([H])([H])C([H])(c1c([H])c([H])c([H])c(F)c1[H])c1c([H])c([H])c([H])c(F)c1[H]
     RDKit          3D

 45 46  0  0  0  0  0  0  0  0999 V2000
    5.3822   -1.5027    2.1637 O   0  0  0  0  0  0  0  0  0  0  0  0
    4.7110   -1.1914    1.0343 N   0  0  0  0  0  0  0  0  0  0  0  0
    4.1071    0.1117    0.8745 C   0  0  0  0  0  0  0  0  0  0  0  0
    4.2177    0.9321    1.7902 O   0  0  0  0  0  0  0  0  0  0  0  0
    3.3750    0.4439   -0.3634 C   0  0  0  0  0  0  0  0  0  0  0  0
    2.7363    1.7779   -0.4059 C   0  0  0  0  0  0  0  0  0  0  0  0
    1.6938    2.0748    0.6011 C   0  0  0  0  0  0  0  0  0  0  0  0
    0.5090    1.1189    0.5356 C   0  0  0  0  0  0  0  0  0  0  0  0
   -0.1332    1.1936   -0.7965 C   0  0  0  0  0  0  0  0  0  0  0  0
   -1.3317    0.3626   -1.0461 C   0  0  0  0  0  0  0  0  0  0  0  0
   -1.0168   -1.0629   -0.8471 C   0  0  0  0  0  0  0  0  0  0  0  0
   -0.8288   -1.8606   -1.9508 C   0  0  0  0  0  0  0  0  0  0  0  0
   -0.5527   -3.2087   -1.8724 C   0  0  0  0  0  0  0  0  0  0  0  0
   -0.4570   -3.8009   -0.6392 C   0  0  0  0  0  0  0  0  0  0  0  0
   -0.6473   -2.9922    0.4635 C   0  0  0  0  0  0  0  0  0  0  0  0
   -0.5544   -3.5703    1.6899 F   0  0  0  0  0  0  0  0  0  0  0  0
   -0.9225   -1.6500    0.3962 C   0  0  0  0  0  0  0  0  0  0  0  0
   -2.5851    0.8027   -0.4387 C   0  0  0  0  0  0  0  0  0  0  0  0
   -2.6702    1.9191    0.3156 C   0  0  0  0  0  0  0  0  0  0  0  0
   -3.9129    2.2516    0.8679 C   0  0  0  0  0  0  0  0  0  0  0  0
   -5.0391    1.4844    0.6678 C   0  0  0  0  0  0  0  0  0  0  0  0
   -4.9363    0.3465   -0.1060 C   0  0  0  0  0  0  0  0  0  0  0  0
   -6.0454   -0.4132   -0.3061 F   0  0  0  0  0  0  0  0  0  0  0  0
   -3.7065    0.0295   -0.6443 C   0  0  0  0  0  0  0  0  0  0  0  0
    6.2311   -1.9217    1.9318 H   0  0  0  0  0  0  0  0  0  0  0  0
    4.6469   -1.9163    0.2946 H   0  0  0  0  0  0  0  0  0  0  0  0
    2.6842   -0.3811   -0.6644 H   0  0  0  0  0  0  0  0  0  0  0  0
    4.1533    0.4323   -1.1866 H   0  0  0  0  0  0  0  0  0  0  0  0
    2.4242    1.9668   -1.4552 H   0  0  0  0  0  0  0  0  0  0  0  0
    3.5648    2.5335   -0.2452 H   0  0  0  0  0  0  0  0  0  0  0  0
    1.2485    3.0897    0.3933 H   0  0  0  0  0  0  0  0  0  0  0  0
    2.1254    2.0885    1.6099 H   0  0  0  0  0  0  0  0  0  0  0  0
   -0.1292    1.3126    1.4017 H   0  0  0  0  0  0  0  0  0  0  0  0
    0.9689    0.0980    0.7159 H   0  0  0  0  0  0  0  0  0  0  0  0
    0.6503    0.8529   -1.5438 H   0  0  0  0  0  0  0  0  0  0  0  0
   -0.2807    2.2720   -1.0364 H   0  0  0  0  0  0  0  0  0  0  0  0
   -1.5248    0.4773   -2.1789 H   0  0  0  0  0  0  0  0  0  0  0  0
   -0.8909   -1.4509   -2.9721 H   0  0  0  0  0  0  0  0  0  0  0  0
   -0.4162   -3.7745   -2.8040 H   0  0  0  0  0  0  0  0  0  0  0  0
   -0.2400   -4.8614   -0.5683 H   0  0  0  0  0  0  0  0  0  0  0  0
   -1.0710   -1.0256    1.2686 H   0  0  0  0  0  0  0  0  0  0  0  0
   -1.8604    2.6003    0.5312 H   0  0  0  0  0  0  0  0  0  0  0  0
   -3.9935    3.1563    1.4828 H   0  0  0  0  0  0  0  0  0  0  0  0
   -6.0000    1.7407    1.0943 H   0  0  0  0  0  0  0  0  0  0  0  0
   -3.6831   -0.8858   -1.2508 H   0  0  0  0  0  0  0  0  0  0  0  0
  1  2  1  0
  2  3  1  0
  3  4  2  0
  3  5  1  0
  5  6  1  0
  6  7  1  0
  7  8  1  0
  8  9  1  0
  9 10  1  0
 10 11  1  0
 11 12  2  0
 12 13  1  0
 13 14  2  0
 14 15  1  0
 15 16  1  0
 15 17  2  0
 10 18  1  0
 18 19  2  0
 19 20  1  0
 20 21  2  0
 21 22  1  0
 22 23  1  0
 22 24  2  0
 17 11  1  0
 24 18  1  0
  1 25  1  0
  2 26  1  0
  5 27  1  0
  5 28  1  0
  6 29  1  0
  6 30  1  0
  7 31  1  0
  7 32  1  0
  8 33  1  0
  8 34  1  0
  9 35  1  0
  9 36  1  0
 10 37  1  0
 12 38  1  0
 13 39  1  0
 14 40  1  0
 17 41  1  0
 19 42  1  0
 20 43  1  0
 21 44  1  0
 24 45  1  0
M  END
$$$$
[H]c1nc(N([H])[H])c(-c2nc3c([H])c([H])c([H])c(C([H])([H])[H])n3n2)c([H])c1-c1c([H])c([H])c(C(=O)N(C([H])([H])[H])C([H])([H])[H])c([H])c1OC([H])([H])[H]
     RDKit          3D

 52 55  0  0  0  0  0  0  0  0999 V2000
    0.8642    0.2644   -2.9515 C   0  0  0  0  0  0  0  0  0  0  0  0
    0.6946    0.6616   -1.6047 O   0  0  0  0  0  0  0  0  0  0  0  0
    1.7554    0.5548   -0.7348 C   0  0  0  0  0  0  0  0  0  0  0  0
    2.9677    0.0703   -1.1591 C   0  0  0  0  0  0  0  0  0  0  0  0
    4.0626   -0.0441   -0.2797 C   0  0  0  0  0  0  0  0  0  0  0  0
    3.8368    0.3598    1.0250 C   0  0  0  0  0  0  0  0  0  0  0  0
    2.6089    0.8535    1.4665 C   0  0  0  0  0  0  0  0  0  0  0  0
    1.5707    0.9482    0.5790 C   0  0  0  0  0  0  0  0  0  0  0  0
    0.2678    1.4518    0.9829 C   0  0  0  0  0  0  0  0  0  0  0  0
    0.1949    2.6223    1.7460 C   0  0  0  0  0  0  0  0  0  0  0  0
   -0.9772    3.1370    2.1532 N   0  0  0  0  0  0  0  0  0  0  0  0
   -2.1545    2.5630    1.8550 C   0  0  0  0  0  0  0  0  0  0  0  0
   -3.4023    3.1041    2.2839 N   0  0  0  0  0  0  0  0  0  0  0  0
   -2.1159    1.3974    1.0972 C   0  0  0  0  0  0  0  0  0  0  0  0
   -0.9281    0.8449    0.6646 C   0  0  0  0  0  0  0  0  0  0  0  0
   -3.4020    0.7840    0.7803 C   0  0  0  0  0  0  0  0  0  0  0  0
   -4.6290    1.1703    1.1076 N   0  0  0  0  0  0  0  0  0  0  0  0
   -5.5462    0.3158    0.6113 C   0  0  0  0  0  0  0  0  0  0  0  0
   -6.9140    0.2333    0.6436 C   0  0  0  0  0  0  0  0  0  0  0  0
   -7.6178   -0.7856    0.0274 C   0  0  0  0  0  0  0  0  0  0  0  0
   -6.8629   -1.7443   -0.6414 C   0  0  0  0  0  0  0  0  0  0  0  0
   -5.4854   -1.6486   -0.6658 C   0  0  0  0  0  0  0  0  0  0  0  0
   -4.7258   -2.6958   -1.3922 C   0  0  0  0  0  0  0  0  0  0  0  0
   -4.8429   -0.6391   -0.0517 N   0  0  0  0  0  0  0  0  0  0  0  0
   -3.5428   -0.3413    0.0597 N   0  0  0  0  0  0  0  0  0  0  0  0
    5.3064   -0.5540   -0.7668 C   0  0  0  0  0  0  0  0  0  0  0  0
    5.2829   -0.8702   -2.0406 O   0  0  0  0  0  0  0  0  0  0  0  0
    6.5407   -0.7857   -0.1702 N   0  0  0  0  0  0  0  0  0  0  0  0
    7.6024   -1.3417   -1.0639 C   0  0  0  0  0  0  0  0  0  0  0  0
    6.9066   -0.5499    1.2059 C   0  0  0  0  0  0  0  0  0  0  0  0
   -0.1047    0.3402   -3.4706 H   0  0  0  0  0  0  0  0  0  0  0  0
    1.6329    0.9382   -3.3867 H   0  0  0  0  0  0  0  0  0  0  0  0
    1.1857   -0.7931   -2.9852 H   0  0  0  0  0  0  0  0  0  0  0  0
    3.1354   -0.2421   -2.1764 H   0  0  0  0  0  0  0  0  0  0  0  0
    4.5899    0.3185    1.7746 H   0  0  0  0  0  0  0  0  0  0  0  0
    2.5024    1.1457    2.4790 H   0  0  0  0  0  0  0  0  0  0  0  0
    1.1411    3.1015    1.9973 H   0  0  0  0  0  0  0  0  0  0  0  0
   -3.8378    2.8877    3.2050 H   0  0  0  0  0  0  0  0  0  0  0  0
   -3.9228    3.7515    1.6599 H   0  0  0  0  0  0  0  0  0  0  0  0
   -0.9288   -0.0583    0.0820 H   0  0  0  0  0  0  0  0  0  0  0  0
   -7.4861    0.9854    1.1669 H   0  0  0  0  0  0  0  0  0  0  0  0
   -8.6845   -0.8694    0.0399 H   0  0  0  0  0  0  0  0  0  0  0  0
   -7.3953   -2.5615   -1.1377 H   0  0  0  0  0  0  0  0  0  0  0  0
   -5.1824   -2.8101   -2.4087 H   0  0  0  0  0  0  0  0  0  0  0  0
   -4.8250   -3.6920   -0.9019 H   0  0  0  0  0  0  0  0  0  0  0  0
   -3.6745   -2.4302   -1.5498 H   0  0  0  0  0  0  0  0  0  0  0  0
    7.8972   -0.5229   -1.7482 H   0  0  0  0  0  0  0  0  0  0  0  0
    7.0824   -2.1241   -1.6522 H   0  0  0  0  0  0  0  0  0  0  0  0
    8.4191   -1.7218   -0.4531 H   0  0  0  0  0  0  0  0  0  0  0  0
    6.2892   -1.2151    1.8401 H   0  0  0  0  0  0  0  0  0  0  0  0
    7.9985   -0.8846    1.3417 H   0  0  0  0  0  0  0  0  0  0  0  0
    6.8523    0.5032    1.5172 H   0  0  0  0  0  0  0  0  0  0  0  0
  1  2  1  0
  2  3  1  0
  3  4  2  0
  4  5  1  0
  5  6  2  0
  6  7  1  0
  7  8  2  0
  8  9  1  0
  9 10  2  0
 10 11  1  0
 11 12  2  0
 12 13  1  0
 12 14  1  0
 14 15  2  0
 14 16  1  0
 16 17  1  0
 17 18  2  0
 18 19  1  0
 19 20  2  0
 20 21  1  0
 21 22  2  0
 22 23  1  0
 22 24  1  0
 24 25  1  0
  5 26  1  0
 26 27  2  0
 26 28  1  0
 28 29  1  0
 28 30  1  0
  8  3  1  0
 15  9  1  0
 25 16  2  0
 24 18  1  0
  1 31  1  0
  1 32  1  0
  1 33  1  0
  4 34  1  0
  6 35  1  0
  7 36  1  0
 10 37  1  0
 13 38  1  0
 13 39  1  0
 15 40  1  0
 19 41  1  0
 20 42  1  0
 21 43  1  0
 23 44  1  0
 23 45  1  0
 23 46  1  0
 29 47  1  0
 29 48  1  0
 29 49  1  0
 30 50  1  0
 30 51  1  0
 30 52  1  0
M  END
$$$$
[H]Oc1c(C(=O)OC([H])([H])C([H])([H])C([H])([H])C([H])([H])C([H])([H])[H])c(=O)n(C([H])([H])[H])c(=O)c2c([H])c([H])c([H])c([H])c12
     RDKit          3D

 42 43  0  0  0  0  0  0  0  0999 V2000
    5.2065    0.2969    1.3087 C   0  0  0  0  0  0  0  0  0  0  0  0
    5.3542   -0.6517    0.1355 C   0  0  0  0  0  0  0  0  0  0  0  0
    4.9137    0.0660   -1.1192 C   0  0  0  0  0  0  0  0  0  0  0  0
    3.4800    0.5295   -1.0436 C   0  0  0  0  0  0  0  0  0  0  0  0
    2.5864   -0.6560   -0.8544 C   0  0  0  0  0  0  0  0  0  0  0  0
    1.2250   -0.1963   -0.7959 O   0  0  0  0  0  0  0  0  0  0  0  0
    0.1783   -1.0890   -0.6246 C   0  0  0  0  0  0  0  0  0  0  0  0
    0.5455   -2.3053   -0.5296 O   0  0  0  0  0  0  0  0  0  0  0  0
   -1.2204   -0.7522   -0.5479 C   0  0  0  0  0  0  0  0  0  0  0  0
   -1.5723    0.5678   -0.6580 C   0  0  0  0  0  0  0  0  0  0  0  0
   -0.8909    1.3346   -1.5557 O   0  0  0  0  0  0  0  0  0  0  0  0
   -2.5857    1.2339    0.0687 C   0  0  0  0  0  0  0  0  0  0  0  0
   -2.3640    2.5781    0.0919 C   0  0  0  0  0  0  0  0  0  0  0  0
   -3.2660    3.3767    0.7606 C   0  0  0  0  0  0  0  0  0  0  0  0
   -4.3540    2.7848    1.3779 C   0  0  0  0  0  0  0  0  0  0  0  0
   -4.5816    1.4341    1.3575 C   0  0  0  0  0  0  0  0  0  0  0  0
   -3.6691    0.6418    0.6829 C   0  0  0  0  0  0  0  0  0  0  0  0
   -3.9807   -0.7121    0.7143 C   0  0  0  0  0  0  0  0  0  0  0  0
   -5.0500   -0.9713    1.3606 O   0  0  0  0  0  0  0  0  0  0  0  0
   -3.3498   -1.7867    0.1822 N   0  0  0  0  0  0  0  0  0  0  0  0
   -4.0997   -3.0236    0.1805 C   0  0  0  0  0  0  0  0  0  0  0  0
   -2.0858   -1.8000   -0.3435 C   0  0  0  0  0  0  0  0  0  0  0  0
   -1.7253   -2.9550   -0.6621 O   0  0  0  0  0  0  0  0  0  0  0  0
    5.8442   -0.1035    2.1235 H   0  0  0  0  0  0  0  0  0  0  0  0
    4.1486    0.3900    1.5763 H   0  0  0  0  0  0  0  0  0  0  0  0
    5.6258    1.2883    0.9873 H   0  0  0  0  0  0  0  0  0  0  0  0
    4.7931   -1.5781    0.3415 H   0  0  0  0  0  0  0  0  0  0  0  0
    6.4275   -0.9615    0.0346 H   0  0  0  0  0  0  0  0  0  0  0  0
    5.0671   -0.6559   -1.9580 H   0  0  0  0  0  0  0  0  0  0  0  0
    5.5827    0.9204   -1.3516 H   0  0  0  0  0  0  0  0  0  0  0  0
    3.3977    1.2305   -0.1611 H   0  0  0  0  0  0  0  0  0  0  0  0
    3.1879    1.1187   -1.9268 H   0  0  0  0  0  0  0  0  0  0  0  0
    2.6890   -1.3430   -1.6932 H   0  0  0  0  0  0  0  0  0  0  0  0
    2.8545   -1.1192    0.1396 H   0  0  0  0  0  0  0  0  0  0  0  0
   -0.1808    1.0523   -2.1709 H   0  0  0  0  0  0  0  0  0  0  0  0
   -1.4887    2.9964   -0.4122 H   0  0  0  0  0  0  0  0  0  0  0  0
   -3.1352    4.4491    0.8084 H   0  0  0  0  0  0  0  0  0  0  0  0
   -5.0587    3.4172    1.9014 H   0  0  0  0  0  0  0  0  0  0  0  0
   -5.4130    0.9416    1.8243 H   0  0  0  0  0  0  0  0  0  0  0  0
   -4.0160   -3.5836    1.1174 H   0  0  0  0  0  0  0  0  0  0  0  0
   -5.1904   -2.7726    0.0396 H   0  0  0  0  0  0  0  0  0  0  0  0
   -3.8298   -3.6319   -0.7068 H   0  0  0  0  0  0  0  0  0  0  0  0
  1  2  1  0
  2  3  1  0
  3  4  1  0
  4  5  1  0
  5  6  1  0
  6  7  1  0
  7  8  2  0
  7  9  1  0
  9 10  2  0
 10 11  1  0
 10 12  1  0
 12 13  2  0
 13 14  1  0
 14 15  2  0
 15 16  1  0
 16 17  2  0
 17 18  1  0
 18 19  2  0
 18 20  1  0
 20 21  1  0
 20 22  1  0
 22 23  2  0
 22  9  1  0
 17 12  1  0
  1 24  1  0
  1 25  1  0
  1 26  1  0
  2 27  1  0
  2 28  1  0
  3 29  1  0
  3 30  1  0
  4 31  1  0
  4 32  1  0
  5 33  1  0
  5 34  1  0
 11 35  1  0
 13 36  1  0
 14 37  1  0
 15 38  1  0
 16 39  1  0
 21 40  1  0
 21 41  1  0
 21 42  1  0
M  END
$$$$
[H]c1nc([H])c(-c2nn3c(-c4c([H])c([H])c(O[C@]5([H])C([H])([H])N(C([H])([H])[H])C([H])([H])C(F)(F)C5([H])[H])c([H])c4[H])c([H])nc3c([H])c2[H])s1
     RDKit          3D

 49 53  0  0  0  0  0  0  0  0999 V2000
   -6.1587    0.4208    1.8917 C   0  0  0  0  0  0  0  0  0  0  0  0
   -5.6875   -0.8790    1.4879 N   0  0  0  0  0  0  0  0  0  0  0  0
   -6.3407   -1.4011    0.3255 C   0  0  0  0  0  0  0  0  0  0  0  0
   -5.7551   -0.7995   -0.9343 C   0  0  0  0  0  0  0  0  0  0  0  0
   -6.4232   -1.3116   -2.0312 F   0  0  0  0  0  0  0  0  0  0  0  0
   -5.8546    0.5749   -0.9306 F   0  0  0  0  0  0  0  0  0  0  0  0
   -4.3151   -1.1908   -0.9986 C   0  0  0  0  0  0  0  0  0  0  0  0
   -3.6023   -0.5994    0.2233 C   0  0  1  0  0  0  0  0  0  0  0  0
   -4.2750   -1.0226    1.5023 C   0  0  0  0  0  0  0  0  0  0  0  0
   -2.2794   -0.9982    0.1526 O   0  0  0  0  0  0  0  0  0  0  0  0
   -1.1550   -0.2231   -0.0085 C   0  0  0  0  0  0  0  0  0  0  0  0
   -1.1536    1.1402   -0.1321 C   0  0  0  0  0  0  0  0  0  0  0  0
    0.0311    1.8227   -0.2897 C   0  0  0  0  0  0  0  0  0  0  0  0
    1.2770    1.2047   -0.3343 C   0  0  0  0  0  0  0  0  0  0  0  0
    1.2450   -0.1614   -0.2079 C   0  0  0  0  0  0  0  0  0  0  0  0
    0.0485   -0.8767   -0.0464 C   0  0  0  0  0  0  0  0  0  0  0  0
    2.4972    1.9853   -0.5035 C   0  0  0  0  0  0  0  0  0  0  0  0
    2.4871    3.3723   -0.6284 C   0  0  0  0  0  0  0  0  0  0  0  0
    3.7487    3.8000   -0.7690 N   0  0  0  0  0  0  0  0  0  0  0  0
    4.5538    2.7023   -0.7346 C   0  0  0  0  0  0  0  0  0  0  0  0
    5.9218    2.5869   -0.8346 C   0  0  0  0  0  0  0  0  0  0  0  0
    6.4796    1.3330   -0.7661 C   0  0  0  0  0  0  0  0  0  0  0  0
    5.6633    0.2366   -0.6008 C   0  0  0  0  0  0  0  0  0  0  0  0
    4.3559    0.4059   -0.5106 N   0  0  0  0  0  0  0  0  0  0  0  0
    3.7790    1.5901   -0.5712 N   0  0  0  0  0  0  0  0  0  0  0  0
    6.2953   -1.0948   -0.5312 C   0  0  0  0  0  0  0  0  0  0  0  0
    5.6778   -2.3136   -0.3709 C   0  0  0  0  0  0  0  0  0  0  0  0
    6.4327   -3.3638   -0.3368 N   0  0  0  0  0  0  0  0  0  0  0  0
    7.7467   -3.2390   -0.4542 C   0  0  0  0  0  0  0  0  0  0  0  0
    7.9338   -1.5484   -0.6225 S   0  0  0  0  0  0  0  0  0  0  0  0
   -5.5390    1.2185    1.4547 H   0  0  0  0  0  0  0  0  0  0  0  0
   -7.1964    0.5488    1.5486 H   0  0  0  0  0  0  0  0  0  0  0  0
   -6.1652    0.4504    3.0078 H   0  0  0  0  0  0  0  0  0  0  0  0
   -6.2867   -2.4887    0.2693 H   0  0  0  0  0  0  0  0  0  0  0  0
   -7.4081   -1.0419    0.3649 H   0  0  0  0  0  0  0  0  0  0  0  0
   -4.1912   -2.2921   -0.9399 H   0  0  0  0  0  0  0  0  0  0  0  0
   -3.7863   -0.7789   -1.8820 H   0  0  0  0  0  0  0  0  0  0  0  0
   -3.7399    0.4969    0.1352 H   0  0  0  0  0  0  0  0  0  0  0  0
   -3.8581   -0.3921    2.3151 H   0  0  0  0  0  0  0  0  0  0  0  0
   -4.0371   -2.0787    1.7730 H   0  0  0  0  0  0  0  0  0  0  0  0
   -2.1020    1.6728   -0.1038 H   0  0  0  0  0  0  0  0  0  0  0  0
    0.0127    2.9161   -0.3873 H   0  0  0  0  0  0  0  0  0  0  0  0
    2.1861   -0.7152   -0.2336 H   0  0  0  0  0  0  0  0  0  0  0  0
    0.1363   -1.9662    0.0452 H   0  0  0  0  0  0  0  0  0  0  0  0
    1.6443    4.0356   -0.6204 H   0  0  0  0  0  0  0  0  0  0  0  0
    6.5184    3.4765   -0.9634 H   0  0  0  0  0  0  0  0  0  0  0  0
    7.5565    1.2137   -0.8422 H   0  0  0  0  0  0  0  0  0  0  0  0
    4.5675   -2.3877   -0.2745 H   0  0  0  0  0  0  0  0  0  0  0  0
    8.5138   -4.0404   -0.4436 H   0  0  0  0  0  0  0  0  0  0  0  0
  1  2  1  0
  2  3  1  0
  3  4  1  0
  4  5  1  0
  4  6  1  0
  4  7  1  0
  7  8  1  0
  8  9  1  0
  8 10  1  0
 10 11  1  0
 11 12  2  0
 12 13  1  0
 13 14  2  0
 14 15  1  0
 15 16  2  0
 14 17  1  0
 17 18  2  0
 18 19  1  0
 19 20  2  0
 20 21  1  0
 21 22  2  0
 22 23  1  0
 23 24  2  0
 24 25  1  0
 23 26  1  0
 26 27  2  0
 27 28  1  0
 28 29  2  0
 29 30  1  0
  9  2  1  0
 16 11  1  0
 25 17  1  0
 30 26  1  0
 25 20  1  0
  1 31  1  0
  1 32  1  0
  1 33  1  0
  3 34  1  0
  3 35  1  0
  7 36  1  0
  7 37  1  0
  8 38  1  6
  9 39  1  0
  9 40  1  0
 12 41  1  0
 13 42  1  0
 15 43  1  0
 16 44  1  0
 18 45  1  0
 21 46  1  0
 22 47  1  0
 27 48  1  0
 29 49  1  0
M  END
$$$$
[H]OC(=O)c1c([H])c([H])c(C(=O)N2C([H])([H])C([H])([H])C([H])(N([H])C(=O)N([H])C3([H])C([H])([H])C([H])([H])C([H])([H])C([H])([H])C3([H])[H])C([H])([H])C2([H])[H])c([H])c1[H]
     RDKit          3D

 54 56  0  0  0  0  0  0  0  0999 V2000
   -8.4066   -2.9535    0.1808 O   0  0  0  0  0  0  0  0  0  0  0  0
   -7.3740   -2.5339    1.0006 C   0  0  0  0  0  0  0  0  0  0  0  0
   -7.3166   -2.9868    2.1633 O   0  0  0  0  0  0  0  0  0  0  0  0
   -6.3554   -1.5918    0.5705 C   0  0  0  0  0  0  0  0  0  0  0  0
   -6.3960   -1.0831   -0.6937 C   0  0  0  0  0  0  0  0  0  0  0  0
   -5.4653   -0.1937   -1.1509 C   0  0  0  0  0  0  0  0  0  0  0  0
   -4.4048    0.2564   -0.3508 C   0  0  0  0  0  0  0  0  0  0  0  0
   -4.3734   -0.2586    0.9073 C   0  0  0  0  0  0  0  0  0  0  0  0
   -5.3341   -1.1760    1.3800 C   0  0  0  0  0  0  0  0  0  0  0  0
   -3.4491    1.1400   -0.9436 C   0  0  0  0  0  0  0  0  0  0  0  0
   -3.5099    1.2338   -2.2748 O   0  0  0  0  0  0  0  0  0  0  0  0
   -2.4802    1.9061   -0.3353 N   0  0  0  0  0  0  0  0  0  0  0  0
   -1.5774    2.6801   -1.2225 C   0  0  0  0  0  0  0  0  0  0  0  0
   -0.2977    3.0015   -0.5215 C   0  0  0  0  0  0  0  0  0  0  0  0
    0.1453    2.0571    0.5338 C   0  0  0  0  0  0  0  0  0  0  0  0
   -0.9191    1.3722    1.3173 C   0  0  0  0  0  0  0  0  0  0  0  0
   -2.2321    2.1203    1.0386 C   0  0  0  0  0  0  0  0  0  0  0  0
    0.9980    1.0133   -0.0333 N   0  0  0  0  0  0  0  0  0  0  0  0
    2.3422    0.9054    0.3942 C   0  0  0  0  0  0  0  0  0  0  0  0
    2.8296    1.6823    1.2509 O   0  0  0  0  0  0  0  0  0  0  0  0
    3.1901   -0.0951   -0.1378 N   0  0  0  0  0  0  0  0  0  0  0  0
    4.5729   -0.2473    0.2670 C   0  0  0  0  0  0  0  0  0  0  0  0
    5.5182   -0.0506   -0.8890 C   0  0  0  0  0  0  0  0  0  0  0  0
    5.7576   -1.3684   -1.5965 C   0  0  0  0  0  0  0  0  0  0  0  0
    6.5691   -2.2628   -0.6799 C   0  0  0  0  0  0  0  0  0  0  0  0
    6.1069   -2.1377    0.7563 C   0  0  0  0  0  0  0  0  0  0  0  0
    4.6894   -1.6531    0.8596 C   0  0  0  0  0  0  0  0  0  0  0  0
   -8.2222   -3.0547   -0.8108 H   0  0  0  0  0  0  0  0  0  0  0  0
   -7.1851   -1.3835   -1.3703 H   0  0  0  0  0  0  0  0  0  0  0  0
   -5.5592    0.1805   -2.1836 H   0  0  0  0  0  0  0  0  0  0  0  0
   -3.6160   -0.0523    1.6315 H   0  0  0  0  0  0  0  0  0  0  0  0
   -5.2975   -1.5759    2.3821 H   0  0  0  0  0  0  0  0  0  0  0  0
   -1.3649    2.0784   -2.1212 H   0  0  0  0  0  0  0  0  0  0  0  0
   -2.1560    3.5636   -1.5355 H   0  0  0  0  0  0  0  0  0  0  0  0
   -0.4139    4.0098   -0.0682 H   0  0  0  0  0  0  0  0  0  0  0  0
    0.5228    3.1272   -1.2876 H   0  0  0  0  0  0  0  0  0  0  0  0
    0.7607    2.6506    1.2785 H   0  0  0  0  0  0  0  0  0  0  0  0
   -0.6910    1.3436    2.3800 H   0  0  0  0  0  0  0  0  0  0  0  0
   -1.0906    0.3519    0.8899 H   0  0  0  0  0  0  0  0  0  0  0  0
   -1.8795    3.2273    1.1367 H   0  0  0  0  0  0  0  0  0  0  0  0
   -3.0110    1.9650    1.7634 H   0  0  0  0  0  0  0  0  0  0  0  0
    0.5676    0.3865   -0.7389 H   0  0  0  0  0  0  0  0  0  0  0  0
    2.8210   -0.7570   -0.8501 H   0  0  0  0  0  0  0  0  0  0  0  0
    4.8549    0.5185    1.0359 H   0  0  0  0  0  0  0  0  0  0  0  0
    5.0586    0.6938   -1.5764 H   0  0  0  0  0  0  0  0  0  0  0  0
    6.4934    0.2995   -0.4950 H   0  0  0  0  0  0  0  0  0  0  0  0
    4.8303   -1.8814   -1.8638 H   0  0  0  0  0  0  0  0  0  0  0  0
    6.3046   -1.1577   -2.5298 H   0  0  0  0  0  0  0  0  0  0  0  0
    6.5109   -3.3061   -1.0164 H   0  0  0  0  0  0  0  0  0  0  0  0
    7.6303   -1.9274   -0.6960 H   0  0  0  0  0  0  0  0  0  0  0  0
    6.7393   -1.4216    1.3381 H   0  0  0  0  0  0  0  0  0  0  0  0
    6.1617   -3.1408    1.2121 H   0  0  0  0  0  0  0  0  0  0  0  0
    4.4310   -1.5615    1.9207 H   0  0  0  0  0  0  0  0  0  0  0  0
    3.9721   -2.3487    0.3841 H   0  0  0  0  0  0  0  0  0  0  0  0
  1  2  1  0
  2  3  2  0
  2  4  1  0
  4  5  2  0
  5  6  1  0
  6  7  2  0
  7  8  1  0
  8  9  2  0
  7 10  1  0
 10 11  2  0
 10 12  1  0
 12 13  1  0
 13 14  1  0
 14 15  1  0
 15 16  1  0
 16 17  1  0
 15 18  1  0
 18 19  1  0
 19 20  2  0
 19 21  1  0
 21 22  1  0
 22 23  1  0
 23 24  1  0
 24 25  1  0
 25 26  1  0
 26 27  1  0
  9  4  1  0
 17 12  1  0
 27 22  1  0
  1 28  1  0
  5 29  1  0
  6 30  1  0
  8 31  1  0
  9 32  1  0
 13 33  1  0
 13 34  1  0
 14 35  1  0
 14 36  1  0
 15 37  1  0
 16 38  1  0
 16 39  1  0
 17 40  1  0
 17 41  1  0
 18 42  1  0
 21 43  1  0
 22 44  1  0
 23 45  1  0
 23 46  1  0
 24 47  1  0
 24 48  1  0
 25 49  1  0
 25 50  1  0
 26 51  1  0
 26 52  1  0
 27 53  1  0
 27 54  1  0
M  END
$$$$
[H]OC(=O)C([H])([H])[C@@]([H])(C(=O)O[H])N([H])C(=O)[C@@]1([H])N2C(=O)[C@@]([H])(N([H])C(=O)C([H])(C(=O)N([H])N([H])S(=O)(=O)c3c([H])c([H])c4c([H])c([H])c([H])c([H])c4c3[H])C([H])([H])C([H])=C([H])[H])C([H])([H])C([H])([H])[C@@]([H])(C(=O)N([H])C([H])([H])C(=O)N([H])c3c([H])c([H])c([H])c([H])c3[H])N2C([H])([H])C([H])([H])C1([H])[H]
     RDKit          3D

104108  0  0  0  0  0  0  0  0999 V2000
   -6.3094   -7.2445    2.8974 O   0  0  0  0  0  0  0  0  0  0  0  0
   -5.8787   -7.3847    1.5787 C   0  0  0  0  0  0  0  0  0  0  0  0
   -5.7261   -8.5540    1.1331 O   0  0  0  0  0  0  0  0  0  0  0  0
   -5.6291   -6.1907    0.7848 C   0  0  0  0  0  0  0  0  0  0  0  0
   -4.2489   -5.6302    0.8297 C   0  0  2  0  0  0  0  0  0  0  0  0
   -4.1865   -4.4308   -0.0220 N   0  0  0  0  0  0  0  0  0  0  0  0
   -3.6547   -3.2489    0.5319 C   0  0  0  0  0  0  0  0  0  0  0  0
   -3.2521   -3.2784    1.7181 O   0  0  0  0  0  0  0  0  0  0  0  0
   -3.5866   -2.0550   -0.2562 C   0  0  2  0  0  0  0  0  0  0  0  0
   -3.5288   -2.1933   -1.7653 C   0  0  0  0  0  0  0  0  0  0  0  0
   -4.0621   -0.8849   -2.3122 C   0  0  0  0  0  0  0  0  0  0  0  0
   -3.4065    0.3373   -1.7083 C   0  0  0  0  0  0  0  0  0  0  0  0
   -3.0917    0.2543   -0.3508 N   0  0  0  0  0  0  0  0  0  0  0  0
   -2.6456   -1.0186    0.0356 N   0  0  0  0  0  0  0  0  0  0  0  0
   -1.4132   -1.3688    0.5696 C   0  0  0  0  0  0  0  0  0  0  0  0
   -1.0106   -2.5802    0.3658 O   0  0  0  0  0  0  0  0  0  0  0  0
   -0.4427   -0.6190    1.3409 C   0  0  2  0  0  0  0  0  0  0  0  0
   -0.8936    0.7185    1.8364 C   0  0  0  0  0  0  0  0  0  0  0  0
   -1.3474    1.5722    0.6989 C   0  0  0  0  0  0  0  0  0  0  0  0
   -2.8505    1.2933    0.4910 C   0  0  1  0  0  0  0  0  0  0  0  0
   -3.4251    2.5957    0.1316 C   0  0  0  0  0  0  0  0  0  0  0  0
   -4.1996    3.1759    1.0001 O   0  0  0  0  0  0  0  0  0  0  0  0
   -3.2235    3.3138   -1.0636 N   0  0  0  0  0  0  0  0  0  0  0  0
   -3.8071    4.5731   -1.3263 C   0  0  0  0  0  0  0  0  0  0  0  0
   -5.2701    4.6877   -1.4265 C   0  0  0  0  0  0  0  0  0  0  0  0
   -5.6566    5.9099   -1.6217 O   0  0  0  0  0  0  0  0  0  0  0  0
   -6.1874    3.6387   -1.3342 N   0  0  0  0  0  0  0  0  0  0  0  0
   -7.5832    3.7489   -1.4382 C   0  0  0  0  0  0  0  0  0  0  0  0
   -8.2815    4.8158   -1.9339 C   0  0  0  0  0  0  0  0  0  0  0  0
   -9.6883    4.8109   -1.9704 C   0  0  0  0  0  0  0  0  0  0  0  0
  -10.4238    3.7496   -1.5169 C   0  0  0  0  0  0  0  0  0  0  0  0
   -9.7299    2.6747   -1.0190 C   0  0  0  0  0  0  0  0  0  0  0  0
   -8.3851    2.6776   -0.9832 C   0  0  0  0  0  0  0  0  0  0  0  0
    0.8150   -0.4758    0.6451 N   0  0  0  0  0  0  0  0  0  0  0  0
    2.0385   -0.5485    1.3568 C   0  0  0  0  0  0  0  0  0  0  0  0
    1.9377   -0.7096    2.6284 O   0  0  0  0  0  0  0  0  0  0  0  0
    3.3803   -0.4649    0.7496 C   0  0  0  0  0  0  0  0  0  0  0  0
    3.4579    0.5150   -0.3898 C   0  0  0  0  0  0  0  0  0  0  0  0
    3.1337    1.8760    0.0899 C   0  0  0  0  0  0  0  0  0  0  0  0
    2.1591    2.6099   -0.3829 C   0  0  0  0  0  0  0  0  0  0  0  0
    4.4009   -0.1038    1.7818 C   0  0  0  0  0  0  0  0  0  0  0  0
    4.0376    0.2499    2.9144 O   0  0  0  0  0  0  0  0  0  0  0  0
    5.7652   -0.1657    1.4530 N   0  0  0  0  0  0  0  0  0  0  0  0
    6.8128    0.1619    2.3286 N   0  0  0  0  0  0  0  0  0  0  0  0
    7.6019    1.6245    1.8415 S   0  0  0  0  0  0  0  0  0  0  0  0
    8.1388    2.3002    3.0796 O   0  0  0  0  0  0  0  0  0  0  0  0
    6.6897    2.5236    1.0543 O   0  0  0  0  0  0  0  0  0  0  0  0
    8.9848    1.1954    0.8626 C   0  0  0  0  0  0  0  0  0  0  0  0
    8.8940    1.0165   -0.4994 C   0  0  0  0  0  0  0  0  0  0  0  0
   10.0069    0.6884   -1.2426 C   0  0  0  0  0  0  0  0  0  0  0  0
   11.2702    0.5201   -0.6746 C   0  0  0  0  0  0  0  0  0  0  0  0
   12.3714    0.1923   -1.4309 C   0  0  0  0  0  0  0  0  0  0  0  0
   13.6233    0.0232   -0.8864 C   0  0  0  0  0  0  0  0  0  0  0  0
   13.7258    0.2000    0.4774 C   0  0  0  0  0  0  0  0  0  0  0  0
   12.6213    0.5319    1.2587 C   0  0  0  0  0  0  0  0  0  0  0  0
   11.3641    0.6986    0.6900 C   0  0  0  0  0  0  0  0  0  0  0  0
   10.2517    1.0264    1.4338 C   0  0  0  0  0  0  0  0  0  0  0  0
   -3.1899   -6.5918    0.3760 C   0  0  0  0  0  0  0  0  0  0  0  0
   -2.9828   -7.8266    0.9722 O   0  0  0  0  0  0  0  0  0  0  0  0
   -2.4135   -6.3178   -0.5960 O   0  0  0  0  0  0  0  0  0  0  0  0
   -6.1170   -6.3748    3.3983 H   0  0  0  0  0  0  0  0  0  0  0  0
   -6.4083   -5.4125    1.0321 H   0  0  0  0  0  0  0  0  0  0  0  0
   -5.8723   -6.4544   -0.2895 H   0  0  0  0  0  0  0  0  0  0  0  0
   -3.9885   -5.3999    1.8823 H   0  0  0  0  0  0  0  0  0  0  0  0
   -4.5540   -4.5583   -0.9874 H   0  0  0  0  0  0  0  0  0  0  0  0
   -4.6113   -1.5419   -0.0857 H   0  0  0  0  0  0  0  0  0  0  0  0
   -2.4784   -2.2723   -2.1407 H   0  0  0  0  0  0  0  0  0  0  0  0
   -4.0896   -3.0343   -2.1750 H   0  0  0  0  0  0  0  0  0  0  0  0
   -5.1355   -0.8524   -2.0484 H   0  0  0  0  0  0  0  0  0  0  0  0
   -3.9194   -0.8257   -3.4149 H   0  0  0  0  0  0  0  0  0  0  0  0
   -2.5388    0.6446   -2.3671 H   0  0  0  0  0  0  0  0  0  0  0  0
   -4.1756    1.1512   -1.8677 H   0  0  0  0  0  0  0  0  0  0  0  0
   -0.1896   -1.1937    2.2890 H   0  0  0  0  0  0  0  0  0  0  0  0
   -1.6768    0.5498    2.5971 H   0  0  0  0  0  0  0  0  0  0  0  0
    0.0092    1.1838    2.3430 H   0  0  0  0  0  0  0  0  0  0  0  0
   -1.2488    2.6272    0.9655 H   0  0  0  0  0  0  0  0  0  0  0  0
   -0.7849    1.3798   -0.2464 H   0  0  0  0  0  0  0  0  0  0  0  0
   -3.2232    1.0612    1.5450 H   0  0  0  0  0  0  0  0  0  0  0  0
   -2.5866    2.9033   -1.8099 H   0  0  0  0  0  0  0  0  0  0  0  0
   -3.4109    5.0376   -2.2858 H   0  0  0  0  0  0  0  0  0  0  0  0
   -3.4182    5.2866   -0.5408 H   0  0  0  0  0  0  0  0  0  0  0  0
   -5.8010    2.6611   -1.1867 H   0  0  0  0  0  0  0  0  0  0  0  0
   -7.7671    5.6680   -2.3145 H   0  0  0  0  0  0  0  0  0  0  0  0
  -10.1977    5.6765   -2.3679 H   0  0  0  0  0  0  0  0  0  0  0  0
  -11.5145    3.7567   -1.5524 H   0  0  0  0  0  0  0  0  0  0  0  0
  -10.3506    1.8368   -0.6689 H   0  0  0  0  0  0  0  0  0  0  0  0
   -7.8789    1.7976   -0.5761 H   0  0  0  0  0  0  0  0  0  0  0  0
    0.8756   -0.3153   -0.3889 H   0  0  0  0  0  0  0  0  0  0  0  0
    3.7197   -1.4611    0.3638 H   0  0  0  0  0  0  0  0  0  0  0  0
    2.7774    0.1850   -1.2143 H   0  0  0  0  0  0  0  0  0  0  0  0
    4.4805    0.5651   -0.8266 H   0  0  0  0  0  0  0  0  0  0  0  0
    3.7898    2.2509    0.9028 H   0  0  0  0  0  0  0  0  0  0  0  0
    1.5377    2.2038   -1.1818 H   0  0  0  0  0  0  0  0  0  0  0  0
    1.9817    3.5987    0.0113 H   0  0  0  0  0  0  0  0  0  0  0  0
    6.0567   -0.4833    0.4862 H   0  0  0  0  0  0  0  0  0  0  0  0
    6.5206    0.1892    3.3362 H   0  0  0  0  0  0  0  0  0  0  0  0
    7.9158    1.1456   -0.9596 H   0  0  0  0  0  0  0  0  0  0  0  0
    9.9482    0.5407   -2.3190 H   0  0  0  0  0  0  0  0  0  0  0  0
   12.2774    0.0558   -2.5122 H   0  0  0  0  0  0  0  0  0  0  0  0
   14.4786   -0.2358   -1.4948 H   0  0  0  0  0  0  0  0  0  0  0  0
   14.7008    0.0664    0.9180 H   0  0  0  0  0  0  0  0  0  0  0  0
   12.7083    0.6711    2.3187 H   0  0  0  0  0  0  0  0  0  0  0  0
   10.3202    1.1652    2.4841 H   0  0  0  0  0  0  0  0  0  0  0  0
   -2.0314   -8.0590    1.2629 H   0  0  0  0  0  0  0  0  0  0  0  0
  1  2  1  0
  2  3  2  0
  2  4  1  0
  4  5  1  0
  5  6  1  0
  6  7  1  0
  7  8  2  0
  7  9  1  0
  9 10  1  0
 10 11  1  0
 11 12  1  0
 12 13  1  0
 13 14  1  0
 14 15  1  0
 15 16  2  0
 15 17  1  0
 17 18  1  0
 18 19  1  0
 19 20  1  0
 20 21  1  0
 21 22  2  0
 21 23  1  0
 23 24  1  0
 24 25  1  0
 25 26  2  0
 25 27  1  0
 27 28  1  0
 28 29  2  0
 29 30  1  0
 30 31  2  0
 31 32  1  0
 32 33  2  0
 17 34  1  0
 34 35  1  0
 35 36  2  0
 35 37  1  0
 37 38  1  0
 38 39  1  0
 39 40  2  3
 37 41  1  0
 41 42  2  0
 41 43  1  0
 43 44  1  0
 44 45  1  0
 45 46  2  0
 45 47  2  0
 45 48  1  0
 48 49  2  0
 49 50  1  0
 50 51  2  0
 51 52  1  0
 52 53  2  0
 53 54  1  0
 54 55  2  0
 55 56  1  0
 56 57  2  0
  5 58  1  0
 58 59  1  0
 58 60  2  0
 14  9  1  0
 57 48  1  0
 20 13  1  0
 33 28  1  0
 56 51  1  0
  1 61  1  0
  4 62  1  0
  4 63  1  0
  5 64  1  1
  6 65  1  0
  9 66  1  6
 10 67  1  0
 10 68  1  0
 11 69  1  0
 11 70  1  0
 12 71  1  0
 12 72  1  0
 17 73  1  1
 18 74  1  0
 18 75  1  0
 19 76  1  0
 19 77  1  0
 20 78  1  1
 23 79  1  0
 24 80  1  0
 24 81  1  0
 27 82  1  0
 29 83  1  0
 30 84  1  0
 31 85  1  0
 32 86  1  0
 33 87  1  0
 34 88  1  0
 37 89  1  0
 38 90  1  0
 38 91  1  0
 39 92  1  0
 40 93  1  0
 40 94  1  0
 43 95  1  0
 44 96  1  0
 49 97  1  0
 50 98  1  0
 52 99  1  0
 53100  1  0
 54101  1  0
 55102  1  0
 57103  1  0
 59104  1  0
M  END
$$$$
[H]c1nc(Cl)c(N2C([H])([H])C([H])([H])N(C([H])([H])C([H])([H])C([H])([H])C(=O)c3c([H])c4sc([H])c([H])c4n3[H])C([H])([H])C2([H])[H])c([H])c1Cl
     RDKit          3D

 47 50  0  0  0  0  0  0  0  0999 V2000
    7.8147    1.1399    2.3942 Cl  0  0  0  0  0  0  0  0  0  0  0  0
    6.6865    1.5615    1.1280 C   0  0  0  0  0  0  0  0  0  0  0  0
    7.0311    2.5993    0.2658 C   0  0  0  0  0  0  0  0  0  0  0  0
    6.1684    2.9141   -0.6948 N   0  0  0  0  0  0  0  0  0  0  0  0
    4.9934    2.2628   -0.8467 C   0  0  0  0  0  0  0  0  0  0  0  0
    3.9688    2.7672   -2.1439 Cl  0  0  0  0  0  0  0  0  0  0  0  0
    4.6034    1.2362   -0.0290 C   0  0  0  0  0  0  0  0  0  0  0  0
    5.4777    0.8813    0.9829 C   0  0  0  0  0  0  0  0  0  0  0  0
    3.3797    0.5821   -0.2034 N   0  0  0  0  0  0  0  0  0  0  0  0
    2.0630    1.1452   -0.0707 C   0  0  0  0  0  0  0  0  0  0  0  0
    1.1101    0.1780   -0.7887 C   0  0  0  0  0  0  0  0  0  0  0  0
    0.9870   -0.9943    0.0105 N   0  0  0  0  0  0  0  0  0  0  0  0
   -0.0203   -1.9229   -0.3869 C   0  0  0  0  0  0  0  0  0  0  0  0
   -1.4326   -1.3552   -0.1696 C   0  0  0  0  0  0  0  0  0  0  0  0
   -2.3999   -2.3773   -0.6064 C   0  0  0  0  0  0  0  0  0  0  0  0
   -3.8133   -2.0894   -0.5012 C   0  0  0  0  0  0  0  0  0  0  0  0
   -4.5809   -3.0782   -0.9060 O   0  0  0  0  0  0  0  0  0  0  0  0
   -4.4927   -0.8969   -0.0253 C   0  0  0  0  0  0  0  0  0  0  0  0
   -3.9308    0.2581    0.4413 C   0  0  0  0  0  0  0  0  0  0  0  0
   -5.0137    1.1006    0.7740 C   0  0  0  0  0  0  0  0  0  0  0  0
   -5.5002    2.6184    1.3814 S   0  0  0  0  0  0  0  0  0  0  0  0
   -7.1921    2.4274    1.2963 C   0  0  0  0  0  0  0  0  0  0  0  0
   -7.3299    1.1656    0.7885 C   0  0  0  0  0  0  0  0  0  0  0  0
   -6.1883    0.4764    0.5172 C   0  0  0  0  0  0  0  0  0  0  0  0
   -5.8598   -0.7591    0.0228 N   0  0  0  0  0  0  0  0  0  0  0  0
    2.2902   -1.6065    0.1364 C   0  0  0  0  0  0  0  0  0  0  0  0
    3.3768   -0.8493   -0.5656 C   0  0  0  0  0  0  0  0  0  0  0  0
    7.9781    3.1287    0.3833 H   0  0  0  0  0  0  0  0  0  0  0  0
    5.2098    0.0780    1.6498 H   0  0  0  0  0  0  0  0  0  0  0  0
    1.9177    2.1159   -0.5798 H   0  0  0  0  0  0  0  0  0  0  0  0
    1.7071    1.1609    0.9811 H   0  0  0  0  0  0  0  0  0  0  0  0
    1.5263   -0.0443   -1.7951 H   0  0  0  0  0  0  0  0  0  0  0  0
    0.1650    0.7445   -0.9109 H   0  0  0  0  0  0  0  0  0  0  0  0
    0.0654   -2.8153    0.2721 H   0  0  0  0  0  0  0  0  0  0  0  0
    0.0460   -2.2691   -1.4305 H   0  0  0  0  0  0  0  0  0  0  0  0
   -1.4745   -0.4752   -0.8071 H   0  0  0  0  0  0  0  0  0  0  0  0
   -1.5600   -1.1947    0.9180 H   0  0  0  0  0  0  0  0  0  0  0  0
   -2.1619   -2.7500   -1.6575 H   0  0  0  0  0  0  0  0  0  0  0  0
   -2.2451   -3.3498   -0.0057 H   0  0  0  0  0  0  0  0  0  0  0  0
   -2.9392    0.6020    0.5836 H   0  0  0  0  0  0  0  0  0  0  0  0
   -8.0022    3.1284    1.5744 H   0  0  0  0  0  0  0  0  0  0  0  0
   -8.3648    0.7698    0.6243 H   0  0  0  0  0  0  0  0  0  0  0  0
   -6.4981   -1.5107   -0.2822 H   0  0  0  0  0  0  0  0  0  0  0  0
    2.5373   -1.8354    1.1930 H   0  0  0  0  0  0  0  0  0  0  0  0
    2.2102   -2.5939   -0.4078 H   0  0  0  0  0  0  0  0  0  0  0  0
    4.3514   -1.3039   -0.2488 H   0  0  0  0  0  0  0  0  0  0  0  0
    3.3355   -0.9710   -1.6635 H   0  0  0  0  0  0  0  0  0  0  0  0
  1  2  1  0
  2  3  2  0
  3  4  1  0
  4  5  2  0
  5  6  1  0
  5  7  1  0
  7  8  2  0
  7  9  1  0
  9 10  1  0
 10 11  1  0
 11 12  1  0
 12 13  1  0
 13 14  1  0
 14 15  1  0
 15 16  1  0
 16 17  2  0
 16 18  1  0
 18 19  2  0
 19 20  1  0
 20 21  1  0
 21 22  1  0
 22 23  2  0
 23 24  1  0
 24 25  1  0
 12 26  1  0
 26 27  1  0
  8  2  1  0
 27  9  1  0
 25 18  1  0
 24 20  2  0
  3 28  1  0
  8 29  1  0
 10 30  1  0
 10 31  1  0
 11 32  1  0
 11 33  1  0
 13 34  1  0
 13 35  1  0
 14 36  1  0
 14 37  1  0
 15 38  1  0
 15 39  1  0
 19 40  1  0
 22 41  1  0
 23 42  1  0
 25 43  1  0
 26 44  1  0
 26 45  1  0
 27 46  1  0
 27 47  1  0
M  END
$$$$
[H]c1c([H])c(C(=O)N([H])C([H])([H])C([H])([H])N([H])C(=O)C([H])([H])[H])c([H])c(C([H])([H])n2nc(-c3c([H])c([H])c(Br)c([H])c3[H])c3c([H])c([H])c([H])c([H])c3c2=O)c1[H]
     RDKit          3D

 57 60  0  0  0  0  0  0  0  0999 V2000
    7.7214   -3.6523   -1.6668 C   0  0  0  0  0  0  0  0  0  0  0  0
    6.7213   -2.5611   -1.5993 C   0  0  0  0  0  0  0  0  0  0  0  0
    6.1397   -2.2194   -2.6572 O   0  0  0  0  0  0  0  0  0  0  0  0
    6.3999   -1.8891   -0.3765 N   0  0  0  0  0  0  0  0  0  0  0  0
    5.4047   -0.8197   -0.3582 C   0  0  0  0  0  0  0  0  0  0  0  0
    5.2664   -0.3004    1.0338 C   0  0  0  0  0  0  0  0  0  0  0  0
    4.3158    0.7537    1.1954 N   0  0  0  0  0  0  0  0  0  0  0  0
    2.9524    0.6370    0.9052 C   0  0  0  0  0  0  0  0  0  0  0  0
    2.5175   -0.4779    0.4660 O   0  0  0  0  0  0  0  0  0  0  0  0
    1.9873    1.7182    1.0736 C   0  0  0  0  0  0  0  0  0  0  0  0
    2.1751    2.6867    2.0445 C   0  0  0  0  0  0  0  0  0  0  0  0
    1.2594    3.7103    2.1957 C   0  0  0  0  0  0  0  0  0  0  0  0
    0.1324    3.8299    1.4115 C   0  0  0  0  0  0  0  0  0  0  0  0
   -0.0606    2.8645    0.4379 C   0  0  0  0  0  0  0  0  0  0  0  0
   -1.2303    2.9261   -0.4337 C   0  0  0  0  0  0  0  0  0  0  0  0
   -2.3434    2.0886   -0.0393 N   0  0  0  0  0  0  0  0  0  0  0  0
   -2.4821    0.8644   -0.4853 N   0  0  0  0  0  0  0  0  0  0  0  0
   -3.4840    0.0048   -0.1949 C   0  0  0  0  0  0  0  0  0  0  0  0
   -3.4866   -1.3263   -0.7969 C   0  0  0  0  0  0  0  0  0  0  0  0
   -3.5677   -2.5131   -0.1115 C   0  0  0  0  0  0  0  0  0  0  0  0
   -3.5779   -3.7420   -0.7548 C   0  0  0  0  0  0  0  0  0  0  0  0
   -3.5030   -3.7876   -2.1394 C   0  0  0  0  0  0  0  0  0  0  0  0
   -3.5181   -5.4777   -3.0141 Br  0  0  0  0  0  0  0  0  0  0  0  0
   -3.4208   -2.5966   -2.8284 C   0  0  0  0  0  0  0  0  0  0  0  0
   -3.4112   -1.3770   -2.1933 C   0  0  0  0  0  0  0  0  0  0  0  0
   -4.4777    0.3973    0.6386 C   0  0  0  0  0  0  0  0  0  0  0  0
   -5.5404   -0.4005    0.9712 C   0  0  0  0  0  0  0  0  0  0  0  0
   -6.5408    0.0599    1.8210 C   0  0  0  0  0  0  0  0  0  0  0  0
   -6.4333    1.3318    2.3131 C   0  0  0  0  0  0  0  0  0  0  0  0
   -5.3693    2.1494    1.9865 C   0  0  0  0  0  0  0  0  0  0  0  0
   -4.3731    1.7037    1.1455 C   0  0  0  0  0  0  0  0  0  0  0  0
   -3.3080    2.5120    0.7917 C   0  0  0  0  0  0  0  0  0  0  0  0
   -3.2586    3.6864    1.2765 O   0  0  0  0  0  0  0  0  0  0  0  0
    0.8625    1.8333    0.2865 C   0  0  0  0  0  0  0  0  0  0  0  0
    8.5015   -3.4276   -2.4302 H   0  0  0  0  0  0  0  0  0  0  0  0
    8.2000   -3.8771   -0.7136 H   0  0  0  0  0  0  0  0  0  0  0  0
    7.1964   -4.5730   -2.0353 H   0  0  0  0  0  0  0  0  0  0  0  0
    6.9051   -2.2008    0.4769 H   0  0  0  0  0  0  0  0  0  0  0  0
    4.4656   -1.2622   -0.7774 H   0  0  0  0  0  0  0  0  0  0  0  0
    5.7167   -0.0336   -1.0873 H   0  0  0  0  0  0  0  0  0  0  0  0
    4.9442   -1.1612    1.6822 H   0  0  0  0  0  0  0  0  0  0  0  0
    6.2639   -0.0020    1.3906 H   0  0  0  0  0  0  0  0  0  0  0  0
    4.6511    1.6972    1.5553 H   0  0  0  0  0  0  0  0  0  0  0  0
    3.0577    2.6301    2.6903 H   0  0  0  0  0  0  0  0  0  0  0  0
    1.4132    4.4792    2.9714 H   0  0  0  0  0  0  0  0  0  0  0  0
   -0.5404    4.6577    1.5850 H   0  0  0  0  0  0  0  0  0  0  0  0
   -1.6098    3.9778   -0.4426 H   0  0  0  0  0  0  0  0  0  0  0  0
   -0.9209    2.7294   -1.4885 H   0  0  0  0  0  0  0  0  0  0  0  0
   -3.6187   -2.4992    0.9779 H   0  0  0  0  0  0  0  0  0  0  0  0
   -3.6441   -4.6293   -0.1492 H   0  0  0  0  0  0  0  0  0  0  0  0
   -3.3609   -2.5925   -3.9136 H   0  0  0  0  0  0  0  0  0  0  0  0
   -3.3442   -0.4624   -2.7731 H   0  0  0  0  0  0  0  0  0  0  0  0
   -5.6547   -1.3937    0.5759 H   0  0  0  0  0  0  0  0  0  0  0  0
   -7.3591   -0.6085    2.0546 H   0  0  0  0  0  0  0  0  0  0  0  0
   -7.1997    1.7054    2.9748 H   0  0  0  0  0  0  0  0  0  0  0  0
   -5.2711    3.1743    2.3737 H   0  0  0  0  0  0  0  0  0  0  0  0
    0.7396    1.0548   -0.4726 H   0  0  0  0  0  0  0  0  0  0  0  0
  1  2  1  0
  2  3  2  0
  2  4  1  0
  4  5  1  0
  5  6  1  0
  6  7  1  0
  7  8  1  0
  8  9  2  0
  8 10  1  0
 10 11  2  0
 11 12  1  0
 12 13  2  0
 13 14  1  0
 14 15  1  0
 15 16  1  0
 16 17  1  0
 17 18  2  0
 18 19  1  0
 19 20  2  0
 20 21  1  0
 21 22  2  0
 22 23  1  0
 22 24  1  0
 24 25  2  0
 18 26  1  0
 26 27  2  0
 27 28  1  0
 28 29  2  0
 29 30  1  0
 30 31  2  0
 31 32  1  0
 32 33  2  0
 14 34  2  0
 34 10  1  0
 32 16  1  0
 25 19  1  0
 31 26  1  0
  1 35  1  0
  1 36  1  0
  1 37  1  0
  4 38  1  0
  5 39  1  0
  5 40  1  0
  6 41  1  0
  6 42  1  0
  7 43  1  0
 11 44  1  0
 12 45  1  0
 13 46  1  0
 15 47  1  0
 15 48  1  0
 20 49  1  0
 21 50  1  0
 24 51  1  0
 25 52  1  0
 27 53  1  0
 28 54  1  0
 29 55  1  0
 30 56  1  0
 34 57  1  0
M  END
$$$$
[H]c1nc(N2C([H])([H])C([H])([H])[C@@]3([H])C([H])([H])N([H])[C@@]3([H])C2([H])[H])c([H])c(C([H])([H])[H])c1[H]
     RDKit          3D

 32 34  0  0  0  0  0  0  0  0999 V2000
   -4.3459    0.3594   -1.6382 C   0  0  0  0  0  0  0  0  0  0  0  0
   -3.4174   -0.0369   -0.5439 C   0  0  0  0  0  0  0  0  0  0  0  0
   -3.9177   -0.5444    0.6353 C   0  0  0  0  0  0  0  0  0  0  0  0
   -3.0165   -0.8919    1.6064 C   0  0  0  0  0  0  0  0  0  0  0  0
   -1.6899   -0.7528    1.4398 N   0  0  0  0  0  0  0  0  0  0  0  0
   -1.1502   -0.2612    0.3049 C   0  0  0  0  0  0  0  0  0  0  0  0
   -2.0561    0.0917   -0.6801 C   0  0  0  0  0  0  0  0  0  0  0  0
    0.2550   -0.1119    0.1229 N   0  0  0  0  0  0  0  0  0  0  0  0
    0.7775    0.4264   -1.1183 C   0  0  0  0  0  0  0  0  0  0  0  0
    2.1595    0.9790   -0.8332 C   0  0  0  0  0  0  0  0  0  0  0  0
    3.0185   -0.1767   -0.3907 C   0  0  1  0  0  0  0  0  0  0  0  0
    4.1732    0.3209    0.4531 C   0  0  0  0  0  0  0  0  0  0  0  0
    3.4327   -0.0237    1.6376 N   0  0  0  0  0  0  0  0  0  0  0  0
    2.4978   -0.8379    0.8482 C   0  0  1  0  0  0  0  0  0  0  0  0
    1.1040   -0.5121    1.2055 C   0  0  0  0  0  0  0  0  0  0  0  0
   -3.7678    0.7323   -2.5023 H   0  0  0  0  0  0  0  0  0  0  0  0
   -4.8974   -0.5600   -1.9363 H   0  0  0  0  0  0  0  0  0  0  0  0
   -5.0029    1.1675   -1.2816 H   0  0  0  0  0  0  0  0  0  0  0  0
   -4.9846   -0.6492    0.7520 H   0  0  0  0  0  0  0  0  0  0  0  0
   -3.3857   -1.2907    2.5361 H   0  0  0  0  0  0  0  0  0  0  0  0
   -1.6998    0.4932   -1.6184 H   0  0  0  0  0  0  0  0  0  0  0  0
    0.1768    1.2801   -1.4987 H   0  0  0  0  0  0  0  0  0  0  0  0
    0.7929   -0.3323   -1.9202 H   0  0  0  0  0  0  0  0  0  0  0  0
    2.0723    1.6836    0.0093 H   0  0  0  0  0  0  0  0  0  0  0  0
    2.5861    1.3979   -1.7457 H   0  0  0  0  0  0  0  0  0  0  0  0
    3.3343   -0.8716   -1.1719 H   0  0  0  0  0  0  0  0  0  0  0  0
    4.3887    1.4001    0.3550 H   0  0  0  0  0  0  0  0  0  0  0  0
    5.1185   -0.2475    0.3154 H   0  0  0  0  0  0  0  0  0  0  0  0
    2.9710    0.8272    2.0513 H   0  0  0  0  0  0  0  0  0  0  0  0
    2.8003   -1.8937    0.9311 H   0  0  0  0  0  0  0  0  0  0  0  0
    1.0318    0.2644    2.0108 H   0  0  0  0  0  0  0  0  0  0  0  0
    0.6412   -1.4292    1.6649 H   0  0  0  0  0  0  0  0  0  0  0  0
  1  2  1  0
  2  3  2  0
  3  4  1  0
  4  5  2  0
  5  6  1  0
  6  7  2  0
  6  8  1  0
  8  9  1  0
  9 10  1  0
 10 11  1  0
 11 12  1  0
 12 13  1  0
 13 14  1  0
 14 15  1  0
  7  2  1  0
 15  8  1  0
 14 11  1  0
  1 16  1  0
  1 17  1  0
  1 18  1  0
  3 19  1  0
  4 20  1  0
  7 21  1  0
  9 22  1  0
  9 23  1  0
 10 24  1  0
 10 25  1  0
 11 26  1  6
 12 27  1  0
 12 28  1  0
 13 29  1  0
 14 30  1  6
 15 31  1  0
 15 32  1  0
M  END
$$$$
[H]C(=O)N1C([H])([H])C([H])([H])N(C([H])([H])c2c([H])c([H])c(N([H])C(=O)c3c([H])nn(-c4nc(N([H])c5c([H])c([H])c([H])c([H])c5[H])c(C#N)c([H])c4[H])c3C([H])([H])[H])c([H])c2[H])C([H])([H])C1([H])[H]
     RDKit          3D

 67 71  0  0  0  0  0  0  0  0999 V2000
   -2.1954   -1.2730    0.0799 C   0  0  0  0  0  0  0  0  0  0  0  0
   -2.3465   -0.5275    1.3601 C   0  0  0  0  0  0  0  0  0  0  0  0
   -1.4106    0.2952    1.9177 C   0  0  0  0  0  0  0  0  0  0  0  0
   -2.0089    0.7732    3.0835 C   0  0  0  0  0  0  0  0  0  0  0  0
   -3.2194    0.2344    3.1603 N   0  0  0  0  0  0  0  0  0  0  0  0
   -3.4622   -0.5516    2.1474 N   0  0  0  0  0  0  0  0  0  0  0  0
   -4.6073   -1.3211    1.8221 C   0  0  0  0  0  0  0  0  0  0  0  0
   -4.6238   -2.6777    2.0435 C   0  0  0  0  0  0  0  0  0  0  0  0
   -5.7559   -3.3759    1.7092 C   0  0  0  0  0  0  0  0  0  0  0  0
   -6.8266   -2.7013    1.1686 C   0  0  0  0  0  0  0  0  0  0  0  0
   -7.9888   -3.4594    0.8308 C   0  0  0  0  0  0  0  0  0  0  0  0
   -8.9290   -4.0576    0.5710 N   0  0  0  0  0  0  0  0  0  0  0  0
   -6.8224   -1.3195    0.9381 C   0  0  0  0  0  0  0  0  0  0  0  0
   -7.9575   -0.7195    0.4012 N   0  0  0  0  0  0  0  0  0  0  0  0
   -8.2085    0.6181    0.0637 C   0  0  0  0  0  0  0  0  0  0  0  0
   -9.5056    1.0075   -0.1566 C   0  0  0  0  0  0  0  0  0  0  0  0
   -9.8220    2.2916   -0.5020 C   0  0  0  0  0  0  0  0  0  0  0  0
   -8.8269    3.2348   -0.6378 C   0  0  0  0  0  0  0  0  0  0  0  0
   -7.5282    2.8417   -0.4167 C   0  0  0  0  0  0  0  0  0  0  0  0
   -7.2015    1.5278   -0.0632 C   0  0  0  0  0  0  0  0  0  0  0  0
   -5.6793   -0.7143    1.2925 N   0  0  0  0  0  0  0  0  0  0  0  0
   -0.0674    0.6753    1.5519 C   0  0  0  0  0  0  0  0  0  0  0  0
    0.4289    1.6992    2.1332 O   0  0  0  0  0  0  0  0  0  0  0  0
    0.7399    0.0260    0.6224 N   0  0  0  0  0  0  0  0  0  0  0  0
    2.0602    0.3751    0.2444 C   0  0  0  0  0  0  0  0  0  0  0  0
    2.5476   -0.0834   -0.9975 C   0  0  0  0  0  0  0  0  0  0  0  0
    3.8209    0.2018   -1.4240 C   0  0  0  0  0  0  0  0  0  0  0  0
    4.6920    0.9495   -0.6655 C   0  0  0  0  0  0  0  0  0  0  0  0
    6.0637    1.2697   -1.1222 C   0  0  0  0  0  0  0  0  0  0  0  0
    6.5751    0.4368   -2.1447 N   0  0  0  0  0  0  0  0  0  0  0  0
    6.7408   -0.9251   -1.7497 C   0  0  0  0  0  0  0  0  0  0  0  0
    8.0707   -1.1964   -1.1227 C   0  0  0  0  0  0  0  0  0  0  0  0
    8.9170   -0.0421   -0.9714 N   0  0  0  0  0  0  0  0  0  0  0  0
    9.7522    0.0733    0.1551 C   0  0  0  0  0  0  0  0  0  0  0  0
   10.4886    1.0746    0.2903 O   0  0  0  0  0  0  0  0  0  0  0  0
    8.9392    1.0340   -1.9664 C   0  0  0  0  0  0  0  0  0  0  0  0
    7.7101    0.9125   -2.8599 C   0  0  0  0  0  0  0  0  0  0  0  0
    4.2291    1.4011    0.5468 C   0  0  0  0  0  0  0  0  0  0  0  0
    2.9284    1.1154    0.9940 C   0  0  0  0  0  0  0  0  0  0  0  0
   -3.2129   -1.6132   -0.2599 H   0  0  0  0  0  0  0  0  0  0  0  0
   -1.8412   -0.6237   -0.7498 H   0  0  0  0  0  0  0  0  0  0  0  0
   -1.6152   -2.1907    0.2245 H   0  0  0  0  0  0  0  0  0  0  0  0
   -1.5930    1.4618    3.8222 H   0  0  0  0  0  0  0  0  0  0  0  0
   -3.7772   -3.1782    2.4659 H   0  0  0  0  0  0  0  0  0  0  0  0
   -5.7625   -4.4436    1.8861 H   0  0  0  0  0  0  0  0  0  0  0  0
   -8.7785   -1.3852    0.2043 H   0  0  0  0  0  0  0  0  0  0  0  0
  -10.3353    0.2997   -0.0618 H   0  0  0  0  0  0  0  0  0  0  0  0
  -10.8676    2.6001   -0.6780 H   0  0  0  0  0  0  0  0  0  0  0  0
   -9.1254    4.2367   -0.9115 H   0  0  0  0  0  0  0  0  0  0  0  0
   -6.7349    3.5722   -0.5196 H   0  0  0  0  0  0  0  0  0  0  0  0
   -6.1432    1.3143    0.0803 H   0  0  0  0  0  0  0  0  0  0  0  0
    0.3173   -0.8394    0.1576 H   0  0  0  0  0  0  0  0  0  0  0  0
    1.8649   -0.6680   -1.5893 H   0  0  0  0  0  0  0  0  0  0  0  0
    4.1814   -0.1602   -2.3859 H   0  0  0  0  0  0  0  0  0  0  0  0
    6.0819    2.3511   -1.3813 H   0  0  0  0  0  0  0  0  0  0  0  0
    6.7689    1.1940   -0.2433 H   0  0  0  0  0  0  0  0  0  0  0  0
    6.6264   -1.6103   -2.6339 H   0  0  0  0  0  0  0  0  0  0  0  0
    5.9688   -1.2537   -1.0131 H   0  0  0  0  0  0  0  0  0  0  0  0
    7.9620   -1.6644   -0.1014 H   0  0  0  0  0  0  0  0  0  0  0  0
    8.6086   -2.0025   -1.7108 H   0  0  0  0  0  0  0  0  0  0  0  0
    9.8034   -0.6735    0.9431 H   0  0  0  0  0  0  0  0  0  0  0  0
    8.9723    1.9927   -1.4268 H   0  0  0  0  0  0  0  0  0  0  0  0
    9.8274    0.9024   -2.6131 H   0  0  0  0  0  0  0  0  0  0  0  0
    7.9601    0.1774   -3.6514 H   0  0  0  0  0  0  0  0  0  0  0  0
    7.5557    1.9158   -3.3058 H   0  0  0  0  0  0  0  0  0  0  0  0
    4.9052    1.9925    1.1566 H   0  0  0  0  0  0  0  0  0  0  0  0
    2.6720    1.5038    1.9684 H   0  0  0  0  0  0  0  0  0  0  0  0
  1  2  1  0
  2  3  2  0
  3  4  1  0
  4  5  2  0
  5  6  1  0
  6  7  1  0
  7  8  2  0
  8  9  1  0
  9 10  2  0
 10 11  1  0
 11 12  3  0
 10 13  1  0
 13 14  1  0
 14 15  1  0
 15 16  2  0
 16 17  1  0
 17 18  2  0
 18 19  1  0
 19 20  2  0
 13 21  2  0
  3 22  1  0
 22 23  2  0
 22 24  1  0
 24 25  1  0
 25 26  2  0
 26 27  1  0
 27 28  2  0
 28 29  1  0
 29 30  1  0
 30 31  1  0
 31 32  1  0
 32 33  1  0
 33 34  1  0
 34 35  2  0
 33 36  1  0
 36 37  1  0
 28 38  1  0
 38 39  2  0
  6  2  1  0
 21  7  1  0
 39 25  1  0
 20 15  1  0
 37 30  1  0
  1 40  1  0
  1 41  1  0
  1 42  1  0
  4 43  1  0
  8 44  1  0
  9 45  1  0
 14 46  1  0
 16 47  1  0
 17 48  1  0
 18 49  1  0
 19 50  1  0
 20 51  1  0
 24 52  1  0
 26 53  1  0
 27 54  1  0
 29 55  1  0
 29 56  1  0
 31 57  1  0
 31 58  1  0
 32 59  1  0
 32 60  1  0
 34 61  1  0
 36 62  1  0
 36 63  1  0
 37 64  1  0
 37 65  1  0
 38 66  1  0
 39 67  1  0
M  END
$$$$
[H]c1c(N2C([H])([H])C([H])([H])C([H])([H])C([H])([H])C2([H])[H])nnc(P(=O)(OC([H])([H])C(F)(F)F)c2c([H])c([H])c(C([H])([H])C([H])([H])[H])c([H])c2[H])c1C([H])([H])[H]
     RDKit          3D

 54 56  0  0  0  0  0  0  0  0999 V2000
    5.9863    3.1164   -1.7263 C   0  0  0  0  0  0  0  0  0  0  0  0
    5.5603    3.1742   -0.2923 C   0  0  0  0  0  0  0  0  0  0  0  0
    4.6250    2.0503   -0.0141 C   0  0  0  0  0  0  0  0  0  0  0  0
    3.2697    2.2412   -0.1935 C   0  0  0  0  0  0  0  0  0  0  0  0
    2.3522    1.2166    0.0544 C   0  0  0  0  0  0  0  0  0  0  0  0
    2.7815   -0.0152    0.4861 C   0  0  0  0  0  0  0  0  0  0  0  0
    4.1352   -0.1968    0.6624 C   0  0  0  0  0  0  0  0  0  0  0  0
    5.0516    0.8184    0.4174 C   0  0  0  0  0  0  0  0  0  0  0  0
    1.6169   -1.3334    0.8066 P   0  0  0  0  0  0  0  0  0  0  0  0
    1.8544   -1.8240    2.2379 O   0  0  0  0  0  0  0  0  0  0  0  0
    1.8539   -2.6479   -0.2061 O   0  0  0  0  0  0  0  0  0  0  0  0
    2.1488   -3.8212    0.4939 C   0  0  0  0  0  0  0  0  0  0  0  0
    2.3316   -4.9040   -0.5766 C   0  0  0  0  0  0  0  0  0  0  0  0
    3.3629   -4.5572   -1.4255 F   0  0  0  0  0  0  0  0  0  0  0  0
    1.1777   -4.9521   -1.3029 F   0  0  0  0  0  0  0  0  0  0  0  0
    2.6445   -6.1086    0.0211 F   0  0  0  0  0  0  0  0  0  0  0  0
   -0.0444   -0.7290    0.7254 C   0  0  0  0  0  0  0  0  0  0  0  0
   -0.6408   -0.2525    1.8327 N   0  0  0  0  0  0  0  0  0  0  0  0
   -1.8799    0.2061    1.8049 N   0  0  0  0  0  0  0  0  0  0  0  0
   -2.6199    0.2239    0.6663 C   0  0  0  0  0  0  0  0  0  0  0  0
   -2.0107   -0.2641   -0.4706 C   0  0  0  0  0  0  0  0  0  0  0  0
   -0.7137   -0.7531   -0.4808 C   0  0  0  0  0  0  0  0  0  0  0  0
   -0.0838   -1.2745   -1.7298 C   0  0  0  0  0  0  0  0  0  0  0  0
   -3.9486    0.7237    0.6702 N   0  0  0  0  0  0  0  0  0  0  0  0
   -4.5243    1.2230    1.8917 C   0  0  0  0  0  0  0  0  0  0  0  0
   -5.8808    0.6451    2.2017 C   0  0  0  0  0  0  0  0  0  0  0  0
   -6.6048    0.1447    1.0000 C   0  0  0  0  0  0  0  0  0  0  0  0
   -6.2060    0.8563   -0.2732 C   0  0  0  0  0  0  0  0  0  0  0  0
   -4.7196    0.7334   -0.5384 C   0  0  0  0  0  0  0  0  0  0  0  0
    5.1270    2.7628   -2.3374 H   0  0  0  0  0  0  0  0  0  0  0  0
    6.8505    2.4593   -1.8211 H   0  0  0  0  0  0  0  0  0  0  0  0
    6.2298    4.1322   -2.1000 H   0  0  0  0  0  0  0  0  0  0  0  0
    6.4331    3.1639    0.3919 H   0  0  0  0  0  0  0  0  0  0  0  0
    4.9989    4.1137   -0.1333 H   0  0  0  0  0  0  0  0  0  0  0  0
    2.9068    3.2201   -0.5384 H   0  0  0  0  0  0  0  0  0  0  0  0
    1.3271    1.4417   -0.1070 H   0  0  0  0  0  0  0  0  0  0  0  0
    4.4985   -1.1431    0.9970 H   0  0  0  0  0  0  0  0  0  0  0  0
    6.1129    0.6421    0.5664 H   0  0  0  0  0  0  0  0  0  0  0  0
    1.2528   -4.0474    1.1052 H   0  0  0  0  0  0  0  0  0  0  0  0
    3.0129   -3.7362    1.1516 H   0  0  0  0  0  0  0  0  0  0  0  0
   -2.5630   -0.2684   -1.3980 H   0  0  0  0  0  0  0  0  0  0  0  0
   -0.2667   -2.3427   -1.8857 H   0  0  0  0  0  0  0  0  0  0  0  0
    0.9815   -0.9857   -1.8036 H   0  0  0  0  0  0  0  0  0  0  0  0
   -0.6081   -0.7437   -2.5689 H   0  0  0  0  0  0  0  0  0  0  0  0
   -3.8426    1.0629    2.7640 H   0  0  0  0  0  0  0  0  0  0  0  0
   -4.6643    2.3422    1.8539 H   0  0  0  0  0  0  0  0  0  0  0  0
   -6.5266    1.3557    2.7569 H   0  0  0  0  0  0  0  0  0  0  0  0
   -5.7403   -0.2259    2.8935 H   0  0  0  0  0  0  0  0  0  0  0  0
   -6.5008   -0.9667    0.8797 H   0  0  0  0  0  0  0  0  0  0  0  0
   -7.6907    0.3191    1.1407 H   0  0  0  0  0  0  0  0  0  0  0  0
   -6.4427    1.9331   -0.1571 H   0  0  0  0  0  0  0  0  0  0  0  0
   -6.8228    0.4559   -1.0847 H   0  0  0  0  0  0  0  0  0  0  0  0
   -4.3613    1.5415   -1.2056 H   0  0  0  0  0  0  0  0  0  0  0  0
   -4.5770   -0.2259   -1.0875 H   0  0  0  0  0  0  0  0  0  0  0  0
  1  2  1  0
  2  3  1  0
  3  4  2  0
  4  5  1  0
  5  6  2  0
  6  7  1  0
  7  8  2  0
  6  9  1  0
  9 10  2  0
  9 11  1  0
 11 12  1  0
 12 13  1  0
 13 14  1  0
 13 15  1  0
 13 16  1  0
  9 17  1  0
 17 18  2  0
 18 19  1  0
 19 20  2  0
 20 21  1  0
 21 22  2  0
 22 23  1  0
 20 24  1  0
 24 25  1  0
 25 26  1  0
 26 27  1  0
 27 28  1  0
 28 29  1  0
  8  3  1  0
 22 17  1  0
 29 24  1  0
  1 30  1  0
  1 31  1  0
  1 32  1  0
  2 33  1  0
  2 34  1  0
  4 35  1  0
  5 36  1  0
  7 37  1  0
  8 38  1  0
 12 39  1  0
 12 40  1  0
 21 41  1  0
 23 42  1  0
 23 43  1  0
 23 44  1  0
 25 45  1  0
 25 46  1  0
 26 47  1  0
 26 48  1  0
 27 49  1  0
 27 50  1  0
 28 51  1  0
 28 52  1  0
 29 53  1  0
 29 54  1  0
M  END
$$$$
[H]c1nc(N([H])[H])c2c(-c3c([H])c([H])c(Oc4c([H])c([H])c([H])c([H])c4[H])c([H])c3[H])c([H])n([C@]3([H])C([H])([H])[C@@]([H])(C([H])([H])N4C([H])([H])C([H])([H])N([H])C([H])([H])C4([H])[H])C3([H])[H])c2n1
     RDKit          3D

 64 69  0  0  0  0  0  0  0  0999 V2000
    2.8208   -2.4634   -3.4220 N   0  0  0  0  0  0  0  0  0  0  0  0
    1.4256   -2.5414   -3.1752 C   0  0  0  0  0  0  0  0  0  0  0  0
    0.6067   -3.2935   -3.9048 N   0  0  0  0  0  0  0  0  0  0  0  0
   -0.7144   -3.3620   -3.7050 C   0  0  0  0  0  0  0  0  0  0  0  0
   -1.2145   -2.6230   -2.7098 N   0  0  0  0  0  0  0  0  0  0  0  0
   -0.4846   -1.8379   -1.9212 C   0  0  0  0  0  0  0  0  0  0  0  0
   -0.7627   -1.0132   -0.8861 N   0  0  0  0  0  0  0  0  0  0  0  0
    0.3527   -0.4395   -0.4418 C   0  0  0  0  0  0  0  0  0  0  0  0
    1.4275   -0.9080   -1.2218 C   0  0  0  0  0  0  0  0  0  0  0  0
    2.8227   -0.5542   -1.0249 C   0  0  0  0  0  0  0  0  0  0  0  0
    3.2801    0.7414   -1.1859 C   0  0  0  0  0  0  0  0  0  0  0  0
    4.5974    1.0373   -0.9426 C   0  0  0  0  0  0  0  0  0  0  0  0
    5.4936    0.0703   -0.5367 C   0  0  0  0  0  0  0  0  0  0  0  0
    6.8210    0.4182   -0.3018 O   0  0  0  0  0  0  0  0  0  0  0  0
    7.1656    0.8215    0.9798 C   0  0  0  0  0  0  0  0  0  0  0  0
    7.5833   -0.0787    1.9344 C   0  0  0  0  0  0  0  0  0  0  0  0
    7.9183    0.3616    3.2011 C   0  0  0  0  0  0  0  0  0  0  0  0
    7.8363    1.6910    3.5099 C   0  0  0  0  0  0  0  0  0  0  0  0
    7.4167    2.6149    2.5591 C   0  0  0  0  0  0  0  0  0  0  0  0
    7.0892    2.1404    1.3020 C   0  0  0  0  0  0  0  0  0  0  0  0
    5.0465   -1.2205   -0.3742 C   0  0  0  0  0  0  0  0  0  0  0  0
    3.7313   -1.5044   -0.6193 C   0  0  0  0  0  0  0  0  0  0  0  0
    0.9030   -1.7760   -2.1415 C   0  0  0  0  0  0  0  0  0  0  0  0
   -2.0953   -0.8105   -0.3660 C   0  0  2  0  0  0  0  0  0  0  0  0
   -2.9992   -0.0764   -1.3598 C   0  0  0  0  0  0  0  0  0  0  0  0
   -3.5015    0.7528   -0.1811 C   0  0  1  0  0  0  0  0  0  0  0  0
   -4.6957    0.0474    0.4096 C   0  0  0  0  0  0  0  0  0  0  0  0
   -5.2080    0.7643    1.5213 N   0  0  0  0  0  0  0  0  0  0  0  0
   -6.2961   -0.0421    2.0826 C   0  0  0  0  0  0  0  0  0  0  0  0
   -7.4742   -0.0656    1.1629 C   0  0  0  0  0  0  0  0  0  0  0  0
   -7.9309    1.2907    0.9433 N   0  0  0  0  0  0  0  0  0  0  0  0
   -6.8702    2.0442    0.2631 C   0  0  0  0  0  0  0  0  0  0  0  0
   -5.6682    2.0745    1.1876 C   0  0  0  0  0  0  0  0  0  0  0  0
   -2.2183    0.3784    0.5599 C   0  0  0  0  0  0  0  0  0  0  0  0
    3.4267   -3.2870   -3.2548 H   0  0  0  0  0  0  0  0  0  0  0  0
    3.2831   -1.5963   -3.7729 H   0  0  0  0  0  0  0  0  0  0  0  0
   -1.3608   -4.0003   -4.3337 H   0  0  0  0  0  0  0  0  0  0  0  0
    0.5094    0.2682    0.3623 H   0  0  0  0  0  0  0  0  0  0  0  0
    2.5718    1.4994   -1.5054 H   0  0  0  0  0  0  0  0  0  0  0  0
    4.9076    2.0777   -1.0854 H   0  0  0  0  0  0  0  0  0  0  0  0
    7.6592   -1.1352    1.7236 H   0  0  0  0  0  0  0  0  0  0  0  0
    8.2467   -0.3220    3.9613 H   0  0  0  0  0  0  0  0  0  0  0  0
    8.0975    2.0567    4.5058 H   0  0  0  0  0  0  0  0  0  0  0  0
    7.3521    3.6526    2.7980 H   0  0  0  0  0  0  0  0  0  0  0  0
    6.7631    2.8642    0.5656 H   0  0  0  0  0  0  0  0  0  0  0  0
    5.7443   -2.0027   -0.0524 H   0  0  0  0  0  0  0  0  0  0  0  0
    3.3981   -2.5465   -0.4726 H   0  0  0  0  0  0  0  0  0  0  0  0
   -2.5725   -1.7386    0.0118 H   0  0  0  0  0  0  0  0  0  0  0  0
   -3.7547   -0.7117   -1.8293 H   0  0  0  0  0  0  0  0  0  0  0  0
   -2.4135    0.5241   -2.0857 H   0  0  0  0  0  0  0  0  0  0  0  0
   -3.5930    1.8075   -0.4282 H   0  0  0  0  0  0  0  0  0  0  0  0
   -5.4850   -0.0801   -0.3922 H   0  0  0  0  0  0  0  0  0  0  0  0
   -4.4384   -1.0031    0.7034 H   0  0  0  0  0  0  0  0  0  0  0  0
   -5.8731   -1.0853    2.1384 H   0  0  0  0  0  0  0  0  0  0  0  0
   -6.6138    0.3469    3.0512 H   0  0  0  0  0  0  0  0  0  0  0  0
   -8.2996   -0.5943    1.7293 H   0  0  0  0  0  0  0  0  0  0  0  0
   -7.3192   -0.6263    0.2191 H   0  0  0  0  0  0  0  0  0  0  0  0
   -7.9823    1.7284    1.9108 H   0  0  0  0  0  0  0  0  0  0  0  0
   -6.5904    1.6083   -0.6979 H   0  0  0  0  0  0  0  0  0  0  0  0
   -7.2247    3.0912    0.1748 H   0  0  0  0  0  0  0  0  0  0  0  0
   -5.9495    2.6077    2.1429 H   0  0  0  0  0  0  0  0  0  0  0  0
   -4.8710    2.6670    0.7398 H   0  0  0  0  0  0  0  0  0  0  0  0
   -1.4445    1.1501    0.3551 H   0  0  0  0  0  0  0  0  0  0  0  0
   -2.3779    0.1409    1.6226 H   0  0  0  0  0  0  0  0  0  0  0  0
  1  2  1  0
  2  3  2  0
  3  4  1  0
  4  5  2  0
  5  6  1  0
  6  7  1  0
  7  8  1  0
  8  9  2  0
  9 10  1  0
 10 11  2  0
 11 12  1  0
 12 13  2  0
 13 14  1  0
 14 15  1  0
 15 16  2  0
 16 17  1  0
 17 18  2  0
 18 19  1  0
 19 20  2  0
 13 21  1  0
 21 22  2  0
  9 23  1  0
  7 24  1  0
 24 25  1  0
 25 26  1  0
 26 27  1  0
 27 28  1  0
 28 29  1  0
 29 30  1  0
 30 31  1  0
 31 32  1  0
 32 33  1  0
 26 34  1  0
 23  2  1  0
 34 24  1  0
 23  6  2  0
 33 28  1  0
 22 10  1  0
 20 15  1  0
  1 35  1  0
  1 36  1  0
  4 37  1  0
  8 38  1  0
 11 39  1  0
 12 40  1  0
 16 41  1  0
 17 42  1  0
 18 43  1  0
 19 44  1  0
 20 45  1  0
 21 46  1  0
 22 47  1  0
 24 48  1  1
 25 49  1  0
 25 50  1  0
 26 51  1  6
 27 52  1  0
 27 53  1  0
 29 54  1  0
 29 55  1  0
 30 56  1  0
 30 57  1  0
 31 58  1  0
 32 59  1  0
 32 60  1  0
 33 61  1  0
 33 62  1  0
 34 63  1  0
 34 64  1  0
M  END
$$$$
[H]c1nc(N2C([H])([H])C([H])([H])c3nc(N4C([H])([H])C([H])([H])C([H])([H])C([H])([H])C([H])([H])C4([H])[H])nc(N([H])c4c([H])c([H])c(C(C([H])([H])[H])(C([H])([H])[H])C([H])([H])[H])c([H])c4[H])c3C([H])([H])C2([H])[H])c(C(F)(F)F)c([H])c1[H]
     RDKit          3D

 76 80  0  0  0  0  0  0  0  0999 V2000
    7.0037    0.1994    1.5705 C   0  0  0  0  0  0  0  0  0  0  0  0
    6.5558    0.1583    0.1143 C   0  0  0  0  0  0  0  0  0  0  0  0
    6.9622    1.4658   -0.5469 C   0  0  0  0  0  0  0  0  0  0  0  0
    7.3363   -0.9706   -0.5566 C   0  0  0  0  0  0  0  0  0  0  0  0
    5.1128   -0.1033    0.0139 C   0  0  0  0  0  0  0  0  0  0  0  0
    4.2152    0.8251   -0.4663 C   0  0  0  0  0  0  0  0  0  0  0  0
    2.8404    0.5337   -0.5739 C   0  0  0  0  0  0  0  0  0  0  0  0
    2.3434   -0.6826   -0.2063 C   0  0  0  0  0  0  0  0  0  0  0  0
    0.9982   -1.0566   -0.3104 N   0  0  0  0  0  0  0  0  0  0  0  0
   -0.1062   -0.2234   -0.3907 C   0  0  0  0  0  0  0  0  0  0  0  0
   -0.1144    1.1092   -0.1172 N   0  0  0  0  0  0  0  0  0  0  0  0
   -1.1858    1.8878   -0.0638 C   0  0  0  0  0  0  0  0  0  0  0  0
   -2.3966    1.3048   -0.3038 N   0  0  0  0  0  0  0  0  0  0  0  0
   -2.5222    0.0035   -0.5884 C   0  0  0  0  0  0  0  0  0  0  0  0
   -3.8970   -0.4485   -0.8117 C   0  0  0  0  0  0  0  0  0  0  0  0
   -4.3739   -1.7464   -0.3708 C   0  0  0  0  0  0  0  0  0  0  0  0
   -3.5074   -2.8034    0.0450 N   0  0  0  0  0  0  0  0  0  0  0  0
   -2.0823   -2.9391    0.1004 C   0  0  0  0  0  0  0  0  0  0  0  0
   -1.4167   -2.1875   -1.0347 C   0  0  0  0  0  0  0  0  0  0  0  0
   -1.3573   -0.7595   -0.6327 C   0  0  0  0  0  0  0  0  0  0  0  0
   -4.2067   -3.9299    0.5354 C   0  0  0  0  0  0  0  0  0  0  0  0
   -4.6855   -3.7279    1.8226 N   0  0  0  0  0  0  0  0  0  0  0  0
   -5.4306   -4.6779    2.3939 C   0  0  0  0  0  0  0  0  0  0  0  0
   -5.7286   -5.8417    1.7319 C   0  0  0  0  0  0  0  0  0  0  0  0
   -5.2471   -6.0213    0.4626 C   0  0  0  0  0  0  0  0  0  0  0  0
   -4.4554   -5.0410   -0.1772 C   0  0  0  0  0  0  0  0  0  0  0  0
   -3.9275   -5.3370   -1.4807 C   0  0  0  0  0  0  0  0  0  0  0  0
   -4.1612   -4.3915   -2.4466 F   0  0  0  0  0  0  0  0  0  0  0  0
   -4.7356   -6.4491   -1.9626 F   0  0  0  0  0  0  0  0  0  0  0  0
   -2.6609   -5.8896   -1.5479 F   0  0  0  0  0  0  0  0  0  0  0  0
   -1.1495    3.2952    0.2208 N   0  0  0  0  0  0  0  0  0  0  0  0
   -2.4202    3.9742    0.1147 C   0  0  0  0  0  0  0  0  0  0  0  0
   -2.4029    5.0408   -0.9209 C   0  0  0  0  0  0  0  0  0  0  0  0
   -1.3043    6.0251   -0.6929 C   0  0  0  0  0  0  0  0  0  0  0  0
   -0.9902    6.1388    0.7642 C   0  0  0  0  0  0  0  0  0  0  0  0
    0.1114    5.2228    1.1400 C   0  0  0  0  0  0  0  0  0  0  0  0
    0.1186    3.8597    0.5762 C   0  0  0  0  0  0  0  0  0  0  0  0
    3.2800   -1.6154    0.2829 C   0  0  0  0  0  0  0  0  0  0  0  0
    4.6136   -1.3283    0.3863 C   0  0  0  0  0  0  0  0  0  0  0  0
    7.2420   -0.8153    1.9448 H   0  0  0  0  0  0  0  0  0  0  0  0
    7.9115    0.8524    1.6820 H   0  0  0  0  0  0  0  0  0  0  0  0
    6.1564    0.5718    2.2181 H   0  0  0  0  0  0  0  0  0  0  0  0
    6.4566    2.2860   -0.0306 H   0  0  0  0  0  0  0  0  0  0  0  0
    8.0568    1.6066   -0.3985 H   0  0  0  0  0  0  0  0  0  0  0  0
    6.6930    1.4595   -1.6098 H   0  0  0  0  0  0  0  0  0  0  0  0
    8.4297   -0.7305   -0.4381 H   0  0  0  0  0  0  0  0  0  0  0  0
    7.1861   -1.9135   -0.0112 H   0  0  0  0  0  0  0  0  0  0  0  0
    7.1354   -1.0490   -1.6282 H   0  0  0  0  0  0  0  0  0  0  0  0
    4.5978    1.7957   -0.7666 H   0  0  0  0  0  0  0  0  0  0  0  0
    2.2088    1.3207   -0.9702 H   0  0  0  0  0  0  0  0  0  0  0  0
    0.7713   -2.1124   -0.2855 H   0  0  0  0  0  0  0  0  0  0  0  0
   -4.2246   -0.2592   -1.8727 H   0  0  0  0  0  0  0  0  0  0  0  0
   -4.5221    0.3308   -0.2474 H   0  0  0  0  0  0  0  0  0  0  0  0
   -5.2158   -1.6233    0.4204 H   0  0  0  0  0  0  0  0  0  0  0  0
   -5.0184   -2.1674   -1.2175 H   0  0  0  0  0  0  0  0  0  0  0  0
   -1.7361   -2.4369    1.0485 H   0  0  0  0  0  0  0  0  0  0  0  0
   -1.6801   -3.9465    0.1223 H   0  0  0  0  0  0  0  0  0  0  0  0
   -2.0940   -2.3107   -1.9394 H   0  0  0  0  0  0  0  0  0  0  0  0
   -0.4896   -2.5990   -1.3042 H   0  0  0  0  0  0  0  0  0  0  0  0
   -5.7927   -4.5175    3.4099 H   0  0  0  0  0  0  0  0  0  0  0  0
   -6.3561   -6.6188    2.2079 H   0  0  0  0  0  0  0  0  0  0  0  0
   -5.4723   -6.9328   -0.0719 H   0  0  0  0  0  0  0  0  0  0  0  0
   -2.7914    4.3901    1.0825 H   0  0  0  0  0  0  0  0  0  0  0  0
   -3.2341    3.2125   -0.1367 H   0  0  0  0  0  0  0  0  0  0  0  0
   -2.2494    4.5277   -1.9213 H   0  0  0  0  0  0  0  0  0  0  0  0
   -3.3585    5.6355   -0.9719 H   0  0  0  0  0  0  0  0  0  0  0  0
   -1.6194    7.0500   -1.0215 H   0  0  0  0  0  0  0  0  0  0  0  0
   -0.4384    5.7182   -1.3009 H   0  0  0  0  0  0  0  0  0  0  0  0
   -0.5726    7.1978    0.9778 H   0  0  0  0  0  0  0  0  0  0  0  0
   -1.8377    6.0307    1.4431 H   0  0  0  0  0  0  0  0  0  0  0  0
    1.1285    5.6950    0.9837 H   0  0  0  0  0  0  0  0  0  0  0  0
    0.0750    5.1278    2.2677 H   0  0  0  0  0  0  0  0  0  0  0  0
    0.6866    3.1475    1.2628 H   0  0  0  0  0  0  0  0  0  0  0  0
    0.7641    3.8617   -0.3565 H   0  0  0  0  0  0  0  0  0  0  0  0
    2.8616   -2.5837    0.5770 H   0  0  0  0  0  0  0  0  0  0  0  0
    5.3168   -2.0739    0.7795 H   0  0  0  0  0  0  0  0  0  0  0  0
  1  2  1  0
  2  3  1  0
  2  4  1  0
  2  5  1  0
  5  6  2  0
  6  7  1  0
  7  8  2  0
  8  9  1  0
  9 10  1  0
 10 11  2  0
 11 12  1  0
 12 13  2  0
 13 14  1  0
 14 15  1  0
 15 16  1  0
 16 17  1  0
 17 18  1  0
 18 19  1  0
 19 20  1  0
 17 21  1  0
 21 22  2  0
 22 23  1  0
 23 24  2  0
 24 25  1  0
 25 26  2  0
 26 27  1  0
 27 28  1  0
 27 29  1  0
 27 30  1  0
 12 31  1  0
 31 32  1  0
 32 33  1  0
 33 34  1  0
 34 35  1  0
 35 36  1  0
 36 37  1  0
  8 38  1  0
 38 39  2  0
 39  5  1  0
 20 10  1  0
 26 21  1  0
 37 31  1  0
 20 14  2  0
  1 40  1  0
  1 41  1  0
  1 42  1  0
  3 43  1  0
  3 44  1  0
  3 45  1  0
  4 46  1  0
  4 47  1  0
  4 48  1  0
  6 49  1  0
  7 50  1  0
  9 51  1  0
 15 52  1  0
 15 53  1  0
 16 54  1  0
 16 55  1  0
 18 56  1  0
 18 57  1  0
 19 58  1  0
 19 59  1  0
 23 60  1  0
 24 61  1  0
 25 62  1  0
 32 63  1  0
 32 64  1  0
 33 65  1  0
 33 66  1  0
 34 67  1  0
 34 68  1  0
 35 69  1  0
 35 70  1  0
 36 71  1  0
 36 72  1  0
 37 73  1  0
 37 74  1  0
 38 75  1  0
 39 76  1  0
M  END
$$$$
[H]c1nc2c([H])c(OC([H])([H])[H])c(OC([H])([H])[H])c([H])c2c(Oc2c([H])c([H])c(N([H])C(=S)N([H])C(=O)c3c(Cl)c([H])c([H])c([H])c3Cl)c([H])c2[H])c1[H]
     RDKit          3D

 54 57  0  0  0  0  0  0  0  0999 V2000
   -9.3676   -0.6473    1.5217 C   0  0  0  0  0  0  0  0  0  0  0  0
   -8.6208   -0.3812    0.3532 O   0  0  0  0  0  0  0  0  0  0  0  0
   -7.2327   -0.3492    0.3454 C   0  0  0  0  0  0  0  0  0  0  0  0
   -6.5732   -0.5908    1.5430 C   0  0  0  0  0  0  0  0  0  0  0  0
   -5.1966   -0.5791    1.6289 C   0  0  0  0  0  0  0  0  0  0  0  0
   -4.5333   -0.8139    2.7952 N   0  0  0  0  0  0  0  0  0  0  0  0
   -3.1962   -0.7902    2.8211 C   0  0  0  0  0  0  0  0  0  0  0  0
   -2.4645   -0.5321    1.6890 C   0  0  0  0  0  0  0  0  0  0  0  0
   -3.0928   -0.2838    0.4631 C   0  0  0  0  0  0  0  0  0  0  0  0
   -2.3853   -0.0196   -0.6999 O   0  0  0  0  0  0  0  0  0  0  0  0
   -1.0013   -0.0077   -0.6134 C   0  0  0  0  0  0  0  0  0  0  0  0
   -0.2180   -1.1217   -0.8052 C   0  0  0  0  0  0  0  0  0  0  0  0
    1.1489   -1.0340   -0.7029 C   0  0  0  0  0  0  0  0  0  0  0  0
    1.8159    0.1655   -0.4041 C   0  0  0  0  0  0  0  0  0  0  0  0
    3.2288    0.1214   -0.3570 N   0  0  0  0  0  0  0  0  0  0  0  0
    4.0830    0.8901    0.4355 C   0  0  0  0  0  0  0  0  0  0  0  0
    3.4191    1.9643    1.5414 S   0  0  0  0  0  0  0  0  0  0  0  0
    5.4869    0.8474    0.4541 N   0  0  0  0  0  0  0  0  0  0  0  0
    6.3611    0.0806   -0.3196 C   0  0  0  0  0  0  0  0  0  0  0  0
    5.8781   -0.7081   -1.2110 O   0  0  0  0  0  0  0  0  0  0  0  0
    7.8030    0.0527   -0.2585 C   0  0  0  0  0  0  0  0  0  0  0  0
    8.5238    0.3444    0.8437 C   0  0  0  0  0  0  0  0  0  0  0  0
    7.7860    0.6472    2.4095 Cl  0  0  0  0  0  0  0  0  0  0  0  0
    9.9313    0.3723    0.8591 C   0  0  0  0  0  0  0  0  0  0  0  0
   10.6001    0.0890   -0.2934 C   0  0  0  0  0  0  0  0  0  0  0  0
    9.9063   -0.2175   -1.4464 C   0  0  0  0  0  0  0  0  0  0  0  0
    8.5435   -0.2339   -1.4240 C   0  0  0  0  0  0  0  0  0  0  0  0
    7.6408   -0.6169   -2.8624 Cl  0  0  0  0  0  0  0  0  0  0  0  0
    1.0186    1.2553   -0.2196 C   0  0  0  0  0  0  0  0  0  0  0  0
   -0.3545    1.1696   -0.3214 C   0  0  0  0  0  0  0  0  0  0  0  0
   -4.4717   -0.3164    0.4747 C   0  0  0  0  0  0  0  0  0  0  0  0
   -5.1229   -0.0712   -0.7387 C   0  0  0  0  0  0  0  0  0  0  0  0
   -6.5050   -0.0901   -0.7919 C   0  0  0  0  0  0  0  0  0  0  0  0
   -7.1477    0.1534   -1.9961 O   0  0  0  0  0  0  0  0  0  0  0  0
   -6.4574    0.4249   -3.1941 C   0  0  0  0  0  0  0  0  0  0  0  0
  -10.4318   -0.5078    1.3004 H   0  0  0  0  0  0  0  0  0  0  0  0
   -9.1487   -1.6808    1.8992 H   0  0  0  0  0  0  0  0  0  0  0  0
   -9.0039    0.0308    2.3351 H   0  0  0  0  0  0  0  0  0  0  0  0
   -7.1136   -0.7963    2.4490 H   0  0  0  0  0  0  0  0  0  0  0  0
   -2.6905   -0.9769    3.7463 H   0  0  0  0  0  0  0  0  0  0  0  0
   -1.3737   -0.5035    1.6667 H   0  0  0  0  0  0  0  0  0  0  0  0
   -0.6782   -2.0680   -1.0368 H   0  0  0  0  0  0  0  0  0  0  0  0
    1.7452   -1.9214   -0.8571 H   0  0  0  0  0  0  0  0  0  0  0  0
    3.6677   -0.5927   -1.0165 H   0  0  0  0  0  0  0  0  0  0  0  0
    5.9500    1.5358    1.1429 H   0  0  0  0  0  0  0  0  0  0  0  0
   10.4639    0.6170    1.7800 H   0  0  0  0  0  0  0  0  0  0  0  0
   11.6968    0.1063   -0.2987 H   0  0  0  0  0  0  0  0  0  0  0  0
   10.4668   -0.4417   -2.3568 H   0  0  0  0  0  0  0  0  0  0  0  0
    1.4284    2.2158   -0.0107 H   0  0  0  0  0  0  0  0  0  0  0  0
   -0.9647    2.0620   -0.1668 H   0  0  0  0  0  0  0  0  0  0  0  0
   -4.5174    0.1300   -1.6188 H   0  0  0  0  0  0  0  0  0  0  0  0
   -7.0970    0.8367   -3.9749 H   0  0  0  0  0  0  0  0  0  0  0  0
   -5.6373    1.1525   -2.9802 H   0  0  0  0  0  0  0  0  0  0  0  0
   -5.9959   -0.5456   -3.5212 H   0  0  0  0  0  0  0  0  0  0  0  0
  1  2  1  0
  2  3  1  0
  3  4  2  0
  4  5  1  0
  5  6  2  0
  6  7  1  0
  7  8  2  0
  8  9  1  0
  9 10  1  0
 10 11  1  0
 11 12  2  0
 12 13  1  0
 13 14  2  0
 14 15  1  0
 15 16  1  0
 16 17  2  0
 16 18  1  0
 18 19  1  0
 19 20  2  0
 19 21  1  0
 21 22  2  0
 22 23  1  0
 22 24  1  0
 24 25  2  0
 25 26  1  0
 26 27  2  0
 27 28  1  0
 14 29  1  0
 29 30  2  0
  9 31  2  0
 31 32  1  0
 32 33  2  0
 33 34  1  0
 34 35  1  0
 33  3  1  0
 31  5  1  0
 30 11  1  0
 27 21  1  0
  1 36  1  0
  1 37  1  0
  1 38  1  0
  4 39  1  0
  7 40  1  0
  8 41  1  0
 12 42  1  0
 13 43  1  0
 15 44  1  0
 18 45  1  0
 24 46  1  0
 25 47  1  0
 26 48  1  0
 29 49  1  0
 30 50  1  0
 32 51  1  0
 35 52  1  0
 35 53  1  0
 35 54  1  0
M  END
$$$$
[H]c1c([H])c([H])c(C([H])([H])OC(=O)N2C([H])([H])[C@]([H])(C([H])([H])F)[C@@]3(O[C@]([H])(C([H])([H])[H])C([H])([H])OC3([H])[H])C2([H])[H])c(Br)c1[H]
     RDKit          3D

 45 47  0  0  0  0  0  0  0  0999 V2000
   -5.2464   -0.7858    1.6994 C   0  0  0  0  0  0  0  0  0  0  0  0
   -3.9082   -0.0794    1.4394 C   0  0  2  0  0  0  0  0  0  0  0  0
   -4.2212    1.2963    0.9505 C   0  0  0  0  0  0  0  0  0  0  0  0
   -3.6342    1.6293   -0.2376 O   0  0  0  0  0  0  0  0  0  0  0  0
   -2.3251    1.2216   -0.2920 C   0  0  0  0  0  0  0  0  0  0  0  0
   -2.1978   -0.2518   -0.1230 C   0  0  2  0  0  0  0  0  0  0  0  0
   -0.8289   -0.4981    0.5337 C   0  0  0  0  0  0  0  0  0  0  0  0
    0.0449   -0.1749   -0.6084 N   0  0  0  0  0  0  0  0  0  0  0  0
   -0.6330   -0.5374   -1.8368 C   0  0  0  0  0  0  0  0  0  0  0  0
   -1.9838   -1.0110   -1.4127 C   0  0  2  0  0  0  0  0  0  0  0  0
   -3.0542   -0.8513   -2.4200 C   0  0  0  0  0  0  0  0  0  0  0  0
   -3.2850    0.4120   -2.8569 F   0  0  0  0  0  0  0  0  0  0  0  0
    1.3410    0.3969   -0.5574 C   0  0  0  0  0  0  0  0  0  0  0  0
    1.9476    0.6072   -1.6324 O   0  0  0  0  0  0  0  0  0  0  0  0
    1.9714    0.7357    0.6256 O   0  0  0  0  0  0  0  0  0  0  0  0
    3.2361    1.2823    0.7797 C   0  0  0  0  0  0  0  0  0  0  0  0
    4.3812    0.4832    0.3584 C   0  0  0  0  0  0  0  0  0  0  0  0
    4.2935   -0.7896   -0.0965 C   0  0  0  0  0  0  0  0  0  0  0  0
    5.4235   -1.4837   -0.4451 C   0  0  0  0  0  0  0  0  0  0  0  0
    6.6808   -0.9317   -0.3509 C   0  0  0  0  0  0  0  0  0  0  0  0
    6.7698    0.3737    0.1169 C   0  0  0  0  0  0  0  0  0  0  0  0
    5.6518    1.0695    0.4646 C   0  0  0  0  0  0  0  0  0  0  0  0
    5.8212    2.8615    1.1029 Br  0  0  0  0  0  0  0  0  0  0  0  0
   -3.2092   -0.8593    0.5649 O   0  0  0  0  0  0  0  0  0  0  0  0
   -5.4961   -1.4428    0.8203 H   0  0  0  0  0  0  0  0  0  0  0  0
   -6.0698   -0.0474    1.7616 H   0  0  0  0  0  0  0  0  0  0  0  0
   -5.1859   -1.4474    2.5845 H   0  0  0  0  0  0  0  0  0  0  0  0
   -3.4298    0.0007    2.4466 H   0  0  0  0  0  0  0  0  0  0  0  0
   -3.9192    2.0727    1.7113 H   0  0  0  0  0  0  0  0  0  0  0  0
   -5.3303    1.4673    0.8280 H   0  0  0  0  0  0  0  0  0  0  0  0
   -1.8045    1.5341   -1.2055 H   0  0  0  0  0  0  0  0  0  0  0  0
   -1.7750    1.7244    0.5571 H   0  0  0  0  0  0  0  0  0  0  0  0
   -0.6583    0.1707    1.3841 H   0  0  0  0  0  0  0  0  0  0  0  0
   -0.6716   -1.5687    0.7449 H   0  0  0  0  0  0  0  0  0  0  0  0
   -0.6881    0.3097   -2.5460 H   0  0  0  0  0  0  0  0  0  0  0  0
   -0.1030   -1.3980   -2.3401 H   0  0  0  0  0  0  0  0  0  0  0  0
   -1.8898   -2.0820   -1.1319 H   0  0  0  0  0  0  0  0  0  0  0  0
   -2.7663   -1.4619   -3.3108 H   0  0  0  0  0  0  0  0  0  0  0  0
   -3.9751   -1.3519   -2.0237 H   0  0  0  0  0  0  0  0  0  0  0  0
    3.3330    2.2885    0.2777 H   0  0  0  0  0  0  0  0  0  0  0  0
    3.3729    1.4964    1.8677 H   0  0  0  0  0  0  0  0  0  0  0  0
    3.3583   -1.2942   -0.1792 H   0  0  0  0  0  0  0  0  0  0  0  0
    5.3381   -2.5007   -0.8080 H   0  0  0  0  0  0  0  0  0  0  0  0
    7.5909   -1.4487   -0.6165 H   0  0  0  0  0  0  0  0  0  0  0  0
    7.7338    0.8640    0.2144 H   0  0  0  0  0  0  0  0  0  0  0  0
  1  2  1  0
  2  3  1  0
  3  4  1  0
  4  5  1  0
  5  6  1  0
  6  7  1  0
  7  8  1  0
  8  9  1  0
  9 10  1  0
 10 11  1  0
 11 12  1  0
  8 13  1  0
 13 14  2  0
 13 15  1  0
 15 16  1  0
 16 17  1  0
 17 18  2  0
 18 19  1  0
 19 20  2  0
 20 21  1  0
 21 22  2  0
 22 23  1  0
  6 24  1  1
 24  2  1  0
 10  6  1  0
 22 17  1  0
  1 25  1  0
  1 26  1  0
  1 27  1  0
  2 28  1  1
  3 29  1  0
  3 30  1  0
  5 31  1  0
  5 32  1  0
  7 33  1  0
  7 34  1  0
  9 35  1  0
  9 36  1  0
 10 37  1  1
 11 38  1  0
 11 39  1  0
 16 40  1  0
 16 41  1  0
 18 42  1  0
 19 43  1  0
 20 44  1  0
 21 45  1  0
M  END
$$$$
[H]N=C(N([H])[H])N([H])C([H])([H])C([H])([H])C([H])([H])[C@@]([H])(C(=O)N([H])[C@]([H])(C(=O)N1C([H])([H])C([H])([H])C([H])([H])[C@@]1([H])C(=O)N([H])[C@]([H])(C(=O)N([H])[C@]([H])(C(=O)O[H])C([H])([H])c1c([H])n([H])c2c([H])c([H])c([H])c([H])c12)C([H])([H])C([H])([H])C([H])([H])N([H])C(=N[H])N([H])[H])C([H])([H])C([H])([H])C([H])([H])N([H])C(=N[H])N([H])[H])N([H])[H]
     RDKit          3D

110112  0  0  0  0  0  0  0  0999 V2000
   -4.1827    5.4554   -3.0202 N   0  0  0  0  0  0  0  0  0  0  0  0
   -5.2451    4.5284   -2.6958 C   0  0  0  0  0  0  0  0  0  0  0  0
   -6.3301    5.0237   -2.2036 N   0  0  0  0  0  0  0  0  0  0  0  0
   -5.0981    3.1472   -2.9059 N   0  0  0  0  0  0  0  0  0  0  0  0
   -4.8068    2.2489   -1.7777 C   0  0  0  0  0  0  0  0  0  0  0  0
   -3.4524    2.5464   -1.2607 C   0  0  0  0  0  0  0  0  0  0  0  0
   -2.9274    1.7360   -0.1465 C   0  0  0  0  0  0  0  0  0  0  0  0
   -2.7630    0.2718   -0.3787 C   0  0  2  0  0  0  0  0  0  0  0  0
   -1.8936   -0.0172   -1.4797 N   0  0  0  0  0  0  0  0  0  0  0  0
   -0.5840   -0.5955   -1.3880 C   0  0  0  0  0  0  0  0  0  0  0  0
   -0.2440   -0.8686   -0.2134 O   0  0  0  0  0  0  0  0  0  0  0  0
    0.1503   -0.7767   -2.5969 C   0  0  2  0  0  0  0  0  0  0  0  0
   -0.1035   -2.2295   -3.0906 C   0  0  0  0  0  0  0  0  0  0  0  0
    0.5935   -2.0717   -4.4431 C   0  0  0  0  0  0  0  0  0  0  0  0
    1.8220   -1.2540   -4.0517 C   0  0  0  0  0  0  0  0  0  0  0  0
    1.5665   -0.7674   -2.6712 N   0  0  0  0  0  0  0  0  0  0  0  0
    2.6225   -0.4326   -1.8132 C   0  0  0  0  0  0  0  0  0  0  0  0
    2.2744   -0.1104   -0.5952 O   0  0  0  0  0  0  0  0  0  0  0  0
    4.0634   -0.3596   -2.0203 C   0  0  2  0  0  0  0  0  0  0  0  0
    4.8300   -1.4328   -2.6542 C   0  0  0  0  0  0  0  0  0  0  0  0
    4.7862   -2.7863   -1.9908 C   0  0  0  0  0  0  0  0  0  0  0  0
    5.6683   -3.7304   -2.7704 C   0  0  0  0  0  0  0  0  0  0  0  0
    5.2398   -3.8974   -4.1330 N   0  0  0  0  0  0  0  0  0  0  0  0
    5.9281   -4.7399   -5.0536 C   0  0  0  0  0  0  0  0  0  0  0  0
    6.7739   -4.1730   -6.0334 N   0  0  0  0  0  0  0  0  0  0  0  0
    5.7912   -6.0336   -5.0103 N   0  0  0  0  0  0  0  0  0  0  0  0
    4.7451    0.0737   -0.7729 N   0  0  0  0  0  0  0  0  0  0  0  0
    4.8545    1.3976   -0.3606 C   0  0  0  0  0  0  0  0  0  0  0  0
    4.3336    2.3061   -1.0746 O   0  0  0  0  0  0  0  0  0  0  0  0
    5.5582    1.8411    0.8994 C   0  0  1  0  0  0  0  0  0  0  0  0
    5.0964    3.1357    1.2786 N   0  0  0  0  0  0  0  0  0  0  0  0
    5.3785    0.8319    1.9585 C   0  0  0  0  0  0  0  0  0  0  0  0
    6.0399    1.1464    3.2531 C   0  0  0  0  0  0  0  0  0  0  0  0
    5.6054    2.3439    4.0142 C   0  0  0  0  0  0  0  0  0  0  0  0
    4.1963    2.2722    4.3644 N   0  0  0  0  0  0  0  0  0  0  0  0
    3.6765    1.3322    5.2829 C   0  0  0  0  0  0  0  0  0  0  0  0
    2.2730    1.0597    5.2641 N   0  0  0  0  0  0  0  0  0  0  0  0
    4.4156    0.7279    6.1195 N   0  0  0  0  0  0  0  0  0  0  0  0
   -4.0014   -0.5013   -0.3141 C   0  0  0  0  0  0  0  0  0  0  0  0
   -4.1981   -1.3943   -1.2093 O   0  0  0  0  0  0  0  0  0  0  0  0
   -5.0175   -0.3539    0.6621 N   0  0  0  0  0  0  0  0  0  0  0  0
   -6.2016   -1.1122    0.7462 C   0  0  1  0  0  0  0  0  0  0  0  0
   -6.3526   -2.0075    1.9603 C   0  0  0  0  0  0  0  0  0  0  0  0
   -6.3043   -1.2207    3.2151 C   0  0  0  0  0  0  0  0  0  0  0  0
   -7.3773   -0.6584    3.8549 C   0  0  0  0  0  0  0  0  0  0  0  0
   -6.9282    0.0216    4.9041 N   0  0  0  0  0  0  0  0  0  0  0  0
   -5.5828   -0.0837    4.9663 C   0  0  0  0  0  0  0  0  0  0  0  0
   -4.6316    0.3997    5.8390 C   0  0  0  0  0  0  0  0  0  0  0  0
   -3.2778    0.1088    5.6661 C   0  0  0  0  0  0  0  0  0  0  0  0
   -2.8743   -0.6825    4.5976 C   0  0  0  0  0  0  0  0  0  0  0  0
   -3.8228   -1.1691    3.7191 C   0  0  0  0  0  0  0  0  0  0  0  0
   -5.1667   -0.8647    3.9105 C   0  0  0  0  0  0  0  0  0  0  0  0
   -7.4298   -0.2867    0.6187 C   0  0  0  0  0  0  0  0  0  0  0  0
   -8.6636   -0.9138    0.6596 O   0  0  0  0  0  0  0  0  0  0  0  0
   -7.3777    0.9380    0.4774 O   0  0  0  0  0  0  0  0  0  0  0  0
   -3.1873    5.2257   -2.8121 H   0  0  0  0  0  0  0  0  0  0  0  0
   -4.4089    6.3583   -3.4658 H   0  0  0  0  0  0  0  0  0  0  0  0
   -7.0986    4.3849   -1.9661 H   0  0  0  0  0  0  0  0  0  0  0  0
   -5.1920    2.7416   -3.8476 H   0  0  0  0  0  0  0  0  0  0  0  0
   -5.0160    1.2224   -2.0738 H   0  0  0  0  0  0  0  0  0  0  0  0
   -5.5976    2.5308   -1.0208 H   0  0  0  0  0  0  0  0  0  0  0  0
   -2.7146    2.4511   -2.1156 H   0  0  0  0  0  0  0  0  0  0  0  0
   -3.4346    3.6260   -0.9695 H   0  0  0  0  0  0  0  0  0  0  0  0
   -3.4680    1.8673    0.8143 H   0  0  0  0  0  0  0  0  0  0  0  0
   -1.8896    2.1309    0.0795 H   0  0  0  0  0  0  0  0  0  0  0  0
   -2.1743   -0.0839    0.5587 H   0  0  0  0  0  0  0  0  0  0  0  0
   -2.2401    0.2148   -2.4480 H   0  0  0  0  0  0  0  0  0  0  0  0
   -0.2975   -0.1444   -3.4399 H   0  0  0  0  0  0  0  0  0  0  0  0
   -1.1590   -2.4608   -3.1628 H   0  0  0  0  0  0  0  0  0  0  0  0
    0.4842   -2.8793   -2.4434 H   0  0  0  0  0  0  0  0  0  0  0  0
   -0.1004   -1.4787   -5.0757 H   0  0  0  0  0  0  0  0  0  0  0  0
    0.8443   -3.0369   -4.8897 H   0  0  0  0  0  0  0  0  0  0  0  0
    1.8710   -0.4074   -4.7621 H   0  0  0  0  0  0  0  0  0  0  0  0
    2.6437   -1.9619   -4.0961 H   0  0  0  0  0  0  0  0  0  0  0  0
    4.1845    0.5804   -2.6719 H   0  0  0  0  0  0  0  0  0  0  0  0
    4.7795   -1.5677   -3.7395 H   0  0  0  0  0  0  0  0  0  0  0  0
    5.9424   -1.0837   -2.5389 H   0  0  0  0  0  0  0  0  0  0  0  0
    5.1117   -2.7487   -0.9327 H   0  0  0  0  0  0  0  0  0  0  0  0
    3.7655   -3.2138   -2.0272 H   0  0  0  0  0  0  0  0  0  0  0  0
    5.6632   -4.7440   -2.3059 H   0  0  0  0  0  0  0  0  0  0  0  0
    6.7138   -3.3244   -2.7909 H   0  0  0  0  0  0  0  0  0  0  0  0
    4.4024   -3.4134   -4.5018 H   0  0  0  0  0  0  0  0  0  0  0  0
    6.7035   -4.5407   -7.0043 H   0  0  0  0  0  0  0  0  0  0  0  0
    7.4446   -3.4244   -5.8165 H   0  0  0  0  0  0  0  0  0  0  0  0
    5.1544   -6.4086   -4.2683 H   0  0  0  0  0  0  0  0  0  0  0  0
    5.1721   -0.6792   -0.1741 H   0  0  0  0  0  0  0  0  0  0  0  0
    6.6644    1.9035    0.6958 H   0  0  0  0  0  0  0  0  0  0  0  0
    4.0847    3.1601    1.4884 H   0  0  0  0  0  0  0  0  0  0  0  0
    5.4553    3.9385    0.7520 H   0  0  0  0  0  0  0  0  0  0  0  0
    5.8099   -0.1846    1.6384 H   0  0  0  0  0  0  0  0  0  0  0  0
    4.3010    0.5960    2.1548 H   0  0  0  0  0  0  0  0  0  0  0  0
    7.1670    1.2587    3.1174 H   0  0  0  0  0  0  0  0  0  0  0  0
    5.9609    0.2611    3.9684 H   0  0  0  0  0  0  0  0  0  0  0  0
    5.8995    3.2933    3.5687 H   0  0  0  0  0  0  0  0  0  0  0  0
    6.1316    2.2601    5.0263 H   0  0  0  0  0  0  0  0  0  0  0  0
    3.5568    2.9634    3.9020 H   0  0  0  0  0  0  0  0  0  0  0  0
    1.8385    0.4726    6.0065 H   0  0  0  0  0  0  0  0  0  0  0  0
    1.6734    1.4363    4.5196 H   0  0  0  0  0  0  0  0  0  0  0  0
    5.4327    0.8131    6.2594 H   0  0  0  0  0  0  0  0  0  0  0  0
   -4.8484    0.4251    1.3647 H   0  0  0  0  0  0  0  0  0  0  0  0
   -6.1680   -1.8480   -0.1259 H   0  0  0  0  0  0  0  0  0  0  0  0
   -5.6683   -2.8698    1.9446 H   0  0  0  0  0  0  0  0  0  0  0  0
   -7.3911   -2.4456    1.9013 H   0  0  0  0  0  0  0  0  0  0  0  0
   -8.4442   -0.7528    3.5535 H   0  0  0  0  0  0  0  0  0  0  0  0
   -7.5020    0.5709    5.6054 H   0  0  0  0  0  0  0  0  0  0  0  0
   -4.9413    1.0148    6.6658 H   0  0  0  0  0  0  0  0  0  0  0  0
   -2.5391    0.4975    6.3557 H   0  0  0  0  0  0  0  0  0  0  0  0
   -1.8324   -0.9210    4.4449 H   0  0  0  0  0  0  0  0  0  0  0  0
   -3.5160   -1.8010    2.8702 H   0  0  0  0  0  0  0  0  0  0  0  0
   -9.4715   -0.6110    0.1283 H   0  0  0  0  0  0  0  0  0  0  0  0
  1  2  1  0
  2  3  2  3
  2  4  1  0
  4  5  1  0
  5  6  1  0
  6  7  1  0
  7  8  1  0
  8  9  1  0
  9 10  1  0
 10 11  2  0
 10 12  1  0
 12 13  1  0
 13 14  1  0
 14 15  1  0
 15 16  1  0
 16 17  1  0
 17 18  2  0
 17 19  1  0
 19 20  1  0
 20 21  1  0
 21 22  1  0
 22 23  1  0
 23 24  1  0
 24 25  1  0
 24 26  2  3
 19 27  1  0
 27 28  1  0
 28 29  2  0
 28 30  1  0
 30 31  1  0
 30 32  1  0
 32 33  1  0
 33 34  1  0
 34 35  1  0
 35 36  1  0
 36 37  1  0
 36 38  2  3
  8 39  1  0
 39 40  2  0
 39 41  1  0
 41 42  1  0
 42 43  1  0
 43 44  1  0
 44 45  2  0
 45 46  1  0
 46 47  1  0
 47 48  2  0
 48 49  1  0
 49 50  2  0
 50 51  1  0
 51 52  2  0
 42 53  1  0
 53 54  1  0
 53 55  2  0
 16 12  1  0
 52 44  1  0
 52 47  1  0
  1 56  1  0
  1 57  1  0
  3 58  1  0
  4 59  1  0
  5 60  1  0
  5 61  1  0
  6 62  1  0
  6 63  1  0
  7 64  1  0
  7 65  1  0
  8 66  1  1
  9 67  1  0
 12 68  1  6
 13 69  1  0
 13 70  1  0
 14 71  1  0
 14 72  1  0
 15 73  1  0
 15 74  1  0
 19 75  1  6
 20 76  1  0
 20 77  1  0
 21 78  1  0
 21 79  1  0
 22 80  1  0
 22 81  1  0
 23 82  1  0
 25 83  1  0
 25 84  1  0
 26 85  1  0
 27 86  1  0
 30 87  1  6
 31 88  1  0
 31 89  1  0
 32 90  1  0
 32 91  1  0
 33 92  1  0
 33 93  1  0
 34 94  1  0
 34 95  1  0
 35 96  1  0
 37 97  1  0
 37 98  1  0
 38 99  1  0
 41100  1  0
 42101  1  6
 43102  1  0
 43103  1  0
 45104  1  0
 46105  1  0
 48106  1  0
 49107  1  0
 50108  1  0
 51109  1  0
 54110  1  0
M  END
$$$$
[H]OC(=O)[C@@]1([H])N(S(=O)(=O)c2c([H])c([H])c(I)c([H])c2[H])C([H])([H])C([H])([H])C1([H])[H]
     RDKit          3D

 30 31  0  0  0  0  0  0  0  0999 V2000
   -1.2334   -3.0754   -1.7682 O   0  0  0  0  0  0  0  0  0  0  0  0
   -1.5175   -2.5668   -0.5138 C   0  0  0  0  0  0  0  0  0  0  0  0
   -1.9349   -3.3621    0.3605 O   0  0  0  0  0  0  0  0  0  0  0  0
   -1.3517   -1.1503   -0.1707 C   0  0  2  0  0  0  0  0  0  0  0  0
   -2.7506   -0.5801    0.0887 C   0  0  0  0  0  0  0  0  0  0  0  0
   -2.4728    0.9050   -0.0242 C   0  0  0  0  0  0  0  0  0  0  0  0
   -1.5156    0.9191   -1.2246 C   0  0  0  0  0  0  0  0  0  0  0  0
   -0.8723   -0.3383   -1.2378 N   0  0  0  0  0  0  0  0  0  0  0  0
    0.8148   -0.3217   -1.4257 S   0  0  0  0  0  0  0  0  0  0  0  0
    1.3061   -1.6962   -1.7804 O   0  0  0  0  0  0  0  0  0  0  0  0
    1.1416    0.5653   -2.6005 O   0  0  0  0  0  0  0  0  0  0  0  0
    1.6670    0.3076   -0.0358 C   0  0  0  0  0  0  0  0  0  0  0  0
    2.0692   -0.5238    0.9736 C   0  0  0  0  0  0  0  0  0  0  0  0
    2.7371   -0.0039    2.0545 C   0  0  0  0  0  0  0  0  0  0  0  0
    3.0155    1.3364    2.1532 C   0  0  0  0  0  0  0  0  0  0  0  0
    4.0470    2.1498    3.8194 I   0  0  0  0  0  0  0  0  0  0  0  0
    2.6291    2.2021    1.1625 C   0  0  0  0  0  0  0  0  0  0  0  0
    1.9595    1.6449    0.0901 C   0  0  0  0  0  0  0  0  0  0  0  0
   -1.4738   -2.5656   -2.6233 H   0  0  0  0  0  0  0  0  0  0  0  0
   -0.7827   -1.0479    0.7735 H   0  0  0  0  0  0  0  0  0  0  0  0
   -3.4271   -0.8585   -0.7574 H   0  0  0  0  0  0  0  0  0  0  0  0
   -3.1503   -0.8805    1.0586 H   0  0  0  0  0  0  0  0  0  0  0  0
   -1.9724    1.2661    0.8922 H   0  0  0  0  0  0  0  0  0  0  0  0
   -3.3609    1.4892   -0.3125 H   0  0  0  0  0  0  0  0  0  0  0  0
   -2.1395    1.0044   -2.1593 H   0  0  0  0  0  0  0  0  0  0  0  0
   -0.8918    1.7979   -1.1060 H   0  0  0  0  0  0  0  0  0  0  0  0
    1.8773   -1.5929    0.9510 H   0  0  0  0  0  0  0  0  0  0  0  0
    3.0780   -0.6396    2.8883 H   0  0  0  0  0  0  0  0  0  0  0  0
    2.8496    3.2620    1.2412 H   0  0  0  0  0  0  0  0  0  0  0  0
    1.6552    2.3538   -0.6985 H   0  0  0  0  0  0  0  0  0  0  0  0
  1  2  1  0
  2  3  2  0
  2  4  1  0
  4  5  1  0
  5  6  1  0
  6  7  1  0
  7  8  1  0
  8  9  1  0
  9 10  2  0
  9 11  2  0
  9 12  1  0
 12 13  2  0
 13 14  1  0
 14 15  2  0
 15 16  1  0
 15 17  1  0
 17 18  2  0
  8  4  1  0
 18 12  1  0
  1 19  1  0
  4 20  1  1
  5 21  1  0
  5 22  1  0
  6 23  1  0
  6 24  1  0
  7 25  1  0
  7 26  1  0
 13 27  1  0
 14 28  1  0
 17 29  1  0
 18 30  1  0
M  END
$$$$
[H]c1c([H])c(C(=O)Oc2c([H])c([H])c(C(=O)c3c([H])n([H])c4c([H])c([H])c([H])c([H])c34)c([H])c2[H])c([H])c([H])c1OC([H])([H])C([H])([H])F
     RDKit          3D

 48 51  0  0  0  0  0  0  0  0999 V2000
   10.5135    0.5967   -0.8509 F   0  0  0  0  0  0  0  0  0  0  0  0
   10.0394   -0.7004   -0.9450 C   0  0  0  0  0  0  0  0  0  0  0  0
    8.6187   -0.8052   -0.4332 C   0  0  0  0  0  0  0  0  0  0  0  0
    7.7402    0.0233   -1.1691 O   0  0  0  0  0  0  0  0  0  0  0  0
    6.3902    0.0318   -0.8105 C   0  0  0  0  0  0  0  0  0  0  0  0
    5.4714    0.8129   -1.4816 C   0  0  0  0  0  0  0  0  0  0  0  0
    4.1409    0.8089   -1.1131 C   0  0  0  0  0  0  0  0  0  0  0  0
    3.6625    0.0391   -0.0731 C   0  0  0  0  0  0  0  0  0  0  0  0
    4.5715   -0.7445    0.6039 C   0  0  0  0  0  0  0  0  0  0  0  0
    5.9144   -0.7387    0.2298 C   0  0  0  0  0  0  0  0  0  0  0  0
    2.2461    0.0492    0.2968 C   0  0  0  0  0  0  0  0  0  0  0  0
    1.8061   -0.6382    1.2343 O   0  0  0  0  0  0  0  0  0  0  0  0
    1.3558    0.8434   -0.4105 O   0  0  0  0  0  0  0  0  0  0  0  0
   -0.0064    0.9166   -0.1323 C   0  0  0  0  0  0  0  0  0  0  0  0
   -0.5259    1.8680    0.7187 C   0  0  0  0  0  0  0  0  0  0  0  0
   -1.8695    1.9546    1.0047 C   0  0  0  0  0  0  0  0  0  0  0  0
   -2.7671    1.0626    0.4299 C   0  0  0  0  0  0  0  0  0  0  0  0
   -2.2470    0.1123   -0.4201 C   0  0  0  0  0  0  0  0  0  0  0  0
   -0.8953    0.0282   -0.7056 C   0  0  0  0  0  0  0  0  0  0  0  0
   -4.1911    1.1481    0.7175 C   0  0  0  0  0  0  0  0  0  0  0  0
   -4.6764    2.2713    1.0364 O   0  0  0  0  0  0  0  0  0  0  0  0
   -5.0914    0.0075    0.6579 C   0  0  0  0  0  0  0  0  0  0  0  0
   -4.7895   -1.3188    0.8134 C   0  0  0  0  0  0  0  0  0  0  0  0
   -5.8972   -2.0637    0.6982 N   0  0  0  0  0  0  0  0  0  0  0  0
   -6.9142   -1.2215    0.4688 C   0  0  0  0  0  0  0  0  0  0  0  0
   -8.2424   -1.4958    0.2800 C   0  0  0  0  0  0  0  0  0  0  0  0
   -9.1207   -0.4514    0.0555 C   0  0  0  0  0  0  0  0  0  0  0  0
   -8.6744    0.8394    0.0215 C   0  0  0  0  0  0  0  0  0  0  0  0
   -7.3428    1.1387    0.2087 C   0  0  0  0  0  0  0  0  0  0  0  0
   -6.4704    0.0773    0.4338 C   0  0  0  0  0  0  0  0  0  0  0  0
   10.6907   -1.3056   -0.2660 H   0  0  0  0  0  0  0  0  0  0  0  0
   10.1128   -1.0962   -1.9689 H   0  0  0  0  0  0  0  0  0  0  0  0
    8.5537   -0.6602    0.6528 H   0  0  0  0  0  0  0  0  0  0  0  0
    8.2880   -1.8584   -0.6434 H   0  0  0  0  0  0  0  0  0  0  0  0
    5.8255    1.4241   -2.2999 H   0  0  0  0  0  0  0  0  0  0  0  0
    3.4208    1.4256   -1.6458 H   0  0  0  0  0  0  0  0  0  0  0  0
    4.1961   -1.3478    1.4198 H   0  0  0  0  0  0  0  0  0  0  0  0
    6.6168   -1.3637    0.7746 H   0  0  0  0  0  0  0  0  0  0  0  0
    0.1150    2.6020    1.2079 H   0  0  0  0  0  0  0  0  0  0  0  0
   -2.2935    2.7013    1.6747 H   0  0  0  0  0  0  0  0  0  0  0  0
   -2.8861   -0.6144   -0.9084 H   0  0  0  0  0  0  0  0  0  0  0  0
   -0.5427   -0.7442   -1.3852 H   0  0  0  0  0  0  0  0  0  0  0  0
   -3.8071   -1.7107    1.0020 H   0  0  0  0  0  0  0  0  0  0  0  0
   -5.9519   -3.1131    0.7748 H   0  0  0  0  0  0  0  0  0  0  0  0
   -8.6145   -2.5065    0.3026 H   0  0  0  0  0  0  0  0  0  0  0  0
  -10.1536   -0.6983   -0.0882 H   0  0  0  0  0  0  0  0  0  0  0  0
   -9.3417    1.6748   -0.1531 H   0  0  0  0  0  0  0  0  0  0  0  0
   -6.9774    2.1520    0.1849 H   0  0  0  0  0  0  0  0  0  0  0  0
  1  2  1  0
  2  3  1  0
  3  4  1  0
  4  5  1  0
  5  6  2  0
  6  7  1  0
  7  8  2  0
  8  9  1  0
  9 10  2  0
  8 11  1  0
 11 12  2  0
 11 13  1  0
 13 14  1  0
 14 15  2  0
 15 16  1  0
 16 17  2  0
 17 18  1  0
 18 19  2  0
 17 20  1  0
 20 21  2  0
 20 22  1  0
 22 23  2  0
 23 24  1  0
 24 25  1  0
 25 26  2  0
 26 27  1  0
 27 28  2  0
 28 29  1  0
 29 30  2  0
 10  5  1  0
 19 14  1  0
 30 22  1  0
 30 25  1  0
  2 31  1  0
  2 32  1  0
  3 33  1  0
  3 34  1  0
  6 35  1  0
  7 36  1  0
  9 37  1  0
 10 38  1  0
 15 39  1  0
 16 40  1  0
 18 41  1  0
 19 42  1  0
 23 43  1  0
 24 44  1  0
 26 45  1  0
 27 46  1  0
 28 47  1  0
 29 48  1  0
M  END
$$$$
[H]ON([H])C(=O)C([H])([H])C([H])([H])C([H])([H])C([H])([H])C([H])([H])C([H])([H])C(=O)N([H])c1c([H])c([H])c([H])c(-c2nnn(-c3c([H])c([H])c(C(F)(F)F)c([H])c3[H])c2[H])c1[H]
     RDKit          3D

 58 60  0  0  0  0  0  0  0  0999 V2000
   -9.6879   -2.4796    3.3948 O   0  0  0  0  0  0  0  0  0  0  0  0
   -9.4612   -1.8776    2.3510 N   0  0  0  0  0  0  0  0  0  0  0  0
   -9.2073   -1.1847    1.1466 C   0  0  0  0  0  0  0  0  0  0  0  0
  -10.0858   -0.9681    0.3151 O   0  0  0  0  0  0  0  0  0  0  0  0
   -7.7853   -0.7358    1.0232 C   0  0  0  0  0  0  0  0  0  0  0  0
   -7.6484    0.7577    0.9235 C   0  0  0  0  0  0  0  0  0  0  0  0
   -6.1894    1.1086    0.5881 C   0  0  0  0  0  0  0  0  0  0  0  0
   -5.9997    0.7633   -0.8581 C   0  0  0  0  0  0  0  0  0  0  0  0
   -4.6206    1.0166   -1.3604 C   0  0  0  0  0  0  0  0  0  0  0  0
   -3.6218    0.0759   -0.7803 C   0  0  0  0  0  0  0  0  0  0  0  0
   -2.2150    0.3871   -1.2747 C   0  0  0  0  0  0  0  0  0  0  0  0
   -2.0575    1.4767   -1.7559 O   0  0  0  0  0  0  0  0  0  0  0  0
   -1.1843   -0.6032   -1.1329 N   0  0  0  0  0  0  0  0  0  0  0  0
    0.1194   -0.3069   -1.5599 C   0  0  0  0  0  0  0  0  0  0  0  0
    0.3853    0.5331   -2.6082 C   0  0  0  0  0  0  0  0  0  0  0  0
    1.6887    0.8330   -2.8689 C   0  0  0  0  0  0  0  0  0  0  0  0
    2.7025    0.3252   -2.1232 C   0  0  0  0  0  0  0  0  0  0  0  0
    2.4912   -0.5233   -1.0606 C   0  0  0  0  0  0  0  0  0  0  0  0
    1.1976   -0.8364   -0.7876 C   0  0  0  0  0  0  0  0  0  0  0  0
    3.6091   -0.9914   -0.2299 C   0  0  0  0  0  0  0  0  0  0  0  0
    4.8977   -0.4012   -0.3894 C   0  0  0  0  0  0  0  0  0  0  0  0
    5.7040   -1.0274    0.5307 N   0  0  0  0  0  0  0  0  0  0  0  0
    4.9959   -1.8939    1.1678 N   0  0  0  0  0  0  0  0  0  0  0  0
    3.7362   -1.8774    0.7191 N   0  0  0  0  0  0  0  0  0  0  0  0
    7.0979   -0.6300    0.6784 C   0  0  0  0  0  0  0  0  0  0  0  0
    7.6469    0.1776   -0.2524 C   0  0  0  0  0  0  0  0  0  0  0  0
    8.9768    0.6328   -0.1975 C   0  0  0  0  0  0  0  0  0  0  0  0
    9.7157    0.2152    0.8771 C   0  0  0  0  0  0  0  0  0  0  0  0
    9.1436   -0.6299    1.8735 C   0  0  0  0  0  0  0  0  0  0  0  0
    7.8439   -1.0418    1.7583 C   0  0  0  0  0  0  0  0  0  0  0  0
   11.1278    0.6275    1.1167 C   0  0  0  0  0  0  0  0  0  0  0  0
   11.0706    1.6767    2.0653 F   0  0  0  0  0  0  0  0  0  0  0  0
   11.7466    1.0728   -0.0117 F   0  0  0  0  0  0  0  0  0  0  0  0
   11.8268   -0.4114    1.6820 F   0  0  0  0  0  0  0  0  0  0  0  0
   -8.9303   -2.9188    3.8610 H   0  0  0  0  0  0  0  0  0  0  0  0
  -10.8189   -1.8839    2.0397 H   0  0  0  0  0  0  0  0  0  0  0  0
   -7.3725   -1.2960    0.1603 H   0  0  0  0  0  0  0  0  0  0  0  0
   -7.1843   -1.0666    1.9117 H   0  0  0  0  0  0  0  0  0  0  0  0
   -7.9939    1.2914    1.8142 H   0  0  0  0  0  0  0  0  0  0  0  0
   -8.2518    1.1482    0.0649 H   0  0  0  0  0  0  0  0  0  0  0  0
   -6.0211    2.1946    0.7540 H   0  0  0  0  0  0  0  0  0  0  0  0
   -5.5759    0.5055    1.2583 H   0  0  0  0  0  0  0  0  0  0  0  0
   -6.3134   -0.2703   -1.1104 H   0  0  0  0  0  0  0  0  0  0  0  0
   -6.6863    1.4505   -1.4801 H   0  0  0  0  0  0  0  0  0  0  0  0
   -4.6458    0.9922   -2.4425 H   0  0  0  0  0  0  0  0  0  0  0  0
   -4.3464    2.0793   -1.0531 H   0  0  0  0  0  0  0  0  0  0  0  0
   -3.6354    0.1608    0.3105 H   0  0  0  0  0  0  0  0  0  0  0  0
   -3.7661   -0.9829   -1.1092 H   0  0  0  0  0  0  0  0  0  0  0  0
   -1.4495   -1.5502   -0.7526 H   0  0  0  0  0  0  0  0  0  0  0  0
   -0.4103    0.9481   -3.2304 H   0  0  0  0  0  0  0  0  0  0  0  0
    1.9024    1.5199   -3.6988 H   0  0  0  0  0  0  0  0  0  0  0  0
    3.7297    0.5869   -2.3855 H   0  0  0  0  0  0  0  0  0  0  0  0
    0.9482   -1.4889    0.0209 H   0  0  0  0  0  0  0  0  0  0  0  0
    5.1624    0.3583   -1.0666 H   0  0  0  0  0  0  0  0  0  0  0  0
    7.0881    0.5485   -1.1184 H   0  0  0  0  0  0  0  0  0  0  0  0
    9.4219    1.2687   -0.9239 H   0  0  0  0  0  0  0  0  0  0  0  0
    9.7773   -0.9353    2.6879 H   0  0  0  0  0  0  0  0  0  0  0  0
    7.4117   -1.6985    2.5285 H   0  0  0  0  0  0  0  0  0  0  0  0
  1  2  1  0
  2  3  1  0
  3  4  2  0
  3  5  1  0
  5  6  1  0
  6  7  1  0
  7  8  1  0
  8  9  1  0
  9 10  1  0
 10 11  1  0
 11 12  2  0
 11 13  1  0
 13 14  1  0
 14 15  2  0
 15 16  1  0
 16 17  2  0
 17 18  1  0
 18 19  2  0
 18 20  1  0
 20 21  2  0
 21 22  1  0
 22 23  1  0
 23 24  2  0
 22 25  1  0
 25 26  2  0
 26 27  1  0
 27 28  2  0
 28 29  1  0
 29 30  2  0
 28 31  1  0
 31 32  1  0
 31 33  1  0
 31 34  1  0
 19 14  1  0
 24 20  1  0
 30 25  1  0
  1 35  1  0
  2 36  1  0
  5 37  1  0
  5 38  1  0
  6 39  1  0
  6 40  1  0
  7 41  1  0
  7 42  1  0
  8 43  1  0
  8 44  1  0
  9 45  1  0
  9 46  1  0
 10 47  1  0
 10 48  1  0
 13 49  1  0
 15 50  1  0
 16 51  1  0
 17 52  1  0
 19 53  1  0
 21 54  1  0
 26 55  1  0
 27 56  1  0
 29 57  1  0
 30 58  1  0
M  END
$$$$
[H]Oc1c([H])c([H])c(-c2oc(-c3c([H])c([H])c(O[H])c(F)c3[H])c(-c3c([H])c([H])c([H])c([H])c3[H])c2[C@@]([H])(O[H])C([H])([H])[H])c([H])c1[H]
     RDKit          3D

 48 51  0  0  0  0  0  0  0  0999 V2000
    1.0576   -3.1399    0.5231 C   0  0  0  0  0  0  0  0  0  0  0  0
    1.8317   -1.9375    0.0587 C   0  0  2  0  0  0  0  0  0  0  0  0
    2.7801   -1.7179    1.1092 O   0  0  0  0  0  0  0  0  0  0  0  0
    1.0382   -0.7026   -0.1051 C   0  0  0  0  0  0  0  0  0  0  0  0
    1.5993    0.5435   -0.3317 C   0  0  0  0  0  0  0  0  0  0  0  0
    0.5640    1.4240   -0.3627 O   0  0  0  0  0  0  0  0  0  0  0  0
   -0.5519    0.8192   -0.1799 C   0  0  0  0  0  0  0  0  0  0  0  0
   -0.3164   -0.5576   -0.0084 C   0  0  0  0  0  0  0  0  0  0  0  0
   -1.4020   -1.4786    0.2020 C   0  0  0  0  0  0  0  0  0  0  0  0
   -1.8285   -2.3390   -0.8124 C   0  0  0  0  0  0  0  0  0  0  0  0
   -2.8899   -3.1944   -0.6742 C   0  0  0  0  0  0  0  0  0  0  0  0
   -3.5850   -3.2287    0.5057 C   0  0  0  0  0  0  0  0  0  0  0  0
   -3.1734   -2.3864    1.5090 C   0  0  0  0  0  0  0  0  0  0  0  0
   -2.1152   -1.5238    1.3914 C   0  0  0  0  0  0  0  0  0  0  0  0
   -1.8821    1.4062   -0.1451 C   0  0  0  0  0  0  0  0  0  0  0  0
   -2.8347    1.1535   -1.1087 C   0  0  0  0  0  0  0  0  0  0  0  0
   -4.0635    1.7428   -1.0011 C   0  0  0  0  0  0  0  0  0  0  0  0
   -4.4258    2.5899    0.0244 C   0  0  0  0  0  0  0  0  0  0  0  0
   -5.6845    3.1723    0.1045 O   0  0  0  0  0  0  0  0  0  0  0  0
   -3.4651    2.8347    0.9816 C   0  0  0  0  0  0  0  0  0  0  0  0
   -3.7908    3.6726    2.0164 F   0  0  0  0  0  0  0  0  0  0  0  0
   -2.2202    2.2556    0.8988 C   0  0  0  0  0  0  0  0  0  0  0  0
    2.9669    1.0033   -0.5140 C   0  0  0  0  0  0  0  0  0  0  0  0
    4.0264    0.2446   -0.8798 C   0  0  0  0  0  0  0  0  0  0  0  0
    5.3350    0.7236   -0.9755 C   0  0  0  0  0  0  0  0  0  0  0  0
    5.5855    2.0396   -0.6884 C   0  0  0  0  0  0  0  0  0  0  0  0
    6.8838    2.5458   -0.7757 O   0  0  0  0  0  0  0  0  0  0  0  0
    4.5105    2.8274   -0.3151 C   0  0  0  0  0  0  0  0  0  0  0  0
    3.2464    2.3546   -0.2240 C   0  0  0  0  0  0  0  0  0  0  0  0
    0.4374   -2.9991    1.3868 H   0  0  0  0  0  0  0  0  0  0  0  0
    0.6865   -3.7926   -0.2930 H   0  0  0  0  0  0  0  0  0  0  0  0
    1.9041   -3.8365    0.9442 H   0  0  0  0  0  0  0  0  0  0  0  0
    2.3601   -2.2150   -0.9018 H   0  0  0  0  0  0  0  0  0  0  0  0
    2.4300   -1.0683    1.7462 H   0  0  0  0  0  0  0  0  0  0  0  0
   -1.2652   -2.3015   -1.7477 H   0  0  0  0  0  0  0  0  0  0  0  0
   -3.1359   -3.8216   -1.5294 H   0  0  0  0  0  0  0  0  0  0  0  0
   -4.4155   -3.9121    0.5851 H   0  0  0  0  0  0  0  0  0  0  0  0
   -3.7663   -2.4553    2.4352 H   0  0  0  0  0  0  0  0  0  0  0  0
   -1.8297   -0.8859    2.1985 H   0  0  0  0  0  0  0  0  0  0  0  0
   -2.5605    0.4933   -1.9179 H   0  0  0  0  0  0  0  0  0  0  0  0
   -4.8193    1.5384   -1.7716 H   0  0  0  0  0  0  0  0  0  0  0  0
   -6.3994    3.0185   -0.5656 H   0  0  0  0  0  0  0  0  0  0  0  0
   -1.4875    2.4638    1.6603 H   0  0  0  0  0  0  0  0  0  0  0  0
    3.8984   -0.7851   -1.1664 H   0  0  0  0  0  0  0  0  0  0  0  0
    6.1031    0.0223   -1.2765 H   0  0  0  0  0  0  0  0  0  0  0  0
    7.5030    2.5302    0.0123 H   0  0  0  0  0  0  0  0  0  0  0  0
    4.7452    3.8755   -0.0931 H   0  0  0  0  0  0  0  0  0  0  0  0
    2.4149    2.9842    0.0719 H   0  0  0  0  0  0  0  0  0  0  0  0
  1  2  1  0
  2  3  1  0
  2  4  1  0
  4  5  2  0
  5  6  1  0
  6  7  1  0
  7  8  2  0
  8  9  1  0
  9 10  2  0
 10 11  1  0
 11 12  2  0
 12 13  1  0
 13 14  2  0
  7 15  1  0
 15 16  2  0
 16 17  1  0
 17 18  2  0
 18 19  1  0
 18 20  1  0
 20 21  1  0
 20 22  2  0
  5 23  1  0
 23 24  2  0
 24 25  1  0
 25 26  2  0
 26 27  1  0
 26 28  1  0
 28 29  2  0
  8  4  1  0
 14  9  1  0
 22 15  1  0
 29 23  1  0
  1 30  1  0
  1 31  1  0
  1 32  1  0
  2 33  1  6
  3 34  1  0
 10 35  1  0
 11 36  1  0
 12 37  1  0
 13 38  1  0
 14 39  1  0
 16 40  1  0
 17 41  1  0
 19 42  1  0
 22 43  1  0
 24 44  1  0
 25 45  1  0
 27 46  1  0
 28 47  1  0
 29 48  1  0
M  END
$$$$
[H]OC(=O)C(F)(F)F.[H]OP(=O)(O[H])C(F)(F)c1c([H])c([H])c(-c2c([H])c([H])c(-c3c([H])c([H])c(C([H])([H])C(C(=O)c4c([H])c([H])c([H])c([H])c4[H])(c4c([H])c([H])c([H])c([H])c4[H])C([H])([H])[H])c([H])c3[H])c([H])c2[H])c([H])c1[H]
     RDKit          3D

 79 82  0  0  0  0  0  0  0  0999 V2000
   -1.4839   -0.4635    0.3845 O   0  0  0  0  0  0  0  0  0  0  0  0
   -0.4239   -0.3865   -0.5079 C   0  0  0  0  0  0  0  0  0  0  0  0
   -0.6220   -0.8081   -1.6672 O   0  0  0  0  0  0  0  0  0  0  0  0
    0.8663    0.1848   -0.0385 C   0  0  0  0  0  0  0  0  0  0  0  0
    0.6683    1.4762    0.3786 F   0  0  0  0  0  0  0  0  0  0  0  0
    1.7941    0.1720   -1.0648 F   0  0  0  0  0  0  0  0  0  0  0  0
    1.2846   -0.5451    1.0514 F   0  0  0  0  0  0  0  0  0  0  0  0
   -4.4619    1.2832    1.3455 C   0  0  0  0  0  0  0  0  0  0  0  0
   -4.6966    0.9456   -0.1353 C   0  0  0  0  0  0  0  0  0  0  0  0
   -3.5599    1.5112   -0.9468 C   0  0  0  0  0  0  0  0  0  0  0  0
   -2.2034    1.0750   -0.6690 C   0  0  0  0  0  0  0  0  0  0  0  0
   -1.3516    1.7240    0.2251 C   0  0  0  0  0  0  0  0  0  0  0  0
   -0.0447    1.3287    0.4076 C   0  0  0  0  0  0  0  0  0  0  0  0
    0.5204    0.2630   -0.2800 C   0  0  0  0  0  0  0  0  0  0  0  0
   -0.3320   -0.3850   -1.1687 C   0  0  0  0  0  0  0  0  0  0  0  0
   -1.6420    0.0090   -1.3529 C   0  0  0  0  0  0  0  0  0  0  0  0
    1.9133   -0.1067   -0.1309 C   0  0  0  0  0  0  0  0  0  0  0  0
    2.3059   -1.4082   -0.2644 C   0  0  0  0  0  0  0  0  0  0  0  0
    3.6904   -1.7053   -0.1543 C   0  0  0  0  0  0  0  0  0  0  0  0
    4.5920   -0.7272    0.0756 C   0  0  0  0  0  0  0  0  0  0  0  0
    4.1836    0.5901    0.2121 C   0  0  0  0  0  0  0  0  0  0  0  0
    2.8419    0.8606    0.1023 C   0  0  0  0  0  0  0  0  0  0  0  0
    6.0183   -0.9578    0.1617 C   0  0  0  0  0  0  0  0  0  0  0  0
    6.8220   -0.1695    0.9885 C   0  0  0  0  0  0  0  0  0  0  0  0
    8.1844   -0.2965    1.0735 C   0  0  0  0  0  0  0  0  0  0  0  0
    8.8165   -1.2629    0.2966 C   0  0  0  0  0  0  0  0  0  0  0  0
    8.0634   -2.0625   -0.5289 C   0  0  0  0  0  0  0  0  0  0  0  0
    6.6690   -1.9119   -0.5986 C   0  0  0  0  0  0  0  0  0  0  0  0
   10.3037   -1.3169    0.3846 C   0  0  0  0  0  0  0  0  0  0  0  0
   10.8234   -2.3340   -0.3494 F   0  0  0  0  0  0  0  0  0  0  0  0
   10.6376   -1.4935    1.7052 F   0  0  0  0  0  0  0  0  0  0  0  0
   10.8778    0.3131   -0.2258 P   0  0  0  0  0  0  0  0  0  0  0  0
   11.1926    1.3611    1.0477 O   0  0  0  0  0  0  0  0  0  0  0  0
   12.1889    0.0695   -1.2416 O   0  0  0  0  0  0  0  0  0  0  0  0
    9.7448    0.9285   -1.0466 O   0  0  0  0  0  0  0  0  0  0  0  0
   -5.8937    1.7097   -0.5607 C   0  0  0  0  0  0  0  0  0  0  0  0
   -5.6466    2.6599   -1.4273 O   0  0  0  0  0  0  0  0  0  0  0  0
   -7.2632    1.5917   -0.1925 C   0  0  0  0  0  0  0  0  0  0  0  0
   -7.7541    0.6417    0.6518 C   0  0  0  0  0  0  0  0  0  0  0  0
   -9.0936    0.5552    1.0064 C   0  0  0  0  0  0  0  0  0  0  0  0
  -10.0124    1.4460    0.5113 C   0  0  0  0  0  0  0  0  0  0  0  0
   -9.5502    2.4143   -0.3407 C   0  0  0  0  0  0  0  0  0  0  0  0
   -8.2239    2.4953   -0.6896 C   0  0  0  0  0  0  0  0  0  0  0  0
   -4.8955   -0.4842   -0.3585 C   0  0  0  0  0  0  0  0  0  0  0  0
   -4.4446   -1.4077    0.5620 C   0  0  0  0  0  0  0  0  0  0  0  0
   -4.6384   -2.7530    0.3752 C   0  0  0  0  0  0  0  0  0  0  0  0
   -5.2953   -3.1994   -0.7508 C   0  0  0  0  0  0  0  0  0  0  0  0
   -5.7523   -2.3186   -1.6785 C   0  0  0  0  0  0  0  0  0  0  0  0
   -5.5465   -0.9643   -1.4727 C   0  0  0  0  0  0  0  0  0  0  0  0
   -2.0834    0.3704    0.4279 H   0  0  0  0  0  0  0  0  0  0  0  0
   -3.4280    0.9300    1.6160 H   0  0  0  0  0  0  0  0  0  0  0  0
   -5.1990    0.7448    1.9345 H   0  0  0  0  0  0  0  0  0  0  0  0
   -4.5032    2.3868    1.4356 H   0  0  0  0  0  0  0  0  0  0  0  0
   -3.6797    2.6379   -0.8408 H   0  0  0  0  0  0  0  0  0  0  0  0
   -3.8600    1.3509   -2.0245 H   0  0  0  0  0  0  0  0  0  0  0  0
   -1.7246    2.5602    0.7913 H   0  0  0  0  0  0  0  0  0  0  0  0
    0.6206    1.8456    1.1103 H   0  0  0  0  0  0  0  0  0  0  0  0
    0.1046   -1.2241   -1.7037 H   0  0  0  0  0  0  0  0  0  0  0  0
   -2.2716   -0.5427   -2.0690 H   0  0  0  0  0  0  0  0  0  0  0  0
    1.6174   -2.2170   -0.4487 H   0  0  0  0  0  0  0  0  0  0  0  0
    3.9981   -2.7404   -0.2631 H   0  0  0  0  0  0  0  0  0  0  0  0
    4.8618    1.3855    0.3947 H   0  0  0  0  0  0  0  0  0  0  0  0
    2.5075    1.8835    0.2090 H   0  0  0  0  0  0  0  0  0  0  0  0
    6.2741    0.5723    1.5804 H   0  0  0  0  0  0  0  0  0  0  0  0
    8.7397    0.3518    1.7384 H   0  0  0  0  0  0  0  0  0  0  0  0
    8.6000   -2.7997   -1.1135 H   0  0  0  0  0  0  0  0  0  0  0  0
    6.1252   -2.5605   -1.2614 H   0  0  0  0  0  0  0  0  0  0  0  0
   11.6732    0.9235    1.7926 H   0  0  0  0  0  0  0  0  0  0  0  0
   13.0085    0.3879   -0.7696 H   0  0  0  0  0  0  0  0  0  0  0  0
   -7.1312   -0.1147    1.0928 H   0  0  0  0  0  0  0  0  0  0  0  0
   -9.4209   -0.2386    1.6946 H   0  0  0  0  0  0  0  0  0  0  0  0
  -11.0599    1.3664    0.7948 H   0  0  0  0  0  0  0  0  0  0  0  0
  -10.2230    3.1513   -0.7693 H   0  0  0  0  0  0  0  0  0  0  0  0
   -7.8685    3.2703   -1.3731 H   0  0  0  0  0  0  0  0  0  0  0  0
   -3.9341   -1.0742    1.4404 H   0  0  0  0  0  0  0  0  0  0  0  0
   -4.2810   -3.5001    1.1018 H   0  0  0  0  0  0  0  0  0  0  0  0
   -5.4434   -4.2659   -0.8821 H   0  0  0  0  0  0  0  0  0  0  0  0
   -6.2687   -2.6955   -2.5555 H   0  0  0  0  0  0  0  0  0  0  0  0
   -5.9211   -0.2866   -2.2261 H   0  0  0  0  0  0  0  0  0  0  0  0
  1  2  1  0
  2  3  2  0
  2  4  1  0
  4  5  1  0
  4  6  1  0
  4  7  1  0
  8  9  1  0
  9 10  1  0
 10 11  1  0
 11 12  2  0
 12 13  1  0
 13 14  2  0
 14 15  1  0
 15 16  2  0
 14 17  1  0
 17 18  2  0
 18 19  1  0
 19 20  2  0
 20 21  1  0
 21 22  2  0
 20 23  1  0
 23 24  2  0
 24 25  1  0
 25 26  2  0
 26 27  1  0
 27 28  2  0
 26 29  1  0
 29 30  1  0
 29 31  1  0
 29 32  1  0
 32 33  1  0
 32 34  1  0
 32 35  2  0
  9 36  1  0
 36 37  2  0
 36 38  1  0
 38 39  2  0
 39 40  1  0
 40 41  2  0
 41 42  1  0
 42 43  2  0
  9 44  1  0
 44 45  2  0
 45 46  1  0
 46 47  2  0
 47 48  1  0
 48 49  2  0
 16 11  1  0
 22 17  1  0
 28 23  1  0
 43 38  1  0
 49 44  1  0
  1 50  1  0
  8 51  1  0
  8 52  1  0
  8 53  1  0
 10 54  1  0
 10 55  1  0
 12 56  1  0
 13 57  1  0
 15 58  1  0
 16 59  1  0
 18 60  1  0
 19 61  1  0
 21 62  1  0
 22 63  1  0
 24 64  1  0
 25 65  1  0
 27 66  1  0
 28 67  1  0
 33 68  1  0
 34 69  1  0
 39 70  1  0
 40 71  1  0
 41 72  1  0
 42 73  1  0
 43 74  1  0
 45 75  1  0
 46 76  1  0
 47 77  1  0
 48 78  1  0
 49 79  1  0
M  END
$$$$
[H]OC(=O)c1c([H])c(OC([H])([H])C([H])([H])C([H])([H])Oc2c([H])c([H])c([H])c([H])c2C([H])([H])C([H])([H])[H])c(O[H])c(C(=O)c2c([H])c([H])c([H])c([H])c2[H])c1Cl
     RDKit          3D

 55 57  0  0  0  0  0  0  0  0999 V2000
    6.5189   -2.6183    0.2706 C   0  0  0  0  0  0  0  0  0  0  0  0
    5.3595   -2.2382    1.1805 C   0  0  0  0  0  0  0  0  0  0  0  0
    5.3227   -0.7441    1.3008 C   0  0  0  0  0  0  0  0  0  0  0  0
    5.7880   -0.1115    2.4183 C   0  0  0  0  0  0  0  0  0  0  0  0
    5.7701    1.2649    2.5434 C   0  0  0  0  0  0  0  0  0  0  0  0
    5.2659    2.0168    1.5048 C   0  0  0  0  0  0  0  0  0  0  0  0
    4.7842    1.4216    0.3551 C   0  0  0  0  0  0  0  0  0  0  0  0
    4.8119    0.0389    0.2530 C   0  0  0  0  0  0  0  0  0  0  0  0
    4.3677   -0.6419   -0.8226 O   0  0  0  0  0  0  0  0  0  0  0  0
    3.8064   -0.3512   -2.0246 C   0  0  0  0  0  0  0  0  0  0  0  0
    2.4877    0.3395   -2.0646 C   0  0  0  0  0  0  0  0  0  0  0  0
    1.3657   -0.4187   -1.3753 C   0  0  0  0  0  0  0  0  0  0  0  0
    0.1562    0.2706   -1.4504 O   0  0  0  0  0  0  0  0  0  0  0  0
   -1.0572   -0.1219   -0.9359 C   0  0  0  0  0  0  0  0  0  0  0  0
   -1.2630   -1.2849   -0.2463 C   0  0  0  0  0  0  0  0  0  0  0  0
   -2.4951   -1.6336    0.2450 C   0  0  0  0  0  0  0  0  0  0  0  0
   -2.7364   -2.8672    0.9821 C   0  0  0  0  0  0  0  0  0  0  0  0
   -3.9706   -3.1498    1.5455 O   0  0  0  0  0  0  0  0  0  0  0  0
   -1.8385   -3.7381    1.1454 O   0  0  0  0  0  0  0  0  0  0  0  0
   -3.5832   -0.7824    0.0399 C   0  0  0  0  0  0  0  0  0  0  0  0
   -5.1791   -1.3122    0.5945 Cl  0  0  0  0  0  0  0  0  0  0  0  0
   -3.4316    0.4087   -0.6497 C   0  0  0  0  0  0  0  0  0  0  0  0
   -4.5386    1.2630   -0.9874 C   0  0  0  0  0  0  0  0  0  0  0  0
   -4.4490    1.8510   -2.1465 O   0  0  0  0  0  0  0  0  0  0  0  0
   -5.7282    1.5909   -0.2729 C   0  0  0  0  0  0  0  0  0  0  0  0
   -5.7661    1.6847    1.0832 C   0  0  0  0  0  0  0  0  0  0  0  0
   -6.9589    1.9835    1.7242 C   0  0  0  0  0  0  0  0  0  0  0  0
   -8.1082    2.1853    0.9776 C   0  0  0  0  0  0  0  0  0  0  0  0
   -8.1028    2.0986   -0.3814 C   0  0  0  0  0  0  0  0  0  0  0  0
   -6.8968    1.7992   -0.9897 C   0  0  0  0  0  0  0  0  0  0  0  0
   -2.1582    0.7419   -1.1416 C   0  0  0  0  0  0  0  0  0  0  0  0
   -1.9545    1.8992   -1.8198 O   0  0  0  0  0  0  0  0  0  0  0  0
    6.8531   -1.7527   -0.3519 H   0  0  0  0  0  0  0  0  0  0  0  0
    6.2359   -3.4421   -0.4065 H   0  0  0  0  0  0  0  0  0  0  0  0
    7.3913   -3.0038    0.8685 H   0  0  0  0  0  0  0  0  0  0  0  0
    5.4482   -2.7377    2.1455 H   0  0  0  0  0  0  0  0  0  0  0  0
    4.4160   -2.6076    0.6874 H   0  0  0  0  0  0  0  0  0  0  0  0
    6.2004   -0.6663    3.2747 H   0  0  0  0  0  0  0  0  0  0  0  0
    6.1333    1.7727    3.4159 H   0  0  0  0  0  0  0  0  0  0  0  0
    5.2490    3.1054    1.5977 H   0  0  0  0  0  0  0  0  0  0  0  0
    4.3978    2.0485   -0.4649 H   0  0  0  0  0  0  0  0  0  0  0  0
    4.5123    0.2088   -2.6963 H   0  0  0  0  0  0  0  0  0  0  0  0
    3.6982   -1.3453   -2.5805 H   0  0  0  0  0  0  0  0  0  0  0  0
    2.2176    0.4986   -3.1555 H   0  0  0  0  0  0  0  0  0  0  0  0
    2.5713    1.3543   -1.6596 H   0  0  0  0  0  0  0  0  0  0  0  0
    1.6419   -0.6709   -0.3334 H   0  0  0  0  0  0  0  0  0  0  0  0
    1.2363   -1.3707   -1.9293 H   0  0  0  0  0  0  0  0  0  0  0  0
   -0.4384   -1.9611   -0.0743 H   0  0  0  0  0  0  0  0  0  0  0  0
   -4.2189   -2.9564    2.5017 H   0  0  0  0  0  0  0  0  0  0  0  0
   -4.8807    1.5475    1.7177 H   0  0  0  0  0  0  0  0  0  0  0  0
   -6.9799    2.0570    2.8109 H   0  0  0  0  0  0  0  0  0  0  0  0
   -9.0559    2.4218    1.4678 H   0  0  0  0  0  0  0  0  0  0  0  0
   -8.9763    2.2484   -0.9983 H   0  0  0  0  0  0  0  0  0  0  0  0
   -6.8848    1.7257   -2.0899 H   0  0  0  0  0  0  0  0  0  0  0  0
   -2.3566    2.6817   -2.1390 H   0  0  0  0  0  0  0  0  0  0  0  0
  1  2  1  0
  2  3  1  0
  3  4  2  0
  4  5  1  0
  5  6  2  0
  6  7  1  0
  7  8  2  0
  8  9  1  0
  9 10  1  0
 10 11  1  0
 11 12  1  0
 12 13  1  0
 13 14  1  0
 14 15  2  0
 15 16  1  0
 16 17  1  0
 17 18  1  0
 17 19  2  0
 16 20  2  0
 20 21  1  0
 20 22  1  0
 22 23  1  0
 23 24  2  0
 23 25  1  0
 25 26  2  0
 26 27  1  0
 27 28  2  0
 28 29  1  0
 29 30  2  0
 22 31  2  0
 31 32  1  0
  8  3  1  0
 31 14  1  0
 30 25  1  0
  1 33  1  0
  1 34  1  0
  1 35  1  0
  2 36  1  0
  2 37  1  0
  4 38  1  0
  5 39  1  0
  6 40  1  0
  7 41  1  0
 10 42  1  0
 10 43  1  0
 11 44  1  0
 11 45  1  0
 12 46  1  0
 12 47  1  0
 15 48  1  0
 18 49  1  0
 26 50  1  0
 27 51  1  0
 28 52  1  0
 29 53  1  0
 30 54  1  0
 32 55  1  0
M  END
$$$$
[H]c1c(OC([H])([H])[H])c([H])c2c(c1[H])c([H])c([H])n2C([H])([H])C([H])([H])N(C([H])([H])[H])C1([H])C([H])([H])N([C@@]2([H])C([H])([H])C(=O)C([H])([H])C2([H])[H])C1([H])[H]
     RDKit          3D

 52 55  0  0  0  0  0  0  0  0999 V2000
   -5.4592    2.7514   -0.8220 C   0  0  0  0  0  0  0  0  0  0  0  0
   -6.1259    1.5121   -0.9208 O   0  0  0  0  0  0  0  0  0  0  0  0
   -5.4399    0.3086   -0.8541 C   0  0  0  0  0  0  0  0  0  0  0  0
   -6.1831   -0.8506   -0.9605 C   0  0  0  0  0  0  0  0  0  0  0  0
   -5.5577   -2.0774   -0.9013 C   0  0  0  0  0  0  0  0  0  0  0  0
   -4.1989   -2.1674   -0.7372 C   0  0  0  0  0  0  0  0  0  0  0  0
   -3.3037   -3.2158   -0.6432 C   0  0  0  0  0  0  0  0  0  0  0  0
   -2.0492   -2.7069   -0.4835 C   0  0  0  0  0  0  0  0  0  0  0  0
   -2.1258   -1.3575   -0.4735 N   0  0  0  0  0  0  0  0  0  0  0  0
   -0.9816   -0.4456   -0.3209 C   0  0  0  0  0  0  0  0  0  0  0  0
   -0.7959   -0.1715    1.1551 C   0  0  0  0  0  0  0  0  0  0  0  0
    0.2668    0.6897    1.4936 N   0  0  0  0  0  0  0  0  0  0  0  0
    0.0474    2.0188    1.0456 C   0  0  0  0  0  0  0  0  0  0  0  0
    1.5832    0.2697    1.4917 C   0  0  0  0  0  0  0  0  0  0  0  0
    2.1652   -0.1796    0.1437 C   0  0  0  0  0  0  0  0  0  0  0  0
    3.4310    0.3062    0.6785 N   0  0  0  0  0  0  0  0  0  0  0  0
    2.6513    1.3663    1.2821 C   0  0  0  0  0  0  0  0  0  0  0  0
    4.3627    0.6174   -0.3320 C   0  0  2  0  0  0  0  0  0  0  0  0
    4.6686   -0.6848   -1.0909 C   0  0  0  0  0  0  0  0  0  0  0  0
    5.5609   -1.4081   -0.1113 C   0  0  0  0  0  0  0  0  0  0  0  0
    6.2005   -0.3662    0.7355 C   0  0  0  0  0  0  0  0  0  0  0  0
    6.9277   -0.5125    1.6738 O   0  0  0  0  0  0  0  0  0  0  0  0
    5.7500    0.9355    0.1763 C   0  0  0  0  0  0  0  0  0  0  0  0
   -3.4109   -1.0179   -0.6254 C   0  0  0  0  0  0  0  0  0  0  0  0
   -4.0836    0.2033   -0.6904 C   0  0  0  0  0  0  0  0  0  0  0  0
   -6.2036    3.5382   -0.5223 H   0  0  0  0  0  0  0  0  0  0  0  0
   -4.6864    2.7042   -0.0433 H   0  0  0  0  0  0  0  0  0  0  0  0
   -4.9729    2.9747   -1.7802 H   0  0  0  0  0  0  0  0  0  0  0  0
   -7.2415   -0.8027   -1.0893 H   0  0  0  0  0  0  0  0  0  0  0  0
   -6.1081   -3.0056   -0.9812 H   0  0  0  0  0  0  0  0  0  0  0  0
   -3.6210   -4.2650   -0.6964 H   0  0  0  0  0  0  0  0  0  0  0  0
   -1.1479   -3.2954   -0.3818 H   0  0  0  0  0  0  0  0  0  0  0  0
   -0.1493   -0.9521   -0.8059 H   0  0  0  0  0  0  0  0  0  0  0  0
   -1.2012    0.4845   -0.8698 H   0  0  0  0  0  0  0  0  0  0  0  0
   -1.7529    0.3683    1.4556 H   0  0  0  0  0  0  0  0  0  0  0  0
   -0.8234   -1.1160    1.7471 H   0  0  0  0  0  0  0  0  0  0  0  0
    0.2775    2.0948   -0.0362 H   0  0  0  0  0  0  0  0  0  0  0  0
   -1.0406    2.3006    1.1584 H   0  0  0  0  0  0  0  0  0  0  0  0
    0.6111    2.7671    1.6415 H   0  0  0  0  0  0  0  0  0  0  0  0
    1.9560   -0.3529    2.3408 H   0  0  0  0  0  0  0  0  0  0  0  0
    2.1223   -1.2600   -0.0377 H   0  0  0  0  0  0  0  0  0  0  0  0
    1.8166    0.4775   -0.6578 H   0  0  0  0  0  0  0  0  0  0  0  0
    2.2326    2.1059    0.5933 H   0  0  0  0  0  0  0  0  0  0  0  0
    3.0600    1.7448    2.2383 H   0  0  0  0  0  0  0  0  0  0  0  0
    4.0421    1.3517   -1.0699 H   0  0  0  0  0  0  0  0  0  0  0  0
    3.7626   -1.2266   -1.3527 H   0  0  0  0  0  0  0  0  0  0  0  0
    5.2764   -0.3645   -1.9778 H   0  0  0  0  0  0  0  0  0  0  0  0
    6.3265   -2.0434   -0.6338 H   0  0  0  0  0  0  0  0  0  0  0  0
    4.9099   -2.0949    0.4866 H   0  0  0  0  0  0  0  0  0  0  0  0
    5.7889    1.7645    0.8807 H   0  0  0  0  0  0  0  0  0  0  0  0
    6.3706    1.1785   -0.7113 H   0  0  0  0  0  0  0  0  0  0  0  0
   -3.5042    1.1066   -0.6083 H   0  0  0  0  0  0  0  0  0  0  0  0
  1  2  1  0
  2  3  1  0
  3  4  2  0
  4  5  1  0
  5  6  2  0
  6  7  1  0
  7  8  2  0
  8  9  1  0
  9 10  1  0
 10 11  1  0
 11 12  1  0
 12 13  1  0
 12 14  1  0
 14 15  1  0
 15 16  1  0
 16 17  1  0
 16 18  1  0
 18 19  1  0
 19 20  1  0
 20 21  1  0
 21 22  2  0
 21 23  1  0
  9 24  1  0
 24 25  2  0
 25  3  1  0
 24  6  1  0
 17 14  1  0
 23 18  1  0
  1 26  1  0
  1 27  1  0
  1 28  1  0
  4 29  1  0
  5 30  1  0
  7 31  1  0
  8 32  1  0
 10 33  1  0
 10 34  1  0
 11 35  1  0
 11 36  1  0
 13 37  1  0
 13 38  1  0
 13 39  1  0
 14 40  1  0
 15 41  1  0
 15 42  1  0
 17 43  1  0
 17 44  1  0
 18 45  1  6
 19 46  1  0
 19 47  1  0
 20 48  1  0
 20 49  1  0
 23 50  1  0
 23 51  1  0
 25 52  1  0
M  END
$$$$
[H]c1c([H])c([H])c2c(c1[H])c1c3c(c4c5c([H])c([H])c([H])c([H])c5n5c4c1n2[C@@]1(C([H])([H])[H])O[C@]5([H])C([H])([H])[C@@]([H])(N([H])C([H])([H])[H])[C@@]1([H])OC([H])([H])[H])C(=O)N([H])C3([H])[H]
     RDKit          3D

 61 68  0  0  0  0  0  0  0  0999 V2000
   -3.3415   -2.0929    0.8927 C   0  0  0  0  0  0  0  0  0  0  0  0
   -2.7520   -0.8244    0.5060 N   0  0  0  0  0  0  0  0  0  0  0  0
   -2.5947   -0.7699   -0.9652 C   0  0  2  0  0  0  0  0  0  0  0  0
   -1.6635   -1.8336   -1.3456 C   0  0  0  0  0  0  0  0  0  0  0  0
   -0.4098   -1.3263   -1.9401 C   0  0  1  0  0  0  0  0  0  0  0  0
   -0.2904   -0.0961   -2.3609 O   0  0  0  0  0  0  0  0  0  0  0  0
   -0.9141    0.9817   -1.7381 C   0  0  1  0  0  0  0  0  0  0  0  0
   -0.8729    2.0231   -2.8643 C   0  0  0  0  0  0  0  0  0  0  0  0
   -2.2914    0.6326   -1.4119 C   0  0  2  0  0  0  0  0  0  0  0  0
   -2.9229    1.4324   -0.4622 O   0  0  0  0  0  0  0  0  0  0  0  0
   -4.0664    2.0564   -0.9455 C   0  0  0  0  0  0  0  0  0  0  0  0
   -0.0747    1.3904   -0.5981 N   0  0  0  0  0  0  0  0  0  0  0  0
    0.0066    2.5943   -0.0347 C   0  0  0  0  0  0  0  0  0  0  0  0
   -0.6403    3.7755   -0.2701 C   0  0  0  0  0  0  0  0  0  0  0  0
   -0.3753    4.9057    0.4704 C   0  0  0  0  0  0  0  0  0  0  0  0
    0.5715    4.8915    1.4994 C   0  0  0  0  0  0  0  0  0  0  0  0
    1.2169    3.7192    1.7374 C   0  0  0  0  0  0  0  0  0  0  0  0
    0.9447    2.6014    0.9941 C   0  0  0  0  0  0  0  0  0  0  0  0
    1.4533    1.3308    1.0530 C   0  0  0  0  0  0  0  0  0  0  0  0
    2.4134    0.7192    1.8621 C   0  0  0  0  0  0  0  0  0  0  0  0
    3.2252    1.2814    2.9656 C   0  0  0  0  0  0  0  0  0  0  0  0
    4.0513    0.2282    3.4563 N   0  0  0  0  0  0  0  0  0  0  0  0
    3.7725   -0.9500    2.6928 C   0  0  0  0  0  0  0  0  0  0  0  0
    4.3602   -2.0093    2.9202 O   0  0  0  0  0  0  0  0  0  0  0  0
    2.7553   -0.6238    1.7110 C   0  0  0  0  0  0  0  0  0  0  0  0
    2.1006   -1.3257    0.7242 C   0  0  0  0  0  0  0  0  0  0  0  0
    2.1422   -2.6347    0.2794 C   0  0  0  0  0  0  0  0  0  0  0  0
    2.8759   -3.7217    0.6638 C   0  0  0  0  0  0  0  0  0  0  0  0
    2.6892   -4.9254    0.0128 C   0  0  0  0  0  0  0  0  0  0  0  0
    1.7808   -5.0386   -1.0084 C   0  0  0  0  0  0  0  0  0  0  0  0
    1.0343   -3.9515   -1.4066 C   0  0  0  0  0  0  0  0  0  0  0  0
    1.2263   -2.7646   -0.7562 C   0  0  0  0  0  0  0  0  0  0  0  0
    0.6469   -1.5975   -0.9447 N   0  0  0  0  0  0  0  0  0  0  0  0
    1.1358   -0.7009   -0.0851 C   0  0  0  0  0  0  0  0  0  0  0  0
    0.8119    0.6350    0.0794 C   0  0  0  0  0  0  0  0  0  0  0  0
   -3.9345   -1.8764    1.8249 H   0  0  0  0  0  0  0  0  0  0  0  0
   -2.5804   -2.8202    1.1896 H   0  0  0  0  0  0  0  0  0  0  0  0
   -4.0376   -2.4413    0.1071 H   0  0  0  0  0  0  0  0  0  0  0  0
   -1.8252   -0.7857    0.9817 H   0  0  0  0  0  0  0  0  0  0  0  0
   -3.6418   -1.0758   -1.3069 H   0  0  0  0  0  0  0  0  0  0  0  0
   -1.4743   -2.5407   -0.4944 H   0  0  0  0  0  0  0  0  0  0  0  0
   -2.1827   -2.5069   -2.1019 H   0  0  0  0  0  0  0  0  0  0  0  0
   -0.1764   -2.0147   -2.8352 H   0  0  0  0  0  0  0  0  0  0  0  0
   -1.8561    2.5173   -2.9808 H   0  0  0  0  0  0  0  0  0  0  0  0
   -0.0367    2.7359   -2.7018 H   0  0  0  0  0  0  0  0  0  0  0  0
   -0.6761    1.5932   -3.8662 H   0  0  0  0  0  0  0  0  0  0  0  0
   -2.9127    0.7625   -2.3525 H   0  0  0  0  0  0  0  0  0  0  0  0
   -4.5472    2.6842   -0.1440 H   0  0  0  0  0  0  0  0  0  0  0  0
   -3.8494    2.7776   -1.7563 H   0  0  0  0  0  0  0  0  0  0  0  0
   -4.7942    1.3294   -1.3803 H   0  0  0  0  0  0  0  0  0  0  0  0
   -1.3647    3.8112   -1.0348 H   0  0  0  0  0  0  0  0  0  0  0  0
   -0.8845    5.8355    0.2847 H   0  0  0  0  0  0  0  0  0  0  0  0
    0.7949    5.7654    2.0918 H   0  0  0  0  0  0  0  0  0  0  0  0
    1.9682    3.6487    2.5304 H   0  0  0  0  0  0  0  0  0  0  0  0
    3.8868    2.0907    2.5395 H   0  0  0  0  0  0  0  0  0  0  0  0
    2.5967    1.6993    3.7873 H   0  0  0  0  0  0  0  0  0  0  0  0
    4.7363    0.3270    4.2421 H   0  0  0  0  0  0  0  0  0  0  0  0
    3.5871   -3.7061    1.4353 H   0  0  0  0  0  0  0  0  0  0  0  0
    3.2659   -5.8106    0.3031 H   0  0  0  0  0  0  0  0  0  0  0  0
    1.6292   -5.9934   -1.5280 H   0  0  0  0  0  0  0  0  0  0  0  0
    0.3048   -4.0175   -2.2172 H   0  0  0  0  0  0  0  0  0  0  0  0
  1  2  1  0
  2  3  1  0
  3  4  1  0
  4  5  1  0
  5  6  1  0
  6  7  1  0
  7  8  1  6
  7  9  1  0
  9 10  1  0
 10 11  1  0
  7 12  1  0
 12 13  1  0
 13 14  2  0
 14 15  1  0
 15 16  2  0
 16 17  1  0
 17 18  2  0
 18 19  1  0
 19 20  2  0
 20 21  1  0
 21 22  1  0
 22 23  1  0
 23 24  2  0
 23 25  1  0
 25 26  2  0
 26 27  1  0
 27 28  2  0
 28 29  1  0
 29 30  2  0
 30 31  1  0
 31 32  2  0
 32 33  1  0
 33 34  1  0
 34 35  2  0
  9  3  1  0
 35 12  1  0
 33  5  1  0
 18 13  1  0
 35 19  1  0
 25 20  1  0
 34 26  1  0
 32 27  1  0
  1 36  1  0
  1 37  1  0
  1 38  1  0
  2 39  1  0
  3 40  1  6
  4 41  1  0
  4 42  1  0
  5 43  1  6
  8 44  1  0
  8 45  1  0
  8 46  1  0
  9 47  1  6
 11 48  1  0
 11 49  1  0
 11 50  1  0
 14 51  1  0
 15 52  1  0
 16 53  1  0
 17 54  1  0
 21 55  1  0
 21 56  1  0
 22 57  1  0
 28 58  1  0
 29 59  1  0
 30 60  1  0
 31 61  1  0
M  END
$$$$
[H]N([H])C(=O)C1(N([H])C(=O)C2([H])C(=O)OC(C([H])([H])[H])(C([H])([H])[H])C2([H])[H])C([H])([H])C([H])([H])C([H])([H])C1([H])[H]
     RDKit          3D

 39 40  0  0  0  0  0  0  0  0999 V2000
    3.7017   -2.1666   -0.0849 C   0  0  0  0  0  0  0  0  0  0  0  0
    3.5685   -0.6712   -0.0816 C   0  0  0  0  0  0  0  0  0  0  0  0
    4.7119    0.0243    0.6170 C   0  0  0  0  0  0  0  0  0  0  0  0
    2.2215   -0.2779    0.4967 C   0  0  0  0  0  0  0  0  0  0  0  0
    1.7441    0.8554   -0.3853 C   0  0  0  0  0  0  0  0  0  0  0  0
    0.3105    0.7561   -0.7081 C   0  0  0  0  0  0  0  0  0  0  0  0
   -0.0206    0.6659   -1.9196 O   0  0  0  0  0  0  0  0  0  0  0  0
   -0.7062    0.7585    0.2936 N   0  0  0  0  0  0  0  0  0  0  0  0
   -2.1036    0.6678    0.0446 C   0  0  0  0  0  0  0  0  0  0  0  0
   -2.5253   -0.5698   -0.6906 C   0  0  0  0  0  0  0  0  0  0  0  0
   -2.8353   -1.5915    0.3617 C   0  0  0  0  0  0  0  0  0  0  0  0
   -3.6438   -0.7284    1.3314 C   0  0  0  0  0  0  0  0  0  0  0  0
   -2.8345    0.5283    1.3684 C   0  0  0  0  0  0  0  0  0  0  0  0
   -2.5701    1.8570   -0.7004 C   0  0  0  0  0  0  0  0  0  0  0  0
   -3.9250    2.0310   -1.1033 N   0  0  0  0  0  0  0  0  0  0  0  0
   -1.7518    2.7489   -0.9921 O   0  0  0  0  0  0  0  0  0  0  0  0
    2.5673    0.7375   -1.6151 C   0  0  0  0  0  0  0  0  0  0  0  0
    2.4090    1.3944   -2.6785 O   0  0  0  0  0  0  0  0  0  0  0  0
    3.5584   -0.2163   -1.4320 O   0  0  0  0  0  0  0  0  0  0  0  0
    4.3087   -2.4742   -0.9721 H   0  0  0  0  0  0  0  0  0  0  0  0
    2.7012   -2.6035   -0.2302 H   0  0  0  0  0  0  0  0  0  0  0  0
    4.1002   -2.5739    0.8577 H   0  0  0  0  0  0  0  0  0  0  0  0
    5.0194   -0.4790    1.5545 H   0  0  0  0  0  0  0  0  0  0  0  0
    4.4071    1.0842    0.7734 H   0  0  0  0  0  0  0  0  0  0  0  0
    5.5690    0.0768   -0.1121 H   0  0  0  0  0  0  0  0  0  0  0  0
    1.4999   -1.1086    0.4268 H   0  0  0  0  0  0  0  0  0  0  0  0
    2.3142    0.0130    1.5600 H   0  0  0  0  0  0  0  0  0  0  0  0
    2.0069    1.8021    0.1224 H   0  0  0  0  0  0  0  0  0  0  0  0
   -0.3705    0.8343    1.2774 H   0  0  0  0  0  0  0  0  0  0  0  0
   -3.5065   -0.3212   -1.1922 H   0  0  0  0  0  0  0  0  0  0  0  0
   -1.8580   -0.9084   -1.4714 H   0  0  0  0  0  0  0  0  0  0  0  0
   -3.4718   -2.4195   -0.0394 H   0  0  0  0  0  0  0  0  0  0  0  0
   -1.9039   -1.9379    0.8208 H   0  0  0  0  0  0  0  0  0  0  0  0
   -3.6785   -1.2521    2.3159 H   0  0  0  0  0  0  0  0  0  0  0  0
   -4.6545   -0.5764    0.8942 H   0  0  0  0  0  0  0  0  0  0  0  0
   -3.4500    1.4316    1.5982 H   0  0  0  0  0  0  0  0  0  0  0  0
   -2.1000    0.4196    2.2099 H   0  0  0  0  0  0  0  0  0  0  0  0
   -4.6912    2.0486   -0.4213 H   0  0  0  0  0  0  0  0  0  0  0  0
   -4.1185    2.1411   -2.1201 H   0  0  0  0  0  0  0  0  0  0  0  0
  1  2  1  0
  2  3  1  0
  2  4  1  0
  4  5  1  0
  5  6  1  0
  6  7  2  0
  6  8  1  0
  8  9  1  0
  9 10  1  0
 10 11  1  0
 11 12  1  0
 12 13  1  0
  9 14  1  0
 14 15  1  0
 14 16  2  0
  5 17  1  0
 17 18  2  0
 17 19  1  0
 19  2  1  0
 13  9  1  0
  1 20  1  0
  1 21  1  0
  1 22  1  0
  3 23  1  0
  3 24  1  0
  3 25  1  0
  4 26  1  0
  4 27  1  0
  5 28  1  0
  8 29  1  0
 10 30  1  0
 10 31  1  0
 11 32  1  0
 11 33  1  0
 12 34  1  0
 12 35  1  0
 13 36  1  0
 13 37  1  0
 15 38  1  0
 15 39  1  0
M  END
$$$$
[H]c1nc([H])c(-c2c(C(=O)OC([H])([H])C([H])([H])[H])n([H])c3nc(C(F)(F)F)c([H])c(-c4c([H])c([H])c([H])c([H])c4[H])c23)c([H])c1[H]
     RDKit          3D

 46 49  0  0  0  0  0  0  0  0999 V2000
    5.7771   -0.4606   -0.2190 C   0  0  0  0  0  0  0  0  0  0  0  0
    5.4295   -0.1222    1.2041 C   0  0  0  0  0  0  0  0  0  0  0  0
    4.0663   -0.4399    1.4644 O   0  0  0  0  0  0  0  0  0  0  0  0
    2.9796    0.0757    0.7954 C   0  0  0  0  0  0  0  0  0  0  0  0
    3.1745    0.9096   -0.1086 O   0  0  0  0  0  0  0  0  0  0  0  0
    1.6171   -0.3258    1.1009 C   0  0  0  0  0  0  0  0  0  0  0  0
    1.2098   -1.1544    2.0741 N   0  0  0  0  0  0  0  0  0  0  0  0
   -0.0942   -1.3705    2.0201 C   0  0  0  0  0  0  0  0  0  0  0  0
   -0.9407   -2.0759    2.7663 N   0  0  0  0  0  0  0  0  0  0  0  0
   -2.2611   -2.1186    2.5158 C   0  0  0  0  0  0  0  0  0  0  0  0
   -2.7608   -1.4198    1.4571 C   0  0  0  0  0  0  0  0  0  0  0  0
   -1.9193   -0.6510    0.6229 C   0  0  0  0  0  0  0  0  0  0  0  0
   -2.5157   -0.1215   -0.5634 C   0  0  0  0  0  0  0  0  0  0  0  0
   -2.2632   -0.7541   -1.7803 C   0  0  0  0  0  0  0  0  0  0  0  0
   -2.7848   -0.4115   -2.9810 C   0  0  0  0  0  0  0  0  0  0  0  0
   -3.6476    0.6748   -2.9987 C   0  0  0  0  0  0  0  0  0  0  0  0
   -3.9262    1.3294   -1.8217 C   0  0  0  0  0  0  0  0  0  0  0  0
   -3.3741    0.9483   -0.5965 C   0  0  0  0  0  0  0  0  0  0  0  0
   -0.5945   -0.6328    0.9269 C   0  0  0  0  0  0  0  0  0  0  0  0
    0.4981    0.0256    0.3627 C   0  0  0  0  0  0  0  0  0  0  0  0
    0.5131    1.0049   -0.6838 C   0  0  0  0  0  0  0  0  0  0  0  0
    0.1238    2.3185   -0.3350 C   0  0  0  0  0  0  0  0  0  0  0  0
    0.1424    3.3681   -1.1991 C   0  0  0  0  0  0  0  0  0  0  0  0
    0.5581    3.1448   -2.4852 C   0  0  0  0  0  0  0  0  0  0  0  0
    0.9380    1.8704   -2.8635 N   0  0  0  0  0  0  0  0  0  0  0  0
    0.9137    0.8471   -1.9748 C   0  0  0  0  0  0  0  0  0  0  0  0
   -3.1503   -2.9150    3.4097 C   0  0  0  0  0  0  0  0  0  0  0  0
   -3.2700   -2.2330    4.6240 F   0  0  0  0  0  0  0  0  0  0  0  0
   -4.3559   -3.2042    2.8728 F   0  0  0  0  0  0  0  0  0  0  0  0
   -2.4752   -4.1178    3.6421 F   0  0  0  0  0  0  0  0  0  0  0  0
    6.3467    0.3326   -0.7357 H   0  0  0  0  0  0  0  0  0  0  0  0
    4.8798   -0.6715   -0.8406 H   0  0  0  0  0  0  0  0  0  0  0  0
    6.4489   -1.3595   -0.2244 H   0  0  0  0  0  0  0  0  0  0  0  0
    6.0078   -0.8442    1.8668 H   0  0  0  0  0  0  0  0  0  0  0  0
    5.7790    0.8648    1.4585 H   0  0  0  0  0  0  0  0  0  0  0  0
    1.8437   -1.5817    2.7960 H   0  0  0  0  0  0  0  0  0  0  0  0
   -3.8039   -1.4739    1.2562 H   0  0  0  0  0  0  0  0  0  0  0  0
   -1.5788   -1.6233   -1.7720 H   0  0  0  0  0  0  0  0  0  0  0  0
   -2.5683   -0.9135   -3.9120 H   0  0  0  0  0  0  0  0  0  0  0  0
   -4.1130    1.0037   -3.9145 H   0  0  0  0  0  0  0  0  0  0  0  0
   -4.6175    2.1694   -1.8918 H   0  0  0  0  0  0  0  0  0  0  0  0
   -3.6541    1.5020    0.2668 H   0  0  0  0  0  0  0  0  0  0  0  0
   -0.1943    2.4406    0.6989 H   0  0  0  0  0  0  0  0  0  0  0  0
   -0.1578    4.3412   -0.8321 H   0  0  0  0  0  0  0  0  0  0  0  0
    0.5544    3.9844   -3.1448 H   0  0  0  0  0  0  0  0  0  0  0  0
    1.2197   -0.1597   -2.3240 H   0  0  0  0  0  0  0  0  0  0  0  0
  1  2  1  0
  2  3  1  0
  3  4  1  0
  4  5  2  0
  4  6  1  0
  6  7  1  0
  7  8  1  0
  8  9  2  0
  9 10  1  0
 10 11  2  0
 11 12  1  0
 12 13  1  0
 13 14  2  0
 14 15  1  0
 15 16  2  0
 16 17  1  0
 17 18  2  0
 12 19  2  0
 19 20  1  0
 20 21  1  0
 21 22  2  0
 22 23  1  0
 23 24  2  0
 24 25  1  0
 25 26  2  0
 10 27  1  0
 27 28  1  0
 27 29  1  0
 27 30  1  0
 20  6  2  0
 26 21  1  0
 19  8  1  0
 18 13  1  0
  1 31  1  0
  1 32  1  0
  1 33  1  0
  2 34  1  0
  2 35  1  0
  7 36  1  0
 11 37  1  0
 14 38  1  0
 15 39  1  0
 16 40  1  0
 17 41  1  0
 18 42  1  0
 22 43  1  0
 23 44  1  0
 24 45  1  0
 26 46  1  0
M  END
$$$$
[H]OC(=O)C([H])(c1c(O[H])c2c([H])c([H])c([H])nc2oc1=O)C([H])([H])C([H])([H])C([H])([H])C([H])([H])C([H])([H])C([H])([H])C([H])([H])[H]
     RDKit          3D

 44 45  0  0  0  0  0  0  0  0999 V2000
   -5.4015   -1.3585    1.0345 C   0  0  0  0  0  0  0  0  0  0  0  0
   -4.8585   -0.1207    0.3235 C   0  0  0  0  0  0  0  0  0  0  0  0
   -3.6458    0.4030    1.0360 C   0  0  0  0  0  0  0  0  0  0  0  0
   -3.1508    1.6370    0.3225 C   0  0  0  0  0  0  0  0  0  0  0  0
   -2.7738    1.3544   -1.1051 C   0  0  0  0  0  0  0  0  0  0  0  0
   -1.6968    0.3120   -1.1801 C   0  0  0  0  0  0  0  0  0  0  0  0
   -0.4285    0.7547   -0.4472 C   0  0  0  0  0  0  0  0  0  0  0  0
    0.6367   -0.2918   -0.5466 C   0  0  0  0  0  0  0  0  0  0  0  0
    0.1840   -1.5634    0.0869 C   0  0  0  0  0  0  0  0  0  0  0  0
    0.2073   -1.7620    1.4589 O   0  0  0  0  0  0  0  0  0  0  0  0
   -0.2394   -2.5059   -0.6179 O   0  0  0  0  0  0  0  0  0  0  0  0
    1.9701    0.1576   -0.1274 C   0  0  0  0  0  0  0  0  0  0  0  0
    3.0765   -0.6206   -0.5151 C   0  0  0  0  0  0  0  0  0  0  0  0
    3.0113   -1.7469   -1.2873 O   0  0  0  0  0  0  0  0  0  0  0  0
    4.3434   -0.2259   -0.0931 C   0  0  0  0  0  0  0  0  0  0  0  0
    5.4808   -0.9344   -0.4291 C   0  0  0  0  0  0  0  0  0  0  0  0
    6.7372   -0.5284   -0.0024 C   0  0  0  0  0  0  0  0  0  0  0  0
    6.8090    0.6101    0.7704 C   0  0  0  0  0  0  0  0  0  0  0  0
    5.6874    1.2778    1.0813 N   0  0  0  0  0  0  0  0  0  0  0  0
    4.4485    0.9010    0.6766 C   0  0  0  0  0  0  0  0  0  0  0  0
    3.3835    1.6003    1.0148 O   0  0  0  0  0  0  0  0  0  0  0  0
    2.1635    1.2750    0.6466 C   0  0  0  0  0  0  0  0  0  0  0  0
    1.2008    2.0278    1.0334 O   0  0  0  0  0  0  0  0  0  0  0  0
   -4.9887   -2.2368    0.5453 H   0  0  0  0  0  0  0  0  0  0  0  0
   -6.5204   -1.3342    0.8995 H   0  0  0  0  0  0  0  0  0  0  0  0
   -5.1575   -1.3105    2.1263 H   0  0  0  0  0  0  0  0  0  0  0  0
   -4.6513   -0.4471   -0.7087 H   0  0  0  0  0  0  0  0  0  0  0  0
   -5.6084    0.6899    0.2523 H   0  0  0  0  0  0  0  0  0  0  0  0
   -3.8680    0.6322    2.1117 H   0  0  0  0  0  0  0  0  0  0  0  0
   -2.8557   -0.3690    1.0622 H   0  0  0  0  0  0  0  0  0  0  0  0
   -2.3224    2.0682    0.9262 H   0  0  0  0  0  0  0  0  0  0  0  0
   -3.9415    2.4479    0.3667 H   0  0  0  0  0  0  0  0  0  0  0  0
   -3.6664    0.9967   -1.6671 H   0  0  0  0  0  0  0  0  0  0  0  0
   -2.3831    2.3026   -1.5681 H   0  0  0  0  0  0  0  0  0  0  0  0
   -1.3895    0.2013   -2.2620 H   0  0  0  0  0  0  0  0  0  0  0  0
   -2.1073   -0.6360   -0.7902 H   0  0  0  0  0  0  0  0  0  0  0  0
   -0.7383    0.9294    0.6175 H   0  0  0  0  0  0  0  0  0  0  0  0
   -0.1575    1.7128   -0.8939 H   0  0  0  0  0  0  0  0  0  0  0  0
    0.7429   -0.4949   -1.6638 H   0  0  0  0  0  0  0  0  0  0  0  0
   -0.6032   -1.6345    2.0619 H   0  0  0  0  0  0  0  0  0  0  0  0
    2.2639   -2.1916   -1.7092 H   0  0  0  0  0  0  0  0  0  0  0  0
    5.3850   -1.8289   -1.0435 H   0  0  0  0  0  0  0  0  0  0  0  0
    7.6253   -1.0811   -0.2659 H   0  0  0  0  0  0  0  0  0  0  0  0
    7.7973    0.9314    1.1058 H   0  0  0  0  0  0  0  0  0  0  0  0
  1  2  1  0
  2  3  1  0
  3  4  1  0
  4  5  1  0
  5  6  1  0
  6  7  1  0
  7  8  1  0
  8  9  1  0
  9 10  1  0
  9 11  2  0
  8 12  1  0
 12 13  2  0
 13 14  1  0
 13 15  1  0
 15 16  2  0
 16 17  1  0
 17 18  2  0
 18 19  1  0
 19 20  2  0
 20 21  1  0
 21 22  1  0
 22 23  2  0
 22 12  1  0
 20 15  1  0
  1 24  1  0
  1 25  1  0
  1 26  1  0
  2 27  1  0
  2 28  1  0
  3 29  1  0
  3 30  1  0
  4 31  1  0
  4 32  1  0
  5 33  1  0
  5 34  1  0
  6 35  1  0
  6 36  1  0
  7 37  1  0
  7 38  1  0
  8 39  1  0
 10 40  1  0
 14 41  1  0
 16 42  1  0
 17 43  1  0
 18 44  1  0
M  END
$$$$
[H]c1c([H])c([H])c(C([H])([H])n2c(C3([H])C([H])([H])C([H])([H])N(C([H])([H])C([H])([H])C4(c5c([H])c([H])c(Cl)c(Cl)c5[H])/C(=N/OC([H])([H])[H])C4([H])[H])C([H])([H])C3([H])[H])nc3c([H])c([H])c([H])c([H])c32)c([H])c1[H]
     RDKit          3D

 70 75  0  0  0  0  0  0  0  0999 V2000
    7.1220    4.2144    0.1967 C   0  0  0  0  0  0  0  0  0  0  0  0
    6.6213    3.7947   -1.0804 O   0  0  0  0  0  0  0  0  0  0  0  0
    5.9961    2.6105   -1.2674 N   0  0  0  0  0  0  0  0  0  0  0  0
    5.4039    1.9955   -0.3144 C   0  0  0  0  0  0  0  0  0  0  0  0
    4.6061    0.8372    0.2329 C   0  0  0  0  0  0  0  0  0  0  0  0
    3.1885    0.7781   -0.2904 C   0  0  0  0  0  0  0  0  0  0  0  0
    2.4704   -0.4078    0.3079 C   0  0  0  0  0  0  0  0  0  0  0  0
    1.1163   -0.5223   -0.1478 N   0  0  0  0  0  0  0  0  0  0  0  0
    0.2531    0.5389    0.3321 C   0  0  0  0  0  0  0  0  0  0  0  0
   -1.0407    0.4031   -0.4853 C   0  0  0  0  0  0  0  0  0  0  0  0
   -1.7579   -0.7991    0.0885 C   0  0  0  0  0  0  0  0  0  0  0  0
   -0.8466   -1.9999   -0.1168 C   0  0  0  0  0  0  0  0  0  0  0  0
    0.5573   -1.7650    0.3109 C   0  0  0  0  0  0  0  0  0  0  0  0
   -3.0177   -1.0842   -0.6377 C   0  0  0  0  0  0  0  0  0  0  0  0
   -3.1407   -1.4022   -1.9493 N   0  0  0  0  0  0  0  0  0  0  0  0
   -4.4035   -1.6148   -2.2595 C   0  0  0  0  0  0  0  0  0  0  0  0
   -5.0713   -1.9683   -3.4222 C   0  0  0  0  0  0  0  0  0  0  0  0
   -6.4370   -2.1403   -3.4647 C   0  0  0  0  0  0  0  0  0  0  0  0
   -7.1814   -1.9605   -2.3275 C   0  0  0  0  0  0  0  0  0  0  0  0
   -6.5034   -1.6029   -1.1540 C   0  0  0  0  0  0  0  0  0  0  0  0
   -5.1381   -1.4322   -1.1217 C   0  0  0  0  0  0  0  0  0  0  0  0
   -4.2739   -1.1020   -0.1207 N   0  0  0  0  0  0  0  0  0  0  0  0
   -4.6803   -0.8267    1.2215 C   0  0  0  0  0  0  0  0  0  0  0  0
   -5.0044    0.5997    1.4859 C   0  0  0  0  0  0  0  0  0  0  0  0
   -4.0316    1.4845    1.9007 C   0  0  0  0  0  0  0  0  0  0  0  0
   -4.3684    2.8096    2.1429 C   0  0  0  0  0  0  0  0  0  0  0  0
   -5.6473    3.3015    1.9894 C   0  0  0  0  0  0  0  0  0  0  0  0
   -6.6148    2.4248    1.5784 C   0  0  0  0  0  0  0  0  0  0  0  0
   -6.2855    1.1079    1.3367 C   0  0  0  0  0  0  0  0  0  0  0  0
    4.9725    1.8924    1.1373 C   0  0  0  0  0  0  0  0  0  0  0  0
    5.3152   -0.4720    0.1752 C   0  0  0  0  0  0  0  0  0  0  0  0
    5.3107   -1.3113    1.2503 C   0  0  0  0  0  0  0  0  0  0  0  0
    5.9851   -2.5091    1.1362 C   0  0  0  0  0  0  0  0  0  0  0  0
    6.6447   -2.8399   -0.0416 C   0  0  0  0  0  0  0  0  0  0  0  0
    7.5032   -4.3631   -0.1889 Cl  0  0  0  0  0  0  0  0  0  0  0  0
    6.6334   -1.9784   -1.1064 C   0  0  0  0  0  0  0  0  0  0  0  0
    7.4449   -2.3568   -2.5900 Cl  0  0  0  0  0  0  0  0  0  0  0  0
    5.9621   -0.7785   -1.0024 C   0  0  0  0  0  0  0  0  0  0  0  0
    7.7561    5.1137    0.0748 H   0  0  0  0  0  0  0  0  0  0  0  0
    6.2390    4.4333    0.8396 H   0  0  0  0  0  0  0  0  0  0  0  0
    7.7490    3.4464    0.6679 H   0  0  0  0  0  0  0  0  0  0  0  0
    3.1810    0.6106   -1.4084 H   0  0  0  0  0  0  0  0  0  0  0  0
    2.6584    1.7236   -0.1402 H   0  0  0  0  0  0  0  0  0  0  0  0
    2.9887   -1.3441   -0.0568 H   0  0  0  0  0  0  0  0  0  0  0  0
    2.5364   -0.4439    1.4103 H   0  0  0  0  0  0  0  0  0  0  0  0
    0.0316    0.2909    1.4088 H   0  0  0  0  0  0  0  0  0  0  0  0
    0.6716    1.5390    0.2581 H   0  0  0  0  0  0  0  0  0  0  0  0
   -0.7716    0.1881   -1.5233 H   0  0  0  0  0  0  0  0  0  0  0  0
   -1.5843    1.3496   -0.3371 H   0  0  0  0  0  0  0  0  0  0  0  0
   -1.9175   -0.7153    1.1647 H   0  0  0  0  0  0  0  0  0  0  0  0
   -1.2508   -2.8624    0.4460 H   0  0  0  0  0  0  0  0  0  0  0  0
   -0.9316   -2.2623   -1.2041 H   0  0  0  0  0  0  0  0  0  0  0  0
    0.6356   -1.8830    1.4059 H   0  0  0  0  0  0  0  0  0  0  0  0
    1.1825   -2.5798   -0.1577 H   0  0  0  0  0  0  0  0  0  0  0  0
   -4.4931   -2.1131   -4.3270 H   0  0  0  0  0  0  0  0  0  0  0  0
   -6.9554   -2.4153   -4.3708 H   0  0  0  0  0  0  0  0  0  0  0  0
   -8.2610   -2.0812   -2.2954 H   0  0  0  0  0  0  0  0  0  0  0  0
   -7.0830   -1.4711   -0.2629 H   0  0  0  0  0  0  0  0  0  0  0  0
   -5.6427   -1.3836    1.4319 H   0  0  0  0  0  0  0  0  0  0  0  0
   -3.9800   -1.2362    1.9833 H   0  0  0  0  0  0  0  0  0  0  0  0
   -2.9828    1.1940    2.0659 H   0  0  0  0  0  0  0  0  0  0  0  0
   -3.6188    3.5255    2.4703 H   0  0  0  0  0  0  0  0  0  0  0  0
   -5.8875    4.3473    2.1853 H   0  0  0  0  0  0  0  0  0  0  0  0
   -7.6362    2.7922    1.4497 H   0  0  0  0  0  0  0  0  0  0  0  0
   -7.1159    0.4867    1.0282 H   0  0  0  0  0  0  0  0  0  0  0  0
    4.2414    2.6698    1.3852 H   0  0  0  0  0  0  0  0  0  0  0  0
    5.8344    1.8347    1.8425 H   0  0  0  0  0  0  0  0  0  0  0  0
    4.7867   -1.0182    2.1480 H   0  0  0  0  0  0  0  0  0  0  0  0
    6.0104   -3.1994    1.9497 H   0  0  0  0  0  0  0  0  0  0  0  0
    5.9473   -0.0922   -1.8362 H   0  0  0  0  0  0  0  0  0  0  0  0
  1  2  1  0
  2  3  1  0
  3  4  2  0
  4  5  1  0
  5  6  1  0
  6  7  1  0
  7  8  1  0
  8  9  1  0
  9 10  1  0
 10 11  1  0
 11 12  1  0
 12 13  1  0
 11 14  1  0
 14 15  2  0
 15 16  1  0
 16 17  2  0
 17 18  1  0
 18 19  2  0
 19 20  1  0
 20 21  2  0
 21 22  1  0
 22 23  1  0
 23 24  1  0
 24 25  2  0
 25 26  1  0
 26 27  2  0
 27 28  1  0
 28 29  2  0
  5 30  1  0
  5 31  1  0
 31 32  2  0
 32 33  1  0
 33 34  2  0
 34 35  1  0
 34 36  1  0
 36 37  1  0
 36 38  2  0
 30  4  1  0
 38 31  1  0
 13  8  1  0
 22 14  1  0
 29 24  1  0
 21 16  1  0
  1 39  1  0
  1 40  1  0
  1 41  1  0
  6 42  1  0
  6 43  1  0
  7 44  1  0
  7 45  1  0
  9 46  1  0
  9 47  1  0
 10 48  1  0
 10 49  1  0
 11 50  1  0
 12 51  1  0
 12 52  1  0
 13 53  1  0
 13 54  1  0
 17 55  1  0
 18 56  1  0
 19 57  1  0
 20 58  1  0
 23 59  1  0
 23 60  1  0
 25 61  1  0
 26 62  1  0
 27 63  1  0
 28 64  1  0
 29 65  1  0
 30 66  1  0
 30 67  1  0
 32 68  1  0
 33 69  1  0
 38 70  1  0
M  END
$$$$
[H]O[C@]1([H])C([H])([H])C([H])([H])[C@@]([H])(O[C@]2([H])C(=O)c3c(OC([H])([H])[H])c([H])c([H])c(OC([H])([H])[H])c3[C@@]2([H])c2c([H])c([H])c([H])c(C(F)(F)F)c2[H])C([H])([H])C1([H])[H]
     RDKit          3D

 57 60  0  0  0  0  0  0  0  0999 V2000
   -5.1321    1.3058    0.3638 C   0  0  0  0  0  0  0  0  0  0  0  0
   -3.8330    0.8916   -0.0157 O   0  0  0  0  0  0  0  0  0  0  0  0
   -3.4447   -0.4085    0.2608 C   0  0  0  0  0  0  0  0  0  0  0  0
   -4.2440   -1.3249    0.8909 C   0  0  0  0  0  0  0  0  0  0  0  0
   -3.8331   -2.6546    1.1623 C   0  0  0  0  0  0  0  0  0  0  0  0
   -2.5760   -3.0082    0.7649 C   0  0  0  0  0  0  0  0  0  0  0  0
   -2.0499   -4.2665    0.9678 O   0  0  0  0  0  0  0  0  0  0  0  0
   -2.7821   -5.2698    1.5870 C   0  0  0  0  0  0  0  0  0  0  0  0
   -1.7458   -2.0678    0.1139 C   0  0  0  0  0  0  0  0  0  0  0  0
   -0.4013   -2.2607   -0.3898 C   0  0  0  0  0  0  0  0  0  0  0  0
    0.1049   -3.3598   -0.7007 O   0  0  0  0  0  0  0  0  0  0  0  0
    0.1684   -0.8654   -0.4301 C   0  0  1  0  0  0  0  0  0  0  0  0
    1.2140   -0.7951   -1.2770 O   0  0  0  0  0  0  0  0  0  0  0  0
    2.4186   -0.2923   -0.8934 C   0  0  1  0  0  0  0  0  0  0  0  0
    3.3714   -1.4258   -0.4172 C   0  0  0  0  0  0  0  0  0  0  0  0
    4.7866   -1.2153   -0.8817 C   0  0  0  0  0  0  0  0  0  0  0  0
    5.2720    0.1813   -0.5778 C   0  0  2  0  0  0  0  0  0  0  0  0
    5.1807    0.3543    0.7957 O   0  0  0  0  0  0  0  0  0  0  0  0
    4.3536    1.1730   -1.2343 C   0  0  0  0  0  0  0  0  0  0  0  0
    3.1813    0.4802   -1.9128 C   0  0  0  0  0  0  0  0  0  0  0  0
   -1.0442   -0.0861   -0.8331 C   0  0  1  0  0  0  0  0  0  0  0  0
   -2.1672   -0.7766   -0.1414 C   0  0  0  0  0  0  0  0  0  0  0  0
   -0.9366    1.3481   -0.5393 C   0  0  0  0  0  0  0  0  0  0  0  0
   -1.4806    2.2366   -1.4505 C   0  0  0  0  0  0  0  0  0  0  0  0
   -1.4220    3.6087   -1.2666 C   0  0  0  0  0  0  0  0  0  0  0  0
   -0.8099    4.1362   -0.1526 C   0  0  0  0  0  0  0  0  0  0  0  0
   -0.2547    3.2594    0.7797 C   0  0  0  0  0  0  0  0  0  0  0  0
   -0.3307    1.9096    0.5637 C   0  0  0  0  0  0  0  0  0  0  0  0
    0.4385    3.7931    1.9881 C   0  0  0  0  0  0  0  0  0  0  0  0
   -0.2886    4.8427    2.5666 F   0  0  0  0  0  0  0  0  0  0  0  0
    0.5332    2.7403    2.8943 F   0  0  0  0  0  0  0  0  0  0  0  0
    1.6903    4.2613    1.6096 F   0  0  0  0  0  0  0  0  0  0  0  0
   -5.2398    2.4209    0.4224 H   0  0  0  0  0  0  0  0  0  0  0  0
   -5.8383    0.8672   -0.3789 H   0  0  0  0  0  0  0  0  0  0  0  0
   -5.4171    0.8867    1.3530 H   0  0  0  0  0  0  0  0  0  0  0  0
   -5.2391   -1.0622    1.2185 H   0  0  0  0  0  0  0  0  0  0  0  0
   -4.4964   -3.3150    1.6509 H   0  0  0  0  0  0  0  0  0  0  0  0
   -2.6270   -5.2457    2.6842 H   0  0  0  0  0  0  0  0  0  0  0  0
   -2.5043   -6.3008    1.1799 H   0  0  0  0  0  0  0  0  0  0  0  0
   -3.8773   -5.2320    1.3893 H   0  0  0  0  0  0  0  0  0  0  0  0
    0.3554   -0.5845    0.6293 H   0  0  0  0  0  0  0  0  0  0  0  0
    2.2838    0.2854    0.0250 H   0  0  0  0  0  0  0  0  0  0  0  0
    3.0553   -2.4162   -0.7039 H   0  0  0  0  0  0  0  0  0  0  0  0
    3.4235   -1.4260    0.7183 H   0  0  0  0  0  0  0  0  0  0  0  0
    5.4169   -1.8807   -0.1821 H   0  0  0  0  0  0  0  0  0  0  0  0
    5.0125   -1.5972   -1.8719 H   0  0  0  0  0  0  0  0  0  0  0  0
    6.3152    0.3129   -0.8907 H   0  0  0  0  0  0  0  0  0  0  0  0
    6.0552    0.6107    1.1952 H   0  0  0  0  0  0  0  0  0  0  0  0
    4.8564    1.7828   -2.0187 H   0  0  0  0  0  0  0  0  0  0  0  0
    3.9640    1.8943   -0.4969 H   0  0  0  0  0  0  0  0  0  0  0  0
    3.6304   -0.1701   -2.7049 H   0  0  0  0  0  0  0  0  0  0  0  0
    2.5896    1.3187   -2.3842 H   0  0  0  0  0  0  0  0  0  0  0  0
   -1.1391   -0.2152   -1.9430 H   0  0  0  0  0  0  0  0  0  0  0  0
   -1.9622    1.9083   -2.3551 H   0  0  0  0  0  0  0  0  0  0  0  0
   -1.8658    4.2700   -2.0037 H   0  0  0  0  0  0  0  0  0  0  0  0
   -0.7871    5.2045   -0.0199 H   0  0  0  0  0  0  0  0  0  0  0  0
    0.0985    1.2388    1.2927 H   0  0  0  0  0  0  0  0  0  0  0  0
  1  2  1  0
  2  3  1  0
  3  4  2  0
  4  5  1  0
  5  6  2  0
  6  7  1  0
  7  8  1  0
  6  9  1  0
  9 10  1  0
 10 11  2  0
 10 12  1  0
 12 13  1  0
 13 14  1  0
 14 15  1  0
 15 16  1  0
 16 17  1  0
 17 18  1  0
 17 19  1  0
 19 20  1  0
 12 21  1  0
 21 22  1  0
 21 23  1  0
 23 24  2  0
 24 25  1  0
 25 26  2  0
 26 27  1  0
 27 28  2  0
 27 29  1  0
 29 30  1  0
 29 31  1  0
 29 32  1  0
 22  3  1  0
 28 23  1  0
 22  9  2  0
 20 14  1  0
  1 33  1  0
  1 34  1  0
  1 35  1  0
  4 36  1  0
  5 37  1  0
  8 38  1  0
  8 39  1  0
  8 40  1  0
 12 41  1  1
 14 42  1  1
 15 43  1  0
 15 44  1  0
 16 45  1  0
 16 46  1  0
 17 47  1  6
 18 48  1  0
 19 49  1  0
 19 50  1  0
 20 51  1  0
 20 52  1  0
 21 53  1  6
 24 54  1  0
 25 55  1  0
 26 56  1  0
 28 57  1  0
M  END
$$$$
[H]c1nc(N([H])[H])c(C(=O)N([H])c2nc([H])c([H])c([H])c2N2C([H])([H])C([H])([H])C(N([H])[H])(C([H])([H])[H])C([H])([H])C2([H])[H])nc1-c1nc(N2C([H])([H])C([H])([H])OC([H])([H])C2([H])[H])c([H])c([H])c1C(F)(F)F
     RDKit          3D

 70 74  0  0  0  0  0  0  0  0999 V2000
   -6.0684    2.8322    1.7177 C   0  0  0  0  0  0  0  0  0  0  0  0
   -5.1763    2.5712    0.5068 C   0  0  0  0  0  0  0  0  0  0  0  0
   -5.4636    3.6286   -0.4406 N   0  0  0  0  0  0  0  0  0  0  0  0
   -3.7633    2.6440    0.9646 C   0  0  0  0  0  0  0  0  0  0  0  0
   -2.7320    2.1043    0.0569 C   0  0  0  0  0  0  0  0  0  0  0  0
   -3.1451    0.9243   -0.6218 N   0  0  0  0  0  0  0  0  0  0  0  0
   -4.5103    0.6089   -0.8923 C   0  0  0  0  0  0  0  0  0  0  0  0
   -5.5433    1.2025   -0.0141 C   0  0  0  0  0  0  0  0  0  0  0  0
   -2.1364    0.0213   -1.0756 C   0  0  0  0  0  0  0  0  0  0  0  0
   -1.9176   -0.0826   -2.4321 C   0  0  0  0  0  0  0  0  0  0  0  0
   -0.9239   -0.9197   -2.8855 C   0  0  0  0  0  0  0  0  0  0  0  0
   -0.1948   -1.6165   -1.9190 C   0  0  0  0  0  0  0  0  0  0  0  0
   -0.4504   -1.4774   -0.6154 N   0  0  0  0  0  0  0  0  0  0  0  0
   -1.4008   -0.6826   -0.1201 C   0  0  0  0  0  0  0  0  0  0  0  0
   -1.7533   -0.6234    1.2458 N   0  0  0  0  0  0  0  0  0  0  0  0
   -1.1544   -1.1343    2.3750 C   0  0  0  0  0  0  0  0  0  0  0  0
   -1.9460   -1.0276    3.4440 O   0  0  0  0  0  0  0  0  0  0  0  0
    0.1209   -1.7489    2.6431 C   0  0  0  0  0  0  0  0  0  0  0  0
    1.1417   -1.7227    1.8180 N   0  0  0  0  0  0  0  0  0  0  0  0
    2.4018   -2.2283    2.0716 C   0  0  0  0  0  0  0  0  0  0  0  0
    2.5162   -2.7783    3.2895 C   0  0  0  0  0  0  0  0  0  0  0  0
    1.4720   -2.8343    4.2010 N   0  0  0  0  0  0  0  0  0  0  0  0
    0.2863   -2.3351    3.9074 C   0  0  0  0  0  0  0  0  0  0  0  0
   -0.8095   -2.3901    4.8435 N   0  0  0  0  0  0  0  0  0  0  0  0
    3.4367   -1.9438    1.1076 C   0  0  0  0  0  0  0  0  0  0  0  0
    3.0532   -1.1161    0.0564 N   0  0  0  0  0  0  0  0  0  0  0  0
    3.8129   -0.7807   -0.9629 C   0  0  0  0  0  0  0  0  0  0  0  0
    5.0883   -1.3013   -0.9755 C   0  0  0  0  0  0  0  0  0  0  0  0
    5.5377   -2.1251    0.0205 C   0  0  0  0  0  0  0  0  0  0  0  0
    4.6873   -2.4628    1.0991 C   0  0  0  0  0  0  0  0  0  0  0  0
    5.2353   -3.4329    2.0451 C   0  0  0  0  0  0  0  0  0  0  0  0
    4.5531   -4.6310    2.1436 F   0  0  0  0  0  0  0  0  0  0  0  0
    5.7416   -2.8741    3.1595 F   0  0  0  0  0  0  0  0  0  0  0  0
    6.4315   -3.9683    1.3820 F   0  0  0  0  0  0  0  0  0  0  0  0
    3.3887    0.1053   -1.9825 N   0  0  0  0  0  0  0  0  0  0  0  0
    3.9373   -0.0202   -3.3091 C   0  0  0  0  0  0  0  0  0  0  0  0
    4.5850    1.3159   -3.6228 C   0  0  0  0  0  0  0  0  0  0  0  0
    4.4417    2.2201   -2.5710 O   0  0  0  0  0  0  0  0  0  0  0  0
    3.1176    2.4515   -2.2167 C   0  0  0  0  0  0  0  0  0  0  0  0
    2.4371    1.1726   -1.7548 C   0  0  0  0  0  0  0  0  0  0  0  0
   -5.5230    2.4161    2.6130 H   0  0  0  0  0  0  0  0  0  0  0  0
   -6.0984    3.9435    1.8777 H   0  0  0  0  0  0  0  0  0  0  0  0
   -7.0560    2.3829    1.6068 H   0  0  0  0  0  0  0  0  0  0  0  0
   -6.4301    4.0098   -0.3328 H   0  0  0  0  0  0  0  0  0  0  0  0
   -5.2328    3.3646   -1.4215 H   0  0  0  0  0  0  0  0  0  0  0  0
   -3.5294    3.7136    1.1580 H   0  0  0  0  0  0  0  0  0  0  0  0
   -3.6864    2.0962    1.9406 H   0  0  0  0  0  0  0  0  0  0  0  0
   -2.4219    2.8824   -0.7125 H   0  0  0  0  0  0  0  0  0  0  0  0
   -1.8157    1.8891    0.6668 H   0  0  0  0  0  0  0  0  0  0  0  0
   -4.5906   -0.5169   -0.7507 H   0  0  0  0  0  0  0  0  0  0  0  0
   -4.7389    0.8038   -1.9763 H   0  0  0  0  0  0  0  0  0  0  0  0
   -5.7880    0.5351    0.8437 H   0  0  0  0  0  0  0  0  0  0  0  0
   -6.4876    1.3141   -0.5902 H   0  0  0  0  0  0  0  0  0  0  0  0
   -2.5040    0.4748   -3.1548 H   0  0  0  0  0  0  0  0  0  0  0  0
   -0.6939   -1.0535   -3.9250 H   0  0  0  0  0  0  0  0  0  0  0  0
    0.5890   -2.2739   -2.3064 H   0  0  0  0  0  0  0  0  0  0  0  0
   -2.7430   -0.2008    1.4172 H   0  0  0  0  0  0  0  0  0  0  0  0
    3.4117   -3.1641    3.6846 H   0  0  0  0  0  0  0  0  0  0  0  0
   -0.8757   -1.6696    5.5905 H   0  0  0  0  0  0  0  0  0  0  0  0
   -1.4832   -3.1757    4.7016 H   0  0  0  0  0  0  0  0  0  0  0  0
    5.7510   -1.0456   -1.7919 H   0  0  0  0  0  0  0  0  0  0  0  0
    6.5588   -2.5249    0.0007 H   0  0  0  0  0  0  0  0  0  0  0  0
    4.6791   -0.8055   -3.4418 H   0  0  0  0  0  0  0  0  0  0  0  0
    3.1014   -0.1514   -4.0574 H   0  0  0  0  0  0  0  0  0  0  0  0
    5.6625    1.1285   -3.7934 H   0  0  0  0  0  0  0  0  0  0  0  0
    4.2013    1.7352   -4.5786 H   0  0  0  0  0  0  0  0  0  0  0  0
    3.1417    3.1529   -1.3612 H   0  0  0  0  0  0  0  0  0  0  0  0
    2.5375    2.9185   -3.0322 H   0  0  0  0  0  0  0  0  0  0  0  0
    1.5687    0.9883   -2.4238 H   0  0  0  0  0  0  0  0  0  0  0  0
    2.1614    1.2877   -0.7075 H   0  0  0  0  0  0  0  0  0  0  0  0
  1  2  1  0
  2  3  1  0
  2  4  1  0
  4  5  1  0
  5  6  1  0
  6  7  1  0
  7  8  1  0
  6  9  1  0
  9 10  2  0
 10 11  1  0
 11 12  2  0
 12 13  1  0
 13 14  2  0
 14 15  1  0
 15 16  1  0
 16 17  2  0
 16 18  1  0
 18 19  2  0
 19 20  1  0
 20 21  2  0
 21 22  1  0
 22 23  2  0
 23 24  1  0
 20 25  1  0
 25 26  2  0
 26 27  1  0
 27 28  2  0
 28 29  1  0
 29 30  2  0
 30 31  1  0
 31 32  1  0
 31 33  1  0
 31 34  1  0
 27 35  1  0
 35 36  1  0
 36 37  1  0
 37 38  1  0
 38 39  1  0
 39 40  1  0
  8  2  1  0
 14  9  1  0
 23 18  1  0
 30 25  1  0
 40 35  1  0
  1 41  1  0
  1 42  1  0
  1 43  1  0
  3 44  1  0
  3 45  1  0
  4 46  1  0
  4 47  1  0
  5 48  1  0
  5 49  1  0
  7 50  1  0
  7 51  1  0
  8 52  1  0
  8 53  1  0
 10 54  1  0
 11 55  1  0
 12 56  1  0
 15 57  1  0
 21 58  1  0
 24 59  1  0
 24 60  1  0
 28 61  1  0
 29 62  1  0
 36 63  1  0
 36 64  1  0
 37 65  1  0
 37 66  1  0
 39 67  1  0
 39 68  1  0
 40 69  1  0
 40 70  1  0
M  END
$$$$
[H]C([H])=C([H])C(C(=O)Oc1c([H])c([H])c2c(=O)c3c([H])c([H])c([H])c([H])c3nc([H])c2c1[H])(C([H])([H])[H])C([H])([H])[H]
     RDKit          3D

 41 43  0  0  0  0  0  0  0  0999 V2000
   -5.0159   -0.5732   -0.9934 C   0  0  0  0  0  0  0  0  0  0  0  0
   -4.3961   -0.1785    0.3381 C   0  0  0  0  0  0  0  0  0  0  0  0
   -5.0302   -0.9203    1.4953 C   0  0  0  0  0  0  0  0  0  0  0  0
   -4.6186    1.2801    0.5833 C   0  0  0  0  0  0  0  0  0  0  0  0
   -5.4852    1.9608   -0.1208 C   0  0  0  0  0  0  0  0  0  0  0  0
   -2.9562   -0.5038    0.2772 C   0  0  0  0  0  0  0  0  0  0  0  0
   -2.4084   -1.3063    1.0692 O   0  0  0  0  0  0  0  0  0  0  0  0
   -2.0716    0.0162   -0.6246 O   0  0  0  0  0  0  0  0  0  0  0  0
   -0.7669   -0.2803   -0.6778 C   0  0  0  0  0  0  0  0  0  0  0  0
   -0.1511   -1.2722   -1.3812 C   0  0  0  0  0  0  0  0  0  0  0  0
    1.2087   -1.4894   -1.3635 C   0  0  0  0  0  0  0  0  0  0  0  0
    2.0140   -0.6728   -0.6005 C   0  0  0  0  0  0  0  0  0  0  0  0
    1.4366    0.3324    0.1188 C   0  0  0  0  0  0  0  0  0  0  0  0
    2.0882    1.2404    0.9330 C   0  0  0  0  0  0  0  0  0  0  0  0
    3.3982    1.5515    0.9535 N   0  0  0  0  0  0  0  0  0  0  0  0
    4.4511    0.9085    0.4033 C   0  0  0  0  0  0  0  0  0  0  0  0
    5.6592    1.5149    0.6360 C   0  0  0  0  0  0  0  0  0  0  0  0
    6.8211    0.9558    0.1256 C   0  0  0  0  0  0  0  0  0  0  0  0
    6.7841   -0.2080   -0.6175 C   0  0  0  0  0  0  0  0  0  0  0  0
    5.5660   -0.8121   -0.8474 C   0  0  0  0  0  0  0  0  0  0  0  0
    4.4178   -0.2486   -0.3361 C   0  0  0  0  0  0  0  0  0  0  0  0
    3.3399   -1.0237   -0.6940 C   0  0  0  0  0  0  0  0  0  0  0  0
    3.5934   -2.1834   -1.1592 O   0  0  0  0  0  0  0  0  0  0  0  0
    0.0798    0.5362    0.0909 C   0  0  0  0  0  0  0  0  0  0  0  0
   -6.1097   -0.6027   -0.9440 H   0  0  0  0  0  0  0  0  0  0  0  0
   -4.6899    0.1937   -1.7265 H   0  0  0  0  0  0  0  0  0  0  0  0
   -4.6392   -1.5369   -1.3496 H   0  0  0  0  0  0  0  0  0  0  0  0
   -5.1280   -2.0068    1.2971 H   0  0  0  0  0  0  0  0  0  0  0  0
   -4.3607   -0.7536    2.3736 H   0  0  0  0  0  0  0  0  0  0  0  0
   -6.0268   -0.4910    1.7542 H   0  0  0  0  0  0  0  0  0  0  0  0
   -4.0468    1.7703    1.3596 H   0  0  0  0  0  0  0  0  0  0  0  0
   -5.6493    3.0057    0.0499 H   0  0  0  0  0  0  0  0  0  0  0  0
   -6.0584    1.4619   -0.9015 H   0  0  0  0  0  0  0  0  0  0  0  0
   -0.7495   -1.9115   -1.9740 H   0  0  0  0  0  0  0  0  0  0  0  0
    1.6966   -2.2809   -1.9253 H   0  0  0  0  0  0  0  0  0  0  0  0
    1.4458    1.7558    1.6360 H   0  0  0  0  0  0  0  0  0  0  0  0
    5.7080    2.4124    1.2065 H   0  0  0  0  0  0  0  0  0  0  0  0
    7.7961    1.4164    0.2950 H   0  0  0  0  0  0  0  0  0  0  0  0
    7.6634   -0.6724   -1.0303 H   0  0  0  0  0  0  0  0  0  0  0  0
    5.4995   -1.7371   -1.4333 H   0  0  0  0  0  0  0  0  0  0  0  0
   -0.3091    1.3523    0.6862 H   0  0  0  0  0  0  0  0  0  0  0  0
  1  2  1  0
  2  3  1  0
  2  4  1  0
  4  5  2  3
  2  6  1  0
  6  7  2  0
  6  8  1  0
  8  9  1  0
  9 10  2  0
 10 11  1  0
 11 12  2  0
 12 13  1  0
 13 14  1  0
 14 15  2  0
 15 16  1  0
 16 17  2  0
 17 18  1  0
 18 19  2  0
 19 20  1  0
 20 21  2  0
 21 22  1  0
 22 23  2  0
 13 24  2  0
 24  9  1  0
 22 12  1  0
 21 16  1  0
  1 25  1  0
  1 26  1  0
  1 27  1  0
  3 28  1  0
  3 29  1  0
  3 30  1  0
  4 31  1  0
  5 32  1  0
  5 33  1  0
 10 34  1  0
 11 35  1  0
 14 36  1  0
 17 37  1  0
 18 38  1  0
 19 39  1  0
 20 40  1  0
 24 41  1  0
M  END
$$$$
[H]c1c([H])n([H])c2c([H])nn([H])c(=O)c12
     RDKit          3D

 15 16  0  0  0  0  0  0  0  0999 V2000
   -1.3365    2.3663    0.3293 O   0  0  0  0  0  0  0  0  0  0  0  0
   -1.2271    1.1290    0.1757 C   0  0  0  0  0  0  0  0  0  0  0  0
   -2.3343    0.3566    0.1170 N   0  0  0  0  0  0  0  0  0  0  0  0
   -2.1669   -0.9332   -0.0448 N   0  0  0  0  0  0  0  0  0  0  0  0
   -0.9444   -1.5196   -0.1545 C   0  0  0  0  0  0  0  0  0  0  0  0
    0.1953   -0.7595   -0.0983 C   0  0  0  0  0  0  0  0  0  0  0  0
    1.5234   -1.0399   -0.1743 N   0  0  0  0  0  0  0  0  0  0  0  0
    2.2384    0.0939   -0.0593 C   0  0  0  0  0  0  0  0  0  0  0  0
    1.3320    1.1220    0.0941 C   0  0  0  0  0  0  0  0  0  0  0  0
    0.0502    0.6027    0.0715 C   0  0  0  0  0  0  0  0  0  0  0  0
   -3.3036    0.7393    0.1940 H   0  0  0  0  0  0  0  0  0  0  0  0
   -0.8241   -2.5873   -0.2878 H   0  0  0  0  0  0  0  0  0  0  0  0
    1.9631   -1.9774   -0.3019 H   0  0  0  0  0  0  0  0  0  0  0  0
    3.3184    0.2285   -0.0771 H   0  0  0  0  0  0  0  0  0  0  0  0
    1.5160    2.1787    0.2164 H   0  0  0  0  0  0  0  0  0  0  0  0
  1  2  2  0
  2  3  1  0
  3  4  1  0
  4  5  2  0
  5  6  1  0
  6  7  1  0
  7  8  1  0
  8  9  2  0
  9 10  1  0
 10  2  1  0
 10  6  2  0
  3 11  1  0
  5 12  1  0
  7 13  1  0
  8 14  1  0
  9 15  1  0
M  END
$$$$
[H]OC(=O)C([H])([H])C([H])([H])C([H])([H])C([H])([H])C([H])([H])Oc1c([H])c([H])c2c(c1[H])C(=O)C(=O)N2C([H])([H])C([H])([H])OC([H])([H])C([H])([H])OC([H])([H])C([H])([H])c1c(Cl)nc(S(=O)(=O)C([H])([H])[H])c([H])c1[H]
     RDKit          3D

 70 72  0  0  0  0  0  0  0  0999 V2000
  -10.8820   -2.2486    0.8230 C   0  0  0  0  0  0  0  0  0  0  0  0
  -10.7619   -0.9828    2.0870 S   0  0  0  0  0  0  0  0  0  0  0  0
  -11.9875   -0.1203    1.9953 O   0  0  0  0  0  0  0  0  0  0  0  0
  -10.5734   -1.5735    3.4387 O   0  0  0  0  0  0  0  0  0  0  0  0
   -9.3517   -0.0073    1.6268 C   0  0  0  0  0  0  0  0  0  0  0  0
   -8.2675    0.1027    2.4436 C   0  0  0  0  0  0  0  0  0  0  0  0
   -7.1699    0.8841    2.0174 C   0  0  0  0  0  0  0  0  0  0  0  0
   -7.2190    1.5140    0.7898 C   0  0  0  0  0  0  0  0  0  0  0  0
   -6.0510    2.3337    0.3100 C   0  0  0  0  0  0  0  0  0  0  0  0
   -5.2565    1.6035   -0.7150 C   0  0  0  0  0  0  0  0  0  0  0  0
   -4.1669    2.3362   -1.1111 O   0  0  0  0  0  0  0  0  0  0  0  0
   -3.2458    2.6489   -0.1674 C   0  0  0  0  0  0  0  0  0  0  0  0
   -2.7279    1.5337    0.6659 C   0  0  0  0  0  0  0  0  0  0  0  0
   -2.1111    0.5234    0.0204 O   0  0  0  0  0  0  0  0  0  0  0  0
   -0.9739    0.8494   -0.6561 C   0  0  0  0  0  0  0  0  0  0  0  0
    0.1196    1.4774    0.1703 C   0  0  0  0  0  0  0  0  0  0  0  0
    1.3432    1.7003   -0.6084 N   0  0  0  0  0  0  0  0  0  0  0  0
    2.4271    0.7533   -0.6910 C   0  0  0  0  0  0  0  0  0  0  0  0
    2.5621   -0.4969   -0.1184 C   0  0  0  0  0  0  0  0  0  0  0  0
    3.7047   -1.2126   -0.3370 C   0  0  0  0  0  0  0  0  0  0  0  0
    4.7726   -0.7482   -1.1260 C   0  0  0  0  0  0  0  0  0  0  0  0
    5.8287   -1.5772   -1.2474 O   0  0  0  0  0  0  0  0  0  0  0  0
    7.0438   -1.5799   -1.8628 C   0  0  0  0  0  0  0  0  0  0  0  0
    7.9767   -0.5326   -1.3841 C   0  0  0  0  0  0  0  0  0  0  0  0
    8.3584   -0.3712   -0.0096 C   0  0  0  0  0  0  0  0  0  0  0  0
    9.1392   -1.2013    0.8491 C   0  0  0  0  0  0  0  0  0  0  0  0
    8.8412   -2.6008    1.1498 C   0  0  0  0  0  0  0  0  0  0  0  0
    9.1489   -3.5672    0.0892 C   0  0  0  0  0  0  0  0  0  0  0  0
    8.5768   -4.8554    0.1326 O   0  0  0  0  0  0  0  0  0  0  0  0
    9.9072   -3.3338   -0.8895 O   0  0  0  0  0  0  0  0  0  0  0  0
    4.6163    0.4922   -1.6839 C   0  0  0  0  0  0  0  0  0  0  0  0
    3.4505    1.2228   -1.4587 C   0  0  0  0  0  0  0  0  0  0  0  0
    3.0630    2.5390   -1.9272 C   0  0  0  0  0  0  0  0  0  0  0  0
    3.7855    3.2607   -2.6686 O   0  0  0  0  0  0  0  0  0  0  0  0
    1.7362    2.8145   -1.3792 C   0  0  0  0  0  0  0  0  0  0  0  0
    1.0949    3.8652   -1.5788 O   0  0  0  0  0  0  0  0  0  0  0  0
   -8.3384    1.3569    0.0272 C   0  0  0  0  0  0  0  0  0  0  0  0
   -8.4546    2.1454   -1.5358 Cl  0  0  0  0  0  0  0  0  0  0  0  0
   -9.3966    0.5983    0.4487 N   0  0  0  0  0  0  0  0  0  0  0  0
  -11.2859   -3.1771    1.2381 H   0  0  0  0  0  0  0  0  0  0  0  0
   -9.8579   -2.4785    0.4142 H   0  0  0  0  0  0  0  0  0  0  0  0
  -11.4898   -1.9141   -0.0191 H   0  0  0  0  0  0  0  0  0  0  0  0
   -8.2210   -0.3834    3.4001 H   0  0  0  0  0  0  0  0  0  0  0  0
   -6.3016    1.0020    2.6265 H   0  0  0  0  0  0  0  0  0  0  0  0
   -6.4448    3.3143   -0.0929 H   0  0  0  0  0  0  0  0  0  0  0  0
   -5.4119    2.6038    1.1718 H   0  0  0  0  0  0  0  0  0  0  0  0
   -4.8471    0.6375   -0.2993 H   0  0  0  0  0  0  0  0  0  0  0  0
   -5.8724    1.2781   -1.5918 H   0  0  0  0  0  0  0  0  0  0  0  0
   -2.3708    3.1620   -0.6575 H   0  0  0  0  0  0  0  0  0  0  0  0
   -3.6905    3.4089    0.5352 H   0  0  0  0  0  0  0  0  0  0  0  0
   -3.4962    1.1722    1.4115 H   0  0  0  0  0  0  0  0  0  0  0  0
   -1.9356    1.9711    1.3772 H   0  0  0  0  0  0  0  0  0  0  0  0
   -1.2078    1.6045   -1.4594 H   0  0  0  0  0  0  0  0  0  0  0  0
   -0.5415   -0.0544   -1.1588 H   0  0  0  0  0  0  0  0  0  0  0  0
   -0.2145    2.5118    0.4832 H   0  0  0  0  0  0  0  0  0  0  0  0
    0.3564    0.9212    1.0734 H   0  0  0  0  0  0  0  0  0  0  0  0
    1.7410   -0.8856    0.4976 H   0  0  0  0  0  0  0  0  0  0  0  0
    3.7950   -2.1879    0.1190 H   0  0  0  0  0  0  0  0  0  0  0  0
    7.4437   -2.5782   -2.0190 H   0  0  0  0  0  0  0  0  0  0  0  0
    6.7659   -1.2658   -2.9953 H   0  0  0  0  0  0  0  0  0  0  0  0
    7.6065    0.4895   -1.7783 H   0  0  0  0  0  0  0  0  0  0  0  0
    8.9286   -0.6703   -2.0443 H   0  0  0  0  0  0  0  0  0  0  0  0
    8.8627    0.7117    0.1055 H   0  0  0  0  0  0  0  0  0  0  0  0
    7.3648   -0.1392    0.6112 H   0  0  0  0  0  0  0  0  0  0  0  0
    9.2924   -0.6992    1.8993 H   0  0  0  0  0  0  0  0  0  0  0  0
   10.2407   -1.1483    0.4173 H   0  0  0  0  0  0  0  0  0  0  0  0
    7.7464   -2.7459    1.4133 H   0  0  0  0  0  0  0  0  0  0  0  0
    9.3603   -2.9580    2.1014 H   0  0  0  0  0  0  0  0  0  0  0  0
    7.7255   -5.0421   -0.4071 H   0  0  0  0  0  0  0  0  0  0  0  0
    5.3982    0.8897   -2.3019 H   0  0  0  0  0  0  0  0  0  0  0  0
  1  2  1  0
  2  3  2  0
  2  4  2  0
  2  5  1  0
  5  6  2  0
  6  7  1  0
  7  8  2  0
  8  9  1  0
  9 10  1  0
 10 11  1  0
 11 12  1  0
 12 13  1  0
 13 14  1  0
 14 15  1  0
 15 16  1  0
 16 17  1  0
 17 18  1  0
 18 19  2  0
 19 20  1  0
 20 21  2  0
 21 22  1  0
 22 23  1  0
 23 24  1  0
 24 25  1  0
 25 26  1  0
 26 27  1  0
 27 28  1  0
 28 29  1  0
 28 30  2  0
 21 31  1  0
 31 32  2  0
 32 33  1  0
 33 34  2  0
 33 35  1  0
 35 36  2  0
  8 37  1  0
 37 38  1  0
 37 39  2  0
 39  5  1  0
 35 17  1  0
 32 18  1  0
  1 40  1  0
  1 41  1  0
  1 42  1  0
  6 43  1  0
  7 44  1  0
  9 45  1  0
  9 46  1  0
 10 47  1  0
 10 48  1  0
 12 49  1  0
 12 50  1  0
 13 51  1  0
 13 52  1  0
 15 53  1  0
 15 54  1  0
 16 55  1  0
 16 56  1  0
 19 57  1  0
 20 58  1  0
 23 59  1  0
 23 60  1  0
 24 61  1  0
 24 62  1  0
 25 63  1  0
 25 64  1  0
 26 65  1  0
 26 66  1  0
 27 67  1  0
 27 68  1  0
 29 69  1  0
 31 70  1  0
M  END
$$$$
[H]Oc1c([H])c([H])c2c(c1[H])c([H])c(C(=O)c1c([H])nn(-c3c([H])c([H])c(Oc4c([H])c([H])c([H])c([H])c4[H])c([H])c3[H])c1N([H])[H])n2[H]
     RDKit          3D

 49 53  0  0  0  0  0  0  0  0999 V2000
    0.0641    0.7021    2.0828 N   0  0  0  0  0  0  0  0  0  0  0  0
   -0.3938    0.0022    0.9414 C   0  0  0  0  0  0  0  0  0  0  0  0
   -1.7244   -0.0013    0.4999 C   0  0  0  0  0  0  0  0  0  0  0  0
   -1.7191   -0.7958   -0.6241 C   0  0  0  0  0  0  0  0  0  0  0  0
   -0.4442   -1.2269   -0.8159 N   0  0  0  0  0  0  0  0  0  0  0  0
    0.3454   -0.7537    0.1135 N   0  0  0  0  0  0  0  0  0  0  0  0
    1.7668   -0.9777    0.2628 C   0  0  0  0  0  0  0  0  0  0  0  0
    2.2355   -2.0425    1.0025 C   0  0  0  0  0  0  0  0  0  0  0  0
    3.5876   -2.2879    1.1669 C   0  0  0  0  0  0  0  0  0  0  0  0
    4.5158   -1.4522    0.5802 C   0  0  0  0  0  0  0  0  0  0  0  0
    5.8869   -1.6760    0.7294 O   0  0  0  0  0  0  0  0  0  0  0  0
    6.7753   -0.8032    0.1172 C   0  0  0  0  0  0  0  0  0  0  0  0
    7.1872   -1.0897   -1.1700 C   0  0  0  0  0  0  0  0  0  0  0  0
    8.0758   -0.2335   -1.8065 C   0  0  0  0  0  0  0  0  0  0  0  0
    8.5680    0.9016   -1.1997 C   0  0  0  0  0  0  0  0  0  0  0  0
    8.1411    1.1626    0.0826 C   0  0  0  0  0  0  0  0  0  0  0  0
    7.2545    0.3319    0.7518 C   0  0  0  0  0  0  0  0  0  0  0  0
    4.0517   -0.3841   -0.1618 C   0  0  0  0  0  0  0  0  0  0  0  0
    2.6946   -0.1433   -0.3231 C   0  0  0  0  0  0  0  0  0  0  0  0
   -2.8257    0.7107    1.1252 C   0  0  0  0  0  0  0  0  0  0  0  0
   -2.5709    1.4206    2.1550 O   0  0  0  0  0  0  0  0  0  0  0  0
   -4.1941    0.6667    0.6537 C   0  0  0  0  0  0  0  0  0  0  0  0
   -4.9149   -0.3644    0.0919 C   0  0  0  0  0  0  0  0  0  0  0  0
   -6.1993    0.0928   -0.2091 C   0  0  0  0  0  0  0  0  0  0  0  0
   -7.3282   -0.4658   -0.7671 C   0  0  0  0  0  0  0  0  0  0  0  0
   -8.4951    0.2414   -0.9514 C   0  0  0  0  0  0  0  0  0  0  0  0
   -9.6188   -0.3478   -1.5168 O   0  0  0  0  0  0  0  0  0  0  0  0
   -8.5255    1.5717   -0.5555 C   0  0  0  0  0  0  0  0  0  0  0  0
   -7.4063    2.1493    0.0049 C   0  0  0  0  0  0  0  0  0  0  0  0
   -6.2385    1.4129    0.1806 C   0  0  0  0  0  0  0  0  0  0  0  0
   -5.0494    1.7091    0.6789 N   0  0  0  0  0  0  0  0  0  0  0  0
    0.3750    1.6779    1.9884 H   0  0  0  0  0  0  0  0  0  0  0  0
    0.0828    0.2317    2.9957 H   0  0  0  0  0  0  0  0  0  0  0  0
   -2.5810   -1.0300   -1.2481 H   0  0  0  0  0  0  0  0  0  0  0  0
    1.5020   -2.6961    1.4615 H   0  0  0  0  0  0  0  0  0  0  0  0
    3.9701   -3.1203    1.7451 H   0  0  0  0  0  0  0  0  0  0  0  0
    6.8117   -1.9885   -1.6810 H   0  0  0  0  0  0  0  0  0  0  0  0
    8.4063   -0.4502   -2.8206 H   0  0  0  0  0  0  0  0  0  0  0  0
    9.2564    1.5580   -1.7025 H   0  0  0  0  0  0  0  0  0  0  0  0
    8.5172    2.0408    0.5620 H   0  0  0  0  0  0  0  0  0  0  0  0
    6.9067    0.5138    1.7517 H   0  0  0  0  0  0  0  0  0  0  0  0
    4.7825    0.2788   -0.6272 H   0  0  0  0  0  0  0  0  0  0  0  0
    2.3205    0.6875   -0.9001 H   0  0  0  0  0  0  0  0  0  0  0  0
   -4.5901   -1.3589   -0.0926 H   0  0  0  0  0  0  0  0  0  0  0  0
   -7.2714   -1.5015   -1.0639 H   0  0  0  0  0  0  0  0  0  0  0  0
  -10.3378   -0.8200   -0.9893 H   0  0  0  0  0  0  0  0  0  0  0  0
   -9.4604    2.1266   -0.7068 H   0  0  0  0  0  0  0  0  0  0  0  0
   -7.4172    3.1703    0.3130 H   0  0  0  0  0  0  0  0  0  0  0  0
   -4.7755    2.6504    1.0605 H   0  0  0  0  0  0  0  0  0  0  0  0
  1  2  1  0
  2  3  2  0
  3  4  1  0
  4  5  2  0
  5  6  1  0
  6  7  1  0
  7  8  2  0
  8  9  1  0
  9 10  2  0
 10 11  1  0
 11 12  1  0
 12 13  2  0
 13 14  1  0
 14 15  2  0
 15 16  1  0
 16 17  2  0
 10 18  1  0
 18 19  2  0
  3 20  1  0
 20 21  2  0
 20 22  1  0
 22 23  2  0
 23 24  1  0
 24 25  2  0
 25 26  1  0
 26 27  1  0
 26 28  2  0
 28 29  1  0
 29 30  2  0
 30 31  1  0
  6  2  1  0
 19  7  1  0
 31 22  1  0
 17 12  1  0
 30 24  1  0
  1 32  1  0
  1 33  1  0
  4 34  1  0
  8 35  1  0
  9 36  1  0
 13 37  1  0
 14 38  1  0
 15 39  1  0
 16 40  1  0
 17 41  1  0
 18 42  1  0
 19 43  1  0
 23 44  1  0
 25 45  1  0
 27 46  1  0
 28 47  1  0
 29 48  1  0
 31 49  1  0
M  END
$$$$
[H]OC(=O)C([H])([H])c1c([H])c(F)c([H])c2c1c([H])c(-c1nc3c([H])c(F)c([H])c(C([H])([H])[H])n3c1[H])n2[H]
     RDKit          3D

 38 41  0  0  0  0  0  0  0  0999 V2000
    4.1056    2.4998   -0.0780 C   0  0  0  0  0  0  0  0  0  0  0  0
    4.3033    1.0285   -0.0297 C   0  0  0  0  0  0  0  0  0  0  0  0
    5.5826    0.5289   -0.0547 C   0  0  0  0  0  0  0  0  0  0  0  0
    5.7756   -0.8280   -0.0097 C   0  0  0  0  0  0  0  0  0  0  0  0
    7.0413   -1.3250   -0.0347 F   0  0  0  0  0  0  0  0  0  0  0  0
    4.6574   -1.6310    0.0592 C   0  0  0  0  0  0  0  0  0  0  0  0
    3.3792   -1.1132    0.0835 C   0  0  0  0  0  0  0  0  0  0  0  0
    2.1364   -1.6684    0.1477 N   0  0  0  0  0  0  0  0  0  0  0  0
    1.1946   -0.7116    0.1437 C   0  0  0  0  0  0  0  0  0  0  0  0
    1.8792    0.4779    0.0747 C   0  0  0  0  0  0  0  0  0  0  0  0
    3.2218    0.2200    0.0380 N   0  0  0  0  0  0  0  0  0  0  0  0
   -0.2684   -0.8980    0.2031 C   0  0  0  0  0  0  0  0  0  0  0  0
   -1.2314    0.0757    0.1948 C   0  0  0  0  0  0  0  0  0  0  0  0
   -2.4859   -0.5119    0.2615 C   0  0  0  0  0  0  0  0  0  0  0  0
   -3.7779   -0.0433    0.2857 C   0  0  0  0  0  0  0  0  0  0  0  0
   -3.9991    1.4176    0.2248 C   0  0  0  0  0  0  0  0  0  0  0  0
   -3.7911    1.8610   -1.1735 C   0  0  0  0  0  0  0  0  0  0  0  0
   -3.9264    3.1907   -1.5522 O   0  0  0  0  0  0  0  0  0  0  0  0
   -3.4850    1.0312   -2.0512 O   0  0  0  0  0  0  0  0  0  0  0  0
   -4.8098   -0.9468    0.3585 C   0  0  0  0  0  0  0  0  0  0  0  0
   -4.5904   -2.3101    0.4086 C   0  0  0  0  0  0  0  0  0  0  0  0
   -5.6528   -3.1502    0.4798 F   0  0  0  0  0  0  0  0  0  0  0  0
   -3.3177   -2.7886    0.3853 C   0  0  0  0  0  0  0  0  0  0  0  0
   -2.2499   -1.8835    0.3112 C   0  0  0  0  0  0  0  0  0  0  0  0
   -0.9288   -2.0634    0.2743 N   0  0  0  0  0  0  0  0  0  0  0  0
    3.1801    2.7797    0.4229 H   0  0  0  0  0  0  0  0  0  0  0  0
    4.9511    2.9717    0.4920 H   0  0  0  0  0  0  0  0  0  0  0  0
    4.0604    2.8604   -1.1217 H   0  0  0  0  0  0  0  0  0  0  0  0
    6.4585    1.1737   -0.1086 H   0  0  0  0  0  0  0  0  0  0  0  0
    4.8054   -2.6994    0.0946 H   0  0  0  0  0  0  0  0  0  0  0  0
    1.4658    1.4803    0.0519 H   0  0  0  0  0  0  0  0  0  0  0  0
   -1.1018    1.1379    0.1457 H   0  0  0  0  0  0  0  0  0  0  0  0
   -3.3125    1.9310    0.9254 H   0  0  0  0  0  0  0  0  0  0  0  0
   -5.0791    1.6474    0.4570 H   0  0  0  0  0  0  0  0  0  0  0  0
   -4.7933    3.7008   -1.4086 H   0  0  0  0  0  0  0  0  0  0  0  0
   -5.8548   -0.6101    0.3795 H   0  0  0  0  0  0  0  0  0  0  0  0
   -3.0824   -3.8468    0.4220 H   0  0  0  0  0  0  0  0  0  0  0  0
   -0.4601   -2.9850    0.2971 H   0  0  0  0  0  0  0  0  0  0  0  0
  1  2  1  0
  2  3  2  0
  3  4  1  0
  4  5  1  0
  4  6  2  0
  6  7  1  0
  7  8  2  0
  8  9  1  0
  9 10  2  0
 10 11  1  0
  9 12  1  0
 12 13  2  0
 13 14  1  0
 14 15  2  0
 15 16  1  0
 16 17  1  0
 17 18  1  0
 17 19  2  0
 15 20  1  0
 20 21  2  0
 21 22  1  0
 21 23  1  0
 23 24  2  0
 24 25  1  0
 11  2  1  0
 25 12  1  0
 11  7  1  0
 24 14  1  0
  1 26  1  0
  1 27  1  0
  1 28  1  0
  3 29  1  0
  6 30  1  0
 10 31  1  0
 13 32  1  0
 16 33  1  0
 16 34  1  0
 18 35  1  0
 20 36  1  0
 23 37  1  0
 25 38  1  0
M  END
$$$$
[H]c1c(O[C@@]2([H])C([H])([H])N([H])C([H])([H])C([H])([H])C2([H])[H])c([H])n(C([H])([H])[H])c1C(=O)N([H])C([H])([H])C(=O)N([H])[C@]1([H])C([H])([H])[C@]1([H])C([H])([H])[H]
     RDKit          3D

 50 52  0  0  0  0  0  0  0  0999 V2000
    3.3425   -1.5121   -1.1609 C   0  0  0  0  0  0  0  0  0  0  0  0
    4.7416   -1.1750   -1.6035 C   0  0  1  0  0  0  0  0  0  0  0  0
    4.8937   -0.4440   -2.9270 C   0  0  0  0  0  0  0  0  0  0  0  0
    5.1758    0.2532   -1.6430 C   0  0  1  0  0  0  0  0  0  0  0  0
    4.1771    1.2044   -1.1305 N   0  0  0  0  0  0  0  0  0  0  0  0
    4.5810    2.3278   -0.4113 C   0  0  0  0  0  0  0  0  0  0  0  0
    5.8380    2.5459   -0.2013 O   0  0  0  0  0  0  0  0  0  0  0  0
    3.6668    3.3233    0.1424 C   0  0  0  0  0  0  0  0  0  0  0  0
    2.2829    2.9384   -0.0536 N   0  0  0  0  0  0  0  0  0  0  0  0
    1.7303    1.8230    0.5806 C   0  0  0  0  0  0  0  0  0  0  0  0
    2.5640    1.1963    1.3584 O   0  0  0  0  0  0  0  0  0  0  0  0
    0.3935    1.3009    0.4802 C   0  0  0  0  0  0  0  0  0  0  0  0
   -0.0103    0.1558    1.1938 C   0  0  0  0  0  0  0  0  0  0  0  0
   -1.3282   -0.0727    0.8776 C   0  0  0  0  0  0  0  0  0  0  0  0
   -2.1166   -1.1321    1.3839 O   0  0  0  0  0  0  0  0  0  0  0  0
   -3.4539   -1.2768    0.9909 C   0  0  2  0  0  0  0  0  0  0  0  0
   -4.3510   -1.0791    2.1825 C   0  0  0  0  0  0  0  0  0  0  0  0
   -5.7421   -1.6302    1.9655 C   0  0  0  0  0  0  0  0  0  0  0  0
   -5.5439   -3.1271    1.6907 C   0  0  0  0  0  0  0  0  0  0  0  0
   -4.8912   -3.2331    0.4364 N   0  0  0  0  0  0  0  0  0  0  0  0
   -3.6660   -2.5642    0.2692 C   0  0  0  0  0  0  0  0  0  0  0  0
   -1.6811    0.9123    0.0042 C   0  0  0  0  0  0  0  0  0  0  0  0
   -0.6290    1.7485   -0.2362 N   0  0  0  0  0  0  0  0  0  0  0  0
   -0.7069    2.9062   -1.1375 C   0  0  0  0  0  0  0  0  0  0  0  0
    3.2038   -2.6192   -1.2178 H   0  0  0  0  0  0  0  0  0  0  0  0
    3.2202   -1.2238   -0.0952 H   0  0  0  0  0  0  0  0  0  0  0  0
    2.5771   -0.9665   -1.7355 H   0  0  0  0  0  0  0  0  0  0  0  0
    5.5251   -1.9082   -1.3095 H   0  0  0  0  0  0  0  0  0  0  0  0
    5.7517   -0.7202   -3.5465 H   0  0  0  0  0  0  0  0  0  0  0  0
    3.9493   -0.2040   -3.4731 H   0  0  0  0  0  0  0  0  0  0  0  0
    6.2215    0.5119   -1.4067 H   0  0  0  0  0  0  0  0  0  0  0  0
    3.2084    0.9866   -1.3613 H   0  0  0  0  0  0  0  0  0  0  0  0
    3.7962    4.3328   -0.3324 H   0  0  0  0  0  0  0  0  0  0  0  0
    3.8248    3.4740    1.2488 H   0  0  0  0  0  0  0  0  0  0  0  0
    1.7241    3.5257   -0.6836 H   0  0  0  0  0  0  0  0  0  0  0  0
    0.5794   -0.4555    1.8732 H   0  0  0  0  0  0  0  0  0  0  0  0
   -3.7017   -0.4673    0.2813 H   0  0  0  0  0  0  0  0  0  0  0  0
   -4.3787   -0.0174    2.5007 H   0  0  0  0  0  0  0  0  0  0  0  0
   -3.9278   -1.6430    3.0574 H   0  0  0  0  0  0  0  0  0  0  0  0
   -6.3490   -1.4465    2.8525 H   0  0  0  0  0  0  0  0  0  0  0  0
   -6.1573   -1.1776    1.0379 H   0  0  0  0  0  0  0  0  0  0  0  0
   -4.8940   -3.5141    2.4889 H   0  0  0  0  0  0  0  0  0  0  0  0
   -6.5192   -3.6515    1.6227 H   0  0  0  0  0  0  0  0  0  0  0  0
   -5.6051   -3.0536   -0.3283 H   0  0  0  0  0  0  0  0  0  0  0  0
   -2.8329   -3.2576    0.5722 H   0  0  0  0  0  0  0  0  0  0  0  0
   -3.4932   -2.4131   -0.8371 H   0  0  0  0  0  0  0  0  0  0  0  0
   -2.6602    1.0445   -0.4581 H   0  0  0  0  0  0  0  0  0  0  0  0
   -0.5722    3.8590   -0.6143 H   0  0  0  0  0  0  0  0  0  0  0  0
   -1.7328    2.9132   -1.5982 H   0  0  0  0  0  0  0  0  0  0  0  0
   -0.0243    2.7021   -1.9749 H   0  0  0  0  0  0  0  0  0  0  0  0
  1  2  1  0
  2  3  1  0
  3  4  1  0
  4  5  1  0
  5  6  1  0
  6  7  2  0
  6  8  1  0
  8  9  1  0
  9 10  1  0
 10 11  2  0
 10 12  1  0
 12 13  2  0
 13 14  1  0
 14 15  1  0
 15 16  1  0
 16 17  1  0
 17 18  1  0
 18 19  1  0
 19 20  1  0
 20 21  1  0
 14 22  2  0
 22 23  1  0
 23 24  1  0
  4  2  1  0
 23 12  1  0
 21 16  1  0
  1 25  1  0
  1 26  1  0
  1 27  1  0
  2 28  1  6
  3 29  1  0
  3 30  1  0
  4 31  1  6
  5 32  1  0
  8 33  1  0
  8 34  1  0
  9 35  1  0
 13 36  1  0
 16 37  1  6
 17 38  1  0
 17 39  1  0
 18 40  1  0
 18 41  1  0
 19 42  1  0
 19 43  1  0
 20 44  1  0
 21 45  1  0
 21 46  1  0
 22 47  1  0
 24 48  1  0
 24 49  1  0
 24 50  1  0
M  END
$$$$
[H]ON([H])C(=O)c1c(C([H])([H])S(=O)(=O)c2c([H])c([H])c(Oc3c([H])c([H])c(OC([H])([H])[H])c([H])c3[H])c([H])c2[H])n([H])c(=O)c2c([H])c([H])c([H])c([H])c12
     RDKit          3D

 54 57  0  0  0  0  0  0  0  0999 V2000
    9.6627    0.4075    0.6728 C   0  0  0  0  0  0  0  0  0  0  0  0
    8.5396   -0.3644    1.0152 O   0  0  0  0  0  0  0  0  0  0  0  0
    7.2744    0.0364    0.6040 C   0  0  0  0  0  0  0  0  0  0  0  0
    7.0679    1.1811   -0.1402 C   0  0  0  0  0  0  0  0  0  0  0  0
    5.8009    1.5588   -0.5369 C   0  0  0  0  0  0  0  0  0  0  0  0
    4.6838    0.8041   -0.2043 C   0  0  0  0  0  0  0  0  0  0  0  0
    3.4094    1.1806   -0.6010 O   0  0  0  0  0  0  0  0  0  0  0  0
    2.3395    0.3862   -0.2398 C   0  0  0  0  0  0  0  0  0  0  0  0
    1.7101    0.6464    0.9639 C   0  0  0  0  0  0  0  0  0  0  0  0
    0.6463   -0.1045    1.3761 C   0  0  0  0  0  0  0  0  0  0  0  0
    0.1541   -1.1382    0.6314 C   0  0  0  0  0  0  0  0  0  0  0  0
    0.7983   -1.4066   -0.6035 C   0  0  0  0  0  0  0  0  0  0  0  0
    1.8689   -0.6523   -1.0199 C   0  0  0  0  0  0  0  0  0  0  0  0
   -1.1881   -2.1443    1.0781 S   0  0  0  0  0  0  0  0  0  0  0  0
   -0.7690   -3.5971    0.9372 O   0  0  0  0  0  0  0  0  0  0  0  0
   -1.4596   -1.9591    2.5579 O   0  0  0  0  0  0  0  0  0  0  0  0
   -2.6400   -1.9260    0.1152 C   0  0  0  0  0  0  0  0  0  0  0  0
   -3.2778   -0.6290    0.2208 C   0  0  0  0  0  0  0  0  0  0  0  0
   -2.9326    0.3260    1.0807 N   0  0  0  0  0  0  0  0  0  0  0  0
   -3.5819    1.5288    1.1642 C   0  0  0  0  0  0  0  0  0  0  0  0
   -3.2262    2.4119    1.9905 O   0  0  0  0  0  0  0  0  0  0  0  0
   -4.6461    1.7984    0.3385 C   0  0  0  0  0  0  0  0  0  0  0  0
   -5.3095    3.0136    0.4197 C   0  0  0  0  0  0  0  0  0  0  0  0
   -6.3733    3.2441   -0.4229 C   0  0  0  0  0  0  0  0  0  0  0  0
   -6.7799    2.2876   -1.3360 C   0  0  0  0  0  0  0  0  0  0  0  0
   -6.1269    1.0792   -1.4231 C   0  0  0  0  0  0  0  0  0  0  0  0
   -5.0620    0.8400   -0.5849 C   0  0  0  0  0  0  0  0  0  0  0  0
   -4.3487   -0.3547   -0.6060 C   0  0  0  0  0  0  0  0  0  0  0  0
   -4.8103   -1.3539   -1.5463 C   0  0  0  0  0  0  0  0  0  0  0  0
   -4.6235   -1.1633   -2.8065 O   0  0  0  0  0  0  0  0  0  0  0  0
   -5.4590   -2.5136   -1.0824 N   0  0  0  0  0  0  0  0  0  0  0  0
   -5.8882   -3.4525   -1.9465 O   0  0  0  0  0  0  0  0  0  0  0  0
    4.8804   -0.3402    0.5384 C   0  0  0  0  0  0  0  0  0  0  0  0
    6.1611   -0.7031    0.9275 C   0  0  0  0  0  0  0  0  0  0  0  0
   10.5550    0.0934    1.2524 H   0  0  0  0  0  0  0  0  0  0  0  0
    9.3992    1.4790    0.9118 H   0  0  0  0  0  0  0  0  0  0  0  0
    9.8652    0.2606   -0.3934 H   0  0  0  0  0  0  0  0  0  0  0  0
    7.8962    1.8094   -0.4304 H   0  0  0  0  0  0  0  0  0  0  0  0
    5.6074    2.4543   -1.1227 H   0  0  0  0  0  0  0  0  0  0  0  0
    2.0451    1.4567    1.6152 H   0  0  0  0  0  0  0  0  0  0  0  0
    0.1624    0.1142    2.3283 H   0  0  0  0  0  0  0  0  0  0  0  0
    0.4545   -2.2096   -1.2342 H   0  0  0  0  0  0  0  0  0  0  0  0
    2.3809   -0.8427   -1.9695 H   0  0  0  0  0  0  0  0  0  0  0  0
   -2.3205   -2.1354   -0.9684 H   0  0  0  0  0  0  0  0  0  0  0  0
   -3.3886   -2.7433    0.3736 H   0  0  0  0  0  0  0  0  0  0  0  0
   -2.1686    0.2113    1.7708 H   0  0  0  0  0  0  0  0  0  0  0  0
   -4.9562    3.7267    1.1464 H   0  0  0  0  0  0  0  0  0  0  0  0
   -6.9014    4.1750   -0.3791 H   0  0  0  0  0  0  0  0  0  0  0  0
   -7.6366    2.5098   -1.9934 H   0  0  0  0  0  0  0  0  0  0  0  0
   -6.4159    0.3118   -2.1169 H   0  0  0  0  0  0  0  0  0  0  0  0
   -5.6280   -2.6468   -0.0763 H   0  0  0  0  0  0  0  0  0  0  0  0
   -5.7773   -4.3781   -1.5845 H   0  0  0  0  0  0  0  0  0  0  0  0
    4.0542   -0.9805    0.8361 H   0  0  0  0  0  0  0  0  0  0  0  0
    6.2781   -1.5936    1.5010 H   0  0  0  0  0  0  0  0  0  0  0  0
  1  2  1  0
  2  3  1  0
  3  4  2  0
  4  5  1  0
  5  6  2  0
  6  7  1  0
  7  8  1  0
  8  9  2  0
  9 10  1  0
 10 11  2  0
 11 12  1  0
 12 13  2  0
 11 14  1  0
 14 15  2  0
 14 16  2  0
 14 17  1  0
 17 18  1  0
 18 19  1  0
 19 20  1  0
 20 21  2  0
 20 22  1  0
 22 23  2  0
 23 24  1  0
 24 25  2  0
 25 26  1  0
 26 27  2  0
 27 28  1  0
 28 29  1  0
 29 30  2  0
 29 31  1  0
 31 32  1  0
  6 33  1  0
 33 34  2  0
 34  3  1  0
 13  8  1  0
 28 18  2  0
 27 22  1  0
  1 35  1  0
  1 36  1  0
  1 37  1  0
  4 38  1  0
  5 39  1  0
  9 40  1  0
 10 41  1  0
 12 42  1  0
 13 43  1  0
 17 44  1  0
 17 45  1  0
 19 46  1  0
 23 47  1  0
 24 48  1  0
 25 49  1  0
 26 50  1  0
 31 51  1  0
 32 52  1  0
 33 53  1  0
 34 54  1  0
M  END
$$$$
[H]c1nc(-c2c([H])c([H])c([H])c(N3C([H])([H])C([H])([H])N(C([H])([H])C(=O)N([H])c4c([H])c([H])c(Cl)c(Cl)c4[H])[C@]([H])(C([H])([H])[H])C3([H])[H])c2[H])sc1[H]
     RDKit          3D

 52 55  0  0  0  0  0  0  0  0999 V2000
   -0.4868   -0.3340    0.8278 C   0  0  0  0  0  0  0  0  0  0  0  0
   -0.0956    0.9641    0.1226 C   0  0  2  0  0  0  0  0  0  0  0  0
   -1.2335    1.5537   -0.6250 C   0  0  0  0  0  0  0  0  0  0  0  0
   -1.6748    0.5487   -1.6522 N   0  0  0  0  0  0  0  0  0  0  0  0
   -0.8036   -0.2143   -2.3796 C   0  0  0  0  0  0  0  0  0  0  0  0
    0.6347   -0.2065   -1.9114 C   0  0  0  0  0  0  0  0  0  0  0  0
    0.9461    0.5988   -0.8467 N   0  0  0  0  0  0  0  0  0  0  0  0
    2.1246    0.4994   -0.2173 C   0  0  0  0  0  0  0  0  0  0  0  0
    3.3573    0.3998    0.4410 C   0  0  0  0  0  0  0  0  0  0  0  0
    4.0991    1.4252    0.7426 O   0  0  0  0  0  0  0  0  0  0  0  0
    3.8864   -0.9028    0.7992 N   0  0  0  0  0  0  0  0  0  0  0  0
    5.2442   -0.9369    1.2468 C   0  0  0  0  0  0  0  0  0  0  0  0
    6.0989   -0.0673    0.4583 C   0  0  0  0  0  0  0  0  0  0  0  0
    7.3817   -0.0110    0.7660 C   0  0  0  0  0  0  0  0  0  0  0  0
    7.9349   -0.7025    1.7754 C   0  0  0  0  0  0  0  0  0  0  0  0
    9.6994   -0.5129    2.0730 Cl  0  0  0  0  0  0  0  0  0  0  0  0
    7.1559   -1.5105    2.5154 C   0  0  0  0  0  0  0  0  0  0  0  0
    7.8248   -2.4267    3.8375 Cl  0  0  0  0  0  0  0  0  0  0  0  0
    5.7261   -1.6505    2.2324 C   0  0  0  0  0  0  0  0  0  0  0  0
   -3.0824    0.5612   -1.7659 C   0  0  0  0  0  0  0  0  0  0  0  0
   -3.7138    1.3656   -2.6177 C   0  0  0  0  0  0  0  0  0  0  0  0
   -5.0823    1.5517   -2.6120 C   0  0  0  0  0  0  0  0  0  0  0  0
   -5.8058    0.8597   -1.6138 C   0  0  0  0  0  0  0  0  0  0  0  0
   -5.1886    0.0478   -0.6979 C   0  0  0  0  0  0  0  0  0  0  0  0
   -3.8219   -0.1300   -0.7633 C   0  0  0  0  0  0  0  0  0  0  0  0
   -5.8169   -0.4258    0.5057 C   0  0  0  0  0  0  0  0  0  0  0  0
   -5.3767   -1.2374    1.4138 N   0  0  0  0  0  0  0  0  0  0  0  0
   -6.0052   -1.5743    2.4804 C   0  0  0  0  0  0  0  0  0  0  0  0
   -7.3209   -0.9019    2.5743 C   0  0  0  0  0  0  0  0  0  0  0  0
   -7.3550   -0.0348    1.1566 S   0  0  0  0  0  0  0  0  0  0  0  0
   -1.4793   -0.1946    1.2715 H   0  0  0  0  0  0  0  0  0  0  0  0
   -0.5142   -1.2203    0.1227 H   0  0  0  0  0  0  0  0  0  0  0  0
    0.2444   -0.5409    1.6112 H   0  0  0  0  0  0  0  0  0  0  0  0
    0.3024    1.6795    0.8346 H   0  0  0  0  0  0  0  0  0  0  0  0
   -0.8801    2.4332   -1.2295 H   0  0  0  0  0  0  0  0  0  0  0  0
   -2.1063    1.8062    0.0299 H   0  0  0  0  0  0  0  0  0  0  0  0
   -0.8435    0.0732   -3.4749 H   0  0  0  0  0  0  0  0  0  0  0  0
   -1.1175   -1.3144   -2.3974 H   0  0  0  0  0  0  0  0  0  0  0  0
    1.0041   -1.2589   -1.6952 H   0  0  0  0  0  0  0  0  0  0  0  0
    1.2695    0.0832   -2.7860 H   0  0  0  0  0  0  0  0  0  0  0  0
    2.6662    1.3995   -1.1075 H   0  0  0  0  0  0  0  0  0  0  0  0
    2.6096   -0.3433   -1.2496 H   0  0  0  0  0  0  0  0  0  0  0  0
    3.2853   -1.6902    0.8234 H   0  0  0  0  0  0  0  0  0  0  0  0
    5.7114    0.4578   -0.3560 H   0  0  0  0  0  0  0  0  0  0  0  0
    7.9947    0.6897    0.1655 H   0  0  0  0  0  0  0  0  0  0  0  0
    5.1902   -2.3646    2.8445 H   0  0  0  0  0  0  0  0  0  0  0  0
   -3.1689    1.9537   -3.3759 H   0  0  0  0  0  0  0  0  0  0  0  0
   -5.5381    2.1804   -3.3197 H   0  0  0  0  0  0  0  0  0  0  0  0
   -6.8761    1.0187   -1.6051 H   0  0  0  0  0  0  0  0  0  0  0  0
   -3.3262   -0.7863   -0.1167 H   0  0  0  0  0  0  0  0  0  0  0  0
   -5.7267   -2.2072    3.3118 H   0  0  0  0  0  0  0  0  0  0  0  0
   -7.9513   -1.1083    3.4324 H   0  0  0  0  0  0  0  0  0  0  0  0
  1  2  1  0
  2  3  1  0
  3  4  1  0
  4  5  1  0
  5  6  1  0
  6  7  1  0
  7  8  1  0
  8  9  1  0
  9 10  2  0
  9 11  1  0
 11 12  1  0
 12 13  2  0
 13 14  1  0
 14 15  2  0
 15 16  1  0
 15 17  1  0
 17 18  1  0
 17 19  2  0
  4 20  1  0
 20 21  2  0
 21 22  1  0
 22 23  2  0
 23 24  1  0
 24 25  2  0
 24 26  1  0
 26 27  2  0
 27 28  1  0
 28 29  2  0
 29 30  1  0
  7  2  1  0
 19 12  1  0
 25 20  1  0
 30 26  1  0
  1 31  1  0
  1 32  1  0
  1 33  1  0
  2 34  1  1
  3 35  1  0
  3 36  1  0
  5 37  1  0
  5 38  1  0
  6 39  1  0
  6 40  1  0
  8 41  1  0
  8 42  1  0
 11 43  1  0
 13 44  1  0
 14 45  1  0
 19 46  1  0
 21 47  1  0
 22 48  1  0
 23 49  1  0
 25 50  1  0
 28 51  1  0
 29 52  1  0
M  END
$$$$
[H]c1c([H])c(N([H])C(=O)N([H])c2c([H])c([H])c(C(F)(F)F)c([H])c2[H])c([H])c(F)c1C(=O)N1C([H])([H])C([H])([H])OC([H])([H])C1([H])[H]
     RDKit          3D

 46 48  0  0  0  0  0  0  0  0999 V2000
    2.8387   -1.3558   -2.0162 F   0  0  0  0  0  0  0  0  0  0  0  0
    2.0095   -0.7917   -1.0447 C   0  0  0  0  0  0  0  0  0  0  0  0
    1.0201   -1.5042   -0.5251 C   0  0  0  0  0  0  0  0  0  0  0  0
    0.1622   -0.9374    0.3987 C   0  0  0  0  0  0  0  0  0  0  0  0
   -0.8309   -1.7904    1.0197 N   0  0  0  0  0  0  0  0  0  0  0  0
   -2.1354   -1.4297    0.7502 C   0  0  0  0  0  0  0  0  0  0  0  0
   -2.3295   -0.3948   -0.0370 O   0  0  0  0  0  0  0  0  0  0  0  0
   -3.3095   -2.0240    1.2244 N   0  0  0  0  0  0  0  0  0  0  0  0
   -4.4953   -1.3078    0.7613 C   0  0  0  0  0  0  0  0  0  0  0  0
   -5.3129   -1.6782   -0.2582 C   0  0  0  0  0  0  0  0  0  0  0  0
   -6.3348   -0.8022   -0.6778 C   0  0  0  0  0  0  0  0  0  0  0  0
   -6.5369    0.4089   -0.1104 C   0  0  0  0  0  0  0  0  0  0  0  0
   -5.6865    0.7707    0.9372 C   0  0  0  0  0  0  0  0  0  0  0  0
   -4.6887   -0.0499    1.3783 C   0  0  0  0  0  0  0  0  0  0  0  0
   -7.5816    1.3971   -0.5025 C   0  0  0  0  0  0  0  0  0  0  0  0
   -6.9999    2.4194   -1.2346 F   0  0  0  0  0  0  0  0  0  0  0  0
   -7.9552    2.0052    0.7249 F   0  0  0  0  0  0  0  0  0  0  0  0
   -8.6778    0.8816   -1.0487 F   0  0  0  0  0  0  0  0  0  0  0  0
    0.3282    0.3789    0.7789 C   0  0  0  0  0  0  0  0  0  0  0  0
    1.3738    1.1098    0.2130 C   0  0  0  0  0  0  0  0  0  0  0  0
    2.2396    0.5567   -0.7015 C   0  0  0  0  0  0  0  0  0  0  0  0
    3.4422    1.1502   -1.2104 C   0  0  0  0  0  0  0  0  0  0  0  0
    3.4253    1.6047   -2.4476 O   0  0  0  0  0  0  0  0  0  0  0  0
    4.6564    1.2771   -0.5679 N   0  0  0  0  0  0  0  0  0  0  0  0
    4.6990    0.9163    0.8809 C   0  0  0  0  0  0  0  0  0  0  0  0
    5.2860   -0.5179    0.9306 C   0  0  0  0  0  0  0  0  0  0  0  0
    5.9494   -0.7261   -0.2627 O   0  0  0  0  0  0  0  0  0  0  0  0
    6.7550    0.2636   -0.7424 C   0  0  0  0  0  0  0  0  0  0  0  0
    5.9474    1.5447   -1.1377 C   0  0  0  0  0  0  0  0  0  0  0  0
    0.8346   -2.5659   -0.8040 H   0  0  0  0  0  0  0  0  0  0  0  0
   -0.5084   -2.5432    1.6169 H   0  0  0  0  0  0  0  0  0  0  0  0
   -3.3604   -2.8386    1.8209 H   0  0  0  0  0  0  0  0  0  0  0  0
   -5.2150   -2.6239   -0.7686 H   0  0  0  0  0  0  0  0  0  0  0  0
   -6.9994   -1.1173   -1.4865 H   0  0  0  0  0  0  0  0  0  0  0  0
   -5.8075    1.7428    1.3721 H   0  0  0  0  0  0  0  0  0  0  0  0
   -4.0098    0.2378    2.1745 H   0  0  0  0  0  0  0  0  0  0  0  0
   -0.3591    0.8074    1.4645 H   0  0  0  0  0  0  0  0  0  0  0  0
    1.5223    2.1269    0.5018 H   0  0  0  0  0  0  0  0  0  0  0  0
    3.7354    1.0007    1.3139 H   0  0  0  0  0  0  0  0  0  0  0  0
    5.4174    1.6608    1.3264 H   0  0  0  0  0  0  0  0  0  0  0  0
    4.3832   -1.1536    0.9805 H   0  0  0  0  0  0  0  0  0  0  0  0
    5.9612   -0.6477    1.7708 H   0  0  0  0  0  0  0  0  0  0  0  0
    7.5448    0.5771   -0.0517 H   0  0  0  0  0  0  0  0  0  0  0  0
    7.2357   -0.1325   -1.6754 H   0  0  0  0  0  0  0  0  0  0  0  0
    6.3844    2.4151   -0.6357 H   0  0  0  0  0  0  0  0  0  0  0  0
    5.9828    1.6792   -2.2242 H   0  0  0  0  0  0  0  0  0  0  0  0
  1  2  1  0
  2  3  2  0
  3  4  1  0
  4  5  1  0
  5  6  1  0
  6  7  2  0
  6  8  1  0
  8  9  1  0
  9 10  2  0
 10 11  1  0
 11 12  2  0
 12 13  1  0
 13 14  2  0
 12 15  1  0
 15 16  1  0
 15 17  1  0
 15 18  1  0
  4 19  2  0
 19 20  1  0
 20 21  2  0
 21 22  1  0
 22 23  2  0
 22 24  1  0
 24 25  1  0
 25 26  1  0
 26 27  1  0
 27 28  1  0
 28 29  1  0
 21  2  1  0
 29 24  1  0
 14  9  1  0
  3 30  1  0
  5 31  1  0
  8 32  1  0
 10 33  1  0
 11 34  1  0
 13 35  1  0
 14 36  1  0
 19 37  1  0
 20 38  1  0
 25 39  1  0
 25 40  1  0
 26 41  1  0
 26 42  1  0
 28 43  1  0
 28 44  1  0
 29 45  1  0
 29 46  1  0
M  END
$$$$
[H]c1c(F)c([H])c([C@@]([H])(Oc2nc(N([H])[H])nc(N([H])c3c([H])c([H])c(S(=O)(=O)C([H])([H])[H])c([H])c3[H])n2)C([H])([H])[H])c([H])c1F
     RDKit          3D

 46 48  0  0  0  0  0  0  0  0999 V2000
   -4.3326    0.3837    1.1822 C   0  0  0  0  0  0  0  0  0  0  0  0
   -3.5982   -0.0981   -0.0451 C   0  0  2  0  0  0  0  0  0  0  0  0
   -2.2112   -0.1198    0.1161 O   0  0  0  0  0  0  0  0  0  0  0  0
   -1.4908   -1.3060   -0.0229 C   0  0  0  0  0  0  0  0  0  0  0  0
   -0.1734   -1.3062    0.1340 N   0  0  0  0  0  0  0  0  0  0  0  0
    0.6430   -2.3590    0.0318 C   0  0  0  0  0  0  0  0  0  0  0  0
    2.0439   -2.3487    0.2008 N   0  0  0  0  0  0  0  0  0  0  0  0
    2.8920   -1.2764    0.4977 C   0  0  0  0  0  0  0  0  0  0  0  0
    4.2191   -1.5275    0.8700 C   0  0  0  0  0  0  0  0  0  0  0  0
    5.1230   -0.5463    1.1660 C   0  0  0  0  0  0  0  0  0  0  0  0
    4.7483    0.7697    1.1068 C   0  0  0  0  0  0  0  0  0  0  0  0
    3.4626    1.0818    0.7486 C   0  0  0  0  0  0  0  0  0  0  0  0
    2.5568    0.0562    0.4501 C   0  0  0  0  0  0  0  0  0  0  0  0
    5.9302    2.0166    1.4932 S   0  0  0  0  0  0  0  0  0  0  0  0
    5.8126    2.3274    3.2377 C   0  0  0  0  0  0  0  0  0  0  0  0
    5.7401    3.2433    0.6855 O   0  0  0  0  0  0  0  0  0  0  0  0
    7.3295    1.4959    1.2081 O   0  0  0  0  0  0  0  0  0  0  0  0
    0.0112   -3.5382   -0.2669 N   0  0  0  0  0  0  0  0  0  0  0  0
   -1.3114   -3.5757   -0.4316 C   0  0  0  0  0  0  0  0  0  0  0  0
   -1.9265   -4.8501   -0.7465 N   0  0  0  0  0  0  0  0  0  0  0  0
   -2.0806   -2.4741   -0.3145 N   0  0  0  0  0  0  0  0  0  0  0  0
   -3.9249    0.8388   -1.1532 C   0  0  0  0  0  0  0  0  0  0  0  0
   -3.2860    2.0600   -1.1812 C   0  0  0  0  0  0  0  0  0  0  0  0
   -3.5354    2.9883   -2.1804 C   0  0  0  0  0  0  0  0  0  0  0  0
   -2.9067    4.1995   -2.2147 F   0  0  0  0  0  0  0  0  0  0  0  0
   -4.4493    2.6604   -3.1604 C   0  0  0  0  0  0  0  0  0  0  0  0
   -5.0832    1.4293   -3.1186 C   0  0  0  0  0  0  0  0  0  0  0  0
   -5.9897    1.0838   -4.0761 F   0  0  0  0  0  0  0  0  0  0  0  0
   -4.8363    0.5094   -2.1287 C   0  0  0  0  0  0  0  0  0  0  0  0
   -3.9052    1.3036    1.6046 H   0  0  0  0  0  0  0  0  0  0  0  0
   -4.4640   -0.4249    1.9348 H   0  0  0  0  0  0  0  0  0  0  0  0
   -5.3724    0.6459    0.8522 H   0  0  0  0  0  0  0  0  0  0  0  0
   -3.9624   -1.1222   -0.2825 H   0  0  0  0  0  0  0  0  0  0  0  0
    2.5177   -3.2994    0.0783 H   0  0  0  0  0  0  0  0  0  0  0  0
    4.5102   -2.5711    0.9166 H   0  0  0  0  0  0  0  0  0  0  0  0
    6.1366   -0.7806    1.4487 H   0  0  0  0  0  0  0  0  0  0  0  0
    3.1437    2.1267    0.6954 H   0  0  0  0  0  0  0  0  0  0  0  0
    1.5651    0.3585    0.1670 H   0  0  0  0  0  0  0  0  0  0  0  0
    6.5276    3.1375    3.5453 H   0  0  0  0  0  0  0  0  0  0  0  0
    5.9852    1.3906    3.7813 H   0  0  0  0  0  0  0  0  0  0  0  0
    4.7749    2.6849    3.4733 H   0  0  0  0  0  0  0  0  0  0  0  0
   -2.6725   -5.1725   -0.0952 H   0  0  0  0  0  0  0  0  0  0  0  0
   -1.6165   -5.3720   -1.5712 H   0  0  0  0  0  0  0  0  0  0  0  0
   -2.5620    2.3516   -0.4278 H   0  0  0  0  0  0  0  0  0  0  0  0
   -4.6531    3.3778   -3.9471 H   0  0  0  0  0  0  0  0  0  0  0  0
   -5.3289   -0.4524   -2.0925 H   0  0  0  0  0  0  0  0  0  0  0  0
  1  2  1  0
  2  3  1  0
  3  4  1  0
  4  5  2  0
  5  6  1  0
  6  7  1  0
  7  8  1  0
  8  9  2  0
  9 10  1  0
 10 11  2  0
 11 12  1  0
 12 13  2  0
 11 14  1  0
 14 15  1  0
 14 16  2  0
 14 17  2  0
  6 18  2  0
 18 19  1  0
 19 20  1  0
 19 21  2  0
  2 22  1  0
 22 23  2  0
 23 24  1  0
 24 25  1  0
 24 26  2  0
 26 27  1  0
 27 28  1  0
 27 29  2  0
 21  4  1  0
 29 22  1  0
 13  8  1  0
  1 30  1  0
  1 31  1  0
  1 32  1  0
  2 33  1  6
  7 34  1  0
  9 35  1  0
 10 36  1  0
 12 37  1  0
 13 38  1  0
 15 39  1  0
 15 40  1  0
 15 41  1  0
 20 42  1  0
 20 43  1  0
 23 44  1  0
 26 45  1  0
 29 46  1  0
M  END
$$$$
[H]c1c([H])c2nc([H])n3c4c([H])c([H])c([H])c([H])c4n([H])c(=O)c(c1N1C([H])([H])C([H])([H])N([H])C([H])([H])C1([H])[H])c23
     RDKit          3D

 41 45  0  0  0  0  0  0  0  0999 V2000
    4.2632    0.1385   -1.2523 C   0  0  0  0  0  0  0  0  0  0  0  0
    3.0752   -0.7264   -1.0074 C   0  0  0  0  0  0  0  0  0  0  0  0
    2.2723   -0.4276    0.1280 N   0  0  0  0  0  0  0  0  0  0  0  0
    2.7586    0.4421    1.1452 C   0  0  0  0  0  0  0  0  0  0  0  0
    3.9360    1.2999    0.8154 C   0  0  0  0  0  0  0  0  0  0  0  0
    4.2878    1.3853   -0.5641 N   0  0  0  0  0  0  0  0  0  0  0  0
    1.0378   -1.0917    0.3004 C   0  0  0  0  0  0  0  0  0  0  0  0
    1.1077   -2.4308    0.7680 C   0  0  0  0  0  0  0  0  0  0  0  0
   -0.0267   -3.1453    0.9684 C   0  0  0  0  0  0  0  0  0  0  0  0
   -1.2853   -2.6363    0.7398 C   0  0  0  0  0  0  0  0  0  0  0  0
   -2.5370   -3.0717    0.8576 N   0  0  0  0  0  0  0  0  0  0  0  0
   -3.3938   -2.0630    0.4858 C   0  0  0  0  0  0  0  0  0  0  0  0
   -2.6245   -1.0174    0.1428 N   0  0  0  0  0  0  0  0  0  0  0  0
   -1.3303   -1.3421    0.2885 C   0  0  0  0  0  0  0  0  0  0  0  0
   -0.1743   -0.5693    0.0675 C   0  0  0  0  0  0  0  0  0  0  0  0
   -0.1706    0.7312   -0.3905 C   0  0  0  0  0  0  0  0  0  0  0  0
    0.8405    1.0882   -0.9995 O   0  0  0  0  0  0  0  0  0  0  0  0
   -1.1693    1.6425   -0.2363 N   0  0  0  0  0  0  0  0  0  0  0  0
   -2.4904    1.3868   -0.3978 C   0  0  0  0  0  0  0  0  0  0  0  0
   -3.1613    2.5215   -0.7778 C   0  0  0  0  0  0  0  0  0  0  0  0
   -4.5067    2.4195   -1.0160 C   0  0  0  0  0  0  0  0  0  0  0  0
   -5.1985    1.2323   -0.8887 C   0  0  0  0  0  0  0  0  0  0  0  0
   -4.5064    0.0861   -0.5014 C   0  0  0  0  0  0  0  0  0  0  0  0
   -3.1660    0.1626   -0.2571 C   0  0  0  0  0  0  0  0  0  0  0  0
    5.2538   -0.3804   -1.0980 H   0  0  0  0  0  0  0  0  0  0  0  0
    4.2621    0.3801   -2.3509 H   0  0  0  0  0  0  0  0  0  0  0  0
    3.5488   -1.7540   -0.7319 H   0  0  0  0  0  0  0  0  0  0  0  0
    2.4757   -0.9161   -1.9307 H   0  0  0  0  0  0  0  0  0  0  0  0
    1.9062    1.0545    1.5832 H   0  0  0  0  0  0  0  0  0  0  0  0
    3.1038   -0.2079    2.0407 H   0  0  0  0  0  0  0  0  0  0  0  0
    3.6671    2.3548    1.1327 H   0  0  0  0  0  0  0  0  0  0  0  0
    4.8344    1.0762    1.4661 H   0  0  0  0  0  0  0  0  0  0  0  0
    5.2534    1.7727   -0.6275 H   0  0  0  0  0  0  0  0  0  0  0  0
    2.0826   -2.8198    0.9439 H   0  0  0  0  0  0  0  0  0  0  0  0
    0.0406   -4.1886    1.3327 H   0  0  0  0  0  0  0  0  0  0  0  0
   -4.4575   -2.1877    0.5107 H   0  0  0  0  0  0  0  0  0  0  0  0
   -0.8567    2.5860    0.0044 H   0  0  0  0  0  0  0  0  0  0  0  0
   -2.5940    3.4441   -0.8697 H   0  0  0  0  0  0  0  0  0  0  0  0
   -5.0305    3.3181   -1.3153 H   0  0  0  0  0  0  0  0  0  0  0  0
   -6.2557    1.2557   -1.0994 H   0  0  0  0  0  0  0  0  0  0  0  0
   -5.0722   -0.8027   -0.4281 H   0  0  0  0  0  0  0  0  0  0  0  0
  1  2  1  0
  2  3  1  0
  3  4  1  0
  4  5  1  0
  5  6  1  0
  3  7  1  0
  7  8  2  0
  8  9  1  0
  9 10  2  0
 10 11  1  0
 11 12  2  0
 12 13  1  0
 13 14  1  0
 14 15  2  0
 15 16  1  0
 16 17  2  0
 16 18  1  0
 18 19  1  0
 19 20  2  0
 20 21  1  0
 21 22  2  0
 22 23  1  0
 23 24  2  0
  6  1  1  0
 15  7  1  0
 24 19  1  0
 14 10  1  0
 24 13  1  0
  1 25  1  0
  1 26  1  0
  2 27  1  0
  2 28  1  0
  4 29  1  0
  4 30  1  0
  5 31  1  0
  5 32  1  0
  6 33  1  0
  8 34  1  0
  9 35  1  0
 12 36  1  0
 18 37  1  0
 20 38  1  0
 21 39  1  0
 22 40  1  0
 23 41  1  0
M  END
$$$$
[H]c1nc(N([H])[H])c(-c2nc3c([H])c([H])c([H])c([H])c3o2)c(N([H])c2c([H])c([H])c(OC([H])([H])c3c([H])c([H])c([H])c([H])c3[H])c(F)c2[H])n1
     RDKit          3D

 50 54  0  0  0  0  0  0  0  0999 V2000
   -4.3394   -3.7271   -1.0385 N   0  0  0  0  0  0  0  0  0  0  0  0
   -3.0037   -3.5260   -0.6244 C   0  0  0  0  0  0  0  0  0  0  0  0
   -2.0971   -4.5098   -0.5548 N   0  0  0  0  0  0  0  0  0  0  0  0
   -0.8323   -4.3026   -0.1595 C   0  0  0  0  0  0  0  0  0  0  0  0
   -0.5084   -3.0535    0.1673 N   0  0  0  0  0  0  0  0  0  0  0  0
   -1.3621   -1.9896    0.1276 C   0  0  0  0  0  0  0  0  0  0  0  0
   -0.8676   -0.7165    0.4576 N   0  0  0  0  0  0  0  0  0  0  0  0
    0.4633   -0.5210    0.9237 C   0  0  0  0  0  0  0  0  0  0  0  0
    1.0878    0.6641    0.5604 C   0  0  0  0  0  0  0  0  0  0  0  0
    2.3673    1.0219    0.9566 C   0  0  0  0  0  0  0  0  0  0  0  0
    3.0504    0.1436    1.7564 C   0  0  0  0  0  0  0  0  0  0  0  0
    4.3216    0.4465    2.1809 O   0  0  0  0  0  0  0  0  0  0  0  0
    5.0782    1.5628    1.8946 C   0  0  0  0  0  0  0  0  0  0  0  0
    5.3832    1.6704    0.4570 C   0  0  0  0  0  0  0  0  0  0  0  0
    5.6948    2.9221   -0.0712 C   0  0  0  0  0  0  0  0  0  0  0  0
    5.9959    3.0188   -1.4196 C   0  0  0  0  0  0  0  0  0  0  0  0
    5.9737    1.8692   -2.1802 C   0  0  0  0  0  0  0  0  0  0  0  0
    5.6671    0.6324   -1.6640 C   0  0  0  0  0  0  0  0  0  0  0  0
    5.3686    0.5400   -0.3247 C   0  0  0  0  0  0  0  0  0  0  0  0
    2.4639   -1.0694    2.1536 C   0  0  0  0  0  0  0  0  0  0  0  0
    3.2000   -1.8714    2.9368 F   0  0  0  0  0  0  0  0  0  0  0  0
    1.1875   -1.3550    1.7202 C   0  0  0  0  0  0  0  0  0  0  0  0
   -2.6406   -2.2116   -0.2739 C   0  0  0  0  0  0  0  0  0  0  0  0
   -3.6410   -1.1763   -0.3529 C   0  0  0  0  0  0  0  0  0  0  0  0
   -4.9339   -1.3293   -0.7571 N   0  0  0  0  0  0  0  0  0  0  0  0
   -5.5583   -0.1655   -0.7016 C   0  0  0  0  0  0  0  0  0  0  0  0
   -6.8311    0.3173   -0.9712 C   0  0  0  0  0  0  0  0  0  0  0  0
   -7.1626    1.6292   -0.8011 C   0  0  0  0  0  0  0  0  0  0  0  0
   -6.2344    2.5450   -0.3476 C   0  0  0  0  0  0  0  0  0  0  0  0
   -4.9653    2.0910   -0.0732 C   0  0  0  0  0  0  0  0  0  0  0  0
   -4.6280    0.7600   -0.2455 C   0  0  0  0  0  0  0  0  0  0  0  0
   -3.5468    0.0810   -0.0710 O   0  0  0  0  0  0  0  0  0  0  0  0
   -4.5598   -3.7195   -2.0465 H   0  0  0  0  0  0  0  0  0  0  0  0
   -5.0500   -3.8770   -0.2725 H   0  0  0  0  0  0  0  0  0  0  0  0
   -0.0921   -5.1032   -0.1021 H   0  0  0  0  0  0  0  0  0  0  0  0
   -1.4355    0.1629    0.3812 H   0  0  0  0  0  0  0  0  0  0  0  0
    0.5642    1.3607   -0.0661 H   0  0  0  0  0  0  0  0  0  0  0  0
    2.7911    1.9846    0.6395 H   0  0  0  0  0  0  0  0  0  0  0  0
    6.0016    1.5666    2.5202 H   0  0  0  0  0  0  0  0  0  0  0  0
    4.4637    2.4607    2.1574 H   0  0  0  0  0  0  0  0  0  0  0  0
    5.6881    3.7707    0.5991 H   0  0  0  0  0  0  0  0  0  0  0  0
    6.2402    3.9858   -1.8448 H   0  0  0  0  0  0  0  0  0  0  0  0
    6.2132    1.9657   -3.2376 H   0  0  0  0  0  0  0  0  0  0  0  0
    5.6565   -0.2564   -2.2830 H   0  0  0  0  0  0  0  0  0  0  0  0
    5.1223   -0.4268    0.1099 H   0  0  0  0  0  0  0  0  0  0  0  0
    0.7522   -2.2899    2.0645 H   0  0  0  0  0  0  0  0  0  0  0  0
   -7.5657   -0.3941   -1.3274 H   0  0  0  0  0  0  0  0  0  0  0  0
   -8.1651    2.0079   -1.0138 H   0  0  0  0  0  0  0  0  0  0  0  0
   -6.5279    3.5838   -0.2218 H   0  0  0  0  0  0  0  0  0  0  0  0
   -4.2476    2.8269    0.2831 H   0  0  0  0  0  0  0  0  0  0  0  0
  1  2  1  0
  2  3  2  0
  3  4  1  0
  4  5  2  0
  5  6  1  0
  6  7  1  0
  7  8  1  0
  8  9  2  0
  9 10  1  0
 10 11  2  0
 11 12  1  0
 12 13  1  0
 13 14  1  0
 14 15  2  0
 15 16  1  0
 16 17  2  0
 17 18  1  0
 18 19  2  0
 11 20  1  0
 20 21  1  0
 20 22  2  0
  6 23  2  0
 23 24  1  0
 24 25  2  0
 25 26  1  0
 26 27  2  0
 27 28  1  0
 28 29  2  0
 29 30  1  0
 30 31  2  0
 31 32  1  0
 23  2  1  0
 32 24  1  0
 22  8  1  0
 31 26  1  0
 19 14  1  0
  1 33  1  0
  1 34  1  0
  4 35  1  0
  7 36  1  0
  9 37  1  0
 10 38  1  0
 13 39  1  0
 13 40  1  0
 15 41  1  0
 16 42  1  0
 17 43  1  0
 18 44  1  0
 19 45  1  0
 22 46  1  0
 27 47  1  0
 28 48  1  0
 29 49  1  0
 30 50  1  0
M  END
$$$$
[H]c1sc(S(=O)(=O)N([H])c2c([H])c([H])c([H])c(C([H])([H])C([H])([H])c3nnc(-c4c([H])c([H])c(Cl)c(Cl)c4[H])o3)c2[H])c([H])c1[H]
     RDKit          3D

 45 48  0  0  0  0  0  0  0  0999 V2000
    8.3387   -0.0010    3.9567 Cl  0  0  0  0  0  0  0  0  0  0  0  0
    7.0324    0.3770    2.8448 C   0  0  0  0  0  0  0  0  0  0  0  0
    5.8103   -0.2417    2.9999 C   0  0  0  0  0  0  0  0  0  0  0  0
    4.8104    0.0777    2.1119 C   0  0  0  0  0  0  0  0  0  0  0  0
    4.9912    0.9927    1.0765 C   0  0  0  0  0  0  0  0  0  0  0  0
    6.2089    1.5850    0.9518 C   0  0  0  0  0  0  0  0  0  0  0  0
    7.2383    1.2901    1.8243 C   0  0  0  0  0  0  0  0  0  0  0  0
    8.8038    2.0357    1.6835 Cl  0  0  0  0  0  0  0  0  0  0  0  0
    3.8866    1.2772    0.1796 C   0  0  0  0  0  0  0  0  0  0  0  0
    3.9445    2.1388   -0.8511 N   0  0  0  0  0  0  0  0  0  0  0  0
    2.7581    2.1654   -1.4716 N   0  0  0  0  0  0  0  0  0  0  0  0
    1.9737    1.3087   -0.8068 C   0  0  0  0  0  0  0  0  0  0  0  0
    0.5408    0.9778   -1.1098 C   0  0  0  0  0  0  0  0  0  0  0  0
    0.5088   -0.1982   -2.0769 C   0  0  0  0  0  0  0  0  0  0  0  0
   -0.9244   -0.4837   -2.3425 C   0  0  0  0  0  0  0  0  0  0  0  0
   -1.5448    0.1569   -3.3937 C   0  0  0  0  0  0  0  0  0  0  0  0
   -2.8737   -0.0988   -3.6510 C   0  0  0  0  0  0  0  0  0  0  0  0
   -3.5451   -0.9955   -2.8408 C   0  0  0  0  0  0  0  0  0  0  0  0
   -2.9326   -1.6271   -1.8039 C   0  0  0  0  0  0  0  0  0  0  0  0
   -3.5771   -2.5520   -0.9501 N   0  0  0  0  0  0  0  0  0  0  0  0
   -5.1346   -2.2729   -0.2750 S   0  0  0  0  0  0  0  0  0  0  0  0
   -5.6079   -3.4303    0.5393 O   0  0  0  0  0  0  0  0  0  0  0  0
   -6.1225   -1.9989   -1.3500 O   0  0  0  0  0  0  0  0  0  0  0  0
   -5.0515   -0.8257    0.7434 C   0  0  0  0  0  0  0  0  0  0  0  0
   -5.3132   -0.7327    2.0842 C   0  0  0  0  0  0  0  0  0  0  0  0
   -5.1827    0.4836    2.6505 C   0  0  0  0  0  0  0  0  0  0  0  0
   -4.8032    1.5140    1.8447 C   0  0  0  0  0  0  0  0  0  0  0  0
   -4.6361    0.7713    0.3202 S   0  0  0  0  0  0  0  0  0  0  0  0
   -1.5845   -1.3782   -1.5300 C   0  0  0  0  0  0  0  0  0  0  0  0
    2.6717    0.7941    0.1717 O   0  0  0  0  0  0  0  0  0  0  0  0
    5.6546   -0.9591    3.8045 H   0  0  0  0  0  0  0  0  0  0  0  0
    3.8432   -0.3805    2.1958 H   0  0  0  0  0  0  0  0  0  0  0  0
    6.3755    2.3018    0.1532 H   0  0  0  0  0  0  0  0  0  0  0  0
    0.0681    0.6812   -0.1579 H   0  0  0  0  0  0  0  0  0  0  0  0
    0.1064    1.8777   -1.5541 H   0  0  0  0  0  0  0  0  0  0  0  0
    1.0215   -1.0787   -1.6526 H   0  0  0  0  0  0  0  0  0  0  0  0
    0.9710    0.0973   -3.0371 H   0  0  0  0  0  0  0  0  0  0  0  0
   -0.9882    0.8580   -4.0138 H   0  0  0  0  0  0  0  0  0  0  0  0
   -3.3363    0.4156   -4.4800 H   0  0  0  0  0  0  0  0  0  0  0  0
   -4.5773   -1.1772   -3.0632 H   0  0  0  0  0  0  0  0  0  0  0  0
   -3.0821   -3.4392   -0.7238 H   0  0  0  0  0  0  0  0  0  0  0  0
   -5.6173   -1.6550    2.6352 H   0  0  0  0  0  0  0  0  0  0  0  0
   -5.3742    0.6523    3.7300 H   0  0  0  0  0  0  0  0  0  0  0  0
   -4.6540    2.5633    2.1583 H   0  0  0  0  0  0  0  0  0  0  0  0
   -1.0953   -1.8665   -0.7217 H   0  0  0  0  0  0  0  0  0  0  0  0
  1  2  1  0
  2  3  2  0
  3  4  1  0
  4  5  2  0
  5  6  1  0
  6  7  2  0
  7  8  1  0
  5  9  1  0
  9 10  2  0
 10 11  1  0
 11 12  2  0
 12 13  1  0
 13 14  1  0
 14 15  1  0
 15 16  2  0
 16 17  1  0
 17 18  2  0
 18 19  1  0
 19 20  1  0
 20 21  1  0
 21 22  2  0
 21 23  2  0
 21 24  1  0
 24 25  2  0
 25 26  1  0
 26 27  2  0
 27 28  1  0
 19 29  2  0
 12 30  1  0
  7  2  1  0
 30  9  1  0
 29 15  1  0
 28 24  1  0
  3 31  1  0
  4 32  1  0
  6 33  1  0
 13 34  1  0
 13 35  1  0
 14 36  1  0
 14 37  1  0
 16 38  1  0
 17 39  1  0
 18 40  1  0
 20 41  1  0
 25 42  1  0
 26 43  1  0
 27 44  1  0
 29 45  1  0
M  END
$$$$
[H]c1c([H])c([H])c2c(c1[H])c1c3c(c4c5c([H])c([H])c([H])c([H])c5n5c4c1n2[C@@]1([H])O[C@]5(C([H])([H])[H])[C@@]([H])(OC([H])([H])[H])[C@@]([H])(N([H])C([H])([H])[H])C1([H])[H])C([H])([H])N([H])C3=O
     RDKit          3D

 61 68  0  0  0  0  0  0  0  0999 V2000
   -2.5900    1.1246    2.6909 C   0  0  0  0  0  0  0  0  0  0  0  0
   -2.2701    0.1494    1.6691 N   0  0  0  0  0  0  0  0  0  0  0  0
   -2.7037    0.7256    0.3894 C   0  0  1  0  0  0  0  0  0  0  0  0
   -1.9693    1.9591    0.0600 C   0  0  0  0  0  0  0  0  0  0  0  0
   -1.0374    1.8542   -1.1025 C   0  0  2  0  0  0  0  0  0  0  0  0
   -1.1108    0.8211   -1.8978 O   0  0  0  0  0  0  0  0  0  0  0  0
   -1.4719   -0.4453   -1.4993 C   0  0  2  0  0  0  0  0  0  0  0  0
   -1.8587   -1.0747   -2.8537 C   0  0  0  0  0  0  0  0  0  0  0  0
   -2.6627   -0.3659   -0.6565 C   0  0  1  0  0  0  0  0  0  0  0  0
   -3.0555   -1.5061    0.0270 O   0  0  0  0  0  0  0  0  0  0  0  0
   -4.3079   -1.9695   -0.2639 C   0  0  0  0  0  0  0  0  0  0  0  0
   -0.3020   -1.1026   -0.9411 N   0  0  0  0  0  0  0  0  0  0  0  0
   -0.0368   -2.4107   -0.8661 C   0  0  0  0  0  0  0  0  0  0  0  0
   -0.7505   -3.5118   -1.2342 C   0  0  0  0  0  0  0  0  0  0  0  0
   -0.2313   -4.7829   -1.0386 C   0  0  0  0  0  0  0  0  0  0  0  0
    1.0025   -5.0019   -0.4761 C   0  0  0  0  0  0  0  0  0  0  0  0
    1.7444   -3.8826   -0.0939 C   0  0  0  0  0  0  0  0  0  0  0  0
    1.2038   -2.6348   -0.3003 C   0  0  0  0  0  0  0  0  0  0  0  0
    1.7282   -1.3877   -0.0109 C   0  0  0  0  0  0  0  0  0  0  0  0
    2.9250   -0.9637    0.5498 C   0  0  0  0  0  0  0  0  0  0  0  0
    4.0703   -1.7821    1.0519 C   0  0  0  0  0  0  0  0  0  0  0  0
    5.0490   -0.8360    1.5052 N   0  0  0  0  0  0  0  0  0  0  0  0
    4.5511    0.4878    1.3292 C   0  0  0  0  0  0  0  0  0  0  0  0
    5.2116    1.4752    1.6612 O   0  0  0  0  0  0  0  0  0  0  0  0
    3.2325    0.3685    0.7340 C   0  0  0  0  0  0  0  0  0  0  0  0
    2.2736    1.2731    0.3281 C   0  0  0  0  0  0  0  0  0  0  0  0
    2.1943    2.6494    0.3519 C   0  0  0  0  0  0  0  0  0  0  0  0
    3.0346    3.6410    0.7719 C   0  0  0  0  0  0  0  0  0  0  0  0
    2.6237    4.9672    0.6424 C   0  0  0  0  0  0  0  0  0  0  0  0
    1.4040    5.3207    0.1079 C   0  0  0  0  0  0  0  0  0  0  0  0
    0.5569    4.3176   -0.3154 C   0  0  0  0  0  0  0  0  0  0  0  0
    0.9564    3.0255   -0.1896 C   0  0  0  0  0  0  0  0  0  0  0  0
    0.3179    1.9031   -0.5262 N   0  0  0  0  0  0  0  0  0  0  0  0
    1.0813    0.8475   -0.2300 C   0  0  0  0  0  0  0  0  0  0  0  0
    0.8029   -0.4946   -0.4048 C   0  0  0  0  0  0  0  0  0  0  0  0
   -1.7275    1.7656    2.9459 H   0  0  0  0  0  0  0  0  0  0  0  0
   -3.4000    1.7830    2.2910 H   0  0  0  0  0  0  0  0  0  0  0  0
   -3.0290    0.6437    3.5924 H   0  0  0  0  0  0  0  0  0  0  0  0
   -2.7602   -0.7186    1.9035 H   0  0  0  0  0  0  0  0  0  0  0  0
   -3.7998    0.9480    0.5957 H   0  0  0  0  0  0  0  0  0  0  0  0
   -1.4594    2.3204    1.0029 H   0  0  0  0  0  0  0  0  0  0  0  0
   -2.7065    2.7776   -0.1658 H   0  0  0  0  0  0  0  0  0  0  0  0
   -1.0912    2.7965   -1.7221 H   0  0  0  0  0  0  0  0  0  0  0  0
   -2.0056   -0.3257   -3.6573 H   0  0  0  0  0  0  0  0  0  0  0  0
   -1.0068   -1.6950   -3.1940 H   0  0  0  0  0  0  0  0  0  0  0  0
   -2.8277   -1.6039   -2.8044 H   0  0  0  0  0  0  0  0  0  0  0  0
   -3.5358   -0.1252   -1.3381 H   0  0  0  0  0  0  0  0  0  0  0  0
   -4.4650   -2.8889    0.3782 H   0  0  0  0  0  0  0  0  0  0  0  0
   -4.4865   -2.3125   -1.2897 H   0  0  0  0  0  0  0  0  0  0  0  0
   -5.1216   -1.2643    0.0633 H   0  0  0  0  0  0  0  0  0  0  0  0
   -1.7208   -3.3825   -1.6725 H   0  0  0  0  0  0  0  0  0  0  0  0
   -0.8491   -5.6109   -1.3524 H   0  0  0  0  0  0  0  0  0  0  0  0
    1.4213   -5.9802   -0.3168 H   0  0  0  0  0  0  0  0  0  0  0  0
    2.7206   -4.0420    0.3513 H   0  0  0  0  0  0  0  0  0  0  0  0
    3.7648   -2.4865    1.8473 H   0  0  0  0  0  0  0  0  0  0  0  0
    4.5351   -2.3717    0.2322 H   0  0  0  0  0  0  0  0  0  0  0  0
    5.9960   -1.0989    1.9084 H   0  0  0  0  0  0  0  0  0  0  0  0
    3.9823    3.4684    1.1903 H   0  0  0  0  0  0  0  0  0  0  0  0
    3.2909    5.7541    0.9750 H   0  0  0  0  0  0  0  0  0  0  0  0
    1.0902    6.3566    0.0099 H   0  0  0  0  0  0  0  0  0  0  0  0
   -0.4140    4.5350   -0.7434 H   0  0  0  0  0  0  0  0  0  0  0  0
  1  2  1  0
  2  3  1  0
  3  4  1  0
  4  5  1  0
  5  6  1  0
  6  7  1  0
  7  8  1  6
  7  9  1  0
  9 10  1  0
 10 11  1  0
  7 12  1  0
 12 13  1  0
 13 14  2  0
 14 15  1  0
 15 16  2  0
 16 17  1  0
 17 18  2  0
 18 19  1  0
 19 20  2  0
 20 21  1  0
 21 22  1  0
 22 23  1  0
 23 24  2  0
 23 25  1  0
 25 26  2  0
 26 27  1  0
 27 28  2  0
 28 29  1  0
 29 30  2  0
 30 31  1  0
 31 32  2  0
 32 33  1  0
 33 34  1  0
 34 35  2  0
  9  3  1  0
 35 12  1  0
 33  5  1  0
 18 13  1  0
 35 19  1  0
 25 20  1  0
 34 26  1  0
 32 27  1  0
  1 36  1  0
  1 37  1  0
  1 38  1  0
  2 39  1  0
  3 40  1  1
  4 41  1  0
  4 42  1  0
  5 43  1  6
  8 44  1  0
  8 45  1  0
  8 46  1  0
  9 47  1  6
 11 48  1  0
 11 49  1  0
 11 50  1  0
 14 51  1  0
 15 52  1  0
 16 53  1  0
 17 54  1  0
 21 55  1  0
 21 56  1  0
 22 57  1  0
 28 58  1  0
 29 59  1  0
 30 60  1  0
 31 61  1  0
M  END
$$$$
[H]ON([H])C(=O)[C@@]([H])(N([H])S(=O)(=O)c1c([H])c([H])c2c3c([H])c([H])c([H])c([H])c3n([H])c2c1[H])C([H])([H])N(C([H])([H])[H])C1([H])C([H])([H])C([H])([H])C([H])(C([H])([H])[H])C([H])([H])C1([H])[H]
     RDKit          3D

 62 65  0  0  0  0  0  0  0  0999 V2000
    2.1051   -1.5833   -1.1405 C   0  0  0  0  0  0  0  0  0  0  0  0
    2.4264   -0.7139   -0.0602 N   0  0  0  0  0  0  0  0  0  0  0  0
    1.8597    0.5609   -0.0846 C   0  0  0  0  0  0  0  0  0  0  0  0
    0.3661    0.6595    0.1251 C   0  0  2  0  0  0  0  0  0  0  0  0
    0.0564    2.0854    0.0177 N   0  0  0  0  0  0  0  0  0  0  0  0
   -1.0334    2.4426   -1.2349 S   0  0  0  0  0  0  0  0  0  0  0  0
   -1.2366    3.9054   -1.4302 O   0  0  0  0  0  0  0  0  0  0  0  0
   -0.4902    1.8743   -2.5327 O   0  0  0  0  0  0  0  0  0  0  0  0
   -2.5662    1.6160   -0.9454 C   0  0  0  0  0  0  0  0  0  0  0  0
   -2.9503    0.5184   -1.6872 C   0  0  0  0  0  0  0  0  0  0  0  0
   -4.1455   -0.1564   -1.4603 C   0  0  0  0  0  0  0  0  0  0  0  0
   -4.9995    0.2684   -0.4591 C   0  0  0  0  0  0  0  0  0  0  0  0
   -4.6149    1.3642    0.2808 C   0  0  0  0  0  0  0  0  0  0  0  0
   -3.4240    2.0395    0.0567 C   0  0  0  0  0  0  0  0  0  0  0  0
   -5.6149    1.5579    1.1796 N   0  0  0  0  0  0  0  0  0  0  0  0
   -6.5763    0.6268    1.0056 C   0  0  0  0  0  0  0  0  0  0  0  0
   -7.7848    0.3970    1.6569 C   0  0  0  0  0  0  0  0  0  0  0  0
   -8.6195   -0.6413    1.2871 C   0  0  0  0  0  0  0  0  0  0  0  0
   -8.2324   -1.4604    0.2474 C   0  0  0  0  0  0  0  0  0  0  0  0
   -7.0514   -1.2666   -0.4168 C   0  0  0  0  0  0  0  0  0  0  0  0
   -6.2244   -0.2147   -0.0295 C   0  0  0  0  0  0  0  0  0  0  0  0
   -0.0707    0.2870    1.4939 C   0  0  0  0  0  0  0  0  0  0  0  0
   -0.5492    1.1626    2.2883 O   0  0  0  0  0  0  0  0  0  0  0  0
    0.0248   -1.0350    1.9648 N   0  0  0  0  0  0  0  0  0  0  0  0
   -0.3937   -1.3153    3.2451 O   0  0  0  0  0  0  0  0  0  0  0  0
    3.4970   -1.0420    0.7693 C   0  0  0  0  0  0  0  0  0  0  0  0
    4.2842    0.1019    1.3392 C   0  0  0  0  0  0  0  0  0  0  0  0
    5.0947    0.8007    0.2744 C   0  0  0  0  0  0  0  0  0  0  0  0
    6.1847   -0.2183   -0.0979 C   0  0  0  0  0  0  0  0  0  0  0  0
    7.2711    0.4348   -0.9176 C   0  0  0  0  0  0  0  0  0  0  0  0
    5.4585   -1.3197   -0.8141 C   0  0  0  0  0  0  0  0  0  0  0  0
    4.4525   -1.9754    0.0543 C   0  0  0  0  0  0  0  0  0  0  0  0
    1.8951   -2.6327   -0.8490 H   0  0  0  0  0  0  0  0  0  0  0  0
    1.1345   -1.2208   -1.5982 H   0  0  0  0  0  0  0  0  0  0  0  0
    2.8230   -1.5848   -1.9811 H   0  0  0  0  0  0  0  0  0  0  0  0
    2.0169    0.9885   -1.1230 H   0  0  0  0  0  0  0  0  0  0  0  0
    2.4032    1.2609    0.5762 H   0  0  0  0  0  0  0  0  0  0  0  0
   -0.1835    0.1283   -0.6483 H   0  0  0  0  0  0  0  0  0  0  0  0
    0.8622    2.7062    0.1095 H   0  0  0  0  0  0  0  0  0  0  0  0
   -2.2914    0.1790   -2.4696 H   0  0  0  0  0  0  0  0  0  0  0  0
   -4.4554   -1.0180   -2.0434 H   0  0  0  0  0  0  0  0  0  0  0  0
   -3.1454    2.8856    0.6425 H   0  0  0  0  0  0  0  0  0  0  0  0
   -5.6259    2.3225    1.8997 H   0  0  0  0  0  0  0  0  0  0  0  0
   -8.0792    1.0537    2.4823 H   0  0  0  0  0  0  0  0  0  0  0  0
   -9.5738   -0.8124    1.8119 H   0  0  0  0  0  0  0  0  0  0  0  0
   -8.8704   -2.2812   -0.0581 H   0  0  0  0  0  0  0  0  0  0  0  0
   -6.7172   -1.8952   -1.2416 H   0  0  0  0  0  0  0  0  0  0  0  0
    0.3936   -1.8426    1.4213 H   0  0  0  0  0  0  0  0  0  0  0  0
   -0.5315   -2.2862    3.3682 H   0  0  0  0  0  0  0  0  0  0  0  0
    3.1898   -1.6512    1.6858 H   0  0  0  0  0  0  0  0  0  0  0  0
    5.0554   -0.3927    2.0148 H   0  0  0  0  0  0  0  0  0  0  0  0
    3.7478    0.7790    1.9989 H   0  0  0  0  0  0  0  0  0  0  0  0
    5.5199    1.7614    0.6183 H   0  0  0  0  0  0  0  0  0  0  0  0
    4.4467    0.9221   -0.6168 H   0  0  0  0  0  0  0  0  0  0  0  0
    6.6083   -0.5658    0.8656 H   0  0  0  0  0  0  0  0  0  0  0  0
    7.6320    1.3056   -0.3080 H   0  0  0  0  0  0  0  0  0  0  0  0
    8.1196   -0.2644   -0.9741 H   0  0  0  0  0  0  0  0  0  0  0  0
    6.9412    0.7169   -1.9120 H   0  0  0  0  0  0  0  0  0  0  0  0
    5.0757   -0.8919   -1.7622 H   0  0  0  0  0  0  0  0  0  0  0  0
    6.1949   -2.0982   -1.1158 H   0  0  0  0  0  0  0  0  0  0  0  0
    5.0243   -2.5886    0.8049 H   0  0  0  0  0  0  0  0  0  0  0  0
    3.8864   -2.7441   -0.5331 H   0  0  0  0  0  0  0  0  0  0  0  0
  1  2  1  0
  2  3  1  0
  3  4  1  0
  4  5  1  0
  5  6  1  0
  6  7  2  0
  6  8  2  0
  6  9  1  0
  9 10  2  0
 10 11  1  0
 11 12  2  0
 12 13  1  0
 13 14  2  0
 13 15  1  0
 15 16  1  0
 16 17  2  0
 17 18  1  0
 18 19  2  0
 19 20  1  0
 20 21  2  0
  4 22  1  0
 22 23  2  0
 22 24  1  0
 24 25  1  0
  2 26  1  0
 26 27  1  0
 27 28  1  0
 28 29  1  0
 29 30  1  0
 29 31  1  0
 31 32  1  0
 14  9  1  0
 21 16  1  0
 32 26  1  0
 21 12  1  0
  1 33  1  0
  1 34  1  0
  1 35  1  0
  3 36  1  0
  3 37  1  0
  4 38  1  6
  5 39  1  0
 10 40  1  0
 11 41  1  0
 14 42  1  0
 15 43  1  0
 17 44  1  0
 18 45  1  0
 19 46  1  0
 20 47  1  0
 24 48  1  0
 25 49  1  0
 26 50  1  0
 27 51  1  0
 27 52  1  0
 28 53  1  0
 28 54  1  0
 29 55  1  0
 30 56  1  0
 30 57  1  0
 30 58  1  0
 31 59  1  0
 31 60  1  0
 32 61  1  0
 32 62  1  0
M  END
$$$$
[H]c1c([H])c(F)c([H])c(C([H])([H])N([H])c2nc(-c3c([H])c([H])c4c(c3[H])OC([H])([H])C([H])([H])O4)c(C(=O)N([H])[H])s2)c1[H]
     RDKit          3D

 43 46  0  0  0  0  0  0  0  0999 V2000
    0.1468   -3.4752   -2.1402 N   0  0  0  0  0  0  0  0  0  0  0  0
   -0.6493   -2.4839   -1.5098 C   0  0  0  0  0  0  0  0  0  0  0  0
   -1.8131   -2.3653   -1.9265 O   0  0  0  0  0  0  0  0  0  0  0  0
   -0.0641   -1.6759   -0.4275 C   0  0  0  0  0  0  0  0  0  0  0  0
    1.5982   -1.6870    0.0820 S   0  0  0  0  0  0  0  0  0  0  0  0
    1.4997   -0.5148    1.3104 C   0  0  0  0  0  0  0  0  0  0  0  0
    2.5372   -0.0238    2.1632 N   0  0  0  0  0  0  0  0  0  0  0  0
    3.8859   -0.5216    2.0395 C   0  0  0  0  0  0  0  0  0  0  0  0
    4.4867   -0.2254    0.7204 C   0  0  0  0  0  0  0  0  0  0  0  0
    4.8755   -1.1955   -0.1665 C   0  0  0  0  0  0  0  0  0  0  0  0
    5.4364   -0.9373   -1.3998 C   0  0  0  0  0  0  0  0  0  0  0  0
    5.6106    0.3805   -1.7479 C   0  0  0  0  0  0  0  0  0  0  0  0
    5.2321    1.3801   -0.8829 C   0  0  0  0  0  0  0  0  0  0  0  0
    5.4037    2.6705   -1.2262 F   0  0  0  0  0  0  0  0  0  0  0  0
    4.6755    1.1062    0.3402 C   0  0  0  0  0  0  0  0  0  0  0  0
    0.2260   -0.1800    1.2722 N   0  0  0  0  0  0  0  0  0  0  0  0
   -0.5835   -0.7418    0.4164 C   0  0  0  0  0  0  0  0  0  0  0  0
   -2.0220   -0.3096    0.4129 C   0  0  0  0  0  0  0  0  0  0  0  0
   -3.0455   -1.2054    0.5404 C   0  0  0  0  0  0  0  0  0  0  0  0
   -4.3770   -0.7862    0.5163 C   0  0  0  0  0  0  0  0  0  0  0  0
   -4.6679    0.5573    0.3615 C   0  0  0  0  0  0  0  0  0  0  0  0
   -5.9635    1.0533    0.3275 O   0  0  0  0  0  0  0  0  0  0  0  0
   -6.1960    2.4342    0.5498 C   0  0  0  0  0  0  0  0  0  0  0  0
   -5.2413    3.2017   -0.3400 C   0  0  0  0  0  0  0  0  0  0  0  0
   -3.9189    2.8290    0.0760 O   0  0  0  0  0  0  0  0  0  0  0  0
   -3.6439    1.4705    0.2325 C   0  0  0  0  0  0  0  0  0  0  0  0
   -2.3346    1.0246    0.2600 C   0  0  0  0  0  0  0  0  0  0  0  0
    0.3653   -4.3490   -1.6464 H   0  0  0  0  0  0  0  0  0  0  0  0
    0.4993   -3.3086   -3.0907 H   0  0  0  0  0  0  0  0  0  0  0  0
    2.3333    0.6893    2.8737 H   0  0  0  0  0  0  0  0  0  0  0  0
    3.8994   -1.6491    2.1483 H   0  0  0  0  0  0  0  0  0  0  0  0
    4.5386   -0.1598    2.8484 H   0  0  0  0  0  0  0  0  0  0  0  0
    4.7475   -2.2422    0.0881 H   0  0  0  0  0  0  0  0  0  0  0  0
    5.7269   -1.7292   -2.0643 H   0  0  0  0  0  0  0  0  0  0  0  0
    6.0468    0.6621   -2.7048 H   0  0  0  0  0  0  0  0  0  0  0  0
    4.3696    1.8532    1.0377 H   0  0  0  0  0  0  0  0  0  0  0  0
   -2.8863   -2.2471    0.6767 H   0  0  0  0  0  0  0  0  0  0  0  0
   -5.1901   -1.4821    0.6152 H   0  0  0  0  0  0  0  0  0  0  0  0
   -6.0656    2.6967    1.6188 H   0  0  0  0  0  0  0  0  0  0  0  0
   -7.2420    2.6452    0.2502 H   0  0  0  0  0  0  0  0  0  0  0  0
   -5.3617    2.8302   -1.3681 H   0  0  0  0  0  0  0  0  0  0  0  0
   -5.3580    4.2868   -0.2514 H   0  0  0  0  0  0  0  0  0  0  0  0
   -1.5170    1.7244    0.1605 H   0  0  0  0  0  0  0  0  0  0  0  0
  1  2  1  0
  2  3  2  0
  2  4  1  0
  4  5  1  0
  5  6  1  0
  6  7  1  0
  7  8  1  0
  8  9  1  0
  9 10  2  0
 10 11  1  0
 11 12  2  0
 12 13  1  0
 13 14  1  0
 13 15  2  0
  6 16  2  0
 16 17  1  0
 17 18  1  0
 18 19  2  0
 19 20  1  0
 20 21  2  0
 21 22  1  0
 22 23  1  0
 23 24  1  0
 24 25  1  0
 25 26  1  0
 26 27  2  0
 17  4  2  0
 27 18  1  0
 15  9  1  0
 26 21  1  0
  1 28  1  0
  1 29  1  0
  7 30  1  0
  8 31  1  0
  8 32  1  0
 10 33  1  0
 11 34  1  0
 12 35  1  0
 15 36  1  0
 19 37  1  0
 20 38  1  0
 23 39  1  0
 23 40  1  0
 24 41  1  0
 24 42  1  0
 27 43  1  0
M  END
$$$$
[H]c1nc(N([H])c2c([H])c([H])c(N3C([H])([H])C([H])([H])N(C([H])([H])[H])C([H])([H])C3([H])[H])c([H])c2[H])nc(N([H])C([H])([H])c2c([H])c([H])c(N([H])C(=O)c3c([H])c(C4([H])C([H])([H])C4([H])[H])nn3[H])c([H])c2Cl)c1Cl
     RDKit          3D

 72 77  0  0  0  0  0  0  0  0999 V2000
   -6.9024    4.1639    1.7115 C   0  0  0  0  0  0  0  0  0  0  0  0
   -7.2494    2.8252    2.0701 N   0  0  0  0  0  0  0  0  0  0  0  0
   -8.0786    2.1328    1.1354 C   0  0  0  0  0  0  0  0  0  0  0  0
   -7.3291    1.6693   -0.0847 C   0  0  0  0  0  0  0  0  0  0  0  0
   -6.0681    1.0581    0.2919 N   0  0  0  0  0  0  0  0  0  0  0  0
   -5.2453    1.8332    1.2052 C   0  0  0  0  0  0  0  0  0  0  0  0
   -6.0592    2.1037    2.4461 C   0  0  0  0  0  0  0  0  0  0  0  0
   -5.6417   -0.2177   -0.1728 C   0  0  0  0  0  0  0  0  0  0  0  0
   -6.5306   -1.1380   -0.7018 C   0  0  0  0  0  0  0  0  0  0  0  0
   -6.1498   -2.3627   -1.1717 C   0  0  0  0  0  0  0  0  0  0  0  0
   -4.8032   -2.7628   -1.1417 C   0  0  0  0  0  0  0  0  0  0  0  0
   -4.4525   -4.0373   -1.6269 N   0  0  0  0  0  0  0  0  0  0  0  0
   -3.1619   -4.5474   -1.8781 C   0  0  0  0  0  0  0  0  0  0  0  0
   -3.0619   -5.8400   -2.3539 N   0  0  0  0  0  0  0  0  0  0  0  0
   -1.8866   -6.4040   -2.6246 C   0  0  0  0  0  0  0  0  0  0  0  0
   -0.7008   -5.6986   -2.4335 C   0  0  0  0  0  0  0  0  0  0  0  0
    0.8343   -6.4184   -2.7794 Cl  0  0  0  0  0  0  0  0  0  0  0  0
   -0.7772   -4.4106   -1.9603 C   0  0  0  0  0  0  0  0  0  0  0  0
    0.3994   -3.6052   -1.7227 N   0  0  0  0  0  0  0  0  0  0  0  0
    0.2712   -2.2652   -1.2275 C   0  0  0  0  0  0  0  0  0  0  0  0
    1.5305   -1.5649   -0.9607 C   0  0  0  0  0  0  0  0  0  0  0  0
    2.7699   -2.0903   -1.1359 C   0  0  0  0  0  0  0  0  0  0  0  0
    3.9281   -1.3734   -0.8536 C   0  0  0  0  0  0  0  0  0  0  0  0
    3.8827   -0.0930   -0.3815 C   0  0  0  0  0  0  0  0  0  0  0  0
    4.9836    0.7069   -0.0454 N   0  0  0  0  0  0  0  0  0  0  0  0
    6.3243    0.3127    0.1168 C   0  0  0  0  0  0  0  0  0  0  0  0
    6.7209   -0.8644   -0.0226 O   0  0  0  0  0  0  0  0  0  0  0  0
    7.3136    1.3645    0.4740 C   0  0  0  0  0  0  0  0  0  0  0  0
    8.6585    1.1724    0.6977 C   0  0  0  0  0  0  0  0  0  0  0  0
    9.2304    2.4049    1.0025 C   0  0  0  0  0  0  0  0  0  0  0  0
    8.2188    3.2902    0.9520 N   0  0  0  0  0  0  0  0  0  0  0  0
    7.0771    2.6729    0.6377 N   0  0  0  0  0  0  0  0  0  0  0  0
   10.6540    2.6912    1.3194 C   0  0  0  0  0  0  0  0  0  0  0  0
   11.2900    3.9320    0.7836 C   0  0  0  0  0  0  0  0  0  0  0  0
   10.9730    3.8159    2.2207 C   0  0  0  0  0  0  0  0  0  0  0  0
    2.5905    0.4431   -0.2040 C   0  0  0  0  0  0  0  0  0  0  0  0
    1.4575   -0.2679   -0.4837 C   0  0  0  0  0  0  0  0  0  0  0  0
   -0.0978    0.4941   -0.2274 Cl  0  0  0  0  0  0  0  0  0  0  0  0
   -2.0015   -3.9347   -1.7195 N   0  0  0  0  0  0  0  0  0  0  0  0
   -3.9191   -1.8670   -0.6232 C   0  0  0  0  0  0  0  0  0  0  0  0
   -4.3278   -0.6112   -0.1446 C   0  0  0  0  0  0  0  0  0  0  0  0
   -6.2345    4.2793    0.8557 H   0  0  0  0  0  0  0  0  0  0  0  0
   -6.3913    4.6460    2.5929 H   0  0  0  0  0  0  0  0  0  0  0  0
   -7.8247    4.7778    1.5637 H   0  0  0  0  0  0  0  0  0  0  0  0
   -8.9083    2.8084    0.8547 H   0  0  0  0  0  0  0  0  0  0  0  0
   -8.5178    1.2585    1.6605 H   0  0  0  0  0  0  0  0  0  0  0  0
   -7.0288    2.6159   -0.6283 H   0  0  0  0  0  0  0  0  0  0  0  0
   -7.9639    1.0771   -0.7319 H   0  0  0  0  0  0  0  0  0  0  0  0
   -4.8797    2.7686    0.7304 H   0  0  0  0  0  0  0  0  0  0  0  0
   -4.3350    1.2994    1.5365 H   0  0  0  0  0  0  0  0  0  0  0  0
   -6.3608    1.1082    2.8551 H   0  0  0  0  0  0  0  0  0  0  0  0
   -5.4958    2.6958    3.1967 H   0  0  0  0  0  0  0  0  0  0  0  0
   -7.5974   -0.8636   -0.7384 H   0  0  0  0  0  0  0  0  0  0  0  0
   -6.8702   -3.0664   -1.5833 H   0  0  0  0  0  0  0  0  0  0  0  0
   -5.2778   -4.6953   -1.8223 H   0  0  0  0  0  0  0  0  0  0  0  0
   -1.7869   -7.4225   -3.0020 H   0  0  0  0  0  0  0  0  0  0  0  0
    1.2945   -4.0775   -1.9390 H   0  0  0  0  0  0  0  0  0  0  0  0
   -0.2695   -1.6757   -2.0176 H   0  0  0  0  0  0  0  0  0  0  0  0
   -0.4294   -2.2203   -0.3477 H   0  0  0  0  0  0  0  0  0  0  0  0
    2.9297   -3.0866   -1.5006 H   0  0  0  0  0  0  0  0  0  0  0  0
    4.9024   -1.8497   -1.0240 H   0  0  0  0  0  0  0  0  0  0  0  0
    4.7643    1.7500    0.1014 H   0  0  0  0  0  0  0  0  0  0  0  0
    9.2031    0.2485    0.6531 H   0  0  0  0  0  0  0  0  0  0  0  0
    6.1539    3.1699    0.5415 H   0  0  0  0  0  0  0  0  0  0  0  0
   11.3000    1.7763    1.3087 H   0  0  0  0  0  0  0  0  0  0  0  0
   10.6777    4.6350    0.1500 H   0  0  0  0  0  0  0  0  0  0  0  0
   12.3223    3.8410    0.3900 H   0  0  0  0  0  0  0  0  0  0  0  0
   11.7624    3.6328    2.9745 H   0  0  0  0  0  0  0  0  0  0  0  0
   10.1609    4.4560    2.6091 H   0  0  0  0  0  0  0  0  0  0  0  0
    2.4795    1.4418    0.1622 H   0  0  0  0  0  0  0  0  0  0  0  0
   -2.8763   -2.0944   -0.5527 H   0  0  0  0  0  0  0  0  0  0  0  0
   -3.5662    0.0539    0.2455 H   0  0  0  0  0  0  0  0  0  0  0  0
  1  2  1  0
  2  3  1  0
  3  4  1  0
  4  5  1  0
  5  6  1  0
  6  7  1  0
  5  8  1  0
  8  9  2  0
  9 10  1  0
 10 11  2  0
 11 12  1  0
 12 13  1  0
 13 14  2  0
 14 15  1  0
 15 16  2  0
 16 17  1  0
 16 18  1  0
 18 19  1  0
 19 20  1  0
 20 21  1  0
 21 22  2  0
 22 23  1  0
 23 24  2  0
 24 25  1  0
 25 26  1  0
 26 27  2  0
 26 28  1  0
 28 29  2  0
 29 30  1  0
 30 31  2  0
 31 32  1  0
 30 33  1  0
 33 34  1  0
 34 35  1  0
 24 36  1  0
 36 37  2  0
 37 38  1  0
 18 39  2  0
 11 40  1  0
 40 41  2  0
  7  2  1  0
 41  8  1  0
 39 13  1  0
 37 21  1  0
 32 28  1  0
 35 33  1  0
  1 42  1  0
  1 43  1  0
  1 44  1  0
  3 45  1  0
  3 46  1  0
  4 47  1  0
  4 48  1  0
  6 49  1  0
  6 50  1  0
  7 51  1  0
  7 52  1  0
  9 53  1  0
 10 54  1  0
 12 55  1  0
 15 56  1  0
 19 57  1  0
 20 58  1  0
 20 59  1  0
 22 60  1  0
 23 61  1  0
 25 62  1  0
 29 63  1  0
 32 64  1  0
 33 65  1  0
 34 66  1  0
 34 67  1  0
 35 68  1  0
 35 69  1  0
 36 70  1  0
 40 71  1  0
 41 72  1  0
M  END
$$$$
[H]OC(=O)C([H])([H])C([H])(C(=O)C([H])([H])OC(=O)c1c([H])c([H])c([H])c([H])c1[H])N([H])C(=O)C([H])(c1c([H])c([H])c([H])c([H])c1[H])C([H])([H])C([H])([H])N([H])C(=O)c1c([H])c([H])c([H])c([H])c1[H]
     RDKit          3D

 66 68  0  0  0  0  0  0  0  0999 V2000
   -1.3645    2.2758    3.9072 O   0  0  0  0  0  0  0  0  0  0  0  0
   -1.4395    1.5591    2.6968 C   0  0  0  0  0  0  0  0  0  0  0  0
   -1.1780    2.2106    1.6661 O   0  0  0  0  0  0  0  0  0  0  0  0
   -1.8092    0.1567    2.7866 C   0  0  0  0  0  0  0  0  0  0  0  0
   -1.8768   -0.5817    1.4998 C   0  0  0  0  0  0  0  0  0  0  0  0
   -0.6118   -0.5996    0.7820 N   0  0  0  0  0  0  0  0  0  0  0  0
    0.0975   -1.7825    0.5007 C   0  0  0  0  0  0  0  0  0  0  0  0
   -0.4100   -2.8599    0.9009 O   0  0  0  0  0  0  0  0  0  0  0  0
    1.3852   -1.8608   -0.2233 C   0  0  0  0  0  0  0  0  0  0  0  0
    2.5036   -1.1771    0.4877 C   0  0  0  0  0  0  0  0  0  0  0  0
    3.7665   -1.3079   -0.2938 C   0  0  0  0  0  0  0  0  0  0  0  0
    4.8913   -0.6482    0.3683 N   0  0  0  0  0  0  0  0  0  0  0  0
    6.1900   -0.6446   -0.1926 C   0  0  0  0  0  0  0  0  0  0  0  0
    6.4224   -1.2277   -1.3118 O   0  0  0  0  0  0  0  0  0  0  0  0
    7.3369    0.0003    0.4321 C   0  0  0  0  0  0  0  0  0  0  0  0
    8.5884   -0.0846   -0.1449 C   0  0  0  0  0  0  0  0  0  0  0  0
    9.6860    0.5141    0.4204 C   0  0  0  0  0  0  0  0  0  0  0  0
    9.5752    1.2311    1.6002 C   0  0  0  0  0  0  0  0  0  0  0  0
    8.3115    1.2989    2.1543 C   0  0  0  0  0  0  0  0  0  0  0  0
    7.1993    0.7098    1.6095 C   0  0  0  0  0  0  0  0  0  0  0  0
    1.2336   -1.3190   -1.6036 C   0  0  0  0  0  0  0  0  0  0  0  0
    1.0058   -2.1624   -2.6875 C   0  0  0  0  0  0  0  0  0  0  0  0
    0.8775   -1.6483   -3.9553 C   0  0  0  0  0  0  0  0  0  0  0  0
    0.9777   -0.2973   -4.1294 C   0  0  0  0  0  0  0  0  0  0  0  0
    1.2019    0.5604   -3.0830 C   0  0  0  0  0  0  0  0  0  0  0  0
    1.3303    0.0291   -1.8054 C   0  0  0  0  0  0  0  0  0  0  0  0
   -2.9973   -0.1589    0.6269 C   0  0  0  0  0  0  0  0  0  0  0  0
   -2.7708    0.1071   -0.5273 O   0  0  0  0  0  0  0  0  0  0  0  0
   -4.3573   -0.0650    1.1535 C   0  0  0  0  0  0  0  0  0  0  0  0
   -5.3188    0.3359    0.2290 O   0  0  0  0  0  0  0  0  0  0  0  0
   -6.6381    0.4609    0.6194 C   0  0  0  0  0  0  0  0  0  0  0  0
   -6.9070    0.1977    1.8293 O   0  0  0  0  0  0  0  0  0  0  0  0
   -7.7018    0.8743   -0.2906 C   0  0  0  0  0  0  0  0  0  0  0  0
   -7.4590    1.1643   -1.5989 C   0  0  0  0  0  0  0  0  0  0  0  0
   -8.4862    1.5525   -2.4353 C   0  0  0  0  0  0  0  0  0  0  0  0
   -9.7769    1.6536   -1.9602 C   0  0  0  0  0  0  0  0  0  0  0  0
  -10.0235    1.3592   -0.6319 C   0  0  0  0  0  0  0  0  0  0  0  0
   -8.9804    0.9752    0.1767 C   0  0  0  0  0  0  0  0  0  0  0  0
   -0.4698    2.7399    4.0563 H   0  0  0  0  0  0  0  0  0  0  0  0
   -1.0244   -0.3574    3.4162 H   0  0  0  0  0  0  0  0  0  0  0  0
   -2.7609    0.0514    3.3329 H   0  0  0  0  0  0  0  0  0  0  0  0
   -2.0949   -1.6618    1.7545 H   0  0  0  0  0  0  0  0  0  0  0  0
   -0.2090    0.3016    0.4614 H   0  0  0  0  0  0  0  0  0  0  0  0
    1.6542   -2.9440   -0.3404 H   0  0  0  0  0  0  0  0  0  0  0  0
    2.6562   -1.7476    1.4519 H   0  0  0  0  0  0  0  0  0  0  0  0
    2.2730   -0.1482    0.7900 H   0  0  0  0  0  0  0  0  0  0  0  0
    4.0747   -2.3908   -0.3811 H   0  0  0  0  0  0  0  0  0  0  0  0
    3.7444   -0.9225   -1.3123 H   0  0  0  0  0  0  0  0  0  0  0  0
    4.7200   -0.1778    1.2676 H   0  0  0  0  0  0  0  0  0  0  0  0
    8.7419   -0.6411   -1.0850 H   0  0  0  0  0  0  0  0  0  0  0  0
   10.6554    0.4461   -0.0300 H   0  0  0  0  0  0  0  0  0  0  0  0
   10.4426    1.7066    2.0510 H   0  0  0  0  0  0  0  0  0  0  0  0
    8.1835    1.8592    3.0909 H   0  0  0  0  0  0  0  0  0  0  0  0
    6.2316    0.8183    2.1227 H   0  0  0  0  0  0  0  0  0  0  0  0
    0.9259   -3.2300   -2.5556 H   0  0  0  0  0  0  0  0  0  0  0  0
    0.6983   -2.2838   -4.8241 H   0  0  0  0  0  0  0  0  0  0  0  0
    0.8771    0.1228   -5.1298 H   0  0  0  0  0  0  0  0  0  0  0  0
    1.2777    1.6247   -3.2456 H   0  0  0  0  0  0  0  0  0  0  0  0
    1.5170    0.7560   -1.0307 H   0  0  0  0  0  0  0  0  0  0  0  0
   -4.3431    0.7151    1.9649 H   0  0  0  0  0  0  0  0  0  0  0  0
   -4.6129   -1.0128    1.6880 H   0  0  0  0  0  0  0  0  0  0  0  0
   -6.4545    1.0988   -2.0197 H   0  0  0  0  0  0  0  0  0  0  0  0
   -8.3225    1.7897   -3.4817 H   0  0  0  0  0  0  0  0  0  0  0  0
  -10.6126    1.9538   -2.5785 H   0  0  0  0  0  0  0  0  0  0  0  0
  -11.0313    1.4268   -0.2167 H   0  0  0  0  0  0  0  0  0  0  0  0
   -9.2113    0.7529    1.2109 H   0  0  0  0  0  0  0  0  0  0  0  0
  1  2  1  0
  2  3  2  0
  2  4  1  0
  4  5  1  0
  5  6  1  0
  6  7  1  0
  7  8  2  0
  7  9  1  0
  9 10  1  0
 10 11  1  0
 11 12  1  0
 12 13  1  0
 13 14  2  0
 13 15  1  0
 15 16  2  0
 16 17  1  0
 17 18  2  0
 18 19  1  0
 19 20  2  0
  9 21  1  0
 21 22  2  0
 22 23  1  0
 23 24  2  0
 24 25  1  0
 25 26  2  0
  5 27  1  0
 27 28  2  0
 27 29  1  0
 29 30  1  0
 30 31  1  0
 31 32  2  0
 31 33  1  0
 33 34  2  0
 34 35  1  0
 35 36  2  0
 36 37  1  0
 37 38  2  0
 20 15  1  0
 26 21  1  0
 38 33  1  0
  1 39  1  0
  4 40  1  0
  4 41  1  0
  5 42  1  0
  6 43  1  0
  9 44  1  0
 10 45  1  0
 10 46  1  0
 11 47  1  0
 11 48  1  0
 12 49  1  0
 16 50  1  0
 17 51  1  0
 18 52  1  0
 19 53  1  0
 20 54  1  0
 22 55  1  0
 23 56  1  0
 24 57  1  0
 25 58  1  0
 26 59  1  0
 29 60  1  0
 29 61  1  0
 34 62  1  0
 35 63  1  0
 36 64  1  0
 37 65  1  0
 38 66  1  0
M  END
$$$$
[H]Oc1c([H])c2c(c([H])c1C(=O)N([H])C([H])([H])C([H])([H])C([H])([H])C([H])([H])N([H])[H])C(=O)c1c([H])c([H])c([H])c([H])c1C2=O
     RDKit          3D

 43 45  0  0  0  0  0  0  0  0999 V2000
    4.5678    0.7596   -2.4076 N   0  0  0  0  0  0  0  0  0  0  0  0
    5.4438    0.9854   -1.2994 C   0  0  0  0  0  0  0  0  0  0  0  0
    4.8379    0.5013    0.0134 C   0  0  0  0  0  0  0  0  0  0  0  0
    4.5904   -1.0005   -0.1620 C   0  0  0  0  0  0  0  0  0  0  0  0
    3.9932   -1.5873    1.0720 C   0  0  0  0  0  0  0  0  0  0  0  0
    2.7156   -0.9981    1.4540 N   0  0  0  0  0  0  0  0  0  0  0  0
    1.6024   -1.0480    0.6148 C   0  0  0  0  0  0  0  0  0  0  0  0
    1.8060   -1.6550   -0.5070 O   0  0  0  0  0  0  0  0  0  0  0  0
    0.2626   -0.5395    0.7818 C   0  0  0  0  0  0  0  0  0  0  0  0
   -0.6974   -0.7101   -0.2054 C   0  0  0  0  0  0  0  0  0  0  0  0
   -1.9687   -0.2229   -0.0371 C   0  0  0  0  0  0  0  0  0  0  0  0
   -2.9530   -0.4272   -1.1102 C   0  0  0  0  0  0  0  0  0  0  0  0
   -2.5644   -1.0460   -2.1341 O   0  0  0  0  0  0  0  0  0  0  0  0
   -4.3091    0.0530   -1.0125 C   0  0  0  0  0  0  0  0  0  0  0  0
   -5.2185   -0.1601   -2.0542 C   0  0  0  0  0  0  0  0  0  0  0  0
   -6.5090    0.3112   -1.9316 C   0  0  0  0  0  0  0  0  0  0  0  0
   -6.8827    0.9838   -0.7866 C   0  0  0  0  0  0  0  0  0  0  0  0
   -5.9768    1.1900    0.2386 C   0  0  0  0  0  0  0  0  0  0  0  0
   -4.6676    0.7230    0.1373 C   0  0  0  0  0  0  0  0  0  0  0  0
   -3.7267    0.9447    1.2176 C   0  0  0  0  0  0  0  0  0  0  0  0
   -4.0755    1.5599    2.2602 O   0  0  0  0  0  0  0  0  0  0  0  0
   -2.3607    0.4511    1.0986 C   0  0  0  0  0  0  0  0  0  0  0  0
   -1.4313    0.6342    2.0915 C   0  0  0  0  0  0  0  0  0  0  0  0
   -0.1296    0.1320    1.9122 C   0  0  0  0  0  0  0  0  0  0  0  0
    0.7381    0.3637    2.9649 O   0  0  0  0  0  0  0  0  0  0  0  0
    4.6014   -0.2105   -2.7938 H   0  0  0  0  0  0  0  0  0  0  0  0
    3.5780    0.9743   -2.1770 H   0  0  0  0  0  0  0  0  0  0  0  0
    5.6977    2.0594   -1.2610 H   0  0  0  0  0  0  0  0  0  0  0  0
    6.3899    0.4325   -1.4615 H   0  0  0  0  0  0  0  0  0  0  0  0
    3.9000    1.0431    0.2450 H   0  0  0  0  0  0  0  0  0  0  0  0
    5.6008    0.5805    0.8134 H   0  0  0  0  0  0  0  0  0  0  0  0
    4.1243   -1.2562   -1.1085 H   0  0  0  0  0  0  0  0  0  0  0  0
    5.6361   -1.4336   -0.2272 H   0  0  0  0  0  0  0  0  0  0  0  0
    4.7083   -1.4359    1.9011 H   0  0  0  0  0  0  0  0  0  0  0  0
    3.8971   -2.6908    0.9566 H   0  0  0  0  0  0  0  0  0  0  0  0
    2.6767   -0.5388    2.3840 H   0  0  0  0  0  0  0  0  0  0  0  0
   -0.4014   -1.2367   -1.0996 H   0  0  0  0  0  0  0  0  0  0  0  0
   -4.8804   -0.6926   -2.9328 H   0  0  0  0  0  0  0  0  0  0  0  0
   -7.2421    0.1592   -2.7304 H   0  0  0  0  0  0  0  0  0  0  0  0
   -7.8781    1.3750   -0.6346 H   0  0  0  0  0  0  0  0  0  0  0  0
   -6.2336    1.7118    1.1490 H   0  0  0  0  0  0  0  0  0  0  0  0
   -1.7182    1.1554    2.9807 H   0  0  0  0  0  0  0  0  0  0  0  0
    0.4561    0.8512    3.7874 H   0  0  0  0  0  0  0  0  0  0  0  0
  1  2  1  0
  2  3  1  0
  3  4  1  0
  4  5  1  0
  5  6  1  0
  6  7  1  0
  7  8  2  0
  7  9  1  0
  9 10  2  0
 10 11  1  0
 11 12  1  0
 12 13  2  0
 12 14  1  0
 14 15  2  0
 15 16  1  0
 16 17  2  0
 17 18  1  0
 18 19  2  0
 19 20  1  0
 20 21  2  0
 20 22  1  0
 22 23  1  0
 23 24  2  0
 24 25  1  0
 24  9  1  0
 22 11  2  0
 19 14  1  0
  1 26  1  0
  1 27  1  0
  2 28  1  0
  2 29  1  0
  3 30  1  0
  3 31  1  0
  4 32  1  0
  4 33  1  0
  5 34  1  0
  5 35  1  0
  6 36  1  0
 10 37  1  0
 15 38  1  0
 16 39  1  0
 17 40  1  0
 18 41  1  0
 23 42  1  0
 25 43  1  0
M  END
$$$$
[H]N=C(N([H])[H])N([H])C(=O)C([H])([H])C([H])([H])C([H])([H])C([H])(C(=O)N([H])C([H])(C(=O)C(F)(F)C(=O)c1nc2c([H])c([H])c([H])c([H])c2s1)C([H])([H])c1c([H])c([H])c([H])c([H])c1[H])N([H])C(=O)OC([H])([H])c1c([H])c([H])c([H])c([H])c1[H]
     RDKit          3D

 80 83  0  0  0  0  0  0  0  0999 V2000
   -3.6548    6.7630    0.4841 N   0  0  0  0  0  0  0  0  0  0  0  0
   -4.7155    6.3266    1.2894 C   0  0  0  0  0  0  0  0  0  0  0  0
   -5.3380    7.1526    2.0477 N   0  0  0  0  0  0  0  0  0  0  0  0
   -5.1238    4.9835    1.2971 N   0  0  0  0  0  0  0  0  0  0  0  0
   -4.4732    4.0035    0.4598 C   0  0  0  0  0  0  0  0  0  0  0  0
   -3.5472    4.4075   -0.2553 O   0  0  0  0  0  0  0  0  0  0  0  0
   -4.9223    2.6096    0.4860 C   0  0  0  0  0  0  0  0  0  0  0  0
   -4.2789    1.6568   -0.4328 C   0  0  0  0  0  0  0  0  0  0  0  0
   -2.7959    1.4354   -0.2514 C   0  0  0  0  0  0  0  0  0  0  0  0
   -2.4144    0.4110   -1.3027 C   0  0  0  0  0  0  0  0  0  0  0  0
   -3.1842   -0.7825   -1.0583 N   0  0  0  0  0  0  0  0  0  0  0  0
   -2.9821   -1.5652    0.1037 C   0  0  0  0  0  0  0  0  0  0  0  0
   -2.1462   -1.2950    0.9858 O   0  0  0  0  0  0  0  0  0  0  0  0
   -3.7536   -2.7190    0.3023 O   0  0  0  0  0  0  0  0  0  0  0  0
   -3.5775   -3.5370    1.4584 C   0  0  0  0  0  0  0  0  0  0  0  0
   -4.5511   -4.6737    1.3806 C   0  0  0  0  0  0  0  0  0  0  0  0
   -4.6609   -5.6279    2.3675 C   0  0  0  0  0  0  0  0  0  0  0  0
   -5.5728   -6.6639    2.2657 C   0  0  0  0  0  0  0  0  0  0  0  0
   -6.3802   -6.7387    1.1610 C   0  0  0  0  0  0  0  0  0  0  0  0
   -6.3090   -5.8057    0.1422 C   0  0  0  0  0  0  0  0  0  0  0  0
   -5.3995   -4.7961    0.2733 C   0  0  0  0  0  0  0  0  0  0  0  0
   -0.9995    0.1174   -1.4343 C   0  0  0  0  0  0  0  0  0  0  0  0
   -0.6390   -1.1117   -1.3664 O   0  0  0  0  0  0  0  0  0  0  0  0
    0.0484    1.0356   -1.6349 N   0  0  0  0  0  0  0  0  0  0  0  0
    1.4503    0.5577   -1.7595 C   0  0  0  0  0  0  0  0  0  0  0  0
    1.7655    0.8795   -3.2128 C   0  0  0  0  0  0  0  0  0  0  0  0
    3.0790    0.5398   -3.7037 C   0  0  0  0  0  0  0  0  0  0  0  0
    3.3091   -0.7345   -4.1858 C   0  0  0  0  0  0  0  0  0  0  0  0
    4.5459   -1.0752   -4.6935 C   0  0  0  0  0  0  0  0  0  0  0  0
    5.5371   -0.0942   -4.7006 C   0  0  0  0  0  0  0  0  0  0  0  0
    5.3166    1.1718   -4.2253 C   0  0  0  0  0  0  0  0  0  0  0  0
    4.0788    1.4843   -3.7251 C   0  0  0  0  0  0  0  0  0  0  0  0
    2.3277    1.2469   -0.7975 C   0  0  0  0  0  0  0  0  0  0  0  0
    2.1728    2.4521   -0.6803 O   0  0  0  0  0  0  0  0  0  0  0  0
    3.3521    0.5563    0.0150 C   0  0  0  0  0  0  0  0  0  0  0  0
    4.1079   -0.3723   -0.6678 F   0  0  0  0  0  0  0  0  0  0  0  0
    2.6437   -0.2310    0.9626 F   0  0  0  0  0  0  0  0  0  0  0  0
    4.1634    1.4664    0.8511 C   0  0  0  0  0  0  0  0  0  0  0  0
    3.9569    2.6756    0.8648 O   0  0  0  0  0  0  0  0  0  0  0  0
    5.2290    0.8908    1.6721 C   0  0  0  0  0  0  0  0  0  0  0  0
    5.6024   -0.3716    1.7849 N   0  0  0  0  0  0  0  0  0  0  0  0
    6.5806   -0.7064    2.5730 C   0  0  0  0  0  0  0  0  0  0  0  0
    7.0715   -2.0134    2.7756 C   0  0  0  0  0  0  0  0  0  0  0  0
    8.1081   -2.2454    3.6283 C   0  0  0  0  0  0  0  0  0  0  0  0
    8.7346   -1.2481    4.3381 C   0  0  0  0  0  0  0  0  0  0  0  0
    8.2644    0.0384    4.1509 C   0  0  0  0  0  0  0  0  0  0  0  0
    7.1992    0.2970    3.2758 C   0  0  0  0  0  0  0  0  0  0  0  0
    6.3249    1.6656    2.7518 S   0  0  0  0  0  0  0  0  0  0  0  0
   -2.7420    7.0641    0.9189 H   0  0  0  0  0  0  0  0  0  0  0  0
   -3.6805    6.8248   -0.5497 H   0  0  0  0  0  0  0  0  0  0  0  0
   -5.1406    8.1550    2.1418 H   0  0  0  0  0  0  0  0  0  0  0  0
   -5.9115    4.6543    1.9087 H   0  0  0  0  0  0  0  0  0  0  0  0
   -4.8323    2.2633    1.5519 H   0  0  0  0  0  0  0  0  0  0  0  0
   -6.0441    2.6235    0.3065 H   0  0  0  0  0  0  0  0  0  0  0  0
   -4.5026    1.9085   -1.5049 H   0  0  0  0  0  0  0  0  0  0  0  0
   -4.7838    0.6529   -0.3033 H   0  0  0  0  0  0  0  0  0  0  0  0
   -2.6430    1.0264    0.7469 H   0  0  0  0  0  0  0  0  0  0  0  0
   -2.2821    2.3963   -0.4173 H   0  0  0  0  0  0  0  0  0  0  0  0
   -2.8052    0.8122   -2.3099 H   0  0  0  0  0  0  0  0  0  0  0  0
   -3.9260   -1.0917   -1.7575 H   0  0  0  0  0  0  0  0  0  0  0  0
   -3.6994   -2.9729    2.3967 H   0  0  0  0  0  0  0  0  0  0  0  0
   -2.5410   -3.9676    1.4339 H   0  0  0  0  0  0  0  0  0  0  0  0
   -4.0112   -5.5334    3.2280 H   0  0  0  0  0  0  0  0  0  0  0  0
   -5.6628   -7.4194    3.0388 H   0  0  0  0  0  0  0  0  0  0  0  0
   -7.0985   -7.5461    1.0780 H   0  0  0  0  0  0  0  0  0  0  0  0
   -6.9452   -5.8713   -0.7294 H   0  0  0  0  0  0  0  0  0  0  0  0
   -5.3176   -4.0423   -0.5004 H   0  0  0  0  0  0  0  0  0  0  0  0
   -0.1450    2.0423   -1.6938 H   0  0  0  0  0  0  0  0  0  0  0  0
    1.4680   -0.5397   -1.6159 H   0  0  0  0  0  0  0  0  0  0  0  0
    1.0085    0.3688   -3.8501 H   0  0  0  0  0  0  0  0  0  0  0  0
    1.5082    1.9682   -3.3223 H   0  0  0  0  0  0  0  0  0  0  0  0
    2.5465   -1.5005   -4.1862 H   0  0  0  0  0  0  0  0  0  0  0  0
    4.7161   -2.0753   -5.0630 H   0  0  0  0  0  0  0  0  0  0  0  0
    6.5123   -0.3493   -5.0996 H   0  0  0  0  0  0  0  0  0  0  0  0
    6.1374    1.9069   -4.2508 H   0  0  0  0  0  0  0  0  0  0  0  0
    3.9283    2.5074   -3.3504 H   0  0  0  0  0  0  0  0  0  0  0  0
    6.6238   -2.8698    2.2481 H   0  0  0  0  0  0  0  0  0  0  0  0
    8.5017   -3.2675    3.7915 H   0  0  0  0  0  0  0  0  0  0  0  0
    9.5405   -1.4471    5.0033 H   0  0  0  0  0  0  0  0  0  0  0  0
    8.6729    0.9026    4.6512 H   0  0  0  0  0  0  0  0  0  0  0  0
  1  2  1  0
  2  3  2  3
  2  4  1  0
  4  5  1  0
  5  6  2  0
  5  7  1  0
  7  8  1  0
  8  9  1  0
  9 10  1  0
 10 11  1  0
 11 12  1  0
 12 13  2  0
 12 14  1  0
 14 15  1  0
 15 16  1  0
 16 17  2  0
 17 18  1  0
 18 19  2  0
 19 20  1  0
 20 21  2  0
 10 22  1  0
 22 23  2  0
 22 24  1  0
 24 25  1  0
 25 26  1  0
 26 27  1  0
 27 28  2  0
 28 29  1  0
 29 30  2  0
 30 31  1  0
 31 32  2  0
 25 33  1  0
 33 34  2  0
 33 35  1  0
 35 36  1  0
 35 37  1  0
 35 38  1  0
 38 39  2  0
 38 40  1  0
 40 41  2  0
 41 42  1  0
 42 43  2  0
 43 44  1  0
 44 45  2  0
 45 46  1  0
 46 47  2  0
 47 48  1  0
 21 16  1  0
 32 27  1  0
 48 40  1  0
 47 42  1  0
  1 49  1  0
  1 50  1  0
  3 51  1  0
  4 52  1  0
  7 53  1  0
  7 54  1  0
  8 55  1  0
  8 56  1  0
  9 57  1  0
  9 58  1  0
 10 59  1  0
 11 60  1  0
 15 61  1  0
 15 62  1  0
 17 63  1  0
 18 64  1  0
 19 65  1  0
 20 66  1  0
 21 67  1  0
 24 68  1  0
 25 69  1  0
 26 70  1  0
 26 71  1  0
 28 72  1  0
 29 73  1  0
 30 74  1  0
 31 75  1  0
 32 76  1  0
 43 77  1  0
 44 78  1  0
 45 79  1  0
 46 80  1  0
M  END
$$$$
[H]c1c([H])c([H])c(C([H])([H])OC(=O)N([H])[C@@]([H])(C(=O)N([H])C([H])([H])C([H])([H])C([H])([H])C([H])([H])Oc2c([H])c([H])c(OC([H])([H])[H])c([H])c2[H])C([H])([H])C([H])(C([H])([H])[H])C([H])([H])[H])c([H])c1[H]
     RDKit          3D

 66 67  0  0  0  0  0  0  0  0999 V2000
   10.7988    0.5465    1.5609 C   0  0  0  0  0  0  0  0  0  0  0  0
   10.5045   -0.6484    0.8785 O   0  0  0  0  0  0  0  0  0  0  0  0
    9.1577   -0.9676    0.6806 C   0  0  0  0  0  0  0  0  0  0  0  0
    8.1476   -0.1510    1.1321 C   0  0  0  0  0  0  0  0  0  0  0  0
    6.8030   -0.4859    0.9253 C   0  0  0  0  0  0  0  0  0  0  0  0
    6.4327   -1.6269    0.2711 C   0  0  0  0  0  0  0  0  0  0  0  0
    5.1608   -2.0150    0.0285 O   0  0  0  0  0  0  0  0  0  0  0  0
    4.0155   -1.2989    0.3656 C   0  0  0  0  0  0  0  0  0  0  0  0
    3.9154   -0.0209   -0.4026 C   0  0  0  0  0  0  0  0  0  0  0  0
    2.7072    0.7567    0.0206 C   0  0  0  0  0  0  0  0  0  0  0  0
    1.4420   -0.0067   -0.2327 C   0  0  0  0  0  0  0  0  0  0  0  0
    0.3212    0.8105    0.1675 N   0  0  0  0  0  0  0  0  0  0  0  0
   -0.9991    0.3418    0.0403 C   0  0  0  0  0  0  0  0  0  0  0  0
   -1.1717   -0.8080   -0.4316 O   0  0  0  0  0  0  0  0  0  0  0  0
   -2.1720    1.1342    0.4329 C   0  0  1  0  0  0  0  0  0  0  0  0
   -2.1890    2.5275   -0.0325 C   0  0  0  0  0  0  0  0  0  0  0  0
   -2.1480    2.8292   -1.4730 C   0  0  0  0  0  0  0  0  0  0  0  0
   -3.2487    2.3130   -2.3248 C   0  0  0  0  0  0  0  0  0  0  0  0
   -2.1939    4.3674   -1.5851 C   0  0  0  0  0  0  0  0  0  0  0  0
   -3.3963    0.4103    0.1938 N   0  0  0  0  0  0  0  0  0  0  0  0
   -4.2866    0.0051    1.2127 C   0  0  0  0  0  0  0  0  0  0  0  0
   -4.1025    0.2338    2.4296 O   0  0  0  0  0  0  0  0  0  0  0  0
   -5.4345   -0.6860    0.8658 O   0  0  0  0  0  0  0  0  0  0  0  0
   -6.3925   -1.1406    1.7809 C   0  0  0  0  0  0  0  0  0  0  0  0
   -7.4613   -1.8325    0.9815 C   0  0  0  0  0  0  0  0  0  0  0  0
   -8.5510   -1.1399    0.4988 C   0  0  0  0  0  0  0  0  0  0  0  0
   -9.4970   -1.8168   -0.2240 C   0  0  0  0  0  0  0  0  0  0  0  0
   -9.4221   -3.1705   -0.5014 C   0  0  0  0  0  0  0  0  0  0  0  0
   -8.3260   -3.8468   -0.0110 C   0  0  0  0  0  0  0  0  0  0  0  0
   -7.3741   -3.1752    0.7141 C   0  0  0  0  0  0  0  0  0  0  0  0
    7.4685   -2.4568   -0.1868 C   0  0  0  0  0  0  0  0  0  0  0  0
    8.7819   -2.1183    0.0223 C   0  0  0  0  0  0  0  0  0  0  0  0
   11.8813    0.7706    1.5257 H   0  0  0  0  0  0  0  0  0  0  0  0
   10.2926    1.4042    1.0473 H   0  0  0  0  0  0  0  0  0  0  0  0
   10.4192    0.4790    2.5969 H   0  0  0  0  0  0  0  0  0  0  0  0
    8.4073    0.7610    1.6534 H   0  0  0  0  0  0  0  0  0  0  0  0
    6.0777    0.1819    1.3275 H   0  0  0  0  0  0  0  0  0  0  0  0
    4.0825   -1.0077    1.4568 H   0  0  0  0  0  0  0  0  0  0  0  0
    3.0956   -1.9310    0.2464 H   0  0  0  0  0  0  0  0  0  0  0  0
    4.8096    0.5959   -0.4569 H   0  0  0  0  0  0  0  0  0  0  0  0
    3.6652   -0.3234   -1.4958 H   0  0  0  0  0  0  0  0  0  0  0  0
    2.8023    1.0496    1.0999 H   0  0  0  0  0  0  0  0  0  0  0  0
    2.7356    1.7121   -0.5858 H   0  0  0  0  0  0  0  0  0  0  0  0
    1.4456   -0.9578    0.3500 H   0  0  0  0  0  0  0  0  0  0  0  0
    1.3334   -0.3107   -1.2917 H   0  0  0  0  0  0  0  0  0  0  0  0
    0.4896    1.7534    0.5531 H   0  0  0  0  0  0  0  0  0  0  0  0
   -2.1053    1.1830    1.5734 H   0  0  0  0  0  0  0  0  0  0  0  0
   -3.0982    3.0542    0.3875 H   0  0  0  0  0  0  0  0  0  0  0  0
   -1.3415    3.1093    0.4400 H   0  0  0  0  0  0  0  0  0  0  0  0
   -1.1279    2.5922   -1.9115 H   0  0  0  0  0  0  0  0  0  0  0  0
   -3.4492    3.0511   -3.1604 H   0  0  0  0  0  0  0  0  0  0  0  0
   -4.2174    2.2499   -1.7925 H   0  0  0  0  0  0  0  0  0  0  0  0
   -3.0675    1.3338   -2.7985 H   0  0  0  0  0  0  0  0  0  0  0  0
   -3.1951    4.6540   -1.1918 H   0  0  0  0  0  0  0  0  0  0  0  0
   -1.4367    4.8337   -0.9545 H   0  0  0  0  0  0  0  0  0  0  0  0
   -2.1491    4.6490   -2.6455 H   0  0  0  0  0  0  0  0  0  0  0  0
   -3.6174    0.1739   -0.7961 H   0  0  0  0  0  0  0  0  0  0  0  0
   -5.9724   -1.8292    2.5411 H   0  0  0  0  0  0  0  0  0  0  0  0
   -6.8768   -0.2592    2.2542 H   0  0  0  0  0  0  0  0  0  0  0  0
   -8.6218   -0.0736    0.7102 H   0  0  0  0  0  0  0  0  0  0  0  0
  -10.3594   -1.2837   -0.6096 H   0  0  0  0  0  0  0  0  0  0  0  0
  -10.1977   -3.6884   -1.0852 H   0  0  0  0  0  0  0  0  0  0  0  0
   -8.2265   -4.9205   -0.2072 H   0  0  0  0  0  0  0  0  0  0  0  0
   -6.5133   -3.7363    1.0920 H   0  0  0  0  0  0  0  0  0  0  0  0
    7.1747   -3.3616   -0.7045 H   0  0  0  0  0  0  0  0  0  0  0  0
    9.5709   -2.7717   -0.3387 H   0  0  0  0  0  0  0  0  0  0  0  0
  1  2  1  0
  2  3  1  0
  3  4  2  0
  4  5  1  0
  5  6  2  0
  6  7  1  0
  7  8  1  0
  8  9  1  0
  9 10  1  0
 10 11  1  0
 11 12  1  0
 12 13  1  0
 13 14  2  0
 13 15  1  0
 15 16  1  0
 16 17  1  0
 17 18  1  0
 17 19  1  0
 15 20  1  0
 20 21  1  0
 21 22  2  0
 21 23  1  0
 23 24  1  0
 24 25  1  0
 25 26  2  0
 26 27  1  0
 27 28  2  0
 28 29  1  0
 29 30  2  0
  6 31  1  0
 31 32  2  0
 32  3  1  0
 30 25  1  0
  1 33  1  0
  1 34  1  0
  1 35  1  0
  4 36  1  0
  5 37  1  0
  8 38  1  0
  8 39  1  0
  9 40  1  0
  9 41  1  0
 10 42  1  0
 10 43  1  0
 11 44  1  0
 11 45  1  0
 12 46  1  0
 15 47  1  1
 16 48  1  0
 16 49  1  0
 17 50  1  0
 18 51  1  0
 18 52  1  0
 18 53  1  0
 19 54  1  0
 19 55  1  0
 19 56  1  0
 20 57  1  0
 24 58  1  0
 24 59  1  0
 26 60  1  0
 27 61  1  0
 28 62  1  0
 29 63  1  0
 30 64  1  0
 31 65  1  0
 32 66  1  0
M  END
$$$$
[H]c1c([H])c(F)c([H])c(-c2nc3c([H])c([H])c(OC([H])([H])C([H])([H])C([H])([H])N4C([H])([H])C([H])([H])OC([H])([H])C4([H])[H])c([H])c3c(=O)n2C([H])([H])C(=O)OC(C([H])([H])[H])(C([H])([H])[H])C([H])([H])[H])c1[H]
     RDKit          3D

 68 71  0  0  0  0  0  0  0  0999 V2000
   -4.7971   -3.2267    0.0849 C   0  0  0  0  0  0  0  0  0  0  0  0
   -5.7651   -2.0951   -0.1395 C   0  0  0  0  0  0  0  0  0  0  0  0
   -6.9282   -2.6226   -0.9505 C   0  0  0  0  0  0  0  0  0  0  0  0
   -6.3259   -1.6714    1.2021 C   0  0  0  0  0  0  0  0  0  0  0  0
   -5.1985   -1.0054   -0.8378 O   0  0  0  0  0  0  0  0  0  0  0  0
   -4.1204   -0.2748   -0.4043 C   0  0  0  0  0  0  0  0  0  0  0  0
   -3.5756   -0.5623    0.6755 O   0  0  0  0  0  0  0  0  0  0  0  0
   -3.5818    0.8779   -1.2190 C   0  0  0  0  0  0  0  0  0  0  0  0
   -2.4583    1.4800   -0.5567 N   0  0  0  0  0  0  0  0  0  0  0  0
   -2.5581    2.4571    0.3311 C   0  0  0  0  0  0  0  0  0  0  0  0
   -1.3646    2.8358    0.9357 N   0  0  0  0  0  0  0  0  0  0  0  0
   -0.1833    2.3029    0.6856 C   0  0  0  0  0  0  0  0  0  0  0  0
    0.9854    2.7116    1.3106 C   0  0  0  0  0  0  0  0  0  0  0  0
    2.2030    2.1373    1.0271 C   0  0  0  0  0  0  0  0  0  0  0  0
    2.3141    1.1217    0.1013 C   0  0  0  0  0  0  0  0  0  0  0  0
    3.4996    0.5193   -0.2155 O   0  0  0  0  0  0  0  0  0  0  0  0
    3.5228   -0.5150   -1.1752 C   0  0  0  0  0  0  0  0  0  0  0  0
    4.9954   -0.9431   -1.2721 C   0  0  0  0  0  0  0  0  0  0  0  0
    5.3814   -1.4045    0.1057 C   0  0  0  0  0  0  0  0  0  0  0  0
    6.7230   -1.8473    0.2404 N   0  0  0  0  0  0  0  0  0  0  0  0
    7.0707   -3.0509   -0.4284 C   0  0  0  0  0  0  0  0  0  0  0  0
    8.0878   -2.9234   -1.5168 C   0  0  0  0  0  0  0  0  0  0  0  0
    9.1703   -2.1637   -1.0846 O   0  0  0  0  0  0  0  0  0  0  0  0
    8.7950   -0.8815   -0.7025 C   0  0  0  0  0  0  0  0  0  0  0  0
    7.7173   -0.8407    0.3280 C   0  0  0  0  0  0  0  0  0  0  0  0
    1.1538    0.7181   -0.5171 C   0  0  0  0  0  0  0  0  0  0  0  0
   -0.0702    1.2819   -0.2448 C   0  0  0  0  0  0  0  0  0  0  0  0
   -1.2367    0.9038   -0.8408 C   0  0  0  0  0  0  0  0  0  0  0  0
   -1.1584   -0.0277   -1.6949 O   0  0  0  0  0  0  0  0  0  0  0  0
   -3.7520    3.1202    0.8026 C   0  0  0  0  0  0  0  0  0  0  0  0
   -3.7362    3.5138    2.1488 C   0  0  0  0  0  0  0  0  0  0  0  0
   -4.7752    4.2268    2.6967 C   0  0  0  0  0  0  0  0  0  0  0  0
   -5.8740    4.5756    1.9179 C   0  0  0  0  0  0  0  0  0  0  0  0
   -5.9058    4.2006    0.6003 C   0  0  0  0  0  0  0  0  0  0  0  0
   -6.9581    4.5162   -0.2074 F   0  0  0  0  0  0  0  0  0  0  0  0
   -4.8241    3.4772    0.0885 C   0  0  0  0  0  0  0  0  0  0  0  0
   -3.7435   -2.8959   -0.0970 H   0  0  0  0  0  0  0  0  0  0  0  0
   -4.9104   -3.6945    1.0846 H   0  0  0  0  0  0  0  0  0  0  0  0
   -4.9933   -4.0038   -0.6808 H   0  0  0  0  0  0  0  0  0  0  0  0
   -7.4252   -3.4682   -0.4140 H   0  0  0  0  0  0  0  0  0  0  0  0
   -7.6620   -1.7808   -1.0424 H   0  0  0  0  0  0  0  0  0  0  0  0
   -6.6272   -2.9091   -1.9784 H   0  0  0  0  0  0  0  0  0  0  0  0
   -7.1281   -2.3985    1.4596 H   0  0  0  0  0  0  0  0  0  0  0  0
   -6.8180   -0.6839    1.0800 H   0  0  0  0  0  0  0  0  0  0  0  0
   -5.5877   -1.7057    2.0057 H   0  0  0  0  0  0  0  0  0  0  0  0
   -4.4181    1.4605   -1.5369 H   0  0  0  0  0  0  0  0  0  0  0  0
   -3.1955    0.3853   -2.1970 H   0  0  0  0  0  0  0  0  0  0  0  0
    0.9013    3.5133    2.0421 H   0  0  0  0  0  0  0  0  0  0  0  0
    3.1195    2.4512    1.5105 H   0  0  0  0  0  0  0  0  0  0  0  0
    2.8828   -1.3644   -0.9346 H   0  0  0  0  0  0  0  0  0  0  0  0
    3.1766   -0.0854   -2.1397 H   0  0  0  0  0  0  0  0  0  0  0  0
    5.0207   -1.7390   -2.0342 H   0  0  0  0  0  0  0  0  0  0  0  0
    5.6183   -0.1028   -1.6200 H   0  0  0  0  0  0  0  0  0  0  0  0
    4.6887   -2.2223    0.3843 H   0  0  0  0  0  0  0  0  0  0  0  0
    5.1904   -0.5773    0.8013 H   0  0  0  0  0  0  0  0  0  0  0  0
    7.5203   -3.7397    0.3457 H   0  0  0  0  0  0  0  0  0  0  0  0
    6.1497   -3.5351   -0.8191 H   0  0  0  0  0  0  0  0  0  0  0  0
    7.6734   -2.5892   -2.4789 H   0  0  0  0  0  0  0  0  0  0  0  0
    8.5008   -3.9539   -1.7084 H   0  0  0  0  0  0  0  0  0  0  0  0
    8.5505   -0.2419   -1.6018 H   0  0  0  0  0  0  0  0  0  0  0  0
    9.7043   -0.4021   -0.2646 H   0  0  0  0  0  0  0  0  0  0  0  0
    7.2445    0.1629    0.3145 H   0  0  0  0  0  0  0  0  0  0  0  0
    8.2095   -0.9328    1.3361 H   0  0  0  0  0  0  0  0  0  0  0  0
    1.1953   -0.0858   -1.2589 H   0  0  0  0  0  0  0  0  0  0  0  0
   -2.8822    3.2554    2.7934 H   0  0  0  0  0  0  0  0  0  0  0  0
   -4.7991    4.5468    3.7280 H   0  0  0  0  0  0  0  0  0  0  0  0
   -6.7091    5.1346    2.3148 H   0  0  0  0  0  0  0  0  0  0  0  0
   -4.9191    3.2804   -0.9836 H   0  0  0  0  0  0  0  0  0  0  0  0
  1  2  1  0
  2  3  1  0
  2  4  1  0
  2  5  1  0
  5  6  1  0
  6  7  2  0
  6  8  1  0
  8  9  1  0
  9 10  1  0
 10 11  2  0
 11 12  1  0
 12 13  2  0
 13 14  1  0
 14 15  2  0
 15 16  1  0
 16 17  1  0
 17 18  1  0
 18 19  1  0
 19 20  1  0
 20 21  1  0
 21 22  1  0
 22 23  1  0
 23 24  1  0
 24 25  1  0
 15 26  1  0
 26 27  2  0
 27 28  1  0
 28 29  2  0
 10 30  1  0
 30 31  2  0
 31 32  1  0
 32 33  2  0
 33 34  1  0
 34 35  1  0
 34 36  2  0
 28  9  1  0
 36 30  1  0
 27 12  1  0
 25 20  1  0
  1 37  1  0
  1 38  1  0
  1 39  1  0
  3 40  1  0
  3 41  1  0
  3 42  1  0
  4 43  1  0
  4 44  1  0
  4 45  1  0
  8 46  1  0
  8 47  1  0
 13 48  1  0
 14 49  1  0
 17 50  1  0
 17 51  1  0
 18 52  1  0
 18 53  1  0
 19 54  1  0
 19 55  1  0
 21 56  1  0
 21 57  1  0
 22 58  1  0
 22 59  1  0
 24 60  1  0
 24 61  1  0
 25 62  1  0
 25 63  1  0
 26 64  1  0
 31 65  1  0
 32 66  1  0
 33 67  1  0
 36 68  1  0
M  END
$$$$
[H]c1c([H])c(-n2c(=O)n(C([H])([H])[H])c3c([H])c([H])c(C([H])([H])N4C([H])([H])C([H])([H])N(c5c([H])c([H])c(OC([H])([H])C([H])([H])[H])c([H])c5C([H])([H])[H])C([H])([H])C4([H])[H])c([H])c32)c([H])c([H])c1F
     RDKit          3D

 66 70  0  0  0  0  0  0  0  0999 V2000
  -10.0315   -1.3179   -0.9036 C   0  0  0  0  0  0  0  0  0  0  0  0
   -8.5386   -1.3228   -0.7425 C   0  0  0  0  0  0  0  0  0  0  0  0
   -8.1002   -0.1925   -0.0321 O   0  0  0  0  0  0  0  0  0  0  0  0
   -6.7410   -0.0161    0.2204 C   0  0  0  0  0  0  0  0  0  0  0  0
   -5.8307   -0.9533   -0.2280 C   0  0  0  0  0  0  0  0  0  0  0  0
   -4.4945   -0.8531   -0.0222 C   0  0  0  0  0  0  0  0  0  0  0  0
   -3.9824    0.2630    0.6876 C   0  0  0  0  0  0  0  0  0  0  0  0
   -2.5877    0.3022    0.9111 N   0  0  0  0  0  0  0  0  0  0  0  0
   -1.7880   -0.5772    0.0072 C   0  0  0  0  0  0  0  0  0  0  0  0
   -0.3470   -0.2609    0.1753 C   0  0  0  0  0  0  0  0  0  0  0  0
   -0.0346    1.1312    0.1606 N   0  0  0  0  0  0  0  0  0  0  0  0
    1.3498    1.3522    0.4158 C   0  0  0  0  0  0  0  0  0  0  0  0
    2.2917    0.8080   -0.5778 C   0  0  0  0  0  0  0  0  0  0  0  0
    2.0207    0.6772   -1.9098 C   0  0  0  0  0  0  0  0  0  0  0  0
    2.9599    0.1653   -2.7614 C   0  0  0  0  0  0  0  0  0  0  0  0
    4.1985   -0.2245   -2.2687 C   0  0  0  0  0  0  0  0  0  0  0  0
    5.3057   -0.7510   -2.8392 N   0  0  0  0  0  0  0  0  0  0  0  0
    5.4517   -1.0593   -4.2679 C   0  0  0  0  0  0  0  0  0  0  0  0
    6.2209   -0.9333   -1.8786 C   0  0  0  0  0  0  0  0  0  0  0  0
    7.3894   -1.4144   -2.0589 O   0  0  0  0  0  0  0  0  0  0  0  0
    5.7364   -0.5368   -0.6881 N   0  0  0  0  0  0  0  0  0  0  0  0
    6.3804   -0.5587    0.5827 C   0  0  0  0  0  0  0  0  0  0  0  0
    6.0037   -1.3941    1.6116 C   0  0  0  0  0  0  0  0  0  0  0  0
    6.6679   -1.3697    2.8219 C   0  0  0  0  0  0  0  0  0  0  0  0
    7.7287   -0.4927    3.0052 C   0  0  0  0  0  0  0  0  0  0  0  0
    8.3690   -0.4815    4.1974 F   0  0  0  0  0  0  0  0  0  0  0  0
    8.1316    0.3559    1.9987 C   0  0  0  0  0  0  0  0  0  0  0  0
    7.4425    0.3068    0.7926 C   0  0  0  0  0  0  0  0  0  0  0  0
    4.4820   -0.0987   -0.9382 C   0  0  0  0  0  0  0  0  0  0  0  0
    3.5267    0.4153   -0.1096 C   0  0  0  0  0  0  0  0  0  0  0  0
   -0.7961    1.8783    1.1401 C   0  0  0  0  0  0  0  0  0  0  0  0
   -1.7925    0.9832    1.8643 C   0  0  0  0  0  0  0  0  0  0  0  0
   -4.8646    1.2085    1.1427 C   0  0  0  0  0  0  0  0  0  0  0  0
   -4.4364    2.4113    1.8663 C   0  0  0  0  0  0  0  0  0  0  0  0
   -6.2498    1.0646    0.9067 C   0  0  0  0  0  0  0  0  0  0  0  0
  -10.3485   -1.4549   -1.9610 H   0  0  0  0  0  0  0  0  0  0  0  0
  -10.4603   -2.1936   -0.3522 H   0  0  0  0  0  0  0  0  0  0  0  0
  -10.4481   -0.4045   -0.4554 H   0  0  0  0  0  0  0  0  0  0  0  0
   -8.1789   -2.2810   -0.3185 H   0  0  0  0  0  0  0  0  0  0  0  0
   -8.0680   -1.2622   -1.7660 H   0  0  0  0  0  0  0  0  0  0  0  0
   -6.2192   -1.8105   -0.7725 H   0  0  0  0  0  0  0  0  0  0  0  0
   -3.8098   -1.5973   -0.3809 H   0  0  0  0  0  0  0  0  0  0  0  0
   -2.1716   -0.4886   -1.0053 H   0  0  0  0  0  0  0  0  0  0  0  0
   -1.9689   -1.6047    0.4459 H   0  0  0  0  0  0  0  0  0  0  0  0
    0.1853   -0.7396   -0.6917 H   0  0  0  0  0  0  0  0  0  0  0  0
    0.1123   -0.7611    1.0672 H   0  0  0  0  0  0  0  0  0  0  0  0
    1.5646    2.4381    0.6387 H   0  0  0  0  0  0  0  0  0  0  0  0
    1.5686    0.8375    1.3939 H   0  0  0  0  0  0  0  0  0  0  0  0
    1.0559    0.9827   -2.2819 H   0  0  0  0  0  0  0  0  0  0  0  0
    2.7968    0.0395   -3.8275 H   0  0  0  0  0  0  0  0  0  0  0  0
    6.4111   -0.6177   -4.5883 H   0  0  0  0  0  0  0  0  0  0  0  0
    5.4575   -2.1788   -4.4036 H   0  0  0  0  0  0  0  0  0  0  0  0
    4.5830   -0.6798   -4.8140 H   0  0  0  0  0  0  0  0  0  0  0  0
    5.1690   -2.0585    1.4138 H   0  0  0  0  0  0  0  0  0  0  0  0
    6.3315   -2.0460    3.5953 H   0  0  0  0  0  0  0  0  0  0  0  0
    8.9677    1.0576    2.1208 H   0  0  0  0  0  0  0  0  0  0  0  0
    7.7350    0.9645   -0.0257 H   0  0  0  0  0  0  0  0  0  0  0  0
    3.7800    0.5073    0.9632 H   0  0  0  0  0  0  0  0  0  0  0  0
   -1.3490    2.7048    0.6763 H   0  0  0  0  0  0  0  0  0  0  0  0
   -0.1393    2.3102    1.9370 H   0  0  0  0  0  0  0  0  0  0  0  0
   -2.2454    1.4559    2.7166 H   0  0  0  0  0  0  0  0  0  0  0  0
   -1.1685    0.1318    2.3611 H   0  0  0  0  0  0  0  0  0  0  0  0
   -4.3869    2.2851    2.9798 H   0  0  0  0  0  0  0  0  0  0  0  0
   -3.5889    2.9542    1.4495 H   0  0  0  0  0  0  0  0  0  0  0  0
   -5.2920    3.1705    1.7713 H   0  0  0  0  0  0  0  0  0  0  0  0
   -6.9171    1.8247    1.2795 H   0  0  0  0  0  0  0  0  0  0  0  0
  1  2  1  0
  2  3  1  0
  3  4  1  0
  4  5  2  0
  5  6  1  0
  6  7  2  0
  7  8  1  0
  8  9  1  0
  9 10  1  0
 10 11  1  0
 11 12  1  0
 12 13  1  0
 13 14  2  0
 14 15  1  0
 15 16  2  0
 16 17  1  0
 17 18  1  0
 17 19  1  0
 19 20  2  0
 19 21  1  0
 21 22  1  0
 22 23  2  0
 23 24  1  0
 24 25  2  0
 25 26  1  0
 25 27  1  0
 27 28  2  0
 21 29  1  0
 29 30  2  0
 11 31  1  0
 31 32  1  0
  7 33  1  0
 33 34  1  0
 33 35  2  0
 35  4  1  0
 32  8  1  0
 30 13  1  0
 29 16  1  0
 28 22  1  0
  1 36  1  0
  1 37  1  0
  1 38  1  0
  2 39  1  0
  2 40  1  0
  5 41  1  0
  6 42  1  0
  9 43  1  0
  9 44  1  0
 10 45  1  0
 10 46  1  0
 12 47  1  0
 12 48  1  0
 14 49  1  0
 15 50  1  0
 18 51  1  0
 18 52  1  0
 18 53  1  0
 23 54  1  0
 24 55  1  0
 27 56  1  0
 28 57  1  0
 30 58  1  0
 31 59  1  0
 31 60  1  0
 32 61  1  0
 32 62  1  0
 34 63  1  0
 34 64  1  0
 34 65  1  0
 35 66  1  0
M  END
$$$$
[H]c1c2c(c3c(c1[H])c(C([H])([H])C([H])([H])[H])c1n3C([H])([H])C([H])([H])N(C([H])([H])C([H])([H])n3c([H])nc4c([H])c(OC([H])([H])[H])c(OC([H])([H])[H])c([H])c43)C1([H])[H])C1([H])[C@@]([H])(OC2([H])[H])C([H])([H])[C@@]2([H])C([H])([H])C([H])([H])[C@]([H])(C([H])([H])[H])[C@]12[H]
     RDKit          3D

 83 90  0  0  0  0  0  0  0  0999 V2000
    0.3634   -4.4292    0.4520 C   0  0  0  0  0  0  0  0  0  0  0  0
   -0.7946   -3.9701    1.3346 C   0  0  0  0  0  0  0  0  0  0  0  0
   -1.3472   -2.6632    0.8188 C   0  0  0  0  0  0  0  0  0  0  0  0
   -0.7735   -1.4247    0.9779 C   0  0  0  0  0  0  0  0  0  0  0  0
    0.4599   -1.0606    1.6717 C   0  0  0  0  0  0  0  0  0  0  0  0
    1.1536    0.0760    1.1928 N   0  0  0  0  0  0  0  0  0  0  0  0
    2.4009   -0.3331    0.5853 C   0  0  0  0  0  0  0  0  0  0  0  0
    3.4219   -0.8588    1.5362 C   0  0  0  0  0  0  0  0  0  0  0  0
    4.5992   -1.2372    0.7905 N   0  0  0  0  0  0  0  0  0  0  0  0
    4.8110   -2.4575    0.2719 C   0  0  0  0  0  0  0  0  0  0  0  0
    6.0021   -2.4989   -0.3643 N   0  0  0  0  0  0  0  0  0  0  0  0
    6.5714   -1.2749   -0.2531 C   0  0  0  0  0  0  0  0  0  0  0  0
    7.7707   -0.7497   -0.7025 C   0  0  0  0  0  0  0  0  0  0  0  0
    8.1232    0.5594   -0.4475 C   0  0  0  0  0  0  0  0  0  0  0  0
    9.3344    1.0901   -0.9005 O   0  0  0  0  0  0  0  0  0  0  0  0
   10.2445    0.2695   -1.6486 C   0  0  0  0  0  0  0  0  0  0  0  0
    7.2432    1.3373    0.2718 C   0  0  0  0  0  0  0  0  0  0  0  0
    7.6121    2.6520    0.5192 O   0  0  0  0  0  0  0  0  0  0  0  0
    6.7603    3.5379    1.2590 C   0  0  0  0  0  0  0  0  0  0  0  0
    6.0403    0.8104    0.7224 C   0  0  0  0  0  0  0  0  0  0  0  0
    5.6783   -0.5085    0.4695 C   0  0  0  0  0  0  0  0  0  0  0  0
    0.4649    0.9133    0.3005 C   0  0  0  0  0  0  0  0  0  0  0  0
   -1.0629    0.8469    0.4237 C   0  0  0  0  0  0  0  0  0  0  0  0
   -1.5555   -0.4718    0.3756 N   0  0  0  0  0  0  0  0  0  0  0  0
   -2.6082   -1.0967   -0.1524 C   0  0  0  0  0  0  0  0  0  0  0  0
   -2.4990   -2.4681    0.1095 C   0  0  0  0  0  0  0  0  0  0  0  0
   -3.4269   -3.3730   -0.3286 C   0  0  0  0  0  0  0  0  0  0  0  0
   -4.5272   -2.9813   -1.0567 C   0  0  0  0  0  0  0  0  0  0  0  0
   -4.6684   -1.6287   -1.3326 C   0  0  0  0  0  0  0  0  0  0  0  0
   -5.8343   -1.2263   -2.1751 C   0  0  0  0  0  0  0  0  0  0  0  0
   -5.8106    0.0516   -2.5954 O   0  0  0  0  0  0  0  0  0  0  0  0
   -4.6248    0.7173   -2.6084 C   0  0  1  0  0  0  0  0  0  0  0  0
   -5.0390    2.1943   -2.6864 C   0  0  0  0  0  0  0  0  0  0  0  0
   -5.1964    2.6521   -1.3108 C   0  0  1  0  0  0  0  0  0  0  0  0
   -6.5553    3.1033   -0.8744 C   0  0  0  0  0  0  0  0  0  0  0  0
   -6.5278    2.7738    0.6058 C   0  0  0  0  0  0  0  0  0  0  0  0
   -5.2904    1.8431    0.7989 C   0  0  2  0  0  0  0  0  0  0  0  0
   -4.2025    2.5789    1.4472 C   0  0  0  0  0  0  0  0  0  0  0  0
   -5.1973    1.3078   -0.5311 C   0  0  2  0  0  0  0  0  0  0  0  0
   -4.0078    0.7068   -1.1591 C   0  0  0  0  0  0  0  0  0  0  0  0
   -3.7401   -0.7123   -0.8917 C   0  0  0  0  0  0  0  0  0  0  0  0
    0.2232   -3.9182   -0.5330 H   0  0  0  0  0  0  0  0  0  0  0  0
    1.3408   -4.2293    0.9132 H   0  0  0  0  0  0  0  0  0  0  0  0
    0.3090   -5.5352    0.2657 H   0  0  0  0  0  0  0  0  0  0  0  0
   -0.5223   -3.9099    2.3972 H   0  0  0  0  0  0  0  0  0  0  0  0
   -1.5974   -4.7293    1.1987 H   0  0  0  0  0  0  0  0  0  0  0  0
    1.1176   -1.9708    1.7664 H   0  0  0  0  0  0  0  0  0  0  0  0
    0.1834   -0.8461    2.7499 H   0  0  0  0  0  0  0  0  0  0  0  0
    2.8535    0.4791   -0.0127 H   0  0  0  0  0  0  0  0  0  0  0  0
    2.1490   -1.1697   -0.1246 H   0  0  0  0  0  0  0  0  0  0  0  0
    3.7649   -0.0754    2.2553 H   0  0  0  0  0  0  0  0  0  0  0  0
    3.0745   -1.7214    2.1373 H   0  0  0  0  0  0  0  0  0  0  0  0
    4.1601   -3.3448    0.3152 H   0  0  0  0  0  0  0  0  0  0  0  0
    8.4571   -1.3730   -1.2686 H   0  0  0  0  0  0  0  0  0  0  0  0
   10.4876   -0.5920   -0.9594 H   0  0  0  0  0  0  0  0  0  0  0  0
    9.7665   -0.1657   -2.5302 H   0  0  0  0  0  0  0  0  0  0  0  0
   11.1845    0.7908   -1.8385 H   0  0  0  0  0  0  0  0  0  0  0  0
    7.1027    4.5805    1.1690 H   0  0  0  0  0  0  0  0  0  0  0  0
    5.7274    3.5045    0.8103 H   0  0  0  0  0  0  0  0  0  0  0  0
    6.7209    3.2192    2.3258 H   0  0  0  0  0  0  0  0  0  0  0  0
    5.3612    1.4340    1.2848 H   0  0  0  0  0  0  0  0  0  0  0  0
    0.7271    0.7320   -0.7477 H   0  0  0  0  0  0  0  0  0  0  0  0
    0.7223    1.9877    0.5377 H   0  0  0  0  0  0  0  0  0  0  0  0
   -1.3772    1.5745   -0.3316 H   0  0  0  0  0  0  0  0  0  0  0  0
   -1.2462    1.2483    1.4712 H   0  0  0  0  0  0  0  0  0  0  0  0
   -3.3052   -4.4374   -0.1033 H   0  0  0  0  0  0  0  0  0  0  0  0
   -5.2690   -3.6740   -1.4135 H   0  0  0  0  0  0  0  0  0  0  0  0
   -5.9719   -1.9479   -3.0154 H   0  0  0  0  0  0  0  0  0  0  0  0
   -6.7396   -1.3936   -1.5290 H   0  0  0  0  0  0  0  0  0  0  0  0
   -3.8838    0.4359   -3.3458 H   0  0  0  0  0  0  0  0  0  0  0  0
   -5.9187    2.3196   -3.3463 H   0  0  0  0  0  0  0  0  0  0  0  0
   -4.1660    2.7179   -3.1651 H   0  0  0  0  0  0  0  0  0  0  0  0
   -4.4422    3.3201   -0.9140 H   0  0  0  0  0  0  0  0  0  0  0  0
   -7.2939    2.3932   -1.3432 H   0  0  0  0  0  0  0  0  0  0  0  0
   -6.7946    4.1481   -1.0892 H   0  0  0  0  0  0  0  0  0  0  0  0
   -6.3334    3.6880    1.1969 H   0  0  0  0  0  0  0  0  0  0  0  0
   -7.4561    2.2454    0.8977 H   0  0  0  0  0  0  0  0  0  0  0  0
   -5.6631    1.0388    1.5004 H   0  0  0  0  0  0  0  0  0  0  0  0
   -3.6469    1.8753    2.1392 H   0  0  0  0  0  0  0  0  0  0  0  0
   -4.6643    3.3151    2.1752 H   0  0  0  0  0  0  0  0  0  0  0  0
   -3.5245    3.1730    0.8415 H   0  0  0  0  0  0  0  0  0  0  0  0
   -6.1594    0.7954   -0.7775 H   0  0  0  0  0  0  0  0  0  0  0  0
   -3.2231    1.4199   -1.1205 H   0  0  0  0  0  0  0  0  0  0  0  0
  1  2  1  0
  2  3  1  0
  3  4  2  0
  4  5  1  0
  5  6  1  0
  6  7  1  0
  7  8  1  0
  8  9  1  0
  9 10  1  0
 10 11  2  0
 11 12  1  0
 12 13  2  0
 13 14  1  0
 14 15  1  0
 15 16  1  0
 14 17  2  0
 17 18  1  0
 18 19  1  0
 17 20  1  0
 20 21  2  0
  6 22  1  0
 22 23  1  0
 23 24  1  0
 24 25  1  0
 25 26  2  0
 26 27  1  0
 27 28  2  0
 28 29  1  0
 29 30  1  0
 30 31  1  0
 31 32  1  0
 32 33  1  0
 33 34  1  0
 34 35  1  0
 35 36  1  0
 36 37  1  0
 37 38  1  0
 37 39  1  0
 39 40  1  0
 40 41  1  0
 26  3  1  0
 41 29  2  0
 24  4  1  0
 41 25  1  0
 21  9  1  0
 40 32  1  0
 21 12  1  0
 39 34  1  0
  1 42  1  0
  1 43  1  0
  1 44  1  0
  2 45  1  0
  2 46  1  0
  5 47  1  0
  5 48  1  0
  7 49  1  0
  7 50  1  0
  8 51  1  0
  8 52  1  0
 10 53  1  0
 13 54  1  0
 16 55  1  0
 16 56  1  0
 16 57  1  0
 19 58  1  0
 19 59  1  0
 19 60  1  0
 20 61  1  0
 22 62  1  0
 22 63  1  0
 23 64  1  0
 23 65  1  0
 27 66  1  0
 28 67  1  0
 30 68  1  0
 30 69  1  0
 32 70  1  6
 33 71  1  0
 33 72  1  0
 34 73  1  1
 35 74  1  0
 35 75  1  0
 36 76  1  0
 36 77  1  0
 37 78  1  1
 38 79  1  0
 38 80  1  0
 38 81  1  0
 39 82  1  6
 40 83  1  0
M  END
$$$$
[H]O[C@]([H])(C([H])([H])[H])[C@@]1([H])C([H])([H])N(C([H])([H])C([H])([H])c2c([H])c([H])c([H])c(OC([H])([H])[H])c2[H])[C@]([H])(C([H])([H])C([H])([H])[H])[C@]1([H])N([H])C(=O)C([H])([H])N([H])C(=O)[C@@]([H])(N([H])C(=O)C([H])([H])[H])C([H])(C([H])([H])[H])C([H])([H])[H]
     RDKit          3D

 77 78  0  0  0  0  0  0  0  0999 V2000
    0.3682   -2.0846    0.7327 C   0  0  0  0  0  0  0  0  0  0  0  0
    1.3934   -1.5149   -0.1815 C   0  0  0  0  0  0  0  0  0  0  0  0
    1.9177   -0.1437    0.2658 C   0  0  1  0  0  0  0  0  0  0  0  0
    2.8901    0.2484   -0.7030 N   0  0  0  0  0  0  0  0  0  0  0  0
    4.2461    0.1777   -0.3159 C   0  0  0  0  0  0  0  0  0  0  0  0
    4.8492   -1.1596   -0.0860 C   0  0  0  0  0  0  0  0  0  0  0  0
    6.2718   -0.9450    0.3055 C   0  0  0  0  0  0  0  0  0  0  0  0
    6.5403   -0.7865    1.6545 C   0  0  0  0  0  0  0  0  0  0  0  0
    7.8129   -0.5828    2.1348 C   0  0  0  0  0  0  0  0  0  0  0  0
    8.8676   -0.5323    1.2548 C   0  0  0  0  0  0  0  0  0  0  0  0
    8.6246   -0.6898   -0.1158 C   0  0  0  0  0  0  0  0  0  0  0  0
    9.6860   -0.6393   -1.0043 O   0  0  0  0  0  0  0  0  0  0  0  0
    9.4126   -0.8006   -2.3838 C   0  0  0  0  0  0  0  0  0  0  0  0
    7.3211   -0.8933   -0.5538 C   0  0  0  0  0  0  0  0  0  0  0  0
    2.5946    1.5852   -1.1224 C   0  0  0  0  0  0  0  0  0  0  0  0
    1.4158    2.0936   -0.3648 C   0  0  1  0  0  0  0  0  0  0  0  0
    0.7821    0.8539    0.2107 C   0  0  1  0  0  0  0  0  0  0  0  0
   -0.2939    0.4791   -0.6617 N   0  0  0  0  0  0  0  0  0  0  0  0
   -1.6449    0.4697   -0.2243 C   0  0  0  0  0  0  0  0  0  0  0  0
   -1.9061    0.8021    0.9723 O   0  0  0  0  0  0  0  0  0  0  0  0
   -2.7672    0.0887   -1.1007 C   0  0  0  0  0  0  0  0  0  0  0  0
   -4.0275    0.1715   -0.3862 N   0  0  0  0  0  0  0  0  0  0  0  0
   -5.2604   -0.1421   -0.9926 C   0  0  0  0  0  0  0  0  0  0  0  0
   -5.2940   -0.5071   -2.1865 O   0  0  0  0  0  0  0  0  0  0  0  0
   -6.5076   -0.0396   -0.2198 C   0  0  1  0  0  0  0  0  0  0  0  0
   -7.6785   -0.4027   -0.9860 N   0  0  0  0  0  0  0  0  0  0  0  0
   -8.7315    0.4865   -1.2760 C   0  0  0  0  0  0  0  0  0  0  0  0
   -9.8945    0.0395   -2.0647 C   0  0  0  0  0  0  0  0  0  0  0  0
   -8.6809    1.6627   -0.8618 O   0  0  0  0  0  0  0  0  0  0  0  0
   -6.3998   -0.8482    1.0560 C   0  0  0  0  0  0  0  0  0  0  0  0
   -6.1469   -2.3164    0.7554 C   0  0  0  0  0  0  0  0  0  0  0  0
   -7.6203   -0.6734    1.8996 C   0  0  0  0  0  0  0  0  0  0  0  0
    1.7338    3.1395    0.6654 C   0  0  1  0  0  0  0  0  0  0  0  0
    0.4415    3.5541    1.3401 C   0  0  0  0  0  0  0  0  0  0  0  0
    2.6870    2.7846    1.5841 O   0  0  0  0  0  0  0  0  0  0  0  0
    0.1147   -1.4009    1.5685 H   0  0  0  0  0  0  0  0  0  0  0  0
    0.8075   -3.0107    1.2117 H   0  0  0  0  0  0  0  0  0  0  0  0
   -0.5586   -2.4312    0.2323 H   0  0  0  0  0  0  0  0  0  0  0  0
    1.0237   -1.4317   -1.2265 H   0  0  0  0  0  0  0  0  0  0  0  0
    2.2697   -2.1885   -0.2412 H   0  0  0  0  0  0  0  0  0  0  0  0
    2.2737   -0.1701    1.2975 H   0  0  0  0  0  0  0  0  0  0  0  0
    4.5240    0.8090    0.5787 H   0  0  0  0  0  0  0  0  0  0  0  0
    4.8481    0.6575   -1.1456 H   0  0  0  0  0  0  0  0  0  0  0  0
    4.3998   -1.7516    0.7213 H   0  0  0  0  0  0  0  0  0  0  0  0
    4.9073   -1.7708   -1.0354 H   0  0  0  0  0  0  0  0  0  0  0  0
    5.7028   -0.8240    2.3690 H   0  0  0  0  0  0  0  0  0  0  0  0
    8.0235   -0.4594    3.1841 H   0  0  0  0  0  0  0  0  0  0  0  0
    9.8890   -0.3749    1.5747 H   0  0  0  0  0  0  0  0  0  0  0  0
    8.5949   -0.0956   -2.6624 H   0  0  0  0  0  0  0  0  0  0  0  0
    8.9855   -1.8204   -2.4996 H   0  0  0  0  0  0  0  0  0  0  0  0
   10.3086   -0.6416   -3.0097 H   0  0  0  0  0  0  0  0  0  0  0  0
    7.1057   -1.0187   -1.6223 H   0  0  0  0  0  0  0  0  0  0  0  0
    3.4454    2.2746   -0.9311 H   0  0  0  0  0  0  0  0  0  0  0  0
    2.4224    1.5760   -2.2182 H   0  0  0  0  0  0  0  0  0  0  0  0
    0.7369    2.5744   -1.1037 H   0  0  0  0  0  0  0  0  0  0  0  0
    0.3738    1.0895    1.2306 H   0  0  0  0  0  0  0  0  0  0  0  0
   -0.1113    0.2053   -1.6394 H   0  0  0  0  0  0  0  0  0  0  0  0
   -2.6216   -0.9335   -1.5572 H   0  0  0  0  0  0  0  0  0  0  0  0
   -2.7528    0.7872   -1.9716 H   0  0  0  0  0  0  0  0  0  0  0  0
   -4.0056    0.4721    0.5984 H   0  0  0  0  0  0  0  0  0  0  0  0
   -6.6269    1.0200    0.0681 H   0  0  0  0  0  0  0  0  0  0  0  0
   -7.7384   -1.3806   -1.3390 H   0  0  0  0  0  0  0  0  0  0  0  0
  -10.5111   -0.6043   -1.3753 H   0  0  0  0  0  0  0  0  0  0  0  0
  -10.5605    0.8618   -2.3655 H   0  0  0  0  0  0  0  0  0  0  0  0
   -9.6060   -0.5165   -2.9771 H   0  0  0  0  0  0  0  0  0  0  0  0
   -5.5064   -0.4713    1.6063 H   0  0  0  0  0  0  0  0  0  0  0  0
   -5.1429   -2.4846    0.3359 H   0  0  0  0  0  0  0  0  0  0  0  0
   -6.9665   -2.7042    0.0928 H   0  0  0  0  0  0  0  0  0  0  0  0
   -6.2096   -2.8713    1.7134 H   0  0  0  0  0  0  0  0  0  0  0  0
   -7.3594   -0.1739    2.8569 H   0  0  0  0  0  0  0  0  0  0  0  0
   -8.0255   -1.6786    2.2044 H   0  0  0  0  0  0  0  0  0  0  0  0
   -8.4593   -0.1640    1.3820 H   0  0  0  0  0  0  0  0  0  0  0  0
    2.1179    4.0262    0.1064 H   0  0  0  0  0  0  0  0  0  0  0  0
    0.5456    4.6258    1.6072 H   0  0  0  0  0  0  0  0  0  0  0  0
    0.2184    2.9095    2.2152 H   0  0  0  0  0  0  0  0  0  0  0  0
   -0.3885    3.4753    0.6123 H   0  0  0  0  0  0  0  0  0  0  0  0
    2.5097    3.0738    2.5006 H   0  0  0  0  0  0  0  0  0  0  0  0
  1  2  1  0
  2  3  1  0
  3  4  1  0
  4  5  1  0
  5  6  1  0
  6  7  1  0
  7  8  2  0
  8  9  1  0
  9 10  2  0
 10 11  1  0
 11 12  1  0
 12 13  1  0
 11 14  2  0
  4 15  1  0
 15 16  1  0
 16 17  1  0
 17 18  1  0
 18 19  1  0
 19 20  2  0
 19 21  1  0
 21 22  1  0
 22 23  1  0
 23 24  2  0
 23 25  1  0
 25 26  1  0
 26 27  1  0
 27 28  1  0
 27 29  2  0
 25 30  1  0
 30 31  1  0
 30 32  1  0
 16 33  1  0
 33 34  1  0
 33 35  1  0
 17  3  1  0
 14  7  1  0
  1 36  1  0
  1 37  1  0
  1 38  1  0
  2 39  1  0
  2 40  1  0
  3 41  1  1
  5 42  1  0
  5 43  1  0
  6 44  1  0
  6 45  1  0
  8 46  1  0
  9 47  1  0
 10 48  1  0
 13 49  1  0
 13 50  1  0
 13 51  1  0
 14 52  1  0
 15 53  1  0
 15 54  1  0
 16 55  1  6
 17 56  1  1
 18 57  1  0
 21 58  1  0
 21 59  1  0
 22 60  1  0
 25 61  1  1
 26 62  1  0
 28 63  1  0
 28 64  1  0
 28 65  1  0
 30 66  1  0
 31 67  1  0
 31 68  1  0
 31 69  1  0
 32 70  1  0
 32 71  1  0
 32 72  1  0
 33 73  1  6
 34 74  1  0
 34 75  1  0
 34 76  1  0
 35 77  1  0
M  END
$$$$
[H]OC(=O)c1c([H])c2c(C([H])([H])[H])c([H])c(-c3c([H])c([H])c([H])c([H])c3F)c(C([H])([H])[H])n2c1C([H])([H])C(=O)O[H]
     RDKit          3D

 41 43  0  0  0  0  0  0  0  0999 V2000
    0.6262    3.7557    0.3299 C   0  0  0  0  0  0  0  0  0  0  0  0
    0.2309    2.3251    0.2236 C   0  0  0  0  0  0  0  0  0  0  0  0
   -1.0571    1.9125    0.1272 C   0  0  0  0  0  0  0  0  0  0  0  0
   -1.3407    0.5565    0.0428 C   0  0  0  0  0  0  0  0  0  0  0  0
   -2.7482    0.1754   -0.0914 C   0  0  0  0  0  0  0  0  0  0  0  0
   -3.5671    0.1984    1.0281 C   0  0  0  0  0  0  0  0  0  0  0  0
   -4.8890   -0.1124    0.9755 C   0  0  0  0  0  0  0  0  0  0  0  0
   -5.4406   -0.4658   -0.2341 C   0  0  0  0  0  0  0  0  0  0  0  0
   -4.6466   -0.4966   -1.3606 C   0  0  0  0  0  0  0  0  0  0  0  0
   -3.3171   -0.1815   -1.2959 C   0  0  0  0  0  0  0  0  0  0  0  0
   -2.5188   -0.2110   -2.4189 F   0  0  0  0  0  0  0  0  0  0  0  0
   -0.3389   -0.3907    0.0564 C   0  0  0  0  0  0  0  0  0  0  0  0
   -0.6589   -1.8367   -0.0158 C   0  0  0  0  0  0  0  0  0  0  0  0
    0.9543    0.0277    0.1520 N   0  0  0  0  0  0  0  0  0  0  0  0
    2.1295   -0.6466    0.1660 C   0  0  0  0  0  0  0  0  0  0  0  0
    2.3708   -2.0824    0.0970 C   0  0  0  0  0  0  0  0  0  0  0  0
    2.8215   -2.4300   -1.3057 C   0  0  0  0  0  0  0  0  0  0  0  0
    2.8131   -1.4313   -2.2658 O   0  0  0  0  0  0  0  0  0  0  0  0
    3.1863   -3.5932   -1.5597 O   0  0  0  0  0  0  0  0  0  0  0  0
    3.1862    0.2745    0.2562 C   0  0  0  0  0  0  0  0  0  0  0  0
    2.6113    1.5084    0.2976 C   0  0  0  0  0  0  0  0  0  0  0  0
    1.2320    1.3655    0.2337 C   0  0  0  0  0  0  0  0  0  0  0  0
    4.5842   -0.0401    0.2819 C   0  0  0  0  0  0  0  0  0  0  0  0
    5.2069   -1.2501    0.2844 O   0  0  0  0  0  0  0  0  0  0  0  0
    5.4358    0.9536    0.3053 O   0  0  0  0  0  0  0  0  0  0  0  0
   -0.0417    4.3675   -0.2782 H   0  0  0  0  0  0  0  0  0  0  0  0
    0.5413    4.0138    1.4133 H   0  0  0  0  0  0  0  0  0  0  0  0
    1.6666    3.9175   -0.0062 H   0  0  0  0  0  0  0  0  0  0  0  0
   -1.8350    2.6467    0.1160 H   0  0  0  0  0  0  0  0  0  0  0  0
   -3.0931    0.4836    1.9704 H   0  0  0  0  0  0  0  0  0  0  0  0
   -5.4908   -0.0764    1.8936 H   0  0  0  0  0  0  0  0  0  0  0  0
   -6.4948   -0.7186   -0.2998 H   0  0  0  0  0  0  0  0  0  0  0  0
   -5.0833   -0.7799   -2.3308 H   0  0  0  0  0  0  0  0  0  0  0  0
   -0.2750   -2.3435   -0.9094 H   0  0  0  0  0  0  0  0  0  0  0  0
   -1.7897   -1.9037   -0.1437 H   0  0  0  0  0  0  0  0  0  0  0  0
   -0.4968   -2.3633    0.9498 H   0  0  0  0  0  0  0  0  0  0  0  0
    1.6020   -2.7983    0.3305 H   0  0  0  0  0  0  0  0  0  0  0  0
    3.2185   -2.3868    0.8020 H   0  0  0  0  0  0  0  0  0  0  0  0
    2.1115   -0.7177   -2.3495 H   0  0  0  0  0  0  0  0  0  0  0  0
    3.0985    2.4763    0.3669 H   0  0  0  0  0  0  0  0  0  0  0  0
    5.4959   -1.7018    1.1471 H   0  0  0  0  0  0  0  0  0  0  0  0
  1  2  1  0
  2  3  2  0
  3  4  1  0
  4  5  1  0
  5  6  2  0
  6  7  1  0
  7  8  2  0
  8  9  1  0
  9 10  2  0
 10 11  1  0
  4 12  2  0
 12 13  1  0
 12 14  1  0
 14 15  1  0
 15 16  1  0
 16 17  1  0
 17 18  1  0
 17 19  2  0
 15 20  2  0
 20 21  1  0
 21 22  2  0
 20 23  1  0
 23 24  1  0
 23 25  2  0
 22  2  1  0
 10  5  1  0
 22 14  1  0
  1 26  1  0
  1 27  1  0
  1 28  1  0
  3 29  1  0
  6 30  1  0
  7 31  1  0
  8 32  1  0
  9 33  1  0
 13 34  1  0
 13 35  1  0
 13 36  1  0
 16 37  1  0
 16 38  1  0
 18 39  1  0
 21 40  1  0
 24 41  1  0
M  END
$$$$
[H]c1nc(N2C([H])([H])C([H])([H])C([H])(n3c(=O)n(C([H])([H])[H])c(=O)c4c(OC([H])([H])[H])c([H])c([H])c([H])c43)C([H])([H])C2([H])[H])c([H])c([H])c1N(C([H])([H])C([H])([H])[H])C(C([H])([H])[H])(C([H])([H])[H])C([H])([H])[H]
     RDKit          3D

 69 72  0  0  0  0  0  0  0  0999 V2000
   -7.2236   -0.6733    2.4035 C   0  0  0  0  0  0  0  0  0  0  0  0
   -6.3917    0.4199    1.8351 C   0  0  0  0  0  0  0  0  0  0  0  0
   -5.8073    0.1380    0.5544 N   0  0  0  0  0  0  0  0  0  0  0  0
   -4.3983   -0.0286    0.4545 C   0  0  0  0  0  0  0  0  0  0  0  0
   -3.7827   -1.2303    0.7111 C   0  0  0  0  0  0  0  0  0  0  0  0
   -2.4042   -1.3189    0.5892 C   0  0  0  0  0  0  0  0  0  0  0  0
   -1.6618   -0.2222    0.2172 C   0  0  0  0  0  0  0  0  0  0  0  0
   -2.2959    0.9280   -0.0236 N   0  0  0  0  0  0  0  0  0  0  0  0
   -3.6166    1.0380    0.0866 C   0  0  0  0  0  0  0  0  0  0  0  0
   -0.2399   -0.2519    0.0803 N   0  0  0  0  0  0  0  0  0  0  0  0
    0.4701   -1.4512    0.4009 C   0  0  0  0  0  0  0  0  0  0  0  0
    1.7188   -1.4892   -0.5157 C   0  0  0  0  0  0  0  0  0  0  0  0
    2.5653   -0.3248   -0.0565 C   0  0  0  0  0  0  0  0  0  0  0  0
    1.8657    0.9127   -0.5662 C   0  0  0  0  0  0  0  0  0  0  0  0
    0.4015    0.9526   -0.3746 C   0  0  0  0  0  0  0  0  0  0  0  0
    3.9402   -0.3724   -0.4194 N   0  0  0  0  0  0  0  0  0  0  0  0
    4.8385    0.3069    0.3593 C   0  0  0  0  0  0  0  0  0  0  0  0
    4.4857    1.0286    1.4553 C   0  0  0  0  0  0  0  0  0  0  0  0
    5.4339    1.7034    2.2041 C   0  0  0  0  0  0  0  0  0  0  0  0
    6.7745    1.6802    1.8813 C   0  0  0  0  0  0  0  0  0  0  0  0
    7.1499    0.9443    0.7598 C   0  0  0  0  0  0  0  0  0  0  0  0
    8.4702    0.8592    0.3533 O   0  0  0  0  0  0  0  0  0  0  0  0
    9.5626    1.4643    0.9710 C   0  0  0  0  0  0  0  0  0  0  0  0
    6.1985    0.2776    0.0231 C   0  0  0  0  0  0  0  0  0  0  0  0
    6.5954   -0.4351   -1.0827 C   0  0  0  0  0  0  0  0  0  0  0  0
    7.8104   -0.4626   -1.3831 O   0  0  0  0  0  0  0  0  0  0  0  0
    5.6805   -1.0869   -1.8187 N   0  0  0  0  0  0  0  0  0  0  0  0
    6.0968   -1.8318   -2.9698 C   0  0  0  0  0  0  0  0  0  0  0  0
    4.3564   -1.0546   -1.4875 C   0  0  0  0  0  0  0  0  0  0  0  0
    3.5528   -1.6725   -2.2034 O   0  0  0  0  0  0  0  0  0  0  0  0
   -6.6086    0.0245   -0.6297 C   0  0  0  0  0  0  0  0  0  0  0  0
   -7.5826   -1.1170   -0.6121 C   0  0  0  0  0  0  0  0  0  0  0  0
   -5.7569   -0.1165   -1.8770 C   0  0  0  0  0  0  0  0  0  0  0  0
   -7.4016    1.3107   -0.8170 C   0  0  0  0  0  0  0  0  0  0  0  0
   -7.0402   -1.6578    1.9360 H   0  0  0  0  0  0  0  0  0  0  0  0
   -8.3241   -0.4477    2.3639 H   0  0  0  0  0  0  0  0  0  0  0  0
   -6.9857   -0.7388    3.4910 H   0  0  0  0  0  0  0  0  0  0  0  0
   -5.5878    0.7411    2.5594 H   0  0  0  0  0  0  0  0  0  0  0  0
   -7.0290    1.3422    1.7374 H   0  0  0  0  0  0  0  0  0  0  0  0
   -4.3252   -2.1113    1.0038 H   0  0  0  0  0  0  0  0  0  0  0  0
   -1.9447   -2.2785    0.7999 H   0  0  0  0  0  0  0  0  0  0  0  0
   -4.1177    1.9797   -0.1133 H   0  0  0  0  0  0  0  0  0  0  0  0
   -0.0736   -2.3904    0.2711 H   0  0  0  0  0  0  0  0  0  0  0  0
    0.8988   -1.3370    1.4249 H   0  0  0  0  0  0  0  0  0  0  0  0
    1.2868   -1.3693   -1.5229 H   0  0  0  0  0  0  0  0  0  0  0  0
    2.2115   -2.4772   -0.4073 H   0  0  0  0  0  0  0  0  0  0  0  0
    2.4496   -0.3501    1.0717 H   0  0  0  0  0  0  0  0  0  0  0  0
    2.0529    1.0305   -1.6769 H   0  0  0  0  0  0  0  0  0  0  0  0
    2.3052    1.8620   -0.1427 H   0  0  0  0  0  0  0  0  0  0  0  0
    0.1567    1.7259    0.4239 H   0  0  0  0  0  0  0  0  0  0  0  0
   -0.1402    1.3802   -1.2745 H   0  0  0  0  0  0  0  0  0  0  0  0
    3.4852    1.1015    1.7696 H   0  0  0  0  0  0  0  0  0  0  0  0
    5.0864    2.2653    3.0715 H   0  0  0  0  0  0  0  0  0  0  0  0
    7.5099    2.1944    2.4501 H   0  0  0  0  0  0  0  0  0  0  0  0
   10.4329    0.7649    0.8475 H   0  0  0  0  0  0  0  0  0  0  0  0
    9.4550    1.6441    2.0499 H   0  0  0  0  0  0  0  0  0  0  0  0
    9.8544    2.3766    0.4025 H   0  0  0  0  0  0  0  0  0  0  0  0
    6.9922   -2.4229   -2.6766 H   0  0  0  0  0  0  0  0  0  0  0  0
    5.3218   -2.5257   -3.3492 H   0  0  0  0  0  0  0  0  0  0  0  0
    6.3874   -1.1525   -3.8129 H   0  0  0  0  0  0  0  0  0  0  0  0
   -7.0559   -2.0929   -0.4033 H   0  0  0  0  0  0  0  0  0  0  0  0
   -8.0106   -1.1689   -1.6618 H   0  0  0  0  0  0  0  0  0  0  0  0
   -8.4552   -0.9663    0.0524 H   0  0  0  0  0  0  0  0  0  0  0  0
   -5.0921   -0.9786   -1.7517 H   0  0  0  0  0  0  0  0  0  0  0  0
   -5.1870    0.8020   -2.0621 H   0  0  0  0  0  0  0  0  0  0  0  0
   -6.4571   -0.2329   -2.7387 H   0  0  0  0  0  0  0  0  0  0  0  0
   -6.7350    2.1792   -0.8288 H   0  0  0  0  0  0  0  0  0  0  0  0
   -7.9271    1.2525   -1.7852 H   0  0  0  0  0  0  0  0  0  0  0  0
   -8.1943    1.3899   -0.0218 H   0  0  0  0  0  0  0  0  0  0  0  0
  1  2  1  0
  2  3  1  0
  3  4  1  0
  4  5  2  0
  5  6  1  0
  6  7  2  0
  7  8  1  0
  8  9  2  0
  7 10  1  0
 10 11  1  0
 11 12  1  0
 12 13  1  0
 13 14  1  0
 14 15  1  0
 13 16  1  0
 16 17  1  0
 17 18  2  0
 18 19  1  0
 19 20  2  0
 20 21  1  0
 21 22  1  0
 22 23  1  0
 21 24  2  0
 24 25  1  0
 25 26  2  0
 25 27  1  0
 27 28  1  0
 27 29  1  0
 29 30  2  0
  3 31  1  0
 31 32  1  0
 31 33  1  0
 31 34  1  0
  9  4  1  0
 15 10  1  0
 29 16  1  0
 24 17  1  0
  1 35  1  0
  1 36  1  0
  1 37  1  0
  2 38  1  0
  2 39  1  0
  5 40  1  0
  6 41  1  0
  9 42  1  0
 11 43  1  0
 11 44  1  0
 12 45  1  0
 12 46  1  0
 13 47  1  0
 14 48  1  0
 14 49  1  0
 15 50  1  0
 15 51  1  0
 18 52  1  0
 19 53  1  0
 20 54  1  0
 23 55  1  0
 23 56  1  0
 23 57  1  0
 28 58  1  0
 28 59  1  0
 28 60  1  0
 32 61  1  0
 32 62  1  0
 32 63  1  0
 33 64  1  0
 33 65  1  0
 33 66  1  0
 34 67  1  0
 34 68  1  0
 34 69  1  0
M  END
$$$$
[H]c1c([H])c([H])c(C([H])([H])N(C(=O)c2c([H])c([H])c(C(=O)N3C([H])([H])C([H])([H])C([H])([H])C([H])([H])C([H])([H])C3([H])[H])c([H])c2[H])c2c([H])c([H])c(-c3c([H])c([H])c4c([H])c(Cl)c([H])c([H])c4c3[H])c([H])c2[H])c([H])c1[H]
     RDKit          3D

 75 80  0  0  0  0  0  0  0  0999 V2000
   12.4667    3.5560   -1.7688 Cl  0  0  0  0  0  0  0  0  0  0  0  0
   10.7717    3.2289   -1.4304 C   0  0  0  0  0  0  0  0  0  0  0  0
    9.8758    4.2590   -1.2575 C   0  0  0  0  0  0  0  0  0  0  0  0
    8.5489    4.0044   -0.9909 C   0  0  0  0  0  0  0  0  0  0  0  0
    8.1015    2.6858   -0.8943 C   0  0  0  0  0  0  0  0  0  0  0  0
    6.7729    2.4360   -0.6195 C   0  0  0  0  0  0  0  0  0  0  0  0
    6.3406    1.1419   -0.5192 C   0  0  0  0  0  0  0  0  0  0  0  0
    7.2471    0.1289   -0.6966 C   0  0  0  0  0  0  0  0  0  0  0  0
    8.5762    0.3722   -0.9711 C   0  0  0  0  0  0  0  0  0  0  0  0
    9.0143    1.6679   -1.0726 C   0  0  0  0  0  0  0  0  0  0  0  0
   10.3512    1.9228   -1.3408 C   0  0  0  0  0  0  0  0  0  0  0  0
    4.9348    0.8158   -0.2221 C   0  0  0  0  0  0  0  0  0  0  0  0
    4.3525   -0.3295   -0.7143 C   0  0  0  0  0  0  0  0  0  0  0  0
    3.0153   -0.6411   -0.4457 C   0  0  0  0  0  0  0  0  0  0  0  0
    2.2551    0.1942    0.3208 C   0  0  0  0  0  0  0  0  0  0  0  0
    2.8228    1.3404    0.8175 C   0  0  0  0  0  0  0  0  0  0  0  0
    4.1582    1.6491    0.5465 C   0  0  0  0  0  0  0  0  0  0  0  0
    0.8255   -0.1024    0.5974 N   0  0  0  0  0  0  0  0  0  0  0  0
    0.5549   -0.3526    1.9573 C   0  0  0  0  0  0  0  0  0  0  0  0
    0.6537   -1.7684    2.3690 C   0  0  0  0  0  0  0  0  0  0  0  0
    1.2607   -2.0884    3.5656 C   0  0  0  0  0  0  0  0  0  0  0  0
    1.4120   -3.4093    4.0284 C   0  0  0  0  0  0  0  0  0  0  0  0
    0.9372   -4.4553    3.2666 C   0  0  0  0  0  0  0  0  0  0  0  0
    0.3332   -4.1657    2.0770 C   0  0  0  0  0  0  0  0  0  0  0  0
    0.1983   -2.8322    1.6345 C   0  0  0  0  0  0  0  0  0  0  0  0
    0.0457   -0.0960   -0.5542 C   0  0  0  0  0  0  0  0  0  0  0  0
    0.7206    0.0126   -1.6844 O   0  0  0  0  0  0  0  0  0  0  0  0
   -1.3828   -0.1831   -0.7560 C   0  0  0  0  0  0  0  0  0  0  0  0
   -1.8897   -0.1946   -2.0582 C   0  0  0  0  0  0  0  0  0  0  0  0
   -3.2189   -0.2302   -2.3309 C   0  0  0  0  0  0  0  0  0  0  0  0
   -4.2065   -0.2599   -1.3279 C   0  0  0  0  0  0  0  0  0  0  0  0
   -3.7119   -0.2504   -0.0517 C   0  0  0  0  0  0  0  0  0  0  0  0
   -2.3329   -0.2125    0.2277 C   0  0  0  0  0  0  0  0  0  0  0  0
   -5.5971   -0.3446   -1.7110 C   0  0  0  0  0  0  0  0  0  0  0  0
   -5.7586   -0.6934   -2.9789 O   0  0  0  0  0  0  0  0  0  0  0  0
   -6.7683   -0.1233   -0.9823 N   0  0  0  0  0  0  0  0  0  0  0  0
   -7.9768   -0.4066   -1.7675 C   0  0  0  0  0  0  0  0  0  0  0  0
   -8.8046   -1.4820   -1.0939 C   0  0  0  0  0  0  0  0  0  0  0  0
   -9.1026   -1.1480    0.3391 C   0  0  0  0  0  0  0  0  0  0  0  0
   -9.3276    0.3016    0.6044 C   0  0  0  0  0  0  0  0  0  0  0  0
   -8.1094    1.1494    0.5589 C   0  0  0  0  0  0  0  0  0  0  0  0
   -6.8084    0.3751    0.3594 C   0  0  0  0  0  0  0  0  0  0  0  0
   10.2259    5.2828   -1.3343 H   0  0  0  0  0  0  0  0  0  0  0  0
    7.8191    4.8095   -0.8473 H   0  0  0  0  0  0  0  0  0  0  0  0
    6.0689    3.2549   -0.4853 H   0  0  0  0  0  0  0  0  0  0  0  0
    6.9013   -0.8861   -0.6198 H   0  0  0  0  0  0  0  0  0  0  0  0
    9.2247   -0.4828   -1.0981 H   0  0  0  0  0  0  0  0  0  0  0  0
   11.0041    1.0792   -1.4664 H   0  0  0  0  0  0  0  0  0  0  0  0
    4.9691   -0.9771   -1.3186 H   0  0  0  0  0  0  0  0  0  0  0  0
    2.5909   -1.5438   -0.8450 H   0  0  0  0  0  0  0  0  0  0  0  0
    2.1990    1.9824    1.4219 H   0  0  0  0  0  0  0  0  0  0  0  0
    4.5780    2.5563    0.9534 H   0  0  0  0  0  0  0  0  0  0  0  0
    1.4278    0.1952    2.5250 H   0  0  0  0  0  0  0  0  0  0  0  0
   -0.2944    0.2112    2.3389 H   0  0  0  0  0  0  0  0  0  0  0  0
    1.6425   -1.2751    4.1751 H   0  0  0  0  0  0  0  0  0  0  0  0
    1.8917   -3.6412    4.9728 H   0  0  0  0  0  0  0  0  0  0  0  0
    1.0704   -5.4761    3.6551 H   0  0  0  0  0  0  0  0  0  0  0  0
   -0.0345   -4.9871    1.4805 H   0  0  0  0  0  0  0  0  0  0  0  0
   -0.2786   -2.6552    0.6963 H   0  0  0  0  0  0  0  0  0  0  0  0
   -1.2004   -0.1821   -2.8708 H   0  0  0  0  0  0  0  0  0  0  0  0
   -3.5818   -0.2296   -3.3785 H   0  0  0  0  0  0  0  0  0  0  0  0
   -4.3656   -0.2964    0.7914 H   0  0  0  0  0  0  0  0  0  0  0  0
   -2.0303   -0.2219    1.2629 H   0  0  0  0  0  0  0  0  0  0  0  0
   -8.5269    0.5426   -1.8691 H   0  0  0  0  0  0  0  0  0  0  0  0
   -7.6932   -0.7589   -2.7527 H   0  0  0  0  0  0  0  0  0  0  0  0
   -8.2682   -2.4540   -1.1745 H   0  0  0  0  0  0  0  0  0  0  0  0
   -9.7360   -1.5822   -1.6800 H   0  0  0  0  0  0  0  0  0  0  0  0
  -10.0409   -1.6920    0.6095 H   0  0  0  0  0  0  0  0  0  0  0  0
   -8.3255   -1.5998    1.0020 H   0  0  0  0  0  0  0  0  0  0  0  0
   -9.7907    0.4266    1.6294 H   0  0  0  0  0  0  0  0  0  0  0  0
  -10.1307    0.6576   -0.1018 H   0  0  0  0  0  0  0  0  0  0  0  0
   -8.1901    1.8247   -0.3248 H   0  0  0  0  0  0  0  0  0  0  0  0
   -7.9983    1.8185    1.4428 H   0  0  0  0  0  0  0  0  0  0  0  0
   -6.0268    1.1850    0.4930 H   0  0  0  0  0  0  0  0  0  0  0  0
   -6.6520   -0.3578    1.1491 H   0  0  0  0  0  0  0  0  0  0  0  0
  1  2  1  0
  2  3  2  0
  3  4  1  0
  4  5  2  0
  5  6  1  0
  6  7  2  0
  7  8  1  0
  8  9  2  0
  9 10  1  0
 10 11  2  0
  7 12  1  0
 12 13  2  0
 13 14  1  0
 14 15  2  0
 15 16  1  0
 16 17  2  0
 15 18  1  0
 18 19  1  0
 19 20  1  0
 20 21  2  0
 21 22  1  0
 22 23  2  0
 23 24  1  0
 24 25  2  0
 18 26  1  0
 26 27  2  0
 26 28  1  0
 28 29  2  0
 29 30  1  0
 30 31  2  0
 31 32  1  0
 32 33  2  0
 31 34  1  0
 34 35  2  0
 34 36  1  0
 36 37  1  0
 37 38  1  0
 38 39  1  0
 39 40  1  0
 40 41  1  0
 41 42  1  0
 11  2  1  0
 17 12  1  0
 25 20  1  0
 33 28  1  0
 42 36  1  0
 10  5  1  0
  3 43  1  0
  4 44  1  0
  6 45  1  0
  8 46  1  0
  9 47  1  0
 11 48  1  0
 13 49  1  0
 14 50  1  0
 16 51  1  0
 17 52  1  0
 19 53  1  0
 19 54  1  0
 21 55  1  0
 22 56  1  0
 23 57  1  0
 24 58  1  0
 25 59  1  0
 29 60  1  0
 30 61  1  0
 32 62  1  0
 33 63  1  0
 37 64  1  0
 37 65  1  0
 38 66  1  0
 38 67  1  0
 39 68  1  0
 39 69  1  0
 40 70  1  0
 40 71  1  0
 41 72  1  0
 41 73  1  0
 42 74  1  0
 42 75  1  0
M  END
$$$$
[H]N=C(c1c([H])c([H])c(OC(=O)c2c([H])c([H])c(C3([H])C([H])([H])C([H])([H])C3([H])[H])n2C([H])([H])[C@]([H])(C(=O)O[H])N([H])S(=O)(=O)c2c([H])c([H])c(Cl)c([H])c2[H])c([H])c1[H])N([H])[H]
     RDKit          3D

 62 65  0  0  0  0  0  0  0  0999 V2000
    8.1790   -3.7089   -0.9965 N   0  0  0  0  0  0  0  0  0  0  0  0
    7.7639   -2.8818    0.0597 C   0  0  0  0  0  0  0  0  0  0  0  0
    8.3872   -2.9476    1.1847 N   0  0  0  0  0  0  0  0  0  0  0  0
    6.6473   -1.9706   -0.1209 C   0  0  0  0  0  0  0  0  0  0  0  0
    6.2637   -1.1730    0.9436 C   0  0  0  0  0  0  0  0  0  0  0  0
    5.2092   -0.3227    0.7604 C   0  0  0  0  0  0  0  0  0  0  0  0
    4.5293   -0.2388   -0.4333 C   0  0  0  0  0  0  0  0  0  0  0  0
    3.4673    0.6798   -0.4719 O   0  0  0  0  0  0  0  0  0  0  0  0
    2.1691    0.3025   -0.1416 C   0  0  0  0  0  0  0  0  0  0  0  0
    2.0245   -0.8773    0.1808 O   0  0  0  0  0  0  0  0  0  0  0  0
    1.0330    1.2279   -0.1676 C   0  0  0  0  0  0  0  0  0  0  0  0
    1.2677    2.5925   -0.4337 C   0  0  0  0  0  0  0  0  0  0  0  0
    0.0744    3.2190   -0.3193 C   0  0  0  0  0  0  0  0  0  0  0  0
   -0.8654    2.2470    0.0095 C   0  0  0  0  0  0  0  0  0  0  0  0
   -2.2916    2.6544    0.2845 C   0  0  0  0  0  0  0  0  0  0  0  0
   -2.3377    3.8747    1.2211 C   0  0  0  0  0  0  0  0  0  0  0  0
   -3.5050    4.3600    0.3670 C   0  0  0  0  0  0  0  0  0  0  0  0
   -2.8865    3.5260   -0.7611 C   0  0  0  0  0  0  0  0  0  0  0  0
   -0.2720    1.0345    0.0936 N   0  0  0  0  0  0  0  0  0  0  0  0
   -0.9362   -0.1960    0.3393 C   0  0  0  0  0  0  0  0  0  0  0  0
   -1.5993   -0.9269   -0.7572 C   0  0  1  0  0  0  0  0  0  0  0  0
   -2.6489   -0.1055   -1.3851 N   0  0  0  0  0  0  0  0  0  0  0  0
   -4.2049   -0.7471   -1.2468 S   0  0  0  0  0  0  0  0  0  0  0  0
   -5.1514    0.2236   -1.9403 O   0  0  0  0  0  0  0  0  0  0  0  0
   -4.3249   -2.0359   -2.0058 O   0  0  0  0  0  0  0  0  0  0  0  0
   -4.7851   -0.9340    0.3823 C   0  0  0  0  0  0  0  0  0  0  0  0
   -4.5862   -2.1116    1.0678 C   0  0  0  0  0  0  0  0  0  0  0  0
   -5.0427   -2.2919    2.3755 C   0  0  0  0  0  0  0  0  0  0  0  0
   -5.7188   -1.2784    3.0319 C   0  0  0  0  0  0  0  0  0  0  0  0
   -6.2924   -1.5089    4.6748 Cl  0  0  0  0  0  0  0  0  0  0  0  0
   -5.9180   -0.1031    2.3492 C   0  0  0  0  0  0  0  0  0  0  0  0
   -5.4637    0.0628    1.0618 C   0  0  0  0  0  0  0  0  0  0  0  0
   -0.8306   -1.5551   -1.8179 C   0  0  0  0  0  0  0  0  0  0  0  0
    0.0814   -2.5581   -1.6371 O   0  0  0  0  0  0  0  0  0  0  0  0
   -0.9783   -1.1896   -3.0493 O   0  0  0  0  0  0  0  0  0  0  0  0
    4.9035   -1.0183   -1.4752 C   0  0  0  0  0  0  0  0  0  0  0  0
    5.9656   -1.8869   -1.3191 C   0  0  0  0  0  0  0  0  0  0  0  0
    8.2049   -3.3436   -1.9610 H   0  0  0  0  0  0  0  0  0  0  0  0
    8.4590   -4.6854   -0.8107 H   0  0  0  0  0  0  0  0  0  0  0  0
    9.1825   -3.5904    1.3327 H   0  0  0  0  0  0  0  0  0  0  0  0
    6.8116   -1.2466    1.8905 H   0  0  0  0  0  0  0  0  0  0  0  0
    4.9282    0.2951    1.6188 H   0  0  0  0  0  0  0  0  0  0  0  0
    2.2425    3.0363   -0.6836 H   0  0  0  0  0  0  0  0  0  0  0  0
   -0.1345    4.2976   -0.4571 H   0  0  0  0  0  0  0  0  0  0  0  0
   -2.9710    1.8990    0.6411 H   0  0  0  0  0  0  0  0  0  0  0  0
   -1.4870    4.5578    1.0987 H   0  0  0  0  0  0  0  0  0  0  0  0
   -2.6933    3.6598    2.2349 H   0  0  0  0  0  0  0  0  0  0  0  0
   -3.4958    5.4388    0.1848 H   0  0  0  0  0  0  0  0  0  0  0  0
   -4.4919    3.9976    0.6588 H   0  0  0  0  0  0  0  0  0  0  0  0
   -3.6469    3.0605   -1.4360 H   0  0  0  0  0  0  0  0  0  0  0  0
   -2.2048    4.1688   -1.3424 H   0  0  0  0  0  0  0  0  0  0  0  0
   -1.7506   -0.0076    1.1238 H   0  0  0  0  0  0  0  0  0  0  0  0
   -0.2853   -0.9416    0.8976 H   0  0  0  0  0  0  0  0  0  0  0  0
   -2.2170   -1.7818   -0.3069 H   0  0  0  0  0  0  0  0  0  0  0  0
   -2.4085    0.1463   -2.3439 H   0  0  0  0  0  0  0  0  0  0  0  0
   -4.0752   -2.9425    0.6294 H   0  0  0  0  0  0  0  0  0  0  0  0
   -4.8693   -3.2401    2.8937 H   0  0  0  0  0  0  0  0  0  0  0  0
   -6.4395    0.7003    2.8355 H   0  0  0  0  0  0  0  0  0  0  0  0
   -5.6433    1.0087    0.5611 H   0  0  0  0  0  0  0  0  0  0  0  0
    1.0012   -2.4457   -2.0343 H   0  0  0  0  0  0  0  0  0  0  0  0
    4.3666   -0.9486   -2.4098 H   0  0  0  0  0  0  0  0  0  0  0  0
    6.2911   -2.5295   -2.1445 H   0  0  0  0  0  0  0  0  0  0  0  0
  1  2  1  0
  2  3  2  3
  2  4  1  0
  4  5  2  0
  5  6  1  0
  6  7  2  0
  7  8  1  0
  8  9  1  0
  9 10  2  0
  9 11  1  0
 11 12  2  0
 12 13  1  0
 13 14  2  0
 14 15  1  0
 15 16  1  0
 16 17  1  0
 17 18  1  0
 14 19  1  0
 19 20  1  0
 20 21  1  0
 21 22  1  0
 22 23  1  0
 23 24  2  0
 23 25  2  0
 23 26  1  0
 26 27  2  0
 27 28  1  0
 28 29  2  0
 29 30  1  0
 29 31  1  0
 31 32  2  0
 21 33  1  0
 33 34  1  0
 33 35  2  0
  7 36  1  0
 36 37  2  0
 37  4  1  0
 19 11  1  0
 32 26  1  0
 18 15  1  0
  1 38  1  0
  1 39  1  0
  3 40  1  0
  5 41  1  0
  6 42  1  0
 12 43  1  0
 13 44  1  0
 15 45  1  0
 16 46  1  0
 16 47  1  0
 17 48  1  0
 17 49  1  0
 18 50  1  0
 18 51  1  0
 20 52  1  0
 20 53  1  0
 21 54  1  1
 22 55  1  0
 27 56  1  0
 28 57  1  0
 31 58  1  0
 32 59  1  0
 34 60  1  0
 36 61  1  0
 37 62  1  0
M  END
$$$$
[H]OC(=O)C([H])([H])[C@@]1([H])C([H])([H])C(=O)N2C([H])([H])C([H])([H])c3c([H])c(C(=O)N([H])c4c([H])c([H])c([H])c(Cl)c4[H])c([H])c([H])c3[C@@]2([H])C1([H])[H]
     RDKit          3D

 50 53  0  0  0  0  0  0  0  0999 V2000
   -7.7247   -1.5942   -0.7436 O   0  0  0  0  0  0  0  0  0  0  0  0
   -6.6510   -0.7514   -0.9733 C   0  0  0  0  0  0  0  0  0  0  0  0
   -6.8200    0.2099   -1.7512 O   0  0  0  0  0  0  0  0  0  0  0  0
   -5.3651   -0.9884   -0.3208 C   0  0  0  0  0  0  0  0  0  0  0  0
   -4.3590    0.0711   -0.7138 C   0  0  2  0  0  0  0  0  0  0  0  0
   -3.0623   -0.2497   -0.0042 C   0  0  0  0  0  0  0  0  0  0  0  0
   -2.1097    0.9002   -0.2572 C   0  0  1  0  0  0  0  0  0  0  0  0
   -2.6065    1.9994    0.5467 N   0  0  0  0  0  0  0  0  0  0  0  0
   -1.7428    2.7848    1.3710 C   0  0  0  0  0  0  0  0  0  0  0  0
   -0.7186    1.9319    2.1021 C   0  0  0  0  0  0  0  0  0  0  0  0
   -0.0507    1.0599    1.0678 C   0  0  0  0  0  0  0  0  0  0  0  0
    1.2750    0.7222    1.2227 C   0  0  0  0  0  0  0  0  0  0  0  0
    1.9447   -0.0840    0.2955 C   0  0  0  0  0  0  0  0  0  0  0  0
    1.2943   -0.5696   -0.8102 C   0  0  0  0  0  0  0  0  0  0  0  0
   -0.0529   -0.2164   -0.9521 C   0  0  0  0  0  0  0  0  0  0  0  0
   -0.7044    0.5762   -0.0373 C   0  0  0  0  0  0  0  0  0  0  0  0
    3.3582   -0.4095    0.5328 C   0  0  0  0  0  0  0  0  0  0  0  0
    3.7774   -0.2904    1.6947 O   0  0  0  0  0  0  0  0  0  0  0  0
    4.1913   -0.8341   -0.5102 N   0  0  0  0  0  0  0  0  0  0  0  0
    5.5587   -1.1886   -0.4473 C   0  0  0  0  0  0  0  0  0  0  0  0
    6.2344   -1.3614   -1.6679 C   0  0  0  0  0  0  0  0  0  0  0  0
    7.5601   -1.7170   -1.7282 C   0  0  0  0  0  0  0  0  0  0  0  0
    8.2453   -1.9092   -0.5701 C   0  0  0  0  0  0  0  0  0  0  0  0
    7.5987   -1.7441    0.6310 C   0  0  0  0  0  0  0  0  0  0  0  0
    8.4807   -1.9912    2.1103 Cl  0  0  0  0  0  0  0  0  0  0  0  0
    6.2656   -1.3867    0.6943 C   0  0  0  0  0  0  0  0  0  0  0  0
   -4.0024    2.2500    0.4714 C   0  0  0  0  0  0  0  0  0  0  0  0
   -4.4813    3.2020    1.1149 O   0  0  0  0  0  0  0  0  0  0  0  0
   -4.9165    1.4141   -0.3509 C   0  0  0  0  0  0  0  0  0  0  0  0
   -7.5529   -2.5443   -0.4371 H   0  0  0  0  0  0  0  0  0  0  0  0
   -5.5136   -0.9058    0.7844 H   0  0  0  0  0  0  0  0  0  0  0  0
   -4.9628   -2.0203   -0.5254 H   0  0  0  0  0  0  0  0  0  0  0  0
   -4.1689   -0.0474   -1.8054 H   0  0  0  0  0  0  0  0  0  0  0  0
   -3.3018   -0.3289    1.0884 H   0  0  0  0  0  0  0  0  0  0  0  0
   -2.6929   -1.2086   -0.4225 H   0  0  0  0  0  0  0  0  0  0  0  0
   -2.3144    1.2137   -1.3249 H   0  0  0  0  0  0  0  0  0  0  0  0
   -2.2581    3.3773    2.1320 H   0  0  0  0  0  0  0  0  0  0  0  0
   -1.1823    3.4946    0.7163 H   0  0  0  0  0  0  0  0  0  0  0  0
   -1.1465    1.3489    2.9193 H   0  0  0  0  0  0  0  0  0  0  0  0
    0.0233    2.6285    2.5386 H   0  0  0  0  0  0  0  0  0  0  0  0
    1.7972    1.0981    2.0887 H   0  0  0  0  0  0  0  0  0  0  0  0
    1.7808   -1.1976   -1.5409 H   0  0  0  0  0  0  0  0  0  0  0  0
   -0.5511   -0.6146   -1.8409 H   0  0  0  0  0  0  0  0  0  0  0  0
    3.7260   -0.8969   -1.4875 H   0  0  0  0  0  0  0  0  0  0  0  0
    5.7164   -1.2150   -2.5951 H   0  0  0  0  0  0  0  0  0  0  0  0
    8.0944   -1.8540   -2.6607 H   0  0  0  0  0  0  0  0  0  0  0  0
    9.2846   -2.1881   -0.5758 H   0  0  0  0  0  0  0  0  0  0  0  0
    5.8266   -1.2836    1.6641 H   0  0  0  0  0  0  0  0  0  0  0  0
   -5.8758    1.3623    0.2023 H   0  0  0  0  0  0  0  0  0  0  0  0
   -5.1449    1.9460   -1.3196 H   0  0  0  0  0  0  0  0  0  0  0  0
  1  2  1  0
  2  3  2  0
  2  4  1  0
  4  5  1  0
  5  6  1  0
  6  7  1  0
  7  8  1  0
  8  9  1  0
  9 10  1  0
 10 11  1  0
 11 12  2  0
 12 13  1  0
 13 14  2  0
 14 15  1  0
 15 16  2  0
 13 17  1  0
 17 18  2  0
 17 19  1  0
 19 20  1  0
 20 21  2  0
 21 22  1  0
 22 23  2  0
 23 24  1  0
 24 25  1  0
 24 26  2  0
  8 27  1  0
 27 28  2  0
 27 29  1  0
 29  5  1  0
 16  7  1  0
 26 20  1  0
 16 11  1  0
  1 30  1  0
  4 31  1  0
  4 32  1  0
  5 33  1  6
  6 34  1  0
  6 35  1  0
  7 36  1  6
  9 37  1  0
  9 38  1  0
 10 39  1  0
 10 40  1  0
 12 41  1  0
 14 42  1  0
 15 43  1  0
 19 44  1  0
 21 45  1  0
 22 46  1  0
 23 47  1  0
 26 48  1  0
 29 49  1  0
 29 50  1  0
M  END
$$$$
[H]Oc1c([H])c([H])c(-c2c([H])c([H])c(C#N)c(Br)c2C([H])([H])[H])c([H])c1O[H]
     RDKit          3D

 28 29  0  0  0  0  0  0  0  0999 V2000
    1.2452    2.0419    0.2999 C   0  0  0  0  0  0  0  0  0  0  0  0
    1.6078    0.6294    0.1894 C   0  0  0  0  0  0  0  0  0  0  0  0
    2.9633    0.3056    0.3138 C   0  0  0  0  0  0  0  0  0  0  0  0
    4.2685    1.6684    0.5938 Br  0  0  0  0  0  0  0  0  0  0  0  0
    3.3934   -1.0013    0.2381 C   0  0  0  0  0  0  0  0  0  0  0  0
    2.4695   -2.0042    0.0363 C   0  0  0  0  0  0  0  0  0  0  0  0
    1.1263   -1.7251   -0.0913 C   0  0  0  0  0  0  0  0  0  0  0  0
    0.7329   -0.3871   -0.0087 C   0  0  0  0  0  0  0  0  0  0  0  0
   -0.6922   -0.1259   -0.1655 C   0  0  0  0  0  0  0  0  0  0  0  0
   -1.1264    0.8087   -1.0816 C   0  0  0  0  0  0  0  0  0  0  0  0
   -2.4797    1.0267   -1.1899 C   0  0  0  0  0  0  0  0  0  0  0  0
   -3.3731    0.3322   -0.4072 C   0  0  0  0  0  0  0  0  0  0  0  0
   -4.7554    0.5516   -0.5145 O   0  0  0  0  0  0  0  0  0  0  0  0
   -2.9528   -0.6047    0.5122 C   0  0  0  0  0  0  0  0  0  0  0  0
   -3.8792   -1.3088    1.3074 O   0  0  0  0  0  0  0  0  0  0  0  0
   -1.6045   -0.8326    0.6312 C   0  0  0  0  0  0  0  0  0  0  0  0
    4.8020   -1.3266    0.3685 C   0  0  0  0  0  0  0  0  0  0  0  0
    5.9052   -1.5843    0.4799 N   0  0  0  0  0  0  0  0  0  0  0  0
    0.2288    2.2278    0.6733 H   0  0  0  0  0  0  0  0  0  0  0  0
    1.3775    2.5373   -0.7039 H   0  0  0  0  0  0  0  0  0  0  0  0
    1.9568    2.6021    0.9563 H   0  0  0  0  0  0  0  0  0  0  0  0
    2.7806   -3.0379   -0.0267 H   0  0  0  0  0  0  0  0  0  0  0  0
    0.3784   -2.4904   -0.2502 H   0  0  0  0  0  0  0  0  0  0  0  0
   -0.4064    1.3577   -1.7091 H   0  0  0  0  0  0  0  0  0  0  0  0
   -2.8172    1.7655   -1.9144 H   0  0  0  0  0  0  0  0  0  0  0  0
   -5.0694    1.2243   -1.1735 H   0  0  0  0  0  0  0  0  0  0  0  0
   -4.8535   -1.0859    1.1621 H   0  0  0  0  0  0  0  0  0  0  0  0
   -1.2264   -1.5644    1.3451 H   0  0  0  0  0  0  0  0  0  0  0  0
  1  2  1  0
  2  3  2  0
  3  4  1  0
  3  5  1  0
  5  6  2  0
  6  7  1  0
  7  8  2  0
  8  9  1  0
  9 10  2  0
 10 11  1  0
 11 12  2  0
 12 13  1  0
 12 14  1  0
 14 15  1  0
 14 16  2  0
  5 17  1  0
 17 18  3  0
  8  2  1  0
 16  9  1  0
  1 19  1  0
  1 20  1  0
  1 21  1  0
  6 22  1  0
  7 23  1  0
 10 24  1  0
 11 25  1  0
 13 26  1  0
 15 27  1  0
 16 28  1  0
M  END
$$$$
[H]OP(=O)(C([H])([H])C([H])(N([H])C(=O)C([H])([H])N([H])C([H])=O)C([H])([H])c1c([H])c([H])c([H])c([H])c1[H])C([H])([H])[C@]([H])(C(=O)N([H])[C@]([H])(C(=O)N([H])[H])C([H])([H])C([H])([H])SC([H])([H])[H])C([H])([H])c1c([H])c([H])c(-c2c([H])c([H])c([H])c([H])c2[H])c([H])c1[H]
     RDKit          3D

 86 88  0  0  0  0  0  0  0  0999 V2000
   -3.9954    6.8548   -0.8705 C   0  0  0  0  0  0  0  0  0  0  0  0
   -3.8029    5.0554   -0.9690 S   0  0  0  0  0  0  0  0  0  0  0  0
   -4.2411    4.3215    0.6068 C   0  0  0  0  0  0  0  0  0  0  0  0
   -3.3030    4.6749    1.7202 C   0  0  0  0  0  0  0  0  0  0  0  0
   -1.8709    4.2168    1.4827 C   0  0  2  0  0  0  0  0  0  0  0  0
   -1.9270    2.7765    1.3256 N   0  0  0  0  0  0  0  0  0  0  0  0
   -1.3917    2.1218    0.1900 C   0  0  0  0  0  0  0  0  0  0  0  0
   -0.8334    2.8528   -0.6795 O   0  0  0  0  0  0  0  0  0  0  0  0
   -1.4980    0.6562    0.0417 C   0  0  2  0  0  0  0  0  0  0  0  0
   -3.0076    0.3611    0.1260 C   0  0  0  0  0  0  0  0  0  0  0  0
   -3.3176   -1.0667   -0.0159 C   0  0  0  0  0  0  0  0  0  0  0  0
   -3.4345   -1.9212    1.0554 C   0  0  0  0  0  0  0  0  0  0  0  0
   -3.7142   -3.2773    0.9068 C   0  0  0  0  0  0  0  0  0  0  0  0
   -3.8857   -3.8183   -0.3283 C   0  0  0  0  0  0  0  0  0  0  0  0
   -3.7729   -2.9693   -1.4324 C   0  0  0  0  0  0  0  0  0  0  0  0
   -3.4966   -1.6319   -1.2845 C   0  0  0  0  0  0  0  0  0  0  0  0
   -4.1564   -5.2375   -0.5343 C   0  0  0  0  0  0  0  0  0  0  0  0
   -4.9336   -5.6356   -1.6163 C   0  0  0  0  0  0  0  0  0  0  0  0
   -5.2091   -6.9624   -1.8684 C   0  0  0  0  0  0  0  0  0  0  0  0
   -4.7009   -7.9229   -1.0260 C   0  0  0  0  0  0  0  0  0  0  0  0
   -3.9279   -7.5277    0.0511 C   0  0  0  0  0  0  0  0  0  0  0  0
   -3.6567   -6.2061    0.2978 C   0  0  0  0  0  0  0  0  0  0  0  0
   -0.7466   -0.0570    1.0849 C   0  0  0  0  0  0  0  0  0  0  0  0
    1.0297    0.2412    1.1473 P   0  0  0  0  0  0  0  0  0  0  0  0
    1.7239   -1.1895    1.7383 O   0  0  0  0  0  0  0  0  0  0  0  0
    1.2722    1.2695    2.2592 O   0  0  0  0  0  0  0  0  0  0  0  0
    1.7692    0.8136   -0.3529 C   0  0  0  0  0  0  0  0  0  0  0  0
    3.0220    0.0770   -0.7655 C   0  0  0  0  0  0  0  0  0  0  0  0
    3.5090    0.7188   -2.0278 C   0  0  0  0  0  0  0  0  0  0  0  0
    4.7110    0.1625   -2.6312 C   0  0  0  0  0  0  0  0  0  0  0  0
    5.9651    0.6554   -2.3412 C   0  0  0  0  0  0  0  0  0  0  0  0
    7.1187    0.1592   -2.8857 C   0  0  0  0  0  0  0  0  0  0  0  0
    7.0535   -0.8860   -3.7722 C   0  0  0  0  0  0  0  0  0  0  0  0
    5.8150   -1.4000   -4.0825 C   0  0  0  0  0  0  0  0  0  0  0  0
    4.6751   -0.8859   -3.5242 C   0  0  0  0  0  0  0  0  0  0  0  0
    3.9486   -0.1113    0.2915 N   0  0  0  0  0  0  0  0  0  0  0  0
    4.5692   -1.3426    0.5832 C   0  0  0  0  0  0  0  0  0  0  0  0
    4.2467   -2.3021   -0.2226 O   0  0  0  0  0  0  0  0  0  0  0  0
    5.4949   -1.7204    1.6248 C   0  0  0  0  0  0  0  0  0  0  0  0
    5.9079   -0.7800    2.5894 N   0  0  0  0  0  0  0  0  0  0  0  0
    6.6424    0.3829    2.2573 C   0  0  0  0  0  0  0  0  0  0  0  0
    6.9759    0.6242    1.0703 O   0  0  0  0  0  0  0  0  0  0  0  0
   -1.0570    4.6134    2.6682 C   0  0  0  0  0  0  0  0  0  0  0  0
   -0.8473    6.0142    2.9360 N   0  0  0  0  0  0  0  0  0  0  0  0
   -0.5353    3.7982    3.4576 O   0  0  0  0  0  0  0  0  0  0  0  0
   -2.9593    7.2888   -0.7914 H   0  0  0  0  0  0  0  0  0  0  0  0
   -4.6168    7.1010    0.0121 H   0  0  0  0  0  0  0  0  0  0  0  0
   -4.4419    7.2489   -1.8102 H   0  0  0  0  0  0  0  0  0  0  0  0
   -4.3496    3.1992    0.5290 H   0  0  0  0  0  0  0  0  0  0  0  0
   -5.2802    4.6689    0.8872 H   0  0  0  0  0  0  0  0  0  0  0  0
   -3.6815    4.2523    2.6631 H   0  0  0  0  0  0  0  0  0  0  0  0
   -3.3252    5.7797    1.8498 H   0  0  0  0  0  0  0  0  0  0  0  0
   -1.4716    4.7496    0.6224 H   0  0  0  0  0  0  0  0  0  0  0  0
   -2.3718    2.2173    2.0687 H   0  0  0  0  0  0  0  0  0  0  0  0
   -1.2421    0.3324   -1.0000 H   0  0  0  0  0  0  0  0  0  0  0  0
   -3.3574    0.7297    1.1158 H   0  0  0  0  0  0  0  0  0  0  0  0
   -3.5113    0.9694   -0.6365 H   0  0  0  0  0  0  0  0  0  0  0  0
   -3.2980   -1.4870    2.0395 H   0  0  0  0  0  0  0  0  0  0  0  0
   -3.7939   -3.9005    1.8024 H   0  0  0  0  0  0  0  0  0  0  0  0
   -3.9127   -3.4040   -2.4149 H   0  0  0  0  0  0  0  0  0  0  0  0
   -3.4062   -0.9654   -2.1171 H   0  0  0  0  0  0  0  0  0  0  0  0
   -5.3179   -4.8774   -2.2562 H   0  0  0  0  0  0  0  0  0  0  0  0
   -5.8208   -7.2745   -2.7217 H   0  0  0  0  0  0  0  0  0  0  0  0
   -4.8939   -8.9721   -1.1910 H   0  0  0  0  0  0  0  0  0  0  0  0
   -3.5234   -8.2824    0.7212 H   0  0  0  0  0  0  0  0  0  0  0  0
   -3.0511   -5.8994    1.1410 H   0  0  0  0  0  0  0  0  0  0  0  0
   -1.2230    0.1367    2.0874 H   0  0  0  0  0  0  0  0  0  0  0  0
   -0.9507   -1.1682    0.9373 H   0  0  0  0  0  0  0  0  0  0  0  0
    1.2342   -1.5503    2.4983 H   0  0  0  0  0  0  0  0  0  0  0  0
    1.9474    1.9073   -0.2895 H   0  0  0  0  0  0  0  0  0  0  0  0
    1.0163    0.6956   -1.1881 H   0  0  0  0  0  0  0  0  0  0  0  0
    2.7095   -0.9690   -1.0915 H   0  0  0  0  0  0  0  0  0  0  0  0
    3.6772    1.8304   -1.8737 H   0  0  0  0  0  0  0  0  0  0  0  0
    2.7120    0.7044   -2.8273 H   0  0  0  0  0  0  0  0  0  0  0  0
    6.0908    1.4862   -1.6451 H   0  0  0  0  0  0  0  0  0  0  0  0
    8.0982    0.5591   -2.6462 H   0  0  0  0  0  0  0  0  0  0  0  0
    7.9701   -1.2904   -4.2146 H   0  0  0  0  0  0  0  0  0  0  0  0
    5.7870   -2.2285   -4.7852 H   0  0  0  0  0  0  0  0  0  0  0  0
    3.7272   -1.3048   -3.7860 H   0  0  0  0  0  0  0  0  0  0  0  0
    4.1536    0.7539    0.8825 H   0  0  0  0  0  0  0  0  0  0  0  0
    6.3900   -2.2047    1.1430 H   0  0  0  0  0  0  0  0  0  0  0  0
    5.0274   -2.6005    2.1784 H   0  0  0  0  0  0  0  0  0  0  0  0
    5.6789   -0.9126    3.6212 H   0  0  0  0  0  0  0  0  0  0  0  0
    6.9413    1.0977    2.9996 H   0  0  0  0  0  0  0  0  0  0  0  0
   -0.7780    6.7113    2.1735 H   0  0  0  0  0  0  0  0  0  0  0  0
   -0.7698    6.3016    3.9272 H   0  0  0  0  0  0  0  0  0  0  0  0
  1  2  1  0
  2  3  1  0
  3  4  1  0
  4  5  1  0
  5  6  1  0
  6  7  1  0
  7  8  2  0
  7  9  1  0
  9 10  1  0
 10 11  1  0
 11 12  2  0
 12 13  1  0
 13 14  2  0
 14 15  1  0
 15 16  2  0
 14 17  1  0
 17 18  2  0
 18 19  1  0
 19 20  2  0
 20 21  1  0
 21 22  2  0
  9 23  1  0
 23 24  1  0
 24 25  1  0
 24 26  2  0
 24 27  1  0
 27 28  1  0
 28 29  1  0
 29 30  1  0
 30 31  2  0
 31 32  1  0
 32 33  2  0
 33 34  1  0
 34 35  2  0
 28 36  1  0
 36 37  1  0
 37 38  2  0
 37 39  1  0
 39 40  1  0
 40 41  1  0
 41 42  2  0
  5 43  1  0
 43 44  1  0
 43 45  2  0
 16 11  1  0
 22 17  1  0
 35 30  1  0
  1 46  1  0
  1 47  1  0
  1 48  1  0
  3 49  1  0
  3 50  1  0
  4 51  1  0
  4 52  1  0
  5 53  1  6
  6 54  1  0
  9 55  1  6
 10 56  1  0
 10 57  1  0
 12 58  1  0
 13 59  1  0
 15 60  1  0
 16 61  1  0
 18 62  1  0
 19 63  1  0
 20 64  1  0
 21 65  1  0
 22 66  1  0
 23 67  1  0
 23 68  1  0
 25 69  1  0
 27 70  1  0
 27 71  1  0
 28 72  1  0
 29 73  1  0
 29 74  1  0
 31 75  1  0
 32 76  1  0
 33 77  1  0
 34 78  1  0
 35 79  1  0
 36 80  1  0
 39 81  1  0
 39 82  1  0
 40 83  1  0
 41 84  1  0
 44 85  1  0
 44 86  1  0
M  END
$$$$
[H]OC(=O)[C@]([H])(Oc1c([H])c([H])c2c(c1[H])C([H])([H])C([H])([H])N([H])C([H])([H])C2([H])[H])C([H])([H])c1c([H])c([H])c([H])c([H])c1[H]
     RDKit          3D

 44 46  0  0  0  0  0  0  0  0999 V2000
   -2.5601   -4.7028   -0.1885 O   0  0  0  0  0  0  0  0  0  0  0  0
   -1.7134   -3.7948    0.3956 C   0  0  0  0  0  0  0  0  0  0  0  0
   -0.8466   -4.1817    1.1983 O   0  0  0  0  0  0  0  0  0  0  0  0
   -1.7998   -2.3245    0.0930 C   0  0  1  0  0  0  0  0  0  0  0  0
   -3.2129   -1.9344    0.5276 C   0  0  0  0  0  0  0  0  0  0  0  0
   -3.4871   -0.5124    0.3055 C   0  0  0  0  0  0  0  0  0  0  0  0
   -3.2191    0.4198    1.2790 C   0  0  0  0  0  0  0  0  0  0  0  0
   -3.5006    1.7467    1.0078 C   0  0  0  0  0  0  0  0  0  0  0  0
   -4.0385    2.1364   -0.2099 C   0  0  0  0  0  0  0  0  0  0  0  0
   -4.3078    1.2113   -1.1844 C   0  0  0  0  0  0  0  0  0  0  0  0
   -4.0222   -0.1123   -0.9018 C   0  0  0  0  0  0  0  0  0  0  0  0
   -0.8300   -1.6709    0.8220 O   0  0  0  0  0  0  0  0  0  0  0  0
    0.1407   -0.8679    0.2944 C   0  0  0  0  0  0  0  0  0  0  0  0
    0.2409   -0.6332   -1.0440 C   0  0  0  0  0  0  0  0  0  0  0  0
    1.2363    0.1873   -1.5603 C   0  0  0  0  0  0  0  0  0  0  0  0
    2.1354    0.7727   -0.7098 C   0  0  0  0  0  0  0  0  0  0  0  0
    3.0941    1.5939   -1.4696 C   0  0  0  0  0  0  0  0  0  0  0  0
    4.4974    1.3852   -0.9216 C   0  0  0  0  0  0  0  0  0  0  0  0
    4.5462    2.0752    0.3538 N   0  0  0  0  0  0  0  0  0  0  0  0
    4.3647    1.1792    1.4651 C   0  0  0  0  0  0  0  0  0  0  0  0
    2.9056    1.0674    1.7684 C   0  0  0  0  0  0  0  0  0  0  0  0
    2.0862    0.5728    0.6631 C   0  0  0  0  0  0  0  0  0  0  0  0
    1.0847   -0.2445    1.1134 C   0  0  0  0  0  0  0  0  0  0  0  0
   -2.4602   -4.9924   -1.1609 H   0  0  0  0  0  0  0  0  0  0  0  0
   -1.7771   -2.1783   -0.9979 H   0  0  0  0  0  0  0  0  0  0  0  0
   -3.3619   -2.2199    1.5937 H   0  0  0  0  0  0  0  0  0  0  0  0
   -3.9001   -2.5814   -0.0609 H   0  0  0  0  0  0  0  0  0  0  0  0
   -2.7926    0.1491    2.2568 H   0  0  0  0  0  0  0  0  0  0  0  0
   -3.2992    2.5107    1.7599 H   0  0  0  0  0  0  0  0  0  0  0  0
   -4.2509    3.1976   -0.3950 H   0  0  0  0  0  0  0  0  0  0  0  0
   -4.7272    1.5420   -2.1248 H   0  0  0  0  0  0  0  0  0  0  0  0
   -4.2503   -0.8227   -1.7033 H   0  0  0  0  0  0  0  0  0  0  0  0
   -0.4275   -1.0571   -1.7722 H   0  0  0  0  0  0  0  0  0  0  0  0
    1.2948    0.3576   -2.6234 H   0  0  0  0  0  0  0  0  0  0  0  0
    3.0457    1.3970   -2.5512 H   0  0  0  0  0  0  0  0  0  0  0  0
    2.8393    2.6706   -1.2672 H   0  0  0  0  0  0  0  0  0  0  0  0
    4.6985    0.3132   -0.8295 H   0  0  0  0  0  0  0  0  0  0  0  0
    5.1929    1.8222   -1.6634 H   0  0  0  0  0  0  0  0  0  0  0  0
    5.3304    2.7274    0.4476 H   0  0  0  0  0  0  0  0  0  0  0  0
    4.8607    0.1993    1.3155 H   0  0  0  0  0  0  0  0  0  0  0  0
    4.8565    1.6456    2.3448 H   0  0  0  0  0  0  0  0  0  0  0  0
    2.5513    2.0460    2.1613 H   0  0  0  0  0  0  0  0  0  0  0  0
    2.8044    0.3566    2.6316 H   0  0  0  0  0  0  0  0  0  0  0  0
    0.9783   -0.4516    2.1785 H   0  0  0  0  0  0  0  0  0  0  0  0
  1  2  1  0
  2  3  2  0
  2  4  1  0
  4  5  1  0
  5  6  1  0
  6  7  2  0
  7  8  1  0
  8  9  2  0
  9 10  1  0
 10 11  2  0
  4 12  1  0
 12 13  1  0
 13 14  2  0
 14 15  1  0
 15 16  2  0
 16 17  1  0
 17 18  1  0
 18 19  1  0
 19 20  1  0
 20 21  1  0
 21 22  1  0
 22 23  2  0
 11  6  1  0
 23 13  1  0
 22 16  1  0
  1 24  1  0
  4 25  1  6
  5 26  1  0
  5 27  1  0
  7 28  1  0
  8 29  1  0
  9 30  1  0
 10 31  1  0
 11 32  1  0
 14 33  1  0
 15 34  1  0
 17 35  1  0
 17 36  1  0
 18 37  1  0
 18 38  1  0
 19 39  1  0
 20 40  1  0
 20 41  1  0
 21 42  1  0
 21 43  1  0
 23 44  1  0
M  END
$$$$
[H]c1nc([H])c(-c2c([H])c3nc(N([H])C(=O)N([H])C([H])([H])C([H])([H])[H])sc3n(C([H])([H])C(F)(F)F)c2=O)c([H])c1[H]
     RDKit          3D

 41 43  0  0  0  0  0  0  0  0999 V2000
    7.8651    0.6336    0.6223 C   0  0  0  0  0  0  0  0  0  0  0  0
    6.5250   -0.0559    0.5347 C   0  0  0  0  0  0  0  0  0  0  0  0
    5.4754    0.8965    0.3034 N   0  0  0  0  0  0  0  0  0  0  0  0
    4.1368    0.4729    0.1870 C   0  0  0  0  0  0  0  0  0  0  0  0
    3.9129   -0.7821    0.2966 O   0  0  0  0  0  0  0  0  0  0  0  0
    3.0676    1.3808   -0.0417 N   0  0  0  0  0  0  0  0  0  0  0  0
    1.7486    0.8293   -0.1418 C   0  0  0  0  0  0  0  0  0  0  0  0
    0.5948    1.4204   -0.3463 N   0  0  0  0  0  0  0  0  0  0  0  0
   -0.5038    0.7332   -0.4049 C   0  0  0  0  0  0  0  0  0  0  0  0
   -1.7969    1.2423   -0.6172 C   0  0  0  0  0  0  0  0  0  0  0  0
   -2.8563    0.3663   -0.6504 C   0  0  0  0  0  0  0  0  0  0  0  0
   -4.2112    0.9158   -0.8672 C   0  0  0  0  0  0  0  0  0  0  0  0
   -5.2294    0.5197   -0.0426 C   0  0  0  0  0  0  0  0  0  0  0  0
   -6.4864    1.0430   -0.2697 C   0  0  0  0  0  0  0  0  0  0  0  0
   -6.6369    1.9297   -1.3101 C   0  0  0  0  0  0  0  0  0  0  0  0
   -5.6443    2.3253   -2.1253 N   0  0  0  0  0  0  0  0  0  0  0  0
   -4.4274    1.8091   -1.8939 C   0  0  0  0  0  0  0  0  0  0  0  0
   -2.7396   -0.9944   -0.4885 C   0  0  0  0  0  0  0  0  0  0  0  0
   -3.7655   -1.7035   -0.5368 O   0  0  0  0  0  0  0  0  0  0  0  0
   -1.4977   -1.4593   -0.2870 N   0  0  0  0  0  0  0  0  0  0  0  0
   -1.2731   -2.8551   -0.1079 C   0  0  0  0  0  0  0  0  0  0  0  0
   -1.3680   -3.1919    1.3867 C   0  0  0  0  0  0  0  0  0  0  0  0
   -1.1482   -4.5615    1.5669 F   0  0  0  0  0  0  0  0  0  0  0  0
   -0.3579   -2.5566    2.0811 F   0  0  0  0  0  0  0  0  0  0  0  0
   -2.6205   -2.8958    1.8779 F   0  0  0  0  0  0  0  0  0  0  0  0
   -0.4166   -0.6242   -0.2465 C   0  0  0  0  0  0  0  0  0  0  0  0
    1.2698   -0.8277   -0.0196 S   0  0  0  0  0  0  0  0  0  0  0  0
    8.2300    0.8154   -0.4167 H   0  0  0  0  0  0  0  0  0  0  0  0
    8.5504   -0.0631    1.1702 H   0  0  0  0  0  0  0  0  0  0  0  0
    7.7220    1.5764    1.1697 H   0  0  0  0  0  0  0  0  0  0  0  0
    6.3315   -0.5239    1.5419 H   0  0  0  0  0  0  0  0  0  0  0  0
    6.5278   -0.8806   -0.2329 H   0  0  0  0  0  0  0  0  0  0  0  0
    5.7062    1.8993    0.2222 H   0  0  0  0  0  0  0  0  0  0  0  0
    3.2778    2.3846   -0.1255 H   0  0  0  0  0  0  0  0  0  0  0  0
   -1.9918    2.2863   -0.7544 H   0  0  0  0  0  0  0  0  0  0  0  0
   -5.1217   -0.1748    0.7827 H   0  0  0  0  0  0  0  0  0  0  0  0
   -7.3346    0.7719    0.3446 H   0  0  0  0  0  0  0  0  0  0  0  0
   -7.6245    2.3663   -1.5199 H   0  0  0  0  0  0  0  0  0  0  0  0
   -3.6241    2.1208   -2.5432 H   0  0  0  0  0  0  0  0  0  0  0  0
   -0.2512   -3.1413   -0.4340 H   0  0  0  0  0  0  0  0  0  0  0  0
   -2.0140   -3.4469   -0.6819 H   0  0  0  0  0  0  0  0  0  0  0  0
  1  2  1  0
  2  3  1  0
  3  4  1  0
  4  5  2  0
  4  6  1  0
  6  7  1  0
  7  8  2  0
  8  9  1  0
  9 10  1  0
 10 11  2  0
 11 12  1  0
 12 13  2  0
 13 14  1  0
 14 15  2  0
 15 16  1  0
 16 17  2  0
 11 18  1  0
 18 19  2  0
 18 20  1  0
 20 21  1  0
 21 22  1  0
 22 23  1  0
 22 24  1  0
 22 25  1  0
 20 26  1  0
 26 27  1  0
 27  7  1  0
 26  9  2  0
 17 12  1  0
  1 28  1  0
  1 29  1  0
  1 30  1  0
  2 31  1  0
  2 32  1  0
  3 33  1  0
  6 34  1  0
 10 35  1  0
 13 36  1  0
 14 37  1  0
 15 38  1  0
 17 39  1  0
 21 40  1  0
 21 41  1  0
M  END
$$$$
[H]OC(=O)c1c([H])c([H])c(N([H])c2nc(N3C([H])([H])C([H])([H])OC([H])([H])C3([H])[H])nc3c2C([H])([H])C([H])([H])N(c2nc([H])c([H])c([H])c2C(F)(F)F)C3([H])[H])c([H])c1[H]
     RDKit          3D

 59 63  0  0  0  0  0  0  0  0999 V2000
   -7.5554   -2.2798   -1.8381 O   0  0  0  0  0  0  0  0  0  0  0  0
   -6.8111   -3.1483   -1.0734 C   0  0  0  0  0  0  0  0  0  0  0  0
   -7.3063   -4.2290   -0.6964 O   0  0  0  0  0  0  0  0  0  0  0  0
   -5.4366   -2.8294   -0.6882 C   0  0  0  0  0  0  0  0  0  0  0  0
   -4.8437   -1.6551   -1.0748 C   0  0  0  0  0  0  0  0  0  0  0  0
   -3.5337   -1.3722   -0.6964 C   0  0  0  0  0  0  0  0  0  0  0  0
   -2.7793   -2.2211    0.0618 C   0  0  0  0  0  0  0  0  0  0  0  0
   -1.4642   -2.0261    0.5188 N   0  0  0  0  0  0  0  0  0  0  0  0
   -0.7352   -0.8285    0.6026 C   0  0  0  0  0  0  0  0  0  0  0  0
   -1.2664    0.3789    0.3336 N   0  0  0  0  0  0  0  0  0  0  0  0
   -0.6230    1.5491    0.4560 C   0  0  0  0  0  0  0  0  0  0  0  0
    0.6519    1.5196    0.8805 N   0  0  0  0  0  0  0  0  0  0  0  0
    1.2779    0.3776    1.1753 C   0  0  0  0  0  0  0  0  0  0  0  0
    2.6808    0.3514    1.6696 C   0  0  0  0  0  0  0  0  0  0  0  0
    3.3898   -0.7112    1.0565 N   0  0  0  0  0  0  0  0  0  0  0  0
    2.7699   -2.0137    0.8827 C   0  0  0  0  0  0  0  0  0  0  0  0
    1.3049   -2.0402    1.3322 C   0  0  0  0  0  0  0  0  0  0  0  0
    0.5733   -0.8130    1.0323 C   0  0  0  0  0  0  0  0  0  0  0  0
    4.7106   -0.5921    0.6107 C   0  0  0  0  0  0  0  0  0  0  0  0
    5.6985   -1.1232    1.4052 N   0  0  0  0  0  0  0  0  0  0  0  0
    6.9920   -1.0902    1.1020 C   0  0  0  0  0  0  0  0  0  0  0  0
    7.3937   -0.4958   -0.0697 C   0  0  0  0  0  0  0  0  0  0  0  0
    6.4554    0.0475   -0.8956 C   0  0  0  0  0  0  0  0  0  0  0  0
    5.0887   -0.0023   -0.5473 C   0  0  0  0  0  0  0  0  0  0  0  0
    4.1421    0.6107   -1.4709 C   0  0  0  0  0  0  0  0  0  0  0  0
    4.8525    1.0228   -2.6317 F   0  0  0  0  0  0  0  0  0  0  0  0
    3.6926    1.8657   -0.9958 F   0  0  0  0  0  0  0  0  0  0  0  0
    3.1412   -0.1704   -1.9377 F   0  0  0  0  0  0  0  0  0  0  0  0
   -1.2383    2.7984    0.1550 N   0  0  0  0  0  0  0  0  0  0  0  0
   -0.4962    4.0377    0.3124 C   0  0  0  0  0  0  0  0  0  0  0  0
   -1.0698    5.0035   -0.7256 C   0  0  0  0  0  0  0  0  0  0  0  0
   -2.4174    5.1791   -0.3651 O   0  0  0  0  0  0  0  0  0  0  0  0
   -3.1210    4.0788   -0.7809 C   0  0  0  0  0  0  0  0  0  0  0  0
   -2.6058    2.7707   -0.3046 C   0  0  0  0  0  0  0  0  0  0  0  0
   -3.4144   -3.4160    0.4419 C   0  0  0  0  0  0  0  0  0  0  0  0
   -4.7062   -3.7122    0.0776 C   0  0  0  0  0  0  0  0  0  0  0  0
   -7.8986   -2.6148   -2.7395 H   0  0  0  0  0  0  0  0  0  0  0  0
   -5.3976   -0.9352   -1.6825 H   0  0  0  0  0  0  0  0  0  0  0  0
   -3.0824   -0.4449   -1.0258 H   0  0  0  0  0  0  0  0  0  0  0  0
   -0.9398   -2.8987    0.8641 H   0  0  0  0  0  0  0  0  0  0  0  0
    3.1568    1.3296    1.7042 H   0  0  0  0  0  0  0  0  0  0  0  0
    2.5467    0.0089    2.7703 H   0  0  0  0  0  0  0  0  0  0  0  0
    2.8909   -2.4183   -0.1316 H   0  0  0  0  0  0  0  0  0  0  0  0
    3.2869   -2.7656    1.5507 H   0  0  0  0  0  0  0  0  0  0  0  0
    1.2366   -2.3643    2.3820 H   0  0  0  0  0  0  0  0  0  0  0  0
    0.8886   -2.8905    0.7127 H   0  0  0  0  0  0  0  0  0  0  0  0
    7.7383   -1.5260    1.7661 H   0  0  0  0  0  0  0  0  0  0  0  0
    8.4703   -0.4671   -0.3245 H   0  0  0  0  0  0  0  0  0  0  0  0
    6.7610    0.5165   -1.8170 H   0  0  0  0  0  0  0  0  0  0  0  0
   -0.7535    4.4630    1.2946 H   0  0  0  0  0  0  0  0  0  0  0  0
    0.5910    3.8877    0.1661 H   0  0  0  0  0  0  0  0  0  0  0  0
   -1.0213    4.4630   -1.6983 H   0  0  0  0  0  0  0  0  0  0  0  0
   -0.5107    5.9420   -0.7391 H   0  0  0  0  0  0  0  0  0  0  0  0
   -4.1693    4.1921   -0.3774 H   0  0  0  0  0  0  0  0  0  0  0  0
   -3.2489    4.1102   -1.8925 H   0  0  0  0  0  0  0  0  0  0  0  0
   -3.2289    2.2920    0.4734 H   0  0  0  0  0  0  0  0  0  0  0  0
   -2.6170    2.0630   -1.1853 H   0  0  0  0  0  0  0  0  0  0  0  0
   -2.8894   -4.1343    1.0378 H   0  0  0  0  0  0  0  0  0  0  0  0
   -5.2011   -4.6296    0.3666 H   0  0  0  0  0  0  0  0  0  0  0  0
  1  2  1  0
  2  3  2  0
  2  4  1  0
  4  5  2  0
  5  6  1  0
  6  7  2  0
  7  8  1  0
  8  9  1  0
  9 10  2  0
 10 11  1  0
 11 12  2  0
 12 13  1  0
 13 14  1  0
 14 15  1  0
 15 16  1  0
 16 17  1  0
 17 18  1  0
 15 19  1  0
 19 20  2  0
 20 21  1  0
 21 22  2  0
 22 23  1  0
 23 24  2  0
 24 25  1  0
 25 26  1  0
 25 27  1  0
 25 28  1  0
 11 29  1  0
 29 30  1  0
 30 31  1  0
 31 32  1  0
 32 33  1  0
 33 34  1  0
  7 35  1  0
 35 36  2  0
 36  4  1  0
 18  9  1  0
 24 19  1  0
 34 29  1  0
 18 13  2  0
  1 37  1  0
  5 38  1  0
  6 39  1  0
  8 40  1  0
 14 41  1  0
 14 42  1  0
 16 43  1  0
 16 44  1  0
 17 45  1  0
 17 46  1  0
 21 47  1  0
 22 48  1  0
 23 49  1  0
 30 50  1  0
 30 51  1  0
 31 52  1  0
 31 53  1  0
 33 54  1  0
 33 55  1  0
 34 56  1  0
 34 57  1  0
 35 58  1  0
 36 59  1  0
M  END
$$$$
[H]O[C@@]1([H])OC([H])(C([H])([H])N2C([H])=C=C([H])N=C2c2c([H])nc([H])c([H])c2[H])C([H])([H])[C@]([H])(O[H])[C@]1([H])O[H]
     RDKit          3D

 39 41  0  0  0  0  0  0  0  0999 V2000
   -2.0540   -0.9636    0.0790 C   0  0  0  0  0  0  0  0  0  0  0  0
   -1.0091    0.0834    0.1585 C   0  0  0  0  0  0  0  0  0  0  0  0
    0.0892   -0.1504    1.1681 C   0  0  0  0  0  0  0  0  0  0  0  0
    0.8754   -1.3060    1.0048 N   0  0  0  0  0  0  0  0  0  0  0  0
    0.3101   -2.6276    1.2170 C   0  0  0  0  0  0  0  0  0  0  0  0
    0.9868   -3.6586    0.8438 C   0  0  0  0  0  0  0  0  0  0  0  0
    2.2523   -3.5920    0.6588 C   0  0  0  0  0  0  0  0  0  0  0  0
    2.8842   -2.3454    0.4344 N   0  0  0  0  0  0  0  0  0  0  0  0
    2.2162   -1.2222    0.6019 C   0  0  0  0  0  0  0  0  0  0  0  0
    2.9766   -0.0162    0.3257 C   0  0  0  0  0  0  0  0  0  0  0  0
    3.5402    0.0714   -0.9545 C   0  0  0  0  0  0  0  0  0  0  0  0
    4.3036    1.1639   -1.2558 C   0  0  0  0  0  0  0  0  0  0  0  0
    4.5316    2.1777   -0.3347 C   0  0  0  0  0  0  0  0  0  0  0  0
    3.9634    2.0320    0.8722 N   0  0  0  0  0  0  0  0  0  0  0  0
    3.2158    0.9880    1.2058 C   0  0  0  0  0  0  0  0  0  0  0  0
   -1.6042    1.2718    0.5827 O   0  0  0  0  0  0  0  0  0  0  0  0
   -2.5436    1.7904   -0.2614 C   0  0  2  0  0  0  0  0  0  0  0  0
   -2.9642    3.0109    0.2870 O   0  0  0  0  0  0  0  0  0  0  0  0
   -3.7049    0.7867   -0.3053 C   0  0  1  0  0  0  0  0  0  0  0  0
   -4.7766    1.2776   -1.0366 O   0  0  0  0  0  0  0  0  0  0  0  0
   -3.1044   -0.4558   -0.9255 C   0  0  1  0  0  0  0  0  0  0  0  0
   -2.4545   -0.0767   -2.0894 O   0  0  0  0  0  0  0  0  0  0  0  0
   -1.7100   -1.9316   -0.3357 H   0  0  0  0  0  0  0  0  0  0  0  0
   -2.5983   -1.1601    1.0015 H   0  0  0  0  0  0  0  0  0  0  0  0
   -0.6021    0.2962   -0.8507 H   0  0  0  0  0  0  0  0  0  0  0  0
    0.6989    0.7608    1.1446 H   0  0  0  0  0  0  0  0  0  0  0  0
   -0.4160   -0.1539    2.1653 H   0  0  0  0  0  0  0  0  0  0  0  0
   -0.6587   -2.6293    1.6854 H   0  0  0  0  0  0  0  0  0  0  0  0
    2.9154   -4.4688    0.6604 H   0  0  0  0  0  0  0  0  0  0  0  0
    3.3572   -0.7351   -1.6834 H   0  0  0  0  0  0  0  0  0  0  0  0
    4.7512    1.2404   -2.2595 H   0  0  0  0  0  0  0  0  0  0  0  0
    5.1386    2.9924   -0.6541 H   0  0  0  0  0  0  0  0  0  0  0  0
    2.7988    0.9354    2.1962 H   0  0  0  0  0  0  0  0  0  0  0  0
   -2.1021    1.9140   -1.2597 H   0  0  0  0  0  0  0  0  0  0  0  0
   -3.3157    3.5841   -0.4402 H   0  0  0  0  0  0  0  0  0  0  0  0
   -3.9666    0.5289    0.7409 H   0  0  0  0  0  0  0  0  0  0  0  0
   -5.2541    1.9268   -0.4327 H   0  0  0  0  0  0  0  0  0  0  0  0
   -3.8519   -1.2452   -1.1388 H   0  0  0  0  0  0  0  0  0  0  0  0
   -3.1147   -0.0940   -2.8416 H   0  0  0  0  0  0  0  0  0  0  0  0
  1  2  1  0
  2  3  1  0
  3  4  1  0
  4  5  1  0
  5  6  2  0
  6  7  2  0
  7  8  1  0
  8  9  2  0
  9 10  1  0
 10 11  2  0
 11 12  1  0
 12 13  2  0
 13 14  1  0
 14 15  2  0
  2 16  1  0
 16 17  1  0
 17 18  1  0
 17 19  1  0
 19 20  1  0
 19 21  1  0
 21 22  1  0
 21  1  1  0
  9  4  1  0
 15 10  1  0
  1 23  1  0
  1 24  1  0
  2 25  1  0
  3 26  1  0
  3 27  1  0
  5 28  1  0
  7 29  1  0
 11 30  1  0
 12 31  1  0
 13 32  1  0
 15 33  1  0
 17 34  1  6
 18 35  1  0
 19 36  1  1
 20 37  1  0
 21 38  1  6
 22 39  1  0
M  END
$$$$
[H]c1c([H])c([H])c(C(=O)N([H])[C@@]2([H])C([H])([H])N3C([H])([H])C([H])([H])C2([H])C([H])([H])C3([H])[H])c([H])c1[H]
     RDKit          3D

 35 37  0  0  0  0  0  0  0  0999 V2000
    0.9343   -2.1124   -0.7937 O   0  0  0  0  0  0  0  0  0  0  0  0
    1.2933   -1.0431   -0.2655 C   0  0  0  0  0  0  0  0  0  0  0  0
    0.3144   -0.1294    0.1925 N   0  0  0  0  0  0  0  0  0  0  0  0
   -1.0790   -0.4408    0.0454 C   0  0  1  0  0  0  0  0  0  0  0  0
   -1.8629   -0.3449    1.3426 C   0  0  0  0  0  0  0  0  0  0  0  0
   -3.2251    0.1354    1.0803 N   0  0  0  0  0  0  0  0  0  0  0  0
   -3.7692   -0.5177   -0.1160 C   0  0  0  0  0  0  0  0  0  0  0  0
   -3.0296    0.0202   -1.3072 C   0  0  0  0  0  0  0  0  0  0  0  0
   -1.6886    0.6247   -0.8662 C   0  0  0  0  0  0  0  0  0  0  0  0
   -1.9311    1.8353    0.0188 C   0  0  0  0  0  0  0  0  0  0  0  0
   -3.2166    1.5656    0.7738 C   0  0  0  0  0  0  0  0  0  0  0  0
    2.7266   -0.7826   -0.1437 C   0  0  0  0  0  0  0  0  0  0  0  0
    3.6558   -1.6897   -0.6004 C   0  0  0  0  0  0  0  0  0  0  0  0
    5.0148   -1.4478   -0.4874 C   0  0  0  0  0  0  0  0  0  0  0  0
    5.4913   -0.2872    0.0878 C   0  0  0  0  0  0  0  0  0  0  0  0
    4.5775    0.6277    0.5483 C   0  0  0  0  0  0  0  0  0  0  0  0
    3.2263    0.3739    0.4294 C   0  0  0  0  0  0  0  0  0  0  0  0
    0.5568    0.7829    0.6438 H   0  0  0  0  0  0  0  0  0  0  0  0
   -1.2435   -1.4281   -0.4387 H   0  0  0  0  0  0  0  0  0  0  0  0
   -1.9809   -1.3520    1.7876 H   0  0  0  0  0  0  0  0  0  0  0  0
   -1.4176    0.3474    2.0673 H   0  0  0  0  0  0  0  0  0  0  0  0
   -4.8465   -0.2058   -0.1460 H   0  0  0  0  0  0  0  0  0  0  0  0
   -3.7338   -1.6190   -0.0286 H   0  0  0  0  0  0  0  0  0  0  0  0
   -2.7357   -0.8732   -1.9334 H   0  0  0  0  0  0  0  0  0  0  0  0
   -3.6032    0.7036   -1.9329 H   0  0  0  0  0  0  0  0  0  0  0  0
   -1.0752    0.8373   -1.7411 H   0  0  0  0  0  0  0  0  0  0  0  0
   -1.9525    2.7773   -0.5444 H   0  0  0  0  0  0  0  0  0  0  0  0
   -1.1299    1.9042    0.7826 H   0  0  0  0  0  0  0  0  0  0  0  0
   -3.3060    2.1791    1.6878 H   0  0  0  0  0  0  0  0  0  0  0  0
   -4.0516    1.8117    0.0993 H   0  0  0  0  0  0  0  0  0  0  0  0
    3.2980   -2.6103   -1.0567 H   0  0  0  0  0  0  0  0  0  0  0  0
    5.7171   -2.1894   -0.8605 H   0  0  0  0  0  0  0  0  0  0  0  0
    6.5562   -0.1236    0.1634 H   0  0  0  0  0  0  0  0  0  0  0  0
    4.9586    1.5431    1.0020 H   0  0  0  0  0  0  0  0  0  0  0  0
    2.5575    1.1277    0.8083 H   0  0  0  0  0  0  0  0  0  0  0  0
  1  2  2  0
  2  3  1  0
  3  4  1  0
  4  5  1  0
  5  6  1  0
  6  7  1  0
  7  8  1  0
  8  9  1  0
  9 10  1  0
 10 11  1  0
  2 12  1  0
 12 13  2  0
 13 14  1  0
 14 15  2  0
 15 16  1  0
 16 17  2  0
  9  4  1  0
 17 12  1  0
 11  6  1  0
  3 18  1  0
  4 19  1  6
  5 20  1  0
  5 21  1  0
  7 22  1  0
  7 23  1  0
  8 24  1  0
  8 25  1  0
  9 26  1  0
 10 27  1  0
 10 28  1  0
 11 29  1  0
 11 30  1  0
 13 31  1  0
 14 32  1  0
 15 33  1  0
 16 34  1  0
 17 35  1  0
M  END
$$$$
[H]C([H])=C([H])C(=O)N1C([H])([H])C([H])(OC([H])([H])C([H])([H])n2c(=O)c(-c3c(Cl)c(OC([H])([H])[H])c([H])c(OC([H])([H])[H])c3Cl)c([H])c3c([H])nc(N([H])C([H])([H])C([H])([H])C([H])([H])N4C([H])([H])C([H])([H])C([H])([H])C([H])([H])C4([H])[H])nc32)C1([H])[H]
     RDKit          3D

 82 86  0  0  0  0  0  0  0  0999 V2000
   -4.9284   -8.3705   -0.3571 C   0  0  0  0  0  0  0  0  0  0  0  0
   -3.9376   -7.4003   -0.6331 O   0  0  0  0  0  0  0  0  0  0  0  0
   -4.1038   -6.0992   -0.1805 C   0  0  0  0  0  0  0  0  0  0  0  0
   -5.2389   -5.7672    0.5358 C   0  0  0  0  0  0  0  0  0  0  0  0
   -5.4079   -4.4757    0.9872 C   0  0  0  0  0  0  0  0  0  0  0  0
   -6.5425   -4.1367    1.7052 O   0  0  0  0  0  0  0  0  0  0  0  0
   -7.5556   -5.0783    2.0004 C   0  0  0  0  0  0  0  0  0  0  0  0
   -4.4316   -3.5442    0.7089 C   0  0  0  0  0  0  0  0  0  0  0  0
   -4.6181   -1.8944    1.2695 Cl  0  0  0  0  0  0  0  0  0  0  0  0
   -3.2901   -3.8626   -0.0072 C   0  0  0  0  0  0  0  0  0  0  0  0
   -3.1216   -5.1523   -0.4577 C   0  0  0  0  0  0  0  0  0  0  0  0
   -1.6984   -5.6329   -1.3740 Cl  0  0  0  0  0  0  0  0  0  0  0  0
   -2.2942   -2.8335   -0.2685 C   0  0  0  0  0  0  0  0  0  0  0  0
   -1.2580   -2.6206    0.6363 C   0  0  0  0  0  0  0  0  0  0  0  0
   -0.3170   -1.6371    0.3903 C   0  0  0  0  0  0  0  0  0  0  0  0
    0.7200   -1.4018    1.2574 C   0  0  0  0  0  0  0  0  0  0  0  0
    1.6205   -0.4401    0.9868 N   0  0  0  0  0  0  0  0  0  0  0  0
    1.5745    0.3323   -0.1090 C   0  0  0  0  0  0  0  0  0  0  0  0
    2.5281    1.3506   -0.4027 N   0  0  0  0  0  0  0  0  0  0  0  0
    3.6580    1.6935    0.3909 C   0  0  0  0  0  0  0  0  0  0  0  0
    4.6409    0.5411    0.3910 C   0  0  0  0  0  0  0  0  0  0  0  0
    5.8353    0.9170    1.2270 C   0  0  0  0  0  0  0  0  0  0  0  0
    6.4870    2.0739    0.7308 N   0  0  0  0  0  0  0  0  0  0  0  0
    7.1623    1.9414   -0.5104 C   0  0  0  0  0  0  0  0  0  0  0  0
    8.5753    1.4153   -0.3425 C   0  0  0  0  0  0  0  0  0  0  0  0
    9.3330    2.0903    0.7526 C   0  0  0  0  0  0  0  0  0  0  0  0
    8.5275    2.1641    2.0261 C   0  0  0  0  0  0  0  0  0  0  0  0
    7.2040    2.8161    1.7229 C   0  0  0  0  0  0  0  0  0  0  0  0
    0.5413    0.0881   -0.9599 N   0  0  0  0  0  0  0  0  0  0  0  0
   -0.3844   -0.8566   -0.7415 C   0  0  0  0  0  0  0  0  0  0  0  0
   -1.4013   -1.0909   -1.5954 N   0  0  0  0  0  0  0  0  0  0  0  0
   -1.5020   -0.2853   -2.7784 C   0  0  0  0  0  0  0  0  0  0  0  0
   -2.3840    0.8978   -2.4884 C   0  0  0  0  0  0  0  0  0  0  0  0
   -1.9205    1.7154   -1.4650 O   0  0  0  0  0  0  0  0  0  0  0  0
   -2.8312    2.7333   -1.3236 C   0  0  0  0  0  0  0  0  0  0  0  0
   -3.3107    3.0203    0.0919 C   0  0  0  0  0  0  0  0  0  0  0  0
   -3.3431    4.4112   -0.2934 N   0  0  0  0  0  0  0  0  0  0  0  0
   -2.2259    4.1353   -1.1665 C   0  0  0  0  0  0  0  0  0  0  0  0
   -4.1213    5.5382    0.0351 C   0  0  0  0  0  0  0  0  0  0  0  0
   -5.0659    5.4071    0.8824 O   0  0  0  0  0  0  0  0  0  0  0  0
   -3.9050    6.8480   -0.5423 C   0  0  0  0  0  0  0  0  0  0  0  0
   -4.6469    7.8810   -0.2190 C   0  0  0  0  0  0  0  0  0  0  0  0
   -2.3308   -2.0351   -1.3899 C   0  0  0  0  0  0  0  0  0  0  0  0
   -3.2594   -2.1960   -2.2419 O   0  0  0  0  0  0  0  0  0  0  0  0
   -4.5399   -9.3956   -0.6047 H   0  0  0  0  0  0  0  0  0  0  0  0
   -5.1820   -8.4195    0.7382 H   0  0  0  0  0  0  0  0  0  0  0  0
   -5.8647   -8.1950   -0.8924 H   0  0  0  0  0  0  0  0  0  0  0  0
   -5.9869   -6.5478    0.7304 H   0  0  0  0  0  0  0  0  0  0  0  0
   -7.8601   -5.6787    1.1197 H   0  0  0  0  0  0  0  0  0  0  0  0
   -8.4141   -4.5439    2.4339 H   0  0  0  0  0  0  0  0  0  0  0  0
   -7.0896   -5.7929    2.7391 H   0  0  0  0  0  0  0  0  0  0  0  0
   -1.1611   -3.1957    1.5252 H   0  0  0  0  0  0  0  0  0  0  0  0
    0.7830   -2.0093    2.1500 H   0  0  0  0  0  0  0  0  0  0  0  0
    2.3935    1.9155   -1.2976 H   0  0  0  0  0  0  0  0  0  0  0  0
    4.1906    2.5797    0.0121 H   0  0  0  0  0  0  0  0  0  0  0  0
    3.3523    1.9498    1.4350 H   0  0  0  0  0  0  0  0  0  0  0  0
    4.9108    0.3706   -0.6634 H   0  0  0  0  0  0  0  0  0  0  0  0
    4.1464   -0.3856    0.8152 H   0  0  0  0  0  0  0  0  0  0  0  0
    6.5650    0.0608    1.2771 H   0  0  0  0  0  0  0  0  0  0  0  0
    5.4617    1.1380    2.2623 H   0  0  0  0  0  0  0  0  0  0  0  0
    6.6444    1.2085   -1.1523 H   0  0  0  0  0  0  0  0  0  0  0  0
    7.1535    2.9008   -1.0707 H   0  0  0  0  0  0  0  0  0  0  0  0
    9.1237    1.6186   -1.3049 H   0  0  0  0  0  0  0  0  0  0  0  0
    8.5683    0.3259   -0.2280 H   0  0  0  0  0  0  0  0  0  0  0  0
   10.2274    1.4582    0.9731 H   0  0  0  0  0  0  0  0  0  0  0  0
    9.6672    3.0785    0.4149 H   0  0  0  0  0  0  0  0  0  0  0  0
    8.3547    1.1338    2.4005 H   0  0  0  0  0  0  0  0  0  0  0  0
    9.0853    2.7875    2.7566 H   0  0  0  0  0  0  0  0  0  0  0  0
    7.3667    3.8496    1.3798 H   0  0  0  0  0  0  0  0  0  0  0  0
    6.5817    2.8669    2.6404 H   0  0  0  0  0  0  0  0  0  0  0  0
   -1.9921   -0.8559   -3.5937 H   0  0  0  0  0  0  0  0  0  0  0  0
   -0.5072    0.1067   -3.0796 H   0  0  0  0  0  0  0  0  0  0  0  0
   -2.5752    1.5086   -3.4147 H   0  0  0  0  0  0  0  0  0  0  0  0
   -3.4121    0.5195   -2.2130 H   0  0  0  0  0  0  0  0  0  0  0  0
   -3.7029    2.7125   -2.0077 H   0  0  0  0  0  0  0  0  0  0  0  0
   -2.5442    2.8730    0.8747 H   0  0  0  0  0  0  0  0  0  0  0  0
   -4.2703    2.5680    0.3739 H   0  0  0  0  0  0  0  0  0  0  0  0
   -2.1928    4.6558   -2.1213 H   0  0  0  0  0  0  0  0  0  0  0  0
   -1.2791    4.0756   -0.5853 H   0  0  0  0  0  0  0  0  0  0  0  0
   -3.1119    6.9747   -1.2572 H   0  0  0  0  0  0  0  0  0  0  0  0
   -5.4440    7.7411    0.5038 H   0  0  0  0  0  0  0  0  0  0  0  0
   -4.4772    8.8414   -0.6523 H   0  0  0  0  0  0  0  0  0  0  0  0
  1  2  1  0
  2  3  1  0
  3  4  2  0
  4  5  1  0
  5  6  1  0
  6  7  1  0
  5  8  2  0
  8  9  1  0
  8 10  1  0
 10 11  2  0
 11 12  1  0
 10 13  1  0
 13 14  2  0
 14 15  1  0
 15 16  2  0
 16 17  1  0
 17 18  2  0
 18 19  1  0
 19 20  1  0
 20 21  1  0
 21 22  1  0
 22 23  1  0
 23 24  1  0
 24 25  1  0
 25 26  1  0
 26 27  1  0
 27 28  1  0
 18 29  1  0
 29 30  2  0
 30 31  1  0
 31 32  1  0
 32 33  1  0
 33 34  1  0
 34 35  1  0
 35 36  1  0
 36 37  1  0
 37 38  1  0
 37 39  1  0
 39 40  2  0
 39 41  1  0
 41 42  2  3
 31 43  1  0
 43 44  2  0
 11  3  1  0
 43 13  1  0
 30 15  1  0
 38 35  1  0
 28 23  1  0
  1 45  1  0
  1 46  1  0
  1 47  1  0
  4 48  1  0
  7 49  1  0
  7 50  1  0
  7 51  1  0
 14 52  1  0
 16 53  1  0
 19 54  1  0
 20 55  1  0
 20 56  1  0
 21 57  1  0
 21 58  1  0
 22 59  1  0
 22 60  1  0
 24 61  1  0
 24 62  1  0
 25 63  1  0
 25 64  1  0
 26 65  1  0
 26 66  1  0
 27 67  1  0
 27 68  1  0
 28 69  1  0
 28 70  1  0
 32 71  1  0
 32 72  1  0
 33 73  1  0
 33 74  1  0
 35 75  1  0
 36 76  1  0
 36 77  1  0
 38 78  1  0
 38 79  1  0
 41 80  1  0
 42 81  1  0
 42 82  1  0
M  END
$$$$
[H]c1c([H])c(S(=O)(=O)C([H])([H])[H])c([H])c([H])c1-n1c([H])nc2c(N([H])C3([H])C([H])([H])C([H])([H])[N+](C([H])([H])[H])(C([H])([H])C4([H])C([H])([H])C([H])([H])C([H])([H])C4([H])[H])C([H])([H])C3([H])[H])nc(N([H])[H])nc21
     RDKit          3D

 68 72  0  0  0  0  0  0  0  0999 V2000
   -4.6362    0.4419    1.8426 C   0  0  0  0  0  0  0  0  0  0  0  0
   -4.0690    0.0424    0.5708 N   0  0  0  0  0  0  0  0  0  0  0  0
   -4.9193   -0.1393   -0.5095 C   0  0  0  0  0  0  0  0  0  0  0  0
   -6.3641    0.0579   -0.5467 C   0  0  0  0  0  0  0  0  0  0  0  0
   -7.2344   -0.7330    0.3489 C   0  0  0  0  0  0  0  0  0  0  0  0
   -8.1446    0.2579    1.0749 C   0  0  0  0  0  0  0  0  0  0  0  0
   -8.1916    1.4829    0.2293 C   0  0  0  0  0  0  0  0  0  0  0  0
   -6.8802    1.4597   -0.5176 C   0  0  0  0  0  0  0  0  0  0  0  0
   -3.4453   -1.2419    0.8625 C   0  0  0  0  0  0  0  0  0  0  0  0
   -1.9551   -1.2696    0.6961 C   0  0  0  0  0  0  0  0  0  0  0  0
   -1.6428   -0.8066   -0.6911 C   0  0  0  0  0  0  0  0  0  0  0  0
   -2.0870    0.6343   -0.7952 C   0  0  0  0  0  0  0  0  0  0  0  0
   -2.9665    0.9703    0.3583 C   0  0  0  0  0  0  0  0  0  0  0  0
   -0.3314   -1.0680   -1.1610 N   0  0  0  0  0  0  0  0  0  0  0  0
    0.8002   -0.5245   -0.5090 C   0  0  0  0  0  0  0  0  0  0  0  0
    0.7246    0.2640    0.5735 N   0  0  0  0  0  0  0  0  0  0  0  0
    1.7928    0.7870    1.1988 C   0  0  0  0  0  0  0  0  0  0  0  0
    1.5668    1.6048    2.3340 N   0  0  0  0  0  0  0  0  0  0  0  0
    3.0270    0.5179    0.7292 N   0  0  0  0  0  0  0  0  0  0  0  0
    3.1962   -0.2633   -0.3511 C   0  0  0  0  0  0  0  0  0  0  0  0
    4.3115   -0.6657   -0.9930 N   0  0  0  0  0  0  0  0  0  0  0  0
    3.8886   -1.4373   -2.0111 C   0  0  0  0  0  0  0  0  0  0  0  0
    2.5367   -1.5102   -1.9985 N   0  0  0  0  0  0  0  0  0  0  0  0
    2.0937   -0.7781   -0.9625 C   0  0  0  0  0  0  0  0  0  0  0  0
    5.6762   -0.3665   -0.6978 C   0  0  0  0  0  0  0  0  0  0  0  0
    6.4910    0.2906   -1.5964 C   0  0  0  0  0  0  0  0  0  0  0  0
    7.8111    0.5803   -1.3114 C   0  0  0  0  0  0  0  0  0  0  0  0
    8.3717    0.2195   -0.1033 C   0  0  0  0  0  0  0  0  0  0  0  0
    7.5580   -0.4380    0.7970 C   0  0  0  0  0  0  0  0  0  0  0  0
    6.2386   -0.7264    0.5095 C   0  0  0  0  0  0  0  0  0  0  0  0
   10.0518    0.5951    0.2439 S   0  0  0  0  0  0  0  0  0  0  0  0
   11.1152   -0.7318   -0.2821 C   0  0  0  0  0  0  0  0  0  0  0  0
   10.4941    1.8421   -0.4652 O   0  0  0  0  0  0  0  0  0  0  0  0
   10.2703    0.7803    1.7249 O   0  0  0  0  0  0  0  0  0  0  0  0
   -3.7550    0.7251    2.4962 H   0  0  0  0  0  0  0  0  0  0  0  0
   -5.2770    1.3096    1.8312 H   0  0  0  0  0  0  0  0  0  0  0  0
   -5.0526   -0.4510    2.3902 H   0  0  0  0  0  0  0  0  0  0  0  0
   -4.5162    0.5346   -1.3386 H   0  0  0  0  0  0  0  0  0  0  0  0
   -4.7256   -1.1544   -0.9675 H   0  0  0  0  0  0  0  0  0  0  0  0
   -6.6415   -0.2945   -1.6035 H   0  0  0  0  0  0  0  0  0  0  0  0
   -6.7575   -1.4114    1.0502 H   0  0  0  0  0  0  0  0  0  0  0  0
   -7.9676   -1.4061   -0.1997 H   0  0  0  0  0  0  0  0  0  0  0  0
   -7.7618    0.4264    2.1031 H   0  0  0  0  0  0  0  0  0  0  0  0
   -9.1708   -0.1417    1.2096 H   0  0  0  0  0  0  0  0  0  0  0  0
   -9.0753    1.4566   -0.4412 H   0  0  0  0  0  0  0  0  0  0  0  0
   -8.2831    2.3820    0.8823 H   0  0  0  0  0  0  0  0  0  0  0  0
   -7.1539    1.8558   -1.5483 H   0  0  0  0  0  0  0  0  0  0  0  0
   -6.1608    2.2221   -0.1679 H   0  0  0  0  0  0  0  0  0  0  0  0
   -3.6624   -1.6238    1.8768 H   0  0  0  0  0  0  0  0  0  0  0  0
   -3.8410   -2.0559    0.1817 H   0  0  0  0  0  0  0  0  0  0  0  0
   -1.6856   -2.3698    0.7210 H   0  0  0  0  0  0  0  0  0  0  0  0
   -1.3948   -0.8261    1.5083 H   0  0  0  0  0  0  0  0  0  0  0  0
   -2.3681   -1.3688   -1.3603 H   0  0  0  0  0  0  0  0  0  0  0  0
   -1.2169    1.3102   -0.7632 H   0  0  0  0  0  0  0  0  0  0  0  0
   -2.5620    0.8333   -1.7950 H   0  0  0  0  0  0  0  0  0  0  0  0
   -2.3535    0.9431    1.2830 H   0  0  0  0  0  0  0  0  0  0  0  0
   -3.3116    2.0209    0.2886 H   0  0  0  0  0  0  0  0  0  0  0  0
   -0.1815   -1.6729   -2.0058 H   0  0  0  0  0  0  0  0  0  0  0  0
    0.7127    1.5045    2.9181 H   0  0  0  0  0  0  0  0  0  0  0  0
    2.3082    2.3208    2.5571 H   0  0  0  0  0  0  0  0  0  0  0  0
    4.5161   -1.9277   -2.7325 H   0  0  0  0  0  0  0  0  0  0  0  0
    6.0657    0.5796   -2.5472 H   0  0  0  0  0  0  0  0  0  0  0  0
    8.4582    1.0974   -2.0145 H   0  0  0  0  0  0  0  0  0  0  0  0
    7.9803   -0.7317    1.7563 H   0  0  0  0  0  0  0  0  0  0  0  0
    5.5900   -1.2425    1.2092 H   0  0  0  0  0  0  0  0  0  0  0  0
   11.0065   -1.6294    0.3460 H   0  0  0  0  0  0  0  0  0  0  0  0
   12.1568   -0.3688   -0.1749 H   0  0  0  0  0  0  0  0  0  0  0  0
   10.9323   -0.9742   -1.3414 H   0  0  0  0  0  0  0  0  0  0  0  0
  1  2  1  0
  2  3  1  0
  3  4  1  0
  4  5  1  0
  5  6  1  0
  6  7  1  0
  7  8  1  0
  2  9  1  0
  9 10  1  0
 10 11  1  0
 11 12  1  0
 12 13  1  0
 11 14  1  0
 14 15  1  0
 15 16  2  0
 16 17  1  0
 17 18  1  0
 17 19  2  0
 19 20  1  0
 20 21  1  0
 21 22  1  0
 22 23  2  0
 23 24  1  0
 21 25  1  0
 25 26  2  0
 26 27  1  0
 27 28  2  0
 28 29  1  0
 29 30  2  0
 28 31  1  0
 31 32  1  0
 31 33  2  0
 31 34  2  0
 13  2  1  0
 24 15  1  0
 30 25  1  0
  8  4  1  0
 24 20  2  0
  1 35  1  0
  1 36  1  0
  1 37  1  0
  3 38  1  0
  3 39  1  0
  4 40  1  0
  5 41  1  0
  5 42  1  0
  6 43  1  0
  6 44  1  0
  7 45  1  0
  7 46  1  0
  8 47  1  0
  8 48  1  0
  9 49  1  0
  9 50  1  0
 10 51  1  0
 10 52  1  0
 11 53  1  0
 12 54  1  0
 12 55  1  0
 13 56  1  0
 13 57  1  0
 14 58  1  0
 18 59  1  0
 18 60  1  0
 22 61  1  0
 26 62  1  0
 27 63  1  0
 29 64  1  0
 30 65  1  0
 32 66  1  0
 32 67  1  0
 32 68  1  0
M  CHG  1   2   1
M  END
$$$$
[H]Oc1c([H])c([H])c(OC([H])(C(=O)N2C([H])([H])C([H])([H])C([H])(N(C([H])([H])[H])C([H])([H])[H])C([H])([H])C2([H])[H])C([H])([H])N(C([H])([H])[H])C([H])([H])[H])c(N([H])c2nc(-c3c([H])c([H])c([H])c(N([H])C(=O)C([H])([H])F)c3[H])c([H])n3c([H])c([H])nc23)c1[H]
     RDKit          3D

 84 88  0  0  0  0  0  0  0  0999 V2000
   -3.4983   -3.6613    3.2963 C   0  0  0  0  0  0  0  0  0  0  0  0
   -3.3065   -2.7036    2.2203 N   0  0  0  0  0  0  0  0  0  0  0  0
   -4.5331   -2.3523    1.6076 C   0  0  0  0  0  0  0  0  0  0  0  0
   -2.4207   -1.6944    2.6325 C   0  0  0  0  0  0  0  0  0  0  0  0
   -2.1244   -0.6139    1.5638 C   0  0  0  0  0  0  0  0  0  0  0  0
   -1.6296   -1.0751    0.4518 O   0  0  0  0  0  0  0  0  0  0  0  0
   -0.7474   -1.4248   -0.4442 C   0  0  0  0  0  0  0  0  0  0  0  0
   -1.1791   -1.9321   -1.6789 C   0  0  0  0  0  0  0  0  0  0  0  0
   -0.3404   -2.3212   -2.6857 C   0  0  0  0  0  0  0  0  0  0  0  0
    1.0129   -2.2188   -2.4993 C   0  0  0  0  0  0  0  0  0  0  0  0
    1.8872   -2.6019   -3.4980 O   0  0  0  0  0  0  0  0  0  0  0  0
    1.4984   -1.7270   -1.2992 C   0  0  0  0  0  0  0  0  0  0  0  0
    0.6423   -1.3304   -0.2719 C   0  0  0  0  0  0  0  0  0  0  0  0
    1.1550   -0.9475    0.9760 N   0  0  0  0  0  0  0  0  0  0  0  0
    2.4625   -0.4521    1.1920 C   0  0  0  0  0  0  0  0  0  0  0  0
    3.3890   -0.1992    0.3024 N   0  0  0  0  0  0  0  0  0  0  0  0
    4.6064    0.3021    0.5463 C   0  0  0  0  0  0  0  0  0  0  0  0
    4.9236    0.5816    1.8565 C   0  0  0  0  0  0  0  0  0  0  0  0
    3.9996    0.3391    2.8252 N   0  0  0  0  0  0  0  0  0  0  0  0
    4.0870    0.5334    4.1695 C   0  0  0  0  0  0  0  0  0  0  0  0
    2.8897    0.1322    4.6977 C   0  0  0  0  0  0  0  0  0  0  0  0
    2.1259   -0.2845    3.6887 N   0  0  0  0  0  0  0  0  0  0  0  0
    2.8078   -0.1580    2.5319 C   0  0  0  0  0  0  0  0  0  0  0  0
    5.5629    0.5466   -0.5104 C   0  0  0  0  0  0  0  0  0  0  0  0
    5.2043    0.2453   -1.8086 C   0  0  0  0  0  0  0  0  0  0  0  0
    6.0605    0.4529   -2.8559 C   0  0  0  0  0  0  0  0  0  0  0  0
    7.3271    0.9841   -2.5902 C   0  0  0  0  0  0  0  0  0  0  0  0
    7.7344    1.2989   -1.3365 C   0  0  0  0  0  0  0  0  0  0  0  0
    8.9874    1.8245   -0.9665 N   0  0  0  0  0  0  0  0  0  0  0  0
   10.1264    1.9111   -1.7810 C   0  0  0  0  0  0  0  0  0  0  0  0
   10.1420    1.5135   -2.9495 O   0  0  0  0  0  0  0  0  0  0  0  0
   11.4146    2.5039   -1.2654 C   0  0  0  0  0  0  0  0  0  0  0  0
   12.3988    2.4975   -2.2082 F   0  0  0  0  0  0  0  0  0  0  0  0
    6.8027    1.0594   -0.3069 C   0  0  0  0  0  0  0  0  0  0  0  0
   -3.2398    0.3618    1.6248 C   0  0  0  0  0  0  0  0  0  0  0  0
   -3.6299    0.7280    2.8245 O   0  0  0  0  0  0  0  0  0  0  0  0
   -3.9576    0.9706    0.6040 N   0  0  0  0  0  0  0  0  0  0  0  0
   -3.7169    0.7179   -0.7884 C   0  0  0  0  0  0  0  0  0  0  0  0
   -4.6986    1.5211   -1.6551 C   0  0  0  0  0  0  0  0  0  0  0  0
   -6.0754    1.1322   -1.2020 C   0  0  0  0  0  0  0  0  0  0  0  0
   -6.3190    1.5806    0.1927 C   0  0  0  0  0  0  0  0  0  0  0  0
   -5.0309    1.9459    0.8617 C   0  0  0  0  0  0  0  0  0  0  0  0
   -7.1018    1.5714   -2.1317 N   0  0  0  0  0  0  0  0  0  0  0  0
   -8.4336    1.2853   -1.5976 C   0  0  0  0  0  0  0  0  0  0  0  0
   -6.9650    0.6873   -3.3019 C   0  0  0  0  0  0  0  0  0  0  0  0
   -4.2646   -4.3769    2.9654 H   0  0  0  0  0  0  0  0  0  0  0  0
   -3.8246   -3.1155    4.2066 H   0  0  0  0  0  0  0  0  0  0  0  0
   -2.5797   -4.2254    3.5303 H   0  0  0  0  0  0  0  0  0  0  0  0
   -4.4092   -2.0202    0.5664 H   0  0  0  0  0  0  0  0  0  0  0  0
   -5.1467   -3.3061    1.5391 H   0  0  0  0  0  0  0  0  0  0  0  0
   -5.1006   -1.6487    2.2559 H   0  0  0  0  0  0  0  0  0  0  0  0
   -2.8207   -1.2005    3.5519 H   0  0  0  0  0  0  0  0  0  0  0  0
   -1.4654   -2.1681    2.9510 H   0  0  0  0  0  0  0  0  0  0  0  0
   -1.2790   -0.0193    2.1250 H   0  0  0  0  0  0  0  0  0  0  0  0
   -2.2448   -2.0093   -1.8103 H   0  0  0  0  0  0  0  0  0  0  0  0
   -0.7275   -2.7121   -3.6364 H   0  0  0  0  0  0  0  0  0  0  0  0
    2.1934   -1.9112   -4.1995 H   0  0  0  0  0  0  0  0  0  0  0  0
    2.5747   -1.7062   -1.2390 H   0  0  0  0  0  0  0  0  0  0  0  0
    0.5319   -1.0767    1.8181 H   0  0  0  0  0  0  0  0  0  0  0  0
    5.8839    0.9870    2.1341 H   0  0  0  0  0  0  0  0  0  0  0  0
    4.9649    0.9316    4.6570 H   0  0  0  0  0  0  0  0  0  0  0  0
    2.6716    0.1739    5.7567 H   0  0  0  0  0  0  0  0  0  0  0  0
    4.2205   -0.1694   -2.0374 H   0  0  0  0  0  0  0  0  0  0  0  0
    5.7920    0.2206   -3.8805 H   0  0  0  0  0  0  0  0  0  0  0  0
    7.9611    1.1400   -3.4305 H   0  0  0  0  0  0  0  0  0  0  0  0
    9.1263    2.2121    0.0285 H   0  0  0  0  0  0  0  0  0  0  0  0
   11.7595    2.0061   -0.3599 H   0  0  0  0  0  0  0  0  0  0  0  0
   11.1916    3.5714   -1.0122 H   0  0  0  0  0  0  0  0  0  0  0  0
    7.1228    1.3073    0.6893 H   0  0  0  0  0  0  0  0  0  0  0  0
   -3.7925   -0.3617   -1.0438 H   0  0  0  0  0  0  0  0  0  0  0  0
   -2.7005    1.0761   -1.0381 H   0  0  0  0  0  0  0  0  0  0  0  0
   -4.5653    2.6088   -1.5339 H   0  0  0  0  0  0  0  0  0  0  0  0
   -4.5179    1.2302   -2.7293 H   0  0  0  0  0  0  0  0  0  0  0  0
   -6.0778    0.0006   -1.2005 H   0  0  0  0  0  0  0  0  0  0  0  0
   -7.0510    2.4414    0.2299 H   0  0  0  0  0  0  0  0  0  0  0  0
   -6.8042    0.7678    0.7799 H   0  0  0  0  0  0  0  0  0  0  0  0
   -4.6632    2.9080    0.4545 H   0  0  0  0  0  0  0  0  0  0  0  0
   -5.1443    2.1120    1.9549 H   0  0  0  0  0  0  0  0  0  0  0  0
   -9.0940    1.1139   -2.4734 H   0  0  0  0  0  0  0  0  0  0  0  0
   -8.8180    2.1434   -1.0074 H   0  0  0  0  0  0  0  0  0  0  0  0
   -8.4202    0.3402   -1.0120 H   0  0  0  0  0  0  0  0  0  0  0  0
   -6.1306    0.9633   -3.9498 H   0  0  0  0  0  0  0  0  0  0  0  0
   -6.7240   -0.3315   -2.8803 H   0  0  0  0  0  0  0  0  0  0  0  0
   -7.9290    0.5732   -3.8266 H   0  0  0  0  0  0  0  0  0  0  0  0
  1  2  1  0
  2  3  1  0
  2  4  1  0
  4  5  1  0
  5  6  1  0
  6  7  1  0
  7  8  2  0
  8  9  1  0
  9 10  2  0
 10 11  1  0
 10 12  1  0
 12 13  2  0
 13 14  1  0
 14 15  1  0
 15 16  2  0
 16 17  1  0
 17 18  2  0
 18 19  1  0
 19 20  1  0
 20 21  2  0
 21 22  1  0
 22 23  2  0
 17 24  1  0
 24 25  2  0
 25 26  1  0
 26 27  2  0
 27 28  1  0
 28 29  1  0
 29 30  1  0
 30 31  2  0
 30 32  1  0
 32 33  1  0
 28 34  2  0
  5 35  1  0
 35 36  2  0
 35 37  1  0
 37 38  1  0
 38 39  1  0
 39 40  1  0
 40 41  1  0
 41 42  1  0
 40 43  1  0
 43 44  1  0
 43 45  1  0
 13  7  1  0
 23 15  1  0
 34 24  1  0
 42 37  1  0
 23 19  1  0
  1 46  1  0
  1 47  1  0
  1 48  1  0
  3 49  1  0
  3 50  1  0
  3 51  1  0
  4 52  1  0
  4 53  1  0
  5 54  1  0
  8 55  1  0
  9 56  1  0
 11 57  1  0
 12 58  1  0
 14 59  1  0
 18 60  1  0
 20 61  1  0
 21 62  1  0
 25 63  1  0
 26 64  1  0
 27 65  1  0
 29 66  1  0
 32 67  1  0
 32 68  1  0
 34 69  1  0
 38 70  1  0
 38 71  1  0
 39 72  1  0
 39 73  1  0
 40 74  1  0
 41 75  1  0
 41 76  1  0
 42 77  1  0
 42 78  1  0
 44 79  1  0
 44 80  1  0
 44 81  1  0
 45 82  1  0
 45 83  1  0
 45 84  1  0
M  END
$$$$
[H]OP(=O)(OC([H])([H])C([H])([H])[P@]([H])(C(=O)N([H])[H])N([H])[H])C(=O)C([H])([H])C([H])([H])c1c([H])c([H])c(-c2c([H])c([H])c(C([H])([H])C([H])([H])C([H])([H])C([H])([H])C([H])([H])C([H])([H])C([H])([H])C([H])([H])[H])c([H])c2[H])c([H])c1[H]
     RDKit          3D

 74 75  0  0  0  0  0  0  0  0999 V2000
   12.2581   -1.5050    0.8478 C   0  0  0  0  0  0  0  0  0  0  0  0
   11.1298   -0.7684    0.1064 C   0  0  0  0  0  0  0  0  0  0  0  0
   11.2142    0.6867    0.3587 C   0  0  0  0  0  0  0  0  0  0  0  0
   10.2936    1.6203   -0.2727 C   0  0  0  0  0  0  0  0  0  0  0  0
    8.8500    1.6438   -0.0702 C   0  0  0  0  0  0  0  0  0  0  0  0
    8.0168    0.4645   -0.4390 C   0  0  0  0  0  0  0  0  0  0  0  0
    6.5110    0.7965   -0.2092 C   0  0  0  0  0  0  0  0  0  0  0  0
    5.7750   -0.4373   -0.6321 C   0  0  0  0  0  0  0  0  0  0  0  0
    4.3120   -0.3681   -0.4914 C   0  0  0  0  0  0  0  0  0  0  0  0
    3.4936    0.1290   -1.4975 C   0  0  0  0  0  0  0  0  0  0  0  0
    2.1232    0.1616   -1.3490 C   0  0  0  0  0  0  0  0  0  0  0  0
    1.4899   -0.2894   -0.2115 C   0  0  0  0  0  0  0  0  0  0  0  0
    2.2961   -0.7855    0.7961 C   0  0  0  0  0  0  0  0  0  0  0  0
    3.6793   -0.8192    0.6483 C   0  0  0  0  0  0  0  0  0  0  0  0
    0.0326   -0.2407   -0.0858 C   0  0  0  0  0  0  0  0  0  0  0  0
   -0.6695   -1.1847    0.6270 C   0  0  0  0  0  0  0  0  0  0  0  0
   -2.0417   -1.1138    0.7362 C   0  0  0  0  0  0  0  0  0  0  0  0
   -2.7663   -0.0782    0.1262 C   0  0  0  0  0  0  0  0  0  0  0  0
   -4.2261   -0.0800    0.2722 C   0  0  0  0  0  0  0  0  0  0  0  0
   -4.9172   -0.7437   -0.9065 C   0  0  0  0  0  0  0  0  0  0  0  0
   -6.3853   -0.7491   -0.6789 C   0  0  0  0  0  0  0  0  0  0  0  0
   -6.8724   -1.8138   -0.3500 O   0  0  0  0  0  0  0  0  0  0  0  0
   -7.3719    0.6949   -0.8724 P   0  0  0  0  0  0  0  0  0  0  0  0
   -6.4526    2.1162   -0.8131 O   0  0  0  0  0  0  0  0  0  0  0  0
   -7.9953    0.6543   -2.2675 O   0  0  0  0  0  0  0  0  0  0  0  0
   -8.6187    0.8522    0.2309 O   0  0  0  0  0  0  0  0  0  0  0  0
   -8.9649   -0.3044    0.8807 C   0  0  0  0  0  0  0  0  0  0  0  0
  -10.1079   -0.1013    1.8610 C   0  0  0  0  0  0  0  0  0  0  0  0
  -11.6079    0.5067    1.0707 P   0  0  1  0  0  4  0  0  0  0  0  0
  -11.2551    2.0458    0.2728 N   0  0  0  0  0  0  0  0  0  0  0  0
  -12.3011   -0.6710   -0.0553 C   0  0  0  0  0  0  0  0  0  0  0  0
  -11.9363   -2.0423    0.0415 N   0  0  0  0  0  0  0  0  0  0  0  0
  -13.1243   -0.2789   -0.9505 O   0  0  0  0  0  0  0  0  0  0  0  0
   -2.0774    0.8741   -0.5896 C   0  0  0  0  0  0  0  0  0  0  0  0
   -0.6982    0.7658   -0.6759 C   0  0  0  0  0  0  0  0  0  0  0  0
   13.0534   -1.8233    0.1414 H   0  0  0  0  0  0  0  0  0  0  0  0
   11.8486   -2.4370    1.2836 H   0  0  0  0  0  0  0  0  0  0  0  0
   12.6946   -0.9041    1.6464 H   0  0  0  0  0  0  0  0  0  0  0  0
   11.2521   -1.0416   -0.9687 H   0  0  0  0  0  0  0  0  0  0  0  0
   10.1867   -1.1878    0.4753 H   0  0  0  0  0  0  0  0  0  0  0  0
   12.2694    1.0009    0.0545 H   0  0  0  0  0  0  0  0  0  0  0  0
   11.2375    0.8275    1.4861 H   0  0  0  0  0  0  0  0  0  0  0  0
   10.4909    1.5823   -1.4084 H   0  0  0  0  0  0  0  0  0  0  0  0
   10.7102    2.6758   -0.0231 H   0  0  0  0  0  0  0  0  0  0  0  0
    8.5602    1.9224    0.9979 H   0  0  0  0  0  0  0  0  0  0  0  0
    8.4351    2.5346   -0.6625 H   0  0  0  0  0  0  0  0  0  0  0  0
    8.1825    0.0857   -1.4492 H   0  0  0  0  0  0  0  0  0  0  0  0
    8.2402   -0.3789    0.2757 H   0  0  0  0  0  0  0  0  0  0  0  0
    6.2855    1.6687   -0.8215 H   0  0  0  0  0  0  0  0  0  0  0  0
    6.4342    1.0281    0.8653 H   0  0  0  0  0  0  0  0  0  0  0  0
    6.0762   -0.6031   -1.7126 H   0  0  0  0  0  0  0  0  0  0  0  0
    6.1465   -1.3288   -0.0999 H   0  0  0  0  0  0  0  0  0  0  0  0
    3.9953    0.4870   -2.4114 H   0  0  0  0  0  0  0  0  0  0  0  0
    1.4903    0.5534   -2.1461 H   0  0  0  0  0  0  0  0  0  0  0  0
    1.8105   -1.1437    1.6981 H   0  0  0  0  0  0  0  0  0  0  0  0
    4.2924   -1.2063    1.4406 H   0  0  0  0  0  0  0  0  0  0  0  0
   -0.0931   -1.9779    1.0938 H   0  0  0  0  0  0  0  0  0  0  0  0
   -2.5793   -1.8563    1.2940 H   0  0  0  0  0  0  0  0  0  0  0  0
   -4.4781   -0.5596    1.2268 H   0  0  0  0  0  0  0  0  0  0  0  0
   -4.5794    0.9852    0.3539 H   0  0  0  0  0  0  0  0  0  0  0  0
   -4.4867   -1.7509   -1.0201 H   0  0  0  0  0  0  0  0  0  0  0  0
   -4.6375   -0.1677   -1.8299 H   0  0  0  0  0  0  0  0  0  0  0  0
   -6.1235    2.3982   -1.7005 H   0  0  0  0  0  0  0  0  0  0  0  0
   -8.1118   -0.7674    1.4296 H   0  0  0  0  0  0  0  0  0  0  0  0
   -9.3028   -1.0462    0.1345 H   0  0  0  0  0  0  0  0  0  0  0  0
   -9.8209    0.6042    2.6681 H   0  0  0  0  0  0  0  0  0  0  0  0
  -10.3367   -1.0715    2.3603 H   0  0  0  0  0  0  0  0  0  0  0  0
  -12.5276    0.8014    2.1134 H   0  0  0  0  0  0  0  0  0  0  0  0
  -10.8187    1.7935   -0.6639 H   0  0  0  0  0  0  0  0  0  0  0  0
  -10.4672    2.4677    0.8348 H   0  0  0  0  0  0  0  0  0  0  0  0
  -12.0338   -2.5110    0.9685 H   0  0  0  0  0  0  0  0  0  0  0  0
  -11.5923   -2.4908   -0.8291 H   0  0  0  0  0  0  0  0  0  0  0  0
   -2.6322    1.6868   -1.0699 H   0  0  0  0  0  0  0  0  0  0  0  0
   -0.1556    1.5130   -1.2386 H   0  0  0  0  0  0  0  0  0  0  0  0
  1  2  1  0
  2  3  1  0
  3  4  1  0
  4  5  1  0
  5  6  1  0
  6  7  1  0
  7  8  1  0
  8  9  1  0
  9 10  2  0
 10 11  1  0
 11 12  2  0
 12 13  1  0
 13 14  2  0
 12 15  1  0
 15 16  2  0
 16 17  1  0
 17 18  2  0
 18 19  1  0
 19 20  1  0
 20 21  1  0
 21 22  2  0
 21 23  1  0
 23 24  1  0
 23 25  2  0
 23 26  1  0
 26 27  1  0
 27 28  1  0
 28 29  1  0
 29 30  1  0
 29 31  1  0
 31 32  1  0
 31 33  2  0
 18 34  1  0
 34 35  2  0
 14  9  1  0
 35 15  1  0
  1 36  1  0
  1 37  1  0
  1 38  1  0
  2 39  1  0
  2 40  1  0
  3 41  1  0
  3 42  1  0
  4 43  1  0
  4 44  1  0
  5 45  1  0
  5 46  1  0
  6 47  1  0
  6 48  1  0
  7 49  1  0
  7 50  1  0
  8 51  1  0
  8 52  1  0
 10 53  1  0
 11 54  1  0
 13 55  1  0
 14 56  1  0
 16 57  1  0
 17 58  1  0
 19 59  1  0
 19 60  1  0
 20 61  1  0
 20 62  1  0
 24 63  1  0
 27 64  1  0
 27 65  1  0
 28 66  1  0
 28 67  1  0
 29 68  1  1
 30 69  1  0
 30 70  1  0
 32 71  1  0
 32 72  1  0
 34 73  1  0
 35 74  1  0
M  RAD  1  29   2
M  END
$$$$
[H]/C(=C(\[H])C([H])([H])n1c(C([H])([H])C2([H])N(C([H])([H])C(=O)OC([H])([H])[H])C([H])([H])C([H])([H])C([H])([H])C2([H])[H])nc2c([H])c(N3C([H])([H])C([H])([H])C([H])([H])C([H])([H])C3([H])[H])nc([H])c21)c1c([H])c([H])c(Br)c([H])c1F
     RDKit          3D

 73 77  0  0  0  0  0  0  0  0999 V2000
   -7.9852   -0.2916    2.4593 C   0  0  0  0  0  0  0  0  0  0  0  0
   -6.9525   -0.3692    1.5206 O   0  0  0  0  0  0  0  0  0  0  0  0
   -5.8875   -1.2340    1.7345 C   0  0  0  0  0  0  0  0  0  0  0  0
   -5.8984   -1.9183    2.7768 O   0  0  0  0  0  0  0  0  0  0  0  0
   -4.7614   -1.3340    0.7339 C   0  0  0  0  0  0  0  0  0  0  0  0
   -3.8795   -2.3653    1.1216 N   0  0  0  0  0  0  0  0  0  0  0  0
   -4.3877   -3.6900    1.0260 C   0  0  0  0  0  0  0  0  0  0  0  0
   -4.2219   -4.0895   -0.4376 C   0  0  0  0  0  0  0  0  0  0  0  0
   -2.7603   -4.2001   -0.6684 C   0  0  0  0  0  0  0  0  0  0  0  0
   -1.9149   -3.1015   -0.1594 C   0  0  0  0  0  0  0  0  0  0  0  0
   -2.4910   -2.2166    0.9051 C   0  0  0  0  0  0  0  0  0  0  0  0
   -2.1832   -0.7707    0.6119 C   0  0  0  0  0  0  0  0  0  0  0  0
   -0.7052   -0.5281    0.3911 C   0  0  0  0  0  0  0  0  0  0  0  0
    0.2942   -1.3986    0.4354 N   0  0  0  0  0  0  0  0  0  0  0  0
    1.4483   -0.7825    0.1856 C   0  0  0  0  0  0  0  0  0  0  0  0
    2.7799   -1.2242    0.1108 C   0  0  0  0  0  0  0  0  0  0  0  0
    3.7977   -0.3473   -0.1715 C   0  0  0  0  0  0  0  0  0  0  0  0
    3.4505    0.9379   -0.3690 N   0  0  0  0  0  0  0  0  0  0  0  0
    2.1908    1.3991   -0.3063 C   0  0  0  0  0  0  0  0  0  0  0  0
    1.1328    0.5449   -0.0235 C   0  0  0  0  0  0  0  0  0  0  0  0
   -0.1859    0.6764    0.1067 N   0  0  0  0  0  0  0  0  0  0  0  0
   -0.9403    1.9345   -0.0463 C   0  0  0  0  0  0  0  0  0  0  0  0
   -1.3427    2.1445   -1.4266 C   0  0  0  0  0  0  0  0  0  0  0  0
   -1.0759    3.2309   -2.0928 C   0  0  0  0  0  0  0  0  0  0  0  0
   -0.3964    4.4367   -1.7070 C   0  0  0  0  0  0  0  0  0  0  0  0
    0.4598    4.9786   -2.6922 C   0  0  0  0  0  0  0  0  0  0  0  0
    1.1149    6.1720   -2.5435 C   0  0  0  0  0  0  0  0  0  0  0  0
    0.9614    6.9062   -1.4044 C   0  0  0  0  0  0  0  0  0  0  0  0
    1.8938    8.5666   -1.2269 Br  0  0  0  0  0  0  0  0  0  0  0  0
    0.1470    6.4262   -0.4327 C   0  0  0  0  0  0  0  0  0  0  0  0
   -0.5259    5.1987   -0.5922 C   0  0  0  0  0  0  0  0  0  0  0  0
   -1.4113    4.8843    0.3993 F   0  0  0  0  0  0  0  0  0  0  0  0
    5.1179   -0.8214   -0.2401 N   0  0  0  0  0  0  0  0  0  0  0  0
    5.4051   -2.2097   -0.0044 C   0  0  0  0  0  0  0  0  0  0  0  0
    6.9148   -2.3278    0.1759 C   0  0  0  0  0  0  0  0  0  0  0  0
    7.3662   -1.2403    1.1547 C   0  0  0  0  0  0  0  0  0  0  0  0
    7.3242    0.0664    0.4333 C   0  0  0  0  0  0  0  0  0  0  0  0
    6.2013    0.0783   -0.5503 C   0  0  0  0  0  0  0  0  0  0  0  0
   -8.1586    0.7086    2.8769 H   0  0  0  0  0  0  0  0  0  0  0  0
   -7.8918   -1.0374    3.2777 H   0  0  0  0  0  0  0  0  0  0  0  0
   -8.9299   -0.5824    1.9124 H   0  0  0  0  0  0  0  0  0  0  0  0
   -4.3368   -0.3265    0.6984 H   0  0  0  0  0  0  0  0  0  0  0  0
   -5.2304   -1.4940   -0.2669 H   0  0  0  0  0  0  0  0  0  0  0  0
   -3.7167   -4.3642    1.5968 H   0  0  0  0  0  0  0  0  0  0  0  0
   -5.4036   -3.8085    1.3767 H   0  0  0  0  0  0  0  0  0  0  0  0
   -4.6963   -5.0724   -0.6320 H   0  0  0  0  0  0  0  0  0  0  0  0
   -4.6347   -3.3281   -1.1307 H   0  0  0  0  0  0  0  0  0  0  0  0
   -2.5949   -4.2800   -1.7838 H   0  0  0  0  0  0  0  0  0  0  0  0
   -2.4382   -5.2075   -0.2900 H   0  0  0  0  0  0  0  0  0  0  0  0
   -1.5578   -2.4533   -0.9927 H   0  0  0  0  0  0  0  0  0  0  0  0
   -0.9973   -3.5834    0.2654 H   0  0  0  0  0  0  0  0  0  0  0  0
   -1.9871   -2.4395    1.8995 H   0  0  0  0  0  0  0  0  0  0  0  0
   -2.4965   -0.1653    1.4544 H   0  0  0  0  0  0  0  0  0  0  0  0
   -2.7017   -0.5435   -0.3629 H   0  0  0  0  0  0  0  0  0  0  0  0
    2.9518   -2.2919    0.2879 H   0  0  0  0  0  0  0  0  0  0  0  0
    1.9308    2.4314   -0.4673 H   0  0  0  0  0  0  0  0  0  0  0  0
   -0.1355    2.6999    0.1959 H   0  0  0  0  0  0  0  0  0  0  0  0
   -1.7173    2.0105    0.7081 H   0  0  0  0  0  0  0  0  0  0  0  0
   -1.9109    1.3608   -1.9829 H   0  0  0  0  0  0  0  0  0  0  0  0
   -1.4561    3.2263   -3.1779 H   0  0  0  0  0  0  0  0  0  0  0  0
    0.6149    4.4455   -3.6013 H   0  0  0  0  0  0  0  0  0  0  0  0
    1.7761    6.5753   -3.3195 H   0  0  0  0  0  0  0  0  0  0  0  0
    0.0144    6.9903    0.4689 H   0  0  0  0  0  0  0  0  0  0  0  0
    4.8661   -2.6640    0.8336 H   0  0  0  0  0  0  0  0  0  0  0  0
    5.1577   -2.8430   -0.9072 H   0  0  0  0  0  0  0  0  0  0  0  0
    7.2134   -3.3098    0.5518 H   0  0  0  0  0  0  0  0  0  0  0  0
    7.3989   -2.0703   -0.7864 H   0  0  0  0  0  0  0  0  0  0  0  0
    6.7199   -1.2346    2.0475 H   0  0  0  0  0  0  0  0  0  0  0  0
    8.4055   -1.4733    1.4138 H   0  0  0  0  0  0  0  0  0  0  0  0
    7.2345    0.9467    1.1022 H   0  0  0  0  0  0  0  0  0  0  0  0
    8.2758    0.1515   -0.1703 H   0  0  0  0  0  0  0  0  0  0  0  0
    5.7964    1.1205   -0.6965 H   0  0  0  0  0  0  0  0  0  0  0  0
    6.5429   -0.2157   -1.5872 H   0  0  0  0  0  0  0  0  0  0  0  0
  1  2  1  0
  2  3  1  0
  3  4  2  0
  3  5  1  0
  5  6  1  0
  6  7  1  0
  7  8  1  0
  8  9  1  0
  9 10  1  0
 10 11  1  0
 11 12  1  0
 12 13  1  0
 13 14  2  0
 14 15  1  0
 15 16  2  0
 16 17  1  0
 17 18  2  0
 18 19  1  0
 19 20  2  0
 20 21  1  0
 21 22  1  0
 22 23  1  0
 23 24  2  0
 24 25  1  0
 25 26  2  0
 26 27  1  0
 27 28  2  0
 28 29  1  0
 28 30  1  0
 30 31  2  0
 31 32  1  0
 17 33  1  0
 33 34  1  0
 34 35  1  0
 35 36  1  0
 36 37  1  0
 37 38  1  0
 11  6  1  0
 21 13  1  0
 31 25  1  0
 38 33  1  0
 20 15  1  0
  1 39  1  0
  1 40  1  0
  1 41  1  0
  5 42  1  0
  5 43  1  0
  7 44  1  0
  7 45  1  0
  8 46  1  0
  8 47  1  0
  9 48  1  0
  9 49  1  0
 10 50  1  0
 10 51  1  0
 11 52  1  0
 12 53  1  0
 12 54  1  0
 16 55  1  0
 19 56  1  0
 22 57  1  0
 22 58  1  0
 23 59  1  0
 24 60  1  0
 26 61  1  0
 27 62  1  0
 30 63  1  0
 34 64  1  0
 34 65  1  0
 35 66  1  0
 35 67  1  0
 36 68  1  0
 36 69  1  0
 37 70  1  0
 37 71  1  0
 38 72  1  0
 38 73  1  0
M  END
$$$$
[H]ON([H])C(=O)C1([H])N(S(=O)(=O)c2c([H])c([H])c(OC([H])([H])C([H])([H])C([H])([H])C([H])([H])[H])c([H])c2[H])C([H])([H])C([H])([H])S(=O)(=O)C1([H])[H]
     RDKit          3D

 48 49  0  0  0  0  0  0  0  0999 V2000
    7.4658    1.0940   -0.4943 C   0  0  0  0  0  0  0  0  0  0  0  0
    6.0585    0.5477   -0.5702 C   0  0  0  0  0  0  0  0  0  0  0  0
    5.9895   -0.8445    0.0470 C   0  0  0  0  0  0  0  0  0  0  0  0
    4.5596   -1.3327   -0.0605 C   0  0  0  0  0  0  0  0  0  0  0  0
    3.7465   -0.4421    0.6326 O   0  0  0  0  0  0  0  0  0  0  0  0
    2.3750   -0.5385    0.7696 C   0  0  0  0  0  0  0  0  0  0  0  0
    1.6146   -1.5350    0.2369 C   0  0  0  0  0  0  0  0  0  0  0  0
    0.2408   -1.5616    0.4193 C   0  0  0  0  0  0  0  0  0  0  0  0
   -0.4178   -0.5859    1.1448 C   0  0  0  0  0  0  0  0  0  0  0  0
    0.3590    0.4180    1.6800 C   0  0  0  0  0  0  0  0  0  0  0  0
    1.7406    0.4506    1.5003 C   0  0  0  0  0  0  0  0  0  0  0  0
   -2.1434   -0.6075    1.3914 S   0  0  0  0  0  0  0  0  0  0  0  0
   -2.5011    0.0977    2.6967 O   0  0  0  0  0  0  0  0  0  0  0  0
   -2.5873   -2.0297    1.5871 O   0  0  0  0  0  0  0  0  0  0  0  0
   -3.0127    0.1827    0.1156 N   0  0  0  0  0  0  0  0  0  0  0  0
   -2.5931    1.5548    0.0992 C   0  0  0  0  0  0  0  0  0  0  0  0
   -2.7863    2.0326   -1.3522 C   0  0  0  0  0  0  0  0  0  0  0  0
   -4.5855    2.0749   -1.4873 S   0  0  0  0  0  0  0  0  0  0  0  0
   -5.0415    1.4763   -2.7855 O   0  0  0  0  0  0  0  0  0  0  0  0
   -4.9677    3.5268   -1.4956 O   0  0  0  0  0  0  0  0  0  0  0  0
   -5.2600    1.2278   -0.0795 C   0  0  0  0  0  0  0  0  0  0  0  0
   -4.4046    0.0753    0.3667 C   0  0  0  0  0  0  0  0  0  0  0  0
   -4.9910   -1.1528   -0.2342 C   0  0  0  0  0  0  0  0  0  0  0  0
   -6.2092   -1.3617   -0.0189 O   0  0  0  0  0  0  0  0  0  0  0  0
   -4.2829   -2.0860   -1.0190 N   0  0  0  0  0  0  0  0  0  0  0  0
   -4.8831   -3.1759   -1.5286 O   0  0  0  0  0  0  0  0  0  0  0  0
    8.2199    0.3620   -0.8131 H   0  0  0  0  0  0  0  0  0  0  0  0
    7.6877    1.5380    0.5006 H   0  0  0  0  0  0  0  0  0  0  0  0
    7.5184    1.9409   -1.2236 H   0  0  0  0  0  0  0  0  0  0  0  0
    5.7947    0.5002   -1.6556 H   0  0  0  0  0  0  0  0  0  0  0  0
    5.4003    1.2333   -0.0271 H   0  0  0  0  0  0  0  0  0  0  0  0
    6.2404   -0.6998    1.1305 H   0  0  0  0  0  0  0  0  0  0  0  0
    6.7221   -1.5199   -0.3886 H   0  0  0  0  0  0  0  0  0  0  0  0
    4.3322   -1.4098   -1.1404 H   0  0  0  0  0  0  0  0  0  0  0  0
    4.5410   -2.3670    0.3394 H   0  0  0  0  0  0  0  0  0  0  0  0
    2.1317   -2.3109   -0.3391 H   0  0  0  0  0  0  0  0  0  0  0  0
   -0.3304   -2.3545   -0.0095 H   0  0  0  0  0  0  0  0  0  0  0  0
   -0.0945    1.1966    2.2488 H   0  0  0  0  0  0  0  0  0  0  0  0
    2.3120    1.2468    1.9313 H   0  0  0  0  0  0  0  0  0  0  0  0
   -3.3007    2.1966    0.7011 H   0  0  0  0  0  0  0  0  0  0  0  0
   -1.5726    1.7452    0.4407 H   0  0  0  0  0  0  0  0  0  0  0  0
   -2.3444    3.0135   -1.5187 H   0  0  0  0  0  0  0  0  0  0  0  0
   -2.4345    1.2365   -2.0281 H   0  0  0  0  0  0  0  0  0  0  0  0
   -5.3797    1.9775    0.7298 H   0  0  0  0  0  0  0  0  0  0  0  0
   -6.2830    0.9046   -0.3634 H   0  0  0  0  0  0  0  0  0  0  0  0
   -4.5523   -0.0324    1.4781 H   0  0  0  0  0  0  0  0  0  0  0  0
   -3.2774   -1.9323   -1.2127 H   0  0  0  0  0  0  0  0  0  0  0  0
   -4.8136   -3.9703   -0.9293 H   0  0  0  0  0  0  0  0  0  0  0  0
  1  2  1  0
  2  3  1  0
  3  4  1  0
  4  5  1  0
  5  6  1  0
  6  7  2  0
  7  8  1  0
  8  9  2  0
  9 10  1  0
 10 11  2  0
  9 12  1  0
 12 13  2  0
 12 14  2  0
 12 15  1  0
 15 16  1  0
 16 17  1  0
 17 18  1  0
 18 19  2  0
 18 20  2  0
 18 21  1  0
 21 22  1  0
 22 23  1  0
 23 24  2  0
 23 25  1  0
 25 26  1  0
 11  6  1  0
 22 15  1  0
  1 27  1  0
  1 28  1  0
  1 29  1  0
  2 30  1  0
  2 31  1  0
  3 32  1  0
  3 33  1  0
  4 34  1  0
  4 35  1  0
  7 36  1  0
  8 37  1  0
 10 38  1  0
 11 39  1  0
 16 40  1  0
 16 41  1  0
 17 42  1  0
 17 43  1  0
 21 44  1  0
 21 45  1  0
 22 46  1  0
 25 47  1  0
 26 48  1  0
M  END
$$$$
[H]C([H])=C([H])C(=O)N1C([H])([H])C([H])([H])C([H])([H])[C@@]([H])(n2nc(C#Cc3c([H])c([H])c([H])c(OC(=O)N(C([H])([H])[H])C([H])([H])[H])c3[H])c3c(N([H])[H])nc([H])nc32)C1([H])[H]
     RDKit          3D

 59 62  0  0  0  0  0  0  0  0999 V2000
    8.6331    3.0983    0.1471 C   0  0  0  0  0  0  0  0  0  0  0  0
    8.0767    2.0498   -0.6848 N   0  0  0  0  0  0  0  0  0  0  0  0
    8.4562    1.9800   -2.1000 C   0  0  0  0  0  0  0  0  0  0  0  0
    7.1771    1.1123   -0.1154 C   0  0  0  0  0  0  0  0  0  0  0  0
    6.8835    1.2126    1.0974 O   0  0  0  0  0  0  0  0  0  0  0  0
    6.6056    0.0873   -0.8393 O   0  0  0  0  0  0  0  0  0  0  0  0
    5.7173   -0.8386   -0.2767 C   0  0  0  0  0  0  0  0  0  0  0  0
    6.2466   -1.9904    0.2684 C   0  0  0  0  0  0  0  0  0  0  0  0
    5.3727   -2.9005    0.8215 C   0  0  0  0  0  0  0  0  0  0  0  0
    4.0205   -2.6425    0.8164 C   0  0  0  0  0  0  0  0  0  0  0  0
    3.4916   -1.4783    0.2648 C   0  0  0  0  0  0  0  0  0  0  0  0
    4.3650   -0.5657   -0.2895 C   0  0  0  0  0  0  0  0  0  0  0  0
    2.0815   -1.2048    0.2572 C   0  0  0  0  0  0  0  0  0  0  0  0
    0.8853   -0.9944    0.2497 C   0  0  0  0  0  0  0  0  0  0  0  0
   -0.5301   -0.7573    0.2524 C   0  0  0  0  0  0  0  0  0  0  0  0
   -1.1923    0.4104    0.1703 N   0  0  0  0  0  0  0  0  0  0  0  0
   -2.5201    0.2045    0.2066 N   0  0  0  0  0  0  0  0  0  0  0  0
   -3.4932    1.2394    0.1399 C   0  0  2  0  0  0  0  0  0  0  0  0
   -4.2487    1.4062    1.4652 C   0  0  0  0  0  0  0  0  0  0  0  0
   -4.9392    2.7498    1.3848 C   0  0  0  0  0  0  0  0  0  0  0  0
   -5.8435    2.7702    0.1985 C   0  0  0  0  0  0  0  0  0  0  0  0
   -5.8331    1.4793   -0.4602 N   0  0  0  0  0  0  0  0  0  0  0  0
   -4.5383    1.0227   -0.9304 C   0  0  0  0  0  0  0  0  0  0  0  0
   -7.0318    0.7722   -0.5999 C   0  0  0  0  0  0  0  0  0  0  0  0
   -8.1001    1.2755   -0.1473 O   0  0  0  0  0  0  0  0  0  0  0  0
   -7.1552   -0.5230   -1.2369 C   0  0  0  0  0  0  0  0  0  0  0  0
   -8.3029   -1.1614   -1.3509 C   0  0  0  0  0  0  0  0  0  0  0  0
   -2.7616   -1.0992    0.3132 C   0  0  0  0  0  0  0  0  0  0  0  0
   -3.8938   -1.8076    0.3863 N   0  0  0  0  0  0  0  0  0  0  0  0
   -3.7886   -3.1446    0.4903 C   0  0  0  0  0  0  0  0  0  0  0  0
   -2.6127   -3.7973    0.5240 N   0  0  0  0  0  0  0  0  0  0  0  0
   -1.4921   -3.0906    0.4512 C   0  0  0  0  0  0  0  0  0  0  0  0
   -0.1874   -3.6935    0.4790 N   0  0  0  0  0  0  0  0  0  0  0  0
   -1.5380   -1.7264    0.3442 C   0  0  0  0  0  0  0  0  0  0  0  0
    7.8257    3.4309    0.8399 H   0  0  0  0  0  0  0  0  0  0  0  0
    8.9320    3.9914   -0.4300 H   0  0  0  0  0  0  0  0  0  0  0  0
    9.4860    2.6527    0.7093 H   0  0  0  0  0  0  0  0  0  0  0  0
    9.3635    1.3620   -2.2129 H   0  0  0  0  0  0  0  0  0  0  0  0
    8.6304    3.0167   -2.4528 H   0  0  0  0  0  0  0  0  0  0  0  0
    7.6317    1.4730   -2.6411 H   0  0  0  0  0  0  0  0  0  0  0  0
    7.3051   -2.2095    0.2813 H   0  0  0  0  0  0  0  0  0  0  0  0
    5.7476   -3.8118    1.2569 H   0  0  0  0  0  0  0  0  0  0  0  0
    3.3465   -3.3608    1.2514 H   0  0  0  0  0  0  0  0  0  0  0  0
    3.9908    0.3532   -0.7289 H   0  0  0  0  0  0  0  0  0  0  0  0
   -2.9917    2.2118   -0.0290 H   0  0  0  0  0  0  0  0  0  0  0  0
   -3.5650    1.4182    2.3272 H   0  0  0  0  0  0  0  0  0  0  0  0
   -4.9664    0.5725    1.5598 H   0  0  0  0  0  0  0  0  0  0  0  0
   -5.4392    3.0218    2.3350 H   0  0  0  0  0  0  0  0  0  0  0  0
   -4.1419    3.5157    1.2119 H   0  0  0  0  0  0  0  0  0  0  0  0
   -5.5023    3.5077   -0.5861 H   0  0  0  0  0  0  0  0  0  0  0  0
   -6.8756    3.0949    0.4545 H   0  0  0  0  0  0  0  0  0  0  0  0
   -4.5309    0.0144   -1.3426 H   0  0  0  0  0  0  0  0  0  0  0  0
   -4.2887    1.7046   -1.7982 H   0  0  0  0  0  0  0  0  0  0  0  0
   -6.2687   -0.9891   -1.6374 H   0  0  0  0  0  0  0  0  0  0  0  0
   -8.4087   -2.1213   -1.8204 H   0  0  0  0  0  0  0  0  0  0  0  0
   -9.1889   -0.6944   -0.9502 H   0  0  0  0  0  0  0  0  0  0  0  0
   -4.6879   -3.7748    0.5537 H   0  0  0  0  0  0  0  0  0  0  0  0
    0.3311   -3.8698    1.3657 H   0  0  0  0  0  0  0  0  0  0  0  0
    0.2560   -3.9644   -0.4253 H   0  0  0  0  0  0  0  0  0  0  0  0
  1  2  1  0
  2  3  1  0
  2  4  1  0
  4  5  2  0
  4  6  1  0
  6  7  1  0
  7  8  2  0
  8  9  1  0
  9 10  2  0
 10 11  1  0
 11 12  2  0
 11 13  1  0
 13 14  3  0
 14 15  1  0
 15 16  2  0
 16 17  1  0
 17 18  1  0
 18 19  1  0
 19 20  1  0
 20 21  1  0
 21 22  1  0
 22 23  1  0
 22 24  1  0
 24 25  2  0
 24 26  1  0
 26 27  2  3
 17 28  1  0
 28 29  2  0
 29 30  1  0
 30 31  2  0
 31 32  1  0
 32 33  1  0
 32 34  2  0
 12  7  1  0
 34 15  1  0
 23 18  1  0
 34 28  1  0
  1 35  1  0
  1 36  1  0
  1 37  1  0
  3 38  1  0
  3 39  1  0
  3 40  1  0
  8 41  1  0
  9 42  1  0
 10 43  1  0
 12 44  1  0
 18 45  1  6
 19 46  1  0
 19 47  1  0
 20 48  1  0
 20 49  1  0
 21 50  1  0
 21 51  1  0
 23 52  1  0
 23 53  1  0
 26 54  1  0
 27 55  1  0
 27 56  1  0
 30 57  1  0
 33 58  1  0
 33 59  1  0
M  END
$$$$
[H]c1c([H])c(C([H])([H])[C@@]([H])(C(=O)O[C@@]2([H])C([H])([H])N(C(=O)[C@]3([H])C([H])([H])C([H])([H])[C@@]3([H])C([H])([H])[H])[C@]([H])(C(=O)N([H])[C@]([H])(C(=O)N([H])C([H])([H])C([H])([H])C([H])([H])N([H])[H])C([H])([H])C([H])([H])SC([H])([H])[H])C2([H])[H])N([H])C(=O)OC(C([H])([H])[H])(C([H])([H])[H])C([H])([H])[H])c([H])c([H])c1F
     RDKit          3D

 97 99  0  0  0  0  0  0  0  0999 V2000
   -6.4556   -3.7852    1.1713 C   0  0  0  0  0  0  0  0  0  0  0  0
   -6.9681   -2.1782    1.8527 S   0  0  0  0  0  0  0  0  0  0  0  0
   -5.6822   -0.9286    1.5640 C   0  0  0  0  0  0  0  0  0  0  0  0
   -5.5869   -0.6985    0.0809 C   0  0  0  0  0  0  0  0  0  0  0  0
   -4.5188    0.3457   -0.2553 C   0  0  2  0  0  0  0  0  0  0  0  0
   -3.2262   -0.0978    0.2192 N   0  0  0  0  0  0  0  0  0  0  0  0
   -2.2211   -0.6110   -0.6094 C   0  0  0  0  0  0  0  0  0  0  0  0
   -2.4562   -0.6904   -1.8475 O   0  0  0  0  0  0  0  0  0  0  0  0
   -0.9131   -1.0559   -0.0531 C   0  0  2  0  0  0  0  0  0  0  0  0
   -0.1104    0.1230    0.3654 C   0  0  0  0  0  0  0  0  0  0  0  0
    0.9591    0.2519   -0.7145 C   0  0  2  0  0  0  0  0  0  0  0  0
    0.5377   -0.6604   -1.8171 C   0  0  0  0  0  0  0  0  0  0  0  0
   -0.2064   -1.7144   -1.1311 N   0  0  0  0  0  0  0  0  0  0  0  0
   -0.1957   -3.0709   -1.5013 C   0  0  0  0  0  0  0  0  0  0  0  0
    0.4941   -3.4392   -2.4804 O   0  0  0  0  0  0  0  0  0  0  0  0
   -0.9812   -4.1095   -0.7710 C   0  0  2  0  0  0  0  0  0  0  0  0
   -0.6294   -4.2952    0.6787 C   0  0  0  0  0  0  0  0  0  0  0  0
   -0.3125   -5.7341    0.4101 C   0  0  0  0  0  0  0  0  0  0  0  0
   -0.4722   -5.4895   -1.0624 C   0  0  1  0  0  0  0  0  0  0  0  0
   -1.4672   -6.3993   -1.7518 C   0  0  0  0  0  0  0  0  0  0  0  0
    2.2317   -0.0467   -0.2079 O   0  0  0  0  0  0  0  0  0  0  0  0
    3.1816    0.9191   -0.0833 C   0  0  0  0  0  0  0  0  0  0  0  0
    2.8284    2.0987   -0.4399 O   0  0  0  0  0  0  0  0  0  0  0  0
    4.5305    0.7449    0.4083 C   0  0  2  0  0  0  0  0  0  0  0  0
    4.8717   -0.4010    1.2815 C   0  0  0  0  0  0  0  0  0  0  0  0
    4.6630   -1.7169    0.6667 C   0  0  0  0  0  0  0  0  0  0  0  0
    3.5737   -2.5061    0.9004 C   0  0  0  0  0  0  0  0  0  0  0  0
    3.3922   -3.7486    0.2885 C   0  0  0  0  0  0  0  0  0  0  0  0
    4.3239   -4.2430   -0.5961 C   0  0  0  0  0  0  0  0  0  0  0  0
    4.1575   -5.4443   -1.1948 F   0  0  0  0  0  0  0  0  0  0  0  0
    5.4321   -3.4596   -0.8444 C   0  0  0  0  0  0  0  0  0  0  0  0
    5.6009   -2.2385   -0.2366 C   0  0  0  0  0  0  0  0  0  0  0  0
    5.0155    2.0182    0.9729 N   0  0  0  0  0  0  0  0  0  0  0  0
    6.1205    2.7209    0.4331 C   0  0  0  0  0  0  0  0  0  0  0  0
    6.7436    2.2678   -0.5738 O   0  0  0  0  0  0  0  0  0  0  0  0
    6.5810    3.9030    0.9457 O   0  0  0  0  0  0  0  0  0  0  0  0
    7.6403    4.6843    0.5248 C   0  0  0  0  0  0  0  0  0  0  0  0
    7.5366    5.1907   -0.8864 C   0  0  0  0  0  0  0  0  0  0  0  0
    8.9084    3.8600    0.6253 C   0  0  0  0  0  0  0  0  0  0  0  0
    7.8462    5.8880    1.4314 C   0  0  0  0  0  0  0  0  0  0  0  0
   -4.9418    1.6549    0.2389 C   0  0  0  0  0  0  0  0  0  0  0  0
   -4.2548    2.3557    1.0374 O   0  0  0  0  0  0  0  0  0  0  0  0
   -6.1841    2.1760   -0.1914 N   0  0  0  0  0  0  0  0  0  0  0  0
   -6.6205    3.4641    0.2903 C   0  0  0  0  0  0  0  0  0  0  0  0
   -7.9602    3.7994   -0.2994 C   0  0  0  0  0  0  0  0  0  0  0  0
   -8.3790    5.1672    0.2426 C   0  0  0  0  0  0  0  0  0  0  0  0
   -9.6561    5.4691   -0.3299 N   0  0  0  0  0  0  0  0  0  0  0  0
   -6.6677   -4.6187    1.8561 H   0  0  0  0  0  0  0  0  0  0  0  0
   -5.3665   -3.7592    0.9342 H   0  0  0  0  0  0  0  0  0  0  0  0
   -6.9785   -3.9627    0.2206 H   0  0  0  0  0  0  0  0  0  0  0  0
   -4.7336   -1.3425    1.9806 H   0  0  0  0  0  0  0  0  0  0  0  0
   -5.9428   -0.0250    2.1188 H   0  0  0  0  0  0  0  0  0  0  0  0
   -5.3656   -1.6662   -0.4005 H   0  0  0  0  0  0  0  0  0  0  0  0
   -6.5533   -0.2755   -0.2531 H   0  0  0  0  0  0  0  0  0  0  0  0
   -4.4868    0.3620   -1.3615 H   0  0  0  0  0  0  0  0  0  0  0  0
   -3.0565   -0.0209    1.2391 H   0  0  0  0  0  0  0  0  0  0  0  0
   -1.0858   -1.7295    0.8213 H   0  0  0  0  0  0  0  0  0  0  0  0
    0.3363    0.0728    1.3634 H   0  0  0  0  0  0  0  0  0  0  0  0
   -0.7325    1.0617    0.3403 H   0  0  0  0  0  0  0  0  0  0  0  0
    0.9598    1.3036   -1.0614 H   0  0  0  0  0  0  0  0  0  0  0  0
    1.3891   -1.0639   -2.4039 H   0  0  0  0  0  0  0  0  0  0  0  0
   -0.1577   -0.2000   -2.5515 H   0  0  0  0  0  0  0  0  0  0  0  0
   -2.0865   -3.9848   -0.8794 H   0  0  0  0  0  0  0  0  0  0  0  0
    0.3047   -3.7506    0.9973 H   0  0  0  0  0  0  0  0  0  0  0  0
   -1.4757   -4.1214    1.3851 H   0  0  0  0  0  0  0  0  0  0  0  0
    0.6987   -6.0717    0.7268 H   0  0  0  0  0  0  0  0  0  0  0  0
   -1.1248   -6.3949    0.8187 H   0  0  0  0  0  0  0  0  0  0  0  0
    0.5253   -5.4667   -1.5540 H   0  0  0  0  0  0  0  0  0  0  0  0
   -1.3490   -7.4446   -1.4487 H   0  0  0  0  0  0  0  0  0  0  0  0
   -2.4830   -5.9980   -1.5319 H   0  0  0  0  0  0  0  0  0  0  0  0
   -1.2761   -6.3275   -2.8412 H   0  0  0  0  0  0  0  0  0  0  0  0
    5.1817    0.6289   -0.5539 H   0  0  0  0  0  0  0  0  0  0  0  0
    5.9147   -0.3432    1.6837 H   0  0  0  0  0  0  0  0  0  0  0  0
    4.1430   -0.3620    2.1551 H   0  0  0  0  0  0  0  0  0  0  0  0
    2.8124   -2.1549    1.6072 H   0  0  0  0  0  0  0  0  0  0  0  0
    2.5156   -4.3407    0.5084 H   0  0  0  0  0  0  0  0  0  0  0  0
    6.1451   -3.8709   -1.5426 H   0  0  0  0  0  0  0  0  0  0  0  0
    6.4773   -1.6310   -0.4397 H   0  0  0  0  0  0  0  0  0  0  0  0
    4.4776    2.3533    1.7938 H   0  0  0  0  0  0  0  0  0  0  0  0
    6.5919    5.7221   -1.0986 H   0  0  0  0  0  0  0  0  0  0  0  0
    8.3473    5.9730   -0.9885 H   0  0  0  0  0  0  0  0  0  0  0  0
    7.8016    4.4150   -1.6214 H   0  0  0  0  0  0  0  0  0  0  0  0
    8.9736    3.2845   -0.3210 H   0  0  0  0  0  0  0  0  0  0  0  0
    9.8135    4.5007    0.6618 H   0  0  0  0  0  0  0  0  0  0  0  0
    8.8680    3.1268    1.4447 H   0  0  0  0  0  0  0  0  0  0  0  0
    8.8308    6.3302    1.2277 H   0  0  0  0  0  0  0  0  0  0  0  0
    7.0585    6.6339    1.2529 H   0  0  0  0  0  0  0  0  0  0  0  0
    7.8237    5.5311    2.4911 H   0  0  0  0  0  0  0  0  0  0  0  0
   -6.7901    1.6374   -0.8587 H   0  0  0  0  0  0  0  0  0  0  0  0
   -6.7205    3.4126    1.4021 H   0  0  0  0  0  0  0  0  0  0  0  0
   -5.9052    4.2585    0.0306 H   0  0  0  0  0  0  0  0  0  0  0  0
   -8.6804    3.0418    0.0291 H   0  0  0  0  0  0  0  0  0  0  0  0
   -7.8390    3.8744   -1.4005 H   0  0  0  0  0  0  0  0  0  0  0  0
   -7.6416    5.9202   -0.0758 H   0  0  0  0  0  0  0  0  0  0  0  0
   -8.4330    5.1159    1.3529 H   0  0  0  0  0  0  0  0  0  0  0  0
   -9.5303    6.1365   -1.1129 H   0  0  0  0  0  0  0  0  0  0  0  0
  -10.2980    5.8904    0.3869 H   0  0  0  0  0  0  0  0  0  0  0  0
  1  2  1  0
  2  3  1  0
  3  4  1  0
  4  5  1  0
  5  6  1  0
  6  7  1  0
  7  8  2  0
  7  9  1  0
  9 10  1  0
 10 11  1  0
 11 12  1  0
 12 13  1  0
 13 14  1  0
 14 15  2  0
 14 16  1  0
 16 17  1  0
 17 18  1  0
 18 19  1  0
 19 20  1  0
 11 21  1  0
 21 22  1  0
 22 23  2  0
 22 24  1  0
 24 25  1  0
 25 26  1  0
 26 27  2  0
 27 28  1  0
 28 29  2  0
 29 30  1  0
 29 31  1  0
 31 32  2  0
 24 33  1  0
 33 34  1  0
 34 35  2  0
 34 36  1  0
 36 37  1  0
 37 38  1  0
 37 39  1  0
 37 40  1  0
  5 41  1  0
 41 42  2  0
 41 43  1  0
 43 44  1  0
 44 45  1  0
 45 46  1  0
 46 47  1  0
 13  9  1  0
 19 16  1  0
 32 26  1  0
  1 48  1  0
  1 49  1  0
  1 50  1  0
  3 51  1  0
  3 52  1  0
  4 53  1  0
  4 54  1  0
  5 55  1  6
  6 56  1  0
  9 57  1  1
 10 58  1  0
 10 59  1  0
 11 60  1  6
 12 61  1  0
 12 62  1  0
 16 63  1  1
 17 64  1  0
 17 65  1  0
 18 66  1  0
 18 67  1  0
 19 68  1  6
 20 69  1  0
 20 70  1  0
 20 71  1  0
 24 72  1  6
 25 73  1  0
 25 74  1  0
 27 75  1  0
 28 76  1  0
 31 77  1  0
 32 78  1  0
 33 79  1  0
 38 80  1  0
 38 81  1  0
 38 82  1  0
 39 83  1  0
 39 84  1  0
 39 85  1  0
 40 86  1  0
 40 87  1  0
 40 88  1  0
 43 89  1  0
 44 90  1  0
 44 91  1  0
 45 92  1  0
 45 93  1  0
 46 94  1  0
 46 95  1  0
 47 96  1  0
 47 97  1  0
M  END
$$$$
[H]c1c(N([H])c2nn([H])c(C([H])([H])[H])c2[H])nc(N([H])c2c([H])c([H])c(N3C([H])([H])C([H])([H])OC([H])([H])C3([H])[H])c([H])c2[H])nc1N1C([H])([H])C([H])([H])N(C([H])([H])[H])C([H])([H])C1([H])[H]
     RDKit          3D

 64 68  0  0  0  0  0  0  0  0999 V2000
   -6.3900   -5.9645   -1.5139 C   0  0  0  0  0  0  0  0  0  0  0  0
   -5.5429   -4.8269   -1.4198 N   0  0  0  0  0  0  0  0  0  0  0  0
   -4.1675   -5.0657   -1.6785 C   0  0  0  0  0  0  0  0  0  0  0  0
   -3.2150   -4.0388   -1.2284 C   0  0  0  0  0  0  0  0  0  0  0  0
   -3.7680   -2.8367   -0.7165 N   0  0  0  0  0  0  0  0  0  0  0  0
   -5.1624   -2.6111   -0.4387 C   0  0  0  0  0  0  0  0  0  0  0  0
   -5.8238   -3.9623   -0.3138 C   0  0  0  0  0  0  0  0  0  0  0  0
   -2.8683   -1.7402   -0.4444 C   0  0  0  0  0  0  0  0  0  0  0  0
   -3.3092   -0.5383    0.0051 C   0  0  0  0  0  0  0  0  0  0  0  0
   -2.3690    0.4748    0.2486 C   0  0  0  0  0  0  0  0  0  0  0  0
   -2.7954    1.7348    0.7118 N   0  0  0  0  0  0  0  0  0  0  0  0
   -1.9943    2.8578    0.9633 C   0  0  0  0  0  0  0  0  0  0  0  0
   -2.4795    4.0806    1.4411 C   0  0  0  0  0  0  0  0  0  0  0  0
   -1.4380    4.9712    1.5684 C   0  0  0  0  0  0  0  0  0  0  0  0
   -1.4776    6.3856    2.0381 C   0  0  0  0  0  0  0  0  0  0  0  0
   -0.3400    4.2929    1.1723 N   0  0  0  0  0  0  0  0  0  0  0  0
   -0.6836    3.0672    0.8247 N   0  0  0  0  0  0  0  0  0  0  0  0
   -1.0728    0.2159    0.0288 N   0  0  0  0  0  0  0  0  0  0  0  0
   -0.6082   -0.9579   -0.4137 C   0  0  0  0  0  0  0  0  0  0  0  0
    0.7430   -1.3053   -0.6517 N   0  0  0  0  0  0  0  0  0  0  0  0
    1.8912   -0.5189   -0.4509 C   0  0  0  0  0  0  0  0  0  0  0  0
    3.0393   -0.7923   -1.2126 C   0  0  0  0  0  0  0  0  0  0  0  0
    4.2144   -0.0907   -1.0617 C   0  0  0  0  0  0  0  0  0  0  0  0
    4.3370    0.9259   -0.1515 C   0  0  0  0  0  0  0  0  0  0  0  0
    3.1992    1.2091    0.6160 C   0  0  0  0  0  0  0  0  0  0  0  0
    2.0287    0.4991    0.4557 C   0  0  0  0  0  0  0  0  0  0  0  0
    5.5213    1.6914    0.0378 N   0  0  0  0  0  0  0  0  0  0  0  0
    5.6796    2.5743    1.1942 C   0  0  0  0  0  0  0  0  0  0  0  0
    7.1952    2.6072    1.4404 C   0  0  0  0  0  0  0  0  0  0  0  0
    7.7399    1.3424    1.2315 O   0  0  0  0  0  0  0  0  0  0  0  0
    7.7773    0.9856   -0.1137 C   0  0  0  0  0  0  0  0  0  0  0  0
    6.6379    1.6767   -0.8731 C   0  0  0  0  0  0  0  0  0  0  0  0
   -1.5658   -1.9117   -0.6363 N   0  0  0  0  0  0  0  0  0  0  0  0
   -7.3761   -5.7854   -1.9447 H   0  0  0  0  0  0  0  0  0  0  0  0
   -5.8770   -6.7701   -2.1158 H   0  0  0  0  0  0  0  0  0  0  0  0
   -6.4750   -6.4107   -0.4907 H   0  0  0  0  0  0  0  0  0  0  0  0
   -4.0643   -5.2937   -2.7744 H   0  0  0  0  0  0  0  0  0  0  0  0
   -3.8963   -6.0409   -1.1748 H   0  0  0  0  0  0  0  0  0  0  0  0
   -2.5621   -3.7525   -2.1061 H   0  0  0  0  0  0  0  0  0  0  0  0
   -2.4789   -4.4284   -0.4669 H   0  0  0  0  0  0  0  0  0  0  0  0
   -5.6157   -1.9658   -1.1890 H   0  0  0  0  0  0  0  0  0  0  0  0
   -5.3173   -2.1199    0.5672 H   0  0  0  0  0  0  0  0  0  0  0  0
   -5.5629   -4.4248    0.6569 H   0  0  0  0  0  0  0  0  0  0  0  0
   -6.9200   -3.7905   -0.2955 H   0  0  0  0  0  0  0  0  0  0  0  0
   -4.3608   -0.3719    0.1690 H   0  0  0  0  0  0  0  0  0  0  0  0
   -3.8499    1.8291    0.8868 H   0  0  0  0  0  0  0  0  0  0  0  0
   -3.4984    4.3069    1.6765 H   0  0  0  0  0  0  0  0  0  0  0  0
   -2.2687    6.5279    2.7971 H   0  0  0  0  0  0  0  0  0  0  0  0
   -0.5275    6.7005    2.4895 H   0  0  0  0  0  0  0  0  0  0  0  0
   -1.6575    7.0405    1.1599 H   0  0  0  0  0  0  0  0  0  0  0  0
    0.6281    4.6955    1.1514 H   0  0  0  0  0  0  0  0  0  0  0  0
    0.9262   -2.2971   -1.0338 H   0  0  0  0  0  0  0  0  0  0  0  0
    2.9719   -1.5856   -1.9350 H   0  0  0  0  0  0  0  0  0  0  0  0
    5.0990   -0.3268   -1.6655 H   0  0  0  0  0  0  0  0  0  0  0  0
    3.2742    2.0067    1.3369 H   0  0  0  0  0  0  0  0  0  0  0  0
    1.1607    0.7310    1.0814 H   0  0  0  0  0  0  0  0  0  0  0  0
    5.4088    3.5919    0.8480 H   0  0  0  0  0  0  0  0  0  0  0  0
    5.1421    2.2308    2.0803 H   0  0  0  0  0  0  0  0  0  0  0  0
    7.7058    3.3037    0.7476 H   0  0  0  0  0  0  0  0  0  0  0  0
    7.4129    2.8949    2.4949 H   0  0  0  0  0  0  0  0  0  0  0  0
    8.7416    1.2532   -0.5563 H   0  0  0  0  0  0  0  0  0  0  0  0
    7.6107   -0.0996   -0.2129 H   0  0  0  0  0  0  0  0  0  0  0  0
    6.9114    2.7532   -1.0431 H   0  0  0  0  0  0  0  0  0  0  0  0
    6.3821    1.1665   -1.7973 H   0  0  0  0  0  0  0  0  0  0  0  0
  1  2  1  0
  2  3  1  0
  3  4  1  0
  4  5  1  0
  5  6  1  0
  6  7  1  0
  5  8  1  0
  8  9  2  0
  9 10  1  0
 10 11  1  0
 11 12  1  0
 12 13  1  0
 13 14  2  0
 14 15  1  0
 14 16  1  0
 16 17  1  0
 10 18  2  0
 18 19  1  0
 19 20  1  0
 20 21  1  0
 21 22  2  0
 22 23  1  0
 23 24  2  0
 24 25  1  0
 25 26  2  0
 24 27  1  0
 27 28  1  0
 28 29  1  0
 29 30  1  0
 30 31  1  0
 31 32  1  0
 19 33  2  0
  7  2  1  0
 33  8  1  0
 17 12  2  0
 26 21  1  0
 32 27  1  0
  1 34  1  0
  1 35  1  0
  1 36  1  0
  3 37  1  0
  3 38  1  0
  4 39  1  0
  4 40  1  0
  6 41  1  0
  6 42  1  0
  7 43  1  0
  7 44  1  0
  9 45  1  0
 11 46  1  0
 13 47  1  0
 15 48  1  0
 15 49  1  0
 15 50  1  0
 16 51  1  0
 20 52  1  0
 22 53  1  0
 23 54  1  0
 25 55  1  0
 26 56  1  0
 28 57  1  0
 28 58  1  0
 29 59  1  0
 29 60  1  0
 31 61  1  0
 31 62  1  0
 32 63  1  0
 32 64  1  0
M  END
$$$$
[H]c1oc(-c2c([H])c([H])c([H])c(C([H])([H])[H])c2[H])nc1-c1c([H])c([H])c([H])c([H])c1N([H])[H]
     RDKit          3D

 33 35  0  0  0  0  0  0  0  0999 V2000
    4.0085    2.2024    1.5413 C   0  0  0  0  0  0  0  0  0  0  0  0
    3.7173    1.1781    0.5040 C   0  0  0  0  0  0  0  0  0  0  0  0
    4.7429    0.6603   -0.2631 C   0  0  0  0  0  0  0  0  0  0  0  0
    4.4502   -0.3008   -1.2324 C   0  0  0  0  0  0  0  0  0  0  0  0
    3.1719   -0.7581   -1.4579 C   0  0  0  0  0  0  0  0  0  0  0  0
    2.1449   -0.2452   -0.6957 C   0  0  0  0  0  0  0  0  0  0  0  0
    2.4571    0.7031    0.2558 C   0  0  0  0  0  0  0  0  0  0  0  0
    0.7579   -0.6984   -0.8943 C   0  0  0  0  0  0  0  0  0  0  0  0
   -0.2878   -0.2626   -0.2109 N   0  0  0  0  0  0  0  0  0  0  0  0
   -1.3713   -0.8984   -0.6679 C   0  0  0  0  0  0  0  0  0  0  0  0
   -0.9546   -1.7469   -1.6632 C   0  0  0  0  0  0  0  0  0  0  0  0
    0.3475   -1.5858   -1.7601 O   0  0  0  0  0  0  0  0  0  0  0  0
   -2.7282   -0.6968   -0.1711 C   0  0  0  0  0  0  0  0  0  0  0  0
   -3.7787   -1.4185   -0.7270 C   0  0  0  0  0  0  0  0  0  0  0  0
   -5.0670   -1.2418   -0.2710 C   0  0  0  0  0  0  0  0  0  0  0  0
   -5.3471   -0.3622    0.7295 C   0  0  0  0  0  0  0  0  0  0  0  0
   -4.2893    0.3503    1.2739 C   0  0  0  0  0  0  0  0  0  0  0  0
   -3.0020    0.1982    0.8445 C   0  0  0  0  0  0  0  0  0  0  0  0
   -1.9064    0.9135    1.3843 N   0  0  0  0  0  0  0  0  0  0  0  0
    4.0386    3.1985    1.0512 H   0  0  0  0  0  0  0  0  0  0  0  0
    3.1891    2.1612    2.3150 H   0  0  0  0  0  0  0  0  0  0  0  0
    5.0030    2.0029    1.9814 H   0  0  0  0  0  0  0  0  0  0  0  0
    5.7724    0.9572   -0.1580 H   0  0  0  0  0  0  0  0  0  0  0  0
    5.2590   -0.7073   -1.8353 H   0  0  0  0  0  0  0  0  0  0  0  0
    2.9396   -1.5022   -2.2070 H   0  0  0  0  0  0  0  0  0  0  0  0
    1.6458    1.1128    0.8627 H   0  0  0  0  0  0  0  0  0  0  0  0
   -1.6014   -2.4027   -2.2321 H   0  0  0  0  0  0  0  0  0  0  0  0
   -3.5586   -2.1302   -1.5351 H   0  0  0  0  0  0  0  0  0  0  0  0
   -5.8619   -1.8321   -0.7391 H   0  0  0  0  0  0  0  0  0  0  0  0
   -6.3619   -0.2362    1.0745 H   0  0  0  0  0  0  0  0  0  0  0  0
   -4.4840    1.0653    2.0803 H   0  0  0  0  0  0  0  0  0  0  0  0
   -1.3809    0.4854    2.1670 H   0  0  0  0  0  0  0  0  0  0  0  0
   -1.6646    1.8372    0.9834 H   0  0  0  0  0  0  0  0  0  0  0  0
  1  2  1  0
  2  3  2  0
  3  4  1  0
  4  5  2  0
  5  6  1  0
  6  7  2  0
  6  8  1  0
  8  9  2  0
  9 10  1  0
 10 11  2  0
 11 12  1  0
 10 13  1  0
 13 14  2  0
 14 15  1  0
 15 16  2  0
 16 17  1  0
 17 18  2  0
 18 19  1  0
  7  2  1  0
 12  8  1  0
 18 13  1  0
  1 20  1  0
  1 21  1  0
  1 22  1  0
  3 23  1  0
  4 24  1  0
  5 25  1  0
  7 26  1  0
 11 27  1  0
 14 28  1  0
 15 29  1  0
 16 30  1  0
 17 31  1  0
 19 32  1  0
 19 33  1  0
M  END
$$$$
[H]c1nc([H])c(C([H])([H])C([H])([H])N([H])C(=O)N([H])c2c([H])c([H])c([H])c([N+](=O)[O-])c2[H])c([H])c1[H]
     RDKit          3D

 35 36  0  0  0  0  0  0  0  0999 V2000
   -6.7815    0.3057    2.6677 O   0  0  0  0  0  0  0  0  0  0  0  0
   -5.5259    0.4999    2.1862 N   0  0  0  0  0  0  0  0  0  0  0  0
   -5.1100    1.6382    1.9790 O   0  0  0  0  0  0  0  0  0  0  0  0
   -4.6980   -0.6183    1.9234 C   0  0  0  0  0  0  0  0  0  0  0  0
   -5.1691   -1.8837    2.1454 C   0  0  0  0  0  0  0  0  0  0  0  0
   -4.3808   -2.9717    1.8864 C   0  0  0  0  0  0  0  0  0  0  0  0
   -3.1058   -2.8203    1.3995 C   0  0  0  0  0  0  0  0  0  0  0  0
   -2.5899   -1.5245    1.1584 C   0  0  0  0  0  0  0  0  0  0  0  0
   -1.2856   -1.3947    0.6657 N   0  0  0  0  0  0  0  0  0  0  0  0
   -0.9414   -0.2919   -0.2085 C   0  0  0  0  0  0  0  0  0  0  0  0
   -1.8904    0.5395   -0.4875 O   0  0  0  0  0  0  0  0  0  0  0  0
    0.3199   -0.2112   -0.6708 N   0  0  0  0  0  0  0  0  0  0  0  0
    1.6011   -0.1287   -1.1408 C   0  0  0  0  0  0  0  0  0  0  0  0
    2.2300    1.1888   -0.6248 C   0  0  0  0  0  0  0  0  0  0  0  0
    3.6128    1.3576   -1.0864 C   0  0  0  0  0  0  0  0  0  0  0  0
    3.9086    1.9634   -2.2918 C   0  0  0  0  0  0  0  0  0  0  0  0
    5.2114    2.1195   -2.6889 C   0  0  0  0  0  0  0  0  0  0  0  0
    6.2644    1.6885   -1.9178 C   0  0  0  0  0  0  0  0  0  0  0  0
    5.9688    1.1042   -0.7552 N   0  0  0  0  0  0  0  0  0  0  0  0
    4.6921    0.9296   -0.3243 C   0  0  0  0  0  0  0  0  0  0  0  0
   -3.3917   -0.4594    1.4250 C   0  0  0  0  0  0  0  0  0  0  0  0
   -6.1849   -2.0299    2.5302 H   0  0  0  0  0  0  0  0  0  0  0  0
   -4.8063   -3.9696    2.0798 H   0  0  0  0  0  0  0  0  0  0  0  0
   -2.4583   -3.6513    1.1922 H   0  0  0  0  0  0  0  0  0  0  0  0
   -0.5210   -2.0985    0.9138 H   0  0  0  0  0  0  0  0  0  0  0  0
   -0.0289    0.9083   -1.4225 H   0  0  0  0  0  0  0  0  0  0  0  0
    1.7885   -0.1945   -2.2430 H   0  0  0  0  0  0  0  0  0  0  0  0
    2.2286   -0.9530   -0.6541 H   0  0  0  0  0  0  0  0  0  0  0  0
    2.1741    1.1550    0.5083 H   0  0  0  0  0  0  0  0  0  0  0  0
    1.6157    2.0425   -0.9591 H   0  0  0  0  0  0  0  0  0  0  0  0
    3.0774    2.3109   -2.9247 H   0  0  0  0  0  0  0  0  0  0  0  0
    5.4143    2.6015   -3.6363 H   0  0  0  0  0  0  0  0  0  0  0  0
    7.2996    1.8251   -2.2622 H   0  0  0  0  0  0  0  0  0  0  0  0
    4.5703    0.4508    0.6174 H   0  0  0  0  0  0  0  0  0  0  0  0
   -3.1082    0.5723    1.3191 H   0  0  0  0  0  0  0  0  0  0  0  0
  1  2  1  0
  2  3  2  0
  2  4  1  0
  4  5  2  0
  5  6  1  0
  6  7  2  0
  7  8  1  0
  8  9  1  0
  9 10  1  0
 10 11  2  0
 10 12  1  0
 12 13  1  0
 13 14  1  0
 14 15  1  0
 15 16  2  0
 16 17  1  0
 17 18  2  0
 18 19  1  0
 19 20  2  0
  8 21  2  0
 21  4  1  0
 20 15  1  0
  5 22  1  0
  6 23  1  0
  7 24  1  0
  9 25  1  0
 12 26  1  0
 13 27  1  0
 13 28  1  0
 14 29  1  0
 14 30  1  0
 16 31  1  0
 17 32  1  0
 18 33  1  0
 20 34  1  0
 21 35  1  0
M  CHG  2   1  -1   2   1
M  END
$$$$
[H]c1nc([C@]2(C#N)[C@@]([H])(c3c([H])c([H])c([H])c(Cl)c3F)[C@]([H])(C(=O)N([H])c3c([H])c([H])c(C(=O)OC([H])(C([H])([H])[H])C([H])([H])[H])c([H])c3OC([H])([H])[H])N([H])[C@]2([H])C([H])([H])C(C([H])([H])[H])(C([H])([H])[H])C([H])([H])[H])c([H])c([H])c1Cl
     RDKit          3D

 79 82  0  0  0  0  0  0  0  0999 V2000
    2.3718   -3.6088   -0.7778 C   0  0  0  0  0  0  0  0  0  0  0  0
    2.0578   -2.2790   -0.5160 O   0  0  0  0  0  0  0  0  0  0  0  0
    2.9297   -1.2634   -0.1824 C   0  0  0  0  0  0  0  0  0  0  0  0
    4.2846   -1.4943   -0.0722 C   0  0  0  0  0  0  0  0  0  0  0  0
    5.1597   -0.4841    0.2603 C   0  0  0  0  0  0  0  0  0  0  0  0
    4.6705    0.7604    0.4869 C   0  0  0  0  0  0  0  0  0  0  0  0
    3.2867    0.9988    0.3767 C   0  0  0  0  0  0  0  0  0  0  0  0
    2.4004    0.0188    0.0459 C   0  0  0  0  0  0  0  0  0  0  0  0
    1.0125    0.2582   -0.1874 N   0  0  0  0  0  0  0  0  0  0  0  0
    0.2529    1.3328    0.1698 C   0  0  0  0  0  0  0  0  0  0  0  0
    0.8105    2.2643    0.8776 O   0  0  0  0  0  0  0  0  0  0  0  0
   -1.1367    1.6049   -0.1356 C   0  0  2  0  0  0  0  0  0  0  0  0
   -1.8620    1.9860    1.0562 N   0  0  0  0  0  0  0  0  0  0  0  0
   -3.2680    1.7456    0.8498 C   0  0  2  0  0  0  0  0  0  0  0  0
   -4.0116    1.1068    1.8857 C   0  0  0  0  0  0  0  0  0  0  0  0
   -3.8929   -0.1975    2.4900 C   0  0  0  0  0  0  0  0  0  0  0  0
   -5.0015   -0.2610    3.6238 C   0  0  0  0  0  0  0  0  0  0  0  0
   -4.4010   -1.3594    1.6395 C   0  0  0  0  0  0  0  0  0  0  0  0
   -2.6784   -0.6376    3.1889 C   0  0  0  0  0  0  0  0  0  0  0  0
   -3.2942    1.2698   -0.6111 C   0  0  1  0  0  0  0  0  0  0  0  0
   -3.1362    2.6199   -1.3682 C   0  0  0  0  0  0  0  0  0  0  0  0
   -3.0478    3.6508   -1.9391 N   0  0  0  0  0  0  0  0  0  0  0  0
   -2.0400    0.5250   -0.7012 C   0  0  1  0  0  0  0  0  0  0  0  0
   -1.5375    0.0613   -1.9943 C   0  0  0  0  0  0  0  0  0  0  0  0
   -0.9260    0.8752   -2.9427 C   0  0  0  0  0  0  0  0  0  0  0  0
   -0.5251    0.4114   -4.1784 C   0  0  0  0  0  0  0  0  0  0  0  0
   -0.7153   -0.8906   -4.5294 C   0  0  0  0  0  0  0  0  0  0  0  0
   -1.3151   -1.7304   -3.6246 C   0  0  0  0  0  0  0  0  0  0  0  0
   -1.5351   -3.4054   -4.1041 Cl  0  0  0  0  0  0  0  0  0  0  0  0
   -1.7070   -1.2490   -2.3955 C   0  0  0  0  0  0  0  0  0  0  0  0
   -2.2214   -2.2145   -1.5616 F   0  0  0  0  0  0  0  0  0  0  0  0
   -4.5975    0.8825   -1.0595 C   0  0  0  0  0  0  0  0  0  0  0  0
   -5.0590   -0.0455   -1.9268 C   0  0  0  0  0  0  0  0  0  0  0  0
   -6.4080   -0.2195   -2.2586 C   0  0  0  0  0  0  0  0  0  0  0  0
   -7.3548    0.5933   -1.6812 C   0  0  0  0  0  0  0  0  0  0  0  0
   -9.0370    0.4201   -2.0553 Cl  0  0  0  0  0  0  0  0  0  0  0  0
   -6.8796    1.5368   -0.7993 C   0  0  0  0  0  0  0  0  0  0  0  0
   -5.6042    1.6828   -0.5013 N   0  0  0  0  0  0  0  0  0  0  0  0
    6.6134   -0.7355    0.3425 C   0  0  0  0  0  0  0  0  0  0  0  0
    7.0698   -1.9177    0.1769 O   0  0  0  0  0  0  0  0  0  0  0  0
    7.5247    0.2613    0.5850 O   0  0  0  0  0  0  0  0  0  0  0  0
    8.9232    0.0643    0.6616 C   0  0  0  0  0  0  0  0  0  0  0  0
    9.5661    0.5481    1.9054 C   0  0  0  0  0  0  0  0  0  0  0  0
    9.6091    0.7107   -0.5367 C   0  0  0  0  0  0  0  0  0  0  0  0
    1.6897   -4.3216   -0.2679 H   0  0  0  0  0  0  0  0  0  0  0  0
    2.2909   -3.7464   -1.9011 H   0  0  0  0  0  0  0  0  0  0  0  0
    3.3942   -3.9284   -0.5180 H   0  0  0  0  0  0  0  0  0  0  0  0
    4.7313   -2.4789   -0.2391 H   0  0  0  0  0  0  0  0  0  0  0  0
    5.3671    1.5466    0.7488 H   0  0  0  0  0  0  0  0  0  0  0  0
    3.0304    2.0289    0.5739 H   0  0  0  0  0  0  0  0  0  0  0  0
    0.5336   -0.5562   -0.6832 H   0  0  0  0  0  0  0  0  0  0  0  0
   -1.1749    2.4804   -0.8758 H   0  0  0  0  0  0  0  0  0  0  0  0
   -1.4942    1.5077    1.9130 H   0  0  0  0  0  0  0  0  0  0  0  0
   -3.6385    2.8469    0.8236 H   0  0  0  0  0  0  0  0  0  0  0  0
   -5.1268    1.2879    1.7750 H   0  0  0  0  0  0  0  0  0  0  0  0
   -3.9018    1.8340    2.8306 H   0  0  0  0  0  0  0  0  0  0  0  0
   -5.9594    0.0799    3.1910 H   0  0  0  0  0  0  0  0  0  0  0  0
   -5.0636   -1.2983    3.9758 H   0  0  0  0  0  0  0  0  0  0  0  0
   -4.6993    0.4419    4.4252 H   0  0  0  0  0  0  0  0  0  0  0  0
   -4.6171   -2.2433    2.2729 H   0  0  0  0  0  0  0  0  0  0  0  0
   -3.8187   -1.5710    0.7626 H   0  0  0  0  0  0  0  0  0  0  0  0
   -5.4180   -1.0353    1.2819 H   0  0  0  0  0  0  0  0  0  0  0  0
   -2.9274   -1.6597    3.6401 H   0  0  0  0  0  0  0  0  0  0  0  0
   -1.8123   -0.8754    2.5319 H   0  0  0  0  0  0  0  0  0  0  0  0
   -2.4060   -0.0441    4.0888 H   0  0  0  0  0  0  0  0  0  0  0  0
   -1.9985   -0.2884    0.0197 H   0  0  0  0  0  0  0  0  0  0  0  0
   -0.7570    1.8905   -2.7002 H   0  0  0  0  0  0  0  0  0  0  0  0
   -0.0496    1.1197   -4.8828 H   0  0  0  0  0  0  0  0  0  0  0  0
   -0.3914   -1.2259   -5.5081 H   0  0  0  0  0  0  0  0  0  0  0  0
   -4.3935   -0.6977   -2.4280 H   0  0  0  0  0  0  0  0  0  0  0  0
   -6.6632   -0.9995   -2.9724 H   0  0  0  0  0  0  0  0  0  0  0  0
   -7.6616    2.1760   -0.3543 H   0  0  0  0  0  0  0  0  0  0  0  0
    9.0820   -1.0358    0.5580 H   0  0  0  0  0  0  0  0  0  0  0  0
    9.4698   -0.2364    2.6928 H   0  0  0  0  0  0  0  0  0  0  0  0
    9.0518    1.5046    2.2237 H   0  0  0  0  0  0  0  0  0  0  0  0
   10.6553    0.7832    1.7249 H   0  0  0  0  0  0  0  0  0  0  0  0
    8.8714    1.2751   -1.1494 H   0  0  0  0  0  0  0  0  0  0  0  0
   10.4565    1.3515   -0.2711 H   0  0  0  0  0  0  0  0  0  0  0  0
    9.9985   -0.1090   -1.1723 H   0  0  0  0  0  0  0  0  0  0  0  0
  1  2  1  0
  2  3  1  0
  3  4  2  0
  4  5  1  0
  5  6  2  0
  6  7  1  0
  7  8  2  0
  8  9  1  0
  9 10  1  0
 10 11  2  0
 10 12  1  0
 12 13  1  0
 13 14  1  0
 14 15  1  0
 15 16  1  0
 16 17  1  0
 16 18  1  0
 16 19  1  0
 14 20  1  0
 20 21  1  6
 21 22  3  0
 20 23  1  0
 23 24  1  0
 24 25  2  0
 25 26  1  0
 26 27  2  0
 27 28  1  0
 28 29  1  0
 28 30  2  0
 30 31  1  0
 20 32  1  0
 32 33  2  0
 33 34  1  0
 34 35  2  0
 35 36  1  0
 35 37  1  0
 37 38  2  0
  5 39  1  0
 39 40  2  0
 39 41  1  0
 41 42  1  0
 42 43  1  0
 42 44  1  0
  8  3  1  0
 23 12  1  0
 30 24  1  0
 38 32  1  0
  1 45  1  0
  1 46  1  0
  1 47  1  0
  4 48  1  0
  6 49  1  0
  7 50  1  0
  9 51  1  0
 12 52  1  6
 13 53  1  0
 14 54  1  6
 15 55  1  0
 15 56  1  0
 17 57  1  0
 17 58  1  0
 17 59  1  0
 18 60  1  0
 18 61  1  0
 18 62  1  0
 19 63  1  0
 19 64  1  0
 19 65  1  0
 23 66  1  1
 25 67  1  0
 26 68  1  0
 27 69  1  0
 33 70  1  0
 34 71  1  0
 37 72  1  0
 42 73  1  0
 43 74  1  0
 43 75  1  0
 43 76  1  0
 44 77  1  0
 44 78  1  0
 44 79  1  0
M  END
$$$$
[H]c1nc([H])c(C([H])([H])N([H])C(=O)c2nc3c(N([H])[H])nc4c([H])c([H])c([H])c([H])c4c3c(C#N)c2C([H])([H])[H])c([H])n1
     RDKit          3D

 43 46  0  0  0  0  0  0  0  0999 V2000
    0.3713   -2.0457   -1.3801 C   0  0  0  0  0  0  0  0  0  0  0  0
   -0.3547   -0.9617   -0.7081 C   0  0  0  0  0  0  0  0  0  0  0  0
    0.3063    0.1838   -0.4456 C   0  0  0  0  0  0  0  0  0  0  0  0
   -0.4276    1.1111    0.2289 N   0  0  0  0  0  0  0  0  0  0  0  0
   -1.6831    0.9645    0.6213 C   0  0  0  0  0  0  0  0  0  0  0  0
   -2.3406    1.9612    1.2829 C   0  0  0  0  0  0  0  0  0  0  0  0
   -1.6135    3.1615    1.5433 N   0  0  0  0  0  0  0  0  0  0  0  0
   -3.5934    1.8126    1.6610 N   0  0  0  0  0  0  0  0  0  0  0  0
   -4.2707    0.6846    1.4163 C   0  0  0  0  0  0  0  0  0  0  0  0
   -5.5728    0.5625    1.8486 C   0  0  0  0  0  0  0  0  0  0  0  0
   -6.2800   -0.5914    1.6299 C   0  0  0  0  0  0  0  0  0  0  0  0
   -5.6858   -1.6344    0.9760 C   0  0  0  0  0  0  0  0  0  0  0  0
   -4.3560   -1.5309    0.5250 C   0  0  0  0  0  0  0  0  0  0  0  0
   -3.6667   -0.3850    0.7428 C   0  0  0  0  0  0  0  0  0  0  0  0
   -2.3523   -0.2454    0.3335 C   0  0  0  0  0  0  0  0  0  0  0  0
   -1.7048   -1.2260   -0.3362 C   0  0  0  0  0  0  0  0  0  0  0  0
   -2.2383   -2.4581   -0.7856 C   0  0  0  0  0  0  0  0  0  0  0  0
   -2.6272   -3.4936   -1.2090 N   0  0  0  0  0  0  0  0  0  0  0  0
    1.6295    0.5847   -0.8146 C   0  0  0  0  0  0  0  0  0  0  0  0
    2.1467    1.6110   -0.1769 O   0  0  0  0  0  0  0  0  0  0  0  0
    2.5289    0.0905   -1.7615 N   0  0  0  0  0  0  0  0  0  0  0  0
    3.8440    0.6545   -1.9697 C   0  0  0  0  0  0  0  0  0  0  0  0
    4.8078    0.2898   -0.9312 C   0  0  0  0  0  0  0  0  0  0  0  0
    6.0961    0.7741   -1.0510 C   0  0  0  0  0  0  0  0  0  0  0  0
    7.0521    0.4871   -0.1355 N   0  0  0  0  0  0  0  0  0  0  0  0
    6.7761   -0.2819    0.9238 C   0  0  0  0  0  0  0  0  0  0  0  0
    5.5258   -0.7615    1.0547 N   0  0  0  0  0  0  0  0  0  0  0  0
    4.5501   -0.4981    0.1663 C   0  0  0  0  0  0  0  0  0  0  0  0
    1.3883   -2.2376   -0.9230 H   0  0  0  0  0  0  0  0  0  0  0  0
   -0.1340   -3.0391   -1.1481 H   0  0  0  0  0  0  0  0  0  0  0  0
    0.3645   -2.0223   -2.4742 H   0  0  0  0  0  0  0  0  0  0  0  0
   -2.0820    3.9248    2.0820 H   0  0  0  0  0  0  0  0  0  0  0  0
   -0.6533    3.3156    1.2295 H   0  0  0  0  0  0  0  0  0  0  0  0
   -6.0485    1.4008    2.3748 H   0  0  0  0  0  0  0  0  0  0  0  0
   -7.2942   -0.7002    1.9597 H   0  0  0  0  0  0  0  0  0  0  0  0
   -6.2176   -2.5457    0.7952 H   0  0  0  0  0  0  0  0  0  0  0  0
   -3.9801   -2.3728    0.0778 H   0  0  0  0  0  0  0  0  0  0  0  0
    2.2928   -0.6884   -2.3723 H   0  0  0  0  0  0  0  0  0  0  0  0
    3.7415    1.7804   -1.9806 H   0  0  0  0  0  0  0  0  0  0  0  0
    4.2725    0.4028   -2.9482 H   0  0  0  0  0  0  0  0  0  0  0  0
    6.3822    1.4076   -1.8953 H   0  0  0  0  0  0  0  0  0  0  0  0
    7.5292   -0.5306    1.6823 H   0  0  0  0  0  0  0  0  0  0  0  0
    3.5712   -0.8875    0.2912 H   0  0  0  0  0  0  0  0  0  0  0  0
  1  2  1  0
  2  3  2  0
  3  4  1  0
  4  5  2  0
  5  6  1  0
  6  7  1  0
  6  8  2  0
  8  9  1  0
  9 10  2  0
 10 11  1  0
 11 12  2  0
 12 13  1  0
 13 14  2  0
 14 15  1  0
 15 16  2  0
 16 17  1  0
 17 18  3  0
  3 19  1  0
 19 20  2  0
 19 21  1  0
 21 22  1  0
 22 23  1  0
 23 24  2  0
 24 25  1  0
 25 26  2  0
 26 27  1  0
 27 28  2  0
 16  2  1  0
 28 23  1  0
 15  5  1  0
 14  9  1  0
  1 29  1  0
  1 30  1  0
  1 31  1  0
  7 32  1  0
  7 33  1  0
 10 34  1  0
 11 35  1  0
 12 36  1  0
 13 37  1  0
 21 38  1  0
 22 39  1  0
 22 40  1  0
 24 41  1  0
 26 42  1  0
 28 43  1  0
M  END
$$$$
[H]OC(c1c([H])c([H])c([H])c(-c2c([H])c([H])c(OC([H])([H])c3nnnn3[H])c([H])c2[H])c1[H])(C([H])([H])[H])C([H])([H])[H]
     RDKit          3D

 41 43  0  0  0  0  0  0  0  0999 V2000
   -4.2012    2.2197    0.4883 C   0  0  0  0  0  0  0  0  0  0  0  0
   -4.2753    0.7566    0.8593 C   0  0  0  0  0  0  0  0  0  0  0  0
   -5.7095    0.2802    0.9268 C   0  0  0  0  0  0  0  0  0  0  0  0
   -3.7052    0.6281    2.1531 O   0  0  0  0  0  0  0  0  0  0  0  0
   -3.4588   -0.0887   -0.0315 C   0  0  0  0  0  0  0  0  0  0  0  0
   -4.0420   -1.0115   -0.8647 C   0  0  0  0  0  0  0  0  0  0  0  0
   -3.2238   -1.7993   -1.6792 C   0  0  0  0  0  0  0  0  0  0  0  0
   -1.8526   -1.6445   -1.6407 C   0  0  0  0  0  0  0  0  0  0  0  0
   -1.2343   -0.7287   -0.8190 C   0  0  0  0  0  0  0  0  0  0  0  0
   -2.0755    0.0452   -0.0164 C   0  0  0  0  0  0  0  0  0  0  0  0
    0.2108   -0.5435   -0.7473 C   0  0  0  0  0  0  0  0  0  0  0  0
    1.0232   -0.7551   -1.8453 C   0  0  0  0  0  0  0  0  0  0  0  0
    2.4001   -0.5918   -1.8060 C   0  0  0  0  0  0  0  0  0  0  0  0
    2.9827   -0.1954   -0.5981 C   0  0  0  0  0  0  0  0  0  0  0  0
    4.3400   -0.0356   -0.5746 O   0  0  0  0  0  0  0  0  0  0  0  0
    5.0236    0.3474    0.5946 C   0  0  0  0  0  0  0  0  0  0  0  0
    6.4672    0.4429    0.2924 C   0  0  0  0  0  0  0  0  0  0  0  0
    7.2341    1.5532    0.1935 N   0  0  0  0  0  0  0  0  0  0  0  0
    8.4822    1.2060   -0.0983 N   0  0  0  0  0  0  0  0  0  0  0  0
    8.5113   -0.1190   -0.1860 N   0  0  0  0  0  0  0  0  0  0  0  0
    7.2881   -0.5887    0.0509 N   0  0  0  0  0  0  0  0  0  0  0  0
    2.2015    0.0178    0.4987 C   0  0  0  0  0  0  0  0  0  0  0  0
    0.8204   -0.1574    0.4144 C   0  0  0  0  0  0  0  0  0  0  0  0
   -3.3449    2.6803    0.9702 H   0  0  0  0  0  0  0  0  0  0  0  0
   -5.1450    2.6910    0.8961 H   0  0  0  0  0  0  0  0  0  0  0  0
   -4.1611    2.3737   -0.6049 H   0  0  0  0  0  0  0  0  0  0  0  0
   -5.7237   -0.7531    1.3280 H   0  0  0  0  0  0  0  0  0  0  0  0
   -6.2264    0.9572    1.6465 H   0  0  0  0  0  0  0  0  0  0  0  0
   -6.2176    0.4090   -0.0504 H   0  0  0  0  0  0  0  0  0  0  0  0
   -3.7506   -0.3460    2.3859 H   0  0  0  0  0  0  0  0  0  0  0  0
   -5.1113   -1.1033   -0.8705 H   0  0  0  0  0  0  0  0  0  0  0  0
   -3.7104   -2.5162   -2.3300 H   0  0  0  0  0  0  0  0  0  0  0  0
   -1.2037   -2.2543   -2.2786 H   0  0  0  0  0  0  0  0  0  0  0  0
   -1.5841    0.7580    0.6263 H   0  0  0  0  0  0  0  0  0  0  0  0
    0.5644   -1.0717   -2.7674 H   0  0  0  0  0  0  0  0  0  0  0  0
    3.0352   -0.7453   -2.6519 H   0  0  0  0  0  0  0  0  0  0  0  0
    4.8040   -0.3881    1.3890 H   0  0  0  0  0  0  0  0  0  0  0  0
    4.6763    1.3559    0.9767 H   0  0  0  0  0  0  0  0  0  0  0  0
    7.0521   -1.6149    0.0485 H   0  0  0  0  0  0  0  0  0  0  0  0
    2.6579    0.3167    1.4182 H   0  0  0  0  0  0  0  0  0  0  0  0
    0.1821    0.0126    1.2850 H   0  0  0  0  0  0  0  0  0  0  0  0
  1  2  1  0
  2  3  1  0
  2  4  1  0
  2  5  1  0
  5  6  2  0
  6  7  1  0
  7  8  2  0
  8  9  1  0
  9 10  2  0
  9 11  1  0
 11 12  2  0
 12 13  1  0
 13 14  2  0
 14 15  1  0
 15 16  1  0
 16 17  1  0
 17 18  2  0
 18 19  1  0
 19 20  2  0
 20 21  1  0
 14 22  1  0
 22 23  2  0
 10  5  1  0
 23 11  1  0
 21 17  1  0
  1 24  1  0
  1 25  1  0
  1 26  1  0
  3 27  1  0
  3 28  1  0
  3 29  1  0
  4 30  1  0
  6 31  1  0
  7 32  1  0
  8 33  1  0
 10 34  1  0
 12 35  1  0
 13 36  1  0
 16 37  1  0
 16 38  1  0
 21 39  1  0
 22 40  1  0
 23 41  1  0
M  END
$$$$
