[H]c1nc(OC2([H])C([H])([H])C([H])([H])N(C(=O)N([H])[C@@]3([H])C([H])([H])[C@]3([H])c3c([H])c([H])c([H])c([H])c3[H])C([H])([H])C2([H])[H])nc([H])c1[H]
     RDKit          3D

 47 50  0  0  0  0  0  0  0  0999 V2000
   -1.0234    1.2613   -1.7409 O   0  0  0  0  0  0  0  0  0  0  0  0
   -0.6125    0.1416   -1.2837 C   0  0  0  0  0  0  0  0  0  0  0  0
   -1.5970   -0.7746   -0.8594 N   0  0  0  0  0  0  0  0  0  0  0  0
   -2.9989   -0.4512   -0.9396 C   0  0  1  0  0  0  0  0  0  0  0  0
   -3.9693   -1.5809   -1.3114 C   0  0  0  0  0  0  0  0  0  0  0  0
   -3.9456   -1.0297    0.0836 C   0  0  2  0  0  0  0  0  0  0  0  0
   -5.0673   -0.2119    0.5821 C   0  0  0  0  0  0  0  0  0  0  0  0
   -5.7275    0.6288   -0.2805 C   0  0  0  0  0  0  0  0  0  0  0  0
   -6.7797    1.4014    0.1664 C   0  0  0  0  0  0  0  0  0  0  0  0
   -7.1691    1.3331    1.4683 C   0  0  0  0  0  0  0  0  0  0  0  0
   -6.5096    0.4861    2.3528 C   0  0  0  0  0  0  0  0  0  0  0  0
   -5.4499   -0.2892    1.8940 C   0  0  0  0  0  0  0  0  0  0  0  0
    0.8006   -0.1370   -1.2208 N   0  0  0  0  0  0  0  0  0  0  0  0
    1.6925    0.8961   -1.7051 C   0  0  0  0  0  0  0  0  0  0  0  0
    3.0330    0.1942   -1.9559 C   0  0  0  0  0  0  0  0  0  0  0  0
    3.4305   -0.3435   -0.5935 C   0  0  0  0  0  0  0  0  0  0  0  0
    2.6224   -1.5584   -0.3119 C   0  0  0  0  0  0  0  0  0  0  0  0
    1.1955   -1.4001   -0.6867 C   0  0  0  0  0  0  0  0  0  0  0  0
    4.8183   -0.5441   -0.4906 O   0  0  0  0  0  0  0  0  0  0  0  0
    5.6599    0.1037    0.3510 C   0  0  0  0  0  0  0  0  0  0  0  0
    5.2026    1.0353    1.1926 N   0  0  0  0  0  0  0  0  0  0  0  0
    6.0707    1.6650    2.0215 C   0  0  0  0  0  0  0  0  0  0  0  0
    7.4253    1.3708    2.0234 C   0  0  0  0  0  0  0  0  0  0  0  0
    7.8669    0.4061    1.1450 C   0  0  0  0  0  0  0  0  0  0  0  0
    6.9645   -0.1807    0.3519 N   0  0  0  0  0  0  0  0  0  0  0  0
   -1.3113   -1.6958   -0.4856 H   0  0  0  0  0  0  0  0  0  0  0  0
   -3.2974    0.5512   -1.3332 H   0  0  0  0  0  0  0  0  0  0  0  0
   -3.5053   -2.5611   -1.4670 H   0  0  0  0  0  0  0  0  0  0  0  0
   -4.8110   -1.3072   -1.9802 H   0  0  0  0  0  0  0  0  0  0  0  0
   -3.4458   -1.6737    0.8493 H   0  0  0  0  0  0  0  0  0  0  0  0
   -5.4470    0.7127   -1.3303 H   0  0  0  0  0  0  0  0  0  0  0  0
   -7.2875    2.0589   -0.5319 H   0  0  0  0  0  0  0  0  0  0  0  0
   -8.0010    1.9286    1.8694 H   0  0  0  0  0  0  0  0  0  0  0  0
   -6.7966    0.4119    3.3900 H   0  0  0  0  0  0  0  0  0  0  0  0
   -4.9442   -0.9463    2.5961 H   0  0  0  0  0  0  0  0  0  0  0  0
    1.8810    1.5740   -0.8276 H   0  0  0  0  0  0  0  0  0  0  0  0
    1.3292    1.4221   -2.5846 H   0  0  0  0  0  0  0  0  0  0  0  0
    3.7806    0.8616   -2.3827 H   0  0  0  0  0  0  0  0  0  0  0  0
    2.7962   -0.6549   -2.6341 H   0  0  0  0  0  0  0  0  0  0  0  0
    3.1626    0.4390    0.1550 H   0  0  0  0  0  0  0  0  0  0  0  0
    2.7320   -1.7967    0.7735 H   0  0  0  0  0  0  0  0  0  0  0  0
    3.0370   -2.4094   -0.9156 H   0  0  0  0  0  0  0  0  0  0  0  0
    0.8430   -2.1792   -1.4159 H   0  0  0  0  0  0  0  0  0  0  0  0
    0.5666   -1.5834    0.2295 H   0  0  0  0  0  0  0  0  0  0  0  0
    5.7571    2.4314    2.7269 H   0  0  0  0  0  0  0  0  0  0  0  0
    8.1324    1.8484    2.6629 H   0  0  0  0  0  0  0  0  0  0  0  0
    8.8966    0.1456    1.1090 H   0  0  0  0  0  0  0  0  0  0  0  0
  1  2  2  0
  2  3  1  0
  3  4  1  0
  4  5  1  0
  5  6  1  0
  6  7  1  0
  7  8  2  0
  8  9  1  0
  9 10  2  0
 10 11  1  0
 11 12  2  0
  2 13  1  0
 13 14  1  0
 14 15  1  0
 15 16  1  0
 16 17  1  0
 17 18  1  0
 16 19  1  0
 19 20  1  0
 20 21  2  0
 21 22  1  0
 22 23  2  0
 23 24  1  0
 24 25  2  0
  6  4  1  0
 12  7  1  0
 18 13  1  0
 25 20  1  0
  3 26  1  0
  4 27  1  6
  5 28  1  0
  5 29  1  0
  6 30  1  1
  8 31  1  0
  9 32  1  0
 10 33  1  0
 11 34  1  0
 12 35  1  0
 14 36  1  0
 14 37  1  0
 15 38  1  0
 15 39  1  0
 16 40  1  0
 17 41  1  0
 17 42  1  0
 18 43  1  0
 18 44  1  0
 22 45  1  0
 23 46  1  0
 24 47  1  0
M  END
$$$$
[H]c1c([H])c(Cl)c(-c2c([H])c3c([H])nc(N([H])c4c([H])c([H])c(N5C([H])([H])C([H])([H])N(C([H])([H])[H])C([H])([H])C5([H])[H])c(Cl)c4[H])nc3n(C([H])([H])[H])c2=O)c(Cl)c1[H]
     RDKit          3D

 58 62  0  0  0  0  0  0  0  0999 V2000
   -8.7668   -0.7297   -1.6373 C   0  0  0  0  0  0  0  0  0  0  0  0
   -8.1936   -0.2056   -0.4380 N   0  0  0  0  0  0  0  0  0  0  0  0
   -7.5282   -1.1636    0.3840 C   0  0  0  0  0  0  0  0  0  0  0  0
   -6.1106   -1.4414    0.0002 C   0  0  0  0  0  0  0  0  0  0  0  0
   -5.4023   -0.2574   -0.4356 N   0  0  0  0  0  0  0  0  0  0  0  0
   -6.1327    0.6239   -1.3574 C   0  0  0  0  0  0  0  0  0  0  0  0
   -7.4240    0.9865   -0.6210 C   0  0  0  0  0  0  0  0  0  0  0  0
   -4.0797    0.0469   -0.0058 C   0  0  0  0  0  0  0  0  0  0  0  0
   -3.7774    1.2034    0.6811 C   0  0  0  0  0  0  0  0  0  0  0  0
   -2.5053    1.4649    1.0772 C   0  0  0  0  0  0  0  0  0  0  0  0
   -1.4373    0.5885    0.8159 C   0  0  0  0  0  0  0  0  0  0  0  0
   -0.1902    0.9835    1.3108 N   0  0  0  0  0  0  0  0  0  0  0  0
    1.0366    0.6029    0.7639 C   0  0  0  0  0  0  0  0  0  0  0  0
    1.1422   -0.1741   -0.3132 N   0  0  0  0  0  0  0  0  0  0  0  0
    2.3052   -0.5582   -0.8638 C   0  0  0  0  0  0  0  0  0  0  0  0
    3.4697   -0.0988   -0.2472 C   0  0  0  0  0  0  0  0  0  0  0  0
    4.6821   -0.4649   -0.7738 C   0  0  0  0  0  0  0  0  0  0  0  0
    5.8271   -0.0064   -0.1581 C   0  0  0  0  0  0  0  0  0  0  0  0
    7.1278   -0.3825   -0.6999 C   0  0  0  0  0  0  0  0  0  0  0  0
    7.7411   -1.5283   -0.2484 C   0  0  0  0  0  0  0  0  0  0  0  0
    6.9522   -2.5105    0.9637 Cl  0  0  0  0  0  0  0  0  0  0  0  0
    8.9884   -1.8958   -0.7631 C   0  0  0  0  0  0  0  0  0  0  0  0
    9.6065   -1.1175   -1.7192 C   0  0  0  0  0  0  0  0  0  0  0  0
    8.9505    0.0203   -2.1381 C   0  0  0  0  0  0  0  0  0  0  0  0
    7.7172    0.4052   -1.6449 C   0  0  0  0  0  0  0  0  0  0  0  0
    6.8878    1.8466   -2.1766 Cl  0  0  0  0  0  0  0  0  0  0  0  0
    5.6747    0.7867    0.9421 C   0  0  0  0  0  0  0  0  0  0  0  0
    6.7369    1.2029    1.5006 O   0  0  0  0  0  0  0  0  0  0  0  0
    4.4931    1.1508    1.4653 N   0  0  0  0  0  0  0  0  0  0  0  0
    4.4057    1.9985    2.6399 C   0  0  0  0  0  0  0  0  0  0  0  0
    3.3591    0.7023    0.8633 C   0  0  0  0  0  0  0  0  0  0  0  0
    2.1752    1.0642    1.3835 N   0  0  0  0  0  0  0  0  0  0  0  0
   -1.7399   -0.5579    0.1354 C   0  0  0  0  0  0  0  0  0  0  0  0
   -3.0402   -0.8193   -0.2667 C   0  0  0  0  0  0  0  0  0  0  0  0
   -3.3733   -2.3091   -1.1404 Cl  0  0  0  0  0  0  0  0  0  0  0  0
   -8.3250   -1.6593   -2.0030 H   0  0  0  0  0  0  0  0  0  0  0  0
   -8.7180    0.0405   -2.4531 H   0  0  0  0  0  0  0  0  0  0  0  0
   -9.8731   -0.8494   -1.4441 H   0  0  0  0  0  0  0  0  0  0  0  0
   -8.0925   -2.1375    0.2947 H   0  0  0  0  0  0  0  0  0  0  0  0
   -7.5809   -0.8540    1.4479 H   0  0  0  0  0  0  0  0  0  0  0  0
   -6.1123   -2.2206   -0.8021 H   0  0  0  0  0  0  0  0  0  0  0  0
   -5.5822   -1.8050    0.9224 H   0  0  0  0  0  0  0  0  0  0  0  0
   -6.3697    0.0044   -2.2405 H   0  0  0  0  0  0  0  0  0  0  0  0
   -5.5618    1.5209   -1.5943 H   0  0  0  0  0  0  0  0  0  0  0  0
   -7.9660    1.7687   -1.1497 H   0  0  0  0  0  0  0  0  0  0  0  0
   -7.1325    1.3495    0.3989 H   0  0  0  0  0  0  0  0  0  0  0  0
   -4.6214    1.8790    0.8784 H   0  0  0  0  0  0  0  0  0  0  0  0
   -2.2991    2.4018    1.6249 H   0  0  0  0  0  0  0  0  0  0  0  0
   -0.1786    1.6233    2.1802 H   0  0  0  0  0  0  0  0  0  0  0  0
    2.3698   -1.1947   -1.7458 H   0  0  0  0  0  0  0  0  0  0  0  0
    4.7913   -1.0943   -1.6466 H   0  0  0  0  0  0  0  0  0  0  0  0
    9.4801   -2.7898   -0.4191 H   0  0  0  0  0  0  0  0  0  0  0  0
   10.5748   -1.4082   -2.1148 H   0  0  0  0  0  0  0  0  0  0  0  0
    9.4341    0.6419   -2.8954 H   0  0  0  0  0  0  0  0  0  0  0  0
    5.4065    2.4151    2.8577 H   0  0  0  0  0  0  0  0  0  0  0  0
    4.1119    1.3983    3.5383 H   0  0  0  0  0  0  0  0  0  0  0  0
    3.6341    2.7904    2.5235 H   0  0  0  0  0  0  0  0  0  0  0  0
   -0.9670   -1.2779   -0.0780 H   0  0  0  0  0  0  0  0  0  0  0  0
  1  2  1  0
  2  3  1  0
  3  4  1  0
  4  5  1  0
  5  6  1  0
  6  7  1  0
  5  8  1  0
  8  9  2  0
  9 10  1  0
 10 11  2  0
 11 12  1  0
 12 13  1  0
 13 14  2  0
 14 15  1  0
 15 16  2  0
 16 17  1  0
 17 18  2  0
 18 19  1  0
 19 20  2  0
 20 21  1  0
 20 22  1  0
 22 23  2  0
 23 24  1  0
 24 25  2  0
 25 26  1  0
 18 27  1  0
 27 28  2  0
 27 29  1  0
 29 30  1  0
 29 31  1  0
 31 32  2  0
 11 33  1  0
 33 34  2  0
 34 35  1  0
  7  2  1  0
 34  8  1  0
 32 13  1  0
 31 16  1  0
 25 19  1  0
  1 36  1  0
  1 37  1  0
  1 38  1  0
  3 39  1  0
  3 40  1  0
  4 41  1  0
  4 42  1  0
  6 43  1  0
  6 44  1  0
  7 45  1  0
  7 46  1  0
  9 47  1  0
 10 48  1  0
 12 49  1  0
 15 50  1  0
 17 51  1  0
 22 52  1  0
 23 53  1  0
 24 54  1  0
 30 55  1  0
 30 56  1  0
 30 57  1  0
 33 58  1  0
M  END
$$$$
[H]c1nc(-c2nc(-c3nc([H])c([H])c([H])c3[H])c([H])c(N3C([H])([H])C([H])([H])N(c4c([H])c(F)c([H])c(C(F)(F)F)c4[H])C([H])([H])[C@@]3([H])C([H])([H])[H])n2)c([H])c([H])c1[H]
     RDKit          3D

 58 62  0  0  0  0  0  0  0  0999 V2000
    1.2745    0.2751    2.0616 C   0  0  0  0  0  0  0  0  0  0  0  0
    0.9187   -0.4899    0.8046 C   0  0  2  0  0  0  0  0  0  0  0  0
    2.0758   -1.1384    0.1540 C   0  0  0  0  0  0  0  0  0  0  0  0
    2.7140   -0.2666   -0.8098 N   0  0  0  0  0  0  0  0  0  0  0  0
    1.9090    0.5190   -1.6906 C   0  0  0  0  0  0  0  0  0  0  0  0
    0.8955    1.3368   -0.8759 C   0  0  0  0  0  0  0  0  0  0  0  0
    0.1823    0.4227   -0.0746 N   0  0  0  0  0  0  0  0  0  0  0  0
   -1.2450    0.3297   -0.0938 C   0  0  0  0  0  0  0  0  0  0  0  0
   -1.8078   -0.9507   -0.2373 C   0  0  0  0  0  0  0  0  0  0  0  0
   -3.1641   -1.1378   -0.1741 C   0  0  0  0  0  0  0  0  0  0  0  0
   -3.9298   -0.0460    0.0281 N   0  0  0  0  0  0  0  0  0  0  0  0
   -3.4349    1.1969    0.1723 C   0  0  0  0  0  0  0  0  0  0  0  0
   -2.0755    1.3310    0.1007 N   0  0  0  0  0  0  0  0  0  0  0  0
   -4.2803    2.3513    0.4338 C   0  0  0  0  0  0  0  0  0  0  0  0
   -3.7310    3.5944    0.6106 C   0  0  0  0  0  0  0  0  0  0  0  0
   -4.5158    4.6871    0.8910 C   0  0  0  0  0  0  0  0  0  0  0  0
   -5.8788    4.5296    0.9954 C   0  0  0  0  0  0  0  0  0  0  0  0
   -6.3726    3.2585    0.8067 C   0  0  0  0  0  0  0  0  0  0  0  0
   -5.5944    2.1926    0.5326 N   0  0  0  0  0  0  0  0  0  0  0  0
   -3.6982   -2.4741   -0.2944 C   0  0  0  0  0  0  0  0  0  0  0  0
   -2.8829   -3.5869   -0.4860 C   0  0  0  0  0  0  0  0  0  0  0  0
   -3.4251   -4.8813   -0.5831 C   0  0  0  0  0  0  0  0  0  0  0  0
   -4.7607   -5.0721   -0.4929 C   0  0  0  0  0  0  0  0  0  0  0  0
   -5.5680   -3.9542   -0.3022 C   0  0  0  0  0  0  0  0  0  0  0  0
   -5.0057   -2.7244   -0.2131 N   0  0  0  0  0  0  0  0  0  0  0  0
    4.1367   -0.1715   -0.8765 C   0  0  0  0  0  0  0  0  0  0  0  0
    4.8562   -0.4427   -2.0403 C   0  0  0  0  0  0  0  0  0  0  0  0
    6.2217   -0.3496   -2.0806 C   0  0  0  0  0  0  0  0  0  0  0  0
    6.8924   -0.6164   -3.2137 F   0  0  0  0  0  0  0  0  0  0  0  0
    6.9179    0.0191   -0.9529 C   0  0  0  0  0  0  0  0  0  0  0  0
    6.2521    0.3047    0.2392 C   0  0  0  0  0  0  0  0  0  0  0  0
    4.8774    0.1968    0.2278 C   0  0  0  0  0  0  0  0  0  0  0  0
    7.0093    0.7076    1.4652 C   0  0  0  0  0  0  0  0  0  0  0  0
    7.8156   -0.3112    1.9090 F   0  0  0  0  0  0  0  0  0  0  0  0
    6.0468    1.0493    2.4020 F   0  0  0  0  0  0  0  0  0  0  0  0
    7.7356    1.8322    1.0842 F   0  0  0  0  0  0  0  0  0  0  0  0
    0.4071    0.9646    2.3033 H   0  0  0  0  0  0  0  0  0  0  0  0
    1.4282   -0.4348    2.9040 H   0  0  0  0  0  0  0  0  0  0  0  0
    2.1626    0.8795    1.8546 H   0  0  0  0  0  0  0  0  0  0  0  0
    0.1516   -1.2592    1.1429 H   0  0  0  0  0  0  0  0  0  0  0  0
    1.7114   -2.0260   -0.4283 H   0  0  0  0  0  0  0  0  0  0  0  0
    2.7645   -1.4901    0.9311 H   0  0  0  0  0  0  0  0  0  0  0  0
    2.4779    1.2615   -2.2918 H   0  0  0  0  0  0  0  0  0  0  0  0
    1.3826   -0.1643   -2.3792 H   0  0  0  0  0  0  0  0  0  0  0  0
    1.4855    2.1054   -0.3345 H   0  0  0  0  0  0  0  0  0  0  0  0
    0.2911    1.9079   -1.6251 H   0  0  0  0  0  0  0  0  0  0  0  0
   -1.0905   -1.7327   -0.4089 H   0  0  0  0  0  0  0  0  0  0  0  0
   -2.6435    3.7356    0.5277 H   0  0  0  0  0  0  0  0  0  0  0  0
   -4.0457    5.6701    1.0404 H   0  0  0  0  0  0  0  0  0  0  0  0
   -6.5095    5.4001    1.2179 H   0  0  0  0  0  0  0  0  0  0  0  0
   -7.4588    3.1317    0.8931 H   0  0  0  0  0  0  0  0  0  0  0  0
   -1.8284   -3.4451   -0.5542 H   0  0  0  0  0  0  0  0  0  0  0  0
   -2.7570   -5.7142   -0.7359 H   0  0  0  0  0  0  0  0  0  0  0  0
   -5.2500   -6.0536   -0.5606 H   0  0  0  0  0  0  0  0  0  0  0  0
   -6.6434   -4.0400   -0.2210 H   0  0  0  0  0  0  0  0  0  0  0  0
    4.2532   -0.7324   -2.8910 H   0  0  0  0  0  0  0  0  0  0  0  0
    7.9993    0.1002   -0.9598 H   0  0  0  0  0  0  0  0  0  0  0  0
    4.3512    0.4152    1.1484 H   0  0  0  0  0  0  0  0  0  0  0  0
  1  2  1  0
  2  3  1  0
  3  4  1  0
  4  5  1  0
  5  6  1  0
  6  7  1  0
  7  8  1  0
  8  9  2  0
  9 10  1  0
 10 11  2  0
 11 12  1  0
 12 13  2  0
 12 14  1  0
 14 15  2  0
 15 16  1  0
 16 17  2  0
 17 18  1  0
 18 19  2  0
 10 20  1  0
 20 21  2  0
 21 22  1  0
 22 23  2  0
 23 24  1  0
 24 25  2  0
  4 26  1  0
 26 27  2  0
 27 28  1  0
 28 29  1  0
 28 30  2  0
 30 31  1  0
 31 32  2  0
 31 33  1  0
 33 34  1  0
 33 35  1  0
 33 36  1  0
  7  2  1  0
 13  8  1  0
 19 14  1  0
 25 20  1  0
 32 26  1  0
  1 37  1  0
  1 38  1  0
  1 39  1  0
  2 40  1  1
  3 41  1  0
  3 42  1  0
  5 43  1  0
  5 44  1  0
  6 45  1  0
  6 46  1  0
  9 47  1  0
 15 48  1  0
 16 49  1  0
 17 50  1  0
 18 51  1  0
 21 52  1  0
 22 53  1  0
 23 54  1  0
 24 55  1  0
 27 56  1  0
 30 57  1  0
 32 58  1  0
M  END
$$$$
[H]c1nsc(N([H])S(=O)(=O)c2c([H])c([H])c(Oc3c([H])c([H])c(C(F)(F)F)c([H])c3C#N)c(C#N)c2[H])n1
     RDKit          3D

 38 40  0  0  0  0  0  0  0  0999 V2000
   -6.8310    1.6587    1.3498 F   0  0  0  0  0  0  0  0  0  0  0  0
   -6.6250    0.8531    0.2522 C   0  0  0  0  0  0  0  0  0  0  0  0
   -6.8318    1.5329   -0.9159 F   0  0  0  0  0  0  0  0  0  0  0  0
   -7.5422   -0.1909    0.3737 F   0  0  0  0  0  0  0  0  0  0  0  0
   -5.2149    0.3326    0.2556 C   0  0  0  0  0  0  0  0  0  0  0  0
   -4.2015    0.7988   -0.5222 C   0  0  0  0  0  0  0  0  0  0  0  0
   -2.8983    0.2652   -0.4572 C   0  0  0  0  0  0  0  0  0  0  0  0
   -2.6226   -0.7691    0.4079 C   0  0  0  0  0  0  0  0  0  0  0  0
   -1.3670   -1.3052    0.4948 O   0  0  0  0  0  0  0  0  0  0  0  0
   -0.1811   -0.8276    0.0314 C   0  0  0  0  0  0  0  0  0  0  0  0
    0.5549   -1.3598   -0.9704 C   0  0  0  0  0  0  0  0  0  0  0  0
    1.7895   -0.8101   -1.4089 C   0  0  0  0  0  0  0  0  0  0  0  0
    2.2958    0.3195   -0.8193 C   0  0  0  0  0  0  0  0  0  0  0  0
    1.5204    0.8640    0.2271 C   0  0  0  0  0  0  0  0  0  0  0  0
    0.3452    0.3319    0.6398 C   0  0  0  0  0  0  0  0  0  0  0  0
   -0.4289    0.8728    1.7470 C   0  0  0  0  0  0  0  0  0  0  0  0
   -1.0440    1.2853    2.6557 N   0  0  0  0  0  0  0  0  0  0  0  0
    3.6739    1.2108   -1.3690 S   0  0  0  0  0  0  0  0  0  0  0  0
    4.2283    0.4622   -2.6166 O   0  0  0  0  0  0  0  0  0  0  0  0
    3.1583    2.5287   -1.9310 O   0  0  0  0  0  0  0  0  0  0  0  0
    4.9294    1.4206   -0.3106 N   0  0  0  0  0  0  0  0  0  0  0  0
    5.8214    0.4905    0.2799 C   0  0  0  0  0  0  0  0  0  0  0  0
    5.9943   -0.8135    0.1997 N   0  0  0  0  0  0  0  0  0  0  0  0
    6.9494   -1.4086    0.7878 C   0  0  0  0  0  0  0  0  0  0  0  0
    7.8082   -0.6429    1.5313 N   0  0  0  0  0  0  0  0  0  0  0  0
    7.1778    0.8869    1.3288 S   0  0  0  0  0  0  0  0  0  0  0  0
   -3.6358   -1.2743    1.2093 C   0  0  0  0  0  0  0  0  0  0  0  0
   -4.8638   -0.7178    1.1078 C   0  0  0  0  0  0  0  0  0  0  0  0
   -3.3255   -2.3071    2.1745 C   0  0  0  0  0  0  0  0  0  0  0  0
   -3.0789   -3.1051    2.9656 N   0  0  0  0  0  0  0  0  0  0  0  0
   -4.4187    1.6206   -1.2135 H   0  0  0  0  0  0  0  0  0  0  0  0
   -2.1944    0.7072   -1.1225 H   0  0  0  0  0  0  0  0  0  0  0  0
    0.2438   -2.2549   -1.5336 H   0  0  0  0  0  0  0  0  0  0  0  0
    2.3360   -1.2819   -2.1967 H   0  0  0  0  0  0  0  0  0  0  0  0
    1.9297    1.7487    0.6958 H   0  0  0  0  0  0  0  0  0  0  0  0
    5.1043    2.4697    0.0043 H   0  0  0  0  0  0  0  0  0  0  0  0
    7.1455   -2.5001    0.7400 H   0  0  0  0  0  0  0  0  0  0  0  0
   -5.7009   -1.0919    1.7265 H   0  0  0  0  0  0  0  0  0  0  0  0
  1  2  1  0
  2  3  1  0
  2  4  1  0
  2  5  1  0
  5  6  2  0
  6  7  1  0
  7  8  2  0
  8  9  1  0
  9 10  1  0
 10 11  2  0
 11 12  1  0
 12 13  2  0
 13 14  1  0
 14 15  2  0
 15 16  1  0
 16 17  3  0
 13 18  1  0
 18 19  2  0
 18 20  2  0
 18 21  1  0
 21 22  1  0
 22 23  2  0
 23 24  1  0
 24 25  2  0
 25 26  1  0
  8 27  1  0
 27 28  2  0
 27 29  1  0
 29 30  3  0
 28  5  1  0
 15 10  1  0
 26 22  1  0
  6 31  1  0
  7 32  1  0
 11 33  1  0
 12 34  1  0
 14 35  1  0
 21 36  1  0
 24 37  1  0
 28 38  1  0
M  END
$$$$
[H]C([H])=C([H])C(=O)N([H])c1c([H])c(-n2c(=O)c([H])c([H])c3c([H])nc4c([H])c([H])c(-c5c([H])nn([H])c5[H])c([H])c4c32)c([H])c([H])c1C([H])([H])[H]
     RDKit          3D

 51 55  0  0  0  0  0  0  0  0999 V2000
    4.0634    0.2237   -1.0868 C   0  0  0  0  0  0  0  0  0  0  0  0
    2.7573   -0.3607   -0.6802 C   0  0  0  0  0  0  0  0  0  0  0  0
    2.1101   -1.1896   -1.5725 C   0  0  0  0  0  0  0  0  0  0  0  0
    0.9138   -1.7539   -1.2587 C   0  0  0  0  0  0  0  0  0  0  0  0
    0.3277   -1.5098   -0.0488 C   0  0  0  0  0  0  0  0  0  0  0  0
    1.0158   -0.6574    0.8413 C   0  0  0  0  0  0  0  0  0  0  0  0
    2.2156   -0.0658    0.5784 C   0  0  0  0  0  0  0  0  0  0  0  0
    2.9480    0.7958    1.4337 N   0  0  0  0  0  0  0  0  0  0  0  0
    2.6469    1.2429    2.7110 C   0  0  0  0  0  0  0  0  0  0  0  0
    1.5945    0.8946    3.2907 O   0  0  0  0  0  0  0  0  0  0  0  0
    3.5179    2.1219    3.4322 C   0  0  0  0  0  0  0  0  0  0  0  0
    4.6398    2.5699    2.9699 C   0  0  0  0  0  0  0  0  0  0  0  0
   -0.7928   -2.1677    0.4593 N   0  0  0  0  0  0  0  0  0  0  0  0
   -2.0780   -1.9015    0.4463 C   0  0  0  0  0  0  0  0  0  0  0  0
   -3.0201   -2.7553    1.0535 C   0  0  0  0  0  0  0  0  0  0  0  0
   -2.6173   -3.9095    1.6869 C   0  0  0  0  0  0  0  0  0  0  0  0
   -1.2948   -4.1892    1.7035 C   0  0  0  0  0  0  0  0  0  0  0  0
   -0.4255   -3.3595    1.1187 C   0  0  0  0  0  0  0  0  0  0  0  0
    0.7978   -3.6401    1.1469 O   0  0  0  0  0  0  0  0  0  0  0  0
   -4.3614   -2.4468    1.0231 C   0  0  0  0  0  0  0  0  0  0  0  0
   -4.7914   -1.3467    0.4255 N   0  0  0  0  0  0  0  0  0  0  0  0
   -3.9310   -0.5201   -0.1567 C   0  0  0  0  0  0  0  0  0  0  0  0
   -4.4245    0.6263   -0.7757 C   0  0  0  0  0  0  0  0  0  0  0  0
   -3.5728    1.5053   -1.3891 C   0  0  0  0  0  0  0  0  0  0  0  0
   -2.2281    1.2708   -1.4030 C   0  0  0  0  0  0  0  0  0  0  0  0
   -1.7184    0.1153   -0.7805 C   0  0  0  0  0  0  0  0  0  0  0  0
   -2.5649   -0.7497   -0.1756 C   0  0  0  0  0  0  0  0  0  0  0  0
   -1.3640    2.2326   -2.0670 C   0  0  0  0  0  0  0  0  0  0  0  0
   -0.0693    2.5586   -1.7527 C   0  0  0  0  0  0  0  0  0  0  0  0
    0.3006    3.4923   -2.6504 N   0  0  0  0  0  0  0  0  0  0  0  0
   -0.6506    3.7756   -3.4954 N   0  0  0  0  0  0  0  0  0  0  0  0
   -1.7140    2.9958   -3.1520 C   0  0  0  0  0  0  0  0  0  0  0  0
    4.8680   -0.1664   -0.4660 H   0  0  0  0  0  0  0  0  0  0  0  0
    4.2853   -0.0248   -2.1417 H   0  0  0  0  0  0  0  0  0  0  0  0
    3.9642    1.3290   -1.0499 H   0  0  0  0  0  0  0  0  0  0  0  0
    2.5996   -1.3686   -2.5326 H   0  0  0  0  0  0  0  0  0  0  0  0
    0.4213   -2.3953   -1.9591 H   0  0  0  0  0  0  0  0  0  0  0  0
    0.5560   -0.4560    1.8091 H   0  0  0  0  0  0  0  0  0  0  0  0
    3.8694    1.1386    1.0028 H   0  0  0  0  0  0  0  0  0  0  0  0
    3.2375    2.4493    4.4415 H   0  0  0  0  0  0  0  0  0  0  0  0
    5.0130    2.3191    2.0031 H   0  0  0  0  0  0  0  0  0  0  0  0
    5.2970    3.2481    3.5443 H   0  0  0  0  0  0  0  0  0  0  0  0
   -3.3605   -4.5378    2.1392 H   0  0  0  0  0  0  0  0  0  0  0  0
   -0.9698   -5.1115    2.2091 H   0  0  0  0  0  0  0  0  0  0  0  0
   -5.0418   -3.1510    1.5132 H   0  0  0  0  0  0  0  0  0  0  0  0
   -5.5041    0.7943   -0.7527 H   0  0  0  0  0  0  0  0  0  0  0  0
   -3.9457    2.3852   -1.8646 H   0  0  0  0  0  0  0  0  0  0  0  0
   -0.7161    0.0542   -0.8600 H   0  0  0  0  0  0  0  0  0  0  0  0
    0.5483    2.1569   -0.9482 H   0  0  0  0  0  0  0  0  0  0  0  0
   -0.6738    4.4442   -4.2935 H   0  0  0  0  0  0  0  0  0  0  0  0
   -2.6782    2.9947   -3.6697 H   0  0  0  0  0  0  0  0  0  0  0  0
  1  2  1  0
  2  3  2  0
  3  4  1  0
  4  5  2  0
  5  6  1  0
  6  7  2  0
  7  8  1  0
  8  9  1  0
  9 10  2  0
  9 11  1  0
 11 12  2  3
  5 13  1  0
 13 14  1  0
 14 15  2  0
 15 16  1  0
 16 17  2  0
 17 18  1  0
 18 19  2  0
 15 20  1  0
 20 21  2  0
 21 22  1  0
 22 23  2  0
 23 24  1  0
 24 25  2  0
 25 26  1  0
 26 27  2  0
 25 28  1  0
 28 29  1  0
 29 30  2  0
 30 31  1  0
 31 32  1  0
  7  2  1  0
 18 13  1  0
 27 22  1  0
 32 28  2  0
 27 14  1  0
  1 33  1  0
  1 34  1  0
  1 35  1  0
  3 36  1  0
  4 37  1  0
  6 38  1  0
  8 39  1  0
 11 40  1  0
 12 41  1  0
 12 42  1  0
 16 43  1  0
 17 44  1  0
 20 45  1  0
 23 46  1  0
 24 47  1  0
 26 48  1  0
 29 49  1  0
 31 50  1  0
 32 51  1  0
M  END
$$$$
[H]Oc1c([H])c([H])c(-c2c([H])c([H])c3c([H])c(O[H])c([H])c([H])c3c2Oc2c([H])c([H])c(OC([H])([H])C([H])([H])N3C([H])([H])C([H])([H])C([H])([H])C([H])([H])C3([H])[H])c([H])c2[H])c([H])c1[H]
     RDKit          3D

 63 67  0  0  0  0  0  0  0  0999 V2000
    5.0665   -5.5759    1.3362 O   0  0  0  0  0  0  0  0  0  0  0  0
    4.7592   -4.2225    1.2173 C   0  0  0  0  0  0  0  0  0  0  0  0
    3.4737   -3.7703    1.1163 C   0  0  0  0  0  0  0  0  0  0  0  0
    3.2064   -2.4077    0.9987 C   0  0  0  0  0  0  0  0  0  0  0  0
    4.2046   -1.5036    0.9806 C   0  0  0  0  0  0  0  0  0  0  0  0
    5.5149   -1.9952    1.0865 C   0  0  0  0  0  0  0  0  0  0  0  0
    5.8200   -3.3235    1.2039 C   0  0  0  0  0  0  0  0  0  0  0  0
    4.1025   -0.0577    0.8362 C   0  0  0  0  0  0  0  0  0  0  0  0
    4.5817    0.7232    1.9052 C   0  0  0  0  0  0  0  0  0  0  0  0
    4.5418    2.0958    1.8495 C   0  0  0  0  0  0  0  0  0  0  0  0
    4.0259    2.7202    0.7311 C   0  0  0  0  0  0  0  0  0  0  0  0
    3.9815    4.1130    0.6435 C   0  0  0  0  0  0  0  0  0  0  0  0
    3.4805    4.7403   -0.4635 C   0  0  0  0  0  0  0  0  0  0  0  0
    3.4505    6.1386   -0.5189 O   0  0  0  0  0  0  0  0  0  0  0  0
    3.0012    4.0157   -1.5336 C   0  0  0  0  0  0  0  0  0  0  0  0
    3.0421    2.6450   -1.4529 C   0  0  0  0  0  0  0  0  0  0  0  0
    3.5442    2.0006   -0.3422 C   0  0  0  0  0  0  0  0  0  0  0  0
    3.5998    0.6031   -0.2496 C   0  0  0  0  0  0  0  0  0  0  0  0
    3.1153   -0.0954   -1.3207 O   0  0  0  0  0  0  0  0  0  0  0  0
    1.7552   -0.2996   -1.4798 C   0  0  0  0  0  0  0  0  0  0  0  0
    1.2527   -1.0338   -2.5371 C   0  0  0  0  0  0  0  0  0  0  0  0
   -0.0867   -1.2222   -2.6765 C   0  0  0  0  0  0  0  0  0  0  0  0
   -1.0423   -0.7029   -1.7852 C   0  0  0  0  0  0  0  0  0  0  0  0
   -2.3654   -0.9510   -2.0212 O   0  0  0  0  0  0  0  0  0  0  0  0
   -3.4875   -0.5894   -1.3175 C   0  0  0  0  0  0  0  0  0  0  0  0
   -3.6362   -1.1260    0.0633 C   0  0  0  0  0  0  0  0  0  0  0  0
   -4.8588   -0.6687    0.7062 N   0  0  0  0  0  0  0  0  0  0  0  0
   -6.0315   -1.2457    0.0666 C   0  0  0  0  0  0  0  0  0  0  0  0
   -7.2089   -0.9924    0.9570 C   0  0  0  0  0  0  0  0  0  0  0  0
   -7.4132    0.4734    1.2499 C   0  0  0  0  0  0  0  0  0  0  0  0
   -6.1220    1.2002    1.5010 C   0  0  0  0  0  0  0  0  0  0  0  0
   -5.0051    0.7719    0.6010 C   0  0  0  0  0  0  0  0  0  0  0  0
   -0.5235    0.0251   -0.7397 C   0  0  0  0  0  0  0  0  0  0  0  0
    0.8431    0.2145   -0.6013 C   0  0  0  0  0  0  0  0  0  0  0  0
    5.2082   -6.0583    0.4380 H   0  0  0  0  0  0  0  0  0  0  0  0
    2.6367   -4.4553    1.1252 H   0  0  0  0  0  0  0  0  0  0  0  0
    2.1928   -2.0916    0.9435 H   0  0  0  0  0  0  0  0  0  0  0  0
    6.3563   -1.3081    1.0775 H   0  0  0  0  0  0  0  0  0  0  0  0
    6.8246   -3.7063    1.2853 H   0  0  0  0  0  0  0  0  0  0  0  0
    4.9827    0.2141    2.7712 H   0  0  0  0  0  0  0  0  0  0  0  0
    4.9012    2.7309    2.6537 H   0  0  0  0  0  0  0  0  0  0  0  0
    4.3592    4.6787    1.4853 H   0  0  0  0  0  0  0  0  0  0  0  0
    2.6487    6.6218   -0.1818 H   0  0  0  0  0  0  0  0  0  0  0  0
    2.6174    4.5644   -2.3792 H   0  0  0  0  0  0  0  0  0  0  0  0
    2.6839    2.0651   -2.2748 H   0  0  0  0  0  0  0  0  0  0  0  0
    1.9346   -1.4519   -3.2456 H   0  0  0  0  0  0  0  0  0  0  0  0
   -0.4608   -1.7926   -3.5003 H   0  0  0  0  0  0  0  0  0  0  0  0
   -4.4341   -0.7285   -1.9083 H   0  0  0  0  0  0  0  0  0  0  0  0
   -3.4474    0.5439   -1.2002 H   0  0  0  0  0  0  0  0  0  0  0  0
   -3.7658   -2.2411   -0.0252 H   0  0  0  0  0  0  0  0  0  0  0  0
   -2.7974   -0.9568    0.7121 H   0  0  0  0  0  0  0  0  0  0  0  0
   -6.2169   -0.7308   -0.9109 H   0  0  0  0  0  0  0  0  0  0  0  0
   -5.9453   -2.3206   -0.1065 H   0  0  0  0  0  0  0  0  0  0  0  0
   -7.1580   -1.6052    1.8832 H   0  0  0  0  0  0  0  0  0  0  0  0
   -8.1226   -1.3443    0.4099 H   0  0  0  0  0  0  0  0  0  0  0  0
   -8.0295    0.5481    2.1717 H   0  0  0  0  0  0  0  0  0  0  0  0
   -8.0099    0.9771    0.4519 H   0  0  0  0  0  0  0  0  0  0  0  0
   -5.8341    1.2051    2.5854 H   0  0  0  0  0  0  0  0  0  0  0  0
   -6.3260    2.2843    1.2564 H   0  0  0  0  0  0  0  0  0  0  0  0
   -4.0884    1.3033    0.9374 H   0  0  0  0  0  0  0  0  0  0  0  0
   -5.2988    1.0827   -0.4430 H   0  0  0  0  0  0  0  0  0  0  0  0
   -1.1696    0.4694   -0.0236 H   0  0  0  0  0  0  0  0  0  0  0  0
    1.1763    0.8053    0.2623 H   0  0  0  0  0  0  0  0  0  0  0  0
  1  2  1  0
  2  3  2  0
  3  4  1  0
  4  5  2  0
  5  6  1  0
  6  7  2  0
  5  8  1  0
  8  9  2  0
  9 10  1  0
 10 11  2  0
 11 12  1  0
 12 13  2  0
 13 14  1  0
 13 15  1  0
 15 16  2  0
 16 17  1  0
 17 18  2  0
 18 19  1  0
 19 20  1  0
 20 21  2  0
 21 22  1  0
 22 23  2  0
 23 24  1  0
 24 25  1  0
 25 26  1  0
 26 27  1  0
 27 28  1  0
 28 29  1  0
 29 30  1  0
 30 31  1  0
 31 32  1  0
 23 33  1  0
 33 34  2  0
  7  2  1  0
 18  8  1  0
 34 20  1  0
 17 11  1  0
 32 27  1  0
  1 35  1  0
  3 36  1  0
  4 37  1  0
  6 38  1  0
  7 39  1  0
  9 40  1  0
 10 41  1  0
 12 42  1  0
 14 43  1  0
 15 44  1  0
 16 45  1  0
 21 46  1  0
 22 47  1  0
 25 48  1  0
 25 49  1  0
 26 50  1  0
 26 51  1  0
 28 52  1  0
 28 53  1  0
 29 54  1  0
 29 55  1  0
 30 56  1  0
 30 57  1  0
 31 58  1  0
 31 59  1  0
 32 60  1  0
 32 61  1  0
 33 62  1  0
 34 63  1  0
M  END
$$$$
[H]c1nc([H])c([H])c(-c2nc(N3C([H])([H])C([H])([H])C(F)(F)C([H])([H])C3([H])[H])nc(N3C([H])([H])[C@]([H])(C([H])([H])[H])O[C@]([H])(C([H])([H])[H])C3([H])[H])c2[H])c1[H]
     RDKit          3D

 53 56  0  0  0  0  0  0  0  0999 V2000
   -3.4064   -3.7844   -1.8129 C   0  0  0  0  0  0  0  0  0  0  0  0
   -3.2960   -2.5689   -0.9590 C   0  0  1  0  0  0  0  0  0  0  0  0
   -1.9343   -1.9646   -0.9234 C   0  0  0  0  0  0  0  0  0  0  0  0
   -2.0077   -0.6766   -0.2367 N   0  0  0  0  0  0  0  0  0  0  0  0
   -3.2417   -0.0806    0.1880 C   0  0  0  0  0  0  0  0  0  0  0  0
   -4.4662   -0.8209   -0.2204 C   0  0  1  0  0  0  0  0  0  0  0  0
   -5.6790    0.0631   -0.3758 C   0  0  0  0  0  0  0  0  0  0  0  0
   -4.1867   -1.5524   -1.3713 O   0  0  0  0  0  0  0  0  0  0  0  0
   -0.7734   -0.0192    0.0004 C   0  0  0  0  0  0  0  0  0  0  0  0
   -0.7835    1.2180    0.6576 C   0  0  0  0  0  0  0  0  0  0  0  0
    0.3778    1.8772    0.9024 C   0  0  0  0  0  0  0  0  0  0  0  0
    1.5296    1.2794    0.4812 N   0  0  0  0  0  0  0  0  0  0  0  0
    1.5777    0.1043   -0.1465 C   0  0  0  0  0  0  0  0  0  0  0  0
    0.4094   -0.5187   -0.3714 N   0  0  0  0  0  0  0  0  0  0  0  0
    2.8308   -0.4244   -0.5402 N   0  0  0  0  0  0  0  0  0  0  0  0
    4.0192    0.3095   -0.2577 C   0  0  0  0  0  0  0  0  0  0  0  0
    5.2460   -0.5206   -0.0670 C   0  0  0  0  0  0  0  0  0  0  0  0
    5.0816   -1.9680   -0.3905 C   0  0  0  0  0  0  0  0  0  0  0  0
    4.5240   -2.6930    0.6424 F   0  0  0  0  0  0  0  0  0  0  0  0
    6.3443   -2.4813   -0.7005 F   0  0  0  0  0  0  0  0  0  0  0  0
    4.2186   -2.1176   -1.6011 C   0  0  0  0  0  0  0  0  0  0  0  0
    2.8120   -1.7071   -1.2198 C   0  0  0  0  0  0  0  0  0  0  0  0
    0.4338    3.1690    1.5826 C   0  0  0  0  0  0  0  0  0  0  0  0
   -0.6902    3.8158    2.0269 C   0  0  0  0  0  0  0  0  0  0  0  0
   -0.5757    5.0453    2.6690 C   0  0  0  0  0  0  0  0  0  0  0  0
    0.6285    5.6115    2.8610 N   0  0  0  0  0  0  0  0  0  0  0  0
    1.7521    5.0068    2.4390 C   0  0  0  0  0  0  0  0  0  0  0  0
    1.6552    3.7727    1.7929 C   0  0  0  0  0  0  0  0  0  0  0  0
   -4.2786   -4.3880   -1.4623 H   0  0  0  0  0  0  0  0  0  0  0  0
   -3.5835   -3.5627   -2.8858 H   0  0  0  0  0  0  0  0  0  0  0  0
   -2.4947   -4.3852   -1.6971 H   0  0  0  0  0  0  0  0  0  0  0  0
   -3.5576   -2.8625    0.0961 H   0  0  0  0  0  0  0  0  0  0  0  0
   -1.2762   -2.6230   -0.3029 H   0  0  0  0  0  0  0  0  0  0  0  0
   -1.4588   -1.8769   -1.9186 H   0  0  0  0  0  0  0  0  0  0  0  0
   -3.2104   -0.0256    1.3083 H   0  0  0  0  0  0  0  0  0  0  0  0
   -3.3027    0.9781   -0.1622 H   0  0  0  0  0  0  0  0  0  0  0  0
   -4.6991   -1.5805    0.5751 H   0  0  0  0  0  0  0  0  0  0  0  0
   -5.4314    1.0866   -0.0424 H   0  0  0  0  0  0  0  0  0  0  0  0
   -5.9864    0.0659   -1.4470 H   0  0  0  0  0  0  0  0  0  0  0  0
   -6.5483   -0.3490    0.1845 H   0  0  0  0  0  0  0  0  0  0  0  0
   -1.7364    1.6358    0.9654 H   0  0  0  0  0  0  0  0  0  0  0  0
    4.1836    1.0100   -1.1275 H   0  0  0  0  0  0  0  0  0  0  0  0
    3.8338    0.9731    0.6082 H   0  0  0  0  0  0  0  0  0  0  0  0
    5.5496   -0.4311    1.0155 H   0  0  0  0  0  0  0  0  0  0  0  0
    6.0855   -0.1003   -0.6483 H   0  0  0  0  0  0  0  0  0  0  0  0
    4.2133   -3.1365   -2.0005 H   0  0  0  0  0  0  0  0  0  0  0  0
    4.5720   -1.3955   -2.3685 H   0  0  0  0  0  0  0  0  0  0  0  0
    2.4023   -2.4920   -0.5667 H   0  0  0  0  0  0  0  0  0  0  0  0
    2.2125   -1.6455   -2.1508 H   0  0  0  0  0  0  0  0  0  0  0  0
   -1.6749    3.4072    1.8987 H   0  0  0  0  0  0  0  0  0  0  0  0
   -1.4727    5.5448    3.0147 H   0  0  0  0  0  0  0  0  0  0  0  0
    2.6985    5.4964    2.6136 H   0  0  0  0  0  0  0  0  0  0  0  0
    2.5605    3.2820    1.4511 H   0  0  0  0  0  0  0  0  0  0  0  0
  1  2  1  0
  2  3  1  0
  3  4  1  0
  4  5  1  0
  5  6  1  0
  6  7  1  0
  6  8  1  0
  4  9  1  0
  9 10  2  0
 10 11  1  0
 11 12  2  0
 12 13  1  0
 13 14  2  0
 13 15  1  0
 15 16  1  0
 16 17  1  0
 17 18  1  0
 18 19  1  0
 18 20  1  0
 18 21  1  0
 21 22  1  0
 11 23  1  0
 23 24  2  0
 24 25  1  0
 25 26  2  0
 26 27  1  0
 27 28  2  0
  8  2  1  0
 14  9  1  0
 22 15  1  0
 28 23  1  0
  1 29  1  0
  1 30  1  0
  1 31  1  0
  2 32  1  1
  3 33  1  0
  3 34  1  0
  5 35  1  0
  5 36  1  0
  6 37  1  1
  7 38  1  0
  7 39  1  0
  7 40  1  0
 10 41  1  0
 16 42  1  0
 16 43  1  0
 17 44  1  0
 17 45  1  0
 21 46  1  0
 21 47  1  0
 22 48  1  0
 22 49  1  0
 24 50  1  0
 25 51  1  0
 27 52  1  0
 28 53  1  0
M  END
$$$$
[H]/C(=C1/C(=O)N([H])c2c([H])c([H])c(-c3c([H])c([H])c([H])c([H])c3[H])c([H])c21)c1c([H])c([H])c(N2C([H])([H])C([H])([H])N(S(=O)(=O)C([H])(C([H])([H])[H])C([H])([H])[H])C([H])([H])C2([H])[H])c([H])c1[H]
     RDKit          3D

 64 68  0  0  0  0  0  0  0  0999 V2000
   -8.3653    0.4124    1.2092 C   0  0  0  0  0  0  0  0  0  0  0  0
   -8.4289   -0.9181    0.4982 C   0  0  0  0  0  0  0  0  0  0  0  0
   -8.5390   -0.6855   -0.9913 C   0  0  0  0  0  0  0  0  0  0  0  0
   -7.0502   -1.9333    0.9035 S   0  0  0  0  0  0  0  0  0  0  0  0
   -7.2181   -3.3361    0.3652 O   0  0  0  0  0  0  0  0  0  0  0  0
   -7.0779   -2.1001    2.4193 O   0  0  0  0  0  0  0  0  0  0  0  0
   -5.6019   -1.2181    0.4587 N   0  0  0  0  0  0  0  0  0  0  0  0
   -5.3495   -0.9320   -0.8932 C   0  0  0  0  0  0  0  0  0  0  0  0
   -3.8792   -0.6710   -1.1866 C   0  0  0  0  0  0  0  0  0  0  0  0
   -3.2396    0.0761   -0.1087 N   0  0  0  0  0  0  0  0  0  0  0  0
   -4.1143    0.6874    0.8436 C   0  0  0  0  0  0  0  0  0  0  0  0
   -4.9920   -0.3967    1.4354 C   0  0  0  0  0  0  0  0  0  0  0  0
   -1.8341    0.1299   -0.1120 C   0  0  0  0  0  0  0  0  0  0  0  0
   -1.1148    0.6950    0.9174 C   0  0  0  0  0  0  0  0  0  0  0  0
    0.2600    0.7380    0.8856 C   0  0  0  0  0  0  0  0  0  0  0  0
    0.9919    0.2236   -0.1681 C   0  0  0  0  0  0  0  0  0  0  0  0
    2.4320    0.2912   -0.1920 C   0  0  0  0  0  0  0  0  0  0  0  0
    3.1205    1.3941   -0.1979 C   0  0  0  0  0  0  0  0  0  0  0  0
    2.6352    2.7450   -0.1906 C   0  0  0  0  0  0  0  0  0  0  0  0
    1.4630    3.1438   -0.2042 O   0  0  0  0  0  0  0  0  0  0  0  0
    3.7986    3.6066   -0.1675 N   0  0  0  0  0  0  0  0  0  0  0  0
    4.9655    2.8003   -0.1622 C   0  0  0  0  0  0  0  0  0  0  0  0
    6.3310    3.0895   -0.1434 C   0  0  0  0  0  0  0  0  0  0  0  0
    7.2585    2.0702   -0.1434 C   0  0  0  0  0  0  0  0  0  0  0  0
    6.9043    0.7392   -0.1614 C   0  0  0  0  0  0  0  0  0  0  0  0
    5.5519    0.4595   -0.1799 C   0  0  0  0  0  0  0  0  0  0  0  0
    4.6144    1.4785   -0.1800 C   0  0  0  0  0  0  0  0  0  0  0  0
    7.9077   -0.3179   -0.1609 C   0  0  0  0  0  0  0  0  0  0  0  0
    9.1200   -0.1627    0.4740 C   0  0  0  0  0  0  0  0  0  0  0  0
   10.0654   -1.1712    0.4685 C   0  0  0  0  0  0  0  0  0  0  0  0
    9.8414   -2.3730   -0.1689 C   0  0  0  0  0  0  0  0  0  0  0  0
    8.6294   -2.5338   -0.8063 C   0  0  0  0  0  0  0  0  0  0  0  0
    7.6792   -1.5207   -0.8009 C   0  0  0  0  0  0  0  0  0  0  0  0
    0.2777   -0.3504   -1.2146 C   0  0  0  0  0  0  0  0  0  0  0  0
   -1.0817   -0.3852   -1.1679 C   0  0  0  0  0  0  0  0  0  0  0  0
   -9.3337    0.9539    1.1544 H   0  0  0  0  0  0  0  0  0  0  0  0
   -7.5492    1.0551    0.7991 H   0  0  0  0  0  0  0  0  0  0  0  0
   -8.1425    0.2422    2.2824 H   0  0  0  0  0  0  0  0  0  0  0  0
   -9.3986   -1.3894    0.8283 H   0  0  0  0  0  0  0  0  0  0  0  0
   -9.5965   -0.8456   -1.3047 H   0  0  0  0  0  0  0  0  0  0  0  0
   -7.9447   -1.4235   -1.5431 H   0  0  0  0  0  0  0  0  0  0  0  0
   -8.2946    0.3781   -1.2306 H   0  0  0  0  0  0  0  0  0  0  0  0
   -5.5998   -1.8317   -1.5151 H   0  0  0  0  0  0  0  0  0  0  0  0
   -5.9637   -0.1031   -1.2616 H   0  0  0  0  0  0  0  0  0  0  0  0
   -3.3567   -1.6117   -1.4250 H   0  0  0  0  0  0  0  0  0  0  0  0
   -3.8397   -0.0259   -2.0838 H   0  0  0  0  0  0  0  0  0  0  0  0
   -3.5667    1.1339    1.6792 H   0  0  0  0  0  0  0  0  0  0  0  0
   -4.7391    1.4962    0.4082 H   0  0  0  0  0  0  0  0  0  0  0  0
   -4.3555   -0.9914    2.1264 H   0  0  0  0  0  0  0  0  0  0  0  0
   -5.7611    0.0843    2.0669 H   0  0  0  0  0  0  0  0  0  0  0  0
   -1.5784    1.1267    1.7896 H   0  0  0  0  0  0  0  0  0  0  0  0
    0.8055    1.1867    1.7349 H   0  0  0  0  0  0  0  0  0  0  0  0
    2.9635   -0.6710   -0.2058 H   0  0  0  0  0  0  0  0  0  0  0  0
    3.7484    4.6517   -0.1568 H   0  0  0  0  0  0  0  0  0  0  0  0
    6.6129    4.1320   -0.1291 H   0  0  0  0  0  0  0  0  0  0  0  0
    8.2939    2.3351   -0.1285 H   0  0  0  0  0  0  0  0  0  0  0  0
    5.2380   -0.5675   -0.1942 H   0  0  0  0  0  0  0  0  0  0  0  0
    9.3201    0.7694    0.9811 H   0  0  0  0  0  0  0  0  0  0  0  0
   11.0168   -1.0149    0.9821 H   0  0  0  0  0  0  0  0  0  0  0  0
   10.6009   -3.1489   -0.1581 H   0  0  0  0  0  0  0  0  0  0  0  0
    8.4541   -3.4772   -1.3062 H   0  0  0  0  0  0  0  0  0  0  0  0
    6.7331   -1.6657   -1.3072 H   0  0  0  0  0  0  0  0  0  0  0  0
    0.8643   -0.7491   -2.0318 H   0  0  0  0  0  0  0  0  0  0  0  0
   -1.5919   -0.8504   -2.0274 H   0  0  0  0  0  0  0  0  0  0  0  0
  1  2  1  0
  2  3  1  0
  2  4  1  0
  4  5  2  0
  4  6  2  0
  4  7  1  0
  7  8  1  0
  8  9  1  0
  9 10  1  0
 10 11  1  0
 11 12  1  0
 10 13  1  0
 13 14  2  0
 14 15  1  0
 15 16  2  0
 16 17  1  0
 17 18  2  0
 18 19  1  0
 19 20  2  0
 19 21  1  0
 21 22  1  0
 22 23  2  0
 23 24  1  0
 24 25  2  0
 25 26  1  0
 26 27  2  0
 25 28  1  0
 28 29  2  0
 29 30  1  0
 30 31  2  0
 31 32  1  0
 32 33  2  0
 16 34  1  0
 34 35  2  0
 12  7  1  0
 35 13  1  0
 27 18  1  0
 33 28  1  0
 27 22  1  0
  1 36  1  0
  1 37  1  0
  1 38  1  0
  2 39  1  0
  3 40  1  0
  3 41  1  0
  3 42  1  0
  8 43  1  0
  8 44  1  0
  9 45  1  0
  9 46  1  0
 11 47  1  0
 11 48  1  0
 12 49  1  0
 12 50  1  0
 14 51  1  0
 15 52  1  0
 17 53  1  0
 21 54  1  0
 23 55  1  0
 24 56  1  0
 26 57  1  0
 29 58  1  0
 30 59  1  0
 31 60  1  0
 32 61  1  0
 33 62  1  0
 34 63  1  0
 35 64  1  0
M  END
$$$$
[H]OC(=O)[C@@]([H])(N([H])C(=O)/C([H])=C(\[H])c1oc(-c2c([H])c([H])c([H])c(OC([H])([H])[H])c2[H])c([H])c1[H])C([H])([H])c1c([H])c([H])c([H])c([H])c1[H]
     RDKit          3D

 50 52  0  0  0  0  0  0  0  0999 V2000
    9.5120   -0.8391    1.1539 C   0  0  0  0  0  0  0  0  0  0  0  0
    8.1554   -0.4563    1.2312 O   0  0  0  0  0  0  0  0  0  0  0  0
    7.2634   -1.0204    0.3407 C   0  0  0  0  0  0  0  0  0  0  0  0
    7.6473   -1.9332   -0.6091 C   0  0  0  0  0  0  0  0  0  0  0  0
    6.6933   -2.4667   -1.4822 C   0  0  0  0  0  0  0  0  0  0  0  0
    5.3753   -2.0736   -1.3841 C   0  0  0  0  0  0  0  0  0  0  0  0
    4.9574   -1.1610   -0.4433 C   0  0  0  0  0  0  0  0  0  0  0  0
    5.9162   -0.6513    0.4035 C   0  0  0  0  0  0  0  0  0  0  0  0
    3.5647   -0.7315   -0.3317 C   0  0  0  0  0  0  0  0  0  0  0  0
    3.0653    0.1590    0.5947 C   0  0  0  0  0  0  0  0  0  0  0  0
    1.6959    0.2990    0.3654 C   0  0  0  0  0  0  0  0  0  0  0  0
    1.4358   -0.5290   -0.7066 C   0  0  0  0  0  0  0  0  0  0  0  0
    0.1367   -0.7376   -1.3359 C   0  0  0  0  0  0  0  0  0  0  0  0
   -0.9339   -0.1091   -0.8928 C   0  0  0  0  0  0  0  0  0  0  0  0
   -2.2591   -0.2900   -1.4969 C   0  0  0  0  0  0  0  0  0  0  0  0
   -2.3358   -1.0832   -2.4688 O   0  0  0  0  0  0  0  0  0  0  0  0
   -3.3781    0.4149   -0.9821 N   0  0  0  0  0  0  0  0  0  0  0  0
   -4.7066    0.2922   -1.5203 C   0  0  1  0  0  0  0  0  0  0  0  0
   -5.6933   -0.2270   -0.5071 C   0  0  0  0  0  0  0  0  0  0  0  0
   -5.8255    0.6196    0.6888 C   0  0  0  0  0  0  0  0  0  0  0  0
   -6.7686    1.6244    0.7229 C   0  0  0  0  0  0  0  0  0  0  0  0
   -6.8844    2.4168    1.8498 C   0  0  0  0  0  0  0  0  0  0  0  0
   -6.0620    2.1966    2.9218 C   0  0  0  0  0  0  0  0  0  0  0  0
   -5.1203    1.1875    2.8793 C   0  0  0  0  0  0  0  0  0  0  0  0
   -5.0037    0.4028    1.7660 C   0  0  0  0  0  0  0  0  0  0  0  0
   -5.1464    1.5635   -2.1361 C   0  0  0  0  0  0  0  0  0  0  0  0
   -6.3526    1.7618   -2.7523 O   0  0  0  0  0  0  0  0  0  0  0  0
   -4.3522    2.5423   -2.0936 O   0  0  0  0  0  0  0  0  0  0  0  0
    2.5660   -1.0996   -1.0644 O   0  0  0  0  0  0  0  0  0  0  0  0
   10.1138   -0.1786    1.8167 H   0  0  0  0  0  0  0  0  0  0  0  0
    9.6491   -1.9182    1.4250 H   0  0  0  0  0  0  0  0  0  0  0  0
    9.8271   -0.7499    0.0913 H   0  0  0  0  0  0  0  0  0  0  0  0
    8.6727   -2.2259   -0.6689 H   0  0  0  0  0  0  0  0  0  0  0  0
    7.0255   -3.1943   -2.2310 H   0  0  0  0  0  0  0  0  0  0  0  0
    4.6200   -2.4814   -2.0603 H   0  0  0  0  0  0  0  0  0  0  0  0
    5.5648    0.0672    1.1383 H   0  0  0  0  0  0  0  0  0  0  0  0
    3.6215    0.6642    1.3648 H   0  0  0  0  0  0  0  0  0  0  0  0
    0.9901    0.9062    0.8915 H   0  0  0  0  0  0  0  0  0  0  0  0
    0.0512   -1.4091   -2.1697 H   0  0  0  0  0  0  0  0  0  0  0  0
   -0.7775    0.5550   -0.0492 H   0  0  0  0  0  0  0  0  0  0  0  0
   -3.2425    1.0543   -0.1777 H   0  0  0  0  0  0  0  0  0  0  0  0
   -4.6670   -0.4585   -2.3630 H   0  0  0  0  0  0  0  0  0  0  0  0
   -6.6926   -0.2943   -1.0112 H   0  0  0  0  0  0  0  0  0  0  0  0
   -5.4298   -1.2705   -0.2289 H   0  0  0  0  0  0  0  0  0  0  0  0
   -7.4474    1.8458   -0.0882 H   0  0  0  0  0  0  0  0  0  0  0  0
   -7.6128    3.2222    1.9242 H   0  0  0  0  0  0  0  0  0  0  0  0
   -6.1362    2.8002    3.8031 H   0  0  0  0  0  0  0  0  0  0  0  0
   -4.4803    1.0417    3.7584 H   0  0  0  0  0  0  0  0  0  0  0  0
   -4.2743   -0.3805    1.7330 H   0  0  0  0  0  0  0  0  0  0  0  0
   -6.5379    2.3325   -3.5515 H   0  0  0  0  0  0  0  0  0  0  0  0
  1  2  1  0
  2  3  1  0
  3  4  2  0
  4  5  1  0
  5  6  2  0
  6  7  1  0
  7  8  2  0
  7  9  1  0
  9 10  2  0
 10 11  1  0
 11 12  2  0
 12 13  1  0
 13 14  2  0
 14 15  1  0
 15 16  2  0
 15 17  1  0
 17 18  1  0
 18 19  1  0
 19 20  1  0
 20 21  2  0
 21 22  1  0
 22 23  2  0
 23 24  1  0
 24 25  2  0
 18 26  1  0
 26 27  1  0
 26 28  2  0
 12 29  1  0
  8  3  1  0
 29  9  1  0
 25 20  1  0
  1 30  1  0
  1 31  1  0
  1 32  1  0
  4 33  1  0
  5 34  1  0
  6 35  1  0
  8 36  1  0
 10 37  1  0
 11 38  1  0
 13 39  1  0
 14 40  1  0
 17 41  1  0
 18 42  1  6
 19 43  1  0
 19 44  1  0
 21 45  1  0
 22 46  1  0
 23 47  1  0
 24 48  1  0
 25 49  1  0
 27 50  1  0
M  END
$$$$
[H]ON([H])C(=O)C([H])([H])N(C([H])([H])c1c([H])c([H])c([N+](=O)[O-])c([H])c1[H])S(=O)(=O)c1c([H])c([H])c([H])c([H])c1[H]
     RDKit          3D

 40 41  0  0  0  0  0  0  0  0999 V2000
   -1.6397    4.0054   -2.4488 O   0  0  0  0  0  0  0  0  0  0  0  0
   -1.1444    3.5914   -1.2565 N   0  0  0  0  0  0  0  0  0  0  0  0
   -0.7702    2.2564   -0.9984 C   0  0  0  0  0  0  0  0  0  0  0  0
   -0.9011    1.4162   -1.9109 O   0  0  0  0  0  0  0  0  0  0  0  0
   -0.2420    1.8974    0.3253 C   0  0  0  0  0  0  0  0  0  0  0  0
    0.1059    0.5314    0.4922 N   0  0  0  0  0  0  0  0  0  0  0  0
    1.0501   -0.0118   -0.3956 C   0  0  0  0  0  0  0  0  0  0  0  0
    2.1914   -0.5605    0.3656 C   0  0  0  0  0  0  0  0  0  0  0  0
    3.2279   -1.1746   -0.2978 C   0  0  0  0  0  0  0  0  0  0  0  0
    4.3207   -1.7038    0.3783 C   0  0  0  0  0  0  0  0  0  0  0  0
    4.3779   -1.6171    1.7442 C   0  0  0  0  0  0  0  0  0  0  0  0
    3.3365   -1.0001    2.4099 C   0  0  0  0  0  0  0  0  0  0  0  0
    2.2414   -0.4697    1.7337 C   0  0  0  0  0  0  0  0  0  0  0  0
    5.4977   -2.1561    2.4747 N   0  0  0  0  0  0  0  0  0  0  0  0
    6.5230   -2.7653    1.7983 O   0  0  0  0  0  0  0  0  0  0  0  0
    5.5641   -2.0855    3.7096 O   0  0  0  0  0  0  0  0  0  0  0  0
   -1.1164   -0.4354    1.0770 S   0  0  0  0  0  0  0  0  0  0  0  0
   -0.5830   -1.8469    1.2997 O   0  0  0  0  0  0  0  0  0  0  0  0
   -1.4919    0.0467    2.4747 O   0  0  0  0  0  0  0  0  0  0  0  0
   -2.5399   -0.5789    0.1315 C   0  0  0  0  0  0  0  0  0  0  0  0
   -2.7195   -1.5485   -0.8235 C   0  0  0  0  0  0  0  0  0  0  0  0
   -3.8722   -1.6542   -1.5794 C   0  0  0  0  0  0  0  0  0  0  0  0
   -4.8800   -0.7629   -1.3762 C   0  0  0  0  0  0  0  0  0  0  0  0
   -4.7316    0.2255   -0.4228 C   0  0  0  0  0  0  0  0  0  0  0  0
   -3.5626    0.3168    0.3298 C   0  0  0  0  0  0  0  0  0  0  0  0
   -1.1933    4.8253   -2.7340 H   0  0  0  0  0  0  0  0  0  0  0  0
   -1.0442    4.3086   -0.5115 H   0  0  0  0  0  0  0  0  0  0  0  0
   -1.0748    2.1134    1.0595 H   0  0  0  0  0  0  0  0  0  0  0  0
    0.5744    2.5906    0.6441 H   0  0  0  0  0  0  0  0  0  0  0  0
    1.4783    0.8316   -1.0167 H   0  0  0  0  0  0  0  0  0  0  0  0
    0.6486   -0.7248   -1.1404 H   0  0  0  0  0  0  0  0  0  0  0  0
    3.2002   -1.2521   -1.3721 H   0  0  0  0  0  0  0  0  0  0  0  0
    5.1108   -2.1737   -0.1484 H   0  0  0  0  0  0  0  0  0  0  0  0
    3.4016   -0.9430    3.4811 H   0  0  0  0  0  0  0  0  0  0  0  0
    1.4270    0.0127    2.2476 H   0  0  0  0  0  0  0  0  0  0  0  0
   -1.9440   -2.2877   -1.0266 H   0  0  0  0  0  0  0  0  0  0  0  0
   -3.9778   -2.4317   -2.3230 H   0  0  0  0  0  0  0  0  0  0  0  0
   -5.7793   -0.8465   -1.9670 H   0  0  0  0  0  0  0  0  0  0  0  0
   -5.5362    0.9398   -0.2582 H   0  0  0  0  0  0  0  0  0  0  0  0
   -3.5337    1.1215    1.0532 H   0  0  0  0  0  0  0  0  0  0  0  0
  1  2  1  0
  2  3  1  0
  3  4  2  0
  3  5  1  0
  5  6  1  0
  6  7  1  0
  7  8  1  0
  8  9  2  0
  9 10  1  0
 10 11  2  0
 11 12  1  0
 12 13  2  0
 11 14  1  0
 14 15  1  0
 14 16  2  0
  6 17  1  0
 17 18  2  0
 17 19  2  0
 17 20  1  0
 20 21  2  0
 21 22  1  0
 22 23  2  0
 23 24  1  0
 24 25  2  0
 13  8  1  0
 25 20  1  0
  1 26  1  0
  2 27  1  0
  5 28  1  0
  5 29  1  0
  7 30  1  0
  7 31  1  0
  9 32  1  0
 10 33  1  0
 12 34  1  0
 13 35  1  0
 21 36  1  0
 22 37  1  0
 23 38  1  0
 24 39  1  0
 25 40  1  0
M  CHG  2  14   1  15  -1
M  END
$$$$
[H]OC(=O)C([H])([H])N([H])C(=O)C1=C(O[H])C([H])([H])C([H])([H])N(C([H])([H])c2c([H])c([H])c(-c3c([H])c([H])c([H])c([H])c3[H])c([H])c2[H])C1=O
     RDKit          3D

 48 50  0  0  0  0  0  0  0  0999 V2000
    7.4014    3.5427   -0.2586 O   0  0  0  0  0  0  0  0  0  0  0  0
    6.3257    2.6951    0.0191 C   0  0  0  0  0  0  0  0  0  0  0  0
    6.5634    1.7644    0.8197 O   0  0  0  0  0  0  0  0  0  0  0  0
    5.0120    2.9045   -0.6015 C   0  0  0  0  0  0  0  0  0  0  0  0
    4.0255    1.9150   -0.2454 N   0  0  0  0  0  0  0  0  0  0  0  0
    4.1839    0.5625   -0.5572 C   0  0  0  0  0  0  0  0  0  0  0  0
    5.2657    0.2738   -1.1880 O   0  0  0  0  0  0  0  0  0  0  0  0
    3.2809   -0.5404   -0.2560 C   0  0  0  0  0  0  0  0  0  0  0  0
    3.6203   -1.7684   -0.6426 C   0  0  0  0  0  0  0  0  0  0  0  0
    4.8473   -1.9209   -1.3286 O   0  0  0  0  0  0  0  0  0  0  0  0
    2.8258   -2.9613   -0.4107 C   0  0  0  0  0  0  0  0  0  0  0  0
    1.3602   -2.7412   -0.1349 C   0  0  0  0  0  0  0  0  0  0  0  0
    1.1865   -1.5621    0.6690 N   0  0  0  0  0  0  0  0  0  0  0  0
    0.2057   -1.5194    1.7047 C   0  0  0  0  0  0  0  0  0  0  0  0
   -1.1239   -1.0205    1.2268 C   0  0  0  0  0  0  0  0  0  0  0  0
   -1.3309   -0.6385   -0.0820 C   0  0  0  0  0  0  0  0  0  0  0  0
   -2.5686   -0.1814   -0.5074 C   0  0  0  0  0  0  0  0  0  0  0  0
   -3.6462   -0.0860    0.3482 C   0  0  0  0  0  0  0  0  0  0  0  0
   -3.4388   -0.4682    1.6579 C   0  0  0  0  0  0  0  0  0  0  0  0
   -2.2034   -0.9236    2.0789 C   0  0  0  0  0  0  0  0  0  0  0  0
   -4.9366    0.3976   -0.1333 C   0  0  0  0  0  0  0  0  0  0  0  0
   -5.3756    0.1814   -1.4234 C   0  0  0  0  0  0  0  0  0  0  0  0
   -6.6163    0.6537   -1.8652 C   0  0  0  0  0  0  0  0  0  0  0  0
   -7.3961    1.3477   -0.9683 C   0  0  0  0  0  0  0  0  0  0  0  0
   -7.0010    1.5899    0.3340 C   0  0  0  0  0  0  0  0  0  0  0  0
   -5.7705    1.1010    0.7116 C   0  0  0  0  0  0  0  0  0  0  0  0
    2.0109   -0.4071    0.4336 C   0  0  0  0  0  0  0  0  0  0  0  0
    1.6205    0.7086    0.8294 O   0  0  0  0  0  0  0  0  0  0  0  0
    7.2971    4.4389   -0.6939 H   0  0  0  0  0  0  0  0  0  0  0  0
    4.6425    3.8972   -0.3156 H   0  0  0  0  0  0  0  0  0  0  0  0
    5.1549    2.8267   -1.7022 H   0  0  0  0  0  0  0  0  0  0  0  0
    3.1839    2.2484    0.2574 H   0  0  0  0  0  0  0  0  0  0  0  0
    5.6253   -2.2204   -0.7464 H   0  0  0  0  0  0  0  0  0  0  0  0
    3.2212   -3.6019    0.4174 H   0  0  0  0  0  0  0  0  0  0  0  0
    2.8817   -3.6190   -1.3258 H   0  0  0  0  0  0  0  0  0  0  0  0
    0.7638   -2.7168   -1.0860 H   0  0  0  0  0  0  0  0  0  0  0  0
    0.9859   -3.6633    0.3859 H   0  0  0  0  0  0  0  0  0  0  0  0
    0.5406   -0.9586    2.6053 H   0  0  0  0  0  0  0  0  0  0  0  0
    0.0400   -2.5660    2.0528 H   0  0  0  0  0  0  0  0  0  0  0  0
   -0.4891   -0.7028   -0.7860 H   0  0  0  0  0  0  0  0  0  0  0  0
   -2.7095    0.1158   -1.5502 H   0  0  0  0  0  0  0  0  0  0  0  0
   -4.2847   -0.3966    2.3435 H   0  0  0  0  0  0  0  0  0  0  0  0
   -2.0417   -1.2260    3.1182 H   0  0  0  0  0  0  0  0  0  0  0  0
   -4.7504   -0.3638   -2.1090 H   0  0  0  0  0  0  0  0  0  0  0  0
   -6.9522    0.4731   -2.8972 H   0  0  0  0  0  0  0  0  0  0  0  0
   -8.3658    1.7212   -1.3002 H   0  0  0  0  0  0  0  0  0  0  0  0
   -7.6565    2.1467    1.0089 H   0  0  0  0  0  0  0  0  0  0  0  0
   -5.4150    1.2682    1.7328 H   0  0  0  0  0  0  0  0  0  0  0  0
  1  2  1  0
  2  3  2  0
  2  4  1  0
  4  5  1  0
  5  6  1  0
  6  7  2  0
  6  8  1  0
  8  9  2  0
  9 10  1  0
  9 11  1  0
 11 12  1  0
 12 13  1  0
 13 14  1  0
 14 15  1  0
 15 16  2  0
 16 17  1  0
 17 18  2  0
 18 19  1  0
 19 20  2  0
 18 21  1  0
 21 22  2  0
 22 23  1  0
 23 24  2  0
 24 25  1  0
 25 26  2  0
 13 27  1  0
 27 28  2  0
 27  8  1  0
 20 15  1  0
 26 21  1  0
  1 29  1  0
  4 30  1  0
  4 31  1  0
  5 32  1  0
 10 33  1  0
 11 34  1  0
 11 35  1  0
 12 36  1  0
 12 37  1  0
 14 38  1  0
 14 39  1  0
 16 40  1  0
 17 41  1  0
 19 42  1  0
 20 43  1  0
 22 44  1  0
 23 45  1  0
 24 46  1  0
 25 47  1  0
 26 48  1  0
M  END
$$$$
[H]C1=C([H])C([H])(F)C([H])([H])C([H])=C1N([H])C(=O)C1(C(=O)N([H])c2c([H])c([H])c(Oc3c([H])c([H])nc4c([H])c(OC([H])([H])C([H])([H])C([H])([H])N5C([H])([H])C([H])([H])C([H])([H])C([H])([H])C5([H])[H])c(OC([H])([H])[H])c([H])c34)c(F)c2[H])C([H])([H])C1([H])[H]
     RDKit          3D

 84 89  0  0  0  0  0  0  0  0999 V2000
    3.8941   -3.7132    0.1913 C   0  0  0  0  0  0  0  0  0  0  0  0
    4.6565   -2.6079   -0.2681 O   0  0  0  0  0  0  0  0  0  0  0  0
    4.0305   -1.4283   -0.6539 C   0  0  0  0  0  0  0  0  0  0  0  0
    2.6597   -1.2972   -0.6016 C   0  0  0  0  0  0  0  0  0  0  0  0
    2.0436   -0.1222   -0.9870 C   0  0  0  0  0  0  0  0  0  0  0  0
    0.6510    0.0367   -0.9451 C   0  0  0  0  0  0  0  0  0  0  0  0
   -0.0755   -1.0256   -0.4996 O   0  0  0  0  0  0  0  0  0  0  0  0
   -1.4492   -1.0402   -0.3255 C   0  0  0  0  0  0  0  0  0  0  0  0
   -2.2606   -1.8743   -1.0649 C   0  0  0  0  0  0  0  0  0  0  0  0
   -3.6423   -1.8715   -0.8692 C   0  0  0  0  0  0  0  0  0  0  0  0
   -4.2526   -1.0654    0.0403 C   0  0  0  0  0  0  0  0  0  0  0  0
   -5.6503   -1.0411    0.3103 N   0  0  0  0  0  0  0  0  0  0  0  0
   -6.4608   -2.1680    0.2347 C   0  0  0  0  0  0  0  0  0  0  0  0
   -5.8498   -3.2675   -0.0680 O   0  0  0  0  0  0  0  0  0  0  0  0
   -7.9176   -2.3168    0.4538 C   0  0  0  0  0  0  0  0  0  0  0  0
   -8.5358   -3.5604   -0.1118 C   0  0  0  0  0  0  0  0  0  0  0  0
   -8.2258   -3.5095    1.3287 C   0  0  0  0  0  0  0  0  0  0  0  0
   -8.8577   -1.1862    0.5085 C   0  0  0  0  0  0  0  0  0  0  0  0
  -10.0295   -1.5183    0.9875 O   0  0  0  0  0  0  0  0  0  0  0  0
   -8.6712    0.1344    0.1256 N   0  0  0  0  0  0  0  0  0  0  0  0
   -9.7018    1.1257    0.2594 C   0  0  0  0  0  0  0  0  0  0  0  0
  -10.1675    1.7824   -0.7844 C   0  0  0  0  0  0  0  0  0  0  0  0
  -11.2276    2.8066   -0.6621 C   0  0  0  0  0  0  0  0  0  0  0  0
  -11.7828    3.0373    0.6810 C   0  0  0  0  0  0  0  0  0  0  0  0
  -13.1708    2.8095    0.6256 F   0  0  0  0  0  0  0  0  0  0  0  0
  -11.1912    2.2557    1.7682 C   0  0  0  0  0  0  0  0  0  0  0  0
  -10.2373    1.3788    1.5761 C   0  0  0  0  0  0  0  0  0  0  0  0
   -3.4356   -0.2282    0.7824 C   0  0  0  0  0  0  0  0  0  0  0  0
   -2.0698   -0.2231    0.5976 C   0  0  0  0  0  0  0  0  0  0  0  0
   -1.3225    0.6137    1.3883 F   0  0  0  0  0  0  0  0  0  0  0  0
    0.0582    1.2154   -1.3358 C   0  0  0  0  0  0  0  0  0  0  0  0
    0.8455    2.2647   -1.7771 C   0  0  0  0  0  0  0  0  0  0  0  0
    2.1789    2.1086   -1.8152 N   0  0  0  0  0  0  0  0  0  0  0  0
    2.7728    0.9564   -1.4354 C   0  0  0  0  0  0  0  0  0  0  0  0
    4.1549    0.8104   -1.4827 C   0  0  0  0  0  0  0  0  0  0  0  0
    4.7873   -0.3669   -1.0977 C   0  0  0  0  0  0  0  0  0  0  0  0
    6.1653   -0.5173   -1.1421 O   0  0  0  0  0  0  0  0  0  0  0  0
    6.9247    0.5946   -1.5969 C   0  0  0  0  0  0  0  0  0  0  0  0
    8.3981    0.2160   -1.5674 C   0  0  0  0  0  0  0  0  0  0  0  0
    8.7652   -0.1374   -0.1628 C   0  0  0  0  0  0  0  0  0  0  0  0
    8.5410    0.9713    0.7124 N   0  0  0  0  0  0  0  0  0  0  0  0
    8.8626    0.5943    2.0908 C   0  0  0  0  0  0  0  0  0  0  0  0
   10.1341    1.2231    2.5590 C   0  0  0  0  0  0  0  0  0  0  0  0
   11.2236    1.2674    1.5088 C   0  0  0  0  0  0  0  0  0  0  0  0
   10.7617    1.8537    0.2168 C   0  0  0  0  0  0  0  0  0  0  0  0
    9.2894    2.1446    0.3223 C   0  0  0  0  0  0  0  0  0  0  0  0
    4.5297   -4.6049    0.2046 H   0  0  0  0  0  0  0  0  0  0  0  0
    3.0368   -3.9207   -0.4537 H   0  0  0  0  0  0  0  0  0  0  0  0
    3.5857   -3.4838    1.2349 H   0  0  0  0  0  0  0  0  0  0  0  0
    2.0594   -2.1200   -0.2574 H   0  0  0  0  0  0  0  0  0  0  0  0
   -1.7910   -2.5214   -1.7915 H   0  0  0  0  0  0  0  0  0  0  0  0
   -4.2011   -2.5275   -1.4890 H   0  0  0  0  0  0  0  0  0  0  0  0
   -5.9930   -0.0843    0.6053 H   0  0  0  0  0  0  0  0  0  0  0  0
   -7.8776   -4.1574   -0.7922 H   0  0  0  0  0  0  0  0  0  0  0  0
   -9.5862   -3.5314   -0.4675 H   0  0  0  0  0  0  0  0  0  0  0  0
   -9.0668   -3.4296    2.0590 H   0  0  0  0  0  0  0  0  0  0  0  0
   -7.4089   -4.1370    1.6985 H   0  0  0  0  0  0  0  0  0  0  0  0
   -7.7902    0.4562   -0.3104 H   0  0  0  0  0  0  0  0  0  0  0  0
   -9.7650    1.5684   -1.7719 H   0  0  0  0  0  0  0  0  0  0  0  0
  -10.7674    3.7837   -1.0343 H   0  0  0  0  0  0  0  0  0  0  0  0
  -12.0168    2.5426   -1.4224 H   0  0  0  0  0  0  0  0  0  0  0  0
  -11.6408    4.1294    0.9469 H   0  0  0  0  0  0  0  0  0  0  0  0
  -11.5771    2.4212    2.8054 H   0  0  0  0  0  0  0  0  0  0  0  0
   -9.8450    0.8363    2.4194 H   0  0  0  0  0  0  0  0  0  0  0  0
   -3.9079    0.4182    1.5091 H   0  0  0  0  0  0  0  0  0  0  0  0
   -0.9995    1.3667   -1.3304 H   0  0  0  0  0  0  0  0  0  0  0  0
    0.3645    3.1827   -2.0801 H   0  0  0  0  0  0  0  0  0  0  0  0
    4.7341    1.6500   -1.8317 H   0  0  0  0  0  0  0  0  0  0  0  0
    6.7902    1.4564   -0.9075 H   0  0  0  0  0  0  0  0  0  0  0  0
    6.6790    0.8981   -2.6163 H   0  0  0  0  0  0  0  0  0  0  0  0
    8.5172   -0.6510   -2.2580 H   0  0  0  0  0  0  0  0  0  0  0  0
    8.9717    1.0419   -1.9999 H   0  0  0  0  0  0  0  0  0  0  0  0
    8.1514   -1.0174    0.1504 H   0  0  0  0  0  0  0  0  0  0  0  0
    9.8226   -0.4865   -0.1718 H   0  0  0  0  0  0  0  0  0  0  0  0
    8.8820   -0.5200    2.1502 H   0  0  0  0  0  0  0  0  0  0  0  0
    8.0335    0.9450    2.7222 H   0  0  0  0  0  0  0  0  0  0  0  0
   10.5337    0.5668    3.3880 H   0  0  0  0  0  0  0  0  0  0  0  0
    9.9539    2.2035    3.0123 H   0  0  0  0  0  0  0  0  0  0  0  0
   11.7159    0.2783    1.3726 H   0  0  0  0  0  0  0  0  0  0  0  0
   12.0186    1.9324    1.9308 H   0  0  0  0  0  0  0  0  0  0  0  0
   10.9303    1.1781   -0.6500 H   0  0  0  0  0  0  0  0  0  0  0  0
   11.3098    2.7776   -0.0117 H   0  0  0  0  0  0  0  0  0  0  0  0
    9.0848    2.9287    1.0867 H   0  0  0  0  0  0  0  0  0  0  0  0
    8.9162    2.5157   -0.6375 H   0  0  0  0  0  0  0  0  0  0  0  0
  1  2  1  0
  2  3  1  0
  3  4  2  0
  4  5  1  0
  5  6  2  0
  6  7  1  0
  7  8  1  0
  8  9  2  0
  9 10  1  0
 10 11  2  0
 11 12  1  0
 12 13  1  0
 13 14  2  0
 13 15  1  0
 15 16  1  0
 16 17  1  0
 15 18  1  0
 18 19  2  0
 18 20  1  0
 20 21  1  0
 21 22  2  0
 22 23  1  0
 23 24  1  0
 24 25  1  0
 24 26  1  0
 26 27  2  0
 11 28  1  0
 28 29  2  0
 29 30  1  0
  6 31  1  0
 31 32  2  0
 32 33  1  0
 33 34  2  0
 34 35  1  0
 35 36  2  0
 36 37  1  0
 37 38  1  0
 38 39  1  0
 39 40  1  0
 40 41  1  0
 41 42  1  0
 42 43  1  0
 43 44  1  0
 44 45  1  0
 45 46  1  0
 36  3  1  0
 46 41  1  0
 34  5  1  0
 29  8  1  0
 17 15  1  0
 27 21  1  0
  1 47  1  0
  1 48  1  0
  1 49  1  0
  4 50  1  0
  9 51  1  0
 10 52  1  0
 12 53  1  0
 16 54  1  0
 16 55  1  0
 17 56  1  0
 17 57  1  0
 20 58  1  0
 22 59  1  0
 23 60  1  0
 23 61  1  0
 24 62  1  0
 26 63  1  0
 27 64  1  0
 28 65  1  0
 31 66  1  0
 32 67  1  0
 35 68  1  0
 38 69  1  0
 38 70  1  0
 39 71  1  0
 39 72  1  0
 40 73  1  0
 40 74  1  0
 42 75  1  0
 42 76  1  0
 43 77  1  0
 43 78  1  0
 44 79  1  0
 44 80  1  0
 45 81  1  0
 45 82  1  0
 46 83  1  0
 46 84  1  0
M  END
$$$$
[H]OC(=O)C([H])([H])N([H])C(=O)C1=C(O[H])C([H])([H])C([H])([H])N(C([H])([H])c2c([H])c([H])c(Oc3c([H])c([H])c([H])c(F)c3[H])c([H])c2[H])C1=O
     RDKit          3D

 49 51  0  0  0  0  0  0  0  0999 V2000
   -8.1438    2.0592    0.4913 O   0  0  0  0  0  0  0  0  0  0  0  0
   -6.8853    1.4862    0.2859 C   0  0  0  0  0  0  0  0  0  0  0  0
   -6.5202    1.2878   -0.8814 O   0  0  0  0  0  0  0  0  0  0  0  0
   -6.0880    1.1612    1.4711 C   0  0  0  0  0  0  0  0  0  0  0  0
   -4.8032    0.5338    1.1641 N   0  0  0  0  0  0  0  0  0  0  0  0
   -4.6904   -0.6896    0.5051 C   0  0  0  0  0  0  0  0  0  0  0  0
   -5.8130   -1.2383    0.1867 O   0  0  0  0  0  0  0  0  0  0  0  0
   -3.4963   -1.4115    0.1381 C   0  0  0  0  0  0  0  0  0  0  0  0
   -3.6308   -2.5767   -0.4941 C   0  0  0  0  0  0  0  0  0  0  0  0
   -4.8952   -3.1158   -0.8097 O   0  0  0  0  0  0  0  0  0  0  0  0
   -2.4824   -3.4152   -0.9254 C   0  0  0  0  0  0  0  0  0  0  0  0
   -1.2415   -2.5803   -1.1549 C   0  0  0  0  0  0  0  0  0  0  0  0
   -1.0197   -1.7212    0.0204 N   0  0  0  0  0  0  0  0  0  0  0  0
    0.2546   -1.6961    0.6903 C   0  0  0  0  0  0  0  0  0  0  0  0
    1.1990   -0.6920    0.1600 C   0  0  0  0  0  0  0  0  0  0  0  0
    1.3673    0.5404    0.7487 C   0  0  0  0  0  0  0  0  0  0  0  0
    2.2684    1.4760    0.2225 C   0  0  0  0  0  0  0  0  0  0  0  0
    2.9942    1.1680   -0.8905 C   0  0  0  0  0  0  0  0  0  0  0  0
    3.8828    2.0902   -1.4099 O   0  0  0  0  0  0  0  0  0  0  0  0
    5.2066    2.0964   -0.9679 C   0  0  0  0  0  0  0  0  0  0  0  0
    6.1311    2.9948   -1.4544 C   0  0  0  0  0  0  0  0  0  0  0  0
    7.4342    3.0006   -1.0191 C   0  0  0  0  0  0  0  0  0  0  0  0
    7.8778    2.0973   -0.0657 C   0  0  0  0  0  0  0  0  0  0  0  0
    6.9538    1.1974    0.4224 C   0  0  0  0  0  0  0  0  0  0  0  0
    7.3918    0.3118    1.3580 F   0  0  0  0  0  0  0  0  0  0  0  0
    5.6322    1.1914   -0.0191 C   0  0  0  0  0  0  0  0  0  0  0  0
    2.8445   -0.0476   -1.4915 C   0  0  0  0  0  0  0  0  0  0  0  0
    1.9443   -0.9789   -0.9638 C   0  0  0  0  0  0  0  0  0  0  0  0
   -2.1525   -0.9400    0.4198 C   0  0  0  0  0  0  0  0  0  0  0  0
   -1.9044    0.1341    1.0053 O   0  0  0  0  0  0  0  0  0  0  0  0
   -8.1934    3.0562    0.7265 H   0  0  0  0  0  0  0  0  0  0  0  0
   -5.9767    2.0577    2.0787 H   0  0  0  0  0  0  0  0  0  0  0  0
   -6.6497    0.4024    2.0834 H   0  0  0  0  0  0  0  0  0  0  0  0
   -3.9668    1.0628    1.4713 H   0  0  0  0  0  0  0  0  0  0  0  0
   -5.3050   -3.6734   -0.0551 H   0  0  0  0  0  0  0  0  0  0  0  0
   -2.2208   -4.1485   -0.1214 H   0  0  0  0  0  0  0  0  0  0  0  0
   -2.7205   -3.9624   -1.8536 H   0  0  0  0  0  0  0  0  0  0  0  0
   -1.3375   -1.9854   -2.0732 H   0  0  0  0  0  0  0  0  0  0  0  0
   -0.3927   -3.2781   -1.2696 H   0  0  0  0  0  0  0  0  0  0  0  0
    0.1353   -1.5856    1.8083 H   0  0  0  0  0  0  0  0  0  0  0  0
    0.6763   -2.7399    0.5822 H   0  0  0  0  0  0  0  0  0  0  0  0
    0.8294    0.8316    1.6180 H   0  0  0  0  0  0  0  0  0  0  0  0
    2.3740    2.4237    0.7048 H   0  0  0  0  0  0  0  0  0  0  0  0
    5.8234    3.7199   -2.2032 H   0  0  0  0  0  0  0  0  0  0  0  0
    8.1844    3.7055   -1.3925 H   0  0  0  0  0  0  0  0  0  0  0  0
    8.9100    2.1027    0.2786 H   0  0  0  0  0  0  0  0  0  0  0  0
    4.9329    0.4885    0.3697 H   0  0  0  0  0  0  0  0  0  0  0  0
    3.4251   -0.2715   -2.3671 H   0  0  0  0  0  0  0  0  0  0  0  0
    1.8562   -1.9292   -1.4700 H   0  0  0  0  0  0  0  0  0  0  0  0
  1  2  1  0
  2  3  2  0
  2  4  1  0
  4  5  1  0
  5  6  1  0
  6  7  2  0
  6  8  1  0
  8  9  2  0
  9 10  1  0
  9 11  1  0
 11 12  1  0
 12 13  1  0
 13 14  1  0
 14 15  1  0
 15 16  2  0
 16 17  1  0
 17 18  2  0
 18 19  1  0
 19 20  1  0
 20 21  2  0
 21 22  1  0
 22 23  2  0
 23 24  1  0
 24 25  1  0
 24 26  2  0
 18 27  1  0
 27 28  2  0
 13 29  1  0
 29 30  2  0
 29  8  1  0
 28 15  1  0
 26 20  1  0
  1 31  1  0
  4 32  1  0
  4 33  1  0
  5 34  1  0
 10 35  1  0
 11 36  1  0
 11 37  1  0
 12 38  1  0
 12 39  1  0
 14 40  1  0
 14 41  1  0
 16 42  1  0
 17 43  1  0
 21 44  1  0
 22 45  1  0
 23 46  1  0
 26 47  1  0
 27 48  1  0
 28 49  1  0
M  END
$$$$
[H]c1nc([H])c([H])c(-c2c([H])c([H])c(OC([H])([H])C([H])([H])C([H])([H])N3C(=S)N(c4c([H])c([H])c(C#N)c(Cl)c4[H])C(=O)C3(C([H])([H])[H])C([H])([H])[H])c([H])c2[H])c1[H]
     RDKit          3D

 57 60  0  0  0  0  0  0  0  0999 V2000
    2.2685   -1.8141   -1.4646 C   0  0  0  0  0  0  0  0  0  0  0  0
    2.7080   -1.8723   -0.0310 C   0  0  0  0  0  0  0  0  0  0  0  0
    2.5335   -3.2656    0.5166 C   0  0  0  0  0  0  0  0  0  0  0  0
    2.1436   -0.8687    0.8292 N   0  0  0  0  0  0  0  0  0  0  0  0
    0.9143   -0.9596    1.5568 C   0  0  0  0  0  0  0  0  0  0  0  0
   -0.3221   -0.9310    0.7157 C   0  0  0  0  0  0  0  0  0  0  0  0
   -0.4210    0.3950   -0.0045 C   0  0  0  0  0  0  0  0  0  0  0  0
   -1.5307    0.5003   -0.8088 O   0  0  0  0  0  0  0  0  0  0  0  0
   -2.8456    0.5048   -0.4511 C   0  0  0  0  0  0  0  0  0  0  0  0
   -3.7874    0.5891   -1.4957 C   0  0  0  0  0  0  0  0  0  0  0  0
   -5.1332    0.6024   -1.2357 C   0  0  0  0  0  0  0  0  0  0  0  0
   -5.6451    0.5356    0.0399 C   0  0  0  0  0  0  0  0  0  0  0  0
   -4.7369    0.4537    1.0712 C   0  0  0  0  0  0  0  0  0  0  0  0
   -3.3544    0.4393    0.8246 C   0  0  0  0  0  0  0  0  0  0  0  0
   -7.0777    0.5472    0.3067 C   0  0  0  0  0  0  0  0  0  0  0  0
   -7.9348    1.2438   -0.5171 C   0  0  0  0  0  0  0  0  0  0  0  0
   -9.3051    1.2570   -0.2696 C   0  0  0  0  0  0  0  0  0  0  0  0
   -9.8116    0.5832    0.7873 N   0  0  0  0  0  0  0  0  0  0  0  0
   -9.0170   -0.1028    1.6086 C   0  0  0  0  0  0  0  0  0  0  0  0
   -7.6480   -0.1211    1.3681 C   0  0  0  0  0  0  0  0  0  0  0  0
    3.0443    0.2270    0.8257 C   0  0  0  0  0  0  0  0  0  0  0  0
    2.7630    1.7672    1.3080 S   0  0  0  0  0  0  0  0  0  0  0  0
    4.2981   -0.2189    0.3191 N   0  0  0  0  0  0  0  0  0  0  0  0
    4.1911   -1.5786    0.0073 C   0  0  0  0  0  0  0  0  0  0  0  0
    5.0645   -2.4224   -0.2049 O   0  0  0  0  0  0  0  0  0  0  0  0
    5.4794    0.5769    0.1476 C   0  0  0  0  0  0  0  0  0  0  0  0
    5.9659    1.2981    1.2136 C   0  0  0  0  0  0  0  0  0  0  0  0
    7.1114    2.0676    1.0380 C   0  0  0  0  0  0  0  0  0  0  0  0
    7.7390    2.0967   -0.1931 C   0  0  0  0  0  0  0  0  0  0  0  0
    8.9312    2.8810   -0.4252 C   0  0  0  0  0  0  0  0  0  0  0  0
    9.9010    3.4963   -0.6194 N   0  0  0  0  0  0  0  0  0  0  0  0
    7.2119    1.3565   -1.2295 C   0  0  0  0  0  0  0  0  0  0  0  0
    8.0005    1.3934   -2.7759 Cl  0  0  0  0  0  0  0  0  0  0  0  0
    6.0872    0.5928   -1.0810 C   0  0  0  0  0  0  0  0  0  0  0  0
    2.1585   -0.7601   -1.8025 H   0  0  0  0  0  0  0  0  0  0  0  0
    1.3876   -2.4420   -1.6944 H   0  0  0  0  0  0  0  0  0  0  0  0
    3.1001   -2.2475   -2.0942 H   0  0  0  0  0  0  0  0  0  0  0  0
    1.4684   -3.5879    0.5059 H   0  0  0  0  0  0  0  0  0  0  0  0
    3.1249   -3.9491   -0.1511 H   0  0  0  0  0  0  0  0  0  0  0  0
    2.8671   -3.3353    1.5582 H   0  0  0  0  0  0  0  0  0  0  0  0
    0.8069   -0.1521    2.3190 H   0  0  0  0  0  0  0  0  0  0  0  0
    0.9762   -1.9061    2.1568 H   0  0  0  0  0  0  0  0  0  0  0  0
   -1.1793   -1.2270    1.3018 H   0  0  0  0  0  0  0  0  0  0  0  0
   -0.2530   -1.7307   -0.1024 H   0  0  0  0  0  0  0  0  0  0  0  0
   -0.4335    1.2397    0.7657 H   0  0  0  0  0  0  0  0  0  0  0  0
    0.5147    0.5320   -0.5925 H   0  0  0  0  0  0  0  0  0  0  0  0
   -3.4045    0.6438   -2.5201 H   0  0  0  0  0  0  0  0  0  0  0  0
   -5.8521    0.6673   -2.0416 H   0  0  0  0  0  0  0  0  0  0  0  0
   -5.0905    0.3983    2.1035 H   0  0  0  0  0  0  0  0  0  0  0  0
   -2.6747    0.3996    1.6491 H   0  0  0  0  0  0  0  0  0  0  0  0
   -7.5096    1.7767   -1.3584 H   0  0  0  0  0  0  0  0  0  0  0  0
   -9.9516    1.8136   -0.9354 H   0  0  0  0  0  0  0  0  0  0  0  0
   -9.4728   -0.6262    2.4415 H   0  0  0  0  0  0  0  0  0  0  0  0
   -7.0289   -0.6841    2.0475 H   0  0  0  0  0  0  0  0  0  0  0  0
    5.4689    1.2677    2.1672 H   0  0  0  0  0  0  0  0  0  0  0  0
    7.5384    2.6586    1.8510 H   0  0  0  0  0  0  0  0  0  0  0  0
    5.6526    0.0010   -1.8816 H   0  0  0  0  0  0  0  0  0  0  0  0
  1  2  1  0
  2  3  1  0
  2  4  1  0
  4  5  1  0
  5  6  1  0
  6  7  1  0
  7  8  1  0
  8  9  1  0
  9 10  2  0
 10 11  1  0
 11 12  2  0
 12 13  1  0
 13 14  2  0
 12 15  1  0
 15 16  2  0
 16 17  1  0
 17 18  2  0
 18 19  1  0
 19 20  2  0
  4 21  1  0
 21 22  2  0
 21 23  1  0
 23 24  1  0
 24 25  2  0
 23 26  1  0
 26 27  2  0
 27 28  1  0
 28 29  2  0
 29 30  1  0
 30 31  3  0
 29 32  1  0
 32 33  1  0
 32 34  2  0
 24  2  1  0
 34 26  1  0
 14  9  1  0
 20 15  1  0
  1 35  1  0
  1 36  1  0
  1 37  1  0
  3 38  1  0
  3 39  1  0
  3 40  1  0
  5 41  1  0
  5 42  1  0
  6 43  1  0
  6 44  1  0
  7 45  1  0
  7 46  1  0
 10 47  1  0
 11 48  1  0
 13 49  1  0
 14 50  1  0
 16 51  1  0
 17 52  1  0
 19 53  1  0
 20 54  1  0
 27 55  1  0
 28 56  1  0
 34 57  1  0
M  END
$$$$
[H]Oc1c([H])c([H])c2c(c1[H])c1c3c(c4c5c([H])c([H])c([H])c([H])c5n5c4c1n2[C@]1([H])O[C@@]5(C([H])([H])[H])[C@@](O[H])(C([H])([H])O[H])C1([H])[H])C([H])([H])N([H])C3=O
     RDKit          3D

 55 62  0  0  0  0  0  0  0  0999 V2000
    3.4206   -0.5231   -1.3060 C   0  0  0  0  0  0  0  0  0  0  0  0
    2.2473    0.0020   -0.5239 C   0  0  2  0  0  0  0  0  0  0  0  0
    1.6611    0.9167   -1.4525 O   0  0  0  0  0  0  0  0  0  0  0  0
    1.1498    1.9687   -0.7481 C   0  0  2  0  0  0  0  0  0  0  0  0
    1.8582    2.0815    0.5624 C   0  0  0  0  0  0  0  0  0  0  0  0
    2.5886    0.7861    0.6737 C   0  0  1  0  0  0  0  0  0  0  0  0
    2.1366    0.1380    1.8383 O   0  0  0  0  0  0  0  0  0  0  0  0
    4.0529    1.0587    0.8724 C   0  0  0  0  0  0  0  0  0  0  0  0
    4.6323    1.7022   -0.2133 O   0  0  0  0  0  0  0  0  0  0  0  0
   -0.2906    1.6856   -0.5759 N   0  0  0  0  0  0  0  0  0  0  0  0
   -1.3056    2.5231   -0.6313 C   0  0  0  0  0  0  0  0  0  0  0  0
   -1.3081    3.8861   -0.8648 C   0  0  0  0  0  0  0  0  0  0  0  0
   -2.5059    4.5637   -0.8770 C   0  0  0  0  0  0  0  0  0  0  0  0
   -3.6992    3.9090   -0.6610 C   0  0  0  0  0  0  0  0  0  0  0  0
   -4.8925    4.6134   -0.6782 O   0  0  0  0  0  0  0  0  0  0  0  0
   -3.6996    2.5284   -0.4242 C   0  0  0  0  0  0  0  0  0  0  0  0
   -2.5062    1.8719   -0.4153 C   0  0  0  0  0  0  0  0  0  0  0  0
   -2.1845    0.5446   -0.2151 C   0  0  0  0  0  0  0  0  0  0  0  0
   -2.8967   -0.5993    0.0580 C   0  0  0  0  0  0  0  0  0  0  0  0
   -4.3048   -0.8797    0.2321 C   0  0  0  0  0  0  0  0  0  0  0  0
   -5.3138   -0.1601    0.1870 O   0  0  0  0  0  0  0  0  0  0  0  0
   -4.4380   -2.2930    0.5043 N   0  0  0  0  0  0  0  0  0  0  0  0
   -3.1259   -2.9022    0.5036 C   0  0  0  0  0  0  0  0  0  0  0  0
   -2.1821   -1.7892    0.2152 C   0  0  0  0  0  0  0  0  0  0  0  0
   -0.8195   -1.8486    0.1068 C   0  0  0  0  0  0  0  0  0  0  0  0
    0.1049   -2.8559    0.2306 C   0  0  0  0  0  0  0  0  0  0  0  0
   -0.0360   -4.1866    0.5135 C   0  0  0  0  0  0  0  0  0  0  0  0
    1.0588   -5.0086    0.6058 C   0  0  0  0  0  0  0  0  0  0  0  0
    2.2867   -4.4352    0.4030 C   0  0  0  0  0  0  0  0  0  0  0  0
    2.4566   -3.0902    0.1153 C   0  0  0  0  0  0  0  0  0  0  0  0
    1.3407   -2.2865    0.0267 C   0  0  0  0  0  0  0  0  0  0  0  0
    1.2161   -0.9624   -0.2233 N   0  0  0  0  0  0  0  0  0  0  0  0
   -0.1373   -0.7151   -0.1636 C   0  0  0  0  0  0  0  0  0  0  0  0
   -0.8100    0.4783   -0.3239 C   0  0  0  0  0  0  0  0  0  0  0  0
    3.7495    0.2214   -2.1125 H   0  0  0  0  0  0  0  0  0  0  0  0
    3.0859   -1.3886   -1.9069 H   0  0  0  0  0  0  0  0  0  0  0  0
    4.3330   -0.6940   -0.7434 H   0  0  0  0  0  0  0  0  0  0  0  0
    1.2595    2.9067   -1.3116 H   0  0  0  0  0  0  0  0  0  0  0  0
    2.5114    2.9712    0.5654 H   0  0  0  0  0  0  0  0  0  0  0  0
    1.0941    2.2105    1.3701 H   0  0  0  0  0  0  0  0  0  0  0  0
    1.3720    0.5935    2.2253 H   0  0  0  0  0  0  0  0  0  0  0  0
    4.6132    0.1443    1.1703 H   0  0  0  0  0  0  0  0  0  0  0  0
    4.1379    1.7536    1.7385 H   0  0  0  0  0  0  0  0  0  0  0  0
    5.6275    1.6691   -0.0488 H   0  0  0  0  0  0  0  0  0  0  0  0
   -0.3838    4.3940   -1.0322 H   0  0  0  0  0  0  0  0  0  0  0  0
   -2.5092    5.6411   -1.0615 H   0  0  0  0  0  0  0  0  0  0  0  0
   -5.2045    4.9956    0.2050 H   0  0  0  0  0  0  0  0  0  0  0  0
   -4.6585    2.1051   -0.2684 H   0  0  0  0  0  0  0  0  0  0  0  0
   -5.3155   -2.8250    0.6780 H   0  0  0  0  0  0  0  0  0  0  0  0
   -3.0787   -3.6962   -0.2783 H   0  0  0  0  0  0  0  0  0  0  0  0
   -2.9256   -3.3497    1.5126 H   0  0  0  0  0  0  0  0  0  0  0  0
   -1.0399   -4.5662    0.6615 H   0  0  0  0  0  0  0  0  0  0  0  0
    0.9379   -6.0620    0.8299 H   0  0  0  0  0  0  0  0  0  0  0  0
    3.1908   -5.0610    0.4686 H   0  0  0  0  0  0  0  0  0  0  0  0
    3.4478   -2.6856   -0.0129 H   0  0  0  0  0  0  0  0  0  0  0  0
  2  1  1  6
  2  3  1  0
  3  4  1  0
  4  5  1  0
  5  6  1  0
  6  7  1  1
  6  8  1  0
  8  9  1  0
  4 10  1  0
 10 11  1  0
 11 12  2  0
 12 13  1  0
 13 14  2  0
 14 15  1  0
 14 16  1  0
 16 17  2  0
 17 18  1  0
 18 19  2  0
 19 20  1  0
 20 21  2  0
 20 22  1  0
 22 23  1  0
 23 24  1  0
 24 25  2  0
 25 26  1  0
 26 27  2  0
 27 28  1  0
 28 29  2  0
 29 30  1  0
 30 31  2  0
 31 32  1  0
 32 33  1  0
 33 34  2  0
  6  2  1  0
 34 10  1  0
 32  2  1  0
 17 11  1  0
 34 18  1  0
 24 19  1  0
 33 25  1  0
 31 26  1  0
  1 35  1  0
  1 36  1  0
  1 37  1  0
  4 38  1  6
  5 39  1  0
  5 40  1  0
  7 41  1  0
  8 42  1  0
  8 43  1  0
  9 44  1  0
 12 45  1  0
 13 46  1  0
 15 47  1  0
 16 48  1  0
 22 49  1  0
 23 50  1  0
 23 51  1  0
 27 52  1  0
 28 53  1  0
 29 54  1  0
 30 55  1  0
M  END
$$$$
[H]O[C@@]1([H])C([H])([H])C([H])([H])C2([H])C3([H])C([H])([H])C([H])([H])C4=C([H])C(=O)C([H])([H])C([H])([H])[C@]4(C([H])=C([H])[H])C3([H])C([H])([H])C([H])([H])[C@@]21C([H])([H])[H]
     RDKit          3D

 50 53  0  0  0  0  0  0  0  0999 V2000
    2.5071    1.3047    0.9431 C   0  0  0  0  0  0  0  0  0  0  0  0
    2.3258    0.5520   -0.3053 C   0  0  2  0  0  0  0  0  0  0  0  0
    1.4554    1.2064   -1.3349 C   0  0  0  0  0  0  0  0  0  0  0  0
    0.0459    1.3139   -0.8571 C   0  0  0  0  0  0  0  0  0  0  0  0
   -0.3501    0.4127    0.2447 C   0  0  0  0  0  0  0  0  0  0  0  0
    0.3716   -0.9074    0.2879 C   0  0  0  0  0  0  0  0  0  0  0  0
   -0.3369   -2.0149   -0.4602 C   0  0  0  0  0  0  0  0  0  0  0  0
   -1.3719   -1.5496   -1.4274 C   0  0  0  0  0  0  0  0  0  0  0  0
   -2.3068   -0.5412   -0.8726 C   0  0  0  0  0  0  0  0  0  0  0  0
   -3.5096   -0.3709   -1.4092 C   0  0  0  0  0  0  0  0  0  0  0  0
   -4.4117    0.6278   -0.8459 C   0  0  0  0  0  0  0  0  0  0  0  0
   -5.6168    0.7191   -1.2072 O   0  0  0  0  0  0  0  0  0  0  0  0
   -3.9598    1.6072    0.1978 C   0  0  0  0  0  0  0  0  0  0  0  0
   -2.4450    1.6602    0.2497 C   0  0  0  0  0  0  0  0  0  0  0  0
   -1.8601    0.2528    0.2732 C   0  0  2  0  0  0  0  0  0  0  0  0
   -2.2473   -0.3102    1.5948 C   0  0  0  0  0  0  0  0  0  0  0  0
   -3.0485   -1.3473    1.7375 C   0  0  0  0  0  0  0  0  0  0  0  0
    1.7784   -0.8480   -0.1395 C   0  0  0  0  0  0  0  0  0  0  0  0
    2.8066   -1.4594    0.7287 C   0  0  0  0  0  0  0  0  0  0  0  0
    4.1001   -0.9246    0.1204 C   0  0  0  0  0  0  0  0  0  0  0  0
    3.6966    0.1861   -0.8359 C   0  0  2  0  0  0  0  0  0  0  0  0
    4.5987    1.2471   -0.6124 O   0  0  0  0  0  0  0  0  0  0  0  0
    3.5635    1.6034    1.0981 H   0  0  0  0  0  0  0  0  0  0  0  0
    2.1840    0.8059    1.8710 H   0  0  0  0  0  0  0  0  0  0  0  0
    1.9372    2.2576    0.8744 H   0  0  0  0  0  0  0  0  0  0  0  0
    1.4687    0.5595   -2.2391 H   0  0  0  0  0  0  0  0  0  0  0  0
    1.8685    2.1898   -1.6499 H   0  0  0  0  0  0  0  0  0  0  0  0
   -0.6521    1.1909   -1.7106 H   0  0  0  0  0  0  0  0  0  0  0  0
   -0.0918    2.3882   -0.5310 H   0  0  0  0  0  0  0  0  0  0  0  0
   -0.1319    0.9609    1.2119 H   0  0  0  0  0  0  0  0  0  0  0  0
    0.3624   -1.2263    1.3735 H   0  0  0  0  0  0  0  0  0  0  0  0
    0.4170   -2.5877   -1.0855 H   0  0  0  0  0  0  0  0  0  0  0  0
   -0.7318   -2.8133    0.2188 H   0  0  0  0  0  0  0  0  0  0  0  0
   -1.9947   -2.4343   -1.6941 H   0  0  0  0  0  0  0  0  0  0  0  0
   -0.8669   -1.1199   -2.3166 H   0  0  0  0  0  0  0  0  0  0  0  0
   -3.8176   -0.9758   -2.2656 H   0  0  0  0  0  0  0  0  0  0  0  0
   -4.3362    2.6023   -0.1179 H   0  0  0  0  0  0  0  0  0  0  0  0
   -4.4085    1.3928    1.1835 H   0  0  0  0  0  0  0  0  0  0  0  0
   -2.1670    2.1311    1.2145 H   0  0  0  0  0  0  0  0  0  0  0  0
   -2.1198    2.2470   -0.6101 H   0  0  0  0  0  0  0  0  0  0  0  0
   -1.8163    0.2009    2.4629 H   0  0  0  0  0  0  0  0  0  0  0  0
   -3.4525   -1.8239    0.8634 H   0  0  0  0  0  0  0  0  0  0  0  0
   -3.3089   -1.7298    2.7073 H   0  0  0  0  0  0  0  0  0  0  0  0
    1.8733   -1.3222   -1.1615 H   0  0  0  0  0  0  0  0  0  0  0  0
    2.6799   -1.1672    1.7771 H   0  0  0  0  0  0  0  0  0  0  0  0
    2.7740   -2.5692    0.6647 H   0  0  0  0  0  0  0  0  0  0  0  0
    4.5680   -1.7688   -0.4412 H   0  0  0  0  0  0  0  0  0  0  0  0
    4.8113   -0.5827    0.8902 H   0  0  0  0  0  0  0  0  0  0  0  0
    3.6833   -0.1305   -1.8824 H   0  0  0  0  0  0  0  0  0  0  0  0
    5.4831    0.9049   -0.9123 H   0  0  0  0  0  0  0  0  0  0  0  0
  2  1  1  1
  2  3  1  0
  3  4  1  0
  4  5  1  0
  5  6  1  0
  6  7  1  0
  7  8  1  0
  8  9  1  0
  9 10  2  0
 10 11  1  0
 11 12  2  0
 11 13  1  0
 13 14  1  0
 14 15  1  0
 15 16  1  1
 16 17  2  3
  6 18  1  0
 18 19  1  0
 19 20  1  0
 20 21  1  0
 21 22  1  0
 18  2  1  0
 21  2  1  0
 15  5  1  0
 15  9  1  0
  1 23  1  0
  1 24  1  0
  1 25  1  0
  3 26  1  0
  3 27  1  0
  4 28  1  0
  4 29  1  0
  5 30  1  0
  6 31  1  0
  7 32  1  0
  7 33  1  0
  8 34  1  0
  8 35  1  0
 10 36  1  0
 13 37  1  0
 13 38  1  0
 14 39  1  0
 14 40  1  0
 16 41  1  0
 17 42  1  0
 17 43  1  0
 18 44  1  0
 19 45  1  0
 19 46  1  0
 20 47  1  0
 20 48  1  0
 21 49  1  6
 22 50  1  0
M  END
$$$$
[H]Oc1c([H])c([H])c2c3c1O[C@@]1([H])[C@@]([H])(O[H])C([H])=C([H])[C@]4([H])[C@@]31C([H])([H])C([H])([H])N(C([H])([H])[H])[C@]4([H])C2([H])[H]
     RDKit          3D

 40 44  0  0  0  0  0  0  0  0999 V2000
    3.6343   -1.4961   -0.4297 C   0  0  0  0  0  0  0  0  0  0  0  0
    2.2002   -1.4574   -0.5678 N   0  0  0  0  0  0  0  0  0  0  0  0
    1.8640   -0.6936   -1.7270 C   0  0  0  0  0  0  0  0  0  0  0  0
    0.4265   -0.2216   -1.7632 C   0  0  0  0  0  0  0  0  0  0  0  0
    0.0558    0.5093   -0.5234 C   0  0  1  0  0  0  0  0  0  0  0  0
   -0.5779    1.8502   -0.7287 C   0  0  1  0  0  0  0  0  0  0  0  0
   -1.9930    1.5540   -0.8782 O   0  0  0  0  0  0  0  0  0  0  0  0
   -2.2650    0.4255   -0.0963 C   0  0  0  0  0  0  0  0  0  0  0  0
   -1.0729   -0.2107    0.1349 C   0  0  0  0  0  0  0  0  0  0  0  0
   -0.9133   -1.3430    0.8556 C   0  0  0  0  0  0  0  0  0  0  0  0
    0.4665   -1.9068    1.0297 C   0  0  0  0  0  0  0  0  0  0  0  0
    1.5550   -0.9848    0.6427 C   0  0  2  0  0  0  0  0  0  0  0  0
    1.1857    0.4603    0.4616 C   0  0  2  0  0  0  0  0  0  0  0  0
    0.8033    1.1398    1.6997 C   0  0  0  0  0  0  0  0  0  0  0  0
    0.0936    2.2549    1.6440 C   0  0  0  0  0  0  0  0  0  0  0  0
   -0.3310    2.8442    0.3497 C   0  0  2  0  0  0  0  0  0  0  0  0
   -1.5161    3.5764    0.5569 O   0  0  0  0  0  0  0  0  0  0  0  0
   -2.0237   -1.9299    1.4154 C   0  0  0  0  0  0  0  0  0  0  0  0
   -3.2635   -1.3395    1.2206 C   0  0  0  0  0  0  0  0  0  0  0  0
   -3.3785   -0.1651    0.4662 C   0  0  0  0  0  0  0  0  0  0  0  0
   -4.6067    0.4245    0.2703 O   0  0  0  0  0  0  0  0  0  0  0  0
    3.8865   -2.5092   -0.0101 H   0  0  0  0  0  0  0  0  0  0  0  0
    4.1629   -1.3448   -1.4083 H   0  0  0  0  0  0  0  0  0  0  0  0
    4.0040   -0.7753    0.3382 H   0  0  0  0  0  0  0  0  0  0  0  0
    2.5562    0.1780   -1.8903 H   0  0  0  0  0  0  0  0  0  0  0  0
    2.0139   -1.3480   -2.6245 H   0  0  0  0  0  0  0  0  0  0  0  0
    0.3096    0.4435   -2.6291 H   0  0  0  0  0  0  0  0  0  0  0  0
   -0.2251   -1.1199   -1.9352 H   0  0  0  0  0  0  0  0  0  0  0  0
   -0.2647    2.2364   -1.7116 H   0  0  0  0  0  0  0  0  0  0  0  0
    0.4899   -2.8116    0.3771 H   0  0  0  0  0  0  0  0  0  0  0  0
    0.5550   -2.3017    2.0696 H   0  0  0  0  0  0  0  0  0  0  0  0
    2.3442   -1.0206    1.4494 H   0  0  0  0  0  0  0  0  0  0  0  0
    2.0647    0.9505   -0.0330 H   0  0  0  0  0  0  0  0  0  0  0  0
    1.0901    0.7472    2.6606 H   0  0  0  0  0  0  0  0  0  0  0  0
   -0.2108    2.7919    2.5612 H   0  0  0  0  0  0  0  0  0  0  0  0
    0.4642    3.5514   -0.0279 H   0  0  0  0  0  0  0  0  0  0  0  0
   -2.0361    3.5988   -0.2877 H   0  0  0  0  0  0  0  0  0  0  0  0
   -1.9213   -2.8501    2.0050 H   0  0  0  0  0  0  0  0  0  0  0  0
   -4.1676   -1.7708    1.6454 H   0  0  0  0  0  0  0  0  0  0  0  0
   -5.4590    0.0640    0.6406 H   0  0  0  0  0  0  0  0  0  0  0  0
  1  2  1  0
  2  3  1  0
  3  4  1  0
  5  4  1  6
  5  6  1  0
  6  7  1  0
  7  8  1  0
  8  9  2  0
  9 10  1  0
 10 11  1  0
 11 12  1  0
 12 13  1  0
 13 14  1  0
 14 15  2  0
 15 16  1  0
 16 17  1  0
 10 18  2  0
 18 19  1  0
 19 20  2  0
 20 21  1  0
 12  2  1  0
  9  5  1  0
 13  5  1  0
 16  6  1  0
 20  8  1  0
  1 22  1  0
  1 23  1  0
  1 24  1  0
  3 25  1  0
  3 26  1  0
  4 27  1  0
  4 28  1  0
  6 29  1  6
 11 30  1  0
 11 31  1  0
 12 32  1  1
 13 33  1  6
 14 34  1  0
 15 35  1  0
 16 36  1  6
 17 37  1  0
 18 38  1  0
 19 39  1  0
 21 40  1  0
M  END
$$$$
[H]c1c([H])c(Cl)c(-c2c([H])c3c([H])nc(N([H])c4c([H])c([H])c(N5C([H])([H])C([H])([H])N(C([H])([H])[H])C([H])([H])C5([H])[H])c([H])c4[H])nc3n(C([H])([H])[H])c2=O)c(Cl)c1[H]
     RDKit          3D

 58 62  0  0  0  0  0  0  0  0999 V2000
    8.7224   -0.7038   -1.0744 C   0  0  0  0  0  0  0  0  0  0  0  0
    7.4397   -0.3590   -1.6865 N   0  0  0  0  0  0  0  0  0  0  0  0
    7.0422    0.9098   -1.1085 C   0  0  0  0  0  0  0  0  0  0  0  0
    6.3179    0.6491    0.1968 C   0  0  0  0  0  0  0  0  0  0  0  0
    5.0438    0.0436   -0.1284 N   0  0  0  0  0  0  0  0  0  0  0  0
    5.0923   -0.9153   -1.2399 C   0  0  0  0  0  0  0  0  0  0  0  0
    6.5145   -1.4160   -1.3667 C   0  0  0  0  0  0  0  0  0  0  0  0
    3.8252    0.3062    0.5286 C   0  0  0  0  0  0  0  0  0  0  0  0
    3.7214    1.1243    1.6305 C   0  0  0  0  0  0  0  0  0  0  0  0
    2.5219    1.3736    2.2571 C   0  0  0  0  0  0  0  0  0  0  0  0
    1.3265    0.7971    1.7969 C   0  0  0  0  0  0  0  0  0  0  0  0
    0.1469    1.0923    2.4998 N   0  0  0  0  0  0  0  0  0  0  0  0
   -1.1899    0.8532    2.1110 C   0  0  0  0  0  0  0  0  0  0  0  0
   -2.2165    1.2108    2.9512 N   0  0  0  0  0  0  0  0  0  0  0  0
   -3.5029    1.0306    2.6538 C   0  0  0  0  0  0  0  0  0  0  0  0
   -3.8747    0.4675    1.4698 C   0  0  0  0  0  0  0  0  0  0  0  0
   -5.2097    0.2655    1.1275 C   0  0  0  0  0  0  0  0  0  0  0  0
   -5.5448   -0.3068   -0.0798 C   0  0  0  0  0  0  0  0  0  0  0  0
   -6.9463   -0.5110   -0.4233 C   0  0  0  0  0  0  0  0  0  0  0  0
   -7.5727   -1.6909   -0.0816 C   0  0  0  0  0  0  0  0  0  0  0  0
   -6.7254   -2.9692    0.7637 Cl  0  0  0  0  0  0  0  0  0  0  0  0
   -8.9062   -1.9121   -0.3963 C   0  0  0  0  0  0  0  0  0  0  0  0
   -9.6532   -0.9477   -1.0678 C   0  0  0  0  0  0  0  0  0  0  0  0
   -9.0241    0.2360   -1.4104 C   0  0  0  0  0  0  0  0  0  0  0  0
   -7.7010    0.4264   -1.0849 C   0  0  0  0  0  0  0  0  0  0  0  0
   -6.9498    1.9389   -1.5390 Cl  0  0  0  0  0  0  0  0  0  0  0  0
   -4.5000   -0.6566   -0.9040 C   0  0  0  0  0  0  0  0  0  0  0  0
   -4.7838   -1.1819   -2.0136 O   0  0  0  0  0  0  0  0  0  0  0  0
   -3.2127   -0.4601   -0.5703 N   0  0  0  0  0  0  0  0  0  0  0  0
   -2.1231   -0.8424   -1.4667 C   0  0  0  0  0  0  0  0  0  0  0  0
   -2.8626    0.0985    0.6064 C   0  0  0  0  0  0  0  0  0  0  0  0
   -1.5959    0.3058    0.9635 N   0  0  0  0  0  0  0  0  0  0  0  0
    1.4499   -0.0143    0.6998 C   0  0  0  0  0  0  0  0  0  0  0  0
    2.6757   -0.2660    0.0631 C   0  0  0  0  0  0  0  0  0  0  0  0
    8.4600   -1.1949   -0.0924 H   0  0  0  0  0  0  0  0  0  0  0  0
    9.2266   -1.4433   -1.7258 H   0  0  0  0  0  0  0  0  0  0  0  0
    9.3445    0.2028   -0.8899 H   0  0  0  0  0  0  0  0  0  0  0  0
    7.8706    1.5909   -0.9005 H   0  0  0  0  0  0  0  0  0  0  0  0
    6.3455    1.3995   -1.8075 H   0  0  0  0  0  0  0  0  0  0  0  0
    6.2737    1.5522    0.7954 H   0  0  0  0  0  0  0  0  0  0  0  0
    6.9057   -0.1203    0.7570 H   0  0  0  0  0  0  0  0  0  0  0  0
    4.7414   -0.4993   -2.1814 H   0  0  0  0  0  0  0  0  0  0  0  0
    4.5014   -1.8035   -0.8821 H   0  0  0  0  0  0  0  0  0  0  0  0
    6.5452   -2.1425   -2.2209 H   0  0  0  0  0  0  0  0  0  0  0  0
    6.8537   -1.9325   -0.4561 H   0  0  0  0  0  0  0  0  0  0  0  0
    4.6486    1.5712    1.9890 H   0  0  0  0  0  0  0  0  0  0  0  0
    2.4849    2.0217    3.1179 H   0  0  0  0  0  0  0  0  0  0  0  0
    0.2484    1.5552    3.4589 H   0  0  0  0  0  0  0  0  0  0  0  0
   -4.2586    1.3336    3.3571 H   0  0  0  0  0  0  0  0  0  0  0  0
   -5.9798    0.5697    1.8346 H   0  0  0  0  0  0  0  0  0  0  0  0
   -9.4125   -2.8283   -0.1374 H   0  0  0  0  0  0  0  0  0  0  0  0
  -10.7017   -1.1457   -1.3040 H   0  0  0  0  0  0  0  0  0  0  0  0
   -9.6092    0.9884   -1.9349 H   0  0  0  0  0  0  0  0  0  0  0  0
   -1.4230   -1.4968   -0.8848 H   0  0  0  0  0  0  0  0  0  0  0  0
   -2.4850   -1.4366   -2.3206 H   0  0  0  0  0  0  0  0  0  0  0  0
   -1.5780    0.0677   -1.7368 H   0  0  0  0  0  0  0  0  0  0  0  0
    0.5779   -0.5003    0.2943 H   0  0  0  0  0  0  0  0  0  0  0  0
    2.6748   -0.9267   -0.8068 H   0  0  0  0  0  0  0  0  0  0  0  0
  1  2  1  0
  2  3  1  0
  3  4  1  0
  4  5  1  0
  5  6  1  0
  6  7  1  0
  5  8  1  0
  8  9  2  0
  9 10  1  0
 10 11  2  0
 11 12  1  0
 12 13  1  0
 13 14  2  0
 14 15  1  0
 15 16  2  0
 16 17  1  0
 17 18  2  0
 18 19  1  0
 19 20  2  0
 20 21  1  0
 20 22  1  0
 22 23  2  0
 23 24  1  0
 24 25  2  0
 25 26  1  0
 18 27  1  0
 27 28  2  0
 27 29  1  0
 29 30  1  0
 29 31  1  0
 31 32  2  0
 11 33  1  0
 33 34  2  0
  7  2  1  0
 34  8  1  0
 32 13  1  0
 31 16  1  0
 25 19  1  0
  1 35  1  0
  1 36  1  0
  1 37  1  0
  3 38  1  0
  3 39  1  0
  4 40  1  0
  4 41  1  0
  6 42  1  0
  6 43  1  0
  7 44  1  0
  7 45  1  0
  9 46  1  0
 10 47  1  0
 12 48  1  0
 15 49  1  0
 17 50  1  0
 22 51  1  0
 23 52  1  0
 24 53  1  0
 30 54  1  0
 30 55  1  0
 30 56  1  0
 33 57  1  0
 34 58  1  0
M  END
$$$$
[H]c1c([H])c([H])c(/C(=C2/C(=O)N([H])c3c([H])c(C(=O)OC([H])([H])[H])c([H])c([H])c32)N([H])c2c([H])c([H])c(N(C(=O)C([H])([H])N3C([H])([H])C([H])([H])N(C([H])([H])[H])C([H])([H])C3([H])[H])C([H])([H])[H])c([H])c2[H])c([H])c1[H]
     RDKit          3D

 73 77  0  0  0  0  0  0  0  0999 V2000
   -9.6259    2.7362   -3.1505 C   0  0  0  0  0  0  0  0  0  0  0  0
   -8.5822    2.1423   -2.4234 O   0  0  0  0  0  0  0  0  0  0  0  0
   -7.8814    1.0256   -2.8716 C   0  0  0  0  0  0  0  0  0  0  0  0
   -8.1814    0.5157   -3.9683 O   0  0  0  0  0  0  0  0  0  0  0  0
   -6.8215    0.5153   -2.0123 C   0  0  0  0  0  0  0  0  0  0  0  0
   -6.4947    1.0717   -0.8140 C   0  0  0  0  0  0  0  0  0  0  0  0
   -5.4728    0.5613   -0.0049 C   0  0  0  0  0  0  0  0  0  0  0  0
   -4.7972   -0.5386   -0.4611 C   0  0  0  0  0  0  0  0  0  0  0  0
   -3.6924   -1.2784    0.1218 C   0  0  0  0  0  0  0  0  0  0  0  0
   -3.1406   -1.1461    1.2984 C   0  0  0  0  0  0  0  0  0  0  0  0
   -2.0489   -2.0001    1.6122 N   0  0  0  0  0  0  0  0  0  0  0  0
   -0.6955   -1.7404    1.2757 C   0  0  0  0  0  0  0  0  0  0  0  0
   -0.3049   -0.6232    0.5755 C   0  0  0  0  0  0  0  0  0  0  0  0
    1.0409   -0.3967    0.2619 C   0  0  0  0  0  0  0  0  0  0  0  0
    1.9996   -1.2983    0.6546 C   0  0  0  0  0  0  0  0  0  0  0  0
    1.6109   -2.4148    1.3542 C   0  0  0  0  0  0  0  0  0  0  0  0
    0.2717   -2.6400    1.6660 C   0  0  0  0  0  0  0  0  0  0  0  0
    3.3997   -1.0553    0.3267 N   0  0  0  0  0  0  0  0  0  0  0  0
    4.2743   -1.0443    1.4779 C   0  0  0  0  0  0  0  0  0  0  0  0
    3.8217   -0.9048   -0.9850 C   0  0  0  0  0  0  0  0  0  0  0  0
    2.8737   -1.1517   -1.8665 O   0  0  0  0  0  0  0  0  0  0  0  0
    5.0990   -0.5334   -1.5790 C   0  0  0  0  0  0  0  0  0  0  0  0
    6.1819   -0.1535   -0.7808 N   0  0  0  0  0  0  0  0  0  0  0  0
    6.1479    1.1188   -0.1443 C   0  0  0  0  0  0  0  0  0  0  0  0
    7.0593    2.1225   -0.8152 C   0  0  0  0  0  0  0  0  0  0  0  0
    8.4000    1.6684   -0.9414 N   0  0  0  0  0  0  0  0  0  0  0  0
    9.2089    2.3796   -1.8600 C   0  0  0  0  0  0  0  0  0  0  0  0
    8.6125    0.2731   -0.8355 C   0  0  0  0  0  0  0  0  0  0  0  0
    7.4754   -0.6243   -1.1164 C   0  0  0  0  0  0  0  0  0  0  0  0
   -3.6419   -0.3131    2.3473 C   0  0  0  0  0  0  0  0  0  0  0  0
   -3.0180    0.7830    2.8957 C   0  0  0  0  0  0  0  0  0  0  0  0
   -3.5184    1.4571    3.9801 C   0  0  0  0  0  0  0  0  0  0  0  0
   -4.6869    1.0413    4.5595 C   0  0  0  0  0  0  0  0  0  0  0  0
   -5.3502   -0.0483    4.0505 C   0  0  0  0  0  0  0  0  0  0  0  0
   -4.8397   -0.7104    2.9694 C   0  0  0  0  0  0  0  0  0  0  0  0
   -3.3759   -2.3505   -0.8690 C   0  0  0  0  0  0  0  0  0  0  0  0
   -2.4929   -3.2072   -0.7677 O   0  0  0  0  0  0  0  0  0  0  0  0
   -4.2699   -2.2220   -1.9626 N   0  0  0  0  0  0  0  0  0  0  0  0
   -5.1182   -1.1186   -1.6868 C   0  0  0  0  0  0  0  0  0  0  0  0
   -6.1305   -0.5894   -2.4585 C   0  0  0  0  0  0  0  0  0  0  0  0
   -9.4840    3.8397   -3.1260 H   0  0  0  0  0  0  0  0  0  0  0  0
  -10.6287    2.4400   -2.7994 H   0  0  0  0  0  0  0  0  0  0  0  0
   -9.5092    2.4513   -4.2231 H   0  0  0  0  0  0  0  0  0  0  0  0
   -7.0554    1.9338   -0.4979 H   0  0  0  0  0  0  0  0  0  0  0  0
   -5.2980    1.1170    0.8877 H   0  0  0  0  0  0  0  0  0  0  0  0
   -2.3225   -2.8839    2.1371 H   0  0  0  0  0  0  0  0  0  0  0  0
   -1.0852    0.0650    0.2820 H   0  0  0  0  0  0  0  0  0  0  0  0
    1.2956    0.4918   -0.2875 H   0  0  0  0  0  0  0  0  0  0  0  0
    2.3988   -3.1019    1.6458 H   0  0  0  0  0  0  0  0  0  0  0  0
   -0.0090   -3.5256    2.2172 H   0  0  0  0  0  0  0  0  0  0  0  0
    4.3098   -0.0784    2.0033 H   0  0  0  0  0  0  0  0  0  0  0  0
    5.2439   -1.4894    1.2146 H   0  0  0  0  0  0  0  0  0  0  0  0
    3.8678   -1.7578    2.2758 H   0  0  0  0  0  0  0  0  0  0  0  0
    4.9292    0.2743   -2.3603 H   0  0  0  0  0  0  0  0  0  0  0  0
    5.4335   -1.4380   -2.1821 H   0  0  0  0  0  0  0  0  0  0  0  0
    6.5430    1.0192    0.8973 H   0  0  0  0  0  0  0  0  0  0  0  0
    5.1051    1.4958   -0.1442 H   0  0  0  0  0  0  0  0  0  0  0  0
    7.0209    3.0816   -0.2641 H   0  0  0  0  0  0  0  0  0  0  0  0
    6.6418    2.3090   -1.8254 H   0  0  0  0  0  0  0  0  0  0  0  0
    9.5515    1.7468   -2.6801 H   0  0  0  0  0  0  0  0  0  0  0  0
    8.6875    3.2979   -2.1848 H   0  0  0  0  0  0  0  0  0  0  0  0
   10.1414    2.7025   -1.3095 H   0  0  0  0  0  0  0  0  0  0  0  0
    9.4640   -0.0087   -1.5031 H   0  0  0  0  0  0  0  0  0  0  0  0
    8.9967    0.0613    0.2048 H   0  0  0  0  0  0  0  0  0  0  0  0
    7.6214   -1.6038   -0.5691 H   0  0  0  0  0  0  0  0  0  0  0  0
    7.4535   -0.9472   -2.2000 H   0  0  0  0  0  0  0  0  0  0  0  0
   -2.1060    1.1196    2.4536 H   0  0  0  0  0  0  0  0  0  0  0  0
   -3.0267    2.3165    4.4077 H   0  0  0  0  0  0  0  0  0  0  0  0
   -5.1025    1.5578    5.4176 H   0  0  0  0  0  0  0  0  0  0  0  0
   -6.2843   -0.3557    4.5382 H   0  0  0  0  0  0  0  0  0  0  0  0
   -5.4043   -1.5664    2.6063 H   0  0  0  0  0  0  0  0  0  0  0  0
   -4.3057   -2.8330   -2.8311 H   0  0  0  0  0  0  0  0  0  0  0  0
   -6.3795   -1.0398   -3.4080 H   0  0  0  0  0  0  0  0  0  0  0  0
  1  2  1  0
  2  3  1  0
  3  4  2  0
  3  5  1  0
  5  6  2  0
  6  7  1  0
  7  8  2  0
  8  9  1  0
  9 10  2  0
 10 11  1  0
 11 12  1  0
 12 13  2  0
 13 14  1  0
 14 15  2  0
 15 16  1  0
 16 17  2  0
 15 18  1  0
 18 19  1  0
 18 20  1  0
 20 21  2  0
 20 22  1  0
 22 23  1  0
 23 24  1  0
 24 25  1  0
 25 26  1  0
 26 27  1  0
 26 28  1  0
 28 29  1  0
 10 30  1  0
 30 31  2  0
 31 32  1  0
 32 33  2  0
 33 34  1  0
 34 35  2  0
  9 36  1  0
 36 37  2  0
 36 38  1  0
 38 39  1  0
 39 40  2  0
 40  5  1  0
 39  8  1  0
 17 12  1  0
 29 23  1  0
 35 30  1  0
  1 41  1  0
  1 42  1  0
  1 43  1  0
  6 44  1  0
  7 45  1  0
 11 46  1  0
 13 47  1  0
 14 48  1  0
 16 49  1  0
 17 50  1  0
 19 51  1  0
 19 52  1  0
 19 53  1  0
 22 54  1  0
 22 55  1  0
 24 56  1  0
 24 57  1  0
 25 58  1  0
 25 59  1  0
 27 60  1  0
 27 61  1  0
 27 62  1  0
 28 63  1  0
 28 64  1  0
 29 65  1  0
 29 66  1  0
 31 67  1  0
 32 68  1  0
 33 69  1  0
 34 70  1  0
 35 71  1  0
 38 72  1  0
 40 73  1  0
M  END
$$$$
[H]c1c([H])c([H])c(N([H])C(=O)N2C([H])([H])C([H])([H])N(c3c([H])c([H])c([N+](=O)[O-])c([H])c3[H])C([H])([H])C2([H])[H])c(Br)c1[H]
     RDKit          3D

 42 44  0  0  0  0  0  0  0  0999 V2000
    7.9532   -0.7413   -1.6121 O   0  0  0  0  0  0  0  0  0  0  0  0
    7.3294    0.2268   -0.8875 N   0  0  0  0  0  0  0  0  0  0  0  0
    7.9817    1.2284   -0.5492 O   0  0  0  0  0  0  0  0  0  0  0  0
    5.9522    0.0554   -0.5442 C   0  0  0  0  0  0  0  0  0  0  0  0
    5.2727    1.0073    0.1892 C   0  0  0  0  0  0  0  0  0  0  0  0
    3.9446    0.8179    0.5071 C   0  0  0  0  0  0  0  0  0  0  0  0
    3.2231   -0.2955    0.1298 C   0  0  0  0  0  0  0  0  0  0  0  0
    3.9026   -1.2454   -0.6025 C   0  0  0  0  0  0  0  0  0  0  0  0
    5.2428   -1.0614   -0.9272 C   0  0  0  0  0  0  0  0  0  0  0  0
    1.8356   -0.4440    0.4935 N   0  0  0  0  0  0  0  0  0  0  0  0
    1.2917    0.6009    1.3711 C   0  0  0  0  0  0  0  0  0  0  0  0
   -0.0020    0.0568    1.9856 C   0  0  0  0  0  0  0  0  0  0  0  0
   -0.8570   -0.2347    0.8627 N   0  0  0  0  0  0  0  0  0  0  0  0
   -0.3808   -0.9653   -0.2861 C   0  0  0  0  0  0  0  0  0  0  0  0
    1.0028   -1.5129    0.0571 C   0  0  0  0  0  0  0  0  0  0  0  0
   -2.2076    0.2095    0.8857 C   0  0  0  0  0  0  0  0  0  0  0  0
   -2.5630    0.8340    1.9116 O   0  0  0  0  0  0  0  0  0  0  0  0
   -3.0396   -0.0706   -0.2132 N   0  0  0  0  0  0  0  0  0  0  0  0
   -4.3969    0.2884   -0.3644 C   0  0  0  0  0  0  0  0  0  0  0  0
   -5.1582    0.9811    0.5385 C   0  0  0  0  0  0  0  0  0  0  0  0
   -6.5081    1.3053    0.3220 C   0  0  0  0  0  0  0  0  0  0  0  0
   -7.0914    0.9041   -0.8602 C   0  0  0  0  0  0  0  0  0  0  0  0
   -6.3714    0.2067   -1.7991 C   0  0  0  0  0  0  0  0  0  0  0  0
   -5.0567   -0.0866   -1.5430 C   0  0  0  0  0  0  0  0  0  0  0  0
   -4.0462   -1.0613   -2.8528 Br  0  0  0  0  0  0  0  0  0  0  0  0
    5.8372    1.8828    0.4869 H   0  0  0  0  0  0  0  0  0  0  0  0
    3.4304    1.5796    1.0840 H   0  0  0  0  0  0  0  0  0  0  0  0
    3.3712   -2.1348   -0.9157 H   0  0  0  0  0  0  0  0  0  0  0  0
    5.7595   -1.8324   -1.5107 H   0  0  0  0  0  0  0  0  0  0  0  0
    1.1164    1.5428    0.8442 H   0  0  0  0  0  0  0  0  0  0  0  0
    1.9641    0.7772    2.2449 H   0  0  0  0  0  0  0  0  0  0  0  0
    0.2370   -0.8290    2.5930 H   0  0  0  0  0  0  0  0  0  0  0  0
   -0.3961    0.8249    2.6518 H   0  0  0  0  0  0  0  0  0  0  0  0
   -0.3719   -0.3083   -1.1609 H   0  0  0  0  0  0  0  0  0  0  0  0
   -1.0631   -1.8459   -0.4217 H   0  0  0  0  0  0  0  0  0  0  0  0
    1.3749   -2.0480   -0.8278 H   0  0  0  0  0  0  0  0  0  0  0  0
    0.8280   -2.2326    0.8996 H   0  0  0  0  0  0  0  0  0  0  0  0
   -2.5612   -0.6114   -0.9968 H   0  0  0  0  0  0  0  0  0  0  0  0
   -4.7307    1.3054    1.4658 H   0  0  0  0  0  0  0  0  0  0  0  0
   -7.0541    1.8544    1.0748 H   0  0  0  0  0  0  0  0  0  0  0  0
   -8.1374    1.1627   -1.0131 H   0  0  0  0  0  0  0  0  0  0  0  0
   -6.8582   -0.0909   -2.7107 H   0  0  0  0  0  0  0  0  0  0  0  0
  1  2  1  0
  2  3  2  0
  2  4  1  0
  4  5  2  0
  5  6  1  0
  6  7  2  0
  7  8  1  0
  8  9  2  0
  7 10  1  0
 10 11  1  0
 11 12  1  0
 12 13  1  0
 13 14  1  0
 14 15  1  0
 13 16  1  0
 16 17  2  0
 16 18  1  0
 18 19  1  0
 19 20  2  0
 20 21  1  0
 21 22  2  0
 22 23  1  0
 23 24  2  0
 24 25  1  0
  9  4  1  0
 15 10  1  0
 24 19  1  0
  5 26  1  0
  6 27  1  0
  8 28  1  0
  9 29  1  0
 11 30  1  0
 11 31  1  0
 12 32  1  0
 12 33  1  0
 14 34  1  0
 14 35  1  0
 15 36  1  0
 15 37  1  0
 18 38  1  0
 20 39  1  0
 21 40  1  0
 22 41  1  0
 23 42  1  0
M  CHG  2   1  -1   2   1
M  END
$$$$
[H]OC([H])([H])[C@@]1([H])OC([H])(n2c([H])nc3c([H])c([H])c([H])c([H])c32)[C@]([H])(O[H])[C@@]([H])(O[H])[C@@]1([H])O[H]
     RDKit          3D

 36 38  0  0  0  0  0  0  0  0999 V2000
   -3.2904    2.6247   -0.0723 O   0  0  0  0  0  0  0  0  0  0  0  0
   -3.2501    1.6814   -1.0910 C   0  0  0  0  0  0  0  0  0  0  0  0
   -2.3721    0.5039   -0.7317 C   0  0  1  0  0  0  0  0  0  0  0  0
   -1.0771    0.9700   -0.4997 O   0  0  0  0  0  0  0  0  0  0  0  0
   -0.1602   -0.0641   -0.4267 C   0  0  0  0  0  0  0  0  0  0  0  0
   -0.6769   -1.3161    0.1804 C   0  0  2  0  0  0  0  0  0  0  0  0
   -0.7550   -2.3568   -0.7775 O   0  0  0  0  0  0  0  0  0  0  0  0
   -1.9463   -1.2154    0.9363 C   0  0  1  0  0  0  0  0  0  0  0  0
   -1.7282   -1.1789    2.3334 O   0  0  0  0  0  0  0  0  0  0  0  0
   -2.8322   -0.0742    0.5901 C   0  0  1  0  0  0  0  0  0  0  0  0
   -2.8261    0.9374    1.5540 O   0  0  0  0  0  0  0  0  0  0  0  0
    1.0675    0.4223    0.1901 N   0  0  0  0  0  0  0  0  0  0  0  0
    1.2110    1.3343    1.1617 C   0  0  0  0  0  0  0  0  0  0  0  0
    2.5171    1.4921    1.4396 N   0  0  0  0  0  0  0  0  0  0  0  0
    3.2465    0.6883    0.6567 C   0  0  0  0  0  0  0  0  0  0  0  0
    4.6006    0.4311    0.5023 C   0  0  0  0  0  0  0  0  0  0  0  0
    5.0689   -0.4826   -0.4186 C   0  0  0  0  0  0  0  0  0  0  0  0
    4.1479   -1.1589   -1.2089 C   0  0  0  0  0  0  0  0  0  0  0  0
    2.7985   -0.9085   -1.0612 C   0  0  0  0  0  0  0  0  0  0  0  0
    2.3293    0.0183   -0.1266 C   0  0  0  0  0  0  0  0  0  0  0  0
   -3.4196    3.5472   -0.4393 H   0  0  0  0  0  0  0  0  0  0  0  0
   -2.8824    2.1179   -2.0591 H   0  0  0  0  0  0  0  0  0  0  0  0
   -4.2927    1.3548   -1.2821 H   0  0  0  0  0  0  0  0  0  0  0  0
   -2.4222   -0.2763   -1.5072 H   0  0  0  0  0  0  0  0  0  0  0  0
    0.1281   -0.2863   -1.4977 H   0  0  0  0  0  0  0  0  0  0  0  0
    0.1147   -1.6806    0.9027 H   0  0  0  0  0  0  0  0  0  0  0  0
   -0.9053   -3.1874   -0.2759 H   0  0  0  0  0  0  0  0  0  0  0  0
   -2.5289   -2.1550    0.7712 H   0  0  0  0  0  0  0  0  0  0  0  0
   -2.4026   -1.6940    2.8245 H   0  0  0  0  0  0  0  0  0  0  0  0
   -3.9102   -0.3996    0.5203 H   0  0  0  0  0  0  0  0  0  0  0  0
   -1.9683    1.4071    1.6140 H   0  0  0  0  0  0  0  0  0  0  0  0
    0.3877    1.8580    1.6418 H   0  0  0  0  0  0  0  0  0  0  0  0
    5.2598    0.9984    1.1554 H   0  0  0  0  0  0  0  0  0  0  0  0
    6.1333   -0.6516   -0.5052 H   0  0  0  0  0  0  0  0  0  0  0  0
    4.5429   -1.8662   -1.9189 H   0  0  0  0  0  0  0  0  0  0  0  0
    2.0931   -1.4348   -1.6752 H   0  0  0  0  0  0  0  0  0  0  0  0
  1  2  1  0
  2  3  1  0
  3  4  1  0
  4  5  1  0
  5  6  1  0
  6  7  1  0
  6  8  1  0
  8  9  1  0
  8 10  1  0
 10 11  1  0
  5 12  1  0
 12 13  1  0
 13 14  2  0
 14 15  1  0
 15 16  2  0
 16 17  1  0
 17 18  2  0
 18 19  1  0
 19 20  2  0
 10  3  1  0
 20 12  1  0
 20 15  1  0
  1 21  1  0
  2 22  1  0
  2 23  1  0
  3 24  1  6
  5 25  1  0
  6 26  1  1
  7 27  1  0
  8 28  1  1
  9 29  1  0
 10 30  1  6
 11 31  1  0
 13 32  1  0
 16 33  1  0
 17 34  1  0
 18 35  1  0
 19 36  1  0
M  END
$$$$
[H]/C(C(=O)N([H])c1c([H])c([H])c(Oc2c([H])c([H])nc3sc(C(=O)N([H])C([H])([H])[H])c([H])c23)c([H])c1[H])=C(/[H])c1c([H])c([H])c(C(F)(F)F)c([H])c1[H]
     RDKit          3D

 53 56  0  0  0  0  0  0  0  0999 V2000
    9.5751    2.8163    0.8807 C   0  0  0  0  0  0  0  0  0  0  0  0
    8.4237    1.9642    0.8379 N   0  0  0  0  0  0  0  0  0  0  0  0
    8.1158    1.3151   -0.4630 C   0  0  0  0  0  0  0  0  0  0  0  0
    8.8854    1.5994   -1.4191 O   0  0  0  0  0  0  0  0  0  0  0  0
    6.9724    0.4164   -0.5765 C   0  0  0  0  0  0  0  0  0  0  0  0
    5.8668    0.1157    0.1019 C   0  0  0  0  0  0  0  0  0  0  0  0
    4.9964   -0.7780   -0.4093 C   0  0  0  0  0  0  0  0  0  0  0  0
    3.7588   -1.2446    0.0511 C   0  0  0  0  0  0  0  0  0  0  0  0
    3.1681   -0.7617    1.2872 O   0  0  0  0  0  0  0  0  0  0  0  0
    1.7842   -1.0902    1.1517 C   0  0  0  0  0  0  0  0  0  0  0  0
    1.1440   -0.3516    0.1684 C   0  0  0  0  0  0  0  0  0  0  0  0
   -0.1252   -0.5126   -0.1856 C   0  0  0  0  0  0  0  0  0  0  0  0
   -0.9433   -1.5036    0.4775 C   0  0  0  0  0  0  0  0  0  0  0  0
   -2.0947   -1.7778   -0.1985 N   0  0  0  0  0  0  0  0  0  0  0  0
   -3.1745   -2.1466   -0.9488 C   0  0  0  0  0  0  0  0  0  0  0  0
   -3.2873   -3.0307   -1.8357 O   0  0  0  0  0  0  0  0  0  0  0  0
   -4.4832   -1.3971   -0.8136 C   0  0  0  0  0  0  0  0  0  0  0  0
   -4.6272   -0.4717    0.0392 C   0  0  0  0  0  0  0  0  0  0  0  0
   -5.8806    0.2836    0.1422 C   0  0  0  0  0  0  0  0  0  0  0  0
   -6.1504    1.0457    1.2651 C   0  0  0  0  0  0  0  0  0  0  0  0
   -7.2478    1.9008    1.2598 C   0  0  0  0  0  0  0  0  0  0  0  0
   -8.0558    1.9950    0.1301 C   0  0  0  0  0  0  0  0  0  0  0  0
   -7.7810    1.2324   -0.9746 C   0  0  0  0  0  0  0  0  0  0  0  0
   -6.6921    0.3855   -0.9555 C   0  0  0  0  0  0  0  0  0  0  0  0
   -9.2159    2.9605    0.1453 C   0  0  0  0  0  0  0  0  0  0  0  0
   -9.1082    3.8497    1.2196 F   0  0  0  0  0  0  0  0  0  0  0  0
  -10.3659    2.2512    0.3338 F   0  0  0  0  0  0  0  0  0  0  0  0
   -9.1748    3.6272   -1.0514 F   0  0  0  0  0  0  0  0  0  0  0  0
   -0.2849   -2.1992    1.4635 C   0  0  0  0  0  0  0  0  0  0  0  0
    1.0776   -1.9965    1.8006 C   0  0  0  0  0  0  0  0  0  0  0  0
    3.0493   -2.1529   -0.6890 C   0  0  0  0  0  0  0  0  0  0  0  0
    3.4385   -2.7046   -1.9243 C   0  0  0  0  0  0  0  0  0  0  0  0
    4.6243   -2.2462   -2.3573 N   0  0  0  0  0  0  0  0  0  0  0  0
    5.3306   -1.3436   -1.6149 C   0  0  0  0  0  0  0  0  0  0  0  0
    6.8292   -0.6082   -2.0094 S   0  0  0  0  0  0  0  0  0  0  0  0
   10.2136    2.6757   -0.0435 H   0  0  0  0  0  0  0  0  0  0  0  0
    9.3153    3.9148    0.8762 H   0  0  0  0  0  0  0  0  0  0  0  0
   10.2481    2.6912    1.7329 H   0  0  0  0  0  0  0  0  0  0  0  0
    7.8539    1.7357    1.6274 H   0  0  0  0  0  0  0  0  0  0  0  0
    5.6605    0.6190    1.1029 H   0  0  0  0  0  0  0  0  0  0  0  0
    1.8115    0.4198   -0.3359 H   0  0  0  0  0  0  0  0  0  0  0  0
   -0.5990    0.0917   -0.9689 H   0  0  0  0  0  0  0  0  0  0  0  0
   -1.3662   -2.7874   -0.8744 H   0  0  0  0  0  0  0  0  0  0  0  0
   -5.2988   -1.6621   -1.5122 H   0  0  0  0  0  0  0  0  0  0  0  0
   -3.7902   -0.1859    0.7336 H   0  0  0  0  0  0  0  0  0  0  0  0
   -5.5217    0.9512    2.1218 H   0  0  0  0  0  0  0  0  0  0  0  0
   -7.4926    2.4677    2.1475 H   0  0  0  0  0  0  0  0  0  0  0  0
   -8.4429    1.3048   -1.8564 H   0  0  0  0  0  0  0  0  0  0  0  0
   -6.5110   -0.1938   -1.8489 H   0  0  0  0  0  0  0  0  0  0  0  0
   -0.8738   -2.9355    2.0330 H   0  0  0  0  0  0  0  0  0  0  0  0
    1.5172   -2.6000    2.6049 H   0  0  0  0  0  0  0  0  0  0  0  0
    2.1202   -2.5728   -0.3298 H   0  0  0  0  0  0  0  0  0  0  0  0
    2.8084   -3.3755   -2.4354 H   0  0  0  0  0  0  0  0  0  0  0  0
  1  2  1  0
  2  3  1  0
  3  4  2  0
  3  5  1  0
  5  6  2  0
  6  7  1  0
  7  8  2  0
  8  9  1  0
  9 10  1  0
 10 11  2  0
 11 12  1  0
 12 13  2  0
 13 14  1  0
 14 15  1  0
 15 16  2  0
 15 17  1  0
 17 18  2  0
 18 19  1  0
 19 20  2  0
 20 21  1  0
 21 22  2  0
 22 23  1  0
 23 24  2  0
 22 25  1  0
 25 26  1  0
 25 27  1  0
 25 28  1  0
 13 29  1  0
 29 30  2  0
  8 31  1  0
 31 32  2  0
 32 33  1  0
 33 34  2  0
 34 35  1  0
 35  5  1  0
 34  7  1  0
 30 10  1  0
 24 19  1  0
  1 36  1  0
  1 37  1  0
  1 38  1  0
  2 39  1  0
  6 40  1  0
 11 41  1  0
 12 42  1  0
 14 43  1  0
 17 44  1  0
 18 45  1  0
 20 46  1  0
 21 47  1  0
 23 48  1  0
 24 49  1  0
 29 50  1  0
 30 51  1  0
 31 52  1  0
 32 53  1  0
M  END
$$$$
[H]OC(=O)c1[se]c(-c2c([H])c([H])c(-c3c([H])c([H])c([H])c([H])c3[H])c(C(F)(F)F)c2[H])nc1C([H])([H])[H]
     RDKit          3D

 37 39  0  0  0  0  0  0  0  0999 V2000
   -5.5383    1.3865   -1.4169 C   0  0  0  0  0  0  0  0  0  0  0  0
   -4.5041    0.5913   -0.5749 C   0  0  0  0  0  0  0  0  0  0  0  0
   -3.2711    0.7064   -0.7177 N   0  0  0  0  0  0  0  0  0  0  0  0
   -2.2434    0.2149   -0.2031 C   0  0  0  0  0  0  0  0  0  0  0  0
   -3.3903   -1.0443    1.1721 Se  0  0  0  0  0  2  0  0  0  0  0  0
   -5.1083   -0.2353    0.3257 C   0  0  0  0  0  0  0  0  0  0  0  0
   -6.4463   -0.5719    0.7088 C   0  0  0  0  0  0  0  0  0  0  0  0
   -6.6433   -1.4983    1.7108 O   0  0  0  0  0  0  0  0  0  0  0  0
   -7.3878   -0.0248    0.1331 O   0  0  0  0  0  0  0  0  0  0  0  0
   -0.8214    0.1514   -0.1562 C   0  0  0  0  0  0  0  0  0  0  0  0
   -0.0993    0.9436   -1.0215 C   0  0  0  0  0  0  0  0  0  0  0  0
    1.2530    0.9575   -1.0568 C   0  0  0  0  0  0  0  0  0  0  0  0
    1.9803    0.1318   -0.1774 C   0  0  0  0  0  0  0  0  0  0  0  0
    3.4321    0.1516   -0.2180 C   0  0  0  0  0  0  0  0  0  0  0  0
    4.1141   -0.7295   -1.0240 C   0  0  0  0  0  0  0  0  0  0  0  0
    5.5028   -0.7330   -1.1038 C   0  0  0  0  0  0  0  0  0  0  0  0
    6.2338    0.1607   -0.3652 C   0  0  0  0  0  0  0  0  0  0  0  0
    5.5770    1.0520    0.4481 C   0  0  0  0  0  0  0  0  0  0  0  0
    4.1936    1.0388    0.5132 C   0  0  0  0  0  0  0  0  0  0  0  0
    1.2833   -0.6607    0.6876 C   0  0  0  0  0  0  0  0  0  0  0  0
   -0.1242   -0.6476    0.6949 C   0  0  0  0  0  0  0  0  0  0  0  0
    1.9651   -1.5625    1.6470 C   0  0  0  0  0  0  0  0  0  0  0  0
    1.0233   -2.2481    2.4231 F   0  0  0  0  0  0  0  0  0  0  0  0
    2.8839   -0.9491    2.4379 F   0  0  0  0  0  0  0  0  0  0  0  0
    2.6066   -2.5507    0.9113 F   0  0  0  0  0  0  0  0  0  0  0  0
   -6.1843    1.9662   -0.7282 H   0  0  0  0  0  0  0  0  0  0  0  0
   -5.0560    2.0675   -2.0996 H   0  0  0  0  0  0  0  0  0  0  0  0
   -6.1775    0.6765   -1.9637 H   0  0  0  0  0  0  0  0  0  0  0  0
   -6.2442   -1.4287    2.6343 H   0  0  0  0  0  0  0  0  0  0  0  0
   -0.6566    1.5925   -1.7128 H   0  0  0  0  0  0  0  0  0  0  0  0
    1.8009    1.5752   -1.7312 H   0  0  0  0  0  0  0  0  0  0  0  0
    3.5569   -1.4465   -1.6204 H   0  0  0  0  0  0  0  0  0  0  0  0
    6.0084   -1.4370   -1.7455 H   0  0  0  0  0  0  0  0  0  0  0  0
    7.3235    0.1934   -0.3970 H   0  0  0  0  0  0  0  0  0  0  0  0
    6.1309    1.7712    1.0444 H   0  0  0  0  0  0  0  0  0  0  0  0
    3.6654    1.7303    1.1452 H   0  0  0  0  0  0  0  0  0  0  0  0
   -0.6384   -1.2911    1.3966 H   0  0  0  0  0  0  0  0  0  0  0  0
  1  2  1  0
  2  3  1  0
  3  4  2  0
  4  5  1  0
  5  6  1  0
  6  7  1  0
  7  8  1  0
  7  9  2  0
  4 10  1  0
 10 11  2  0
 11 12  1  0
 12 13  2  0
 13 14  1  0
 14 15  2  0
 15 16  1  0
 16 17  2  0
 17 18  1  0
 18 19  2  0
 13 20  1  0
 20 21  2  0
 20 22  1  0
 22 23  1  0
 22 24  1  0
 22 25  1  0
  6  2  2  0
 21 10  1  0
 19 14  1  0
  1 26  1  0
  1 27  1  0
  1 28  1  0
  8 29  1  0
 11 30  1  0
 12 31  1  0
 15 32  1  0
 16 33  1  0
 17 34  1  0
 18 35  1  0
 19 36  1  0
 21 37  1  0
M  END
$$$$
[H]OC(=O)c1c(O[H])c([H])c(OC([H])([H])[H])c([H])c1-c1c(O[H])c([H])c(O[H])c([H])c1O[H]
     RDKit          3D

 33 34  0  0  0  0  0  0  0  0999 V2000
    2.1143    0.8397   -3.6890 C   0  0  0  0  0  0  0  0  0  0  0  0
    2.7963   -0.0803   -2.8576 O   0  0  0  0  0  0  0  0  0  0  0  0
    2.1864   -0.4292   -1.6592 C   0  0  0  0  0  0  0  0  0  0  0  0
    2.7907   -1.3195   -0.7981 C   0  0  0  0  0  0  0  0  0  0  0  0
    2.2185   -1.6898    0.3979 C   0  0  0  0  0  0  0  0  0  0  0  0
    2.8504   -2.5984    1.2610 O   0  0  0  0  0  0  0  0  0  0  0  0
    0.9830   -1.1766    0.8037 C   0  0  0  0  0  0  0  0  0  0  0  0
    0.4209   -1.6011    2.0800 C   0  0  0  0  0  0  0  0  0  0  0  0
   -0.7799   -1.1857    2.6132 O   0  0  0  0  0  0  0  0  0  0  0  0
    1.0703   -2.4180    2.7744 O   0  0  0  0  0  0  0  0  0  0  0  0
    0.3762   -0.2872   -0.0533 C   0  0  0  0  0  0  0  0  0  0  0  0
    0.9674    0.0743   -1.2539 C   0  0  0  0  0  0  0  0  0  0  0  0
   -0.9049    0.2733    0.3188 C   0  0  0  0  0  0  0  0  0  0  0  0
   -2.0549   -0.3848   -0.0640 C   0  0  0  0  0  0  0  0  0  0  0  0
   -2.0113   -1.5846   -0.7962 O   0  0  0  0  0  0  0  0  0  0  0  0
   -3.2681    0.1642    0.2900 C   0  0  0  0  0  0  0  0  0  0  0  0
   -3.3355    1.3565    1.0181 C   0  0  0  0  0  0  0  0  0  0  0  0
   -4.5838    1.8733    1.3531 O   0  0  0  0  0  0  0  0  0  0  0  0
   -2.1519    1.9712    1.3739 C   0  0  0  0  0  0  0  0  0  0  0  0
   -0.9223    1.4494    1.0361 C   0  0  0  0  0  0  0  0  0  0  0  0
    0.2757    2.0933    1.4095 O   0  0  0  0  0  0  0  0  0  0  0  0
    1.8186    1.7655   -3.1486 H   0  0  0  0  0  0  0  0  0  0  0  0
    2.7336    1.1716   -4.5449 H   0  0  0  0  0  0  0  0  0  0  0  0
    1.1646    0.4175   -4.0970 H   0  0  0  0  0  0  0  0  0  0  0  0
    3.7643   -1.7665   -1.0474 H   0  0  0  0  0  0  0  0  0  0  0  0
    3.7403   -2.9669    0.9667 H   0  0  0  0  0  0  0  0  0  0  0  0
   -0.8838   -0.9425    3.5937 H   0  0  0  0  0  0  0  0  0  0  0  0
    0.5048    0.7742   -1.9435 H   0  0  0  0  0  0  0  0  0  0  0  0
   -1.1608   -2.0122   -1.0705 H   0  0  0  0  0  0  0  0  0  0  0  0
   -4.1702   -0.3507   -0.0095 H   0  0  0  0  0  0  0  0  0  0  0  0
   -4.6115    2.7371    1.8801 H   0  0  0  0  0  0  0  0  0  0  0  0
   -2.2180    2.8902    1.9352 H   0  0  0  0  0  0  0  0  0  0  0  0
    0.2805    2.9424    1.9272 H   0  0  0  0  0  0  0  0  0  0  0  0
  1  2  1  0
  2  3  1  0
  3  4  2  0
  4  5  1  0
  5  6  1  0
  5  7  2  0
  7  8  1  0
  8  9  1  0
  8 10  2  0
  7 11  1  0
 11 12  2  0
 11 13  1  0
 13 14  2  0
 14 15  1  0
 14 16  1  0
 16 17  2  0
 17 18  1  0
 17 19  1  0
 19 20  2  0
 20 21  1  0
 12  3  1  0
 20 13  1  0
  1 22  1  0
  1 23  1  0
  1 24  1  0
  4 25  1  0
  6 26  1  0
  9 27  1  0
 12 28  1  0
 15 29  1  0
 16 30  1  0
 18 31  1  0
 19 32  1  0
 21 33  1  0
M  END
$$$$
[H]c1nc([H])c(C([H])([H])[C@]2([H])N3C([H])([H])C([H])([H])C([H])(C([H])([H])C3([H])[H])[C@@]2([H])N([H])C(=O)c2sc([H])c([H])c2[H])c([H])c1[H]
     RDKit          3D

 44 47  0  0  0  0  0  0  0  0999 V2000
   -1.6961    0.5537   -2.1045 O   0  0  0  0  0  0  0  0  0  0  0  0
   -2.1855    0.4601   -0.9608 C   0  0  0  0  0  0  0  0  0  0  0  0
   -1.4961   -0.1279    0.1040 N   0  0  0  0  0  0  0  0  0  0  0  0
   -0.1558   -0.6850    0.0004 C   0  0  2  0  0  0  0  0  0  0  0  0
   -0.2461   -2.2275    0.0904 C   0  0  0  0  0  0  0  0  0  0  0  0
   -0.0937   -2.6831    1.5271 C   0  0  0  0  0  0  0  0  0  0  0  0
    1.3670   -2.4087    1.9024 C   0  0  0  0  0  0  0  0  0  0  0  0
    1.8428   -1.2563    1.1146 N   0  0  0  0  0  0  0  0  0  0  0  0
    2.1148   -1.7946   -0.2035 C   0  0  0  0  0  0  0  0  0  0  0  0
    0.9837   -2.7441   -0.6285 C   0  0  0  0  0  0  0  0  0  0  0  0
    0.7505   -0.2977    1.1277 C   0  0  1  0  0  0  0  0  0  0  0  0
    1.1856    1.1085    1.1971 C   0  0  0  0  0  0  0  0  0  0  0  0
    1.9451    1.6676    0.0983 C   0  0  0  0  0  0  0  0  0  0  0  0
    3.3333    1.6193    0.0528 C   0  0  0  0  0  0  0  0  0  0  0  0
    4.0381    2.1650   -0.9978 C   0  0  0  0  0  0  0  0  0  0  0  0
    3.3821    2.7788   -2.0415 C   0  0  0  0  0  0  0  0  0  0  0  0
    2.0403    2.8228   -1.9925 N   0  0  0  0  0  0  0  0  0  0  0  0
    1.3272    2.2869   -0.9585 C   0  0  0  0  0  0  0  0  0  0  0  0
   -3.5327    0.9916   -0.7452 C   0  0  0  0  0  0  0  0  0  0  0  0
   -4.2703    1.0035    0.4109 C   0  0  0  0  0  0  0  0  0  0  0  0
   -5.4950    1.5543    0.3555 C   0  0  0  0  0  0  0  0  0  0  0  0
   -5.9059    2.0571   -0.8456 C   0  0  0  0  0  0  0  0  0  0  0  0
   -4.5760    1.7493   -1.8651 S   0  0  0  0  0  0  0  0  0  0  0  0
   -1.9631   -0.1782    1.0462 H   0  0  0  0  0  0  0  0  0  0  0  0
    0.2188   -0.4494   -1.0109 H   0  0  0  0  0  0  0  0  0  0  0  0
   -1.1877   -2.5834   -0.3541 H   0  0  0  0  0  0  0  0  0  0  0  0
   -0.8111   -2.2572    2.2227 H   0  0  0  0  0  0  0  0  0  0  0  0
   -0.2766   -3.7845    1.5198 H   0  0  0  0  0  0  0  0  0  0  0  0
    1.4665   -2.1888    2.9889 H   0  0  0  0  0  0  0  0  0  0  0  0
    1.9769   -3.2942    1.6384 H   0  0  0  0  0  0  0  0  0  0  0  0
    3.0662   -2.3502   -0.1643 H   0  0  0  0  0  0  0  0  0  0  0  0
    2.1908   -1.0633   -1.0031 H   0  0  0  0  0  0  0  0  0  0  0  0
    0.8633   -2.7482   -1.7236 H   0  0  0  0  0  0  0  0  0  0  0  0
    1.2752   -3.7422   -0.2560 H   0  0  0  0  0  0  0  0  0  0  0  0
    0.1378   -0.4763    2.0689 H   0  0  0  0  0  0  0  0  0  0  0  0
    0.2652    1.7209    1.4522 H   0  0  0  0  0  0  0  0  0  0  0  0
    1.8019    1.2108    2.1440 H   0  0  0  0  0  0  0  0  0  0  0  0
    3.8687    1.1317    0.8806 H   0  0  0  0  0  0  0  0  0  0  0  0
    5.1333    2.1290   -1.0375 H   0  0  0  0  0  0  0  0  0  0  0  0
    3.9368    3.2185   -2.8871 H   0  0  0  0  0  0  0  0  0  0  0  0
    0.2585    2.3984   -1.0464 H   0  0  0  0  0  0  0  0  0  0  0  0
   -3.8315    0.5621    1.3382 H   0  0  0  0  0  0  0  0  0  0  0  0
   -6.1681    1.6109    1.2404 H   0  0  0  0  0  0  0  0  0  0  0  0
   -6.8792    2.5401   -1.0579 H   0  0  0  0  0  0  0  0  0  0  0  0
  1  2  2  0
  2  3  1  0
  3  4  1  0
  4  5  1  0
  5  6  1  0
  6  7  1  0
  7  8  1  0
  8  9  1  0
  9 10  1  0
  8 11  1  0
 11 12  1  0
 12 13  1  0
 13 14  2  0
 14 15  1  0
 15 16  2  0
 16 17  1  0
 17 18  2  0
  2 19  1  0
 19 20  2  0
 20 21  1  0
 21 22  2  0
 22 23  1  0
 11  4  1  0
 18 13  1  0
 23 19  1  0
 10  5  1  0
  3 24  1  0
  4 25  1  6
  5 26  1  0
  6 27  1  0
  6 28  1  0
  7 29  1  0
  7 30  1  0
  9 31  1  0
  9 32  1  0
 10 33  1  0
 10 34  1  0
 11 35  1  1
 12 36  1  0
 12 37  1  0
 14 38  1  0
 15 39  1  0
 16 40  1  0
 18 41  1  0
 20 42  1  0
 21 43  1  0
 22 44  1  0
M  END
$$$$
[H]N=C(N([H])[H])[C@@]([H])(N([H])C(=O)[C@@]([H])(N([H])C(=O)[C@@]([H])(N([H])[H])C([H])([H])c1c([H])c([H])c(O[H])c([H])c1[H])C([H])([H])c1c([H])n([H])c2c([H])c([H])c([H])c([H])c12)C([H])([H])c1c([H])c([H])c([H])c([H])c1[H]
     RDKit          3D

 70 73  0  0  0  0  0  0  0  0999 V2000
    3.7597    1.4571    2.5414 N   0  0  0  0  0  0  0  0  0  0  0  0
    3.0641    0.5557    1.6567 C   0  0  1  0  0  0  0  0  0  0  0  0
    2.7853   -0.7952    2.2482 C   0  0  0  0  0  0  0  0  0  0  0  0
    3.9613   -1.5586    2.6616 C   0  0  0  0  0  0  0  0  0  0  0  0
    4.6368   -2.4202    1.8042 C   0  0  0  0  0  0  0  0  0  0  0  0
    5.7382   -3.1323    2.2139 C   0  0  0  0  0  0  0  0  0  0  0  0
    6.2212   -3.0167    3.5110 C   0  0  0  0  0  0  0  0  0  0  0  0
    7.3344   -3.7520    3.8860 O   0  0  0  0  0  0  0  0  0  0  0  0
    5.5476   -2.1616    4.3545 C   0  0  0  0  0  0  0  0  0  0  0  0
    4.4276   -1.4330    3.9504 C   0  0  0  0  0  0  0  0  0  0  0  0
    1.7385    1.1632    1.3316 C   0  0  0  0  0  0  0  0  0  0  0  0
    1.4809    2.2975    1.8042 O   0  0  0  0  0  0  0  0  0  0  0  0
    0.7863    0.5146    0.5290 N   0  0  0  0  0  0  0  0  0  0  0  0
   -0.5189    1.0130    0.1620 C   0  0  1  0  0  0  0  0  0  0  0  0
   -0.7874    1.1313   -1.2944 C   0  0  0  0  0  0  0  0  0  0  0  0
    0.1451    2.0348   -2.0134 C   0  0  0  0  0  0  0  0  0  0  0  0
   -0.0778    3.3752   -2.2884 C   0  0  0  0  0  0  0  0  0  0  0  0
    1.0000    3.8588   -2.9111 N   0  0  0  0  0  0  0  0  0  0  0  0
    1.9442    2.9053   -3.0708 C   0  0  0  0  0  0  0  0  0  0  0  0
    3.1992    2.9160   -3.6531 C   0  0  0  0  0  0  0  0  0  0  0  0
    3.9659    1.7851   -3.6977 C   0  0  0  0  0  0  0  0  0  0  0  0
    3.4341    0.6427   -3.1405 C   0  0  0  0  0  0  0  0  0  0  0  0
    2.1933    0.6105   -2.5577 C   0  0  0  0  0  0  0  0  0  0  0  0
    1.3970    1.7494   -2.4999 C   0  0  0  0  0  0  0  0  0  0  0  0
   -1.5640    0.2460    0.8855 C   0  0  0  0  0  0  0  0  0  0  0  0
   -1.3384   -0.0568    2.0805 O   0  0  0  0  0  0  0  0  0  0  0  0
   -2.7578   -0.1419    0.2897 N   0  0  0  0  0  0  0  0  0  0  0  0
   -3.8007   -0.8906    0.9886 C   0  0  1  0  0  0  0  0  0  0  0  0
   -5.1144   -0.1998    0.9173 C   0  0  0  0  0  0  0  0  0  0  0  0
   -5.6683    0.0239   -0.4123 C   0  0  0  0  0  0  0  0  0  0  0  0
   -6.5243   -0.8981   -0.9654 C   0  0  0  0  0  0  0  0  0  0  0  0
   -7.0770   -0.7538   -2.2227 C   0  0  0  0  0  0  0  0  0  0  0  0
   -6.7525    0.3694   -2.9525 C   0  0  0  0  0  0  0  0  0  0  0  0
   -5.8984    1.2982   -2.4096 C   0  0  0  0  0  0  0  0  0  0  0  0
   -5.3563    1.1404   -1.1584 C   0  0  0  0  0  0  0  0  0  0  0  0
   -3.8073   -2.3107    0.5509 C   0  0  0  0  0  0  0  0  0  0  0  0
   -3.9344   -2.7210   -0.8029 N   0  0  0  0  0  0  0  0  0  0  0  0
   -3.6909   -3.2993    1.4098 N   0  0  0  0  0  0  0  0  0  0  0  0
    4.6980    1.6600    2.0822 H   0  0  0  0  0  0  0  0  0  0  0  0
    3.2486    2.3012    2.8049 H   0  0  0  0  0  0  0  0  0  0  0  0
    3.5990    0.4271    0.6881 H   0  0  0  0  0  0  0  0  0  0  0  0
    2.0505   -0.7083    3.0558 H   0  0  0  0  0  0  0  0  0  0  0  0
    2.2979   -1.3895    1.4218 H   0  0  0  0  0  0  0  0  0  0  0  0
    4.2193   -2.4759    0.8015 H   0  0  0  0  0  0  0  0  0  0  0  0
    6.2412   -3.7954    1.5081 H   0  0  0  0  0  0  0  0  0  0  0  0
    8.2892   -3.4332    3.8051 H   0  0  0  0  0  0  0  0  0  0  0  0
    5.9345   -2.0815    5.3639 H   0  0  0  0  0  0  0  0  0  0  0  0
    3.9512   -0.7847    4.6742 H   0  0  0  0  0  0  0  0  0  0  0  0
    1.0530   -0.4332    0.1556 H   0  0  0  0  0  0  0  0  0  0  0  0
   -0.5893    2.0497    0.6314 H   0  0  0  0  0  0  0  0  0  0  0  0
   -1.8454    1.5327   -1.4065 H   0  0  0  0  0  0  0  0  0  0  0  0
   -0.7931    0.1275   -1.7704 H   0  0  0  0  0  0  0  0  0  0  0  0
   -0.9750    3.8945   -2.0302 H   0  0  0  0  0  0  0  0  0  0  0  0
    1.1377    4.8535   -3.2499 H   0  0  0  0  0  0  0  0  0  0  0  0
    3.5844    3.8280   -4.0792 H   0  0  0  0  0  0  0  0  0  0  0  0
    4.9641    1.7698   -4.1558 H   0  0  0  0  0  0  0  0  0  0  0  0
    4.0202   -0.2695   -3.1636 H   0  0  0  0  0  0  0  0  0  0  0  0
    1.7820   -0.2959   -2.1344 H   0  0  0  0  0  0  0  0  0  0  0  0
   -2.9596    0.0792   -0.6898 H   0  0  0  0  0  0  0  0  0  0  0  0
   -3.4691   -0.9090    2.0654 H   0  0  0  0  0  0  0  0  0  0  0  0
   -4.9915    0.8209    1.3857 H   0  0  0  0  0  0  0  0  0  0  0  0
   -5.8290   -0.7389    1.5750 H   0  0  0  0  0  0  0  0  0  0  0  0
   -6.8174   -1.8125   -0.4267 H   0  0  0  0  0  0  0  0  0  0  0  0
   -7.7523   -1.4753   -2.6662 H   0  0  0  0  0  0  0  0  0  0  0  0
   -7.1683    0.5299   -3.9585 H   0  0  0  0  0  0  0  0  0  0  0  0
   -5.6798    2.1651   -3.0416 H   0  0  0  0  0  0  0  0  0  0  0  0
   -4.6907    1.9175   -0.7946 H   0  0  0  0  0  0  0  0  0  0  0  0
   -4.5789   -3.5133   -1.0110 H   0  0  0  0  0  0  0  0  0  0  0  0
   -3.4321   -2.2882   -1.5956 H   0  0  0  0  0  0  0  0  0  0  0  0
   -3.5912   -3.0984    2.4292 H   0  0  0  0  0  0  0  0  0  0  0  0
  1  2  1  0
  2  3  1  0
  3  4  1  0
  4  5  2  0
  5  6  1  0
  6  7  2  0
  7  8  1  0
  7  9  1  0
  9 10  2  0
  2 11  1  0
 11 12  2  0
 11 13  1  0
 13 14  1  0
 14 15  1  0
 15 16  1  0
 16 17  2  0
 17 18  1  0
 18 19  1  0
 19 20  2  0
 20 21  1  0
 21 22  2  0
 22 23  1  0
 23 24  2  0
 14 25  1  0
 25 26  2  0
 25 27  1  0
 27 28  1  0
 28 29  1  0
 29 30  1  0
 30 31  2  0
 31 32  1  0
 32 33  2  0
 33 34  1  0
 34 35  2  0
 28 36  1  0
 36 37  1  0
 36 38  2  3
 10  4  1  0
 24 16  1  0
 35 30  1  0
 24 19  1  0
  1 39  1  0
  1 40  1  0
  2 41  1  6
  3 42  1  0
  3 43  1  0
  5 44  1  0
  6 45  1  0
  8 46  1  0
  9 47  1  0
 10 48  1  0
 13 49  1  0
 14 50  1  1
 15 51  1  0
 15 52  1  0
 17 53  1  0
 18 54  1  0
 20 55  1  0
 21 56  1  0
 22 57  1  0
 23 58  1  0
 27 59  1  0
 28 60  1  1
 29 61  1  0
 29 62  1  0
 31 63  1  0
 32 64  1  0
 33 65  1  0
 34 66  1  0
 35 67  1  0
 37 68  1  0
 37 69  1  0
 38 70  1  0
M  END
$$$$
[H]Oc1c([H])c([H])c2c(=O)c([H])c(-c3c([H])c([H])c(OC([H])([H])[H])c([H])c3[H])oc2c1[H]
     RDKit          3D

 32 34  0  0  0  0  0  0  0  0999 V2000
    5.6454    1.7350   -0.1950 C   0  0  0  0  0  0  0  0  0  0  0  0
    5.2599    0.3881   -0.0147 O   0  0  0  0  0  0  0  0  0  0  0  0
    3.8988    0.1014    0.0113 C   0  0  0  0  0  0  0  0  0  0  0  0
    2.9749    1.1123   -0.1357 C   0  0  0  0  0  0  0  0  0  0  0  0
    1.6428    0.8056   -0.1067 C   0  0  0  0  0  0  0  0  0  0  0  0
    1.2023   -0.4977    0.0671 C   0  0  0  0  0  0  0  0  0  0  0  0
    2.1343   -1.4773    0.2099 C   0  0  0  0  0  0  0  0  0  0  0  0
    3.4815   -1.1959    0.1845 C   0  0  0  0  0  0  0  0  0  0  0  0
   -0.2276   -0.7969    0.0941 C   0  0  0  0  0  0  0  0  0  0  0  0
   -0.7339   -2.0500    0.2604 C   0  0  0  0  0  0  0  0  0  0  0  0
   -2.1097   -2.2179    0.2700 C   0  0  0  0  0  0  0  0  0  0  0  0
   -2.5980   -3.3548    0.4206 O   0  0  0  0  0  0  0  0  0  0  0  0
   -2.9333   -1.1372    0.1144 C   0  0  0  0  0  0  0  0  0  0  0  0
   -4.3257   -1.2621    0.1179 C   0  0  0  0  0  0  0  0  0  0  0  0
   -5.0807   -0.1202   -0.0454 C   0  0  0  0  0  0  0  0  0  0  0  0
   -4.4981    1.1141   -0.2084 C   0  0  0  0  0  0  0  0  0  0  0  0
   -5.2733    2.2763   -0.3747 O   0  0  0  0  0  0  0  0  0  0  0  0
   -3.1333    1.2379   -0.2121 C   0  0  0  0  0  0  0  0  0  0  0  0
   -2.3485    0.0975   -0.0487 C   0  0  0  0  0  0  0  0  0  0  0  0
   -1.0482    0.2377   -0.0552 O   0  0  0  0  0  0  0  0  0  0  0  0
    6.7258    1.8823   -0.1918 H   0  0  0  0  0  0  0  0  0  0  0  0
    5.1454    2.3089    0.6322 H   0  0  0  0  0  0  0  0  0  0  0  0
    5.1647    2.0743   -1.1448 H   0  0  0  0  0  0  0  0  0  0  0  0
    3.3158    2.1606   -0.2757 H   0  0  0  0  0  0  0  0  0  0  0  0
    0.9136    1.5937   -0.2215 H   0  0  0  0  0  0  0  0  0  0  0  0
    1.8513   -2.5007    0.3470 H   0  0  0  0  0  0  0  0  0  0  0  0
    4.1906   -2.0024    0.3016 H   0  0  0  0  0  0  0  0  0  0  0  0
   -0.0697   -2.9116    0.3846 H   0  0  0  0  0  0  0  0  0  0  0  0
   -4.7701   -2.2350    0.2466 H   0  0  0  0  0  0  0  0  0  0  0  0
   -6.1680   -0.1765   -0.0483 H   0  0  0  0  0  0  0  0  0  0  0  0
   -5.5581    2.5980   -1.2989 H   0  0  0  0  0  0  0  0  0  0  0  0
   -2.6710    2.2127   -0.3408 H   0  0  0  0  0  0  0  0  0  0  0  0
  1  2  1  0
  2  3  1  0
  3  4  2  0
  4  5  1  0
  5  6  2  0
  6  7  1  0
  7  8  2  0
  6  9  1  0
  9 10  2  0
 10 11  1  0
 11 12  2  0
 11 13  1  0
 13 14  2  0
 14 15  1  0
 15 16  2  0
 16 17  1  0
 16 18  1  0
 18 19  2  0
 19 20  1  0
  8  3  1  0
 20  9  1  0
 19 13  1  0
  1 21  1  0
  1 22  1  0
  1 23  1  0
  4 24  1  0
  5 25  1  0
  7 26  1  0
  8 27  1  0
 10 28  1  0
 14 29  1  0
 15 30  1  0
 17 31  1  0
 18 32  1  0
M  END
$$$$
[H]OC(=O)[C@@]1([H])N(C(=O)[C@@]([H])(N([H])C(=O)[C@@]([H])(S[H])C([H])([H])c2c([H])c([H])c([H])c([H])c2[H])C([H])([H])[H])C([H])([H])C([H])([H])C1([H])[H]
     RDKit          3D

 46 47  0  0  0  0  0  0  0  0999 V2000
    1.5600   -1.9671   -1.5112 C   0  0  0  0  0  0  0  0  0  0  0  0
    1.1233   -1.1988   -0.2579 C   0  0  2  0  0  0  0  0  0  0  0  0
   -0.3121   -0.9718   -0.3004 N   0  0  0  0  0  0  0  0  0  0  0  0
   -1.2067   -1.5132    0.6392 C   0  0  0  0  0  0  0  0  0  0  0  0
   -0.7747   -2.2282    1.5668 O   0  0  0  0  0  0  0  0  0  0  0  0
   -2.6513   -1.2362    0.5282 C   0  0  1  0  0  0  0  0  0  0  0  0
   -3.5927   -2.0510    1.8454 S   0  0  0  0  0  0  0  0  0  0  0  0
   -2.8812    0.2702    0.6933 C   0  0  0  0  0  0  0  0  0  0  0  0
   -4.3163    0.5604    0.5848 C   0  0  0  0  0  0  0  0  0  0  0  0
   -5.1374    0.5530    1.7118 C   0  0  0  0  0  0  0  0  0  0  0  0
   -6.4762    0.8324    1.5535 C   0  0  0  0  0  0  0  0  0  0  0  0
   -6.9965    1.1150    0.3001 C   0  0  0  0  0  0  0  0  0  0  0  0
   -6.2007    1.1238   -0.8032 C   0  0  0  0  0  0  0  0  0  0  0  0
   -4.8597    0.8455   -0.6549 C   0  0  0  0  0  0  0  0  0  0  0  0
    1.8659    0.0904   -0.2732 C   0  0  0  0  0  0  0  0  0  0  0  0
    1.1524    1.1449   -0.3541 O   0  0  0  0  0  0  0  0  0  0  0  0
    3.2776    0.1577   -0.2030 N   0  0  0  0  0  0  0  0  0  0  0  0
    4.1691   -0.9567   -0.0926 C   0  0  0  0  0  0  0  0  0  0  0  0
    5.3633   -0.4132    0.6221 C   0  0  0  0  0  0  0  0  0  0  0  0
    5.1135    1.0796    0.8318 C   0  0  0  0  0  0  0  0  0  0  0  0
    4.0573    1.3650   -0.2402 C   0  0  1  0  0  0  0  0  0  0  0  0
    4.6619    1.6367   -1.5421 C   0  0  0  0  0  0  0  0  0  0  0  0
    5.4393    2.7528   -1.7477 O   0  0  0  0  0  0  0  0  0  0  0  0
    4.4726    0.8431   -2.4917 O   0  0  0  0  0  0  0  0  0  0  0  0
    1.9665   -1.2296   -2.2269 H   0  0  0  0  0  0  0  0  0  0  0  0
    0.6986   -2.5315   -1.9347 H   0  0  0  0  0  0  0  0  0  0  0  0
    2.3458   -2.6692   -1.2258 H   0  0  0  0  0  0  0  0  0  0  0  0
    1.3458   -1.8285    0.6052 H   0  0  0  0  0  0  0  0  0  0  0  0
   -0.6676   -0.3813   -1.0667 H   0  0  0  0  0  0  0  0  0  0  0  0
   -3.0532   -1.5840   -0.4446 H   0  0  0  0  0  0  0  0  0  0  0  0
   -3.2245   -1.5630    3.1137 H   0  0  0  0  0  0  0  0  0  0  0  0
   -2.3554    0.7505   -0.1473 H   0  0  0  0  0  0  0  0  0  0  0  0
   -2.4589    0.5467    1.6754 H   0  0  0  0  0  0  0  0  0  0  0  0
   -4.6952    0.3309    2.6549 H   0  0  0  0  0  0  0  0  0  0  0  0
   -7.1235    0.8302    2.4146 H   0  0  0  0  0  0  0  0  0  0  0  0
   -8.0483    1.3280    0.2205 H   0  0  0  0  0  0  0  0  0  0  0  0
   -6.5875    1.3410   -1.7823 H   0  0  0  0  0  0  0  0  0  0  0  0
   -4.1927    0.8445   -1.5229 H   0  0  0  0  0  0  0  0  0  0  0  0
    3.7231   -1.8008    0.5008 H   0  0  0  0  0  0  0  0  0  0  0  0
    4.4187   -1.4148   -1.0742 H   0  0  0  0  0  0  0  0  0  0  0  0
    5.4744   -0.9267    1.5956 H   0  0  0  0  0  0  0  0  0  0  0  0
    6.3107   -0.5710    0.0690 H   0  0  0  0  0  0  0  0  0  0  0  0
    4.6300    1.2208    1.8137 H   0  0  0  0  0  0  0  0  0  0  0  0
    6.0188    1.6703    0.6737 H   0  0  0  0  0  0  0  0  0  0  0  0
    3.4754    2.2457    0.1437 H   0  0  0  0  0  0  0  0  0  0  0  0
    5.1484    3.5573   -2.2911 H   0  0  0  0  0  0  0  0  0  0  0  0
  1  2  1  0
  2  3  1  0
  3  4  1  0
  4  5  2  0
  4  6  1  0
  6  7  1  0
  6  8  1  0
  8  9  1  0
  9 10  2  0
 10 11  1  0
 11 12  2  0
 12 13  1  0
 13 14  2  0
  2 15  1  0
 15 16  2  0
 15 17  1  0
 17 18  1  0
 18 19  1  0
 19 20  1  0
 20 21  1  0
 21 22  1  0
 22 23  1  0
 22 24  2  0
 14  9  1  0
 21 17  1  0
  1 25  1  0
  1 26  1  0
  1 27  1  0
  2 28  1  1
  3 29  1  0
  6 30  1  6
  7 31  1  0
  8 32  1  0
  8 33  1  0
 10 34  1  0
 11 35  1  0
 12 36  1  0
 13 37  1  0
 14 38  1  0
 18 39  1  0
 18 40  1  0
 19 41  1  0
 19 42  1  0
 20 43  1  0
 20 44  1  0
 21 45  1  1
 23 46  1  0
M  END
$$$$
[H]c1nc(N([H])c2c([H])c([H])c(N3C([H])([H])C([H])([H])N(C([H])([H])[H])C([H])([H])C3([H])[H])c([H])c2[H])nc([H])c1N([H])C(=O)c1c([H])c(N([H])C(=O)c2c([H])c([H])c([H])c(C(F)(F)F)c2[H])c([H])c([H])c1C([H])([H])[H]
     RDKit          3D

 73 77  0  0  0  0  0  0  0  0999 V2000
   11.1626   -1.4295   -0.2901 C   0  0  0  0  0  0  0  0  0  0  0  0
   10.8066   -1.1520   -1.6725 N   0  0  0  0  0  0  0  0  0  0  0  0
   10.4159    0.1876   -1.8989 C   0  0  0  0  0  0  0  0  0  0  0  0
    9.0068    0.3313   -2.4400 C   0  0  0  0  0  0  0  0  0  0  0  0
    8.1717   -0.5294   -1.6086 N   0  0  0  0  0  0  0  0  0  0  0  0
    8.5007   -1.9673   -1.7161 C   0  0  0  0  0  0  0  0  0  0  0  0
    9.9119   -2.1440   -2.1967 C   0  0  0  0  0  0  0  0  0  0  0  0
    7.1297   -0.0633   -0.7731 C   0  0  0  0  0  0  0  0  0  0  0  0
    6.2840    0.9745   -1.1097 C   0  0  0  0  0  0  0  0  0  0  0  0
    5.2833    1.4252   -0.2729 C   0  0  0  0  0  0  0  0  0  0  0  0
    5.0750    0.8551    0.9607 C   0  0  0  0  0  0  0  0  0  0  0  0
    4.0727    1.2666    1.8554 N   0  0  0  0  0  0  0  0  0  0  0  0
    2.7010    1.4154    1.6495 C   0  0  0  0  0  0  0  0  0  0  0  0
    2.0640    1.1508    0.5212 N   0  0  0  0  0  0  0  0  0  0  0  0
    0.7045    1.2644    0.3632 C   0  0  0  0  0  0  0  0  0  0  0  0
   -0.0701    1.6664    1.3890 C   0  0  0  0  0  0  0  0  0  0  0  0
   -1.4860    1.7401    1.4642 N   0  0  0  0  0  0  0  0  0  0  0  0
   -2.4284    1.0827    0.7153 C   0  0  0  0  0  0  0  0  0  0  0  0
   -2.0837    0.3640   -0.2539 O   0  0  0  0  0  0  0  0  0  0  0  0
   -3.8748    1.1632    1.0101 C   0  0  0  0  0  0  0  0  0  0  0  0
   -4.8233    1.0463   -0.0402 C   0  0  0  0  0  0  0  0  0  0  0  0
   -6.1401    1.1096    0.1741 C   0  0  0  0  0  0  0  0  0  0  0  0
   -7.1975    0.8936   -0.7958 N   0  0  0  0  0  0  0  0  0  0  0  0
   -8.1468   -0.1045   -0.4596 C   0  0  0  0  0  0  0  0  0  0  0  0
   -7.8757   -0.7207    0.6821 O   0  0  0  0  0  0  0  0  0  0  0  0
   -9.3264   -0.5507   -1.1186 C   0  0  0  0  0  0  0  0  0  0  0  0
   -9.9814    0.1544   -2.0771 C   0  0  0  0  0  0  0  0  0  0  0  0
  -11.1622   -0.3133   -2.6274 C   0  0  0  0  0  0  0  0  0  0  0  0
  -11.7323   -1.5005   -2.2409 C   0  0  0  0  0  0  0  0  0  0  0  0
  -11.0947   -2.2428   -1.2745 C   0  0  0  0  0  0  0  0  0  0  0  0
   -9.9266   -1.7682   -0.7404 C   0  0  0  0  0  0  0  0  0  0  0  0
  -11.6644   -3.5222   -0.8140 C   0  0  0  0  0  0  0  0  0  0  0  0
  -12.7917   -3.2654   -0.0486 F   0  0  0  0  0  0  0  0  0  0  0  0
  -11.9253   -4.4025   -1.8601 F   0  0  0  0  0  0  0  0  0  0  0  0
  -10.7612   -4.1640    0.0259 F   0  0  0  0  0  0  0  0  0  0  0  0
   -6.6025    1.3075    1.4993 C   0  0  0  0  0  0  0  0  0  0  0  0
   -5.6979    1.4181    2.5023 C   0  0  0  0  0  0  0  0  0  0  0  0
   -4.3071    1.3475    2.3005 C   0  0  0  0  0  0  0  0  0  0  0  0
   -3.4568    1.3682    3.5224 C   0  0  0  0  0  0  0  0  0  0  0  0
    0.6065    1.9579    2.6074 C   0  0  0  0  0  0  0  0  0  0  0  0
    1.9026    1.8263    2.6842 N   0  0  0  0  0  0  0  0  0  0  0  0
    5.9322   -0.2082    1.3194 C   0  0  0  0  0  0  0  0  0  0  0  0
    6.9250   -0.6545    0.4876 C   0  0  0  0  0  0  0  0  0  0  0  0
   11.0028   -2.4892   -0.1086 H   0  0  0  0  0  0  0  0  0  0  0  0
   12.2320   -1.2035   -0.1608 H   0  0  0  0  0  0  0  0  0  0  0  0
   10.5559   -0.8453    0.4460 H   0  0  0  0  0  0  0  0  0  0  0  0
   10.4807    0.7587   -0.9317 H   0  0  0  0  0  0  0  0  0  0  0  0
   11.1376    0.6785   -2.5712 H   0  0  0  0  0  0  0  0  0  0  0  0
    8.6993    1.3874   -2.3241 H   0  0  0  0  0  0  0  0  0  0  0  0
    8.9493   -0.0226   -3.4739 H   0  0  0  0  0  0  0  0  0  0  0  0
    8.2939   -2.4781   -0.7843 H   0  0  0  0  0  0  0  0  0  0  0  0
    7.8182   -2.3492   -2.5036 H   0  0  0  0  0  0  0  0  0  0  0  0
   10.0159   -2.2026   -3.2872 H   0  0  0  0  0  0  0  0  0  0  0  0
   10.2623   -3.1415   -1.7933 H   0  0  0  0  0  0  0  0  0  0  0  0
    6.3766    1.4861   -2.0566 H   0  0  0  0  0  0  0  0  0  0  0  0
    4.6281    2.2472   -0.5569 H   0  0  0  0  0  0  0  0  0  0  0  0
    4.4192    1.4847    2.8598 H   0  0  0  0  0  0  0  0  0  0  0  0
    0.2446    1.0282   -0.6036 H   0  0  0  0  0  0  0  0  0  0  0  0
   -1.8616    2.4790    2.1563 H   0  0  0  0  0  0  0  0  0  0  0  0
   -4.4587    0.9050   -1.0588 H   0  0  0  0  0  0  0  0  0  0  0  0
   -7.2179    1.4473   -1.6332 H   0  0  0  0  0  0  0  0  0  0  0  0
   -9.5830    1.0984   -2.4225 H   0  0  0  0  0  0  0  0  0  0  0  0
  -11.7002    0.2519   -3.3961 H   0  0  0  0  0  0  0  0  0  0  0  0
  -12.6727   -1.8372   -2.6929 H   0  0  0  0  0  0  0  0  0  0  0  0
   -9.3932   -2.3435    0.0247 H   0  0  0  0  0  0  0  0  0  0  0  0
   -7.6706    1.3801    1.6361 H   0  0  0  0  0  0  0  0  0  0  0  0
   -6.0166    1.5663    3.5297 H   0  0  0  0  0  0  0  0  0  0  0  0
   -3.2707    2.3812    3.8991 H   0  0  0  0  0  0  0  0  0  0  0  0
   -2.6120    0.7004    3.4318 H   0  0  0  0  0  0  0  0  0  0  0  0
   -4.0929    0.8304    4.3335 H   0  0  0  0  0  0  0  0  0  0  0  0
   -0.0160    2.2938    3.4484 H   0  0  0  0  0  0  0  0  0  0  0  0
    5.7611   -0.6407    2.2843 H   0  0  0  0  0  0  0  0  0  0  0  0
    7.5890   -1.4651    0.7519 H   0  0  0  0  0  0  0  0  0  0  0  0
  1  2  1  0
  2  3  1  0
  3  4  1  0
  4  5  1  0
  5  6  1  0
  6  7  1  0
  5  8  1  0
  8  9  2  0
  9 10  1  0
 10 11  2  0
 11 12  1  0
 12 13  1  0
 13 14  2  0
 14 15  1  0
 15 16  2  0
 16 17  1  0
 17 18  1  0
 18 19  2  0
 18 20  1  0
 20 21  2  0
 21 22  1  0
 22 23  1  0
 23 24  1  0
 24 25  2  0
 24 26  1  0
 26 27  2  0
 27 28  1  0
 28 29  2  0
 29 30  1  0
 30 31  2  0
 30 32  1  0
 32 33  1  0
 32 34  1  0
 32 35  1  0
 22 36  2  0
 36 37  1  0
 37 38  2  0
 38 39  1  0
 16 40  1  0
 40 41  2  0
 11 42  1  0
 42 43  2  0
  7  2  1  0
 43  8  1  0
 41 13  1  0
 38 20  1  0
 31 26  1  0
  1 44  1  0
  1 45  1  0
  1 46  1  0
  3 47  1  0
  3 48  1  0
  4 49  1  0
  4 50  1  0
  6 51  1  0
  6 52  1  0
  7 53  1  0
  7 54  1  0
  9 55  1  0
 10 56  1  0
 12 57  1  0
 15 58  1  0
 17 59  1  0
 21 60  1  0
 23 61  1  0
 27 62  1  0
 28 63  1  0
 29 64  1  0
 31 65  1  0
 36 66  1  0
 37 67  1  0
 39 68  1  0
 39 69  1  0
 39 70  1  0
 40 71  1  0
 42 72  1  0
 43 73  1  0
M  END
$$$$
[H]c1nc(N([H])c2c([H])c([H])c(N3C([H])([H])C([H])([H])C([H])(N4C([H])([H])C([H])([H])OC([H])([H])C4([H])[H])C([H])([H])C3([H])[H])c([H])c2OC([H])([H])[H])nc(N([H])c2c([H])c([H])c([H])c([H])c2S(=O)(=O)C([H])(C([H])([H])[H])C([H])([H])[H])c1Cl
     RDKit          3D

 78 82  0  0  0  0  0  0  0  0999 V2000
   -2.7990   -4.7366   -1.3510 C   0  0  0  0  0  0  0  0  0  0  0  0
   -1.4818   -4.2815   -1.0963 O   0  0  0  0  0  0  0  0  0  0  0  0
   -1.2626   -2.9268   -0.9115 C   0  0  0  0  0  0  0  0  0  0  0  0
   -2.2756   -1.9993   -0.9649 C   0  0  0  0  0  0  0  0  0  0  0  0
   -2.0617   -0.6368   -0.7804 C   0  0  0  0  0  0  0  0  0  0  0  0
   -0.7814   -0.2202   -0.5369 C   0  0  0  0  0  0  0  0  0  0  0  0
    0.2811   -1.1355   -0.4738 C   0  0  0  0  0  0  0  0  0  0  0  0
    0.0363   -2.4736   -0.6602 C   0  0  0  0  0  0  0  0  0  0  0  0
    1.0486   -3.4282   -0.5632 N   0  0  0  0  0  0  0  0  0  0  0  0
    2.4501   -3.2971   -0.5441 C   0  0  0  0  0  0  0  0  0  0  0  0
    3.1806   -4.4584   -0.3853 N   0  0  0  0  0  0  0  0  0  0  0  0
    4.4963   -4.5095   -0.3751 C   0  0  0  0  0  0  0  0  0  0  0  0
    5.2173   -3.3469   -0.5311 C   0  0  0  0  0  0  0  0  0  0  0  0
    6.9576   -3.3296   -0.5341 Cl  0  0  0  0  0  0  0  0  0  0  0  0
    4.5356   -2.1282   -0.6989 C   0  0  0  0  0  0  0  0  0  0  0  0
    5.3043   -0.9689   -0.8278 N   0  0  0  0  0  0  0  0  0  0  0  0
    4.9428    0.3708   -1.0715 C   0  0  0  0  0  0  0  0  0  0  0  0
    3.7071    0.7399   -1.5352 C   0  0  0  0  0  0  0  0  0  0  0  0
    3.4274    2.0598   -1.8188 C   0  0  0  0  0  0  0  0  0  0  0  0
    4.3635    3.0489   -1.6512 C   0  0  0  0  0  0  0  0  0  0  0  0
    5.6208    2.6944   -1.1820 C   0  0  0  0  0  0  0  0  0  0  0  0
    5.9101    1.3798   -0.8961 C   0  0  0  0  0  0  0  0  0  0  0  0
    7.5019    1.0371   -0.2945 S   0  0  0  0  0  0  0  0  0  0  0  0
    8.2978    0.1131   -1.1647 O   0  0  0  0  0  0  0  0  0  0  0  0
    8.2966    2.3490   -0.2987 O   0  0  0  0  0  0  0  0  0  0  0  0
    7.4681    0.4327    1.3549 C   0  0  0  0  0  0  0  0  0  0  0  0
    8.8634   -0.1388    1.7159 C   0  0  0  0  0  0  0  0  0  0  0  0
    7.0596    1.4683    2.3670 C   0  0  0  0  0  0  0  0  0  0  0  0
    3.1822   -2.2006   -0.6916 N   0  0  0  0  0  0  0  0  0  0  0  0
   -3.1115    0.3177   -0.8518 N   0  0  0  0  0  0  0  0  0  0  0  0
   -4.3569    0.0033   -1.5564 C   0  0  0  0  0  0  0  0  0  0  0  0
   -5.4456    0.9770   -1.1084 C   0  0  0  0  0  0  0  0  0  0  0  0
   -5.4163    1.0960    0.3875 C   0  0  0  0  0  0  0  0  0  0  0  0
   -4.1724    1.8834    0.7406 C   0  0  0  0  0  0  0  0  0  0  0  0
   -3.0537    1.6221   -0.2518 C   0  0  0  0  0  0  0  0  0  0  0  0
   -6.5566    1.8175    0.8825 N   0  0  0  0  0  0  0  0  0  0  0  0
   -6.4174    2.0469    2.3263 C   0  0  0  0  0  0  0  0  0  0  0  0
   -7.6213    2.8766    2.7374 C   0  0  0  0  0  0  0  0  0  0  0  0
   -8.8104    2.1862    2.5319 O   0  0  0  0  0  0  0  0  0  0  0  0
   -8.9221    1.9916    1.1601 C   0  0  0  0  0  0  0  0  0  0  0  0
   -7.7951    1.0731    0.7374 C   0  0  0  0  0  0  0  0  0  0  0  0
   -2.8361   -5.8616   -1.3099 H   0  0  0  0  0  0  0  0  0  0  0  0
   -3.1900   -4.3824   -2.3292 H   0  0  0  0  0  0  0  0  0  0  0  0
   -3.5377   -4.4041   -0.5867 H   0  0  0  0  0  0  0  0  0  0  0  0
   -3.2912   -2.3704   -1.1607 H   0  0  0  0  0  0  0  0  0  0  0  0
   -0.5304    0.8148   -0.3940 H   0  0  0  0  0  0  0  0  0  0  0  0
    1.2667   -0.7437   -0.2556 H   0  0  0  0  0  0  0  0  0  0  0  0
    0.7052   -4.4618   -0.4798 H   0  0  0  0  0  0  0  0  0  0  0  0
    5.0715   -5.4367   -0.2489 H   0  0  0  0  0  0  0  0  0  0  0  0
    6.3584   -1.1165   -0.7423 H   0  0  0  0  0  0  0  0  0  0  0  0
    2.9114   -0.0041   -1.7193 H   0  0  0  0  0  0  0  0  0  0  0  0
    2.4405    2.3544   -2.1905 H   0  0  0  0  0  0  0  0  0  0  0  0
    4.1803    4.0991   -1.8612 H   0  0  0  0  0  0  0  0  0  0  0  0
    6.3509    3.4879   -1.0554 H   0  0  0  0  0  0  0  0  0  0  0  0
    6.8109   -0.4447    1.4204 H   0  0  0  0  0  0  0  0  0  0  0  0
    8.9078   -1.1290    1.2165 H   0  0  0  0  0  0  0  0  0  0  0  0
    8.8703   -0.2948    2.7926 H   0  0  0  0  0  0  0  0  0  0  0  0
    9.6590    0.5303    1.3215 H   0  0  0  0  0  0  0  0  0  0  0  0
    6.3760    2.2282    1.9706 H   0  0  0  0  0  0  0  0  0  0  0  0
    8.0149    1.9242    2.7543 H   0  0  0  0  0  0  0  0  0  0  0  0
    6.5683    1.0168    3.2596 H   0  0  0  0  0  0  0  0  0  0  0  0
   -4.2295    0.1961   -2.6622 H   0  0  0  0  0  0  0  0  0  0  0  0
   -4.6789   -1.0320   -1.4555 H   0  0  0  0  0  0  0  0  0  0  0  0
   -6.3764    0.6017   -1.5329 H   0  0  0  0  0  0  0  0  0  0  0  0
   -5.2359    1.9773   -1.5346 H   0  0  0  0  0  0  0  0  0  0  0  0
   -5.4040    0.1109    0.8986 H   0  0  0  0  0  0  0  0  0  0  0  0
   -4.4001    2.9747    0.6779 H   0  0  0  0  0  0  0  0  0  0  0  0
   -3.8424    1.6927    1.7865 H   0  0  0  0  0  0  0  0  0  0  0  0
   -3.1634    2.3692   -1.0913 H   0  0  0  0  0  0  0  0  0  0  0  0
   -2.0806    1.8030    0.1914 H   0  0  0  0  0  0  0  0  0  0  0  0
   -6.4486    1.0642    2.8141 H   0  0  0  0  0  0  0  0  0  0  0  0
   -5.5199    2.6190    2.5767 H   0  0  0  0  0  0  0  0  0  0  0  0
   -7.6190    3.7806    2.0982 H   0  0  0  0  0  0  0  0  0  0  0  0
   -7.5723    3.1645    3.7921 H   0  0  0  0  0  0  0  0  0  0  0  0
   -8.6856    2.9938    0.6972 H   0  0  0  0  0  0  0  0  0  0  0  0
   -9.9176    1.6194    0.8580 H   0  0  0  0  0  0  0  0  0  0  0  0
   -7.9512    0.6460   -0.2539 H   0  0  0  0  0  0  0  0  0  0  0  0
   -7.7886    0.2449    1.4991 H   0  0  0  0  0  0  0  0  0  0  0  0
  1  2  1  0
  2  3  1  0
  3  4  2  0
  4  5  1  0
  5  6  2  0
  6  7  1  0
  7  8  2  0
  8  9  1  0
  9 10  1  0
 10 11  2  0
 11 12  1  0
 12 13  2  0
 13 14  1  0
 13 15  1  0
 15 16  1  0
 16 17  1  0
 17 18  2  0
 18 19  1  0
 19 20  2  0
 20 21  1  0
 21 22  2  0
 22 23  1  0
 23 24  2  0
 23 25  2  0
 23 26  1  0
 26 27  1  0
 26 28  1  0
 15 29  2  0
  5 30  1  0
 30 31  1  0
 31 32  1  0
 32 33  1  0
 33 34  1  0
 34 35  1  0
 33 36  1  0
 36 37  1  0
 37 38  1  0
 38 39  1  0
 39 40  1  0
 40 41  1  0
  8  3  1  0
 29 10  1  0
 35 30  1  0
 41 36  1  0
 22 17  1  0
  1 42  1  0
  1 43  1  0
  1 44  1  0
  4 45  1  0
  6 46  1  0
  7 47  1  0
  9 48  1  0
 12 49  1  0
 16 50  1  0
 18 51  1  0
 19 52  1  0
 20 53  1  0
 21 54  1  0
 26 55  1  0
 27 56  1  0
 27 57  1  0
 27 58  1  0
 28 59  1  0
 28 60  1  0
 28 61  1  0
 31 62  1  0
 31 63  1  0
 32 64  1  0
 32 65  1  0
 33 66  1  0
 34 67  1  0
 34 68  1  0
 35 69  1  0
 35 70  1  0
 37 71  1  0
 37 72  1  0
 38 73  1  0
 38 74  1  0
 40 75  1  0
 40 76  1  0
 41 77  1  0
 41 78  1  0
M  END
$$$$
[H]c1c([H])c([H])c(C2(C(=O)N([H])[H])C([H])([H])C([H])([H])N(C([H])([H])C([H])([H])[C@@]3(c4c([H])c([H])c(F)c([H])c4[H])C([H])([H])N(C(=O)c4c([H])c(OC([H])([H])[H])c(OC([H])([H])[H])c(OC([H])([H])[H])c4[H])C([H])([H])C3([H])[H])C([H])([H])C2([H])[H])c([H])c1[H]
     RDKit          3D

 83 87  0  0  0  0  0  0  0  0999 V2000
    3.7888    3.6194   -0.7732 C   0  0  0  0  0  0  0  0  0  0  0  0
    5.0021    3.0250   -1.2658 O   0  0  0  0  0  0  0  0  0  0  0  0
    5.3032    1.7566   -0.7727 C   0  0  0  0  0  0  0  0  0  0  0  0
    4.4691    1.0957    0.1354 C   0  0  0  0  0  0  0  0  0  0  0  0
    4.7234   -0.1481    0.6475 C   0  0  0  0  0  0  0  0  0  0  0  0
    5.9194   -0.7512    0.1967 C   0  0  0  0  0  0  0  0  0  0  0  0
    6.7734   -0.1531   -0.6919 C   0  0  0  0  0  0  0  0  0  0  0  0
    7.9512   -0.7715   -1.1290 O   0  0  0  0  0  0  0  0  0  0  0  0
    8.2278   -2.0696   -0.6176 C   0  0  0  0  0  0  0  0  0  0  0  0
    6.4422    1.1002   -1.1616 C   0  0  0  0  0  0  0  0  0  0  0  0
    7.3092    1.6898   -2.0577 O   0  0  0  0  0  0  0  0  0  0  0  0
    8.4313    2.4735   -1.6682 C   0  0  0  0  0  0  0  0  0  0  0  0
    3.8229   -0.9071    1.5000 C   0  0  0  0  0  0  0  0  0  0  0  0
    4.4415   -1.8549    2.1843 O   0  0  0  0  0  0  0  0  0  0  0  0
    2.4591   -0.7576    1.6600 N   0  0  0  0  0  0  0  0  0  0  0  0
    1.6950   -1.5603    2.6420 C   0  0  0  0  0  0  0  0  0  0  0  0
    0.5057   -1.9774    1.8676 C   0  0  0  0  0  0  0  0  0  0  0  0
    0.4346   -1.1037    0.5974 C   0  0  1  0  0  0  0  0  0  0  0  0
   -0.9334   -0.6318    0.3421 C   0  0  0  0  0  0  0  0  0  0  0  0
   -1.5790    0.2303    1.3773 C   0  0  0  0  0  0  0  0  0  0  0  0
   -2.9295    0.5121    1.1084 N   0  0  0  0  0  0  0  0  0  0  0  0
   -3.3290    1.2788    0.0071 C   0  0  0  0  0  0  0  0  0  0  0  0
   -4.4799    0.6077   -0.7559 C   0  0  0  0  0  0  0  0  0  0  0  0
   -5.6688    0.3285    0.1587 C   0  0  0  0  0  0  0  0  0  0  0  0
   -5.2909   -0.0672    1.5395 C   0  0  0  0  0  0  0  0  0  0  0  0
   -3.8501   -0.3935    1.6927 C   0  0  0  0  0  0  0  0  0  0  0  0
   -6.3792   -0.8295   -0.4906 C   0  0  0  0  0  0  0  0  0  0  0  0
   -5.7586   -2.0714   -0.7338 N   0  0  0  0  0  0  0  0  0  0  0  0
   -7.5768   -0.7090   -0.8420 O   0  0  0  0  0  0  0  0  0  0  0  0
   -6.5712    1.4748    0.0302 C   0  0  0  0  0  0  0  0  0  0  0  0
   -7.0857    1.7463   -1.2366 C   0  0  0  0  0  0  0  0  0  0  0  0
   -7.9706    2.7754   -1.4861 C   0  0  0  0  0  0  0  0  0  0  0  0
   -8.3755    3.5845   -0.4491 C   0  0  0  0  0  0  0  0  0  0  0  0
   -7.8927    3.3562    0.8194 C   0  0  0  0  0  0  0  0  0  0  0  0
   -6.9990    2.3044    1.0358 C   0  0  0  0  0  0  0  0  0  0  0  0
    1.4250   -0.0208    1.0040 C   0  0  0  0  0  0  0  0  0  0  0  0
    0.8932   -1.9368   -0.5124 C   0  0  0  0  0  0  0  0  0  0  0  0
    0.3131   -3.2054   -0.6562 C   0  0  0  0  0  0  0  0  0  0  0  0
    0.7075   -4.0523   -1.6703 C   0  0  0  0  0  0  0  0  0  0  0  0
    1.6775   -3.6714   -2.5643 C   0  0  0  0  0  0  0  0  0  0  0  0
    2.1094   -4.4814   -3.5867 F   0  0  0  0  0  0  0  0  0  0  0  0
    2.2546   -2.4188   -2.4307 C   0  0  0  0  0  0  0  0  0  0  0  0
    1.8566   -1.5907   -1.4249 C   0  0  0  0  0  0  0  0  0  0  0  0
    2.9814    2.8927   -1.0017 H   0  0  0  0  0  0  0  0  0  0  0  0
    3.5896    4.6105   -1.1675 H   0  0  0  0  0  0  0  0  0  0  0  0
    3.8307    3.6297    0.3568 H   0  0  0  0  0  0  0  0  0  0  0  0
    3.6053    1.6345    0.4558 H   0  0  0  0  0  0  0  0  0  0  0  0
    6.1638   -1.7252    0.5721 H   0  0  0  0  0  0  0  0  0  0  0  0
    9.1873   -2.4814   -0.9852 H   0  0  0  0  0  0  0  0  0  0  0  0
    7.3536   -2.7019   -0.8838 H   0  0  0  0  0  0  0  0  0  0  0  0
    8.2355   -2.0212    0.4873 H   0  0  0  0  0  0  0  0  0  0  0  0
    8.8701    2.1205   -0.7059 H   0  0  0  0  0  0  0  0  0  0  0  0
    8.0618    3.5227   -1.5514 H   0  0  0  0  0  0  0  0  0  0  0  0
    9.2105    2.4162   -2.4370 H   0  0  0  0  0  0  0  0  0  0  0  0
    1.4638   -0.9195    3.5182 H   0  0  0  0  0  0  0  0  0  0  0  0
    2.3037   -2.3892    3.0237 H   0  0  0  0  0  0  0  0  0  0  0  0
   -0.4507   -1.9272    2.4317 H   0  0  0  0  0  0  0  0  0  0  0  0
    0.6297   -3.0506    1.6119 H   0  0  0  0  0  0  0  0  0  0  0  0
   -0.8773    0.0147   -0.5899 H   0  0  0  0  0  0  0  0  0  0  0  0
   -1.6105   -1.4656    0.0316 H   0  0  0  0  0  0  0  0  0  0  0  0
   -1.5073   -0.1796    2.4165 H   0  0  0  0  0  0  0  0  0  0  0  0
   -1.0426    1.2256    1.4589 H   0  0  0  0  0  0  0  0  0  0  0  0
   -3.6786    2.2782    0.3425 H   0  0  0  0  0  0  0  0  0  0  0  0
   -2.5652    1.4687   -0.7662 H   0  0  0  0  0  0  0  0  0  0  0  0
   -4.0564   -0.3282   -1.1844 H   0  0  0  0  0  0  0  0  0  0  0  0
   -4.8103    1.2720   -1.5526 H   0  0  0  0  0  0  0  0  0  0  0  0
   -5.8507   -1.0213    1.8215 H   0  0  0  0  0  0  0  0  0  0  0  0
   -5.5994    0.6347    2.3382 H   0  0  0  0  0  0  0  0  0  0  0  0
   -3.6489   -1.4532    1.4473 H   0  0  0  0  0  0  0  0  0  0  0  0
   -3.6501   -0.3552    2.8187 H   0  0  0  0  0  0  0  0  0  0  0  0
   -6.1905   -2.7406   -1.4375 H   0  0  0  0  0  0  0  0  0  0  0  0
   -4.8935   -2.4273   -0.2902 H   0  0  0  0  0  0  0  0  0  0  0  0
   -6.7746    1.1415   -2.0686 H   0  0  0  0  0  0  0  0  0  0  0  0
   -8.3259    2.9336   -2.5186 H   0  0  0  0  0  0  0  0  0  0  0  0
   -9.0707    4.3959   -0.6401 H   0  0  0  0  0  0  0  0  0  0  0  0
   -8.2119    4.0050    1.6431 H   0  0  0  0  0  0  0  0  0  0  0  0
   -6.6694    2.1997    2.0441 H   0  0  0  0  0  0  0  0  0  0  0  0
    1.6809    0.6282    0.1889 H   0  0  0  0  0  0  0  0  0  0  0  0
    0.9140    0.5805    1.8056 H   0  0  0  0  0  0  0  0  0  0  0  0
   -0.4633   -3.5771    0.0099 H   0  0  0  0  0  0  0  0  0  0  0  0
    0.2739   -5.0421   -1.8004 H   0  0  0  0  0  0  0  0  0  0  0  0
    3.0380   -2.0376   -3.1031 H   0  0  0  0  0  0  0  0  0  0  0  0
    2.2872   -0.5861   -1.2968 H   0  0  0  0  0  0  0  0  0  0  0  0
  1  2  1  0
  2  3  1  0
  3  4  2  0
  4  5  1  0
  5  6  2  0
  6  7  1  0
  7  8  1  0
  8  9  1  0
  7 10  2  0
 10 11  1  0
 11 12  1  0
  5 13  1  0
 13 14  2  0
 13 15  1  0
 15 16  1  0
 16 17  1  0
 17 18  1  0
 18 19  1  6
 19 20  1  0
 20 21  1  0
 21 22  1  0
 22 23  1  0
 23 24  1  0
 24 25  1  0
 25 26  1  0
 24 27  1  0
 27 28  1  0
 27 29  2  0
 24 30  1  0
 30 31  2  0
 31 32  1  0
 32 33  2  0
 33 34  1  0
 34 35  2  0
 18 36  1  0
 18 37  1  0
 37 38  2  0
 38 39  1  0
 39 40  2  0
 40 41  1  0
 40 42  1  0
 42 43  2  0
 10  3  1  0
 36 15  1  0
 43 37  1  0
 26 21  1  0
 35 30  1  0
  1 44  1  0
  1 45  1  0
  1 46  1  0
  4 47  1  0
  6 48  1  0
  9 49  1  0
  9 50  1  0
  9 51  1  0
 12 52  1  0
 12 53  1  0
 12 54  1  0
 16 55  1  0
 16 56  1  0
 17 57  1  0
 17 58  1  0
 19 59  1  0
 19 60  1  0
 20 61  1  0
 20 62  1  0
 22 63  1  0
 22 64  1  0
 23 65  1  0
 23 66  1  0
 25 67  1  0
 25 68  1  0
 26 69  1  0
 26 70  1  0
 28 71  1  0
 28 72  1  0
 31 73  1  0
 32 74  1  0
 33 75  1  0
 34 76  1  0
 35 77  1  0
 36 78  1  0
 36 79  1  0
 38 80  1  0
 39 81  1  0
 42 82  1  0
 43 83  1  0
M  END
$$$$
[H]Oc1c([H])c([H])c(/C([H])=C(\[H])C(=O)c2c([H])c([H])c(O[H])c(O[H])c2[H])c([H])c1[H]
     RDKit          3D

 31 32  0  0  0  0  0  0  0  0999 V2000
   -6.2197    1.6528    0.0666 O   0  0  0  0  0  0  0  0  0  0  0  0
   -4.8801    1.2427    0.0767 C   0  0  0  0  0  0  0  0  0  0  0  0
   -4.5642    0.1506   -0.6910 C   0  0  0  0  0  0  0  0  0  0  0  0
   -3.2391   -0.3067   -0.7211 C   0  0  0  0  0  0  0  0  0  0  0  0
   -2.2719    0.3043   -0.0121 C   0  0  0  0  0  0  0  0  0  0  0  0
   -0.8830   -0.1203   -0.0026 C   0  0  0  0  0  0  0  0  0  0  0  0
   -0.4726   -1.1437   -0.6993 C   0  0  0  0  0  0  0  0  0  0  0  0
    0.8348   -1.6573   -0.7877 C   0  0  0  0  0  0  0  0  0  0  0  0
    0.9139   -2.7797   -1.5092 O   0  0  0  0  0  0  0  0  0  0  0  0
    2.0895   -1.2004   -0.2462 C   0  0  0  0  0  0  0  0  0  0  0  0
    3.1682   -2.1124   -0.1642 C   0  0  0  0  0  0  0  0  0  0  0  0
    4.4174   -1.7594    0.2614 C   0  0  0  0  0  0  0  0  0  0  0  0
    4.7116   -0.4721    0.6441 C   0  0  0  0  0  0  0  0  0  0  0  0
    5.9782   -0.1047    1.0790 O   0  0  0  0  0  0  0  0  0  0  0  0
    3.6877    0.4331    0.5743 C   0  0  0  0  0  0  0  0  0  0  0  0
    3.9513    1.7463    0.9546 O   0  0  0  0  0  0  0  0  0  0  0  0
    2.3975    0.0708    0.1341 C   0  0  0  0  0  0  0  0  0  0  0  0
   -2.6091    1.4110    0.7616 C   0  0  0  0  0  0  0  0  0  0  0  0
   -3.9201    1.8784    0.8030 C   0  0  0  0  0  0  0  0  0  0  0  0
   -6.5099    2.3303   -0.6307 H   0  0  0  0  0  0  0  0  0  0  0  0
   -5.3263   -0.3678   -1.2783 H   0  0  0  0  0  0  0  0  0  0  0  0
   -3.0379   -1.1666   -1.3369 H   0  0  0  0  0  0  0  0  0  0  0  0
   -0.1762    0.4238    0.6596 H   0  0  0  0  0  0  0  0  0  0  0  0
   -1.2661   -1.6678   -1.2991 H   0  0  0  0  0  0  0  0  0  0  0  0
    2.9638   -3.1321   -0.4566 H   0  0  0  0  0  0  0  0  0  0  0  0
    5.2440   -2.4802    0.3190 H   0  0  0  0  0  0  0  0  0  0  0  0
    6.1669    0.8484    1.3544 H   0  0  0  0  0  0  0  0  0  0  0  0
    3.2111    2.4472    0.9151 H   0  0  0  0  0  0  0  0  0  0  0  0
    1.6722    0.8700    0.0662 H   0  0  0  0  0  0  0  0  0  0  0  0
   -1.8398    1.9147    1.3390 H   0  0  0  0  0  0  0  0  0  0  0  0
   -4.1919    2.7467    1.4083 H   0  0  0  0  0  0  0  0  0  0  0  0
  1  2  1  0
  2  3  2  0
  3  4  1  0
  4  5  2  0
  5  6  1  0
  6  7  2  0
  7  8  1  0
  8  9  2  0
  8 10  1  0
 10 11  2  0
 11 12  1  0
 12 13  2  0
 13 14  1  0
 13 15  1  0
 15 16  1  0
 15 17  2  0
  5 18  1  0
 18 19  2  0
 19  2  1  0
 17 10  1  0
  1 20  1  0
  3 21  1  0
  4 22  1  0
  6 23  1  0
  7 24  1  0
 11 25  1  0
 12 26  1  0
 14 27  1  0
 16 28  1  0
 17 29  1  0
 18 30  1  0
 19 31  1  0
M  END
$$$$
[H]c1nc(N([H])c2c([H])c([H])c(OC([H])([H])C([H])([H])C([H])([H])N3C([H])([H])C([H])([H])N(C([H])([H])[H])C([H])([H])C3([H])[H])c(OC([H])([H])[H])c2[H])nc(N([H])c2nc3c(c([H])c2[H])OC(C([H])([H])[H])(C([H])([H])[H])C(=O)N3[H])c1F
     RDKit          3D

 76 80  0  0  0  0  0  0  0  0999 V2000
   -1.4535   -0.8730    3.0975 C   0  0  0  0  0  0  0  0  0  0  0  0
   -2.3159   -1.0097    1.9846 O   0  0  0  0  0  0  0  0  0  0  0  0
   -1.7543   -0.8393    0.7175 C   0  0  0  0  0  0  0  0  0  0  0  0
   -0.4446   -0.5535    0.5120 C   0  0  0  0  0  0  0  0  0  0  0  0
    0.1543   -0.3759   -0.7550 C   0  0  0  0  0  0  0  0  0  0  0  0
    1.5106   -0.1096   -0.8597 N   0  0  0  0  0  0  0  0  0  0  0  0
    2.1941    0.4520   -1.9458 C   0  0  0  0  0  0  0  0  0  0  0  0
    1.6488    0.8560   -3.1016 N   0  0  0  0  0  0  0  0  0  0  0  0
    2.3449    1.3837   -4.1086 C   0  0  0  0  0  0  0  0  0  0  0  0
    3.6932    1.5500   -4.0224 C   0  0  0  0  0  0  0  0  0  0  0  0
    4.4377    2.0797   -5.0163 F   0  0  0  0  0  0  0  0  0  0  0  0
    4.3283    1.1439   -2.8293 C   0  0  0  0  0  0  0  0  0  0  0  0
    5.7061    1.3167   -2.7611 N   0  0  0  0  0  0  0  0  0  0  0  0
    6.5536    0.9961   -1.6817 C   0  0  0  0  0  0  0  0  0  0  0  0
    6.1635    0.4633   -0.4879 C   0  0  0  0  0  0  0  0  0  0  0  0
    7.1219    0.1948    0.4916 C   0  0  0  0  0  0  0  0  0  0  0  0
    8.4560    0.4515    0.2910 C   0  0  0  0  0  0  0  0  0  0  0  0
    9.3765    0.1731    1.2831 O   0  0  0  0  0  0  0  0  0  0  0  0
   10.6974    0.6736    1.2700 C   0  0  0  0  0  0  0  0  0  0  0  0
   11.5796   -0.3856    1.9300 C   0  0  0  0  0  0  0  0  0  0  0  0
   10.7251    1.9383    2.1154 C   0  0  0  0  0  0  0  0  0  0  0  0
   11.1879    0.9605   -0.1068 C   0  0  0  0  0  0  0  0  0  0  0  0
   12.4305    0.9527   -0.3713 O   0  0  0  0  0  0  0  0  0  0  0  0
   10.2169    1.2411   -1.1058 N   0  0  0  0  0  0  0  0  0  0  0  0
    8.8378    0.9933   -0.9286 C   0  0  0  0  0  0  0  0  0  0  0  0
    7.9016    1.2317   -1.8257 N   0  0  0  0  0  0  0  0  0  0  0  0
    3.5498    0.6311   -1.8873 N   0  0  0  0  0  0  0  0  0  0  0  0
   -0.6937   -0.5137   -1.8169 C   0  0  0  0  0  0  0  0  0  0  0  0
   -2.0527   -0.8083   -1.6395 C   0  0  0  0  0  0  0  0  0  0  0  0
   -2.5819   -0.9700   -0.3951 C   0  0  0  0  0  0  0  0  0  0  0  0
   -3.9290   -1.2638   -0.1778 O   0  0  0  0  0  0  0  0  0  0  0  0
   -4.8398   -1.4137   -1.2503 C   0  0  0  0  0  0  0  0  0  0  0  0
   -6.2164   -1.7283   -0.7086 C   0  0  0  0  0  0  0  0  0  0  0  0
   -6.7176   -0.6334    0.1907 C   0  0  0  0  0  0  0  0  0  0  0  0
   -8.0106   -0.8736    0.7303 N   0  0  0  0  0  0  0  0  0  0  0  0
   -9.0818   -0.8534   -0.1887 C   0  0  0  0  0  0  0  0  0  0  0  0
  -10.3249   -1.3936    0.4730 C   0  0  0  0  0  0  0  0  0  0  0  0
  -10.6740   -0.4993    1.5460 N   0  0  0  0  0  0  0  0  0  0  0  0
  -11.3448    0.6860    1.0712 C   0  0  0  0  0  0  0  0  0  0  0  0
   -9.6456   -0.2623    2.4852 C   0  0  0  0  0  0  0  0  0  0  0  0
   -8.2455   -0.3572    2.0256 C   0  0  0  0  0  0  0  0  0  0  0  0
   -2.0049   -1.2187    4.0213 H   0  0  0  0  0  0  0  0  0  0  0  0
   -1.3285    0.2313    3.2630 H   0  0  0  0  0  0  0  0  0  0  0  0
   -0.5014   -1.4055    2.9930 H   0  0  0  0  0  0  0  0  0  0  0  0
    0.2214   -0.4455    1.3563 H   0  0  0  0  0  0  0  0  0  0  0  0
    2.1125   -0.3621   -0.0132 H   0  0  0  0  0  0  0  0  0  0  0  0
    1.8362    1.6921   -5.0237 H   0  0  0  0  0  0  0  0  0  0  0  0
    6.2051    1.7372   -3.6058 H   0  0  0  0  0  0  0  0  0  0  0  0
    5.1204    0.2369   -0.2649 H   0  0  0  0  0  0  0  0  0  0  0  0
    6.7680   -0.2342    1.4402 H   0  0  0  0  0  0  0  0  0  0  0  0
   12.3598    0.1888    2.5062 H   0  0  0  0  0  0  0  0  0  0  0  0
   12.1044   -0.9001    1.1182 H   0  0  0  0  0  0  0  0  0  0  0  0
   10.9718   -1.0270    2.5776 H   0  0  0  0  0  0  0  0  0  0  0  0
   11.7807    2.1937    2.2838 H   0  0  0  0  0  0  0  0  0  0  0  0
   10.1902    1.6986    3.0539 H   0  0  0  0  0  0  0  0  0  0  0  0
   10.1549    2.7179    1.5857 H   0  0  0  0  0  0  0  0  0  0  0  0
   10.5308    1.6497   -2.0169 H   0  0  0  0  0  0  0  0  0  0  0  0
   -0.3330   -0.4142   -2.8504 H   0  0  0  0  0  0  0  0  0  0  0  0
   -2.6621   -0.9024   -2.5085 H   0  0  0  0  0  0  0  0  0  0  0  0
   -4.4728   -2.2155   -1.9075 H   0  0  0  0  0  0  0  0  0  0  0  0
   -4.8070   -0.4777   -1.8397 H   0  0  0  0  0  0  0  0  0  0  0  0
   -6.1783   -2.6955   -0.2140 H   0  0  0  0  0  0  0  0  0  0  0  0
   -6.8774   -1.8409   -1.6039 H   0  0  0  0  0  0  0  0  0  0  0  0
   -6.6982    0.3588   -0.2912 H   0  0  0  0  0  0  0  0  0  0  0  0
   -5.9988   -0.5705    1.0501 H   0  0  0  0  0  0  0  0  0  0  0  0
   -8.8063   -1.4326   -1.0896 H   0  0  0  0  0  0  0  0  0  0  0  0
   -9.2790    0.1850   -0.5032 H   0  0  0  0  0  0  0  0  0  0  0  0
  -10.1484   -2.4191    0.7976 H   0  0  0  0  0  0  0  0  0  0  0  0
  -11.1375   -1.3404   -0.2827 H   0  0  0  0  0  0  0  0  0  0  0  0
  -10.5900    1.4645    0.8761 H   0  0  0  0  0  0  0  0  0  0  0  0
  -11.8966    0.3908    0.1369 H   0  0  0  0  0  0  0  0  0  0  0  0
  -12.1030    1.0204    1.7824 H   0  0  0  0  0  0  0  0  0  0  0  0
   -9.8007    0.7823    2.8915 H   0  0  0  0  0  0  0  0  0  0  0  0
   -9.8394   -0.9115    3.3910 H   0  0  0  0  0  0  0  0  0  0  0  0
   -7.6984    0.6286    2.1001 H   0  0  0  0  0  0  0  0  0  0  0  0
   -7.6845   -1.0146    2.7541 H   0  0  0  0  0  0  0  0  0  0  0  0
  1  2  1  0
  2  3  1  0
  3  4  2  0
  4  5  1  0
  5  6  1  0
  6  7  1  0
  7  8  2  0
  8  9  1  0
  9 10  2  0
 10 11  1  0
 10 12  1  0
 12 13  1  0
 13 14  1  0
 14 15  2  0
 15 16  1  0
 16 17  2  0
 17 18  1  0
 18 19  1  0
 19 20  1  0
 19 21  1  0
 19 22  1  0
 22 23  2  0
 22 24  1  0
 24 25  1  0
 25 26  2  0
 12 27  2  0
  5 28  2  0
 28 29  1  0
 29 30  2  0
 30 31  1  0
 31 32  1  0
 32 33  1  0
 33 34  1  0
 34 35  1  0
 35 36  1  0
 36 37  1  0
 37 38  1  0
 38 39  1  0
 38 40  1  0
 40 41  1  0
 30  3  1  0
 41 35  1  0
 27  7  1  0
 26 14  1  0
 25 17  1  0
  1 42  1  0
  1 43  1  0
  1 44  1  0
  4 45  1  0
  6 46  1  0
  9 47  1  0
 13 48  1  0
 15 49  1  0
 16 50  1  0
 20 51  1  0
 20 52  1  0
 20 53  1  0
 21 54  1  0
 21 55  1  0
 21 56  1  0
 24 57  1  0
 28 58  1  0
 29 59  1  0
 32 60  1  0
 32 61  1  0
 33 62  1  0
 33 63  1  0
 34 64  1  0
 34 65  1  0
 36 66  1  0
 36 67  1  0
 37 68  1  0
 37 69  1  0
 39 70  1  0
 39 71  1  0
 39 72  1  0
 40 73  1  0
 40 74  1  0
 41 75  1  0
 41 76  1  0
M  END
$$$$
[H]C1=C([H])C([H])(F)C([H])([H])C([H])=C1N([H])C(=O)C1(C(=O)N([H])c2c([H])c([H])c(Oc3c([H])c([H])nc4c([H])c(OC([H])([H])C([H])([H])C([H])([H])N5C([H])([H])C([H])([H])OC([H])([H])C5([H])[H])c(OC([H])([H])[H])c([H])c34)c(F)c2[H])C([H])([H])C1([H])[H]
     RDKit          3D

 82 87  0  0  0  0  0  0  0  0999 V2000
    3.9666    3.0495   -1.7322 C   0  0  0  0  0  0  0  0  0  0  0  0
    4.8184    1.9472   -1.5191 O   0  0  0  0  0  0  0  0  0  0  0  0
    4.2779    0.7150   -1.2054 C   0  0  0  0  0  0  0  0  0  0  0  0
    2.9355    0.4830   -1.0834 C   0  0  0  0  0  0  0  0  0  0  0  0
    2.5057   -0.7878   -0.7673 C   0  0  0  0  0  0  0  0  0  0  0  0
    1.1302   -1.0757   -0.6337 C   0  0  0  0  0  0  0  0  0  0  0  0
    0.2693   -0.0306   -0.8259 O   0  0  0  0  0  0  0  0  0  0  0  0
   -1.0898   -0.1642   -0.6451 C   0  0  0  0  0  0  0  0  0  0  0  0
   -1.9847   -0.0120   -1.6950 C   0  0  0  0  0  0  0  0  0  0  0  0
   -3.3381   -0.1282   -1.5809 C   0  0  0  0  0  0  0  0  0  0  0  0
   -3.8905   -0.4214   -0.3289 C   0  0  0  0  0  0  0  0  0  0  0  0
   -5.3238   -0.4986   -0.2135 N   0  0  0  0  0  0  0  0  0  0  0  0
   -5.9613   -1.3830    0.6262 C   0  0  0  0  0  0  0  0  0  0  0  0
   -5.1921   -2.1849    1.2964 O   0  0  0  0  0  0  0  0  0  0  0  0
   -7.4011   -1.5958    0.9101 C   0  0  0  0  0  0  0  0  0  0  0  0
   -7.6820   -2.4618    2.1265 C   0  0  0  0  0  0  0  0  0  0  0  0
   -7.8126   -3.1190    0.8294 C   0  0  0  0  0  0  0  0  0  0  0  0
   -8.4706   -0.6963    0.4763 C   0  0  0  0  0  0  0  0  0  0  0  0
   -9.6747   -1.1656    0.7176 O   0  0  0  0  0  0  0  0  0  0  0  0
   -8.4814    0.5528   -0.1324 N   0  0  0  0  0  0  0  0  0  0  0  0
   -9.7446    1.2195   -0.4499 C   0  0  0  0  0  0  0  0  0  0  0  0
   -9.9496    2.4040    0.0799 C   0  0  0  0  0  0  0  0  0  0  0  0
  -11.1350    3.2347   -0.1097 C   0  0  0  0  0  0  0  0  0  0  0  0
  -12.2008    2.6387   -0.9439 C   0  0  0  0  0  0  0  0  0  0  0  0
  -12.4721    3.4850   -2.0494 F   0  0  0  0  0  0  0  0  0  0  0  0
  -11.8730    1.3187   -1.4859 C   0  0  0  0  0  0  0  0  0  0  0  0
  -10.7586    0.6480   -1.2759 C   0  0  0  0  0  0  0  0  0  0  0  0
   -3.0432   -0.5784    0.7341 C   0  0  0  0  0  0  0  0  0  0  0  0
   -1.6522   -0.4525    0.5863 C   0  0  0  0  0  0  0  0  0  0  0  0
   -0.8827   -0.5957    1.6903 F   0  0  0  0  0  0  0  0  0  0  0  0
    0.7223   -2.3515   -0.3227 C   0  0  0  0  0  0  0  0  0  0  0  0
    1.6378   -3.3635   -0.1352 C   0  0  0  0  0  0  0  0  0  0  0  0
    2.9451   -3.0865   -0.2619 N   0  0  0  0  0  0  0  0  0  0  0  0
    3.3732   -1.8309   -0.5703 C   0  0  0  0  0  0  0  0  0  0  0  0
    4.7330   -1.5901   -0.6954 C   0  0  0  0  0  0  0  0  0  0  0  0
    5.1920   -0.3333   -1.0085 C   0  0  0  0  0  0  0  0  0  0  0  0
    6.5206   -0.0853   -1.1253 O   0  0  0  0  0  0  0  0  0  0  0  0
    7.5310   -0.9938   -0.8772 C   0  0  0  0  0  0  0  0  0  0  0  0
    7.6262   -1.3701    0.5948 C   0  0  0  0  0  0  0  0  0  0  0  0
    7.9359   -0.0985    1.3961 C   0  0  0  0  0  0  0  0  0  0  0  0
    9.1945    0.4265    0.9288 N   0  0  0  0  0  0  0  0  0  0  0  0
    9.4053    1.7864    1.4776 C   0  0  0  0  0  0  0  0  0  0  0  0
   10.8161    2.1639    1.0165 C   0  0  0  0  0  0  0  0  0  0  0  0
   11.2632    1.3549   -0.0281 O   0  0  0  0  0  0  0  0  0  0  0  0
   11.4615    0.0232    0.3872 C   0  0  0  0  0  0  0  0  0  0  0  0
   10.3466   -0.3576    1.3702 C   0  0  0  0  0  0  0  0  0  0  0  0
    4.5770    3.9509   -1.9692 H   0  0  0  0  0  0  0  0  0  0  0  0
    3.3066    3.2216   -0.8582 H   0  0  0  0  0  0  0  0  0  0  0  0
    3.3086    2.7911   -2.5987 H   0  0  0  0  0  0  0  0  0  0  0  0
    2.2243    1.2761   -1.2311 H   0  0  0  0  0  0  0  0  0  0  0  0
   -1.5528    0.2161   -2.6750 H   0  0  0  0  0  0  0  0  0  0  0  0
   -4.0246   -0.0039   -2.4200 H   0  0  0  0  0  0  0  0  0  0  0  0
   -5.8260    0.1518   -0.8369 H   0  0  0  0  0  0  0  0  0  0  0  0
   -6.8106   -2.7138    2.7607 H   0  0  0  0  0  0  0  0  0  0  0  0
   -8.5985   -2.2800    2.7131 H   0  0  0  0  0  0  0  0  0  0  0  0
   -7.0275   -3.7752    0.4011 H   0  0  0  0  0  0  0  0  0  0  0  0
   -8.7992   -3.3162    0.3639 H   0  0  0  0  0  0  0  0  0  0  0  0
   -7.6334    1.0911   -0.3743 H   0  0  0  0  0  0  0  0  0  0  0  0
   -9.1652    2.8388    0.7401 H   0  0  0  0  0  0  0  0  0  0  0  0
  -11.5358    3.5321    0.9159 H   0  0  0  0  0  0  0  0  0  0  0  0
  -10.8538    4.2484   -0.5572 H   0  0  0  0  0  0  0  0  0  0  0  0
  -13.1586    2.5647   -0.3407 H   0  0  0  0  0  0  0  0  0  0  0  0
  -12.6648    0.8691   -2.1323 H   0  0  0  0  0  0  0  0  0  0  0  0
  -10.6018   -0.3227   -1.7168 H   0  0  0  0  0  0  0  0  0  0  0  0
   -3.4037   -0.7893    1.7394 H   0  0  0  0  0  0  0  0  0  0  0  0
   -0.3200   -2.5956   -0.2356 H   0  0  0  0  0  0  0  0  0  0  0  0
    1.2680   -4.3480    0.1079 H   0  0  0  0  0  0  0  0  0  0  0  0
    5.3620   -2.4538   -0.5623 H   0  0  0  0  0  0  0  0  0  0  0  0
    7.4424   -1.9223   -1.5038 H   0  0  0  0  0  0  0  0  0  0  0  0
    8.4920   -0.5348   -1.2249 H   0  0  0  0  0  0  0  0  0  0  0  0
    6.7751   -1.8921    1.0071 H   0  0  0  0  0  0  0  0  0  0  0  0
    8.4922   -2.0400    0.6815 H   0  0  0  0  0  0  0  0  0  0  0  0
    7.1233    0.6400    1.3255 H   0  0  0  0  0  0  0  0  0  0  0  0
    8.0487   -0.4301    2.4644 H   0  0  0  0  0  0  0  0  0  0  0  0
    9.4079    1.7624    2.5778 H   0  0  0  0  0  0  0  0  0  0  0  0
    8.6320    2.4413    1.0296 H   0  0  0  0  0  0  0  0  0  0  0  0
   11.5508    2.0414    1.8480 H   0  0  0  0  0  0  0  0  0  0  0  0
   10.8264    3.2054    0.6080 H   0  0  0  0  0  0  0  0  0  0  0  0
   11.3001   -0.6008   -0.5146 H   0  0  0  0  0  0  0  0  0  0  0  0
   12.4569   -0.1361    0.8078 H   0  0  0  0  0  0  0  0  0  0  0  0
   10.1090   -1.3943    1.4038 H   0  0  0  0  0  0  0  0  0  0  0  0
   10.6797    0.0679    2.3647 H   0  0  0  0  0  0  0  0  0  0  0  0
  1  2  1  0
  2  3  1  0
  3  4  2  0
  4  5  1  0
  5  6  2  0
  6  7  1  0
  7  8  1  0
  8  9  2  0
  9 10  1  0
 10 11  2  0
 11 12  1  0
 12 13  1  0
 13 14  2  0
 13 15  1  0
 15 16  1  0
 16 17  1  0
 15 18  1  0
 18 19  2  0
 18 20  1  0
 20 21  1  0
 21 22  2  0
 22 23  1  0
 23 24  1  0
 24 25  1  0
 24 26  1  0
 26 27  2  0
 11 28  1  0
 28 29  2  0
 29 30  1  0
  6 31  1  0
 31 32  2  0
 32 33  1  0
 33 34  2  0
 34 35  1  0
 35 36  2  0
 36 37  1  0
 37 38  1  0
 38 39  1  0
 39 40  1  0
 40 41  1  0
 41 42  1  0
 42 43  1  0
 43 44  1  0
 44 45  1  0
 45 46  1  0
 36  3  1  0
 46 41  1  0
 34  5  1  0
 29  8  1  0
 17 15  1  0
 27 21  1  0
  1 47  1  0
  1 48  1  0
  1 49  1  0
  4 50  1  0
  9 51  1  0
 10 52  1  0
 12 53  1  0
 16 54  1  0
 16 55  1  0
 17 56  1  0
 17 57  1  0
 20 58  1  0
 22 59  1  0
 23 60  1  0
 23 61  1  0
 24 62  1  0
 26 63  1  0
 27 64  1  0
 28 65  1  0
 31 66  1  0
 32 67  1  0
 35 68  1  0
 38 69  1  0
 38 70  1  0
 39 71  1  0
 39 72  1  0
 40 73  1  0
 40 74  1  0
 42 75  1  0
 42 76  1  0
 43 77  1  0
 43 78  1  0
 45 79  1  0
 45 80  1  0
 46 81  1  0
 46 82  1  0
M  END
$$$$
[H]c1c([H])c(N([H])C(=O)N2C([H])([H])C([H])([H])N(c3c([H])c([H])c([N+](=O)[O-])c([H])c3[H])C([H])([H])C2([H])[H])c([H])c([H])c1C(=O)N1C([H])([H])C([H])([H])OC([H])([H])C1([H])[H]
     RDKit          3D

 57 60  0  0  0  0  0  0  0  0999 V2000
   -9.6924   -2.7324   -1.2253 O   0  0  0  0  0  0  0  0  0  0  0  0
   -8.9684   -2.7538   -0.0780 N   0  0  0  0  0  0  0  0  0  0  0  0
   -9.2350   -3.5997    0.7914 O   0  0  0  0  0  0  0  0  0  0  0  0
   -7.9171   -1.8012    0.0994 C   0  0  0  0  0  0  0  0  0  0  0  0
   -7.6242   -0.8619   -0.8681 C   0  0  0  0  0  0  0  0  0  0  0  0
   -6.6145    0.0593   -0.7065 C   0  0  0  0  0  0  0  0  0  0  0  0
   -5.8294    0.0904    0.4536 C   0  0  0  0  0  0  0  0  0  0  0  0
   -6.1246   -0.8442    1.4106 C   0  0  0  0  0  0  0  0  0  0  0  0
   -7.1525   -1.7810    1.2444 C   0  0  0  0  0  0  0  0  0  0  0  0
   -4.7954    1.0551    0.5826 N   0  0  0  0  0  0  0  0  0  0  0  0
   -4.5154    1.9655   -0.5224 C   0  0  0  0  0  0  0  0  0  0  0  0
   -3.2071    2.6929   -0.2979 C   0  0  0  0  0  0  0  0  0  0  0  0
   -2.1832    1.8193    0.2442 N   0  0  0  0  0  0  0  0  0  0  0  0
   -2.5525    0.9582    1.3501 C   0  0  0  0  0  0  0  0  0  0  0  0
   -3.9886    1.1949    1.7692 C   0  0  0  0  0  0  0  0  0  0  0  0
   -0.8588    1.7838   -0.2652 C   0  0  0  0  0  0  0  0  0  0  0  0
   -0.6004    2.5394   -1.2092 O   0  0  0  0  0  0  0  0  0  0  0  0
    0.0811    0.9197    0.3022 N   0  0  0  0  0  0  0  0  0  0  0  0
    1.4245    0.7191   -0.0339 C   0  0  0  0  0  0  0  0  0  0  0  0
    2.0777    1.3377   -1.0643 C   0  0  0  0  0  0  0  0  0  0  0  0
    3.3957    1.0944   -1.3321 C   0  0  0  0  0  0  0  0  0  0  0  0
    4.1904    0.1968   -0.5814 C   0  0  0  0  0  0  0  0  0  0  0  0
    3.5063   -0.4070    0.4440 C   0  0  0  0  0  0  0  0  0  0  0  0
    2.1574   -0.1649    0.7263 C   0  0  0  0  0  0  0  0  0  0  0  0
    5.5516    0.0189   -0.9577 C   0  0  0  0  0  0  0  0  0  0  0  0
    5.9403    0.6893   -2.0000 O   0  0  0  0  0  0  0  0  0  0  0  0
    6.5347   -0.7671   -0.3768 N   0  0  0  0  0  0  0  0  0  0  0  0
    6.4767   -1.6264    0.7763 C   0  0  0  0  0  0  0  0  0  0  0  0
    7.8788   -2.1698    1.0499 C   0  0  0  0  0  0  0  0  0  0  0  0
    8.8267   -1.1825    1.1599 O   0  0  0  0  0  0  0  0  0  0  0  0
    8.8374   -0.3186    0.0856 C   0  0  0  0  0  0  0  0  0  0  0  0
    7.8976   -0.7698   -1.0094 C   0  0  0  0  0  0  0  0  0  0  0  0
   -8.2358   -0.8874   -1.7699 H   0  0  0  0  0  0  0  0  0  0  0  0
   -6.3752    0.7990   -1.4548 H   0  0  0  0  0  0  0  0  0  0  0  0
   -5.5733   -0.8980    2.3363 H   0  0  0  0  0  0  0  0  0  0  0  0
   -7.3443   -2.4938    2.0255 H   0  0  0  0  0  0  0  0  0  0  0  0
   -5.3347    2.6794   -0.6034 H   0  0  0  0  0  0  0  0  0  0  0  0
   -4.4130    1.3443   -1.4343 H   0  0  0  0  0  0  0  0  0  0  0  0
   -2.9137    3.1148   -1.2815 H   0  0  0  0  0  0  0  0  0  0  0  0
   -3.3734    3.5488    0.3762 H   0  0  0  0  0  0  0  0  0  0  0  0
   -1.8479    1.1578    2.1817 H   0  0  0  0  0  0  0  0  0  0  0  0
   -2.4276   -0.0900    0.9977 H   0  0  0  0  0  0  0  0  0  0  0  0
   -4.0576    2.2202    2.1977 H   0  0  0  0  0  0  0  0  0  0  0  0
   -4.2014    0.4862    2.5699 H   0  0  0  0  0  0  0  0  0  0  0  0
   -0.2896    0.3225    1.1167 H   0  0  0  0  0  0  0  0  0  0  0  0
    1.5658    2.0382   -1.6993 H   0  0  0  0  0  0  0  0  0  0  0  0
    3.8620    1.6147   -2.1619 H   0  0  0  0  0  0  0  0  0  0  0  0
    4.0241   -1.1116    1.0705 H   0  0  0  0  0  0  0  0  0  0  0  0
    1.7041   -0.6991    1.5687 H   0  0  0  0  0  0  0  0  0  0  0  0
    5.8043   -2.5002    0.6637 H   0  0  0  0  0  0  0  0  0  0  0  0
    6.2205   -1.0176    1.6840 H   0  0  0  0  0  0  0  0  0  0  0  0
    8.1348   -2.8449    0.2309 H   0  0  0  0  0  0  0  0  0  0  0  0
    7.7969   -2.7683    2.0088 H   0  0  0  0  0  0  0  0  0  0  0  0
    8.5531    0.7121    0.3795 H   0  0  0  0  0  0  0  0  0  0  0  0
    9.8565   -0.3350   -0.3546 H   0  0  0  0  0  0  0  0  0  0  0  0
    7.8345    0.0028   -1.8150 H   0  0  0  0  0  0  0  0  0  0  0  0
    8.1134   -1.7492   -1.4246 H   0  0  0  0  0  0  0  0  0  0  0  0
  1  2  1  0
  2  3  2  0
  2  4  1  0
  4  5  2  0
  5  6  1  0
  6  7  2  0
  7  8  1  0
  8  9  2  0
  7 10  1  0
 10 11  1  0
 11 12  1  0
 12 13  1  0
 13 14  1  0
 14 15  1  0
 13 16  1  0
 16 17  2  0
 16 18  1  0
 18 19  1  0
 19 20  2  0
 20 21  1  0
 21 22  2  0
 22 23  1  0
 23 24  2  0
 22 25  1  0
 25 26  2  0
 25 27  1  0
 27 28  1  0
 28 29  1  0
 29 30  1  0
 30 31  1  0
 31 32  1  0
  9  4  1  0
 15 10  1  0
 24 19  1  0
 32 27  1  0
  5 33  1  0
  6 34  1  0
  8 35  1  0
  9 36  1  0
 11 37  1  0
 11 38  1  0
 12 39  1  0
 12 40  1  0
 14 41  1  0
 14 42  1  0
 15 43  1  0
 15 44  1  0
 18 45  1  0
 20 46  1  0
 21 47  1  0
 23 48  1  0
 24 49  1  0
 28 50  1  0
 28 51  1  0
 29 52  1  0
 29 53  1  0
 31 54  1  0
 31 55  1  0
 32 56  1  0
 32 57  1  0
M  CHG  2   1  -1   2   1
M  END
$$$$
[H]OC(=O)[C@]1([H])C([H])([H])[C@@]2([H])N([C@@]([H])(c3nc(-c4c([H])c([H])c5c([H])c([H])c([H])c([H])c5c4[H])c([H])n3[H])C([H])([H])[H])[C@]([H])(C([H])([H])C2([H])[H])C1([H])[H]
     RDKit          3D

 53 57  0  0  0  0  0  0  0  0999 V2000
   -1.6910    0.1415   -3.0944 C   0  0  0  0  0  0  0  0  0  0  0  0
   -1.7450    0.6936   -1.6860 C   0  0  1  0  0  0  0  0  0  0  0  0
   -2.3286   -0.2632   -0.7698 N   0  0  0  0  0  0  0  0  0  0  0  0
   -2.5218    0.4118    0.5101 C   0  0  1  0  0  0  0  0  0  0  0  0
   -3.7361    1.2940    0.3218 C   0  0  0  0  0  0  0  0  0  0  0  0
   -4.4943    0.6895   -0.8281 C   0  0  0  0  0  0  0  0  0  0  0  0
   -3.7021   -0.5705   -1.1199 C   0  0  2  0  0  0  0  0  0  0  0  0
   -4.2071   -1.6900   -0.2810 C   0  0  0  0  0  0  0  0  0  0  0  0
   -3.7354   -1.7100    1.1352 C   0  0  1  0  0  0  0  0  0  0  0  0
   -2.7885   -0.6427    1.5360 C   0  0  0  0  0  0  0  0  0  0  0  0
   -4.8691   -1.7848    2.1057 C   0  0  0  0  0  0  0  0  0  0  0  0
   -5.7581   -2.8418    2.1113 O   0  0  0  0  0  0  0  0  0  0  0  0
   -4.9997   -0.8509    2.9308 O   0  0  0  0  0  0  0  0  0  0  0  0
   -0.3536    1.0018   -1.3001 C   0  0  0  0  0  0  0  0  0  0  0  0
    0.6230    0.1559   -0.9370 N   0  0  0  0  0  0  0  0  0  0  0  0
    1.7512    0.8278   -0.6622 C   0  0  0  0  0  0  0  0  0  0  0  0
    1.4556    2.1551   -0.8657 C   0  0  0  0  0  0  0  0  0  0  0  0
    0.1837    2.2294   -1.2484 N   0  0  0  0  0  0  0  0  0  0  0  0
    3.0432    0.2994   -0.2339 C   0  0  0  0  0  0  0  0  0  0  0  0
    3.2286   -1.0611   -0.0540 C   0  0  0  0  0  0  0  0  0  0  0  0
    4.4487   -1.5626    0.3490 C   0  0  0  0  0  0  0  0  0  0  0  0
    5.5371   -0.7488    0.5918 C   0  0  0  0  0  0  0  0  0  0  0  0
    6.7592   -1.2478    0.9939 C   0  0  0  0  0  0  0  0  0  0  0  0
    7.8492   -0.4406    1.2368 C   0  0  0  0  0  0  0  0  0  0  0  0
    7.6679    0.9245    1.0577 C   0  0  0  0  0  0  0  0  0  0  0  0
    6.4429    1.4211    0.6550 C   0  0  0  0  0  0  0  0  0  0  0  0
    5.3560    0.6084    0.4135 C   0  0  0  0  0  0  0  0  0  0  0  0
    4.1318    1.1058    0.0098 C   0  0  0  0  0  0  0  0  0  0  0  0
   -0.9209    0.7514   -3.6262 H   0  0  0  0  0  0  0  0  0  0  0  0
   -1.4558   -0.9196   -3.1482 H   0  0  0  0  0  0  0  0  0  0  0  0
   -2.6624    0.4002   -3.5951 H   0  0  0  0  0  0  0  0  0  0  0  0
   -2.3968    1.5816   -1.6979 H   0  0  0  0  0  0  0  0  0  0  0  0
   -1.6692    1.0217    0.8092 H   0  0  0  0  0  0  0  0  0  0  0  0
   -4.3364    1.4078    1.2440 H   0  0  0  0  0  0  0  0  0  0  0  0
   -3.4602    2.3303    0.0171 H   0  0  0  0  0  0  0  0  0  0  0  0
   -4.5598    1.3458   -1.7127 H   0  0  0  0  0  0  0  0  0  0  0  0
   -5.5214    0.3736   -0.5577 H   0  0  0  0  0  0  0  0  0  0  0  0
   -3.7609   -0.8538   -2.1874 H   0  0  0  0  0  0  0  0  0  0  0  0
   -4.0064   -2.6473   -0.8343 H   0  0  0  0  0  0  0  0  0  0  0  0
   -5.3346   -1.6178   -0.2781 H   0  0  0  0  0  0  0  0  0  0  0  0
   -3.1986   -2.6985    1.2676 H   0  0  0  0  0  0  0  0  0  0  0  0
   -1.7738   -1.0520    1.8215 H   0  0  0  0  0  0  0  0  0  0  0  0
   -3.1423   -0.1633    2.4967 H   0  0  0  0  0  0  0  0  0  0  0  0
   -6.7585   -2.6281    2.1289 H   0  0  0  0  0  0  0  0  0  0  0  0
    2.1733    2.9782   -0.7254 H   0  0  0  0  0  0  0  0  0  0  0  0
   -0.3008    3.1496   -1.4723 H   0  0  0  0  0  0  0  0  0  0  0  0
    2.3875   -1.7101   -0.2396 H   0  0  0  0  0  0  0  0  0  0  0  0
    4.6062   -2.6398    0.4949 H   0  0  0  0  0  0  0  0  0  0  0  0
    6.8936   -2.3223    1.1326 H   0  0  0  0  0  0  0  0  0  0  0  0
    8.8090   -0.8271    1.5520 H   0  0  0  0  0  0  0  0  0  0  0  0
    8.5304    1.5466    1.2514 H   0  0  0  0  0  0  0  0  0  0  0  0
    6.3053    2.4825    0.5170 H   0  0  0  0  0  0  0  0  0  0  0  0
    4.0058    2.1654   -0.1251 H   0  0  0  0  0  0  0  0  0  0  0  0
  1  2  1  0
  2  3  1  0
  3  4  1  0
  4  5  1  0
  5  6  1  0
  6  7  1  0
  7  8  1  0
  8  9  1  0
  9 10  1  0
  9 11  1  0
 11 12  1  0
 11 13  2  0
  2 14  1  0
 14 15  2  0
 15 16  1  0
 16 17  2  0
 17 18  1  0
 16 19  1  0
 19 20  2  0
 20 21  1  0
 21 22  2  0
 22 23  1  0
 23 24  2  0
 24 25  1  0
 25 26  2  0
 26 27  1  0
 27 28  2  0
  7  3  1  0
 18 14  1  0
 28 19  1  0
 10  4  1  0
 27 22  1  0
  1 29  1  0
  1 30  1  0
  1 31  1  0
  2 32  1  6
  4 33  1  1
  5 34  1  0
  5 35  1  0
  6 36  1  0
  6 37  1  0
  7 38  1  6
  8 39  1  0
  8 40  1  0
  9 41  1  6
 10 42  1  0
 10 43  1  0
 12 44  1  0
 17 45  1  0
 18 46  1  0
 20 47  1  0
 21 48  1  0
 23 49  1  0
 24 50  1  0
 25 51  1  0
 26 52  1  0
 28 53  1  0
M  END
$$$$
[H]c1nc2c([H])c(C(=O)N([H])C([H])([H])C([H])([H])C([H])([H])N3C([H])([H])C([H])([H])OC([H])([H])C3([H])[H])sc2c(Oc2c([H])c([H])c(N([H])C(=O)N([H])c3c([H])c(C([H])([H])[H])c([H])c([H])c3F)c([H])c2[H])c1[H]
     RDKit          3D

 70 74  0  0  0  0  0  0  0  0999 V2000
   11.5253    0.5612    1.5486 C   0  0  0  0  0  0  0  0  0  0  0  0
   10.7778    1.5450    0.7233 C   0  0  0  0  0  0  0  0  0  0  0  0
   11.3421    2.6858    0.2145 C   0  0  0  0  0  0  0  0  0  0  0  0
   10.5980    3.5436   -0.5353 C   0  0  0  0  0  0  0  0  0  0  0  0
    9.2916    3.2915   -0.7944 C   0  0  0  0  0  0  0  0  0  0  0  0
    8.6165    4.1887   -1.5470 F   0  0  0  0  0  0  0  0  0  0  0  0
    8.6866    2.1344   -0.2887 C   0  0  0  0  0  0  0  0  0  0  0  0
    7.3235    1.9659   -0.6197 N   0  0  0  0  0  0  0  0  0  0  0  0
    6.4665    0.9086   -0.2424 C   0  0  0  0  0  0  0  0  0  0  0  0
    6.8577   -0.0311    0.4626 O   0  0  0  0  0  0  0  0  0  0  0  0
    5.1200    0.9100   -0.6751 N   0  0  0  0  0  0  0  0  0  0  0  0
    4.1292   -0.0288   -0.4016 C   0  0  0  0  0  0  0  0  0  0  0  0
    3.0464   -0.1251   -1.3009 C   0  0  0  0  0  0  0  0  0  0  0  0
    2.0302   -0.9922   -1.1028 C   0  0  0  0  0  0  0  0  0  0  0  0
    2.0449   -1.8301    0.0357 C   0  0  0  0  0  0  0  0  0  0  0  0
    1.0799   -2.6598    0.2319 O   0  0  0  0  0  0  0  0  0  0  0  0
    0.1010   -3.4548    0.4485 C   0  0  0  0  0  0  0  0  0  0  0  0
    0.2107   -4.6917    1.1262 C   0  0  0  0  0  0  0  0  0  0  0  0
   -0.9292   -5.4153    1.2722 C   0  0  0  0  0  0  0  0  0  0  0  0
   -2.1155   -5.0297    0.8214 N   0  0  0  0  0  0  0  0  0  0  0  0
   -2.2922   -3.8405    0.1551 C   0  0  0  0  0  0  0  0  0  0  0  0
   -3.4663   -3.3662   -0.3388 C   0  0  0  0  0  0  0  0  0  0  0  0
   -3.4299   -2.1581   -0.9696 C   0  0  0  0  0  0  0  0  0  0  0  0
   -1.7895   -1.7152   -0.8639 S   0  0  0  0  0  0  0  0  0  0  0  0
   -1.1910   -3.0750   -0.0214 C   0  0  0  0  0  0  0  0  0  0  0  0
   -4.5655   -1.4305   -1.5878 C   0  0  0  0  0  0  0  0  0  0  0  0
   -4.2945   -0.3383   -2.1111 O   0  0  0  0  0  0  0  0  0  0  0  0
   -5.8564   -1.9606   -1.5709 N   0  0  0  0  0  0  0  0  0  0  0  0
   -6.9639   -1.2824   -2.1513 C   0  0  0  0  0  0  0  0  0  0  0  0
   -7.2754    0.0693   -1.5521 C   0  0  0  0  0  0  0  0  0  0  0  0
   -7.5736   -0.1492   -0.0876 C   0  0  0  0  0  0  0  0  0  0  0  0
   -7.8860    1.0680    0.6080 N   0  0  0  0  0  0  0  0  0  0  0  0
   -9.1141    1.6704    0.2322 C   0  0  0  0  0  0  0  0  0  0  0  0
   -9.1005    3.1340    0.6677 C   0  0  0  0  0  0  0  0  0  0  0  0
   -8.1363    3.7535   -0.1354 O   0  0  0  0  0  0  0  0  0  0  0  0
   -6.8739    3.2514    0.0395 C   0  0  0  0  0  0  0  0  0  0  0  0
   -6.7705    1.9547    0.7550 C   0  0  0  0  0  0  0  0  0  0  0  0
    3.1294   -1.7182    0.9162 C   0  0  0  0  0  0  0  0  0  0  0  0
    4.1415   -0.8368    0.6955 C   0  0  0  0  0  0  0  0  0  0  0  0
    9.4317    1.2674    0.4670 C   0  0  0  0  0  0  0  0  0  0  0  0
   11.8534   -0.2941    0.9249 H   0  0  0  0  0  0  0  0  0  0  0  0
   10.8432    0.1676    2.3410 H   0  0  0  0  0  0  0  0  0  0  0  0
   12.3634    1.0768    2.0176 H   0  0  0  0  0  0  0  0  0  0  0  0
   12.3886    2.8696    0.4331 H   0  0  0  0  0  0  0  0  0  0  0  0
   11.0730    4.4317   -0.9204 H   0  0  0  0  0  0  0  0  0  0  0  0
    6.8775    2.7186   -1.2249 H   0  0  0  0  0  0  0  0  0  0  0  0
    4.8379    1.7352   -1.2808 H   0  0  0  0  0  0  0  0  0  0  0  0
    3.0392    0.5285   -2.1845 H   0  0  0  0  0  0  0  0  0  0  0  0
    1.1907   -1.0649   -1.8044 H   0  0  0  0  0  0  0  0  0  0  0  0
    1.1514   -5.0103    1.4904 H   0  0  0  0  0  0  0  0  0  0  0  0
   -0.8949   -6.3978    1.7997 H   0  0  0  0  0  0  0  0  0  0  0  0
   -4.4426   -3.9034   -0.2580 H   0  0  0  0  0  0  0  0  0  0  0  0
   -6.0150   -2.8929   -1.1136 H   0  0  0  0  0  0  0  0  0  0  0  0
   -6.8814   -1.1714   -3.2576 H   0  0  0  0  0  0  0  0  0  0  0  0
   -7.8946   -1.9107   -2.0196 H   0  0  0  0  0  0  0  0  0  0  0  0
   -6.4074    0.7166   -1.6499 H   0  0  0  0  0  0  0  0  0  0  0  0
   -8.1668    0.4380   -2.1063 H   0  0  0  0  0  0  0  0  0  0  0  0
   -8.3816   -0.8920    0.0706 H   0  0  0  0  0  0  0  0  0  0  0  0
   -6.6608   -0.5778    0.3735 H   0  0  0  0  0  0  0  0  0  0  0  0
   -9.3183    1.6746   -0.8549 H   0  0  0  0  0  0  0  0  0  0  0  0
   -9.9676    1.1974    0.7558 H   0  0  0  0  0  0  0  0  0  0  0  0
  -10.0735    3.5924    0.3760 H   0  0  0  0  0  0  0  0  0  0  0  0
   -8.8921    3.2473    1.7394 H   0  0  0  0  0  0  0  0  0  0  0  0
   -6.3054    4.0126    0.6515 H   0  0  0  0  0  0  0  0  0  0  0  0
   -6.2946    3.2074   -0.9287 H   0  0  0  0  0  0  0  0  0  0  0  0
   -5.8458    1.4127    0.3968 H   0  0  0  0  0  0  0  0  0  0  0  0
   -6.5954    2.1135    1.8406 H   0  0  0  0  0  0  0  0  0  0  0  0
    3.1253   -2.3765    1.7964 H   0  0  0  0  0  0  0  0  0  0  0  0
    4.9636   -0.7905    1.4492 H   0  0  0  0  0  0  0  0  0  0  0  0
    9.0044    0.3681    0.8731 H   0  0  0  0  0  0  0  0  0  0  0  0
  1  2  1  0
  2  3  2  0
  3  4  1  0
  4  5  2  0
  5  6  1  0
  5  7  1  0
  7  8  1  0
  8  9  1  0
  9 10  2  0
  9 11  1  0
 11 12  1  0
 12 13  2  0
 13 14  1  0
 14 15  2  0
 15 16  1  0
 16 17  1  0
 17 18  2  0
 18 19  1  0
 19 20  2  0
 20 21  1  0
 21 22  1  0
 22 23  2  0
 23 24  1  0
 24 25  1  0
 23 26  1  0
 26 27  2  0
 26 28  1  0
 28 29  1  0
 29 30  1  0
 30 31  1  0
 31 32  1  0
 32 33  1  0
 33 34  1  0
 34 35  1  0
 35 36  1  0
 36 37  1  0
 15 38  1  0
 38 39  2  0
  7 40  2  0
 40  2  1  0
 39 12  1  0
 25 17  1  0
 37 32  1  0
 25 21  2  0
  1 41  1  0
  1 42  1  0
  1 43  1  0
  3 44  1  0
  4 45  1  0
  8 46  1  0
 11 47  1  0
 13 48  1  0
 14 49  1  0
 18 50  1  0
 19 51  1  0
 22 52  1  0
 28 53  1  0
 29 54  1  0
 29 55  1  0
 30 56  1  0
 30 57  1  0
 31 58  1  0
 31 59  1  0
 33 60  1  0
 33 61  1  0
 34 62  1  0
 34 63  1  0
 36 64  1  0
 36 65  1  0
 37 66  1  0
 37 67  1  0
 38 68  1  0
 39 69  1  0
 40 70  1  0
M  END
$$$$
[H]OC(=O)C([H])([H])C([H])([H])[C@@]([H])(C(=O)N([H])[C@]([H])(C(=O)O[H])C([H])([H])c1c([H])c([H])c([H])c([H])c1[H])N([H])C(=O)[C@@]([H])(N([H])C(=O)[C@@]([H])(N([H])C(=O)[C@]([H])(O[H])[C@@]([H])(N([H])C(=O)[C@@]([H])(N([H])C(=O)c1c([H])c([H])c2c([H])c([H])c([H])c([H])c2c1[H])C([H])([H])C([H])(C([H])([H])[H])C([H])([H])[H])C([H])([H])c1c([H])c([H])c([H])c([H])c1[H])C([H])(C([H])([H])[H])C([H])([H])[H])C([H])(C([H])([H])[H])C([H])([H])[H]
     RDKit          3D

132135  0  0  0  0  0  0  0  0999 V2000
   -8.8518    5.0957   -1.1699 C   0  0  0  0  0  0  0  0  0  0  0  0
   -8.6966    3.5782   -1.2072 C   0  0  0  0  0  0  0  0  0  0  0  0
   -8.1474    3.2990   -2.6186 C   0  0  0  0  0  0  0  0  0  0  0  0
   -7.6958    3.1360   -0.1775 C   0  0  0  0  0  0  0  0  0  0  0  0
   -7.5408    1.6202   -0.1587 C   0  0  2  0  0  0  0  0  0  0  0  0
   -8.7224    0.9388    0.2225 N   0  0  0  0  0  0  0  0  0  0  0  0
   -9.8365    1.3070    0.9670 C   0  0  0  0  0  0  0  0  0  0  0  0
   -9.9564    2.4286    1.4913 O   0  0  0  0  0  0  0  0  0  0  0  0
  -10.9850    0.3954    1.2004 C   0  0  0  0  0  0  0  0  0  0  0  0
  -12.1947    0.8534    1.6218 C   0  0  0  0  0  0  0  0  0  0  0  0
  -13.2580    0.0234    1.8311 C   0  0  0  0  0  0  0  0  0  0  0  0
  -13.1599   -1.3238    1.6258 C   0  0  0  0  0  0  0  0  0  0  0  0
  -14.2430   -2.1833    1.8348 C   0  0  0  0  0  0  0  0  0  0  0  0
  -14.1103   -3.5295    1.6157 C   0  0  0  0  0  0  0  0  0  0  0  0
  -12.9111   -4.0447    1.1899 C   0  0  0  0  0  0  0  0  0  0  0  0
  -11.8359   -3.1833    0.9840 C   0  0  0  0  0  0  0  0  0  0  0  0
  -11.9454   -1.8215    1.1977 C   0  0  0  0  0  0  0  0  0  0  0  0
  -10.8699   -0.9659    0.9882 C   0  0  0  0  0  0  0  0  0  0  0  0
   -6.2910    1.2099    0.5030 C   0  0  0  0  0  0  0  0  0  0  0  0
   -6.3148    0.8940    1.7153 O   0  0  0  0  0  0  0  0  0  0  0  0
   -5.1143    1.1764   -0.2160 N   0  0  0  0  0  0  0  0  0  0  0  0
   -3.7719    0.8193    0.2184 C   0  0  1  0  0  0  0  0  0  0  0  0
   -3.6992   -0.6754   -0.0757 C   0  0  0  0  0  0  0  0  0  0  0  0
   -3.9500   -1.0358   -1.4643 C   0  0  0  0  0  0  0  0  0  0  0  0
   -3.0319   -1.0339   -2.4878 C   0  0  0  0  0  0  0  0  0  0  0  0
   -3.3647   -1.4101   -3.7795 C   0  0  0  0  0  0  0  0  0  0  0  0
   -4.6411   -1.8053   -4.0959 C   0  0  0  0  0  0  0  0  0  0  0  0
   -5.5905   -1.8204   -3.0964 C   0  0  0  0  0  0  0  0  0  0  0  0
   -5.2330   -1.4440   -1.8313 C   0  0  0  0  0  0  0  0  0  0  0  0
   -2.7104    1.6581   -0.3532 C   0  0  1  0  0  0  0  0  0  0  0  0
   -3.0434    3.0480   -0.0875 O   0  0  0  0  0  0  0  0  0  0  0  0
   -1.3459    1.4894    0.1557 C   0  0  0  0  0  0  0  0  0  0  0  0
   -0.8322    2.5121    0.7607 O   0  0  0  0  0  0  0  0  0  0  0  0
   -0.4878    0.3940    0.0961 N   0  0  0  0  0  0  0  0  0  0  0  0
    0.8567    0.3852    0.6555 C   0  0  1  0  0  0  0  0  0  0  0  0
    0.9552   -0.4443    1.8963 C   0  0  0  0  0  0  0  0  0  0  0  0
    0.6086   -1.8762    1.7717 C   0  0  0  0  0  0  0  0  0  0  0  0
    0.0788    0.1797    2.9597 C   0  0  0  0  0  0  0  0  0  0  0  0
    1.9180    0.0877   -0.3344 C   0  0  0  0  0  0  0  0  0  0  0  0
    1.6957   -0.1942   -1.5368 O   0  0  0  0  0  0  0  0  0  0  0  0
    3.2580    0.1191    0.0735 N   0  0  0  0  0  0  0  0  0  0  0  0
    4.4191   -0.1451   -0.7296 C   0  0  1  0  0  0  0  0  0  0  0  0
    5.1554    1.0921   -1.1692 C   0  0  0  0  0  0  0  0  0  0  0  0
    4.1838    1.9240   -1.9913 C   0  0  0  0  0  0  0  0  0  0  0  0
    5.7654    1.8755   -0.0762 C   0  0  0  0  0  0  0  0  0  0  0  0
    5.2906   -1.0787    0.0158 C   0  0  0  0  0  0  0  0  0  0  0  0
    4.9671   -1.5154    1.1496 O   0  0  0  0  0  0  0  0  0  0  0  0
    6.5234   -1.5135   -0.5143 N   0  0  0  0  0  0  0  0  0  0  0  0
    7.4291   -2.4279    0.2081 C   0  0  1  0  0  0  0  0  0  0  0  0
    7.8624   -3.6141   -0.5271 C   0  0  0  0  0  0  0  0  0  0  0  0
    8.6205   -4.5634    0.3643 C   0  0  0  0  0  0  0  0  0  0  0  0
    9.1181   -5.7399   -0.4021 C   0  0  0  0  0  0  0  0  0  0  0  0
    9.8349   -6.7396    0.2240 O   0  0  0  0  0  0  0  0  0  0  0  0
    8.8696   -5.7949   -1.6207 O   0  0  0  0  0  0  0  0  0  0  0  0
    8.5955   -1.5335    0.5736 C   0  0  0  0  0  0  0  0  0  0  0  0
    8.3086   -0.4186    1.1575 O   0  0  0  0  0  0  0  0  0  0  0  0
    9.9180   -1.8111    0.3228 N   0  0  0  0  0  0  0  0  0  0  0  0
   10.9984   -0.8848    0.7232 C   0  0  1  0  0  0  0  0  0  0  0  0
   10.8964    0.2934   -0.1760 C   0  0  0  0  0  0  0  0  0  0  0  0
   11.8792    1.3634    0.0474 C   0  0  0  0  0  0  0  0  0  0  0  0
   13.1226    1.2683   -0.5638 C   0  0  0  0  0  0  0  0  0  0  0  0
   14.0286    2.2777   -0.3843 C   0  0  0  0  0  0  0  0  0  0  0  0
   13.7489    3.3762    0.3763 C   0  0  0  0  0  0  0  0  0  0  0  0
   12.5086    3.4653    0.9825 C   0  0  0  0  0  0  0  0  0  0  0  0
   11.5877    2.4685    0.8176 C   0  0  0  0  0  0  0  0  0  0  0  0
   11.0624   -0.6503    2.1565 C   0  0  0  0  0  0  0  0  0  0  0  0
   12.0314    0.1858    2.7486 O   0  0  0  0  0  0  0  0  0  0  0  0
   10.2718   -1.1641    3.0012 O   0  0  0  0  0  0  0  0  0  0  0  0
   -7.9225    5.6271   -1.4500 H   0  0  0  0  0  0  0  0  0  0  0  0
   -9.2441    5.4391   -0.1906 H   0  0  0  0  0  0  0  0  0  0  0  0
   -9.5980    5.3433   -1.9484 H   0  0  0  0  0  0  0  0  0  0  0  0
   -9.6624    3.1134   -1.0715 H   0  0  0  0  0  0  0  0  0  0  0  0
   -8.3762    2.2618   -2.9041 H   0  0  0  0  0  0  0  0  0  0  0  0
   -8.7433    3.9531   -3.2941 H   0  0  0  0  0  0  0  0  0  0  0  0
   -7.0993    3.5931   -2.6589 H   0  0  0  0  0  0  0  0  0  0  0  0
   -6.6905    3.5776   -0.4078 H   0  0  0  0  0  0  0  0  0  0  0  0
   -7.9690    3.5656    0.7987 H   0  0  0  0  0  0  0  0  0  0  0  0
   -7.4712    1.4096   -1.3105 H   0  0  0  0  0  0  0  0  0  0  0  0
   -8.7593   -0.0878   -0.1421 H   0  0  0  0  0  0  0  0  0  0  0  0
  -12.3331    1.9097    1.7977 H   0  0  0  0  0  0  0  0  0  0  0  0
  -14.2182    0.4012    2.1674 H   0  0  0  0  0  0  0  0  0  0  0  0
  -15.1741   -1.7652    2.1660 H   0  0  0  0  0  0  0  0  0  0  0  0
  -14.9844   -4.1710    1.7893 H   0  0  0  0  0  0  0  0  0  0  0  0
  -12.8597   -5.1054    1.0321 H   0  0  0  0  0  0  0  0  0  0  0  0
  -10.8951   -3.5674    0.6577 H   0  0  0  0  0  0  0  0  0  0  0  0
   -9.9633   -1.4462    0.6602 H   0  0  0  0  0  0  0  0  0  0  0  0
   -5.1429    1.4477   -1.2474 H   0  0  0  0  0  0  0  0  0  0  0  0
   -3.7737    0.8765    1.3167 H   0  0  0  0  0  0  0  0  0  0  0  0
   -2.8017   -1.1735    0.3088 H   0  0  0  0  0  0  0  0  0  0  0  0
   -4.5349   -1.1724    0.5404 H   0  0  0  0  0  0  0  0  0  0  0  0
   -2.0127   -0.7300   -2.3126 H   0  0  0  0  0  0  0  0  0  0  0  0
   -2.6212   -1.4002   -4.5635 H   0  0  0  0  0  0  0  0  0  0  0  0
   -4.9153   -2.1032   -5.1191 H   0  0  0  0  0  0  0  0  0  0  0  0
   -6.5999   -2.1321   -3.3322 H   0  0  0  0  0  0  0  0  0  0  0  0
   -5.9963   -1.4720   -1.0719 H   0  0  0  0  0  0  0  0  0  0  0  0
   -2.6845    1.6199   -1.4493 H   0  0  0  0  0  0  0  0  0  0  0  0
   -4.0247    3.0961   -0.0621 H   0  0  0  0  0  0  0  0  0  0  0  0
   -0.7898   -0.4752   -0.3747 H   0  0  0  0  0  0  0  0  0  0  0  0
    1.0524    1.4288    1.0057 H   0  0  0  0  0  0  0  0  0  0  0  0
    2.0093   -0.3827    2.2564 H   0  0  0  0  0  0  0  0  0  0  0  0
    0.0757   -2.1535    0.8430 H   0  0  0  0  0  0  0  0  0  0  0  0
    1.5252   -2.5282    1.7926 H   0  0  0  0  0  0  0  0  0  0  0  0
   -0.0116   -2.2183    2.6275 H   0  0  0  0  0  0  0  0  0  0  0  0
    0.3237    1.2438    3.0816 H   0  0  0  0  0  0  0  0  0  0  0  0
   -0.9828    0.0857    2.7116 H   0  0  0  0  0  0  0  0  0  0  0  0
    0.3583   -0.3310    3.9273 H   0  0  0  0  0  0  0  0  0  0  0  0
    3.4625    0.3598    1.0675 H   0  0  0  0  0  0  0  0  0  0  0  0
    4.0857   -0.6141   -1.6685 H   0  0  0  0  0  0  0  0  0  0  0  0
    5.9518    0.7588   -1.8668 H   0  0  0  0  0  0  0  0  0  0  0  0
    4.6497    2.8674   -2.3457 H   0  0  0  0  0  0  0  0  0  0  0  0
    3.3062    2.2371   -1.3754 H   0  0  0  0  0  0  0  0  0  0  0  0
    3.8602    1.3771   -2.9057 H   0  0  0  0  0  0  0  0  0  0  0  0
    5.5660    1.5071    0.9458 H   0  0  0  0  0  0  0  0  0  0  0  0
    6.8905    1.8847   -0.1595 H   0  0  0  0  0  0  0  0  0  0  0  0
    5.4879    2.9611   -0.2050 H   0  0  0  0  0  0  0  0  0  0  0  0
    6.8225   -1.1929   -1.4416 H   0  0  0  0  0  0  0  0  0  0  0  0
    6.9960   -2.7258    1.1842 H   0  0  0  0  0  0  0  0  0  0  0  0
    6.9853   -4.2286   -0.9096 H   0  0  0  0  0  0  0  0  0  0  0  0
    8.5539   -3.4045   -1.3842 H   0  0  0  0  0  0  0  0  0  0  0  0
    9.3701   -4.1755    1.0325 H   0  0  0  0  0  0  0  0  0  0  0  0
    7.8540   -5.0396    1.0997 H   0  0  0  0  0  0  0  0  0  0  0  0
   10.5369   -6.4714    0.9046 H   0  0  0  0  0  0  0  0  0  0  0  0
   10.2228   -2.6566   -0.2005 H   0  0  0  0  0  0  0  0  0  0  0  0
   11.9978   -1.3766    0.4570 H   0  0  0  0  0  0  0  0  0  0  0  0
   10.9835   -0.0052   -1.2666 H   0  0  0  0  0  0  0  0  0  0  0  0
    9.8889    0.8053   -0.1531 H   0  0  0  0  0  0  0  0  0  0  0  0
   13.3509    0.4002   -1.1683 H   0  0  0  0  0  0  0  0  0  0  0  0
   15.0050    2.1991   -0.8645 H   0  0  0  0  0  0  0  0  0  0  0  0
   14.4532    4.2039    0.5387 H   0  0  0  0  0  0  0  0  0  0  0  0
   12.2375    4.3275    1.6004 H   0  0  0  0  0  0  0  0  0  0  0  0
   10.6071    2.5511    1.3027 H   0  0  0  0  0  0  0  0  0  0  0  0
   12.3998    0.0203    3.6708 H   0  0  0  0  0  0  0  0  0  0  0  0
  1  2  1  0
  2  3  1  0
  2  4  1  0
  4  5  1  0
  5  6  1  0
  6  7  1  0
  7  8  2  0
  7  9  1  0
  9 10  2  0
 10 11  1  0
 11 12  2  0
 12 13  1  0
 13 14  2  0
 14 15  1  0
 15 16  2  0
 16 17  1  0
 17 18  2  0
  5 19  1  0
 19 20  2  0
 19 21  1  0
 21 22  1  0
 22 23  1  0
 23 24  1  0
 24 25  2  0
 25 26  1  0
 26 27  2  0
 27 28  1  0
 28 29  2  0
 22 30  1  0
 30 31  1  0
 30 32  1  0
 32 33  2  0
 32 34  1  0
 34 35  1  0
 35 36  1  0
 36 37  1  0
 36 38  1  0
 35 39  1  0
 39 40  2  0
 39 41  1  0
 41 42  1  0
 42 43  1  0
 43 44  1  0
 43 45  1  0
 42 46  1  0
 46 47  2  0
 46 48  1  0
 48 49  1  0
 49 50  1  0
 50 51  1  0
 51 52  1  0
 52 53  1  0
 52 54  2  0
 49 55  1  0
 55 56  2  0
 55 57  1  0
 57 58  1  0
 58 59  1  0
 59 60  1  0
 60 61  2  0
 61 62  1  0
 62 63  2  0
 63 64  1  0
 64 65  2  0
 58 66  1  0
 66 67  1  0
 66 68  2  0
 18  9  1  0
 29 24  1  0
 65 60  1  0
 17 12  1  0
  1 69  1  0
  1 70  1  0
  1 71  1  0
  2 72  1  0
  3 73  1  0
  3 74  1  0
  3 75  1  0
  4 76  1  0
  4 77  1  0
  5 78  1  6
  6 79  1  0
 10 80  1  0
 11 81  1  0
 13 82  1  0
 14 83  1  0
 15 84  1  0
 16 85  1  0
 18 86  1  0
 21 87  1  0
 22 88  1  1
 23 89  1  0
 23 90  1  0
 25 91  1  0
 26 92  1  0
 27 93  1  0
 28 94  1  0
 29 95  1  0
 30 96  1  6
 31 97  1  0
 34 98  1  0
 35 99  1  1
 36100  1  0
 37101  1  0
 37102  1  0
 37103  1  0
 38104  1  0
 38105  1  0
 38106  1  0
 41107  1  0
 42108  1  6
 43109  1  0
 44110  1  0
 44111  1  0
 44112  1  0
 45113  1  0
 45114  1  0
 45115  1  0
 48116  1  0
 49117  1  1
 50118  1  0
 50119  1  0
 51120  1  0
 51121  1  0
 53122  1  0
 57123  1  0
 58124  1  6
 59125  1  0
 59126  1  0
 61127  1  0
 62128  1  0
 63129  1  0
 64130  1  0
 65131  1  0
 67132  1  0
M  END
$$$$
[H]c1nc(N([H])[H])c(C(=O)N([H])c2nc([H])c([H])c([H])c2N2C([H])([H])C([H])([H])C([H])(N([H])[H])C([H])([H])C2([H])[H])nc1-c1nc(N2C([H])([H])C([H])([H])OC([H])([H])C2([H])[H])c([H])c([H])c1C(F)(F)F
     RDKit          3D

 67 71  0  0  0  0  0  0  0  0999 V2000
   -4.1726    3.7627   -1.9054 N   0  0  0  0  0  0  0  0  0  0  0  0
   -3.7083    2.3684   -1.9332 C   0  0  0  0  0  0  0  0  0  0  0  0
   -2.7285    2.2484   -3.0491 C   0  0  0  0  0  0  0  0  0  0  0  0
   -1.8455    1.0245   -2.9525 C   0  0  0  0  0  0  0  0  0  0  0  0
   -2.2241    0.1935   -1.8219 N   0  0  0  0  0  0  0  0  0  0  0  0
   -2.3182    0.8143   -0.5399 C   0  0  0  0  0  0  0  0  0  0  0  0
   -3.1469    2.0811   -0.5660 C   0  0  0  0  0  0  0  0  0  0  0  0
   -2.5350   -1.1532   -2.0885 C   0  0  0  0  0  0  0  0  0  0  0  0
   -3.3835   -1.3949   -3.1872 C   0  0  0  0  0  0  0  0  0  0  0  0
   -3.8128   -2.6668   -3.4607 C   0  0  0  0  0  0  0  0  0  0  0  0
   -3.4240   -3.7167   -2.6725 C   0  0  0  0  0  0  0  0  0  0  0  0
   -2.6203   -3.4748   -1.6384 N   0  0  0  0  0  0  0  0  0  0  0  0
   -2.1659   -2.2206   -1.3292 C   0  0  0  0  0  0  0  0  0  0  0  0
   -1.2270   -2.0600   -0.2718 N   0  0  0  0  0  0  0  0  0  0  0  0
   -0.9255   -3.1474    0.5716 C   0  0  0  0  0  0  0  0  0  0  0  0
   -1.5725   -4.2373    0.3904 O   0  0  0  0  0  0  0  0  0  0  0  0
    0.0561   -3.1335    1.6338 C   0  0  0  0  0  0  0  0  0  0  0  0
    0.8756   -2.1140    1.8537 N   0  0  0  0  0  0  0  0  0  0  0  0
    1.8382   -2.0890    2.8531 C   0  0  0  0  0  0  0  0  0  0  0  0
    1.8795   -3.1973    3.5978 C   0  0  0  0  0  0  0  0  0  0  0  0
    1.0359   -4.2633    3.3810 N   0  0  0  0  0  0  0  0  0  0  0  0
    0.1227   -4.2671    2.4191 C   0  0  0  0  0  0  0  0  0  0  0  0
   -0.7465   -5.3918    2.2132 N   0  0  0  0  0  0  0  0  0  0  0  0
    2.6558   -0.8928    2.8254 C   0  0  0  0  0  0  0  0  0  0  0  0
    2.3603   -0.0055    1.7954 N   0  0  0  0  0  0  0  0  0  0  0  0
    2.9547    1.1417    1.5854 C   0  0  0  0  0  0  0  0  0  0  0  0
    3.9672    1.4912    2.4812 C   0  0  0  0  0  0  0  0  0  0  0  0
    4.3062    0.6733    3.5097 C   0  0  0  0  0  0  0  0  0  0  0  0
    3.6318   -0.5651    3.6970 C   0  0  0  0  0  0  0  0  0  0  0  0
    4.0254   -1.3852    4.8493 C   0  0  0  0  0  0  0  0  0  0  0  0
    5.0923   -0.5917    5.4613 F   0  0  0  0  0  0  0  0  0  0  0  0
    4.7637   -2.4995    4.5316 F   0  0  0  0  0  0  0  0  0  0  0  0
    3.1111   -1.5138    5.8483 F   0  0  0  0  0  0  0  0  0  0  0  0
    2.6509    2.0018    0.4985 N   0  0  0  0  0  0  0  0  0  0  0  0
    1.6949    1.6195   -0.4859 C   0  0  0  0  0  0  0  0  0  0  0  0
    2.1256    1.9989   -1.8892 C   0  0  0  0  0  0  0  0  0  0  0  0
    3.1951    2.8867   -1.9014 O   0  0  0  0  0  0  0  0  0  0  0  0
    3.0194    3.8985   -0.9578 C   0  0  0  0  0  0  0  0  0  0  0  0
    3.3344    3.2748    0.3911 C   0  0  0  0  0  0  0  0  0  0  0  0
   -5.0615    3.8735   -2.4232 H   0  0  0  0  0  0  0  0  0  0  0  0
   -4.1682    4.1628   -0.9604 H   0  0  0  0  0  0  0  0  0  0  0  0
   -4.6114    1.7637   -2.1426 H   0  0  0  0  0  0  0  0  0  0  0  0
   -3.3277    2.1820   -4.0017 H   0  0  0  0  0  0  0  0  0  0  0  0
   -2.1483    3.1885   -3.1455 H   0  0  0  0  0  0  0  0  0  0  0  0
   -1.8635    0.4701   -3.9129 H   0  0  0  0  0  0  0  0  0  0  0  0
   -0.8093    1.3932   -2.8265 H   0  0  0  0  0  0  0  0  0  0  0  0
   -2.7512    0.0611    0.1823 H   0  0  0  0  0  0  0  0  0  0  0  0
   -1.3433    1.0929   -0.1184 H   0  0  0  0  0  0  0  0  0  0  0  0
   -3.9958    1.9389    0.1312 H   0  0  0  0  0  0  0  0  0  0  0  0
   -2.5817    2.9700   -0.2054 H   0  0  0  0  0  0  0  0  0  0  0  0
   -3.6835   -0.5560   -3.8029 H   0  0  0  0  0  0  0  0  0  0  0  0
   -4.4734   -2.8667   -4.3135 H   0  0  0  0  0  0  0  0  0  0  0  0
   -3.7668   -4.7444   -2.8847 H   0  0  0  0  0  0  0  0  0  0  0  0
   -0.7270   -1.1826   -0.1365 H   0  0  0  0  0  0  0  0  0  0  0  0
    2.5712   -3.2993    4.3654 H   0  0  0  0  0  0  0  0  0  0  0  0
   -1.6326   -5.4211    2.7528 H   0  0  0  0  0  0  0  0  0  0  0  0
   -0.5457   -6.1733    1.5623 H   0  0  0  0  0  0  0  0  0  0  0  0
    4.4588    2.4570    2.2996 H   0  0  0  0  0  0  0  0  0  0  0  0
    5.0899    0.9640    4.1857 H   0  0  0  0  0  0  0  0  0  0  0  0
    0.7424    2.1886   -0.2606 H   0  0  0  0  0  0  0  0  0  0  0  0
    1.4175    0.5489   -0.4622 H   0  0  0  0  0  0  0  0  0  0  0  0
    2.4602    1.0751   -2.4007 H   0  0  0  0  0  0  0  0  0  0  0  0
    1.3115    2.4344   -2.4780 H   0  0  0  0  0  0  0  0  0  0  0  0
    2.0025    4.2896   -0.9130 H   0  0  0  0  0  0  0  0  0  0  0  0
    3.7730    4.6796   -1.1408 H   0  0  0  0  0  0  0  0  0  0  0  0
    4.4536    3.1154    0.3994 H   0  0  0  0  0  0  0  0  0  0  0  0
    3.0712    3.8959    1.2446 H   0  0  0  0  0  0  0  0  0  0  0  0
  1  2  1  0
  2  3  1  0
  3  4  1  0
  4  5  1  0
  5  6  1  0
  6  7  1  0
  5  8  1  0
  8  9  2  0
  9 10  1  0
 10 11  2  0
 11 12  1  0
 12 13  2  0
 13 14  1  0
 14 15  1  0
 15 16  2  0
 15 17  1  0
 17 18  2  0
 18 19  1  0
 19 20  2  0
 20 21  1  0
 21 22  2  0
 22 23  1  0
 19 24  1  0
 24 25  2  0
 25 26  1  0
 26 27  2  0
 27 28  1  0
 28 29  2  0
 29 30  1  0
 30 31  1  0
 30 32  1  0
 30 33  1  0
 26 34  1  0
 34 35  1  0
 35 36  1  0
 36 37  1  0
 37 38  1  0
 38 39  1  0
  7  2  1  0
 13  8  1  0
 22 17  1  0
 29 24  1  0
 39 34  1  0
  1 40  1  0
  1 41  1  0
  2 42  1  0
  3 43  1  0
  3 44  1  0
  4 45  1  0
  4 46  1  0
  6 47  1  0
  6 48  1  0
  7 49  1  0
  7 50  1  0
  9 51  1  0
 10 52  1  0
 11 53  1  0
 14 54  1  0
 20 55  1  0
 23 56  1  0
 23 57  1  0
 27 58  1  0
 28 59  1  0
 35 60  1  0
 35 61  1  0
 36 62  1  0
 36 63  1  0
 38 64  1  0
 38 65  1  0
 39 66  1  0
 39 67  1  0
M  END
$$$$
[H]c1nc(N([H])c2c([H])c([H])c(S(=O)(=O)C([H])([H])[H])c([H])c2[H])nc(OC([H])(C([H])([H])[H])C([H])([H])[H])c1Br
     RDKit          3D

 38 39  0  0  0  0  0  0  0  0999 V2000
   -5.4607   -0.9428    1.6361 C   0  0  0  0  0  0  0  0  0  0  0  0
   -4.7624    0.0532    0.7365 C   0  0  0  0  0  0  0  0  0  0  0  0
   -5.6156    1.2860    0.5304 C   0  0  0  0  0  0  0  0  0  0  0  0
   -4.4798   -0.5533   -0.5054 O   0  0  0  0  0  0  0  0  0  0  0  0
   -3.1559   -0.6294   -0.9138 C   0  0  0  0  0  0  0  0  0  0  0  0
   -2.1454   -0.1534   -0.1805 N   0  0  0  0  0  0  0  0  0  0  0  0
   -0.8361   -0.2179   -0.5632 C   0  0  0  0  0  0  0  0  0  0  0  0
    0.1303    0.3388    0.2946 N   0  0  0  0  0  0  0  0  0  0  0  0
    1.5233    0.3769    0.1172 C   0  0  0  0  0  0  0  0  0  0  0  0
    2.2218    1.3620    0.8329 C   0  0  0  0  0  0  0  0  0  0  0  0
    3.5689    1.4495    0.7302 C   0  0  0  0  0  0  0  0  0  0  0  0
    4.2507    0.5627   -0.0836 C   0  0  0  0  0  0  0  0  0  0  0  0
    3.5673   -0.4015   -0.7838 C   0  0  0  0  0  0  0  0  0  0  0  0
    2.1896   -0.4996   -0.6854 C   0  0  0  0  0  0  0  0  0  0  0  0
    5.9870    0.6173   -0.2640 S   0  0  0  0  0  0  0  0  0  0  0  0
    6.7905   -0.4097    0.9494 C   0  0  0  0  0  0  0  0  0  0  0  0
    6.4364    2.0415   -0.0480 O   0  0  0  0  0  0  0  0  0  0  0  0
    6.4400    0.1721   -1.6123 O   0  0  0  0  0  0  0  0  0  0  0  0
   -0.6175   -0.7968   -1.7389 N   0  0  0  0  0  0  0  0  0  0  0  0
   -1.5614   -1.3027   -2.5439 C   0  0  0  0  0  0  0  0  0  0  0  0
   -2.8826   -1.2241   -2.1311 C   0  0  0  0  0  0  0  0  0  0  0  0
   -4.3147   -1.9002   -3.1733 Br  0  0  0  0  0  0  0  0  0  0  0  0
   -5.0600   -1.9381    1.4062 H   0  0  0  0  0  0  0  0  0  0  0  0
   -6.5355   -0.9264    1.3576 H   0  0  0  0  0  0  0  0  0  0  0  0
   -5.2975   -0.6228    2.6879 H   0  0  0  0  0  0  0  0  0  0  0  0
   -3.8266    0.3940    1.2202 H   0  0  0  0  0  0  0  0  0  0  0  0
   -5.2925    2.1200    1.2076 H   0  0  0  0  0  0  0  0  0  0  0  0
   -5.5015    1.6871   -0.4997 H   0  0  0  0  0  0  0  0  0  0  0  0
   -6.6704    1.0002    0.6957 H   0  0  0  0  0  0  0  0  0  0  0  0
   -0.2374    0.7812    1.1976 H   0  0  0  0  0  0  0  0  0  0  0  0
    1.6695    2.0369    1.4545 H   0  0  0  0  0  0  0  0  0  0  0  0
    4.1319    2.2071    1.2774 H   0  0  0  0  0  0  0  0  0  0  0  0
    4.1051   -1.0935   -1.4196 H   0  0  0  0  0  0  0  0  0  0  0  0
    1.6913   -1.2755   -1.2378 H   0  0  0  0  0  0  0  0  0  0  0  0
    6.5591   -1.4668    0.6982 H   0  0  0  0  0  0  0  0  0  0  0  0
    6.4704   -0.1643    1.9654 H   0  0  0  0  0  0  0  0  0  0  0  0
    7.8799   -0.2012    0.8799 H   0  0  0  0  0  0  0  0  0  0  0  0
   -1.3595   -1.7666   -3.4912 H   0  0  0  0  0  0  0  0  0  0  0  0
  1  2  1  0
  2  3  1  0
  2  4  1  0
  4  5  1  0
  5  6  2  0
  6  7  1  0
  7  8  1  0
  8  9  1  0
  9 10  2  0
 10 11  1  0
 11 12  2  0
 12 13  1  0
 13 14  2  0
 12 15  1  0
 15 16  1  0
 15 17  2  0
 15 18  2  0
  7 19  2  0
 19 20  1  0
 20 21  2  0
 21 22  1  0
 21  5  1  0
 14  9  1  0
  1 23  1  0
  1 24  1  0
  1 25  1  0
  2 26  1  0
  3 27  1  0
  3 28  1  0
  3 29  1  0
  8 30  1  0
 10 31  1  0
 11 32  1  0
 13 33  1  0
 14 34  1  0
 16 35  1  0
 16 36  1  0
 16 37  1  0
 20 38  1  0
M  END
$$$$
[H]c1c([H])c([H])c2c(c1[H])c1c3c(c4c5c([H])c([H])c([H])c([H])c5n5c4c1n2[C@]1([H])O[C@]5(C([H])([H])[H])[C@]([H])(OC([H])([H])[H])[C@@]([H])(N([H])C([H])([H])[H])C1([H])[H])C([H])([H])N([H])C3=O
     RDKit          3D

 61 68  0  0  0  0  0  0  0  0999 V2000
   -4.6729    2.4704    0.6701 C   0  0  0  0  0  0  0  0  0  0  0  0
   -3.9561    1.2431    0.7989 N   0  0  0  0  0  0  0  0  0  0  0  0
   -3.1827    0.9142   -0.3838 C   0  0  1  0  0  0  0  0  0  0  0  0
   -2.1402    2.0723   -0.5185 C   0  0  0  0  0  0  0  0  0  0  0  0
   -0.9578    1.3809   -0.4239 C   0  0  1  0  0  0  0  0  0  0  0  0
   -1.0012    0.5004   -1.5008 O   0  0  0  0  0  0  0  0  0  0  0  0
   -1.3700   -0.7676   -0.9505 C   0  0  2  0  0  0  0  0  0  0  0  0
   -1.7787   -1.5242   -2.2382 C   0  0  0  0  0  0  0  0  0  0  0  0
   -2.4988   -0.4528   -0.0976 C   0  0  2  0  0  0  0  0  0  0  0  0
   -3.5516   -1.3395   -0.4711 O   0  0  0  0  0  0  0  0  0  0  0  0
   -4.0462   -2.0650    0.5660 C   0  0  0  0  0  0  0  0  0  0  0  0
   -0.1182   -1.2988   -0.4529 N   0  0  0  0  0  0  0  0  0  0  0  0
    0.2026   -2.6147   -0.3684 C   0  0  0  0  0  0  0  0  0  0  0  0
   -0.5266   -3.7517   -0.5683 C   0  0  0  0  0  0  0  0  0  0  0  0
    0.0524   -5.0036   -0.4051 C   0  0  0  0  0  0  0  0  0  0  0  0
    1.3926   -5.1477   -0.0325 C   0  0  0  0  0  0  0  0  0  0  0  0
    2.1371   -4.0052    0.1725 C   0  0  0  0  0  0  0  0  0  0  0  0
    1.5289   -2.7803    0.0012 C   0  0  0  0  0  0  0  0  0  0  0  0
    2.0485   -1.5465    0.1558 C   0  0  0  0  0  0  0  0  0  0  0  0
    3.3025   -1.0014    0.4712 C   0  0  0  0  0  0  0  0  0  0  0  0
    4.5400   -1.7303    0.7940 C   0  0  0  0  0  0  0  0  0  0  0  0
    5.5206   -0.7063    1.0489 N   0  0  0  0  0  0  0  0  0  0  0  0
    4.9204    0.5944    0.8755 C   0  0  0  0  0  0  0  0  0  0  0  0
    5.6103    1.6121    1.0433 O   0  0  0  0  0  0  0  0  0  0  0  0
    3.5413    0.3604    0.5176 C   0  0  0  0  0  0  0  0  0  0  0  0
    2.5227    1.2647    0.2507 C   0  0  0  0  0  0  0  0  0  0  0  0
    2.3682    2.6229    0.2472 C   0  0  0  0  0  0  0  0  0  0  0  0
    3.2205    3.6549    0.4650 C   0  0  0  0  0  0  0  0  0  0  0  0
    2.7083    4.9621    0.3758 C   0  0  0  0  0  0  0  0  0  0  0  0
    1.3816    5.1770    0.0757 C   0  0  0  0  0  0  0  0  0  0  0  0
    0.5187    4.1120   -0.1455 C   0  0  0  0  0  0  0  0  0  0  0  0
    1.0401    2.8494   -0.0530 C   0  0  0  0  0  0  0  0  0  0  0  0
    0.3949    1.7020   -0.2301 N   0  0  0  0  0  0  0  0  0  0  0  0
    1.3072    0.7097   -0.0536 C   0  0  0  0  0  0  0  0  0  0  0  0
    1.0653   -0.6739   -0.1093 C   0  0  0  0  0  0  0  0  0  0  0  0
   -4.1378    3.2896    1.1811 H   0  0  0  0  0  0  0  0  0  0  0  0
   -4.9117    2.6802   -0.3866 H   0  0  0  0  0  0  0  0  0  0  0  0
   -5.6527    2.3385    1.2050 H   0  0  0  0  0  0  0  0  0  0  0  0
   -3.2976    1.2798    1.6344 H   0  0  0  0  0  0  0  0  0  0  0  0
   -3.8488    0.8666   -1.2338 H   0  0  0  0  0  0  0  0  0  0  0  0
   -2.3900    2.5503   -1.5008 H   0  0  0  0  0  0  0  0  0  0  0  0
   -2.3278    2.8494    0.2401 H   0  0  0  0  0  0  0  0  0  0  0  0
   -1.1232    0.8155    0.6063 H   0  0  0  0  0  0  0  0  0  0  0  0
   -2.0290   -0.8100   -3.0632 H   0  0  0  0  0  0  0  0  0  0  0  0
   -0.9380   -2.1222   -2.6367 H   0  0  0  0  0  0  0  0  0  0  0  0
   -2.6973   -2.1123   -2.1005 H   0  0  0  0  0  0  0  0  0  0  0  0
   -2.3910   -0.6283    0.9834 H   0  0  0  0  0  0  0  0  0  0  0  0
   -3.2245   -2.6856    1.0089 H   0  0  0  0  0  0  0  0  0  0  0  0
   -4.7508   -2.8108    0.1278 H   0  0  0  0  0  0  0  0  0  0  0  0
   -4.5876   -1.5274    1.3339 H   0  0  0  0  0  0  0  0  0  0  0  0
   -1.5381   -3.7221   -0.8394 H   0  0  0  0  0  0  0  0  0  0  0  0
   -0.5262   -5.8823   -0.5635 H   0  0  0  0  0  0  0  0  0  0  0  0
    1.8193   -6.1363    0.0880 H   0  0  0  0  0  0  0  0  0  0  0  0
    3.1750   -4.0914    0.4618 H   0  0  0  0  0  0  0  0  0  0  0  0
    4.3470   -2.2880    1.7377 H   0  0  0  0  0  0  0  0  0  0  0  0
    4.8560   -2.4302   -0.0043 H   0  0  0  0  0  0  0  0  0  0  0  0
    6.5043   -0.9356    1.3160 H   0  0  0  0  0  0  0  0  0  0  0  0
    4.2542    3.5201    0.6968 H   0  0  0  0  0  0  0  0  0  0  0  0
    3.4136    5.7638    0.5555 H   0  0  0  0  0  0  0  0  0  0  0  0
    0.9998    6.1818    0.0099 H   0  0  0  0  0  0  0  0  0  0  0  0
   -0.5210    4.2535   -0.3844 H   0  0  0  0  0  0  0  0  0  0  0  0
  1  2  1  0
  2  3  1  0
  3  4  1  0
  4  5  1  0
  5  6  1  0
  6  7  1  0
  7  8  1  6
  7  9  1  0
  9 10  1  0
 10 11  1  0
  7 12  1  0
 12 13  1  0
 13 14  2  0
 14 15  1  0
 15 16  2  0
 16 17  1  0
 17 18  2  0
 18 19  1  0
 19 20  2  0
 20 21  1  0
 21 22  1  0
 22 23  1  0
 23 24  2  0
 23 25  1  0
 25 26  2  0
 26 27  1  0
 27 28  2  0
 28 29  1  0
 29 30  2  0
 30 31  1  0
 31 32  2  0
 32 33  1  0
 33 34  1  0
 34 35  2  0
  9  3  1  0
 35 12  1  0
 33  5  1  0
 18 13  1  0
 35 19  1  0
 25 20  1  0
 34 26  1  0
 32 27  1  0
  1 36  1  0
  1 37  1  0
  1 38  1  0
  2 39  1  0
  3 40  1  6
  4 41  1  0
  4 42  1  0
  5 43  1  1
  8 44  1  0
  8 45  1  0
  8 46  1  0
  9 47  1  1
 11 48  1  0
 11 49  1  0
 11 50  1  0
 14 51  1  0
 15 52  1  0
 16 53  1  0
 17 54  1  0
 21 55  1  0
 21 56  1  0
 22 57  1  0
 28 58  1  0
 29 59  1  0
 30 60  1  0
 31 61  1  0
M  END
$$$$
[H]OC(=O)[C@@]([H])(N([H])C(=O)[C@@]1([H])N(C(=O)[C@@]([H])(N([H])C(=O)C([H])([H])[H])C([H])([H])c2c([H])c([H])c([H])c([H])c2[H])C([H])([H])C([H])([H])C1([H])[H])C([H])([H])C([H])(C([H])([H])[H])C([H])([H])[H]
     RDKit          3D

 61 62  0  0  0  0  0  0  0  0999 V2000
    6.0388   -0.9840   -0.8609 C   0  0  0  0  0  0  0  0  0  0  0  0
    4.7608   -1.6638   -0.3749 C   0  0  0  0  0  0  0  0  0  0  0  0
    4.4780   -2.9638   -1.0423 C   0  0  0  0  0  0  0  0  0  0  0  0
    3.6420   -0.7487   -0.1271 C   0  0  0  0  0  0  0  0  0  0  0  0
    3.0926    0.1211   -1.1759 C   0  0  2  0  0  0  0  0  0  0  0  0
    1.9808    0.8894   -0.5628 N   0  0  0  0  0  0  0  0  0  0  0  0
    2.0207    2.2726   -0.3371 C   0  0  0  0  0  0  0  0  0  0  0  0
    3.0550    2.8974   -0.6737 O   0  0  0  0  0  0  0  0  0  0  0  0
    0.9111    3.0395    0.2770 C   0  0  2  0  0  0  0  0  0  0  0  0
    1.3810    3.6118    1.5800 C   0  0  0  0  0  0  0  0  0  0  0  0
    0.2425    3.3275    2.5321 C   0  0  0  0  0  0  0  0  0  0  0  0
   -0.1979    1.9429    2.0419 C   0  0  0  0  0  0  0  0  0  0  0  0
   -0.2143    2.1813    0.6146 N   0  0  0  0  0  0  0  0  0  0  0  0
   -1.1884    1.6673   -0.2701 C   0  0  0  0  0  0  0  0  0  0  0  0
   -1.1277    1.9838   -1.5133 O   0  0  0  0  0  0  0  0  0  0  0  0
   -2.3003    0.7777    0.1130 C   0  0  2  0  0  0  0  0  0  0  0  0
   -1.8095   -0.5428    0.6912 C   0  0  0  0  0  0  0  0  0  0  0  0
   -2.9320   -1.4244    1.0644 C   0  0  0  0  0  0  0  0  0  0  0  0
   -3.5079   -1.4074    2.3110 C   0  0  0  0  0  0  0  0  0  0  0  0
   -4.5594   -2.2544    2.6126 C   0  0  0  0  0  0  0  0  0  0  0  0
   -5.0503   -3.1251    1.6852 C   0  0  0  0  0  0  0  0  0  0  0  0
   -4.4899   -3.1604    0.4301 C   0  0  0  0  0  0  0  0  0  0  0  0
   -3.4319   -2.3047    0.1341 C   0  0  0  0  0  0  0  0  0  0  0  0
   -3.1936    0.5182   -1.0066 N   0  0  0  0  0  0  0  0  0  0  0  0
   -4.5637    0.8723   -0.9850 C   0  0  0  0  0  0  0  0  0  0  0  0
   -5.4218    0.5883   -2.1414 C   0  0  0  0  0  0  0  0  0  0  0  0
   -5.0788    1.4331    0.0121 O   0  0  0  0  0  0  0  0  0  0  0  0
    2.7162   -0.4152   -2.4606 C   0  0  0  0  0  0  0  0  0  0  0  0
    3.6159   -1.0830   -3.2581 O   0  0  0  0  0  0  0  0  0  0  0  0
    1.5482   -0.3109   -2.9473 O   0  0  0  0  0  0  0  0  0  0  0  0
    6.9481   -1.3811   -0.3636 H   0  0  0  0  0  0  0  0  0  0  0  0
    6.0152    0.0941   -0.6947 H   0  0  0  0  0  0  0  0  0  0  0  0
    6.1922   -1.2442   -1.9503 H   0  0  0  0  0  0  0  0  0  0  0  0
    5.0831   -1.9859    0.6935 H   0  0  0  0  0  0  0  0  0  0  0  0
    5.1237   -3.1451   -1.9514 H   0  0  0  0  0  0  0  0  0  0  0  0
    3.3967   -3.1247   -1.2508 H   0  0  0  0  0  0  0  0  0  0  0  0
    4.7458   -3.8556   -0.3956 H   0  0  0  0  0  0  0  0  0  0  0  0
    2.7968   -1.3959    0.2802 H   0  0  0  0  0  0  0  0  0  0  0  0
    3.8963   -0.1369    0.8011 H   0  0  0  0  0  0  0  0  0  0  0  0
    3.8732    0.9206   -1.3679 H   0  0  0  0  0  0  0  0  0  0  0  0
    1.1380    0.3490   -0.2951 H   0  0  0  0  0  0  0  0  0  0  0  0
    0.6262    3.8592   -0.4043 H   0  0  0  0  0  0  0  0  0  0  0  0
    2.2523    3.0162    1.9495 H   0  0  0  0  0  0  0  0  0  0  0  0
    1.6186    4.6922    1.5196 H   0  0  0  0  0  0  0  0  0  0  0  0
   -0.6124    4.0136    2.3876 H   0  0  0  0  0  0  0  0  0  0  0  0
    0.5727    3.2477    3.5852 H   0  0  0  0  0  0  0  0  0  0  0  0
    0.5291    1.1722    2.2845 H   0  0  0  0  0  0  0  0  0  0  0  0
   -1.2093    1.7911    2.4666 H   0  0  0  0  0  0  0  0  0  0  0  0
   -2.8991    1.2660    0.9038 H   0  0  0  0  0  0  0  0  0  0  0  0
   -1.1802   -0.4310    1.5862 H   0  0  0  0  0  0  0  0  0  0  0  0
   -1.1646   -0.9915   -0.0944 H   0  0  0  0  0  0  0  0  0  0  0  0
   -3.1211   -0.7114    3.0638 H   0  0  0  0  0  0  0  0  0  0  0  0
   -4.9918   -2.2211    3.5937 H   0  0  0  0  0  0  0  0  0  0  0  0
   -5.8847   -3.8103    1.8960 H   0  0  0  0  0  0  0  0  0  0  0  0
   -4.8887   -3.8562   -0.2977 H   0  0  0  0  0  0  0  0  0  0  0  0
   -3.0299   -2.3721   -0.8605 H   0  0  0  0  0  0  0  0  0  0  0  0
   -2.7798    0.0543   -1.8388 H   0  0  0  0  0  0  0  0  0  0  0  0
   -5.3617   -0.4903   -2.4689 H   0  0  0  0  0  0  0  0  0  0  0  0
   -6.4770    0.7562   -1.8739 H   0  0  0  0  0  0  0  0  0  0  0  0
   -5.2022    1.2489   -3.0069 H   0  0  0  0  0  0  0  0  0  0  0  0
    3.5782   -1.0638   -4.2585 H   0  0  0  0  0  0  0  0  0  0  0  0
  1  2  1  0
  2  3  1  0
  2  4  1  0
  4  5  1  0
  5  6  1  0
  6  7  1  0
  7  8  2  0
  7  9  1  0
  9 10  1  0
 10 11  1  0
 11 12  1  0
 12 13  1  0
 13 14  1  0
 14 15  2  0
 14 16  1  0
 16 17  1  0
 17 18  1  0
 18 19  2  0
 19 20  1  0
 20 21  2  0
 21 22  1  0
 22 23  2  0
 16 24  1  0
 24 25  1  0
 25 26  1  0
 25 27  2  0
  5 28  1  0
 28 29  1  0
 28 30  2  0
 13  9  1  0
 23 18  1  0
  1 31  1  0
  1 32  1  0
  1 33  1  0
  2 34  1  0
  3 35  1  0
  3 36  1  0
  3 37  1  0
  4 38  1  0
  4 39  1  0
  5 40  1  6
  6 41  1  0
  9 42  1  6
 10 43  1  0
 10 44  1  0
 11 45  1  0
 11 46  1  0
 12 47  1  0
 12 48  1  0
 16 49  1  1
 17 50  1  0
 17 51  1  0
 19 52  1  0
 20 53  1  0
 21 54  1  0
 22 55  1  0
 23 56  1  0
 24 57  1  0
 26 58  1  0
 26 59  1  0
 26 60  1  0
 29 61  1  0
M  END
$$$$
[H]C1=C(C(=O)[O-])N2C(=O)/C(=C(\[H])c3nc4n(c3[H])C([H])([H])C([H])([H])C4([H])[H])[C@@]2([H])S1
     RDKit          3D

 30 33  0  0  0  0  0  0  0  0999 V2000
    6.3185    1.2949    1.2196 O   0  0  0  0  0  0  0  0  0  0  0  0
    5.5528    0.2840    0.6617 C   0  0  0  0  0  0  0  0  0  0  0  0
    6.1965   -0.7068    0.2157 O   0  0  0  0  0  0  0  0  0  0  0  0
    4.0711    0.3567    0.5907 C   0  0  0  0  0  0  0  0  0  0  0  0
    3.4427    1.4043    1.0668 C   0  0  0  0  0  0  0  0  0  0  0  0
    1.6896    1.0710    0.7704 S   0  0  0  0  0  0  0  0  0  0  0  0
    2.0275   -0.1924   -0.5342 C   0  0  1  0  0  0  0  0  0  0  0  0
    3.2971   -0.6600    0.0460 N   0  0  0  0  0  0  0  0  0  0  0  0
    2.8835   -1.9806   -0.3562 C   0  0  0  0  0  0  0  0  0  0  0  0
    3.4727   -3.0509   -0.6424 O   0  0  0  0  0  0  0  0  0  0  0  0
    1.4987   -1.5152   -0.2801 C   0  0  0  0  0  0  0  0  0  0  0  0
    0.3120   -2.0603   -0.0741 C   0  0  0  0  0  0  0  0  0  0  0  0
   -0.8580   -1.1919   -0.0825 C   0  0  0  0  0  0  0  0  0  0  0  0
   -1.1270   -0.0889   -0.8653 C   0  0  0  0  0  0  0  0  0  0  0  0
   -2.3311    0.4237   -0.5446 N   0  0  0  0  0  0  0  0  0  0  0  0
   -3.2527    1.4990   -0.8898 C   0  0  0  0  0  0  0  0  0  0  0  0
   -4.5442    1.0884   -0.2371 C   0  0  0  0  0  0  0  0  0  0  0  0
   -4.1560    0.1302    0.8668 C   0  0  0  0  0  0  0  0  0  0  0  0
   -2.8259   -0.3357    0.4256 C   0  0  0  0  0  0  0  0  0  0  0  0
   -1.9328   -1.3267    0.7158 N   0  0  0  0  0  0  0  0  0  0  0  0
    3.8332    2.2948    1.5402 H   0  0  0  0  0  0  0  0  0  0  0  0
    2.0852    0.1980   -1.5392 H   0  0  0  0  0  0  0  0  0  0  0  0
    0.2742   -3.1289    0.0905 H   0  0  0  0  0  0  0  0  0  0  0  0
   -0.4214    0.2622   -1.6164 H   0  0  0  0  0  0  0  0  0  0  0  0
   -3.3707    1.4924   -1.9786 H   0  0  0  0  0  0  0  0  0  0  0  0
   -2.8765    2.4691   -0.4857 H   0  0  0  0  0  0  0  0  0  0  0  0
   -5.0424    1.9904    0.1259 H   0  0  0  0  0  0  0  0  0  0  0  0
   -5.1885    0.5532   -0.9695 H   0  0  0  0  0  0  0  0  0  0  0  0
   -4.1362    0.6174    1.8540 H   0  0  0  0  0  0  0  0  0  0  0  0
   -4.8919   -0.7254    0.9060 H   0  0  0  0  0  0  0  0  0  0  0  0
  1  2  1  0
  2  3  2  0
  2  4  1  0
  4  5  2  0
  5  6  1  0
  6  7  1  0
  7  8  1  0
  8  9  1  0
  9 10  2  0
  9 11  1  0
 11 12  2  0
 12 13  1  0
 13 14  2  0
 14 15  1  0
 15 16  1  0
 16 17  1  0
 17 18  1  0
 18 19  1  0
 19 20  2  0
  8  4  1  0
 20 13  1  0
 11  7  1  0
 19 15  1  0
  5 21  1  0
  7 22  1  6
 12 23  1  0
 14 24  1  0
 16 25  1  0
 16 26  1  0
 17 27  1  0
 17 28  1  0
 18 29  1  0
 18 30  1  0
M  CHG  1   1  -1
M  END
$$$$
[H]c1c([H])c([H])c2c(N3C([H])([H])C([H])([H])N(C(=O)C([H])([H])Oc4c([H])c([H])c5c([H])c([H])c([H])c(N6C([H])([H])C([H])([H])N(C([H])([H])[H])C([H])([H])C6([H])[H])c5c4[H])C([H])([H])C3([H])[H])c([H])c([H])c([H])c2c1[H]
     RDKit          3D

 71 76  0  0  0  0  0  0  0  0999 V2000
    9.3586   -0.2887   -0.5829 C   0  0  0  0  0  0  0  0  0  0  0  0
    8.3757   -1.2930   -0.3122 N   0  0  0  0  0  0  0  0  0  0  0  0
    7.4673   -1.5874   -1.3387 C   0  0  0  0  0  0  0  0  0  0  0  0
    6.0216   -1.1813   -1.0875 C   0  0  0  0  0  0  0  0  0  0  0  0
    5.9952   -0.4512    0.1620 N   0  0  0  0  0  0  0  0  0  0  0  0
    6.5591   -1.0855    1.3448 C   0  0  0  0  0  0  0  0  0  0  0  0
    7.9834   -1.4357    1.0371 C   0  0  0  0  0  0  0  0  0  0  0  0
    5.4332    0.8521    0.2113 C   0  0  0  0  0  0  0  0  0  0  0  0
    6.2582    1.9663    0.3768 C   0  0  0  0  0  0  0  0  0  0  0  0
    5.7332    3.2214    0.3982 C   0  0  0  0  0  0  0  0  0  0  0  0
    4.3886    3.4495    0.2606 C   0  0  0  0  0  0  0  0  0  0  0  0
    3.5391    2.3722    0.0957 C   0  0  0  0  0  0  0  0  0  0  0  0
    2.1802    2.5852   -0.0360 C   0  0  0  0  0  0  0  0  0  0  0  0
    1.3449    1.4993   -0.1912 C   0  0  0  0  0  0  0  0  0  0  0  0
    1.8207    0.2306   -0.2167 C   0  0  0  0  0  0  0  0  0  0  0  0
    1.0678   -0.9200   -0.3635 O   0  0  0  0  0  0  0  0  0  0  0  0
   -0.3011   -1.0396   -0.4956 C   0  0  0  0  0  0  0  0  0  0  0  0
   -1.1031   -0.5702    0.6523 C   0  0  0  0  0  0  0  0  0  0  0  0
   -0.5330   -0.1584    1.7089 O   0  0  0  0  0  0  0  0  0  0  0  0
   -2.5193   -0.5689    0.6004 N   0  0  0  0  0  0  0  0  0  0  0  0
   -3.1514   -1.0384   -0.6151 C   0  0  0  0  0  0  0  0  0  0  0  0
   -4.5796   -1.4896   -0.3844 C   0  0  0  0  0  0  0  0  0  0  0  0
   -5.2318   -0.3882    0.3053 N   0  0  0  0  0  0  0  0  0  0  0  0
   -4.7185   -0.0318    1.6005 C   0  0  0  0  0  0  0  0  0  0  0  0
   -3.2456   -0.1050    1.7512 C   0  0  0  0  0  0  0  0  0  0  0  0
   -6.3256    0.3465   -0.2071 C   0  0  0  0  0  0  0  0  0  0  0  0
   -6.1908    1.6830   -0.5835 C   0  0  0  0  0  0  0  0  0  0  0  0
   -7.2333    2.4023   -1.0987 C   0  0  0  0  0  0  0  0  0  0  0  0
   -8.4499    1.7965   -1.2517 C   0  0  0  0  0  0  0  0  0  0  0  0
   -8.6389    0.4790   -0.8959 C   0  0  0  0  0  0  0  0  0  0  0  0
   -9.8871   -0.0787   -1.0661 C   0  0  0  0  0  0  0  0  0  0  0  0
  -10.0540   -1.3946   -0.6973 C   0  0  0  0  0  0  0  0  0  0  0  0
   -9.0373   -2.1368   -0.1809 C   0  0  0  0  0  0  0  0  0  0  0  0
   -7.7972   -1.5541   -0.0210 C   0  0  0  0  0  0  0  0  0  0  0  0
   -7.5585   -0.2388   -0.3705 C   0  0  0  0  0  0  0  0  0  0  0  0
    3.1946    0.0284   -0.0830 C   0  0  0  0  0  0  0  0  0  0  0  0
    4.0700    1.0756    0.0724 C   0  0  0  0  0  0  0  0  0  0  0  0
   10.3372   -0.8076   -0.6921 H   0  0  0  0  0  0  0  0  0  0  0  0
    9.4203    0.3620    0.3366 H   0  0  0  0  0  0  0  0  0  0  0  0
    9.1116    0.3489   -1.4426 H   0  0  0  0  0  0  0  0  0  0  0  0
    7.5063   -2.6984   -1.5240 H   0  0  0  0  0  0  0  0  0  0  0  0
    7.8022   -1.0643   -2.2684 H   0  0  0  0  0  0  0  0  0  0  0  0
    5.3917   -2.1004   -1.0708 H   0  0  0  0  0  0  0  0  0  0  0  0
    5.6509   -0.5361   -1.9064 H   0  0  0  0  0  0  0  0  0  0  0  0
    6.4363   -0.3845    2.1886 H   0  0  0  0  0  0  0  0  0  0  0  0
    5.9955   -2.0120    1.5596 H   0  0  0  0  0  0  0  0  0  0  0  0
    8.1815   -2.5055    1.3400 H   0  0  0  0  0  0  0  0  0  0  0  0
    8.6124   -0.8027    1.7328 H   0  0  0  0  0  0  0  0  0  0  0  0
    7.3043    1.8172    0.4864 H   0  0  0  0  0  0  0  0  0  0  0  0
    6.3780    4.0978    0.5279 H   0  0  0  0  0  0  0  0  0  0  0  0
    3.9477    4.4479    0.2745 H   0  0  0  0  0  0  0  0  0  0  0  0
    1.7453    3.5581   -0.0230 H   0  0  0  0  0  0  0  0  0  0  0  0
    0.2558    1.6468   -0.3111 H   0  0  0  0  0  0  0  0  0  0  0  0
   -0.7141   -0.5799   -1.4194 H   0  0  0  0  0  0  0  0  0  0  0  0
   -0.5264   -2.1426   -0.5927 H   0  0  0  0  0  0  0  0  0  0  0  0
   -3.0810   -0.2353   -1.3761 H   0  0  0  0  0  0  0  0  0  0  0  0
   -2.5558   -1.8905   -0.9843 H   0  0  0  0  0  0  0  0  0  0  0  0
   -5.0330   -1.7339   -1.3462 H   0  0  0  0  0  0  0  0  0  0  0  0
   -4.5348   -2.3363    0.3229 H   0  0  0  0  0  0  0  0  0  0  0  0
   -5.0455    1.0094    1.8906 H   0  0  0  0  0  0  0  0  0  0  0  0
   -5.2313   -0.6796    2.3706 H   0  0  0  0  0  0  0  0  0  0  0  0
   -2.9900   -0.8027    2.5943 H   0  0  0  0  0  0  0  0  0  0  0  0
   -2.7697    0.8682    2.0531 H   0  0  0  0  0  0  0  0  0  0  0  0
   -5.2002    2.1007   -0.4359 H   0  0  0  0  0  0  0  0  0  0  0  0
   -7.1038    3.4272   -1.3805 H   0  0  0  0  0  0  0  0  0  0  0  0
   -9.2990    2.3427   -1.6591 H   0  0  0  0  0  0  0  0  0  0  0  0
  -10.7024    0.4826   -1.4695 H   0  0  0  0  0  0  0  0  0  0  0  0
  -11.0357   -1.8614   -0.8223 H   0  0  0  0  0  0  0  0  0  0  0  0
   -9.1296   -3.1737    0.1211 H   0  0  0  0  0  0  0  0  0  0  0  0
   -6.9630   -2.1379    0.4045 H   0  0  0  0  0  0  0  0  0  0  0  0
    3.6028   -0.9762   -0.0876 H   0  0  0  0  0  0  0  0  0  0  0  0
  1  2  1  0
  2  3  1  0
  3  4  1  0
  4  5  1  0
  5  6  1  0
  6  7  1  0
  5  8  1  0
  8  9  2  0
  9 10  1  0
 10 11  2  0
 11 12  1  0
 12 13  2  0
 13 14  1  0
 14 15  2  0
 15 16  1  0
 16 17  1  0
 17 18  1  0
 18 19  2  0
 18 20  1  0
 20 21  1  0
 21 22  1  0
 22 23  1  0
 23 24  1  0
 24 25  1  0
 23 26  1  0
 26 27  2  0
 27 28  1  0
 28 29  2  0
 29 30  1  0
 30 31  2  0
 31 32  1  0
 32 33  2  0
 33 34  1  0
 34 35  2  0
 15 36  1  0
 36 37  2  0
  7  2  1  0
 37  8  1  0
 37 12  1  0
 25 20  1  0
 35 26  1  0
 35 30  1  0
  1 38  1  0
  1 39  1  0
  1 40  1  0
  3 41  1  0
  3 42  1  0
  4 43  1  0
  4 44  1  0
  6 45  1  0
  6 46  1  0
  7 47  1  0
  7 48  1  0
  9 49  1  0
 10 50  1  0
 11 51  1  0
 13 52  1  0
 14 53  1  0
 17 54  1  0
 17 55  1  0
 21 56  1  0
 21 57  1  0
 22 58  1  0
 22 59  1  0
 24 60  1  0
 24 61  1  0
 25 62  1  0
 25 63  1  0
 27 64  1  0
 28 65  1  0
 29 66  1  0
 31 67  1  0
 32 68  1  0
 33 69  1  0
 34 70  1  0
 36 71  1  0
M  END
$$$$
[H]c1c([H])c(N([H])C(=O)N2C([H])([H])C([H])([H])N(c3c([H])c([H])c([N+](=O)[O-])c([H])c3[H])C([H])([H])C2([H])[H])c([H])c([H])c1C(=O)N1C([H])([H])C([H])([H])SC([H])([H])C1([H])[H]
     RDKit          3D

 57 60  0  0  0  0  0  0  0  0999 V2000
  -10.9933   -1.3903   -0.5392 O   0  0  0  0  0  0  0  0  0  0  0  0
  -10.3163   -0.2133   -0.7307 N   0  0  0  0  0  0  0  0  0  0  0  0
  -10.9706    0.7767   -1.1089 O   0  0  0  0  0  0  0  0  0  0  0  0
   -8.9152   -0.0888   -0.5155 C   0  0  0  0  0  0  0  0  0  0  0  0
   -8.2737    1.1200   -0.7205 C   0  0  0  0  0  0  0  0  0  0  0  0
   -6.9043    1.1866   -0.4956 C   0  0  0  0  0  0  0  0  0  0  0  0
   -6.1618    0.1049   -0.0789 C   0  0  0  0  0  0  0  0  0  0  0  0
   -6.8238   -1.0873    0.1181 C   0  0  0  0  0  0  0  0  0  0  0  0
   -8.2027   -1.1912   -0.0988 C   0  0  0  0  0  0  0  0  0  0  0  0
   -4.7695    0.2183    0.1443 N   0  0  0  0  0  0  0  0  0  0  0  0
   -4.0599    1.4792    0.0866 C   0  0  0  0  0  0  0  0  0  0  0  0
   -2.8663    1.4370    1.0549 C   0  0  0  0  0  0  0  0  0  0  0  0
   -1.9730    0.3655    0.6369 N   0  0  0  0  0  0  0  0  0  0  0  0
   -2.5501   -0.8811    0.1849 C   0  0  0  0  0  0  0  0  0  0  0  0
   -4.0161   -0.9763    0.4397 C   0  0  0  0  0  0  0  0  0  0  0  0
   -0.5605    0.5081    0.6603 C   0  0  0  0  0  0  0  0  0  0  0  0
   -0.1185    1.5964    1.0613 O   0  0  0  0  0  0  0  0  0  0  0  0
    0.2726   -0.5351    0.2488 N   0  0  0  0  0  0  0  0  0  0  0  0
    1.6818   -0.5767    0.2062 C   0  0  0  0  0  0  0  0  0  0  0  0
    2.5097    0.3765    0.6783 C   0  0  0  0  0  0  0  0  0  0  0  0
    3.9067    0.2693    0.5916 C   0  0  0  0  0  0  0  0  0  0  0  0
    4.5341   -0.8053    0.0254 C   0  0  0  0  0  0  0  0  0  0  0  0
    3.6395   -1.7888   -0.4612 C   0  0  0  0  0  0  0  0  0  0  0  0
    2.2775   -1.6837   -0.3770 C   0  0  0  0  0  0  0  0  0  0  0  0
    5.9329   -1.0566   -0.0991 C   0  0  0  0  0  0  0  0  0  0  0  0
    6.2431   -2.1407   -0.8090 O   0  0  0  0  0  0  0  0  0  0  0  0
    7.0494   -0.3938    0.3767 N   0  0  0  0  0  0  0  0  0  0  0  0
    7.0926    0.7833    1.1852 C   0  0  0  0  0  0  0  0  0  0  0  0
    7.2381    2.0537    0.3340 C   0  0  0  0  0  0  0  0  0  0  0  0
    8.2947    1.4964   -1.0671 S   0  0  0  0  0  0  0  0  0  0  0  0
    9.3042    0.1581   -0.3735 C   0  0  0  0  0  0  0  0  0  0  0  0
    8.3854   -0.9759    0.0012 C   0  0  0  0  0  0  0  0  0  0  0  0
   -8.7911    2.0093   -1.0464 H   0  0  0  0  0  0  0  0  0  0  0  0
   -6.3947    2.1219   -0.6536 H   0  0  0  0  0  0  0  0  0  0  0  0
   -6.3159   -1.9826    0.4462 H   0  0  0  0  0  0  0  0  0  0  0  0
   -8.7349   -2.1160    0.0507 H   0  0  0  0  0  0  0  0  0  0  0  0
   -4.6648    2.3519    0.3572 H   0  0  0  0  0  0  0  0  0  0  0  0
   -3.6293    1.6420   -0.9210 H   0  0  0  0  0  0  0  0  0  0  0  0
   -2.3650    2.4067    0.9845 H   0  0  0  0  0  0  0  0  0  0  0  0
   -3.2720    1.2705    2.0752 H   0  0  0  0  0  0  0  0  0  0  0  0
   -2.0703   -1.7213    0.7322 H   0  0  0  0  0  0  0  0  0  0  0  0
   -2.3779   -0.9420   -0.9111 H   0  0  0  0  0  0  0  0  0  0  0  0
   -4.2364   -1.2498    1.5117 H   0  0  0  0  0  0  0  0  0  0  0  0
   -4.4317   -1.7693   -0.2424 H   0  0  0  0  0  0  0  0  0  0  0  0
   -0.2404   -1.4188   -0.0740 H   0  0  0  0  0  0  0  0  0  0  0  0
    2.1327    1.2626    1.1482 H   0  0  0  0  0  0  0  0  0  0  0  0
    4.4940    1.0826    0.9754 H   0  0  0  0  0  0  0  0  0  0  0  0
    4.0786   -2.6718   -0.9240 H   0  0  0  0  0  0  0  0  0  0  0  0
    1.6324   -2.4874   -0.7774 H   0  0  0  0  0  0  0  0  0  0  0  0
    8.1185    0.7670    1.7405 H   0  0  0  0  0  0  0  0  0  0  0  0
    6.3636    0.8730    1.9616 H   0  0  0  0  0  0  0  0  0  0  0  0
    6.2499    2.3439   -0.0638 H   0  0  0  0  0  0  0  0  0  0  0  0
    7.7199    2.8074    0.9500 H   0  0  0  0  0  0  0  0  0  0  0  0
    9.7599    0.5445    0.5805 H   0  0  0  0  0  0  0  0  0  0  0  0
   10.0972   -0.1638   -1.0829 H   0  0  0  0  0  0  0  0  0  0  0  0
    8.8094   -1.4874    0.8660 H   0  0  0  0  0  0  0  0  0  0  0  0
    8.1819   -1.6179   -0.8728 H   0  0  0  0  0  0  0  0  0  0  0  0
  1  2  1  0
  2  3  2  0
  2  4  1  0
  4  5  2  0
  5  6  1  0
  6  7  2  0
  7  8  1  0
  8  9  2  0
  7 10  1  0
 10 11  1  0
 11 12  1  0
 12 13  1  0
 13 14  1  0
 14 15  1  0
 13 16  1  0
 16 17  2  0
 16 18  1  0
 18 19  1  0
 19 20  2  0
 20 21  1  0
 21 22  2  0
 22 23  1  0
 23 24  2  0
 22 25  1  0
 25 26  2  0
 25 27  1  0
 27 28  1  0
 28 29  1  0
 29 30  1  0
 30 31  1  0
 31 32  1  0
  9  4  1  0
 15 10  1  0
 24 19  1  0
 32 27  1  0
  5 33  1  0
  6 34  1  0
  8 35  1  0
  9 36  1  0
 11 37  1  0
 11 38  1  0
 12 39  1  0
 12 40  1  0
 14 41  1  0
 14 42  1  0
 15 43  1  0
 15 44  1  0
 18 45  1  0
 20 46  1  0
 21 47  1  0
 23 48  1  0
 24 49  1  0
 28 50  1  0
 28 51  1  0
 29 52  1  0
 29 53  1  0
 31 54  1  0
 31 55  1  0
 32 56  1  0
 32 57  1  0
M  CHG  2   1  -1   2   1
M  END
$$$$
[H]c1c([H])c([H])c2c(c1[H])c(C(=O)OC1([H])C([H])([H])C3([H])N(C([H])([H])[H])C([H])(C([H])([H])C3([H])[H])C1([H])[H])c([H])n2[H]
     RDKit          3D

 41 44  0  0  0  0  0  0  0  0999 V2000
   -5.2682    1.0423   -0.1017 C   0  0  0  0  0  0  0  0  0  0  0  0
   -3.8393    1.0029   -0.3151 N   0  0  0  0  0  0  0  0  0  0  0  0
   -3.1452    1.0980    0.9711 C   0  0  0  0  0  0  0  0  0  0  0  0
   -3.4633   -0.2168    1.6044 C   0  0  0  0  0  0  0  0  0  0  0  0
   -3.7039   -1.2142    0.4963 C   0  0  0  0  0  0  0  0  0  0  0  0
   -3.4760   -0.3338   -0.7393 C   0  0  0  0  0  0  0  0  0  0  0  0
   -2.0127   -0.4477   -1.0775 C   0  0  0  0  0  0  0  0  0  0  0  0
   -1.1120   -0.0252    0.0548 C   0  0  0  0  0  0  0  0  0  0  0  0
   -1.6757    1.2535    0.6485 C   0  0  0  0  0  0  0  0  0  0  0  0
    0.1787    0.2847   -0.4381 O   0  0  0  0  0  0  0  0  0  0  0  0
    1.3299   -0.3265    0.0282 C   0  0  0  0  0  0  0  0  0  0  0  0
    1.1992   -1.1892    0.9267 O   0  0  0  0  0  0  0  0  0  0  0  0
    2.6396    0.0067   -0.4910 C   0  0  0  0  0  0  0  0  0  0  0  0
    2.8876    0.9514   -1.4892 C   0  0  0  0  0  0  0  0  0  0  0  0
    4.1983    1.0180   -1.7364 N   0  0  0  0  0  0  0  0  0  0  0  0
    4.8463    0.1519   -0.9410 C   0  0  0  0  0  0  0  0  0  0  0  0
    6.1660   -0.1934   -0.7690 C   0  0  0  0  0  0  0  0  0  0  0  0
    6.5185   -1.1386    0.1475 C   0  0  0  0  0  0  0  0  0  0  0  0
    5.5761   -1.7718    0.9228 C   0  0  0  0  0  0  0  0  0  0  0  0
    4.2529   -1.4304    0.7553 C   0  0  0  0  0  0  0  0  0  0  0  0
    3.8793   -0.4880   -0.1555 C   0  0  0  0  0  0  0  0  0  0  0  0
   -5.7857    0.2039   -0.6547 H   0  0  0  0  0  0  0  0  0  0  0  0
   -5.7285    1.9793   -0.5323 H   0  0  0  0  0  0  0  0  0  0  0  0
   -5.5633    0.9204    0.9506 H   0  0  0  0  0  0  0  0  0  0  0  0
   -3.4805    1.9573    1.5665 H   0  0  0  0  0  0  0  0  0  0  0  0
   -2.6497   -0.6056    2.2487 H   0  0  0  0  0  0  0  0  0  0  0  0
   -4.3499   -0.0726    2.2557 H   0  0  0  0  0  0  0  0  0  0  0  0
   -4.7151   -1.6365    0.5073 H   0  0  0  0  0  0  0  0  0  0  0  0
   -2.9871   -2.0567    0.5135 H   0  0  0  0  0  0  0  0  0  0  0  0
   -4.0497   -0.6806   -1.6018 H   0  0  0  0  0  0  0  0  0  0  0  0
   -1.8151   -1.5440   -1.2388 H   0  0  0  0  0  0  0  0  0  0  0  0
   -1.7564    0.0423   -2.0265 H   0  0  0  0  0  0  0  0  0  0  0  0
   -1.0798   -0.8070    0.8484 H   0  0  0  0  0  0  0  0  0  0  0  0
   -1.0848    1.6264    1.4997 H   0  0  0  0  0  0  0  0  0  0  0  0
   -1.6081    2.0208   -0.1527 H   0  0  0  0  0  0  0  0  0  0  0  0
    2.1222    1.5298   -1.9749 H   0  0  0  0  0  0  0  0  0  0  0  0
    4.7122    1.6225   -2.4238 H   0  0  0  0  0  0  0  0  0  0  0  0
    6.9354    0.3006   -1.3785 H   0  0  0  0  0  0  0  0  0  0  0  0
    7.5679   -1.4047    0.2757 H   0  0  0  0  0  0  0  0  0  0  0  0
    5.8630   -2.5229    1.6503 H   0  0  0  0  0  0  0  0  0  0  0  0
    3.4772   -1.9245    1.3658 H   0  0  0  0  0  0  0  0  0  0  0  0
  1  2  1  0
  2  3  1  0
  3  4  1  0
  4  5  1  0
  5  6  1  0
  6  7  1  0
  7  8  1  0
  8  9  1  0
  8 10  1  0
 10 11  1  0
 11 12  2  0
 11 13  1  0
 13 14  2  0
 14 15  1  0
 15 16  1  0
 16 17  2  0
 17 18  1  0
 18 19  2  0
 19 20  1  0
 20 21  2  0
  6  2  1  0
 21 13  1  0
  9  3  1  0
 21 16  1  0
  1 22  1  0
  1 23  1  0
  1 24  1  0
  3 25  1  0
  4 26  1  0
  4 27  1  0
  5 28  1  0
  5 29  1  0
  6 30  1  0
  7 31  1  0
  7 32  1  0
  8 33  1  0
  9 34  1  0
  9 35  1  0
 14 36  1  0
 15 37  1  0
 17 38  1  0
 18 39  1  0
 19 40  1  0
 20 41  1  0
M  END
$$$$
[H]OC([H])([H])[C@@]1([H])[C@]([H])(O[H])[C@@]([H])(O[H])[C@]([H])(O[H])[C@@]1([H])C([H])([H])O[H]
     RDKit          3D

 26 26  0  0  0  0  0  0  0  0999 V2000
    0.8093    1.6227    1.6305 O   0  0  0  0  0  0  0  0  0  0  0  0
    0.9965    1.8055    0.2639 C   0  0  0  0  0  0  0  0  0  0  0  0
    0.3192    0.7528   -0.5486 C   0  0  2  0  0  0  0  0  0  0  0  0
   -1.1730    0.8220   -0.2356 C   0  0  1  0  0  0  0  0  0  0  0  0
   -1.7940    1.8739   -0.8663 O   0  0  0  0  0  0  0  0  0  0  0  0
   -1.6371   -0.5291   -0.7176 C   0  0  2  0  0  0  0  0  0  0  0  0
   -2.8594   -0.8944   -0.1401 O   0  0  0  0  0  0  0  0  0  0  0  0
   -0.5272   -1.4312   -0.1827 C   0  0  1  0  0  0  0  0  0  0  0  0
   -0.4671   -2.6180   -0.9122 O   0  0  0  0  0  0  0  0  0  0  0  0
    0.7498   -0.6369   -0.3410 C   0  0  2  0  0  0  0  0  0  0  0  0
    1.6523   -0.9080    0.8118 C   0  0  0  0  0  0  0  0  0  0  0  0
    2.8560   -0.2108    0.7421 O   0  0  0  0  0  0  0  0  0  0  0  0
    0.1867    2.2682    2.0361 H   0  0  0  0  0  0  0  0  0  0  0  0
    0.4692    2.7765    0.0218 H   0  0  0  0  0  0  0  0  0  0  0  0
    2.0527    1.9907   -0.0120 H   0  0  0  0  0  0  0  0  0  0  0  0
    0.4006    1.0013   -1.6328 H   0  0  0  0  0  0  0  0  0  0  0  0
   -1.2707    0.8430    0.8662 H   0  0  0  0  0  0  0  0  0  0  0  0
   -2.5327    2.1846   -0.2585 H   0  0  0  0  0  0  0  0  0  0  0  0
   -1.6802   -0.5175   -1.8087 H   0  0  0  0  0  0  0  0  0  0  0  0
   -3.6243   -0.7554   -0.7570 H   0  0  0  0  0  0  0  0  0  0  0  0
   -0.7551   -1.6330    0.8825 H   0  0  0  0  0  0  0  0  0  0  0  0
   -0.0988   -3.3177   -0.3213 H   0  0  0  0  0  0  0  0  0  0  0  0
    1.2684   -1.0434   -1.2592 H   0  0  0  0  0  0  0  0  0  0  0  0
    1.1837   -0.8040    1.8060 H   0  0  0  0  0  0  0  0  0  0  0  0
    1.9432   -1.9986    0.7378 H   0  0  0  0  0  0  0  0  0  0  0  0
    3.5322   -0.6430    0.1950 H   0  0  0  0  0  0  0  0  0  0  0  0
  1  2  1  0
  2  3  1  0
  3  4  1  0
  4  5  1  0
  4  6  1  0
  6  7  1  0
  6  8  1  0
  8  9  1  0
  8 10  1  0
 10 11  1  0
 11 12  1  0
 10  3  1  0
  1 13  1  0
  2 14  1  0
  2 15  1  0
  3 16  1  6
  4 17  1  1
  5 18  1  0
  6 19  1  6
  7 20  1  0
  8 21  1  1
  9 22  1  0
 10 23  1  6
 11 24  1  0
 11 25  1  0
 12 26  1  0
M  END
$$$$
[H]OC(C#Cc1nc([H])c(OC([H])([H])[C@@]2([H])C([H])([H])N([H])C([H])([H])C([H])([H])C2([H])[H])c2c1nc(-c1nonc1N([H])[H])n2C([H])([H])C([H])([H])[H])(C([H])([H])[H])C([H])([H])[H]
     RDKit          3D

 58 61  0  0  0  0  0  0  0  0999 V2000
    1.6416   -2.4836   -0.7595 C   0  0  0  0  0  0  0  0  0  0  0  0
    0.8857   -2.1647    0.4970 C   0  0  0  0  0  0  0  0  0  0  0  0
   -0.3932   -1.5807    0.3248 N   0  0  0  0  0  0  0  0  0  0  0  0
   -1.6164   -2.1012    0.2426 C   0  0  0  0  0  0  0  0  0  0  0  0
   -2.5057   -1.0428    0.0728 N   0  0  0  0  0  0  0  0  0  0  0  0
   -1.8383    0.0746    0.0529 C   0  0  0  0  0  0  0  0  0  0  0  0
   -2.2969    1.3913   -0.0933 C   0  0  0  0  0  0  0  0  0  0  0  0
   -1.3975    2.3860   -0.0809 N   0  0  0  0  0  0  0  0  0  0  0  0
   -0.0856    2.1538    0.0659 C   0  0  0  0  0  0  0  0  0  0  0  0
    0.3750    0.8394    0.2120 C   0  0  0  0  0  0  0  0  0  0  0  0
    1.7625    0.6421    0.3592 O   0  0  0  0  0  0  0  0  0  0  0  0
    2.6411    1.7393    0.3717 C   0  0  0  0  0  0  0  0  0  0  0  0
    4.0505    1.2495    0.5355 C   0  0  2  0  0  0  0  0  0  0  0  0
    5.0435    2.4061    0.5784 C   0  0  0  0  0  0  0  0  0  0  0  0
    6.3760    1.8727    0.0941 C   0  0  0  0  0  0  0  0  0  0  0  0
    6.4677    0.3711    0.3176 C   0  0  0  0  0  0  0  0  0  0  0  0
    5.5455   -0.3503   -0.5527 N   0  0  0  0  0  0  0  0  0  0  0  0
    4.3938    0.4851   -0.7515 C   0  0  0  0  0  0  0  0  0  0  0  0
   -0.5081   -0.2126    0.2068 C   0  0  0  0  0  0  0  0  0  0  0  0
   -3.7094    1.5883   -0.2478 C   0  0  0  0  0  0  0  0  0  0  0  0
   -4.9106    1.7784   -0.3806 C   0  0  0  0  0  0  0  0  0  0  0  0
   -6.3453    2.0314   -0.5387 C   0  0  0  0  0  0  0  0  0  0  0  0
   -6.9661    2.6037    0.6937 C   0  0  0  0  0  0  0  0  0  0  0  0
   -6.9777    0.7227   -0.9562 C   0  0  0  0  0  0  0  0  0  0  0  0
   -6.5806    2.9347   -1.5932 O   0  0  0  0  0  0  0  0  0  0  0  0
   -2.1229   -3.4548    0.2995 C   0  0  0  0  0  0  0  0  0  0  0  0
   -3.5012   -3.6362    0.1842 N   0  0  0  0  0  0  0  0  0  0  0  0
   -3.7679   -4.8820    0.2473 O   0  0  0  0  0  0  0  0  0  0  0  0
   -2.7391   -5.6074    0.3940 N   0  0  0  0  0  0  0  0  0  0  0  0
   -1.6749   -4.7022    0.4288 C   0  0  0  0  0  0  0  0  0  0  0  0
   -0.3478   -5.1391    0.5749 N   0  0  0  0  0  0  0  0  0  0  0  0
    1.2502   -3.3772   -1.2676 H   0  0  0  0  0  0  0  0  0  0  0  0
    1.7261   -1.6082   -1.4354 H   0  0  0  0  0  0  0  0  0  0  0  0
    2.6871   -2.7369   -0.4524 H   0  0  0  0  0  0  0  0  0  0  0  0
    0.8710   -3.0048    1.1883 H   0  0  0  0  0  0  0  0  0  0  0  0
    1.5516   -1.3866    1.0255 H   0  0  0  0  0  0  0  0  0  0  0  0
    0.6592    2.9381    0.0791 H   0  0  0  0  0  0  0  0  0  0  0  0
    2.6001    2.2902   -0.5996 H   0  0  0  0  0  0  0  0  0  0  0  0
    2.4074    2.4668    1.1773 H   0  0  0  0  0  0  0  0  0  0  0  0
    4.1960    0.6570    1.4375 H   0  0  0  0  0  0  0  0  0  0  0  0
    4.6893    3.2605   -0.0378 H   0  0  0  0  0  0  0  0  0  0  0  0
    5.1731    2.7708    1.6102 H   0  0  0  0  0  0  0  0  0  0  0  0
    6.5324    2.0599   -0.9919 H   0  0  0  0  0  0  0  0  0  0  0  0
    7.2093    2.3190    0.6834 H   0  0  0  0  0  0  0  0  0  0  0  0
    7.4780    0.0360    0.0580 H   0  0  0  0  0  0  0  0  0  0  0  0
    6.2888    0.1355    1.3680 H   0  0  0  0  0  0  0  0  0  0  0  0
    5.9907   -0.4915   -1.4882 H   0  0  0  0  0  0  0  0  0  0  0  0
    4.6246    1.2876   -1.5131 H   0  0  0  0  0  0  0  0  0  0  0  0
    3.5053   -0.0388   -1.0965 H   0  0  0  0  0  0  0  0  0  0  0  0
   -6.2419    3.2799    1.1847 H   0  0  0  0  0  0  0  0  0  0  0  0
   -7.2756    1.8299    1.4277 H   0  0  0  0  0  0  0  0  0  0  0  0
   -7.8363    3.2209    0.3898 H   0  0  0  0  0  0  0  0  0  0  0  0
   -7.8110    0.9143   -1.6630 H   0  0  0  0  0  0  0  0  0  0  0  0
   -6.2495    0.0863   -1.4849 H   0  0  0  0  0  0  0  0  0  0  0  0
   -7.4324    0.2122   -0.0779 H   0  0  0  0  0  0  0  0  0  0  0  0
   -5.8035    3.5774   -1.5492 H   0  0  0  0  0  0  0  0  0  0  0  0
    0.1013   -5.2568    1.5016 H   0  0  0  0  0  0  0  0  0  0  0  0
    0.2112   -5.3543   -0.2729 H   0  0  0  0  0  0  0  0  0  0  0  0
  1  2  1  0
  2  3  1  0
  3  4  1  0
  4  5  2  0
  5  6  1  0
  6  7  2  0
  7  8  1  0
  8  9  2  0
  9 10  1  0
 10 11  1  0
 11 12  1  0
 12 13  1  0
 13 14  1  0
 14 15  1  0
 15 16  1  0
 16 17  1  0
 17 18  1  0
 10 19  2  0
  7 20  1  0
 20 21  3  0
 21 22  1  0
 22 23  1  0
 22 24  1  0
 22 25  1  0
  4 26  1  0
 26 27  2  0
 27 28  1  0
 28 29  1  0
 29 30  2  0
 30 31  1  0
 19  3  1  0
 30 26  1  0
 19  6  1  0
 18 13  1  0
  1 32  1  0
  1 33  1  0
  1 34  1  0
  2 35  1  0
  2 36  1  0
  9 37  1  0
 12 38  1  0
 12 39  1  0
 13 40  1  1
 14 41  1  0
 14 42  1  0
 15 43  1  0
 15 44  1  0
 16 45  1  0
 16 46  1  0
 17 47  1  0
 18 48  1  0
 18 49  1  0
 23 50  1  0
 23 51  1  0
 23 52  1  0
 24 53  1  0
 24 54  1  0
 24 55  1  0
 25 56  1  0
 31 57  1  0
 31 58  1  0
M  END
$$$$
[H]OC(=O)c1c([H])c([H])c(/C([H])=C(\[H])c2c([H])c([H])c([H])c(/C([H])=C(\[H])c3c([H])c([H])c(C(=O)N([H])C([H])([H])c4c([H])c([H])c([H])c([H])c4[H])c([H])c3[H])c2[H])c([H])c1[H]
     RDKit          3D

 60 63  0  0  0  0  0  0  0  0999 V2000
   11.6594    1.2463    2.1663 O   0  0  0  0  0  0  0  0  0  0  0  0
   10.3128    1.3648    2.4368 C   0  0  0  0  0  0  0  0  0  0  0  0
    9.9620    1.8256    3.5483 O   0  0  0  0  0  0  0  0  0  0  0  0
    9.2769    0.9783    1.4886 C   0  0  0  0  0  0  0  0  0  0  0  0
    9.5673    0.4637    0.2451 C   0  0  0  0  0  0  0  0  0  0  0  0
    8.6094    0.0926   -0.6618 C   0  0  0  0  0  0  0  0  0  0  0  0
    7.2629    0.2329   -0.3340 C   0  0  0  0  0  0  0  0  0  0  0  0
    6.2567   -0.1750   -1.3198 C   0  0  0  0  0  0  0  0  0  0  0  0
    4.9599   -0.0959   -1.1626 C   0  0  0  0  0  0  0  0  0  0  0  0
    3.9476   -0.4914   -2.1177 C   0  0  0  0  0  0  0  0  0  0  0  0
    4.2727   -1.0198   -3.3273 C   0  0  0  0  0  0  0  0  0  0  0  0
    3.2816   -1.4014   -4.2508 C   0  0  0  0  0  0  0  0  0  0  0  0
    1.9540   -1.2372   -3.9254 C   0  0  0  0  0  0  0  0  0  0  0  0
    1.6079   -0.6967   -2.6893 C   0  0  0  0  0  0  0  0  0  0  0  0
    0.1825   -0.5426   -2.3884 C   0  0  0  0  0  0  0  0  0  0  0  0
   -0.3114   -0.0495   -1.2883 C   0  0  0  0  0  0  0  0  0  0  0  0
   -1.7323    0.1077   -0.9797 C   0  0  0  0  0  0  0  0  0  0  0  0
   -2.7480   -0.2616   -1.8345 C   0  0  0  0  0  0  0  0  0  0  0  0
   -4.0705   -0.1154   -1.5497 C   0  0  0  0  0  0  0  0  0  0  0  0
   -4.4828    0.4384   -0.3280 C   0  0  0  0  0  0  0  0  0  0  0  0
   -3.4704    0.8100    0.5318 C   0  0  0  0  0  0  0  0  0  0  0  0
   -2.1392    0.6555    0.2285 C   0  0  0  0  0  0  0  0  0  0  0  0
   -5.8969    0.5846   -0.0334 C   0  0  0  0  0  0  0  0  0  0  0  0
   -6.7285    0.0808   -0.8263 O   0  0  0  0  0  0  0  0  0  0  0  0
   -6.3453    1.2651    1.0986 N   0  0  0  0  0  0  0  0  0  0  0  0
   -7.7456    1.4381    1.4416 C   0  0  0  0  0  0  0  0  0  0  0  0
   -8.3676    0.2335    2.0097 C   0  0  0  0  0  0  0  0  0  0  0  0
   -9.1595   -0.5884    1.2493 C   0  0  0  0  0  0  0  0  0  0  0  0
   -9.7611   -1.7427    1.7607 C   0  0  0  0  0  0  0  0  0  0  0  0
   -9.5270   -2.0340    3.0836 C   0  0  0  0  0  0  0  0  0  0  0  0
   -8.7359   -1.2131    3.8440 C   0  0  0  0  0  0  0  0  0  0  0  0
   -8.1527   -0.0847    3.3291 C   0  0  0  0  0  0  0  0  0  0  0  0
    2.6028   -0.3331   -1.8069 C   0  0  0  0  0  0  0  0  0  0  0  0
    6.9708    0.7422    0.8963 C   0  0  0  0  0  0  0  0  0  0  0  0
    7.9436    1.1116    1.7992 C   0  0  0  0  0  0  0  0  0  0  0  0
   12.2397    2.0979    2.1412 H   0  0  0  0  0  0  0  0  0  0  0  0
   10.6357    0.3656    0.0159 H   0  0  0  0  0  0  0  0  0  0  0  0
    8.8967   -0.3135   -1.6432 H   0  0  0  0  0  0  0  0  0  0  0  0
    6.6174   -0.5745   -2.2556 H   0  0  0  0  0  0  0  0  0  0  0  0
    4.6371    0.3209   -0.1874 H   0  0  0  0  0  0  0  0  0  0  0  0
    5.3027   -1.1576   -3.6031 H   0  0  0  0  0  0  0  0  0  0  0  0
    3.5694   -1.8219   -5.2119 H   0  0  0  0  0  0  0  0  0  0  0  0
    1.1705   -1.5268   -4.6273 H   0  0  0  0  0  0  0  0  0  0  0  0
   -0.5390   -0.8623   -3.1365 H   0  0  0  0  0  0  0  0  0  0  0  0
    0.3829    0.2738   -0.5334 H   0  0  0  0  0  0  0  0  0  0  0  0
   -2.4915   -0.7015   -2.8067 H   0  0  0  0  0  0  0  0  0  0  0  0
   -4.8732   -0.4075   -2.2255 H   0  0  0  0  0  0  0  0  0  0  0  0
   -3.7254    1.2482    1.5046 H   0  0  0  0  0  0  0  0  0  0  0  0
   -1.3515    0.9575    0.9259 H   0  0  0  0  0  0  0  0  0  0  0  0
   -5.6418    1.6872    1.7574 H   0  0  0  0  0  0  0  0  0  0  0  0
   -7.8418    2.2599    2.1761 H   0  0  0  0  0  0  0  0  0  0  0  0
   -8.3094    1.7345    0.5322 H   0  0  0  0  0  0  0  0  0  0  0  0
   -9.3766   -0.4017    0.2043 H   0  0  0  0  0  0  0  0  0  0  0  0
  -10.3807   -2.3781    1.1495 H   0  0  0  0  0  0  0  0  0  0  0  0
   -9.9675   -2.9142    3.5301 H   0  0  0  0  0  0  0  0  0  0  0  0
   -8.5696   -1.4717    4.8901 H   0  0  0  0  0  0  0  0  0  0  0  0
   -7.5306    0.5414    3.9666 H   0  0  0  0  0  0  0  0  0  0  0  0
    2.3441    0.0873   -0.8450 H   0  0  0  0  0  0  0  0  0  0  0  0
    5.9208    0.8704    1.1984 H   0  0  0  0  0  0  0  0  0  0  0  0
    7.6259    1.5052    2.7498 H   0  0  0  0  0  0  0  0  0  0  0  0
  1  2  1  0
  2  3  2  0
  2  4  1  0
  4  5  2  0
  5  6  1  0
  6  7  2  0
  7  8  1  0
  8  9  2  0
  9 10  1  0
 10 11  2  0
 11 12  1  0
 12 13  2  0
 13 14  1  0
 14 15  1  0
 15 16  2  0
 16 17  1  0
 17 18  2  0
 18 19  1  0
 19 20  2  0
 20 21  1  0
 21 22  2  0
 20 23  1  0
 23 24  2  0
 23 25  1  0
 25 26  1  0
 26 27  1  0
 27 28  2  0
 28 29  1  0
 29 30  2  0
 30 31  1  0
 31 32  2  0
 14 33  2  0
  7 34  1  0
 34 35  2  0
 35  4  1  0
 33 10  1  0
 22 17  1  0
 32 27  1  0
  1 36  1  0
  5 37  1  0
  6 38  1  0
  8 39  1  0
  9 40  1  0
 11 41  1  0
 12 42  1  0
 13 43  1  0
 15 44  1  0
 16 45  1  0
 18 46  1  0
 19 47  1  0
 21 48  1  0
 22 49  1  0
 25 50  1  0
 26 51  1  0
 26 52  1  0
 28 53  1  0
 29 54  1  0
 30 55  1  0
 31 56  1  0
 32 57  1  0
 33 58  1  0
 34 59  1  0
 35 60  1  0
M  END
$$$$
[H]c1c([H])c([H])c2c(c1[H])c1c3c(c4c5c([H])c([H])c([H])c([H])c5n5c4c1n2[C@]1([H])O[C@]5(C([H])([H])[H])[C@@]([H])(OC([H])([H])[H])[C@]([H])(N([H])C([H])([H])[H])C1([H])[H])C([H])([H])N([H])C3=O
     RDKit          3D

 61 68  0  0  0  0  0  0  0  0999 V2000
   -5.0032    2.3015   -0.0847 C   0  0  0  0  0  0  0  0  0  0  0  0
   -4.2911    1.1206   -0.5239 N   0  0  0  0  0  0  0  0  0  0  0  0
   -3.1564    0.9314    0.3042 C   0  0  2  0  0  0  0  0  0  0  0  0
   -2.1540    2.1226    0.1663 C   0  0  0  0  0  0  0  0  0  0  0  0
   -0.9665    1.4540   -0.0205 C   0  0  1  0  0  0  0  0  0  0  0  0
   -1.1415    0.7448   -1.1981 O   0  0  0  0  0  0  0  0  0  0  0  0
   -1.4119   -0.5987   -0.7868 C   0  0  2  0  0  0  0  0  0  0  0  0
   -1.8712   -1.2254   -2.1322 C   0  0  0  0  0  0  0  0  0  0  0  0
   -2.4889   -0.4501    0.1598 C   0  0  1  0  0  0  0  0  0  0  0  0
   -2.3890   -1.1153    1.3880 O   0  0  0  0  0  0  0  0  0  0  0  0
   -3.3269   -2.1274    1.5521 C   0  0  0  0  0  0  0  0  0  0  0  0
   -0.1378   -1.2020   -0.4914 N   0  0  0  0  0  0  0  0  0  0  0  0
    0.1616   -2.5344   -0.6109 C   0  0  0  0  0  0  0  0  0  0  0  0
   -0.5901   -3.6465   -0.8619 C   0  0  0  0  0  0  0  0  0  0  0  0
    0.0056   -4.9014   -0.9123 C   0  0  0  0  0  0  0  0  0  0  0  0
    1.3589   -5.0700   -0.7130 C   0  0  0  0  0  0  0  0  0  0  0  0
    2.1437   -3.9569   -0.4556 C   0  0  0  0  0  0  0  0  0  0  0  0
    1.5172   -2.7445   -0.4151 C   0  0  0  0  0  0  0  0  0  0  0  0
    2.0596   -1.5148   -0.1645 C   0  0  0  0  0  0  0  0  0  0  0  0
    3.3310   -1.0167    0.0798 C   0  0  0  0  0  0  0  0  0  0  0  0
    4.6039   -1.7769    0.1721 C   0  0  0  0  0  0  0  0  0  0  0  0
    5.6037   -0.7850    0.4503 N   0  0  0  0  0  0  0  0  0  0  0  0
    5.0034    0.5280    0.5134 C   0  0  0  0  0  0  0  0  0  0  0  0
    5.7188    1.5160    0.7371 O   0  0  0  0  0  0  0  0  0  0  0  0
    3.6006    0.3262    0.2783 C   0  0  0  0  0  0  0  0  0  0  0  0
    2.5644    1.2461    0.2408 C   0  0  0  0  0  0  0  0  0  0  0  0
    2.4247    2.5831    0.4378 C   0  0  0  0  0  0  0  0  0  0  0  0
    3.2960    3.5951    0.7015 C   0  0  0  0  0  0  0  0  0  0  0  0
    2.7602    4.8881    0.8432 C   0  0  0  0  0  0  0  0  0  0  0  0
    1.4157    5.1498    0.7252 C   0  0  0  0  0  0  0  0  0  0  0  0
    0.5372    4.1127    0.4564 C   0  0  0  0  0  0  0  0  0  0  0  0
    1.0796    2.8483    0.3203 C   0  0  0  0  0  0  0  0  0  0  0  0
    0.4024    1.7469    0.0621 N   0  0  0  0  0  0  0  0  0  0  0  0
    1.3106    0.7318   -0.0025 C   0  0  0  0  0  0  0  0  0  0  0  0
    1.0507   -0.6266   -0.2113 C   0  0  0  0  0  0  0  0  0  0  0  0
   -4.4222    3.2206   -0.0758 H   0  0  0  0  0  0  0  0  0  0  0  0
   -5.9751    2.4312   -0.6421 H   0  0  0  0  0  0  0  0  0  0  0  0
   -5.3325    2.1331    0.9827 H   0  0  0  0  0  0  0  0  0  0  0  0
   -4.9231    0.3185   -0.4524 H   0  0  0  0  0  0  0  0  0  0  0  0
   -3.5204    0.9543    1.3717 H   0  0  0  0  0  0  0  0  0  0  0  0
   -2.2319    2.7634    1.0681 H   0  0  0  0  0  0  0  0  0  0  0  0
   -2.5549    2.7584   -0.6810 H   0  0  0  0  0  0  0  0  0  0  0  0
   -1.0177    0.7572    0.9341 H   0  0  0  0  0  0  0  0  0  0  0  0
   -2.1640   -0.4180   -2.8609 H   0  0  0  0  0  0  0  0  0  0  0  0
   -1.0623   -1.7738   -2.6232 H   0  0  0  0  0  0  0  0  0  0  0  0
   -2.8063   -1.7859   -1.9703 H   0  0  0  0  0  0  0  0  0  0  0  0
   -3.3692   -1.0206   -0.3155 H   0  0  0  0  0  0  0  0  0  0  0  0
   -4.3685   -1.7465    1.5031 H   0  0  0  0  0  0  0  0  0  0  0  0
   -3.1360   -2.7642    2.4105 H   0  0  0  0  0  0  0  0  0  0  0  0
   -3.2309   -2.7727    0.6280 H   0  0  0  0  0  0  0  0  0  0  0  0
   -1.6587   -3.5713   -1.0137 H   0  0  0  0  0  0  0  0  0  0  0  0
   -0.5879   -5.7740   -1.1105 H   0  0  0  0  0  0  0  0  0  0  0  0
    1.8233   -6.0462   -0.7522 H   0  0  0  0  0  0  0  0  0  0  0  0
    3.2016   -4.0714   -0.2980 H   0  0  0  0  0  0  0  0  0  0  0  0
    4.5688   -2.4736    1.0276 H   0  0  0  0  0  0  0  0  0  0  0  0
    4.8295   -2.3223   -0.7651 H   0  0  0  0  0  0  0  0  0  0  0  0
    6.6092   -1.0259    0.5823 H   0  0  0  0  0  0  0  0  0  0  0  0
    4.3503    3.4578    0.8021 H   0  0  0  0  0  0  0  0  0  0  0  0
    3.4660    5.6873    1.0540 H   0  0  0  0  0  0  0  0  0  0  0  0
    1.0161    6.1615    0.8387 H   0  0  0  0  0  0  0  0  0  0  0  0
   -0.5241    4.2689    0.3538 H   0  0  0  0  0  0  0  0  0  0  0  0
  1  2  1  0
  2  3  1  0
  3  4  1  0
  4  5  1  0
  5  6  1  0
  6  7  1  0
  7  8  1  6
  7  9  1  0
  9 10  1  0
 10 11  1  0
  7 12  1  0
 12 13  1  0
 13 14  2  0
 14 15  1  0
 15 16  2  0
 16 17  1  0
 17 18  2  0
 18 19  1  0
 19 20  2  0
 20 21  1  0
 21 22  1  0
 22 23  1  0
 23 24  2  0
 23 25  1  0
 25 26  2  0
 26 27  1  0
 27 28  2  0
 28 29  1  0
 29 30  2  0
 30 31  1  0
 31 32  2  0
 32 33  1  0
 33 34  1  0
 34 35  2  0
  9  3  1  0
 35 12  1  0
 33  5  1  0
 18 13  1  0
 35 19  1  0
 25 20  1  0
 34 26  1  0
 32 27  1  0
  1 36  1  0
  1 37  1  0
  1 38  1  0
  2 39  1  0
  3 40  1  1
  4 41  1  0
  4 42  1  0
  5 43  1  1
  8 44  1  0
  8 45  1  0
  8 46  1  0
  9 47  1  6
 11 48  1  0
 11 49  1  0
 11 50  1  0
 14 51  1  0
 15 52  1  0
 16 53  1  0
 17 54  1  0
 21 55  1  0
 21 56  1  0
 22 57  1  0
 28 58  1  0
 29 59  1  0
 30 60  1  0
 31 61  1  0
M  END
$$$$
[H]OC(=O)c1c([H])c([H])c2c(nc(N([H])c3c([H])c([H])c([H])c(Cl)c3[H])c3nc(N([H])C4([H])C([H])([H])C4([H])[H])nc([H])c32)c1[H]
     RDKit          3D

 45 49  0  0  0  0  0  0  0  0999 V2000
   -2.4489    6.9585   -1.5870 O   0  0  0  0  0  0  0  0  0  0  0  0
   -1.2400    6.3250   -1.2736 C   0  0  0  0  0  0  0  0  0  0  0  0
   -0.1745    6.9800   -1.2105 O   0  0  0  0  0  0  0  0  0  0  0  0
   -1.2703    4.8719   -1.0263 C   0  0  0  0  0  0  0  0  0  0  0  0
   -2.4565    4.1848   -1.0727 C   0  0  0  0  0  0  0  0  0  0  0  0
   -2.4845    2.7942   -0.8482 C   0  0  0  0  0  0  0  0  0  0  0  0
   -1.3132    2.1666   -0.5878 C   0  0  0  0  0  0  0  0  0  0  0  0
   -0.1028    2.8338   -0.5353 C   0  0  0  0  0  0  0  0  0  0  0  0
   -0.0969    4.2015   -0.7582 C   0  0  0  0  0  0  0  0  0  0  0  0
    1.0281    2.1639   -0.2826 N   0  0  0  0  0  0  0  0  0  0  0  0
    1.1177    0.8550   -0.0641 C   0  0  0  0  0  0  0  0  0  0  0  0
    2.2007    0.0834    0.1454 N   0  0  0  0  0  0  0  0  0  0  0  0
    3.2752   -0.6822    0.3534 C   0  0  0  0  0  0  0  0  0  0  0  0
    3.4630   -1.2726    1.6007 C   0  0  0  0  0  0  0  0  0  0  0  0
    4.5116   -2.1116    1.8420 C   0  0  0  0  0  0  0  0  0  0  0  0
    5.3969   -2.3771    0.8414 C   0  0  0  0  0  0  0  0  0  0  0  0
    5.2598   -1.8215   -0.4049 C   0  0  0  0  0  0  0  0  0  0  0  0
    6.4115   -2.1843   -1.6684 Cl  0  0  0  0  0  0  0  0  0  0  0  0
    4.1886   -0.9721   -0.6312 C   0  0  0  0  0  0  0  0  0  0  0  0
   -0.1469    0.1844   -0.1209 C   0  0  0  0  0  0  0  0  0  0  0  0
   -0.0711   -1.1451    0.1026 N   0  0  0  0  0  0  0  0  0  0  0  0
   -1.2161   -1.8549    0.0662 C   0  0  0  0  0  0  0  0  0  0  0  0
   -1.1919   -3.2746    0.3025 N   0  0  0  0  0  0  0  0  0  0  0  0
   -2.3801   -4.0924    0.2661 C   0  0  0  0  0  0  0  0  0  0  0  0
   -3.5385   -3.8094    1.1864 C   0  0  0  0  0  0  0  0  0  0  0  0
   -2.6809   -5.0341    1.3751 C   0  0  0  0  0  0  0  0  0  0  0  0
   -2.3834   -1.2660   -0.1798 N   0  0  0  0  0  0  0  0  0  0  0  0
   -2.5202    0.0667   -0.4107 C   0  0  0  0  0  0  0  0  0  0  0  0
   -1.3304    0.8003   -0.3723 C   0  0  0  0  0  0  0  0  0  0  0  0
   -3.0514    6.4983   -2.2884 H   0  0  0  0  0  0  0  0  0  0  0  0
   -3.3612    4.7022   -1.2841 H   0  0  0  0  0  0  0  0  0  0  0  0
   -3.4107    2.2829   -0.8867 H   0  0  0  0  0  0  0  0  0  0  0  0
    0.8622    4.6778   -0.7070 H   0  0  0  0  0  0  0  0  0  0  0  0
    3.0305    1.1757    0.2336 H   0  0  0  0  0  0  0  0  0  0  0  0
    2.7330   -1.0332    2.3847 H   0  0  0  0  0  0  0  0  0  0  0  0
    4.6772   -2.5847    2.8055 H   0  0  0  0  0  0  0  0  0  0  0  0
    6.2436   -3.0571    1.0468 H   0  0  0  0  0  0  0  0  0  0  0  0
    4.0940   -0.5386   -1.6211 H   0  0  0  0  0  0  0  0  0  0  0  0
   -0.2640   -3.7114    0.5052 H   0  0  0  0  0  0  0  0  0  0  0  0
   -2.7302   -4.4085   -0.7607 H   0  0  0  0  0  0  0  0  0  0  0  0
   -3.4709   -3.0272    1.9640 H   0  0  0  0  0  0  0  0  0  0  0  0
   -4.5812   -3.9680    0.8369 H   0  0  0  0  0  0  0  0  0  0  0  0
   -3.0830   -6.0257    1.0674 H   0  0  0  0  0  0  0  0  0  0  0  0
   -2.0260   -5.0641    2.2637 H   0  0  0  0  0  0  0  0  0  0  0  0
   -3.4682    0.5096   -0.6070 H   0  0  0  0  0  0  0  0  0  0  0  0
  1  2  1  0
  2  3  2  0
  2  4  1  0
  4  5  2  0
  5  6  1  0
  6  7  2  0
  7  8  1  0
  8  9  2  0
  8 10  1  0
 10 11  2  0
 11 12  1  0
 12 13  1  0
 13 14  2  0
 14 15  1  0
 15 16  2  0
 16 17  1  0
 17 18  1  0
 17 19  2  0
 11 20  1  0
 20 21  2  0
 21 22  1  0
 22 23  1  0
 23 24  1  0
 24 25  1  0
 25 26  1  0
 22 27  2  0
 27 28  1  0
 28 29  2  0
  9  4  1  0
 19 13  1  0
 29 20  1  0
 29  7  1  0
 26 24  1  0
  1 30  1  0
  5 31  1  0
  6 32  1  0
  9 33  1  0
 12 34  1  0
 14 35  1  0
 15 36  1  0
 16 37  1  0
 19 38  1  0
 23 39  1  0
 24 40  1  0
 25 41  1  0
 25 42  1  0
 26 43  1  0
 26 44  1  0
 28 45  1  0
M  END
$$$$
[H]C1=C(C(=O)[O-])N2C(=O)/C(=C(\[H])c3nc4n(c3[H])C([H])([H])C([H])([H])OC4([H])[H])[C@@]2([H])S1
     RDKit          3D

 31 34  0  0  0  0  0  0  0  0999 V2000
    6.1906   -0.6630   -2.3425 O   0  0  0  0  0  0  0  0  0  0  0  0
    5.5913   -0.0706   -1.2497 C   0  0  0  0  0  0  0  0  0  0  0  0
    6.3247    0.4041   -0.3488 O   0  0  0  0  0  0  0  0  0  0  0  0
    4.1314   -0.0227   -1.1903 C   0  0  0  0  0  0  0  0  0  0  0  0
    3.3681   -0.5203   -2.1353 C   0  0  0  0  0  0  0  0  0  0  0  0
    1.6844   -0.2222   -1.6019 S   0  0  0  0  0  0  0  0  0  0  0  0
    2.1605   -0.0467    0.1821 C   0  0  1  0  0  0  0  0  0  0  0  0
    3.4673    0.5887   -0.1217 N   0  0  0  0  0  0  0  0  0  0  0  0
    3.1570    1.4861    0.9657 C   0  0  0  0  0  0  0  0  0  0  0  0
    3.8569    2.2273    1.6963 O   0  0  0  0  0  0  0  0  0  0  0  0
    1.7346    1.1605    0.8391 C   0  0  0  0  0  0  0  0  0  0  0  0
    0.6230    1.7520    1.1938 C   0  0  0  0  0  0  0  0  0  0  0  0
   -0.6752    1.1575    0.9256 C   0  0  0  0  0  0  0  0  0  0  0  0
   -0.9601   -0.1860    0.9892 C   0  0  0  0  0  0  0  0  0  0  0  0
   -2.2586   -0.3728    0.6873 N   0  0  0  0  0  0  0  0  0  0  0  0
   -3.1022   -1.5475    0.5938 C   0  0  0  0  0  0  0  0  0  0  0  0
   -4.1463   -1.2193   -0.4794 C   0  0  0  0  0  0  0  0  0  0  0  0
   -4.9169   -0.1978    0.0493 O   0  0  0  0  0  0  0  0  0  0  0  0
   -4.2396    1.0079    0.0653 C   0  0  0  0  0  0  0  0  0  0  0  0
   -2.8087    0.8260    0.4318 C   0  0  0  0  0  0  0  0  0  0  0  0
   -1.8284    1.7516    0.5815 N   0  0  0  0  0  0  0  0  0  0  0  0
    3.6375   -1.0040   -3.0331 H   0  0  0  0  0  0  0  0  0  0  0  0
    2.2389   -0.9878    0.7102 H   0  0  0  0  0  0  0  0  0  0  0  0
    0.6073    2.7183    1.7097 H   0  0  0  0  0  0  0  0  0  0  0  0
   -0.2976   -1.0104    1.2326 H   0  0  0  0  0  0  0  0  0  0  0  0
   -2.5492   -2.4399    0.2558 H   0  0  0  0  0  0  0  0  0  0  0  0
   -3.6247   -1.7164    1.5744 H   0  0  0  0  0  0  0  0  0  0  0  0
   -3.5563   -0.7899   -1.3222 H   0  0  0  0  0  0  0  0  0  0  0  0
   -4.7231   -2.1036   -0.7667 H   0  0  0  0  0  0  0  0  0  0  0  0
   -4.7581    1.6482    0.8397 H   0  0  0  0  0  0  0  0  0  0  0  0
   -4.3285    1.5277   -0.9315 H   0  0  0  0  0  0  0  0  0  0  0  0
  1  2  1  0
  2  3  2  0
  2  4  1  0
  4  5  2  0
  5  6  1  0
  6  7  1  0
  7  8  1  0
  8  9  1  0
  9 10  2  0
  9 11  1  0
 11 12  2  0
 12 13  1  0
 13 14  2  0
 14 15  1  0
 15 16  1  0
 16 17  1  0
 17 18  1  0
 18 19  1  0
 19 20  1  0
 20 21  2  0
  8  4  1  0
 21 13  1  0
 11  7  1  0
 20 15  1  0
  5 22  1  0
  7 23  1  1
 12 24  1  0
 14 25  1  0
 16 26  1  0
 16 27  1  0
 17 28  1  0
 17 29  1  0
 19 30  1  0
 19 31  1  0
M  CHG  1   1  -1
M  END
$$$$
[H]C#C[C@@]1(O[H])C([H])([H])C([H])([H])[C@]2([H])[C@]1(C([H])([H])[H])C([H])([H])C([H])([H])[C@]1([H])[C@]3(C([H])([H])[H])C(=C([H])C(=O)C([H])([H])C3([H])[H])C([H])([H])C([H])([H])[C@@]21[H]
     RDKit          3D

 51 54  0  0  0  0  0  0  0  0999 V2000
    2.2606    0.7291    1.7142 C   0  0  0  0  0  0  0  0  0  0  0  0
    2.1373    0.5205    0.2265 C   0  0  2  0  0  0  0  0  0  0  0  0
    1.3534    1.5757   -0.4514 C   0  0  0  0  0  0  0  0  0  0  0  0
   -0.0137    1.5900    0.2476 C   0  0  0  0  0  0  0  0  0  0  0  0
   -0.7024    0.3021   -0.1488 C   0  0  1  0  0  0  0  0  0  0  0  0
    0.0743   -0.9220    0.2252 C   0  0  1  0  0  0  0  0  0  0  0  0
   -0.5189   -2.0522   -0.6337 C   0  0  0  0  0  0  0  0  0  0  0  0
   -1.9685   -2.2466   -0.3454 C   0  0  0  0  0  0  0  0  0  0  0  0
   -2.7442   -0.9899   -0.2208 C   0  0  0  0  0  0  0  0  0  0  0  0
   -4.0318   -1.0482   -0.6024 C   0  0  0  0  0  0  0  0  0  0  0  0
   -4.9234    0.0865   -0.5439 C   0  0  0  0  0  0  0  0  0  0  0  0
   -6.1060    0.0886   -0.9039 O   0  0  0  0  0  0  0  0  0  0  0  0
   -4.3648    1.3588   -0.0032 C   0  0  0  0  0  0  0  0  0  0  0  0
   -2.8721    1.4424   -0.2477 C   0  0  0  0  0  0  0  0  0  0  0  0
   -2.1413    0.2626    0.2973 C   0  0  2  0  0  0  0  0  0  0  0  0
   -2.2977    0.2531    1.7910 C   0  0  0  0  0  0  0  0  0  0  0  0
    1.4949   -0.8184   -0.1059 C   0  0  2  0  0  0  0  0  0  0  0  0
    2.4313   -1.7455    0.5694 C   0  0  0  0  0  0  0  0  0  0  0  0
    3.7972   -1.1164    0.2681 C   0  0  0  0  0  0  0  0  0  0  0  0
    3.4941    0.2505   -0.3277 C   0  0  1  0  0  0  0  0  0  0  0  0
    3.4080    0.0701   -1.7194 O   0  0  0  0  0  0  0  0  0  0  0  0
    4.4923    1.2423    0.0239 C   0  0  0  0  0  0  0  0  0  0  0  0
    5.3144    2.0648    0.2933 C   0  0  0  0  0  0  0  0  0  0  0  0
    2.0261    1.7950    1.9162 H   0  0  0  0  0  0  0  0  0  0  0  0
    3.3252    0.5984    2.0628 H   0  0  0  0  0  0  0  0  0  0  0  0
    1.6583    0.0483    2.3160 H   0  0  0  0  0  0  0  0  0  0  0  0
    1.1437    1.2519   -1.4920 H   0  0  0  0  0  0  0  0  0  0  0  0
    1.8197    2.5823   -0.4106 H   0  0  0  0  0  0  0  0  0  0  0  0
   -0.5556    2.4363   -0.1741 H   0  0  0  0  0  0  0  0  0  0  0  0
    0.0810    1.5875    1.3376 H   0  0  0  0  0  0  0  0  0  0  0  0
   -0.7380    0.3231   -1.2769 H   0  0  0  0  0  0  0  0  0  0  0  0
   -0.0499   -1.2285    1.2796 H   0  0  0  0  0  0  0  0  0  0  0  0
    0.0101   -2.9990   -0.4446 H   0  0  0  0  0  0  0  0  0  0  0  0
   -0.4151   -1.7048   -1.6866 H   0  0  0  0  0  0  0  0  0  0  0  0
   -2.0528   -2.7669    0.6333 H   0  0  0  0  0  0  0  0  0  0  0  0
   -2.3929   -2.8651   -1.1621 H   0  0  0  0  0  0  0  0  0  0  0  0
   -4.4473   -1.9924   -0.9797 H   0  0  0  0  0  0  0  0  0  0  0  0
   -4.5998    1.3752    1.0894 H   0  0  0  0  0  0  0  0  0  0  0  0
   -4.8327    2.2515   -0.4690 H   0  0  0  0  0  0  0  0  0  0  0  0
   -2.5384    2.3772    0.2918 H   0  0  0  0  0  0  0  0  0  0  0  0
   -2.7316    1.5637   -1.3424 H   0  0  0  0  0  0  0  0  0  0  0  0
   -1.5478   -0.3181    2.3280 H   0  0  0  0  0  0  0  0  0  0  0  0
   -2.3604    1.2746    2.2240 H   0  0  0  0  0  0  0  0  0  0  0  0
   -3.2962   -0.2154    2.0094 H   0  0  0  0  0  0  0  0  0  0  0  0
    1.6252   -0.9425   -1.2137 H   0  0  0  0  0  0  0  0  0  0  0  0
    2.3857   -2.7480    0.1056 H   0  0  0  0  0  0  0  0  0  0  0  0
    2.2634   -1.8437    1.6566 H   0  0  0  0  0  0  0  0  0  0  0  0
    4.3506   -1.7561   -0.4561 H   0  0  0  0  0  0  0  0  0  0  0  0
    4.3813   -1.0184    1.2070 H   0  0  0  0  0  0  0  0  0  0  0  0
    3.8607   -0.7523   -1.9856 H   0  0  0  0  0  0  0  0  0  0  0  0
    6.0542    2.7886    0.5190 H   0  0  0  0  0  0  0  0  0  0  0  0
  2  1  1  1
  2  3  1  0
  3  4  1  0
  4  5  1  0
  5  6  1  0
  6  7  1  0
  7  8  1  0
  8  9  1  0
  9 10  2  0
 10 11  1  0
 11 12  2  0
 11 13  1  0
 13 14  1  0
 14 15  1  0
 15 16  1  1
  6 17  1  0
 17 18  1  0
 18 19  1  0
 19 20  1  0
 20 21  1  0
 20 22  1  6
 22 23  3  0
 17  2  1  0
 20  2  1  0
 15  5  1  0
 15  9  1  0
  1 24  1  0
  1 25  1  0
  1 26  1  0
  3 27  1  0
  3 28  1  0
  4 29  1  0
  4 30  1  0
  5 31  1  6
  6 32  1  1
  7 33  1  0
  7 34  1  0
  8 35  1  0
  8 36  1  0
 10 37  1  0
 13 38  1  0
 13 39  1  0
 14 40  1  0
 14 41  1  0
 16 42  1  0
 16 43  1  0
 16 44  1  0
 17 45  1  6
 18 46  1  0
 18 47  1  0
 19 48  1  0
 19 49  1  0
 21 50  1  0
 23 51  1  0
M  END
$$$$
[H]OC([H])([H])C([H])([H])N1C([H])([H])C([H])([H])N(C2([H])C([H])([H])C([H])([H])N(c3c([H])c([H])c(N([H])c4nc([H])c(Cl)c(N([H])c5c([H])c([H])c([H])c([H])c5S(=O)(=O)C([H])(C([H])([H])[H])C([H])([H])[H])n4)c(OC([H])([H])[H])c3[H])C([H])([H])C2([H])[H])C([H])([H])C1([H])[H]
     RDKit          3D

 86 90  0  0  0  0  0  0  0  0999 V2000
   -2.3459   -2.1504   -4.2563 C   0  0  0  0  0  0  0  0  0  0  0  0
   -0.9888   -2.0985   -3.8706 O   0  0  0  0  0  0  0  0  0  0  0  0
   -0.6176   -1.4203   -2.7103 C   0  0  0  0  0  0  0  0  0  0  0  0
   -1.5770   -0.8045   -1.9469 C   0  0  0  0  0  0  0  0  0  0  0  0
   -1.2657   -0.1240   -0.7955 C   0  0  0  0  0  0  0  0  0  0  0  0
    0.0673   -0.0988   -0.4576 C   0  0  0  0  0  0  0  0  0  0  0  0
    1.0667   -0.7112   -1.2053 C   0  0  0  0  0  0  0  0  0  0  0  0
    0.7274   -1.3800   -2.3455 C   0  0  0  0  0  0  0  0  0  0  0  0
    1.6716   -2.0273   -3.1764 N   0  0  0  0  0  0  0  0  0  0  0  0
    3.0441   -2.1878   -3.0782 C   0  0  0  0  0  0  0  0  0  0  0  0
    3.6362   -2.9294   -4.0905 N   0  0  0  0  0  0  0  0  0  0  0  0
    4.9418   -3.1767   -4.1246 C   0  0  0  0  0  0  0  0  0  0  0  0
    5.7750   -2.7010   -3.1448 C   0  0  0  0  0  0  0  0  0  0  0  0
    7.4819   -3.0613   -3.2530 Cl  0  0  0  0  0  0  0  0  0  0  0  0
    5.2171   -1.9456   -2.1044 C   0  0  0  0  0  0  0  0  0  0  0  0
    6.1120   -1.5387   -1.1019 N   0  0  0  0  0  0  0  0  0  0  0  0
    5.9386   -0.7127    0.0129 C   0  0  0  0  0  0  0  0  0  0  0  0
    4.8734    0.1680    0.1570 C   0  0  0  0  0  0  0  0  0  0  0  0
    4.8025    0.9774    1.2704 C   0  0  0  0  0  0  0  0  0  0  0  0
    5.7488    0.9565    2.2598 C   0  0  0  0  0  0  0  0  0  0  0  0
    6.8117    0.0568    2.0826 C   0  0  0  0  0  0  0  0  0  0  0  0
    6.9358   -0.7693    1.0028 C   0  0  0  0  0  0  0  0  0  0  0  0
    8.2849   -1.8304    0.9188 S   0  0  0  0  0  0  0  0  0  0  0  0
    7.7680   -3.2451    0.9584 O   0  0  0  0  0  0  0  0  0  0  0  0
    9.2142   -1.6411   -0.2205 O   0  0  0  0  0  0  0  0  0  0  0  0
    9.2964   -1.6299    2.3919 C   0  0  0  0  0  0  0  0  0  0  0  0
   10.3484   -2.7514    2.2975 C   0  0  0  0  0  0  0  0  0  0  0  0
   10.0624   -0.3513    2.4036 C   0  0  0  0  0  0  0  0  0  0  0  0
    3.8922   -1.7527   -2.1616 N   0  0  0  0  0  0  0  0  0  0  0  0
   -2.2004    0.5129    0.0575 N   0  0  0  0  0  0  0  0  0  0  0  0
   -3.4741   -0.1017    0.2961 C   0  0  0  0  0  0  0  0  0  0  0  0
   -4.6234    0.8650    0.3140 C   0  0  0  0  0  0  0  0  0  0  0  0
   -4.2638    2.0813    1.1438 C   0  0  0  0  0  0  0  0  0  0  0  0
   -3.0368    2.7638    0.6634 C   0  0  0  0  0  0  0  0  0  0  0  0
   -1.8725    1.7645    0.6600 C   0  0  0  0  0  0  0  0  0  0  0  0
   -5.4143    2.8795    1.3399 N   0  0  0  0  0  0  0  0  0  0  0  0
   -6.0506    3.4296    0.1996 C   0  0  0  0  0  0  0  0  0  0  0  0
   -7.3767    2.7117   -0.0831 C   0  0  0  0  0  0  0  0  0  0  0  0
   -8.2662    2.9710    0.9968 N   0  0  0  0  0  0  0  0  0  0  0  0
   -9.1442    1.8806    1.3222 C   0  0  0  0  0  0  0  0  0  0  0  0
  -10.1784    1.5547    0.3038 C   0  0  0  0  0  0  0  0  0  0  0  0
  -11.0582    2.5669    0.0040 O   0  0  0  0  0  0  0  0  0  0  0  0
   -7.5691    3.3588    2.2327 C   0  0  0  0  0  0  0  0  0  0  0  0
   -6.3495    2.4395    2.3242 C   0  0  0  0  0  0  0  0  0  0  0  0
   -2.3947   -2.6541   -5.2658 H   0  0  0  0  0  0  0  0  0  0  0  0
   -2.7423   -1.1215   -4.4086 H   0  0  0  0  0  0  0  0  0  0  0  0
   -2.9300   -2.7158   -3.4951 H   0  0  0  0  0  0  0  0  0  0  0  0
   -2.6335   -0.8300   -2.2347 H   0  0  0  0  0  0  0  0  0  0  0  0
    0.3606    0.4252    0.4401 H   0  0  0  0  0  0  0  0  0  0  0  0
    2.0845   -0.6710   -0.8889 H   0  0  0  0  0  0  0  0  0  0  0  0
    1.2420   -2.4924   -4.0785 H   0  0  0  0  0  0  0  0  0  0  0  0
    5.3802   -3.7709   -4.9451 H   0  0  0  0  0  0  0  0  0  0  0  0
    7.1069   -1.9337   -1.2145 H   0  0  0  0  0  0  0  0  0  0  0  0
    4.1308    0.2164   -0.6278 H   0  0  0  0  0  0  0  0  0  0  0  0
    3.9481    1.6413    1.3242 H   0  0  0  0  0  0  0  0  0  0  0  0
    5.6853    1.5988    3.1372 H   0  0  0  0  0  0  0  0  0  0  0  0
    7.5239    0.0882    2.9110 H   0  0  0  0  0  0  0  0  0  0  0  0
    8.7490   -1.8099    3.3137 H   0  0  0  0  0  0  0  0  0  0  0  0
    9.9208   -3.7202    2.6315 H   0  0  0  0  0  0  0  0  0  0  0  0
   11.2300   -2.5372    2.9322 H   0  0  0  0  0  0  0  0  0  0  0  0
   10.7052   -2.8725    1.2574 H   0  0  0  0  0  0  0  0  0  0  0  0
    9.9643    0.0795    3.4441 H   0  0  0  0  0  0  0  0  0  0  0  0
    9.5920    0.4054    1.7422 H   0  0  0  0  0  0  0  0  0  0  0  0
   11.1403   -0.4664    2.2251 H   0  0  0  0  0  0  0  0  0  0  0  0
   -3.4353   -0.7003    1.2444 H   0  0  0  0  0  0  0  0  0  0  0  0
   -3.6305   -0.8938   -0.4929 H   0  0  0  0  0  0  0  0  0  0  0  0
   -5.4526    0.3536    0.8617 H   0  0  0  0  0  0  0  0  0  0  0  0
   -4.8710    1.1234   -0.7259 H   0  0  0  0  0  0  0  0  0  0  0  0
   -4.0022    1.6515    2.1623 H   0  0  0  0  0  0  0  0  0  0  0  0
   -2.7693    3.5499    1.4150 H   0  0  0  0  0  0  0  0  0  0  0  0
   -3.0916    3.1653   -0.3529 H   0  0  0  0  0  0  0  0  0  0  0  0
   -1.4700    1.6535    1.6842 H   0  0  0  0  0  0  0  0  0  0  0  0
   -1.0228    2.2133    0.0552 H   0  0  0  0  0  0  0  0  0  0  0  0
   -6.3709    4.4843    0.4478 H   0  0  0  0  0  0  0  0  0  0  0  0
   -5.4250    3.5274   -0.6998 H   0  0  0  0  0  0  0  0  0  0  0  0
   -7.7573    3.1900   -1.0276 H   0  0  0  0  0  0  0  0  0  0  0  0
   -7.1458    1.6564   -0.2206 H   0  0  0  0  0  0  0  0  0  0  0  0
   -9.6772    2.1490    2.2662 H   0  0  0  0  0  0  0  0  0  0  0  0
   -8.5643    0.9578    1.5119 H   0  0  0  0  0  0  0  0  0  0  0  0
   -9.7443    1.0730   -0.6152 H   0  0  0  0  0  0  0  0  0  0  0  0
  -10.8044    0.7288    0.7567 H   0  0  0  0  0  0  0  0  0  0  0  0
  -10.7455    2.9876   -0.8374 H   0  0  0  0  0  0  0  0  0  0  0  0
   -8.2178    3.1438    3.1143 H   0  0  0  0  0  0  0  0  0  0  0  0
   -7.3087    4.4153    2.2504 H   0  0  0  0  0  0  0  0  0  0  0  0
   -6.7051    1.4146    2.1874 H   0  0  0  0  0  0  0  0  0  0  0  0
   -5.8972    2.6267    3.3285 H   0  0  0  0  0  0  0  0  0  0  0  0
  1  2  1  0
  2  3  1  0
  3  4  2  0
  4  5  1  0
  5  6  2  0
  6  7  1  0
  7  8  2  0
  8  9  1  0
  9 10  1  0
 10 11  2  0
 11 12  1  0
 12 13  2  0
 13 14  1  0
 13 15  1  0
 15 16  1  0
 16 17  1  0
 17 18  2  0
 18 19  1  0
 19 20  2  0
 20 21  1  0
 21 22  2  0
 22 23  1  0
 23 24  2  0
 23 25  2  0
 23 26  1  0
 26 27  1  0
 26 28  1  0
 15 29  2  0
  5 30  1  0
 30 31  1  0
 31 32  1  0
 32 33  1  0
 33 34  1  0
 34 35  1  0
 33 36  1  0
 36 37  1  0
 37 38  1  0
 38 39  1  0
 39 40  1  0
 40 41  1  0
 41 42  1  0
 39 43  1  0
 43 44  1  0
  8  3  1  0
 29 10  1  0
 35 30  1  0
 44 36  1  0
 22 17  1  0
  1 45  1  0
  1 46  1  0
  1 47  1  0
  4 48  1  0
  6 49  1  0
  7 50  1  0
  9 51  1  0
 12 52  1  0
 16 53  1  0
 18 54  1  0
 19 55  1  0
 20 56  1  0
 21 57  1  0
 26 58  1  0
 27 59  1  0
 27 60  1  0
 27 61  1  0
 28 62  1  0
 28 63  1  0
 28 64  1  0
 31 65  1  0
 31 66  1  0
 32 67  1  0
 32 68  1  0
 33 69  1  0
 34 70  1  0
 34 71  1  0
 35 72  1  0
 35 73  1  0
 37 74  1  0
 37 75  1  0
 38 76  1  0
 38 77  1  0
 40 78  1  0
 40 79  1  0
 41 80  1  0
 41 81  1  0
 42 82  1  0
 43 83  1  0
 43 84  1  0
 44 85  1  0
 44 86  1  0
M  END
$$$$
[H]c1c([H])c([H])c2sc(C(=O)[C@@]([H])(N([H])C(=O)[C@@]([H])(N([H])C(=O)[C@@]([H])(N([H])C(=O)C([H])([H])[H])C([H])([H])C([H])([H])C(=O)N([H])[H])C([H])([H])C([H])(C([H])([H])[H])C([H])([H])[H])C([H])([H])C([H])([H])C([H])([H])C([H])([H])N([H])[H])nc2c1[H]
     RDKit          3D

 76 77  0  0  0  0  0  0  0  0999 V2000
    1.0221   -1.1950   -3.8531 C   0  0  0  0  0  0  0  0  0  0  0  0
    0.5704   -2.0634   -2.6807 C   0  0  0  0  0  0  0  0  0  0  0  0
    1.1254   -3.4971   -2.9381 C   0  0  0  0  0  0  0  0  0  0  0  0
    1.2059   -1.6261   -1.4176 C   0  0  0  0  0  0  0  0  0  0  0  0
    0.9583   -0.2099   -0.9471 C   0  0  2  0  0  0  0  0  0  0  0  0
    1.8224    0.0198    0.2501 N   0  0  0  0  0  0  0  0  0  0  0  0
    3.1825    0.1474    0.0712 C   0  0  0  0  0  0  0  0  0  0  0  0
    3.7127    0.0529   -1.0563 O   0  0  0  0  0  0  0  0  0  0  0  0
    4.1934    0.4077    1.2132 C   0  0  2  0  0  0  0  0  0  0  0  0
    4.7757    1.7990    0.7901 C   0  0  0  0  0  0  0  0  0  0  0  0
    5.7109    2.3838    1.6984 C   0  0  0  0  0  0  0  0  0  0  0  0
    6.8645    1.7557    2.2547 C   0  0  0  0  0  0  0  0  0  0  0  0
    8.1762    1.9373    1.7555 N   0  0  0  0  0  0  0  0  0  0  0  0
    6.7633    0.9810    3.2688 O   0  0  0  0  0  0  0  0  0  0  0  0
    5.1807   -0.5637    1.0347 N   0  0  0  0  0  0  0  0  0  0  0  0
    6.1496   -1.5190    0.8741 C   0  0  0  0  0  0  0  0  0  0  0  0
    6.5683   -1.8248   -0.5875 C   0  0  0  0  0  0  0  0  0  0  0  0
    6.7807   -2.2181    1.6927 O   0  0  0  0  0  0  0  0  0  0  0  0
   -0.4391   -0.1264   -0.4455 C   0  0  0  0  0  0  0  0  0  0  0  0
   -0.6228   -0.0598    0.7819 O   0  0  0  0  0  0  0  0  0  0  0  0
   -1.5184   -0.1358   -1.3577 N   0  0  0  0  0  0  0  0  0  0  0  0
   -2.8903   -0.1029   -0.9671 C   0  0  1  0  0  0  0  0  0  0  0  0
   -3.2256   -0.5444    0.3712 C   0  0  0  0  0  0  0  0  0  0  0  0
   -2.9446   -2.0164    0.6072 C   0  0  0  0  0  0  0  0  0  0  0  0
   -3.7924   -2.9471   -0.2199 C   0  0  0  0  0  0  0  0  0  0  0  0
   -5.2833   -2.8264    0.1188 C   0  0  0  0  0  0  0  0  0  0  0  0
   -5.3502   -3.1625    1.5609 N   0  0  0  0  0  0  0  0  0  0  0  0
   -3.5244    1.1054   -1.4847 C   0  0  0  0  0  0  0  0  0  0  0  0
   -3.4048    1.3148   -2.7574 O   0  0  0  0  0  0  0  0  0  0  0  0
   -4.2524    2.0534   -0.6634 C   0  0  0  0  0  0  0  0  0  0  0  0
   -4.4330    2.1291    0.6278 N   0  0  0  0  0  0  0  0  0  0  0  0
   -5.1232    3.0992    1.1584 C   0  0  0  0  0  0  0  0  0  0  0  0
   -5.3289    3.2723    2.5626 C   0  0  0  0  0  0  0  0  0  0  0  0
   -6.0594    4.3849    2.9595 C   0  0  0  0  0  0  0  0  0  0  0  0
   -6.6024    5.3253    2.1372 C   0  0  0  0  0  0  0  0  0  0  0  0
   -6.3870    5.1384    0.7691 C   0  0  0  0  0  0  0  0  0  0  0  0
   -5.6519    4.0268    0.3169 C   0  0  0  0  0  0  0  0  0  0  0  0
   -5.1234    3.4612   -1.2118 S   0  0  0  0  0  0  0  0  0  0  0  0
    0.2444   -0.4840   -4.1849 H   0  0  0  0  0  0  0  0  0  0  0  0
    1.1610   -1.9029   -4.6872 H   0  0  0  0  0  0  0  0  0  0  0  0
    1.9659   -0.7267   -3.5876 H   0  0  0  0  0  0  0  0  0  0  0  0
   -0.4983   -2.1503   -2.6436 H   0  0  0  0  0  0  0  0  0  0  0  0
    1.1916   -3.6286   -4.0230 H   0  0  0  0  0  0  0  0  0  0  0  0
    2.1849   -3.5791   -2.5272 H   0  0  0  0  0  0  0  0  0  0  0  0
    0.4989   -4.2501   -2.4282 H   0  0  0  0  0  0  0  0  0  0  0  0
    2.3161   -1.7625   -1.5469 H   0  0  0  0  0  0  0  0  0  0  0  0
    0.8382   -2.3340   -0.6304 H   0  0  0  0  0  0  0  0  0  0  0  0
    1.2395    0.5072   -1.6930 H   0  0  0  0  0  0  0  0  0  0  0  0
    1.3665    0.0483    1.1542 H   0  0  0  0  0  0  0  0  0  0  0  0
    3.6825    0.5509    2.1086 H   0  0  0  0  0  0  0  0  0  0  0  0
    3.8268    2.4438    0.7732 H   0  0  0  0  0  0  0  0  0  0  0  0
    5.0700    1.7433   -0.2649 H   0  0  0  0  0  0  0  0  0  0  0  0
    6.2103    3.3215    1.1081 H   0  0  0  0  0  0  0  0  0  0  0  0
    5.2186    3.0217    2.5213 H   0  0  0  0  0  0  0  0  0  0  0  0
    8.7838    1.1461    1.5606 H   0  0  0  0  0  0  0  0  0  0  0  0
    8.5162    2.9059    1.6078 H   0  0  0  0  0  0  0  0  0  0  0  0
    5.0817   -0.9234    2.3395 H   0  0  0  0  0  0  0  0  0  0  0  0
    6.7721   -0.8920   -1.1154 H   0  0  0  0  0  0  0  0  0  0  0  0
    7.4536   -2.4618   -0.5944 H   0  0  0  0  0  0  0  0  0  0  0  0
    5.6599   -2.2703   -1.0412 H   0  0  0  0  0  0  0  0  0  0  0  0
   -1.2865   -0.1003   -2.3886 H   0  0  0  0  0  0  0  0  0  0  0  0
   -3.3623   -0.9696   -1.7008 H   0  0  0  0  0  0  0  0  0  0  0  0
   -4.3663   -0.4878    0.5631 H   0  0  0  0  0  0  0  0  0  0  0  0
   -2.8470    0.0603    1.2161 H   0  0  0  0  0  0  0  0  0  0  0  0
   -3.0519   -2.2172    1.6767 H   0  0  0  0  0  0  0  0  0  0  0  0
   -1.8890   -2.2925    0.3698 H   0  0  0  0  0  0  0  0  0  0  0  0
   -3.6772   -2.8252   -1.2832 H   0  0  0  0  0  0  0  0  0  0  0  0
   -3.5417   -4.0018    0.0419 H   0  0  0  0  0  0  0  0  0  0  0  0
   -5.6675   -1.8279   -0.0579 H   0  0  0  0  0  0  0  0  0  0  0  0
   -5.7843   -3.6169   -0.4733 H   0  0  0  0  0  0  0  0  0  0  0  0
   -4.7285   -4.0033    1.7844 H   0  0  0  0  0  0  0  0  0  0  0  0
   -6.3373   -3.3238    1.8471 H   0  0  0  0  0  0  0  0  0  0  0  0
   -4.9435    2.6205    3.2860 H   0  0  0  0  0  0  0  0  0  0  0  0
   -6.2002    4.5235    4.0278 H   0  0  0  0  0  0  0  0  0  0  0  0
   -7.1460    6.1627    2.5406 H   0  0  0  0  0  0  0  0  0  0  0  0
   -6.7604    5.8200    0.0580 H   0  0  0  0  0  0  0  0  0  0  0  0
  1  2  1  0
  2  3  1  0
  2  4  1  0
  4  5  1  0
  5  6  1  0
  6  7  1  0
  7  8  2  0
  7  9  1  0
  9 10  1  0
 10 11  1  0
 11 12  1  0
 12 13  1  0
 12 14  2  0
  9 15  1  0
 15 16  1  0
 16 17  1  0
 16 18  2  0
  5 19  1  0
 19 20  2  0
 19 21  1  0
 21 22  1  0
 22 23  1  0
 23 24  1  0
 24 25  1  0
 25 26  1  0
 26 27  1  0
 22 28  1  0
 28 29  2  0
 28 30  1  0
 30 31  2  0
 31 32  1  0
 32 33  2  0
 33 34  1  0
 34 35  2  0
 35 36  1  0
 36 37  2  0
 37 38  1  0
 38 30  1  0
 37 32  1  0
  1 39  1  0
  1 40  1  0
  1 41  1  0
  2 42  1  0
  3 43  1  0
  3 44  1  0
  3 45  1  0
  4 46  1  0
  4 47  1  0
  5 48  1  6
  6 49  1  0
  9 50  1  1
 10 51  1  0
 10 52  1  0
 11 53  1  0
 11 54  1  0
 13 55  1  0
 13 56  1  0
 15 57  1  0
 17 58  1  0
 17 59  1  0
 17 60  1  0
 21 61  1  0
 22 62  1  6
 23 63  1  0
 23 64  1  0
 24 65  1  0
 24 66  1  0
 25 67  1  0
 25 68  1  0
 26 69  1  0
 26 70  1  0
 27 71  1  0
 27 72  1  0
 33 73  1  0
 34 74  1  0
 35 75  1  0
 36 76  1  0
M  END
$$$$
[H]O[C@]1([H])[C@]([H])(OP(=O)(O[H])OP(=O)(O[H])O[H])[C@]([H])(O[H])[C@]([H])(O[H])[C@@]1([H])O[H]
     RDKit          3D

 30 30  0  0  0  0  0  0  0  0999 V2000
   -3.8186   -0.8260   -0.1289 O   0  0  0  0  0  0  0  0  0  0  0  0
   -2.8579   -0.1194    0.5979 C   0  0  1  0  0  0  0  0  0  0  0  0
   -1.5153   -0.7215    0.3546 C   0  0  1  0  0  0  0  0  0  0  0  0
   -1.6059   -1.8299   -0.4914 O   0  0  0  0  0  0  0  0  0  0  0  0
   -0.6526    0.3378   -0.3043 C   0  0  1  0  0  0  0  0  0  0  0  0
    0.2537   -0.2851   -1.0869 O   0  0  0  0  0  0  0  0  0  0  0  0
    1.8495   -0.1632   -0.7373 P   0  0  0  0  0  0  0  0  0  0  0  0
    2.7122   -1.1189   -1.8575 O   0  0  0  0  0  0  0  0  0  0  0  0
    2.4060    1.2115   -0.6485 O   0  0  0  0  0  0  0  0  0  0  0  0
    2.1382   -0.9045    0.7813 O   0  0  0  0  0  0  0  0  0  0  0  0
    3.8042   -0.8587    1.0285 P   0  0  0  0  0  0  0  0  0  0  0  0
    4.4989    0.5401    0.4037 O   0  0  0  0  0  0  0  0  0  0  0  0
    4.1102   -1.0105    2.6944 O   0  0  0  0  0  0  0  0  0  0  0  0
    4.4230   -2.0576    0.3137 O   0  0  0  0  0  0  0  0  0  0  0  0
   -1.6175    1.2605   -0.9334 C   0  0  1  0  0  0  0  0  0  0  0  0
   -2.1533    0.8552   -2.1246 O   0  0  0  0  0  0  0  0  0  0  0  0
   -2.7641    1.2889    0.0683 C   0  0  2  0  0  0  0  0  0  0  0  0
   -2.5806    2.2272    1.0538 O   0  0  0  0  0  0  0  0  0  0  0  0
   -4.0699   -0.3041   -0.9311 H   0  0  0  0  0  0  0  0  0  0  0  0
   -3.1031   -0.1265    1.6788 H   0  0  0  0  0  0  0  0  0  0  0  0
   -1.0007   -1.0676    1.2837 H   0  0  0  0  0  0  0  0  0  0  0  0
   -0.7813   -2.3392   -0.5421 H   0  0  0  0  0  0  0  0  0  0  0  0
   -0.1326    0.8801    0.5220 H   0  0  0  0  0  0  0  0  0  0  0  0
    2.2921   -2.0345   -1.7922 H   0  0  0  0  0  0  0  0  0  0  0  0
    5.1402    0.9717    1.0276 H   0  0  0  0  0  0  0  0  0  0  0  0
    4.9211   -0.4850    2.9159 H   0  0  0  0  0  0  0  0  0  0  0  0
   -1.2030    2.2982   -0.9505 H   0  0  0  0  0  0  0  0  0  0  0  0
   -1.5178    0.5239   -2.7893 H   0  0  0  0  0  0  0  0  0  0  0  0
   -3.7295    1.5152   -0.4634 H   0  0  0  0  0  0  0  0  0  0  0  0
   -3.4456    2.3417    1.5231 H   0  0  0  0  0  0  0  0  0  0  0  0
  1  2  1  0
  2  3  1  0
  3  4  1  0
  3  5  1  0
  5  6  1  0
  6  7  1  0
  7  8  1  0
  7  9  2  0
  7 10  1  0
 10 11  1  0
 11 12  1  0
 11 13  1  0
 11 14  2  0
  5 15  1  0
 15 16  1  0
 15 17  1  0
 17 18  1  0
 17  2  1  0
  1 19  1  0
  2 20  1  1
  3 21  1  1
  4 22  1  0
  5 23  1  1
  8 24  1  0
 12 25  1  0
 13 26  1  0
 15 27  1  6
 16 28  1  0
 17 29  1  6
 18 30  1  0
M  END
$$$$
[H]c1c([H])c(C(=O)N([H])c2c([H])c([H])c(C([H])([H])[H])c(-c3c([H])c(N4C([H])([H])C([H])([H])OC([H])([H])C4([H])[H])n(C([H])([H])[H])c(=O)c3[H])c2[H])c([H])c(C(F)(F)F)c1[H]
     RDKit          3D

 58 61  0  0  0  0  0  0  0  0999 V2000
   -1.5714    0.7596    2.6774 C   0  0  0  0  0  0  0  0  0  0  0  0
   -0.2608    0.4500    2.1040 C   0  0  0  0  0  0  0  0  0  0  0  0
    0.8216    0.0788    2.8694 C   0  0  0  0  0  0  0  0  0  0  0  0
    2.0319   -0.1524    2.2446 C   0  0  0  0  0  0  0  0  0  0  0  0
    2.2191   -0.0343    0.8573 C   0  0  0  0  0  0  0  0  0  0  0  0
    3.4965   -0.2923    0.3148 N   0  0  0  0  0  0  0  0  0  0  0  0
    4.4138   -1.2286    0.8404 C   0  0  0  0  0  0  0  0  0  0  0  0
    4.1971   -1.9692    1.8222 O   0  0  0  0  0  0  0  0  0  0  0  0
    5.7307   -1.3632    0.2315 C   0  0  0  0  0  0  0  0  0  0  0  0
    6.3590   -2.5584    0.0646 C   0  0  0  0  0  0  0  0  0  0  0  0
    7.6317   -2.6705   -0.4389 C   0  0  0  0  0  0  0  0  0  0  0  0
    8.2824   -1.4765   -0.7894 C   0  0  0  0  0  0  0  0  0  0  0  0
    7.6830   -0.2572   -0.6344 C   0  0  0  0  0  0  0  0  0  0  0  0
    6.4083   -0.1852   -0.1253 C   0  0  0  0  0  0  0  0  0  0  0  0
    8.4036    0.9928   -0.9783 C   0  0  0  0  0  0  0  0  0  0  0  0
    7.9081    1.4913   -2.1420 F   0  0  0  0  0  0  0  0  0  0  0  0
    8.0841    1.9162    0.0011 F   0  0  0  0  0  0  0  0  0  0  0  0
    9.7591    0.8317   -1.1066 F   0  0  0  0  0  0  0  0  0  0  0  0
    1.1003    0.3435    0.1037 C   0  0  0  0  0  0  0  0  0  0  0  0
   -0.1027    0.5814    0.7051 C   0  0  0  0  0  0  0  0  0  0  0  0
   -1.3472    0.9593    0.0339 C   0  0  0  0  0  0  0  0  0  0  0  0
   -2.4504    0.1623   -0.0402 C   0  0  0  0  0  0  0  0  0  0  0  0
   -3.6703    0.6786   -0.5333 C   0  0  0  0  0  0  0  0  0  0  0  0
   -4.7515   -0.2396   -0.5778 N   0  0  0  0  0  0  0  0  0  0  0  0
   -5.5021   -0.6544   -1.7151 C   0  0  0  0  0  0  0  0  0  0  0  0
   -6.9412   -0.8330   -1.2817 C   0  0  0  0  0  0  0  0  0  0  0  0
   -7.1173   -1.7669   -0.2848 O   0  0  0  0  0  0  0  0  0  0  0  0
   -5.9764   -2.0440    0.4268 C   0  0  0  0  0  0  0  0  0  0  0  0
   -5.1297   -0.8299    0.7180 C   0  0  0  0  0  0  0  0  0  0  0  0
   -3.7466    1.9502   -0.9310 N   0  0  0  0  0  0  0  0  0  0  0  0
   -5.0122    2.4907   -1.3823 C   0  0  0  0  0  0  0  0  0  0  0  0
   -2.6472    2.7536   -0.8711 C   0  0  0  0  0  0  0  0  0  0  0  0
   -2.7951    3.9355   -1.2689 O   0  0  0  0  0  0  0  0  0  0  0  0
   -1.4629    2.2934   -0.4040 C   0  0  0  0  0  0  0  0  0  0  0  0
   -1.4742    0.9790    3.7614 H   0  0  0  0  0  0  0  0  0  0  0  0
   -2.0522    1.6377    2.2161 H   0  0  0  0  0  0  0  0  0  0  0  0
   -2.3182   -0.0687    2.6227 H   0  0  0  0  0  0  0  0  0  0  0  0
    0.7326   -0.0206    3.9435 H   0  0  0  0  0  0  0  0  0  0  0  0
    2.8891   -0.4266    2.8572 H   0  0  0  0  0  0  0  0  0  0  0  0
    3.7718    0.2571   -0.5551 H   0  0  0  0  0  0  0  0  0  0  0  0
    5.8555   -3.4635    0.3317 H   0  0  0  0  0  0  0  0  0  0  0  0
    8.1434   -3.5983   -0.5752 H   0  0  0  0  0  0  0  0  0  0  0  0
    9.2988   -1.5614   -1.1931 H   0  0  0  0  0  0  0  0  0  0  0  0
    5.8918    0.7435    0.0387 H   0  0  0  0  0  0  0  0  0  0  0  0
    1.2056    0.4395   -0.9751 H   0  0  0  0  0  0  0  0  0  0  0  0
   -2.3704   -0.8603    0.2697 H   0  0  0  0  0  0  0  0  0  0  0  0
   -5.5368    0.0858   -2.5548 H   0  0  0  0  0  0  0  0  0  0  0  0
   -5.0982   -1.6370   -2.0406 H   0  0  0  0  0  0  0  0  0  0  0  0
   -7.3811    0.1347   -1.0038 H   0  0  0  0  0  0  0  0  0  0  0  0
   -7.5241   -1.1605   -2.1635 H   0  0  0  0  0  0  0  0  0  0  0  0
   -5.3878   -2.8319   -0.0380 H   0  0  0  0  0  0  0  0  0  0  0  0
   -6.3152   -2.4191    1.4523 H   0  0  0  0  0  0  0  0  0  0  0  0
   -4.1774   -1.2201    1.1414 H   0  0  0  0  0  0  0  0  0  0  0  0
   -5.5808   -0.1143    1.3890 H   0  0  0  0  0  0  0  0  0  0  0  0
   -5.0420    3.6179   -1.1436 H   0  0  0  0  0  0  0  0  0  0  0  0
   -5.8167    2.0462   -0.7706 H   0  0  0  0  0  0  0  0  0  0  0  0
   -5.1486    2.3786   -2.4561 H   0  0  0  0  0  0  0  0  0  0  0  0
   -0.6102    2.9491   -0.3717 H   0  0  0  0  0  0  0  0  0  0  0  0
  1  2  1  0
  2  3  2  0
  3  4  1  0
  4  5  2  0
  5  6  1  0
  6  7  1  0
  7  8  2  0
  7  9  1  0
  9 10  2  0
 10 11  1  0
 11 12  2  0
 12 13  1  0
 13 14  2  0
 13 15  1  0
 15 16  1  0
 15 17  1  0
 15 18  1  0
  5 19  1  0
 19 20  2  0
 20 21  1  0
 21 22  1  0
 22 23  2  0
 23 24  1  0
 24 25  1  0
 25 26  1  0
 26 27  1  0
 27 28  1  0
 28 29  1  0
 23 30  1  0
 30 31  1  0
 30 32  1  0
 32 33  2  0
 32 34  1  0
 20  2  1  0
 34 21  2  0
 14  9  1  0
 29 24  1  0
  1 35  1  0
  1 36  1  0
  1 37  1  0
  3 38  1  0
  4 39  1  0
  6 40  1  0
 10 41  1  0
 11 42  1  0
 12 43  1  0
 14 44  1  0
 19 45  1  0
 22 46  1  0
 25 47  1  0
 25 48  1  0
 26 49  1  0
 26 50  1  0
 28 51  1  0
 28 52  1  0
 29 53  1  0
 29 54  1  0
 31 55  1  0
 31 56  1  0
 31 57  1  0
 34 58  1  0
M  END
$$$$
[H]c1nc(C(=O)N([H])c2nc(C([H])([H])[H])c([H])c([H])c2[H])c([H])c(Oc2c([H])nc([H])c(F)c2[H])c1[H]
     RDKit          3D

 37 39  0  0  0  0  0  0  0  0999 V2000
   -5.0415    2.4609   -1.3010 C   0  0  0  0  0  0  0  0  0  0  0  0
   -4.9281    1.1289   -0.6664 C   0  0  0  0  0  0  0  0  0  0  0  0
   -6.0323    0.4876   -0.1580 C   0  0  0  0  0  0  0  0  0  0  0  0
   -5.8389   -0.7465    0.4145 C   0  0  0  0  0  0  0  0  0  0  0  0
   -4.5922   -1.3369    0.4863 C   0  0  0  0  0  0  0  0  0  0  0  0
   -3.5260   -0.6437   -0.0410 C   0  0  0  0  0  0  0  0  0  0  0  0
   -2.2305   -1.2206    0.0156 N   0  0  0  0  0  0  0  0  0  0  0  0
   -1.1184   -0.5298   -0.5185 C   0  0  0  0  0  0  0  0  0  0  0  0
   -1.2667    0.5854   -1.0405 O   0  0  0  0  0  0  0  0  0  0  0  0
    0.1912   -1.1364   -0.4498 C   0  0  0  0  0  0  0  0  0  0  0  0
    1.3310   -0.5286   -0.9481 C   0  0  0  0  0  0  0  0  0  0  0  0
    2.5800   -1.0954   -0.8883 C   0  0  0  0  0  0  0  0  0  0  0  0
    3.7263   -0.4906   -1.3863 O   0  0  0  0  0  0  0  0  0  0  0  0
    4.4841    0.3346   -0.5681 C   0  0  0  0  0  0  0  0  0  0  0  0
    4.0990    0.5540    0.7389 C   0  0  0  0  0  0  0  0  0  0  0  0
    4.8333    1.3449    1.5083 N   0  0  0  0  0  0  0  0  0  0  0  0
    5.9477    1.9600    1.0975 C   0  0  0  0  0  0  0  0  0  0  0  0
    6.3536    1.7579   -0.2012 C   0  0  0  0  0  0  0  0  0  0  0  0
    7.4771    2.3796   -0.6112 F   0  0  0  0  0  0  0  0  0  0  0  0
    5.6240    0.9438   -1.0421 C   0  0  0  0  0  0  0  0  0  0  0  0
    2.7265   -2.3368   -0.3040 C   0  0  0  0  0  0  0  0  0  0  0  0
    1.5842   -2.9331    0.1891 C   0  0  0  0  0  0  0  0  0  0  0  0
    0.3729   -2.3520    0.1157 N   0  0  0  0  0  0  0  0  0  0  0  0
   -3.6942    0.5803   -0.6129 N   0  0  0  0  0  0  0  0  0  0  0  0
   -5.9415    3.0132   -1.0306 H   0  0  0  0  0  0  0  0  0  0  0  0
   -4.8919    2.3712   -2.3904 H   0  0  0  0  0  0  0  0  0  0  0  0
   -4.1695    3.0746   -0.9303 H   0  0  0  0  0  0  0  0  0  0  0  0
   -6.9840    0.9888   -0.2376 H   0  0  0  0  0  0  0  0  0  0  0  0
   -6.6926   -1.2595    0.8160 H   0  0  0  0  0  0  0  0  0  0  0  0
   -4.4778   -2.3087    0.9437 H   0  0  0  0  0  0  0  0  0  0  0  0
   -2.1419   -2.1664    0.4648 H   0  0  0  0  0  0  0  0  0  0  0  0
    1.2199    0.4390   -1.4041 H   0  0  0  0  0  0  0  0  0  0  0  0
    3.1893    0.0535    1.0785 H   0  0  0  0  0  0  0  0  0  0  0  0
    6.4678    2.5819    1.8089 H   0  0  0  0  0  0  0  0  0  0  0  0
    5.9443    0.7827   -2.0716 H   0  0  0  0  0  0  0  0  0  0  0  0
    3.7066   -2.8277   -0.2344 H   0  0  0  0  0  0  0  0  0  0  0  0
    1.7091   -3.9099    0.6472 H   0  0  0  0  0  0  0  0  0  0  0  0
  1  2  1  0
  2  3  2  0
  3  4  1  0
  4  5  2  0
  5  6  1  0
  6  7  1  0
  7  8  1  0
  8  9  2  0
  8 10  1  0
 10 11  2  0
 11 12  1  0
 12 13  1  0
 13 14  1  0
 14 15  2  0
 15 16  1  0
 16 17  2  0
 17 18  1  0
 18 19  1  0
 18 20  2  0
 12 21  2  0
 21 22  1  0
 22 23  2  0
  6 24  2  0
 24  2  1  0
 23 10  1  0
 20 14  1  0
  1 25  1  0
  1 26  1  0
  1 27  1  0
  3 28  1  0
  4 29  1  0
  5 30  1  0
  7 31  1  0
 11 32  1  0
 15 33  1  0
 17 34  1  0
 20 35  1  0
 21 36  1  0
 22 37  1  0
M  END
$$$$
[H]c1oc(C(=O)N([H])[C@@]2([H])C([H])([H])N(c3nc(N([H])[H])c4c([H])c(OC([H])([H])[H])c(OC([H])([H])[H])c([H])c4n3)C([H])([H])C([H])([H])C2([H])[H])c([H])c1[H]
     RDKit          3D

 52 55  0  0  0  0  0  0  0  0999 V2000
   -5.7445   -0.4154   -2.9918 C   0  0  0  0  0  0  0  0  0  0  0  0
   -5.7254    0.1766   -1.6975 O   0  0  0  0  0  0  0  0  0  0  0  0
   -4.5442    0.0684   -0.9385 C   0  0  0  0  0  0  0  0  0  0  0  0
   -3.4378   -0.5902   -1.4299 C   0  0  0  0  0  0  0  0  0  0  0  0
   -2.2997   -0.6608   -0.6259 C   0  0  0  0  0  0  0  0  0  0  0  0
   -1.1854   -1.2932   -1.0545 N   0  0  0  0  0  0  0  0  0  0  0  0
   -0.0588   -1.3966   -0.3311 C   0  0  0  0  0  0  0  0  0  0  0  0
   -0.0438   -0.8370    0.8890 N   0  0  0  0  0  0  0  0  0  0  0  0
   -1.0946   -0.1848    1.4138 C   0  0  0  0  0  0  0  0  0  0  0  0
   -1.0936    0.4079    2.6936 N   0  0  0  0  0  0  0  0  0  0  0  0
   -2.2457   -0.0987    0.6325 C   0  0  0  0  0  0  0  0  0  0  0  0
   -3.3588    0.5606    1.1198 C   0  0  0  0  0  0  0  0  0  0  0  0
   -4.4799    0.6269    0.3209 C   0  0  0  0  0  0  0  0  0  0  0  0
   -5.6059    1.2853    0.7956 O   0  0  0  0  0  0  0  0  0  0  0  0
   -5.6185    1.8849    2.0786 C   0  0  0  0  0  0  0  0  0  0  0  0
    1.0970   -2.0861   -0.8479 N   0  0  0  0  0  0  0  0  0  0  0  0
    1.0952   -2.6911   -2.1526 C   0  0  0  0  0  0  0  0  0  0  0  0
    2.5162   -2.5288   -2.7000 C   0  0  0  0  0  0  0  0  0  0  0  0
    3.0325   -1.1983   -2.1581 C   0  0  0  0  0  0  0  0  0  0  0  0
    3.3552   -1.3131   -0.6882 C   0  0  2  0  0  0  0  0  0  0  0  0
    2.2975   -2.1796   -0.0441 C   0  0  0  0  0  0  0  0  0  0  0  0
    3.3468    0.0278   -0.1349 N   0  0  0  0  0  0  0  0  0  0  0  0
    4.5180    0.5113    0.5080 C   0  0  0  0  0  0  0  0  0  0  0  0
    5.5449   -0.1916    0.6040 O   0  0  0  0  0  0  0  0  0  0  0  0
    4.5267    1.8709    1.0756 C   0  0  0  0  0  0  0  0  0  0  0  0
    5.5801    2.4783    1.7254 C   0  0  0  0  0  0  0  0  0  0  0  0
    5.1635    3.7461    2.0945 C   0  0  0  0  0  0  0  0  0  0  0  0
    3.8663    3.8467    1.6466 C   0  0  0  0  0  0  0  0  0  0  0  0
    3.5433    2.7341    1.0628 O   0  0  0  0  0  0  0  0  0  0  0  0
   -5.7688   -1.5187   -2.9514 H   0  0  0  0  0  0  0  0  0  0  0  0
   -6.6027   -0.0701   -3.5880 H   0  0  0  0  0  0  0  0  0  0  0  0
   -4.8262   -0.1361   -3.5800 H   0  0  0  0  0  0  0  0  0  0  0  0
   -3.4326   -1.0425   -2.4011 H   0  0  0  0  0  0  0  0  0  0  0  0
   -0.3771    1.0741    3.0470 H   0  0  0  0  0  0  0  0  0  0  0  0
   -1.8708    0.1651    3.3474 H   0  0  0  0  0  0  0  0  0  0  0  0
   -3.2916    0.9915    2.1061 H   0  0  0  0  0  0  0  0  0  0  0  0
   -6.6163    2.2853    2.2904 H   0  0  0  0  0  0  0  0  0  0  0  0
   -4.8734    2.6980    2.1419 H   0  0  0  0  0  0  0  0  0  0  0  0
   -5.4142    1.1113    2.8576 H   0  0  0  0  0  0  0  0  0  0  0  0
    0.8460   -3.7613   -2.0353 H   0  0  0  0  0  0  0  0  0  0  0  0
    0.3663   -2.1681   -2.8257 H   0  0  0  0  0  0  0  0  0  0  0  0
    3.0941   -3.3763   -2.3275 H   0  0  0  0  0  0  0  0  0  0  0  0
    2.4576   -2.4300   -3.7864 H   0  0  0  0  0  0  0  0  0  0  0  0
    2.2437   -0.4259   -2.2656 H   0  0  0  0  0  0  0  0  0  0  0  0
    3.9236   -0.9183   -2.7619 H   0  0  0  0  0  0  0  0  0  0  0  0
    4.3351   -1.7885   -0.5135 H   0  0  0  0  0  0  0  0  0  0  0  0
    2.6790   -3.2287    0.0082 H   0  0  0  0  0  0  0  0  0  0  0  0
    2.1294   -1.8294    0.9997 H   0  0  0  0  0  0  0  0  0  0  0  0
    2.5006    0.6410   -0.1999 H   0  0  0  0  0  0  0  0  0  0  0  0
    6.5472    2.0100    1.8960 H   0  0  0  0  0  0  0  0  0  0  0  0
    5.7785    4.4573    2.6218 H   0  0  0  0  0  0  0  0  0  0  0  0
    3.2259    4.6998    1.7590 H   0  0  0  0  0  0  0  0  0  0  0  0
  1  2  1  0
  2  3  1  0
  3  4  2  0
  4  5  1  0
  5  6  2  0
  6  7  1  0
  7  8  2  0
  8  9  1  0
  9 10  1  0
  9 11  2  0
 11 12  1  0
 12 13  2  0
 13 14  1  0
 14 15  1  0
  7 16  1  0
 16 17  1  0
 17 18  1  0
 18 19  1  0
 19 20  1  0
 20 21  1  0
 20 22  1  0
 22 23  1  0
 23 24  2  0
 23 25  1  0
 25 26  2  0
 26 27  1  0
 27 28  2  0
 28 29  1  0
 13  3  1  0
 21 16  1  0
 29 25  1  0
 11  5  1  0
  1 30  1  0
  1 31  1  0
  1 32  1  0
  4 33  1  0
 10 34  1  0
 10 35  1  0
 12 36  1  0
 15 37  1  0
 15 38  1  0
 15 39  1  0
 17 40  1  0
 17 41  1  0
 18 42  1  0
 18 43  1  0
 19 44  1  0
 19 45  1  0
 20 46  1  6
 21 47  1  0
 21 48  1  0
 22 49  1  0
 26 50  1  0
 27 51  1  0
 28 52  1  0
M  END
$$$$
[H]c1c([H])c(S(=O)(=O)C([H])([H])[H])c([H])c([H])c1N([H])c1nc(N([H])C([H])([H])[H])c2nc([H])n([H])c2n1
     RDKit          3D

 36 38  0  0  0  0  0  0  0  0999 V2000
   -5.1471   -2.0148   -1.4748 C   0  0  0  0  0  0  0  0  0  0  0  0
   -5.0626   -0.9591   -0.5046 N   0  0  0  0  0  0  0  0  0  0  0  0
   -3.8385   -0.3638   -0.0942 C   0  0  0  0  0  0  0  0  0  0  0  0
   -2.6695   -0.7883   -0.6238 N   0  0  0  0  0  0  0  0  0  0  0  0
   -1.4724   -0.2384   -0.2523 C   0  0  0  0  0  0  0  0  0  0  0  0
   -0.2991   -0.6952   -0.8285 N   0  0  0  0  0  0  0  0  0  0  0  0
    1.0298   -0.3021   -0.6105 C   0  0  0  0  0  0  0  0  0  0  0  0
    1.4990    0.4642    0.4190 C   0  0  0  0  0  0  0  0  0  0  0  0
    2.8540    0.8123    0.5222 C   0  0  0  0  0  0  0  0  0  0  0  0
    3.7568    0.3956   -0.4062 C   0  0  0  0  0  0  0  0  0  0  0  0
    3.3177   -0.3685   -1.4411 C   0  0  0  0  0  0  0  0  0  0  0  0
    2.0093   -0.7007   -1.5351 C   0  0  0  0  0  0  0  0  0  0  0  0
    5.4580    0.8118   -0.3093 S   0  0  0  0  0  0  0  0  0  0  0  0
    6.3323   -0.4166    0.6175 C   0  0  0  0  0  0  0  0  0  0  0  0
    6.0679    0.9141   -1.6786 O   0  0  0  0  0  0  0  0  0  0  0  0
    5.6540    2.1278    0.3662 O   0  0  0  0  0  0  0  0  0  0  0  0
   -1.5117    0.7308    0.6518 N   0  0  0  0  0  0  0  0  0  0  0  0
   -2.6421    1.2073    1.2251 C   0  0  0  0  0  0  0  0  0  0  0  0
   -2.9208    2.1558    2.1378 N   0  0  0  0  0  0  0  0  0  0  0  0
   -4.2574    2.1565    2.2935 C   0  0  0  0  0  0  0  0  0  0  0  0
   -4.8325    1.2354    1.5054 N   0  0  0  0  0  0  0  0  0  0  0  0
   -3.8338    0.6412    0.8380 C   0  0  0  0  0  0  0  0  0  0  0  0
   -5.7728   -2.8432   -1.0405 H   0  0  0  0  0  0  0  0  0  0  0  0
   -5.5775   -1.6962   -2.4409 H   0  0  0  0  0  0  0  0  0  0  0  0
   -4.1358   -2.4494   -1.7000 H   0  0  0  0  0  0  0  0  0  0  0  0
   -5.9569   -0.6215   -0.0876 H   0  0  0  0  0  0  0  0  0  0  0  0
   -0.4275   -1.4858   -1.5578 H   0  0  0  0  0  0  0  0  0  0  0  0
    0.8444    0.8108    1.1783 H   0  0  0  0  0  0  0  0  0  0  0  0
    3.2107    1.4198    1.3427 H   0  0  0  0  0  0  0  0  0  0  0  0
    3.9971   -0.7319   -2.2160 H   0  0  0  0  0  0  0  0  0  0  0  0
    1.6892   -1.3193   -2.3868 H   0  0  0  0  0  0  0  0  0  0  0  0
    5.6232   -1.0028    1.2432 H   0  0  0  0  0  0  0  0  0  0  0  0
    7.0564    0.0504    1.2990 H   0  0  0  0  0  0  0  0  0  0  0  0
    6.8989   -1.1138   -0.0286 H   0  0  0  0  0  0  0  0  0  0  0  0
   -2.1926    2.7426    2.5980 H   0  0  0  0  0  0  0  0  0  0  0  0
   -4.7482    2.8345    2.9796 H   0  0  0  0  0  0  0  0  0  0  0  0
  1  2  1  0
  2  3  1  0
  3  4  2  0
  4  5  1  0
  5  6  1  0
  6  7  1  0
  7  8  2  0
  8  9  1  0
  9 10  2  0
 10 11  1  0
 11 12  2  0
 10 13  1  0
 13 14  1  0
 13 15  2  0
 13 16  2  0
  5 17  2  0
 17 18  1  0
 18 19  1  0
 19 20  1  0
 20 21  2  0
 21 22  1  0
 22  3  1  0
 12  7  1  0
 22 18  2  0
  1 23  1  0
  1 24  1  0
  1 25  1  0
  2 26  1  0
  6 27  1  0
  8 28  1  0
  9 29  1  0
 11 30  1  0
 12 31  1  0
 14 32  1  0
 14 33  1  0
 14 34  1  0
 19 35  1  0
 20 36  1  0
M  END
$$$$
[H]OC(=O)C([H])([H])[C@@]([H])(C(=O)N([H])[C@]([H])(C(=O)O[H])C([H])([H])C([H])(C([H])([H])[H])C([H])([H])[H])N([H])C(=O)[C@@]1([H])N(C(=O)[C@@]([H])(c2c([H])c([H])c([H])c([H])c2[H])C([H])([H])[H])C([H])([H])C([H])([H])C1([H])[H]
     RDKit          3D

 67 68  0  0  0  0  0  0  0  0999 V2000
    5.5514    0.4013    0.9523 C   0  0  0  0  0  0  0  0  0  0  0  0
    5.8638    1.5642    0.0524 C   0  0  0  0  0  0  0  0  0  0  0  0
    7.3425    1.8959    0.3211 C   0  0  0  0  0  0  0  0  0  0  0  0
    5.7001    1.2939   -1.3982 C   0  0  0  0  0  0  0  0  0  0  0  0
    4.3849    0.9125   -1.9157 C   0  0  2  0  0  0  0  0  0  0  0  0
    3.7891   -0.3198   -1.3934 N   0  0  0  0  0  0  0  0  0  0  0  0
    2.4178   -0.3713   -1.0983 C   0  0  0  0  0  0  0  0  0  0  0  0
    1.7985    0.7743   -1.3376 O   0  0  0  0  0  0  0  0  0  0  0  0
    1.5794   -1.4539   -0.5892 C   0  0  2  0  0  0  0  0  0  0  0  0
    2.0917   -2.8071   -0.7568 C   0  0  0  0  0  0  0  0  0  0  0  0
    3.3368   -3.0635   -0.0238 C   0  0  0  0  0  0  0  0  0  0  0  0
    3.4470   -2.4419    1.2404 O   0  0  0  0  0  0  0  0  0  0  0  0
    4.3044   -3.7570   -0.3682 O   0  0  0  0  0  0  0  0  0  0  0  0
    0.2197   -1.2649   -1.0556 N   0  0  0  0  0  0  0  0  0  0  0  0
   -0.8602   -0.8161   -0.2173 C   0  0  0  0  0  0  0  0  0  0  0  0
   -0.5396   -0.5881    0.9627 O   0  0  0  0  0  0  0  0  0  0  0  0
   -2.1997   -0.6509   -0.7165 C   0  0  2  0  0  0  0  0  0  0  0  0
   -2.2870    0.0380   -2.0989 C   0  0  0  0  0  0  0  0  0  0  0  0
   -3.8045   -0.0936   -2.2902 C   0  0  0  0  0  0  0  0  0  0  0  0
   -4.3898   -0.1761   -0.8671 C   0  0  0  0  0  0  0  0  0  0  0  0
   -3.1787    0.0988   -0.0251 N   0  0  0  0  0  0  0  0  0  0  0  0
   -3.2809    0.9669    1.0740 C   0  0  0  0  0  0  0  0  0  0  0  0
   -2.2746    1.3369    1.7210 O   0  0  0  0  0  0  0  0  0  0  0  0
   -4.5926    1.5121    1.5528 C   0  0  2  0  0  0  0  0  0  0  0  0
   -4.3628    2.5031    2.6937 C   0  0  0  0  0  0  0  0  0  0  0  0
   -5.4529    0.4590    2.1040 C   0  0  0  0  0  0  0  0  0  0  0  0
   -4.9373   -0.4724    2.9786 C   0  0  0  0  0  0  0  0  0  0  0  0
   -5.7459   -1.4673    3.5058 C   0  0  0  0  0  0  0  0  0  0  0  0
   -7.0758   -1.5553    3.1755 C   0  0  0  0  0  0  0  0  0  0  0  0
   -7.5725   -0.5933    2.2829 C   0  0  0  0  0  0  0  0  0  0  0  0
   -6.7751    0.3853    1.7656 C   0  0  0  0  0  0  0  0  0  0  0  0
    4.5273    0.6931   -3.4153 C   0  0  0  0  0  0  0  0  0  0  0  0
    5.0679    1.6934   -4.2026 O   0  0  0  0  0  0  0  0  0  0  0  0
    4.1703   -0.3678   -3.9695 O   0  0  0  0  0  0  0  0  0  0  0  0
    6.1090    0.4760    1.9367 H   0  0  0  0  0  0  0  0  0  0  0  0
    4.4654    0.3486    1.1329 H   0  0  0  0  0  0  0  0  0  0  0  0
    5.8900   -0.5666    0.5237 H   0  0  0  0  0  0  0  0  0  0  0  0
    5.2338    2.4378    0.3332 H   0  0  0  0  0  0  0  0  0  0  0  0
    7.4461    2.1102    1.4034 H   0  0  0  0  0  0  0  0  0  0  0  0
    7.9788    1.0229    0.0541 H   0  0  0  0  0  0  0  0  0  0  0  0
    7.6707    2.7466   -0.3042 H   0  0  0  0  0  0  0  0  0  0  0  0
    6.4157    0.4393   -1.6365 H   0  0  0  0  0  0  0  0  0  0  0  0
    6.0823    2.1738   -2.0004 H   0  0  0  0  0  0  0  0  0  0  0  0
    3.6286    1.7329   -1.8165 H   0  0  0  0  0  0  0  0  0  0  0  0
    4.4520   -1.1041   -1.2870 H   0  0  0  0  0  0  0  0  0  0  0  0
    1.5213   -1.2737    0.5532 H   0  0  0  0  0  0  0  0  0  0  0  0
    1.3798   -3.6128   -0.4362 H   0  0  0  0  0  0  0  0  0  0  0  0
    2.3311   -3.0665   -1.8389 H   0  0  0  0  0  0  0  0  0  0  0  0
    3.5495   -3.0594    2.0345 H   0  0  0  0  0  0  0  0  0  0  0  0
    0.0096   -1.4653   -2.0437 H   0  0  0  0  0  0  0  0  0  0  0  0
   -2.6752   -1.6795   -0.9382 H   0  0  0  0  0  0  0  0  0  0  0  0
   -1.7096   -0.5231   -2.8406 H   0  0  0  0  0  0  0  0  0  0  0  0
   -2.0409    1.0892   -1.9685 H   0  0  0  0  0  0  0  0  0  0  0  0
   -3.9888   -1.1009   -2.7472 H   0  0  0  0  0  0  0  0  0  0  0  0
   -4.2281    0.7265   -2.8696 H   0  0  0  0  0  0  0  0  0  0  0  0
   -5.1168    0.6238   -0.8023 H   0  0  0  0  0  0  0  0  0  0  0  0
   -4.6996   -1.1805   -0.5971 H   0  0  0  0  0  0  0  0  0  0  0  0
   -5.0506    2.0726    0.7403 H   0  0  0  0  0  0  0  0  0  0  0  0
   -4.4844    2.0040    3.6856 H   0  0  0  0  0  0  0  0  0  0  0  0
   -3.3751    2.9595    2.6370 H   0  0  0  0  0  0  0  0  0  0  0  0
   -5.1456    3.2722    2.6393 H   0  0  0  0  0  0  0  0  0  0  0  0
   -3.8911   -0.4719    3.2993 H   0  0  0  0  0  0  0  0  0  0  0  0
   -5.3602   -2.2066    4.1949 H   0  0  0  0  0  0  0  0  0  0  0  0
   -7.7512   -2.3044    3.5471 H   0  0  0  0  0  0  0  0  0  0  0  0
   -8.6269   -0.6793    2.0341 H   0  0  0  0  0  0  0  0  0  0  0  0
   -7.2322    1.0980    1.0753 H   0  0  0  0  0  0  0  0  0  0  0  0
    4.9504    2.6923   -4.0098 H   0  0  0  0  0  0  0  0  0  0  0  0
  1  2  1  0
  2  3  1  0
  2  4  1  0
  4  5  1  0
  5  6  1  0
  6  7  1  0
  7  8  2  0
  7  9  1  0
  9 10  1  0
 10 11  1  0
 11 12  1  0
 11 13  2  0
  9 14  1  0
 14 15  1  0
 15 16  2  0
 15 17  1  0
 17 18  1  0
 18 19  1  0
 19 20  1  0
 20 21  1  0
 21 22  1  0
 22 23  2  0
 22 24  1  0
 24 25  1  0
 24 26  1  0
 26 27  2  0
 27 28  1  0
 28 29  2  0
 29 30  1  0
 30 31  2  0
  5 32  1  0
 32 33  1  0
 32 34  2  0
 21 17  1  0
 31 26  1  0
  1 35  1  0
  1 36  1  0
  1 37  1  0
  2 38  1  0
  3 39  1  0
  3 40  1  0
  3 41  1  0
  4 42  1  0
  4 43  1  0
  5 44  1  6
  6 45  1  0
  9 46  1  1
 10 47  1  0
 10 48  1  0
 12 49  1  0
 14 50  1  0
 17 51  1  6
 18 52  1  0
 18 53  1  0
 19 54  1  0
 19 55  1  0
 20 56  1  0
 20 57  1  0
 24 58  1  6
 25 59  1  0
 25 60  1  0
 25 61  1  0
 27 62  1  0
 28 63  1  0
 29 64  1  0
 30 65  1  0
 31 66  1  0
 33 67  1  0
M  END
$$$$
[H]OC(=O)[C@@]([H])(OC([H])([H])c1c([H])c([H])c([H])c(N([H])C(=O)c2c([H])c([H])c([H])c([H])c2[H])c1[H])[C@@]([H])(C(=O)O[H])N([H])[H]
     RDKit          3D

 44 45  0  0  0  0  0  0  0  0999 V2000
   -4.2831    1.9528    0.3932 N   0  0  0  0  0  0  0  0  0  0  0  0
   -5.1838    0.7785    0.3213 C   0  0  1  0  0  0  0  0  0  0  0  0
   -4.3723   -0.3547    0.8423 C   0  0  2  0  0  0  0  0  0  0  0  0
   -3.2460   -0.4539   -0.0036 O   0  0  0  0  0  0  0  0  0  0  0  0
   -2.0564   -0.2187    0.6404 C   0  0  0  0  0  0  0  0  0  0  0  0
   -0.9626   -0.3520   -0.3527 C   0  0  0  0  0  0  0  0  0  0  0  0
   -1.2249   -0.6630   -1.6702 C   0  0  0  0  0  0  0  0  0  0  0  0
   -0.1883   -0.7809   -2.5744 C   0  0  0  0  0  0  0  0  0  0  0  0
    1.1360   -0.5786   -2.1291 C   0  0  0  0  0  0  0  0  0  0  0  0
    1.4128   -0.2708   -0.8290 C   0  0  0  0  0  0  0  0  0  0  0  0
    2.7007   -0.0776   -0.3145 N   0  0  0  0  0  0  0  0  0  0  0  0
    3.9091   -0.4578   -0.9286 C   0  0  0  0  0  0  0  0  0  0  0  0
    3.9893   -1.0336   -2.0392 O   0  0  0  0  0  0  0  0  0  0  0  0
    5.1702   -0.1545   -0.2117 C   0  0  0  0  0  0  0  0  0  0  0  0
    5.2499    0.0888    1.1319 C   0  0  0  0  0  0  0  0  0  0  0  0
    6.4808    0.3782    1.7382 C   0  0  0  0  0  0  0  0  0  0  0  0
    7.6175    0.4163    0.9693 C   0  0  0  0  0  0  0  0  0  0  0  0
    7.5732    0.1772   -0.3792 C   0  0  0  0  0  0  0  0  0  0  0  0
    6.3540   -0.1053   -0.9569 C   0  0  0  0  0  0  0  0  0  0  0  0
    0.3297   -0.1580    0.0679 C   0  0  0  0  0  0  0  0  0  0  0  0
   -5.0371   -1.6489    0.9752 C   0  0  0  0  0  0  0  0  0  0  0  0
   -4.6592   -2.7939    0.2817 O   0  0  0  0  0  0  0  0  0  0  0  0
   -6.0092   -1.7736    1.7503 O   0  0  0  0  0  0  0  0  0  0  0  0
   -6.3807    1.1450    1.0945 C   0  0  0  0  0  0  0  0  0  0  0  0
   -6.3610    2.3070    1.8988 O   0  0  0  0  0  0  0  0  0  0  0  0
   -7.4677    0.4960    1.1105 O   0  0  0  0  0  0  0  0  0  0  0  0
   -3.5816    1.9650   -0.3467 H   0  0  0  0  0  0  0  0  0  0  0  0
   -3.9887    2.1244    1.3549 H   0  0  0  0  0  0  0  0  0  0  0  0
   -5.4726    0.6708   -0.7446 H   0  0  0  0  0  0  0  0  0  0  0  0
   -3.9763   -0.0834    1.8400 H   0  0  0  0  0  0  0  0  0  0  0  0
   -2.0187    0.8105    1.0420 H   0  0  0  0  0  0  0  0  0  0  0  0
   -1.8335   -0.9700    1.4297 H   0  0  0  0  0  0  0  0  0  0  0  0
   -2.2630   -0.8095   -1.9645 H   0  0  0  0  0  0  0  0  0  0  0  0
   -0.3621   -1.0223   -3.6078 H   0  0  0  0  0  0  0  0  0  0  0  0
    1.9088   -0.6650   -2.8546 H   0  0  0  0  0  0  0  0  0  0  0  0
    2.7671    0.4200    0.6396 H   0  0  0  0  0  0  0  0  0  0  0  0
    4.3537    0.0522    1.7370 H   0  0  0  0  0  0  0  0  0  0  0  0
    6.4719    0.5611    2.8070 H   0  0  0  0  0  0  0  0  0  0  0  0
    8.5453    0.6425    1.4732 H   0  0  0  0  0  0  0  0  0  0  0  0
    8.4953    0.2158   -0.9581 H   0  0  0  0  0  0  0  0  0  0  0  0
    6.2750   -0.3001   -2.0179 H   0  0  0  0  0  0  0  0  0  0  0  0
    0.5370    0.0882    1.1154 H   0  0  0  0  0  0  0  0  0  0  0  0
   -4.3645   -2.7472   -0.6864 H   0  0  0  0  0  0  0  0  0  0  0  0
   -5.9837    3.1832    1.5527 H   0  0  0  0  0  0  0  0  0  0  0  0
  1  2  1  0
  2  3  1  0
  3  4  1  0
  4  5  1  0
  5  6  1  0
  6  7  2  0
  7  8  1  0
  8  9  2  0
  9 10  1  0
 10 11  1  0
 11 12  1  0
 12 13  2  0
 12 14  1  0
 14 15  2  0
 15 16  1  0
 16 17  2  0
 17 18  1  0
 18 19  2  0
 10 20  2  0
  3 21  1  0
 21 22  1  0
 21 23  2  0
  2 24  1  0
 24 25  1  0
 24 26  2  0
 20  6  1  0
 19 14  1  0
  1 27  1  0
  1 28  1  0
  2 29  1  6
  3 30  1  1
  5 31  1  0
  5 32  1  0
  7 33  1  0
  8 34  1  0
  9 35  1  0
 11 36  1  0
 15 37  1  0
 16 38  1  0
 17 39  1  0
 18 40  1  0
 19 41  1  0
 20 42  1  0
 22 43  1  0
 25 44  1  0
M  END
$$$$
[H]c1nc2c([H])c([H])nn2c([H])c1C#Cc1c([H])c(C(=O)N([H])c2c([H])c([H])c(C([H])([H])N3C([H])([H])C([H])([H])N(C([H])([H])[H])C([H])([H])C3([H])[H])c(C(F)(F)F)c2[H])c([H])c([H])c1C([H])([H])[H]
     RDKit          3D

 66 70  0  0  0  0  0  0  0  0999 V2000
   -8.0029   -0.9329    2.0798 C   0  0  0  0  0  0  0  0  0  0  0  0
   -8.6737   -0.7182    0.8267 N   0  0  0  0  0  0  0  0  0  0  0  0
   -8.8976    0.6765    0.6014 C   0  0  0  0  0  0  0  0  0  0  0  0
   -7.5966    1.4156    0.6114 C   0  0  0  0  0  0  0  0  0  0  0  0
   -6.4528    0.5166    0.3189 N   0  0  0  0  0  0  0  0  0  0  0  0
   -5.3589    1.3622   -0.1447 C   0  0  0  0  0  0  0  0  0  0  0  0
   -4.0697    0.6837   -0.2699 C   0  0  0  0  0  0  0  0  0  0  0  0
   -3.8496   -0.6400    0.1072 C   0  0  0  0  0  0  0  0  0  0  0  0
   -2.6262   -1.2385    0.0140 C   0  0  0  0  0  0  0  0  0  0  0  0
   -1.5137   -0.5283   -0.4763 C   0  0  0  0  0  0  0  0  0  0  0  0
   -0.2725   -1.2075   -0.5695 N   0  0  0  0  0  0  0  0  0  0  0  0
    0.9711   -0.6227   -0.6893 C   0  0  0  0  0  0  0  0  0  0  0  0
    1.1143    0.6247   -0.7182 O   0  0  0  0  0  0  0  0  0  0  0  0
    2.2022   -1.4296   -0.7890 C   0  0  0  0  0  0  0  0  0  0  0  0
    2.2018   -2.7513   -1.1592 C   0  0  0  0  0  0  0  0  0  0  0  0
    3.3841   -3.4303   -1.2178 C   0  0  0  0  0  0  0  0  0  0  0  0
    4.5597   -2.8038   -0.9118 C   0  0  0  0  0  0  0  0  0  0  0  0
    5.8812   -3.5244   -0.9667 C   0  0  0  0  0  0  0  0  0  0  0  0
    4.6282   -1.4690   -0.5306 C   0  0  0  0  0  0  0  0  0  0  0  0
    3.4148   -0.8178   -0.4832 C   0  0  0  0  0  0  0  0  0  0  0  0
    5.8617   -0.8049   -0.2067 C   0  0  0  0  0  0  0  0  0  0  0  0
    6.8890   -0.2374    0.0830 C   0  0  0  0  0  0  0  0  0  0  0  0
    8.0983    0.4508    0.4462 C   0  0  0  0  0  0  0  0  0  0  0  0
    9.3432   -0.1087    0.2397 C   0  0  0  0  0  0  0  0  0  0  0  0
   10.4720    0.5418    0.5826 N   0  0  0  0  0  0  0  0  0  0  0  0
   10.4405    1.7657    1.1417 C   0  0  0  0  0  0  0  0  0  0  0  0
   11.4391    2.6407    1.5824 C   0  0  0  0  0  0  0  0  0  0  0  0
   10.7757    3.7484    2.0632 C   0  0  0  0  0  0  0  0  0  0  0  0
    9.4813    3.5210    1.9074 N   0  0  0  0  0  0  0  0  0  0  0  0
    9.2453    2.3420    1.3580 N   0  0  0  0  0  0  0  0  0  0  0  0
    8.0987    1.7156    1.0254 C   0  0  0  0  0  0  0  0  0  0  0  0
   -1.7463    0.7534   -0.8371 C   0  0  0  0  0  0  0  0  0  0  0  0
   -2.9947    1.3973   -0.7529 C   0  0  0  0  0  0  0  0  0  0  0  0
   -3.1379    2.7898   -1.1765 C   0  0  0  0  0  0  0  0  0  0  0  0
   -3.5699    3.6609   -0.2069 F   0  0  0  0  0  0  0  0  0  0  0  0
   -1.8666    3.2860   -1.5291 F   0  0  0  0  0  0  0  0  0  0  0  0
   -3.8560    2.9314   -2.3744 F   0  0  0  0  0  0  0  0  0  0  0  0
   -6.9052   -0.3353   -0.7914 C   0  0  0  0  0  0  0  0  0  0  0  0
   -7.9008   -1.3168   -0.2551 C   0  0  0  0  0  0  0  0  0  0  0  0
   -7.6913    0.0402    2.5427 H   0  0  0  0  0  0  0  0  0  0  0  0
   -8.6959   -1.4225    2.8022 H   0  0  0  0  0  0  0  0  0  0  0  0
   -7.0790   -1.5250    1.9504 H   0  0  0  0  0  0  0  0  0  0  0  0
   -9.5281    1.0772    1.4118 H   0  0  0  0  0  0  0  0  0  0  0  0
   -9.3901    0.8202   -0.3836 H   0  0  0  0  0  0  0  0  0  0  0  0
   -7.5385    2.2187   -0.1551 H   0  0  0  0  0  0  0  0  0  0  0  0
   -7.4030    1.8955    1.5933 H   0  0  0  0  0  0  0  0  0  0  0  0
   -5.6699    1.9698   -1.0107 H   0  0  0  0  0  0  0  0  0  0  0  0
   -5.2394    2.1079    0.7021 H   0  0  0  0  0  0  0  0  0  0  0  0
   -4.6665   -1.2422    0.5086 H   0  0  0  0  0  0  0  0  0  0  0  0
   -2.4434   -2.2588    0.3018 H   0  0  0  0  0  0  0  0  0  0  0  0
   -0.2797   -2.2866   -0.5442 H   0  0  0  0  0  0  0  0  0  0  0  0
    1.2452   -3.2126   -1.3995 H   0  0  0  0  0  0  0  0  0  0  0  0
    3.3976   -4.4660   -1.5062 H   0  0  0  0  0  0  0  0  0  0  0  0
    6.1453   -3.8815    0.0456 H   0  0  0  0  0  0  0  0  0  0  0  0
    6.6144   -2.8164   -1.3879 H   0  0  0  0  0  0  0  0  0  0  0  0
    5.8085   -4.3726   -1.6813 H   0  0  0  0  0  0  0  0  0  0  0  0
    3.4436    0.2265   -0.1878 H   0  0  0  0  0  0  0  0  0  0  0  0
    9.3653   -1.1030   -0.2147 H   0  0  0  0  0  0  0  0  0  0  0  0
   12.4997    2.4477    1.5366 H   0  0  0  0  0  0  0  0  0  0  0  0
   11.3008    4.6037    2.4761 H   0  0  0  0  0  0  0  0  0  0  0  0
    7.1270    2.1747    1.1971 H   0  0  0  0  0  0  0  0  0  0  0  0
   -0.9520    1.3665   -1.2382 H   0  0  0  0  0  0  0  0  0  0  0  0
   -6.0773   -0.7966   -1.2771 H   0  0  0  0  0  0  0  0  0  0  0  0
   -7.3996    0.3367   -1.5385 H   0  0  0  0  0  0  0  0  0  0  0  0
   -8.6471   -1.5372   -1.0652 H   0  0  0  0  0  0  0  0  0  0  0  0
   -7.4574   -2.2707    0.0357 H   0  0  0  0  0  0  0  0  0  0  0  0
  1  2  1  0
  2  3  1  0
  3  4  1  0
  4  5  1  0
  5  6  1  0
  6  7  1  0
  7  8  2  0
  8  9  1  0
  9 10  2  0
 10 11  1  0
 11 12  1  0
 12 13  2  0
 12 14  1  0
 14 15  2  0
 15 16  1  0
 16 17  2  0
 17 18  1  0
 17 19  1  0
 19 20  2  0
 19 21  1  0
 21 22  3  0
 22 23  1  0
 23 24  1  0
 24 25  2  0
 25 26  1  0
 26 27  2  0
 27 28  1  0
 28 29  2  0
 29 30  1  0
 30 31  1  0
 10 32  1  0
 32 33  2  0
 33 34  1  0
 34 35  1  0
 34 36  1  0
 34 37  1  0
  5 38  1  0
 38 39  1  0
 39  2  1  0
 33  7  1  0
 20 14  1  0
 31 23  2  0
 30 26  1  0
  1 40  1  0
  1 41  1  0
  1 42  1  0
  3 43  1  0
  3 44  1  0
  4 45  1  0
  4 46  1  0
  6 47  1  0
  6 48  1  0
  8 49  1  0
  9 50  1  0
 11 51  1  0
 15 52  1  0
 16 53  1  0
 18 54  1  0
 18 55  1  0
 18 56  1  0
 20 57  1  0
 24 58  1  0
 27 59  1  0
 28 60  1  0
 31 61  1  0
 32 62  1  0
 38 63  1  0
 38 64  1  0
 39 65  1  0
 39 66  1  0
M  END
$$$$
[H]c1c([H])c([H])c(C([H])([H])[C@@]2([H])C(=O)N([H])[C@@]([H])([C@@]([H])(C([H])([H])[H])C([H])([H])C([H])([H])[H])C(=O)N([H])[C@@]([H])([C@]([H])(C([H])([H])[H])C([H])([H])C([H])([H])[H])C(=O)N([H])[C@@]([H])([C@@]([H])(C([H])([H])[H])C([H])([H])C([H])([H])[H])C(=O)N2[H])c([H])c1[H]
     RDKit          3D

 77 78  0  0  0  0  0  0  0  0999 V2000
   -2.9784   -4.3716   -1.2382 C   0  0  0  0  0  0  0  0  0  0  0  0
   -2.0011   -3.7445   -2.1633 C   0  0  0  0  0  0  0  0  0  0  0  0
   -0.6072   -3.5994   -1.6718 C   0  0  2  0  0  0  0  0  0  0  0  0
    0.0585   -4.8862   -1.2971 C   0  0  0  0  0  0  0  0  0  0  0  0
   -0.3748   -2.4668   -0.6967 C   0  0  2  0  0  0  0  0  0  0  0  0
    1.0441   -2.5021   -0.3398 N   0  0  0  0  0  0  0  0  0  0  0  0
    1.7736   -1.5218    0.3251 C   0  0  0  0  0  0  0  0  0  0  0  0
    2.3551   -1.8643    1.4263 O   0  0  0  0  0  0  0  0  0  0  0  0
    1.9638   -0.1034   -0.0864 C   0  0  2  0  0  0  0  0  0  0  0  0
    3.2360    0.0297   -0.8741 C   0  0  0  0  0  0  0  0  0  0  0  0
    4.4419   -0.3940   -0.1432 C   0  0  0  0  0  0  0  0  0  0  0  0
    4.8313   -1.7179   -0.3192 C   0  0  0  0  0  0  0  0  0  0  0  0
    5.9318   -2.2252    0.3033 C   0  0  0  0  0  0  0  0  0  0  0  0
    6.6945   -1.4422    1.1269 C   0  0  0  0  0  0  0  0  0  0  0  0
    6.3267   -0.1176    1.3176 C   0  0  0  0  0  0  0  0  0  0  0  0
    5.2079    0.3858    0.6811 C   0  0  0  0  0  0  0  0  0  0  0  0
    1.9727    0.7582    1.0646 N   0  0  0  0  0  0  0  0  0  0  0  0
    0.9555    1.6535    1.4564 C   0  0  0  0  0  0  0  0  0  0  0  0
    0.8765    1.9616    2.7030 O   0  0  0  0  0  0  0  0  0  0  0  0
   -0.0507    2.2950    0.6048 C   0  0  1  0  0  0  0  0  0  0  0  0
   -1.3453    2.1370    1.2372 N   0  0  0  0  0  0  0  0  0  0  0  0
   -2.0068    0.8872    1.3972 C   0  0  0  0  0  0  0  0  0  0  0  0
   -2.5166    0.5946    2.5304 O   0  0  0  0  0  0  0  0  0  0  0  0
   -2.1484   -0.1205    0.3257 C   0  0  1  0  0  0  0  0  0  0  0  0
   -2.1165   -1.4765    0.8488 N   0  0  0  0  0  0  0  0  0  0  0  0
   -1.2390   -2.5082    0.4820 C   0  0  0  0  0  0  0  0  0  0  0  0
   -1.2466   -3.5221    1.2788 O   0  0  0  0  0  0  0  0  0  0  0  0
   -3.2774    0.1306   -0.5829 C   0  0  2  0  0  0  0  0  0  0  0  0
   -3.1436    1.4901   -1.2752 C   0  0  0  0  0  0  0  0  0  0  0  0
   -4.6646    0.0059   -0.1259 C   0  0  0  0  0  0  0  0  0  0  0  0
   -5.1502    0.8812    0.9637 C   0  0  0  0  0  0  0  0  0  0  0  0
    0.2972    3.7229    0.3062 C   0  0  1  0  0  0  0  0  0  0  0  0
   -0.7057    4.3967   -0.5565 C   0  0  0  0  0  0  0  0  0  0  0  0
    0.6410    4.5540    1.5011 C   0  0  0  0  0  0  0  0  0  0  0  0
    0.9583    5.9566    0.9746 C   0  0  0  0  0  0  0  0  0  0  0  0
   -2.5512   -5.2216   -0.6552 H   0  0  0  0  0  0  0  0  0  0  0  0
   -3.5692   -3.6680   -0.6208 H   0  0  0  0  0  0  0  0  0  0  0  0
   -3.7642   -4.8764   -1.8823 H   0  0  0  0  0  0  0  0  0  0  0  0
   -2.3803   -2.7262   -2.4042 H   0  0  0  0  0  0  0  0  0  0  0  0
   -1.9773   -4.3206   -3.1165 H   0  0  0  0  0  0  0  0  0  0  0  0
   -0.0254   -3.2566   -2.5956 H   0  0  0  0  0  0  0  0  0  0  0  0
    0.2293   -4.8768   -0.1805 H   0  0  0  0  0  0  0  0  0  0  0  0
   -0.5096   -5.7809   -1.6238 H   0  0  0  0  0  0  0  0  0  0  0  0
    1.0676   -5.0045   -1.7427 H   0  0  0  0  0  0  0  0  0  0  0  0
   -0.5535   -1.5424   -1.2630 H   0  0  0  0  0  0  0  0  0  0  0  0
    1.5690   -3.3870   -0.6217 H   0  0  0  0  0  0  0  0  0  0  0  0
    1.1012    0.2202   -0.7257 H   0  0  0  0  0  0  0  0  0  0  0  0
    3.3658    1.1203   -1.1572 H   0  0  0  0  0  0  0  0  0  0  0  0
    3.1639   -0.5199   -1.8414 H   0  0  0  0  0  0  0  0  0  0  0  0
    4.2435   -2.3798   -0.9766 H   0  0  0  0  0  0  0  0  0  0  0  0
    6.2323   -3.2775    0.1590 H   0  0  0  0  0  0  0  0  0  0  0  0
    7.5705   -1.8517    1.6214 H   0  0  0  0  0  0  0  0  0  0  0  0
    6.9349    0.4876    1.9657 H   0  0  0  0  0  0  0  0  0  0  0  0
    4.9106    1.4172    0.8153 H   0  0  0  0  0  0  0  0  0  0  0  0
    2.8139    0.7478    1.7254 H   0  0  0  0  0  0  0  0  0  0  0  0
   -0.0921    1.7695   -0.3652 H   0  0  0  0  0  0  0  0  0  0  0  0
   -1.8186    2.9878    1.5984 H   0  0  0  0  0  0  0  0  0  0  0  0
   -1.1600   -0.0411   -0.2482 H   0  0  0  0  0  0  0  0  0  0  0  0
   -2.8759   -1.6353    1.5956 H   0  0  0  0  0  0  0  0  0  0  0  0
   -3.1267   -0.6006   -1.4601 H   0  0  0  0  0  0  0  0  0  0  0  0
   -2.1031    1.5331   -1.6599 H   0  0  0  0  0  0  0  0  0  0  0  0
   -3.3013    2.3294   -0.5928 H   0  0  0  0  0  0  0  0  0  0  0  0
   -3.7933    1.4899   -2.1729 H   0  0  0  0  0  0  0  0  0  0  0  0
   -5.3194    0.2049   -1.0397 H   0  0  0  0  0  0  0  0  0  0  0  0
   -4.9639   -1.0415    0.1462 H   0  0  0  0  0  0  0  0  0  0  0  0
   -5.2787    0.3943    1.9571 H   0  0  0  0  0  0  0  0  0  0  0  0
   -4.6395    1.8443    1.0897 H   0  0  0  0  0  0  0  0  0  0  0  0
   -6.2244    1.1783    0.7049 H   0  0  0  0  0  0  0  0  0  0  0  0
    1.2518    3.6678   -0.3050 H   0  0  0  0  0  0  0  0  0  0  0  0
   -0.6751    5.5021   -0.5248 H   0  0  0  0  0  0  0  0  0  0  0  0
   -0.6605    3.9988   -1.5957 H   0  0  0  0  0  0  0  0  0  0  0  0
   -1.7305    4.1142   -0.1711 H   0  0  0  0  0  0  0  0  0  0  0  0
   -0.1467    4.6351    2.2517 H   0  0  0  0  0  0  0  0  0  0  0  0
    1.6000    4.1776    1.9183 H   0  0  0  0  0  0  0  0  0  0  0  0
    0.0952    6.6374    1.0579 H   0  0  0  0  0  0  0  0  0  0  0  0
    1.3057    5.8745   -0.0860 H   0  0  0  0  0  0  0  0  0  0  0  0
    1.7918    6.4201    1.5378 H   0  0  0  0  0  0  0  0  0  0  0  0
  1  2  1  0
  2  3  1  0
  3  4  1  0
  3  5  1  0
  5  6  1  0
  6  7  1  0
  7  8  2  0
  7  9  1  0
  9 10  1  0
 10 11  1  0
 11 12  2  0
 12 13  1  0
 13 14  2  0
 14 15  1  0
 15 16  2  0
  9 17  1  0
 17 18  1  0
 18 19  2  0
 18 20  1  0
 20 21  1  0
 21 22  1  0
 22 23  2  0
 22 24  1  0
 24 25  1  0
 25 26  1  0
 26 27  2  0
 24 28  1  0
 28 29  1  0
 28 30  1  0
 30 31  1  0
 20 32  1  0
 32 33  1  0
 32 34  1  0
 34 35  1  0
 26  5  1  0
 16 11  1  0
  1 36  1  0
  1 37  1  0
  1 38  1  0
  2 39  1  0
  2 40  1  0
  3 41  1  6
  4 42  1  0
  4 43  1  0
  4 44  1  0
  5 45  1  6
  6 46  1  0
  9 47  1  6
 10 48  1  0
 10 49  1  0
 12 50  1  0
 13 51  1  0
 14 52  1  0
 15 53  1  0
 16 54  1  0
 17 55  1  0
 20 56  1  6
 21 57  1  0
 24 58  1  6
 25 59  1  0
 28 60  1  6
 29 61  1  0
 29 62  1  0
 29 63  1  0
 30 64  1  0
 30 65  1  0
 31 66  1  0
 31 67  1  0
 31 68  1  0
 32 69  1  6
 33 70  1  0
 33 71  1  0
 33 72  1  0
 34 73  1  0
 34 74  1  0
 35 75  1  0
 35 76  1  0
 35 77  1  0
M  END
$$$$
[H]O[C@@]([H])(C([H])([H])C(=O)OC([H])([H])C([H])([H])[H])[C@@]([H])(N([H])C(=O)[C@@]([H])(N([H])C(=O)C([H])([H])C([H])(C([H])([H])[H])C([H])([H])[H])C([H])(C([H])([H])[H])C([H])([H])[H])C([H])([H])C([H])(C([H])([H])[H])C([H])([H])[H]
     RDKit          3D

 65 64  0  0  0  0  0  0  0  0999 V2000
    5.9508    4.2680   -1.1985 C   0  0  0  0  0  0  0  0  0  0  0  0
    5.7566    2.9816   -1.9746 C   0  0  0  0  0  0  0  0  0  0  0  0
    4.8721    2.1210   -1.3198 O   0  0  0  0  0  0  0  0  0  0  0  0
    5.0880    1.6192   -0.0422 C   0  0  0  0  0  0  0  0  0  0  0  0
    6.1284    1.9648    0.5419 O   0  0  0  0  0  0  0  0  0  0  0  0
    4.1523    0.7017    0.6563 C   0  0  0  0  0  0  0  0  0  0  0  0
    2.9250    0.4183   -0.1698 C   0  0  2  0  0  0  0  0  0  0  0  0
    2.3517    1.7274   -0.3344 O   0  0  0  0  0  0  0  0  0  0  0  0
    1.8673   -0.2814    0.7444 C   0  0  2  0  0  0  0  0  0  0  0  0
    2.3899   -1.5409    1.2844 C   0  0  0  0  0  0  0  0  0  0  0  0
    2.7673   -2.6792    0.4625 C   0  0  0  0  0  0  0  0  0  0  0  0
    3.8206   -2.5949   -0.5702 C   0  0  0  0  0  0  0  0  0  0  0  0
    1.5878   -3.4706   -0.1134 C   0  0  0  0  0  0  0  0  0  0  0  0
    0.5671   -0.2555    0.2368 N   0  0  0  0  0  0  0  0  0  0  0  0
   -0.6949   -0.2302   -0.2565 C   0  0  0  0  0  0  0  0  0  0  0  0
   -0.8746    0.0536   -1.5307 O   0  0  0  0  0  0  0  0  0  0  0  0
   -1.9949   -0.4637    0.3905 C   0  0  1  0  0  0  0  0  0  0  0  0
   -3.0612   -0.3740   -0.5719 N   0  0  0  0  0  0  0  0  0  0  0  0
   -4.1478    0.5055   -0.4044 C   0  0  0  0  0  0  0  0  0  0  0  0
   -4.1968    1.2314    0.6150 O   0  0  0  0  0  0  0  0  0  0  0  0
   -5.2541    0.6079   -1.3980 C   0  0  0  0  0  0  0  0  0  0  0  0
   -6.3593    1.5162   -0.9955 C   0  0  0  0  0  0  0  0  0  0  0  0
   -7.0172    1.0669    0.3120 C   0  0  0  0  0  0  0  0  0  0  0  0
   -6.0224    2.9710   -0.9705 C   0  0  0  0  0  0  0  0  0  0  0  0
   -2.2210   -1.6825    1.1997 C   0  0  0  0  0  0  0  0  0  0  0  0
   -1.3056   -1.7854    2.3892 C   0  0  0  0  0  0  0  0  0  0  0  0
   -2.2955   -2.9597    0.4130 C   0  0  0  0  0  0  0  0  0  0  0  0
    5.8363    5.1507   -1.8541 H   0  0  0  0  0  0  0  0  0  0  0  0
    6.9979    4.2236   -0.7862 H   0  0  0  0  0  0  0  0  0  0  0  0
    5.1953    4.3058   -0.4057 H   0  0  0  0  0  0  0  0  0  0  0  0
    5.2814    3.2560   -2.9497 H   0  0  0  0  0  0  0  0  0  0  0  0
    6.6970    2.4522   -2.1737 H   0  0  0  0  0  0  0  0  0  0  0  0
    4.7119   -0.1582    1.0108 H   0  0  0  0  0  0  0  0  0  0  0  0
    3.7852    1.2998    1.5459 H   0  0  0  0  0  0  0  0  0  0  0  0
    3.0375    0.0022   -1.1306 H   0  0  0  0  0  0  0  0  0  0  0  0
    1.9910    1.8108   -1.2551 H   0  0  0  0  0  0  0  0  0  0  0  0
    1.8820    0.4972    1.5860 H   0  0  0  0  0  0  0  0  0  0  0  0
    1.6824   -1.9198    2.0783 H   0  0  0  0  0  0  0  0  0  0  0  0
    3.2975   -1.2667    1.9124 H   0  0  0  0  0  0  0  0  0  0  0  0
    3.1888   -3.4447    1.2217 H   0  0  0  0  0  0  0  0  0  0  0  0
    3.4596   -2.2349   -1.5517 H   0  0  0  0  0  0  0  0  0  0  0  0
    4.1028   -3.6852   -0.8191 H   0  0  0  0  0  0  0  0  0  0  0  0
    4.7687   -2.1790   -0.2258 H   0  0  0  0  0  0  0  0  0  0  0  0
    1.3313   -3.0525   -1.1039 H   0  0  0  0  0  0  0  0  0  0  0  0
    1.9216   -4.5295   -0.3289 H   0  0  0  0  0  0  0  0  0  0  0  0
    0.7689   -3.5532    0.5966 H   0  0  0  0  0  0  0  0  0  0  0  0
    1.0690   -0.0060   -0.9834 H   0  0  0  0  0  0  0  0  0  0  0  0
   -2.1385    0.4675    1.0627 H   0  0  0  0  0  0  0  0  0  0  0  0
   -3.0228   -0.9815   -1.4130 H   0  0  0  0  0  0  0  0  0  0  0  0
   -4.8217    1.0424   -2.3525 H   0  0  0  0  0  0  0  0  0  0  0  0
   -5.6646   -0.3703   -1.7054 H   0  0  0  0  0  0  0  0  0  0  0  0
   -7.1713    1.3771   -1.7714 H   0  0  0  0  0  0  0  0  0  0  0  0
   -8.0999    1.2210    0.2451 H   0  0  0  0  0  0  0  0  0  0  0  0
   -6.6123    1.5923    1.1826 H   0  0  0  0  0  0  0  0  0  0  0  0
   -6.7952   -0.0371    0.3470 H   0  0  0  0  0  0  0  0  0  0  0  0
   -6.9682    3.5862   -0.9474 H   0  0  0  0  0  0  0  0  0  0  0  0
   -5.4464    3.2141   -0.0657 H   0  0  0  0  0  0  0  0  0  0  0  0
   -5.4932    3.2914   -1.8633 H   0  0  0  0  0  0  0  0  0  0  0  0
   -3.2596   -1.6169    1.6899 H   0  0  0  0  0  0  0  0  0  0  0  0
   -0.6522   -2.6589    2.2732 H   0  0  0  0  0  0  0  0  0  0  0  0
   -1.8427   -1.7948    3.3701 H   0  0  0  0  0  0  0  0  0  0  0  0
   -0.7151   -0.8187    2.4354 H   0  0  0  0  0  0  0  0  0  0  0  0
   -1.5796   -3.7403    0.7611 H   0  0  0  0  0  0  0  0  0  0  0  0
   -2.2011   -2.7205   -0.6635 H   0  0  0  0  0  0  0  0  0  0  0  0
   -3.3010   -3.4580    0.5114 H   0  0  0  0  0  0  0  0  0  0  0  0
  1  2  1  0
  2  3  1  0
  3  4  1  0
  4  5  2  0
  4  6  1  0
  6  7  1  0
  7  8  1  0
  7  9  1  0
  9 10  1  0
 10 11  1  0
 11 12  1  0
 11 13  1  0
  9 14  1  0
 14 15  1  0
 15 16  2  0
 15 17  1  0
 17 18  1  0
 18 19  1  0
 19 20  2  0
 19 21  1  0
 21 22  1  0
 22 23  1  0
 22 24  1  0
 17 25  1  0
 25 26  1  0
 25 27  1  0
  1 28  1  0
  1 29  1  0
  1 30  1  0
  2 31  1  0
  2 32  1  0
  6 33  1  0
  6 34  1  0
  7 35  1  6
  8 36  1  0
  9 37  1  1
 10 38  1  0
 10 39  1  0
 11 40  1  0
 12 41  1  0
 12 42  1  0
 12 43  1  0
 13 44  1  0
 13 45  1  0
 13 46  1  0
 14 47  1  0
 17 48  1  1
 18 49  1  0
 21 50  1  0
 21 51  1  0
 22 52  1  0
 23 53  1  0
 23 54  1  0
 23 55  1  0
 24 56  1  0
 24 57  1  0
 24 58  1  0
 25 59  1  0
 26 60  1  0
 26 61  1  0
 26 62  1  0
 27 63  1  0
 27 64  1  0
 27 65  1  0
M  END
$$$$
[H]ON(C([H])=O)C([H])([H])[C@]([H])(C(=O)N1C([H])([H])C([H])([H])C([H])([H])[C@@]1([H])C(=O)N([H])C1([H])C([H])([H])C([H])([H])OC([H])([H])C1([H])[H])C([H])([H])C1([H])C([H])([H])C([H])([H])C([H])([H])C([H])([H])C1([H])[H]
     RDKit          3D

 64 66  0  0  0  0  0  0  0  0999 V2000
   -2.8422   -3.2285   -0.8686 O   0  0  0  0  0  0  0  0  0  0  0  0
   -1.6639   -2.7414   -0.4356 N   0  0  0  0  0  0  0  0  0  0  0  0
   -1.2860   -1.3813   -0.7399 C   0  0  0  0  0  0  0  0  0  0  0  0
   -1.7080   -0.3865    0.2692 C   0  0  1  0  0  0  0  0  0  0  0  0
   -3.1524   -0.2473    0.5252 C   0  0  0  0  0  0  0  0  0  0  0  0
   -4.0415    0.1546   -0.5959 C   0  0  0  0  0  0  0  0  0  0  0  0
   -5.4504    0.2125   -0.0440 C   0  0  0  0  0  0  0  0  0  0  0  0
   -5.8164    1.5697    0.4950 C   0  0  0  0  0  0  0  0  0  0  0  0
   -5.6139    2.5748   -0.6011 C   0  0  0  0  0  0  0  0  0  0  0  0
   -4.0891    2.6686   -0.7521 C   0  0  0  0  0  0  0  0  0  0  0  0
   -3.6414    1.3806   -1.3463 C   0  0  0  0  0  0  0  0  0  0  0  0
   -1.0335   -0.5623    1.5818 C   0  0  0  0  0  0  0  0  0  0  0  0
   -1.6316   -1.0210    2.5890 O   0  0  0  0  0  0  0  0  0  0  0  0
    0.3270   -0.2057    1.7203 N   0  0  0  0  0  0  0  0  0  0  0  0
    1.0576   -0.3452    2.9979 C   0  0  0  0  0  0  0  0  0  0  0  0
    2.1391    0.6852    2.9397 C   0  0  0  0  0  0  0  0  0  0  0  0
    1.8621    1.4805    1.6731 C   0  0  0  0  0  0  0  0  0  0  0  0
    1.2838    0.3530    0.7884 C   0  0  1  0  0  0  0  0  0  0  0  0
    2.4181   -0.5582    0.5406 C   0  0  0  0  0  0  0  0  0  0  0  0
    2.5453   -1.6979    1.0368 O   0  0  0  0  0  0  0  0  0  0  0  0
    3.4661   -0.1102   -0.3402 N   0  0  0  0  0  0  0  0  0  0  0  0
    4.6209   -0.9374   -0.6433 C   0  0  0  0  0  0  0  0  0  0  0  0
    4.7030   -1.1902   -2.1340 C   0  0  0  0  0  0  0  0  0  0  0  0
    5.0664    0.0886   -2.8595 C   0  0  0  0  0  0  0  0  0  0  0  0
    6.2943    0.5115   -2.4037 O   0  0  0  0  0  0  0  0  0  0  0  0
    6.2213    0.9358   -1.0828 C   0  0  0  0  0  0  0  0  0  0  0  0
    5.8575   -0.2000   -0.1643 C   0  0  0  0  0  0  0  0  0  0  0  0
   -0.8233   -3.5977    0.3116 C   0  0  0  0  0  0  0  0  0  0  0  0
   -1.1574   -4.7735    0.5664 O   0  0  0  0  0  0  0  0  0  0  0  0
   -3.2763   -3.8428   -0.2529 H   0  0  0  0  0  0  0  0  0  0  0  0
   -1.7010   -1.1900   -1.7555 H   0  0  0  0  0  0  0  0  0  0  0  0
   -0.1920   -1.3292   -0.8792 H   0  0  0  0  0  0  0  0  0  0  0  0
   -1.3272    0.6250   -0.0759 H   0  0  0  0  0  0  0  0  0  0  0  0
   -3.3033    0.4421    1.3827 H   0  0  0  0  0  0  0  0  0  0  0  0
   -3.5329   -1.2492    0.8845 H   0  0  0  0  0  0  0  0  0  0  0  0
   -4.0566   -0.6775   -1.3303 H   0  0  0  0  0  0  0  0  0  0  0  0
   -6.2219   -0.0552   -0.7957 H   0  0  0  0  0  0  0  0  0  0  0  0
   -5.5709   -0.5074    0.7922 H   0  0  0  0  0  0  0  0  0  0  0  0
   -6.8788    1.5260    0.7909 H   0  0  0  0  0  0  0  0  0  0  0  0
   -5.1602    1.8725    1.3515 H   0  0  0  0  0  0  0  0  0  0  0  0
   -5.9620    2.0813   -1.5529 H   0  0  0  0  0  0  0  0  0  0  0  0
   -6.0733    3.5429   -0.4306 H   0  0  0  0  0  0  0  0  0  0  0  0
   -3.8587    3.4769   -1.4808 H   0  0  0  0  0  0  0  0  0  0  0  0
   -3.6197    2.8774    0.2318 H   0  0  0  0  0  0  0  0  0  0  0  0
   -2.5461    1.4056   -1.4643 H   0  0  0  0  0  0  0  0  0  0  0  0
   -4.0423    1.3485   -2.4029 H   0  0  0  0  0  0  0  0  0  0  0  0
    0.3622   -0.1120    3.8374 H   0  0  0  0  0  0  0  0  0  0  0  0
    1.3844   -1.3755    3.1379 H   0  0  0  0  0  0  0  0  0  0  0  0
    2.0670    1.3637    3.8211 H   0  0  0  0  0  0  0  0  0  0  0  0
    3.1092    0.1745    2.8828 H   0  0  0  0  0  0  0  0  0  0  0  0
    1.0868    2.2437    1.8369 H   0  0  0  0  0  0  0  0  0  0  0  0
    2.7840    1.8895    1.2484 H   0  0  0  0  0  0  0  0  0  0  0  0
    0.8451    0.7808   -0.1103 H   0  0  0  0  0  0  0  0  0  0  0  0
    3.4319    0.8181   -0.7878 H   0  0  0  0  0  0  0  0  0  0  0  0
    4.5913   -1.9056   -0.1359 H   0  0  0  0  0  0  0  0  0  0  0  0
    3.7009   -1.5151   -2.4955 H   0  0  0  0  0  0  0  0  0  0  0  0
    5.4743   -1.9377   -2.3507 H   0  0  0  0  0  0  0  0  0  0  0  0
    4.3158    0.8803   -2.6290 H   0  0  0  0  0  0  0  0  0  0  0  0
    5.1062   -0.1376   -3.9353 H   0  0  0  0  0  0  0  0  0  0  0  0
    7.2245    1.2999   -0.7595 H   0  0  0  0  0  0  0  0  0  0  0  0
    5.4454    1.7325   -0.9489 H   0  0  0  0  0  0  0  0  0  0  0  0
    6.7012   -0.9276   -0.1670 H   0  0  0  0  0  0  0  0  0  0  0  0
    5.6568    0.1893    0.8468 H   0  0  0  0  0  0  0  0  0  0  0  0
    0.1247   -3.2394    0.6722 H   0  0  0  0  0  0  0  0  0  0  0  0
  1  2  1  0
  2  3  1  0
  3  4  1  0
  4  5  1  0
  5  6  1  0
  6  7  1  0
  7  8  1  0
  8  9  1  0
  9 10  1  0
 10 11  1  0
  4 12  1  0
 12 13  2  0
 12 14  1  0
 14 15  1  0
 15 16  1  0
 16 17  1  0
 17 18  1  0
 18 19  1  0
 19 20  2  0
 19 21  1  0
 21 22  1  0
 22 23  1  0
 23 24  1  0
 24 25  1  0
 25 26  1  0
 26 27  1  0
  2 28  1  0
 28 29  2  0
 11  6  1  0
 18 14  1  0
 27 22  1  0
  1 30  1  0
  3 31  1  0
  3 32  1  0
  4 33  1  6
  5 34  1  0
  5 35  1  0
  6 36  1  0
  7 37  1  0
  7 38  1  0
  8 39  1  0
  8 40  1  0
  9 41  1  0
  9 42  1  0
 10 43  1  0
 10 44  1  0
 11 45  1  0
 11 46  1  0
 15 47  1  0
 15 48  1  0
 16 49  1  0
 16 50  1  0
 17 51  1  0
 17 52  1  0
 18 53  1  6
 21 54  1  0
 22 55  1  0
 23 56  1  0
 23 57  1  0
 24 58  1  0
 24 59  1  0
 26 60  1  0
 26 61  1  0
 27 62  1  0
 27 63  1  0
 28 64  1  0
M  END
$$$$
[H]c1c([H])c([H])c(C2(C(=O)N([H])[H])C([H])([H])C([H])([H])N(C([H])([H])C([H])([H])C3(c4c([H])c([H])c(Cl)c(Cl)c4[H])C([H])([H])N(C(=O)c4c([H])c(OC([H])([H])[H])c(OC([H])([H])[H])c(OC([H])([H])[H])c4[H])C([H])([H])C3([H])[H])C([H])([H])C2([H])[H])c([H])c1[H]
     RDKit          3D

 83 87  0  0  0  0  0  0  0  0999 V2000
   -8.2125   -2.6219   -0.9715 C   0  0  0  0  0  0  0  0  0  0  0  0
   -8.4769   -1.5015   -0.1212 O   0  0  0  0  0  0  0  0  0  0  0  0
   -7.4244   -0.5787    0.0804 C   0  0  0  0  0  0  0  0  0  0  0  0
   -6.2120   -0.7624   -0.5214 C   0  0  0  0  0  0  0  0  0  0  0  0
   -5.1651    0.1204   -0.3425 C   0  0  0  0  0  0  0  0  0  0  0  0
   -5.3845    1.2028    0.4696 C   0  0  0  0  0  0  0  0  0  0  0  0
   -6.6306    1.4059    1.0963 C   0  0  0  0  0  0  0  0  0  0  0  0
   -6.8119    2.5107    1.9054 O   0  0  0  0  0  0  0  0  0  0  0  0
   -5.7530    3.4168    2.0898 C   0  0  0  0  0  0  0  0  0  0  0  0
   -7.6408    0.4935    0.8842 C   0  0  0  0  0  0  0  0  0  0  0  0
   -8.8385    0.7384    1.5230 O   0  0  0  0  0  0  0  0  0  0  0  0
   -9.8678    1.5390    0.9663 C   0  0  0  0  0  0  0  0  0  0  0  0
   -3.9561   -0.0926   -1.0614 C   0  0  0  0  0  0  0  0  0  0  0  0
   -4.0716   -0.8910   -2.0972 O   0  0  0  0  0  0  0  0  0  0  0  0
   -2.6953    0.4368   -0.7895 N   0  0  0  0  0  0  0  0  0  0  0  0
   -2.2098    1.2536    0.2823 C   0  0  0  0  0  0  0  0  0  0  0  0
   -0.7471    0.8554    0.4384 C   0  0  0  0  0  0  0  0  0  0  0  0
   -0.4621   -0.0417   -0.6906 C   0  0  0  0  0  0  0  0  0  0  0  0
    0.9648    0.2480   -1.2507 C   0  0  0  0  0  0  0  0  0  0  0  0
    1.8661   -0.0400   -0.0949 C   0  0  0  0  0  0  0  0  0  0  0  0
    3.2469    0.1493   -0.2641 N   0  0  0  0  0  0  0  0  0  0  0  0
    3.9114   -0.2581    0.9446 C   0  0  0  0  0  0  0  0  0  0  0  0
    5.3930   -0.3557    0.8589 C   0  0  0  0  0  0  0  0  0  0  0  0
    5.9260    0.5548   -0.2681 C   0  0  0  0  0  0  0  0  0  0  0  0
    5.3464   -0.0230   -1.5263 C   0  0  0  0  0  0  0  0  0  0  0  0
    3.8630   -0.1811   -1.4802 C   0  0  0  0  0  0  0  0  0  0  0  0
    5.4923    1.9288   -0.0035 C   0  0  0  0  0  0  0  0  0  0  0  0
    5.6569    2.6505    1.1905 N   0  0  0  0  0  0  0  0  0  0  0  0
    4.8980    2.5312   -0.9730 O   0  0  0  0  0  0  0  0  0  0  0  0
    7.3832    0.4536   -0.2085 C   0  0  0  0  0  0  0  0  0  0  0  0
    8.1366   -0.0990   -1.2355 C   0  0  0  0  0  0  0  0  0  0  0  0
    9.4910   -0.2284   -1.1689 C   0  0  0  0  0  0  0  0  0  0  0  0
   10.1987    0.1852   -0.0708 C   0  0  0  0  0  0  0  0  0  0  0  0
    9.4861    0.7324    0.9552 C   0  0  0  0  0  0  0  0  0  0  0  0
    8.0997    0.8679    0.8943 C   0  0  0  0  0  0  0  0  0  0  0  0
   -1.5175    0.2501   -1.7112 C   0  0  0  0  0  0  0  0  0  0  0  0
   -0.5534   -1.5004   -0.4035 C   0  0  0  0  0  0  0  0  0  0  0  0
   -0.3992   -2.3639   -1.4968 C   0  0  0  0  0  0  0  0  0  0  0  0
   -0.4651   -3.7354   -1.3282 C   0  0  0  0  0  0  0  0  0  0  0  0
   -0.6854   -4.2880   -0.0731 C   0  0  0  0  0  0  0  0  0  0  0  0
   -0.7712   -6.0252    0.1496 Cl  0  0  0  0  0  0  0  0  0  0  0  0
   -0.8378   -3.4423    1.0067 C   0  0  0  0  0  0  0  0  0  0  0  0
   -1.1123   -4.0896    2.6322 Cl  0  0  0  0  0  0  0  0  0  0  0  0
   -0.7671   -2.0700    0.8093 C   0  0  0  0  0  0  0  0  0  0  0  0
   -7.9610   -2.2715   -1.9875 H   0  0  0  0  0  0  0  0  0  0  0  0
   -7.3227   -3.1402   -0.5173 H   0  0  0  0  0  0  0  0  0  0  0  0
   -9.0656   -3.3186   -0.9746 H   0  0  0  0  0  0  0  0  0  0  0  0
   -6.1021   -1.6540   -1.1603 H   0  0  0  0  0  0  0  0  0  0  0  0
   -4.6481    1.9647    0.6389 H   0  0  0  0  0  0  0  0  0  0  0  0
   -4.8550    2.9863    2.5653 H   0  0  0  0  0  0  0  0  0  0  0  0
   -5.4565    3.8009    1.0782 H   0  0  0  0  0  0  0  0  0  0  0  0
   -6.1705    4.2724    2.6782 H   0  0  0  0  0  0  0  0  0  0  0  0
   -9.9626    1.4180   -0.1119 H   0  0  0  0  0  0  0  0  0  0  0  0
   -9.6337    2.5841    1.2895 H   0  0  0  0  0  0  0  0  0  0  0  0
  -10.8308    1.2381    1.4355 H   0  0  0  0  0  0  0  0  0  0  0  0
   -2.3146    2.3219    0.0477 H   0  0  0  0  0  0  0  0  0  0  0  0
   -2.7611    0.9908    1.2213 H   0  0  0  0  0  0  0  0  0  0  0  0
   -0.1413    1.7850    0.3076 H   0  0  0  0  0  0  0  0  0  0  0  0
   -0.5135    0.4990    1.4500 H   0  0  0  0  0  0  0  0  0  0  0  0
    0.9584    1.3103   -1.5609 H   0  0  0  0  0  0  0  0  0  0  0  0
    1.0652   -0.3809   -2.1232 H   0  0  0  0  0  0  0  0  0  0  0  0
    1.5234    0.6100    0.7639 H   0  0  0  0  0  0  0  0  0  0  0  0
    1.6497   -1.0775    0.2689 H   0  0  0  0  0  0  0  0  0  0  0  0
    3.6834    0.5480    1.7050 H   0  0  0  0  0  0  0  0  0  0  0  0
    3.4420   -1.1701    1.3874 H   0  0  0  0  0  0  0  0  0  0  0  0
    5.9155   -0.1649    1.8011 H   0  0  0  0  0  0  0  0  0  0  0  0
    5.6588   -1.3792    0.5240 H   0  0  0  0  0  0  0  0  0  0  0  0
    5.6823    0.6300   -2.3733 H   0  0  0  0  0  0  0  0  0  0  0  0
    5.8022   -1.0574   -1.6061 H   0  0  0  0  0  0  0  0  0  0  0  0
    3.4421    0.5315   -2.2633 H   0  0  0  0  0  0  0  0  0  0  0  0
    3.6125   -1.2067   -1.8716 H   0  0  0  0  0  0  0  0  0  0  0  0
    5.1169    2.4197    2.0502 H   0  0  0  0  0  0  0  0  0  0  0  0
    6.3449    3.4433    1.2116 H   0  0  0  0  0  0  0  0  0  0  0  0
    7.6394   -0.4352   -2.1156 H   0  0  0  0  0  0  0  0  0  0  0  0
   10.0669   -0.6681   -1.9965 H   0  0  0  0  0  0  0  0  0  0  0  0
   11.2764    0.0955    0.0101 H   0  0  0  0  0  0  0  0  0  0  0  0
   10.0221    1.0614    1.8272 H   0  0  0  0  0  0  0  0  0  0  0  0
    7.6424    1.2989    1.7746 H   0  0  0  0  0  0  0  0  0  0  0  0
   -1.3193    1.1871   -2.2674 H   0  0  0  0  0  0  0  0  0  0  0  0
   -1.7202   -0.6059   -2.3632 H   0  0  0  0  0  0  0  0  0  0  0  0
   -0.2277   -1.9614   -2.4893 H   0  0  0  0  0  0  0  0  0  0  0  0
   -0.3443   -4.3888   -2.2063 H   0  0  0  0  0  0  0  0  0  0  0  0
   -0.8854   -1.4519    1.6773 H   0  0  0  0  0  0  0  0  0  0  0  0
  1  2  1  0
  2  3  1  0
  3  4  2  0
  4  5  1  0
  5  6  2  0
  6  7  1  0
  7  8  1  0
  8  9  1  0
  7 10  2  0
 10 11  1  0
 11 12  1  0
  5 13  1  0
 13 14  2  0
 13 15  1  0
 15 16  1  0
 16 17  1  0
 17 18  1  0
 18 19  1  0
 19 20  1  0
 20 21  1  0
 21 22  1  0
 22 23  1  0
 23 24  1  0
 24 25  1  0
 25 26  1  0
 24 27  1  0
 27 28  1  0
 27 29  2  0
 24 30  1  0
 30 31  2  0
 31 32  1  0
 32 33  2  0
 33 34  1  0
 34 35  2  0
 18 36  1  0
 18 37  1  0
 37 38  2  0
 38 39  1  0
 39 40  2  0
 40 41  1  0
 40 42  1  0
 42 43  1  0
 42 44  2  0
 10  3  1  0
 36 15  1  0
 44 37  1  0
 26 21  1  0
 35 30  1  0
  1 45  1  0
  1 46  1  0
  1 47  1  0
  4 48  1  0
  6 49  1  0
  9 50  1  0
  9 51  1  0
  9 52  1  0
 12 53  1  0
 12 54  1  0
 12 55  1  0
 16 56  1  0
 16 57  1  0
 17 58  1  0
 17 59  1  0
 19 60  1  0
 19 61  1  0
 20 62  1  0
 20 63  1  0
 22 64  1  0
 22 65  1  0
 23 66  1  0
 23 67  1  0
 25 68  1  0
 25 69  1  0
 26 70  1  0
 26 71  1  0
 28 72  1  0
 28 73  1  0
 31 74  1  0
 32 75  1  0
 33 76  1  0
 34 77  1  0
 35 78  1  0
 36 79  1  0
 36 80  1  0
 38 81  1  0
 39 82  1  0
 44 83  1  0
M  END
$$$$
[H]OC(=O)c1c([H])c([H])c(C#Cc2c([H])c(O[C@@]([H])(C([H])([H])[H])C([H])([H])OC([H])([H])[H])c([H])c(C(=O)N([H])c3nn(C([H])([H])[H])c([H])c3[H])c2[H])c([H])c1[H]
     RDKit          3D

 55 57  0  0  0  0  0  0  0  0999 V2000
    0.3340    5.1040    1.9002 C   0  0  0  0  0  0  0  0  0  0  0  0
   -0.8394    5.5756    1.3703 O   0  0  0  0  0  0  0  0  0  0  0  0
   -0.7132    5.8374    0.0416 C   0  0  0  0  0  0  0  0  0  0  0  0
   -0.3751    4.6906   -0.8522 C   0  0  2  0  0  0  0  0  0  0  0  0
   -0.3073    5.2894   -2.2873 C   0  0  0  0  0  0  0  0  0  0  0  0
   -1.3363    3.6960   -0.8009 O   0  0  0  0  0  0  0  0  0  0  0  0
   -1.1321    2.3537   -0.6210 C   0  0  0  0  0  0  0  0  0  0  0  0
    0.1142    1.7528   -0.4697 C   0  0  0  0  0  0  0  0  0  0  0  0
    0.2807    0.3970   -0.2903 C   0  0  0  0  0  0  0  0  0  0  0  0
   -0.8623   -0.3846   -0.2627 C   0  0  0  0  0  0  0  0  0  0  0  0
   -2.1333    0.1527   -0.4075 C   0  0  0  0  0  0  0  0  0  0  0  0
   -2.2368    1.5092   -0.5831 C   0  0  0  0  0  0  0  0  0  0  0  0
   -3.3521   -0.6833   -0.3733 C   0  0  0  0  0  0  0  0  0  0  0  0
   -4.4164   -0.0916   -0.6599 O   0  0  0  0  0  0  0  0  0  0  0  0
   -3.2991   -2.0521   -0.0379 N   0  0  0  0  0  0  0  0  0  0  0  0
   -4.4444   -2.8840    0.0055 C   0  0  0  0  0  0  0  0  0  0  0  0
   -5.7635   -2.6162   -0.2384 C   0  0  0  0  0  0  0  0  0  0  0  0
   -6.5312   -3.7772   -0.0645 C   0  0  0  0  0  0  0  0  0  0  0  0
   -5.6468   -4.7144    0.2808 N   0  0  0  0  0  0  0  0  0  0  0  0
   -6.0535   -6.0970    0.5571 C   0  0  0  0  0  0  0  0  0  0  0  0
   -4.4303   -4.2175    0.3274 N   0  0  0  0  0  0  0  0  0  0  0  0
    1.5912   -0.1797   -0.1381 C   0  0  0  0  0  0  0  0  0  0  0  0
    2.6873   -0.6632    0.0104 C   0  0  0  0  0  0  0  0  0  0  0  0
    3.9822   -1.2574    0.1931 C   0  0  0  0  0  0  0  0  0  0  0  0
    4.7462   -1.6172   -0.8947 C   0  0  0  0  0  0  0  0  0  0  0  0
    5.9843   -2.1852   -0.7067 C   0  0  0  0  0  0  0  0  0  0  0  0
    6.4996   -2.4123    0.5741 C   0  0  0  0  0  0  0  0  0  0  0  0
    5.7444   -2.0567    1.6488 C   0  0  0  0  0  0  0  0  0  0  0  0
    4.5172   -1.4937    1.4543 C   0  0  0  0  0  0  0  0  0  0  0  0
    7.8036   -3.0105    0.7728 C   0  0  0  0  0  0  0  0  0  0  0  0
    8.5468   -3.3610   -0.3413 O   0  0  0  0  0  0  0  0  0  0  0  0
    8.2207   -3.1934    1.9361 O   0  0  0  0  0  0  0  0  0  0  0  0
    0.6467    4.1748    1.4163 H   0  0  0  0  0  0  0  0  0  0  0  0
    0.1613    4.8505    2.9762 H   0  0  0  0  0  0  0  0  0  0  0  0
    1.0904    5.9149    1.8202 H   0  0  0  0  0  0  0  0  0  0  0  0
   -1.6789    6.3293   -0.2838 H   0  0  0  0  0  0  0  0  0  0  0  0
    0.0399    6.6674   -0.0961 H   0  0  0  0  0  0  0  0  0  0  0  0
    0.6312    4.3143   -0.5950 H   0  0  0  0  0  0  0  0  0  0  0  0
   -1.0274    6.1298   -2.3608 H   0  0  0  0  0  0  0  0  0  0  0  0
    0.7384    5.6122   -2.4436 H   0  0  0  0  0  0  0  0  0  0  0  0
   -0.6351    4.5328   -3.0236 H   0  0  0  0  0  0  0  0  0  0  0  0
    1.0001    2.3626   -0.4925 H   0  0  0  0  0  0  0  0  0  0  0  0
   -0.7342   -1.4393   -0.1251 H   0  0  0  0  0  0  0  0  0  0  0  0
   -3.2035    1.9521   -0.6975 H   0  0  0  0  0  0  0  0  0  0  0  0
   -2.3743   -2.4980    0.1951 H   0  0  0  0  0  0  0  0  0  0  0  0
   -6.1782   -1.6678   -0.5224 H   0  0  0  0  0  0  0  0  0  0  0  0
   -7.6004   -3.8537   -0.1918 H   0  0  0  0  0  0  0  0  0  0  0  0
   -5.4014   -6.4603    1.3977 H   0  0  0  0  0  0  0  0  0  0  0  0
   -7.0888   -6.1259    0.9322 H   0  0  0  0  0  0  0  0  0  0  0  0
   -5.8893   -6.7482   -0.3120 H   0  0  0  0  0  0  0  0  0  0  0  0
    4.3896   -1.4610   -1.9145 H   0  0  0  0  0  0  0  0  0  0  0  0
    6.6277   -2.4874   -1.5249 H   0  0  0  0  0  0  0  0  0  0  0  0
    6.1055   -2.2149    2.6676 H   0  0  0  0  0  0  0  0  0  0  0  0
    3.9426   -1.2225    2.3502 H   0  0  0  0  0  0  0  0  0  0  0  0
    9.2588   -4.0719   -0.2153 H   0  0  0  0  0  0  0  0  0  0  0  0
  1  2  1  0
  2  3  1  0
  3  4  1  0
  4  5  1  0
  4  6  1  0
  6  7  1  0
  7  8  2  0
  8  9  1  0
  9 10  2  0
 10 11  1  0
 11 12  2  0
 11 13  1  0
 13 14  2  0
 13 15  1  0
 15 16  1  0
 16 17  1  0
 17 18  2  0
 18 19  1  0
 19 20  1  0
 19 21  1  0
  9 22  1  0
 22 23  3  0
 23 24  1  0
 24 25  2  0
 25 26  1  0
 26 27  2  0
 27 28  1  0
 28 29  2  0
 27 30  1  0
 30 31  1  0
 30 32  2  0
 12  7  1  0
 21 16  2  0
 29 24  1  0
  1 33  1  0
  1 34  1  0
  1 35  1  0
  3 36  1  0
  3 37  1  0
  4 38  1  1
  5 39  1  0
  5 40  1  0
  5 41  1  0
  8 42  1  0
 10 43  1  0
 12 44  1  0
 15 45  1  0
 17 46  1  0
 18 47  1  0
 20 48  1  0
 20 49  1  0
 20 50  1  0
 25 51  1  0
 26 52  1  0
 28 53  1  0
 29 54  1  0
 31 55  1  0
M  END
$$$$
[H]N=C(N([H])[H])N([H])C([H])([H])C([H])([H])C([H])([H])[C@@]([H])(C(=O)N([H])[C@]([H])(C(=O)N([H])[H])C([H])([H])C([H])([H])C(=O)N([H])[H])N([H])C(=O)[C@@]([H])(N([H])C(=O)[C@@]([H])(N([H])C(=O)[C@@]([H])(N([H])[H])C([H])([H])C([H])([H])C(=O)N([H])[H])C([H])([H])C([H])([H])C(=O)N([H])[H])C([H])([H])C([H])([H])C(=O)O[H]
     RDKit          3D

 94 93  0  0  0  0  0  0  0  0999 V2000
   -4.4843    4.3854    1.4399 N   0  0  0  0  0  0  0  0  0  0  0  0
   -3.0809    4.4384    1.2772 C   0  0  0  0  0  0  0  0  0  0  0  0
   -2.5081    5.5696    1.0950 N   0  0  0  0  0  0  0  0  0  0  0  0
   -2.2754    3.2788    1.3110 N   0  0  0  0  0  0  0  0  0  0  0  0
   -1.5949    2.7129    0.1961 C   0  0  0  0  0  0  0  0  0  0  0  0
   -2.4296    2.1089   -0.8667 C   0  0  0  0  0  0  0  0  0  0  0  0
   -3.3032    0.9745   -0.4591 C   0  0  0  0  0  0  0  0  0  0  0  0
   -2.6373   -0.2007    0.1073 C   0  0  2  0  0  0  0  0  0  0  0  0
   -1.6797   -0.7746   -0.8545 N   0  0  0  0  0  0  0  0  0  0  0  0
   -0.3766   -1.1541   -0.4585 C   0  0  0  0  0  0  0  0  0  0  0  0
   -0.0944   -0.9846    0.7502 O   0  0  0  0  0  0  0  0  0  0  0  0
    0.6521   -1.7133   -1.3499 C   0  0  2  0  0  0  0  0  0  0  0  0
    0.3424   -3.0656   -1.8692 C   0  0  0  0  0  0  0  0  0  0  0  0
   -0.9073   -3.2286   -2.6740 C   0  0  0  0  0  0  0  0  0  0  0  0
   -1.0146   -4.6655   -3.1524 C   0  0  0  0  0  0  0  0  0  0  0  0
   -1.9273   -5.5540   -2.6029 O   0  0  0  0  0  0  0  0  0  0  0  0
   -0.2674   -5.0733   -4.0651 O   0  0  0  0  0  0  0  0  0  0  0  0
    1.9412   -1.7901   -0.5796 N   0  0  0  0  0  0  0  0  0  0  0  0
    2.8252   -0.7258   -0.5528 C   0  0  0  0  0  0  0  0  0  0  0  0
    2.4646    0.3268   -1.2234 O   0  0  0  0  0  0  0  0  0  0  0  0
    4.1005   -0.6659    0.1303 C   0  0  2  0  0  0  0  0  0  0  0  0
    4.0078   -0.6920    1.6181 C   0  0  0  0  0  0  0  0  0  0  0  0
    3.3764   -1.9034    2.1771 C   0  0  0  0  0  0  0  0  0  0  0  0
    3.4555   -1.8041    3.6842 C   0  0  0  0  0  0  0  0  0  0  0  0
    2.8341   -2.8096    4.4419 N   0  0  0  0  0  0  0  0  0  0  0  0
    4.0475   -0.8676    4.2057 O   0  0  0  0  0  0  0  0  0  0  0  0
    4.8163    0.5835   -0.2468 N   0  0  0  0  0  0  0  0  0  0  0  0
    5.9077    0.5959   -1.1383 C   0  0  0  0  0  0  0  0  0  0  0  0
    6.3333   -0.4439   -1.6734 O   0  0  0  0  0  0  0  0  0  0  0  0
    6.5638    1.9102   -1.4383 C   0  0  1  0  0  0  0  0  0  0  0  0
    6.0136    2.9316   -0.5856 N   0  0  0  0  0  0  0  0  0  0  0  0
    8.0476    1.7673   -1.2662 C   0  0  0  0  0  0  0  0  0  0  0  0
    8.8330    3.0047   -1.5150 C   0  0  0  0  0  0  0  0  0  0  0  0
    8.7175    3.5729   -2.8501 C   0  0  0  0  0  0  0  0  0  0  0  0
    9.3746    4.8376   -3.0975 N   0  0  0  0  0  0  0  0  0  0  0  0
    8.1088    3.0800   -3.8110 O   0  0  0  0  0  0  0  0  0  0  0  0
   -3.6022   -1.2409    0.5863 C   0  0  0  0  0  0  0  0  0  0  0  0
   -3.4772   -2.4275    0.2089 O   0  0  0  0  0  0  0  0  0  0  0  0
   -4.6723   -0.9318    1.4751 N   0  0  0  0  0  0  0  0  0  0  0  0
   -5.6153   -1.7979    2.0458 C   0  0  1  0  0  0  0  0  0  0  0  0
   -6.8965   -2.0590    1.3967 C   0  0  0  0  0  0  0  0  0  0  0  0
   -7.8619   -0.9677    1.1605 C   0  0  0  0  0  0  0  0  0  0  0  0
   -7.5325    0.1101    0.2635 C   0  0  0  0  0  0  0  0  0  0  0  0
   -8.1894    1.3981    0.3697 N   0  0  0  0  0  0  0  0  0  0  0  0
   -6.6885    0.0460   -0.6575 O   0  0  0  0  0  0  0  0  0  0  0  0
   -5.0355   -3.0350    2.6944 C   0  0  0  0  0  0  0  0  0  0  0  0
   -5.9433   -3.9880    3.2419 N   0  0  0  0  0  0  0  0  0  0  0  0
   -3.8206   -3.2711    2.7814 O   0  0  0  0  0  0  0  0  0  0  0  0
   -4.8326    4.5230    2.4342 H   0  0  0  0  0  0  0  0  0  0  0  0
   -5.1895    4.2308    0.7081 H   0  0  0  0  0  0  0  0  0  0  0  0
   -2.9273    6.4989    1.0460 H   0  0  0  0  0  0  0  0  0  0  0  0
   -2.1945    2.8193    2.2713 H   0  0  0  0  0  0  0  0  0  0  0  0
   -1.0241    3.5636   -0.2914 H   0  0  0  0  0  0  0  0  0  0  0  0
   -0.7957    2.0395    0.5767 H   0  0  0  0  0  0  0  0  0  0  0  0
   -3.0856    2.9108   -1.2942 H   0  0  0  0  0  0  0  0  0  0  0  0
   -1.7467    1.8225   -1.7193 H   0  0  0  0  0  0  0  0  0  0  0  0
   -3.8610    0.6366   -1.3839 H   0  0  0  0  0  0  0  0  0  0  0  0
   -4.0939    1.3479    0.2204 H   0  0  0  0  0  0  0  0  0  0  0  0
   -2.0284    0.0087    1.0273 H   0  0  0  0  0  0  0  0  0  0  0  0
   -1.9416   -0.8890   -1.8565 H   0  0  0  0  0  0  0  0  0  0  0  0
    0.9016   -1.0122   -2.1669 H   0  0  0  0  0  0  0  0  0  0  0  0
    0.3108   -3.8377   -1.0317 H   0  0  0  0  0  0  0  0  0  0  0  0
    1.1896   -3.4718   -2.5129 H   0  0  0  0  0  0  0  0  0  0  0  0
   -1.0019   -2.5414   -3.5252 H   0  0  0  0  0  0  0  0  0  0  0  0
   -1.8313   -3.1294   -2.0271 H   0  0  0  0  0  0  0  0  0  0  0  0
   -2.1095   -5.4664   -1.6005 H   0  0  0  0  0  0  0  0  0  0  0  0
    2.1051   -2.6874   -0.1223 H   0  0  0  0  0  0  0  0  0  0  0  0
    4.7463   -1.5036   -0.2665 H   0  0  0  0  0  0  0  0  0  0  0  0
    3.3190    0.1759    1.8969 H   0  0  0  0  0  0  0  0  0  0  0  0
    5.0067   -0.4767    2.1006 H   0  0  0  0  0  0  0  0  0  0  0  0
    3.8196   -2.8216    1.7879 H   0  0  0  0  0  0  0  0  0  0  0  0
    2.2813   -1.8958    1.9297 H   0  0  0  0  0  0  0  0  0  0  0  0
    3.3434   -3.2653    5.2109 H   0  0  0  0  0  0  0  0  0  0  0  0
    1.8341   -3.0720    4.1880 H   0  0  0  0  0  0  0  0  0  0  0  0
    4.4759    1.4646    0.1781 H   0  0  0  0  0  0  0  0  0  0  0  0
    6.3197    2.1599   -2.4899 H   0  0  0  0  0  0  0  0  0  0  0  0
    5.0324    3.1673   -0.8091 H   0  0  0  0  0  0  0  0  0  0  0  0
    6.1206    2.6484    0.4297 H   0  0  0  0  0  0  0  0  0  0  0  0
    8.4163    0.9704   -1.9586 H   0  0  0  0  0  0  0  0  0  0  0  0
    8.2017    1.4778   -0.1922 H   0  0  0  0  0  0  0  0  0  0  0  0
    9.9263    2.7821   -1.3467 H   0  0  0  0  0  0  0  0  0  0  0  0
    8.5256    3.8099   -0.7847 H   0  0  0  0  0  0  0  0  0  0  0  0
    8.8014    5.6625   -3.3867 H   0  0  0  0  0  0  0  0  0  0  0  0
   10.3929    4.9584   -2.9980 H   0  0  0  0  0  0  0  0  0  0  0  0
   -4.7169    0.1200    1.7069 H   0  0  0  0  0  0  0  0  0  0  0  0
   -5.9170   -1.2307    3.0498 H   0  0  0  0  0  0  0  0  0  0  0  0
   -7.4775   -2.8658    1.9616 H   0  0  0  0  0  0  0  0  0  0  0  0
   -6.6685   -2.5245    0.3809 H   0  0  0  0  0  0  0  0  0  0  0  0
   -8.8294   -1.4273    0.7712 H   0  0  0  0  0  0  0  0  0  0  0  0
   -8.2224   -0.5274    2.1525 H   0  0  0  0  0  0  0  0  0  0  0  0
   -8.3314    2.0152   -0.4447 H   0  0  0  0  0  0  0  0  0  0  0  0
   -8.5428    1.7360    1.3025 H   0  0  0  0  0  0  0  0  0  0  0  0
   -5.6804   -4.9945    3.2005 H   0  0  0  0  0  0  0  0  0  0  0  0
   -6.8678   -3.7069    3.6846 H   0  0  0  0  0  0  0  0  0  0  0  0
  1  2  1  0
  2  3  2  3
  2  4  1  0
  4  5  1  0
  5  6  1  0
  6  7  1  0
  7  8  1  0
  8  9  1  0
  9 10  1  0
 10 11  2  0
 10 12  1  0
 12 13  1  0
 13 14  1  0
 14 15  1  0
 15 16  1  0
 15 17  2  0
 12 18  1  0
 18 19  1  0
 19 20  2  0
 19 21  1  0
 21 22  1  0
 22 23  1  0
 23 24  1  0
 24 25  1  0
 24 26  2  0
 21 27  1  0
 27 28  1  0
 28 29  2  0
 28 30  1  0
 30 31  1  0
 30 32  1  0
 32 33  1  0
 33 34  1  0
 34 35  1  0
 34 36  2  0
  8 37  1  0
 37 38  2  0
 37 39  1  0
 39 40  1  0
 40 41  1  0
 41 42  1  0
 42 43  1  0
 43 44  1  0
 43 45  2  0
 40 46  1  0
 46 47  1  0
 46 48  2  0
  1 49  1  0
  1 50  1  0
  3 51  1  0
  4 52  1  0
  5 53  1  0
  5 54  1  0
  6 55  1  0
  6 56  1  0
  7 57  1  0
  7 58  1  0
  8 59  1  1
  9 60  1  0
 12 61  1  6
 13 62  1  0
 13 63  1  0
 14 64  1  0
 14 65  1  0
 16 66  1  0
 18 67  1  0
 21 68  1  6
 22 69  1  0
 22 70  1  0
 23 71  1  0
 23 72  1  0
 25 73  1  0
 25 74  1  0
 27 75  1  0
 30 76  1  6
 31 77  1  0
 31 78  1  0
 32 79  1  0
 32 80  1  0
 33 81  1  0
 33 82  1  0
 35 83  1  0
 35 84  1  0
 39 85  1  0
 40 86  1  1
 41 87  1  0
 41 88  1  0
 42 89  1  0
 42 90  1  0
 44 91  1  0
 44 92  1  0
 47 93  1  0
 47 94  1  0
M  END
$$$$
[H]c1c([H])c([H])c(N2C([H])([H])C([H])([H])N(C([H])([H])C([H])([H])C([H])([H])N3c4c([H])c([H])c([H])c([H])c4Sc4c([H])c([H])c([H])c([H])c43)C([H])([H])C2([H])[H])c(OC([H])([H])[H])c1[H]
     RDKit          3D

 60 64  0  0  0  0  0  0  0  0999 V2000
   -6.4296   -2.1986   -0.8932 C   0  0  0  0  0  0  0  0  0  0  0  0
   -5.2588   -1.4455   -0.6430 O   0  0  0  0  0  0  0  0  0  0  0  0
   -5.3789   -0.1400   -0.2298 C   0  0  0  0  0  0  0  0  0  0  0  0
   -6.6329    0.4377   -0.0591 C   0  0  0  0  0  0  0  0  0  0  0  0
   -6.7482    1.7529    0.3572 C   0  0  0  0  0  0  0  0  0  0  0  0
   -5.5925    2.4702    0.5964 C   0  0  0  0  0  0  0  0  0  0  0  0
   -4.3344    1.9137    0.4324 C   0  0  0  0  0  0  0  0  0  0  0  0
   -4.2453    0.6003    0.0166 C   0  0  0  0  0  0  0  0  0  0  0  0
   -2.9850   -0.0251   -0.1665 N   0  0  0  0  0  0  0  0  0  0  0  0
   -2.5649   -0.5547   -1.4412 C   0  0  0  0  0  0  0  0  0  0  0  0
   -1.0667   -0.5969   -1.6274 C   0  0  0  0  0  0  0  0  0  0  0  0
   -0.3749   -0.8274   -0.4196 N   0  0  0  0  0  0  0  0  0  0  0  0
    0.7177    0.0104   -0.1127 C   0  0  0  0  0  0  0  0  0  0  0  0
    1.2614   -0.4162    1.2617 C   0  0  0  0  0  0  0  0  0  0  0  0
    2.4546    0.4227    1.6723 C   0  0  0  0  0  0  0  0  0  0  0  0
    3.5753    0.3307    0.7657 N   0  0  0  0  0  0  0  0  0  0  0  0
    4.3179   -0.8993    0.8297 C   0  0  0  0  0  0  0  0  0  0  0  0
    4.0159   -1.8643    1.7904 C   0  0  0  0  0  0  0  0  0  0  0  0
    4.7032   -3.0460    1.9351 C   0  0  0  0  0  0  0  0  0  0  0  0
    5.7548   -3.3270    1.1044 C   0  0  0  0  0  0  0  0  0  0  0  0
    6.0738   -2.3739    0.1370 C   0  0  0  0  0  0  0  0  0  0  0  0
    5.3740   -1.2077    0.0144 C   0  0  0  0  0  0  0  0  0  0  0  0
    5.8841   -0.0878   -1.2463 S   0  0  0  0  0  0  0  0  0  0  0  0
    4.8626    1.3636   -1.0970 C   0  0  0  0  0  0  0  0  0  0  0  0
    5.1277    2.4080   -1.9573 C   0  0  0  0  0  0  0  0  0  0  0  0
    4.3743    3.5578   -1.9145 C   0  0  0  0  0  0  0  0  0  0  0  0
    3.3553    3.6128   -0.9820 C   0  0  0  0  0  0  0  0  0  0  0  0
    3.1084    2.5574   -0.1324 C   0  0  0  0  0  0  0  0  0  0  0  0
    3.8562    1.3858   -0.1561 C   0  0  0  0  0  0  0  0  0  0  0  0
   -1.1801   -1.3037    0.6470 C   0  0  0  0  0  0  0  0  0  0  0  0
   -2.1023   -0.1253    0.9968 C   0  0  0  0  0  0  0  0  0  0  0  0
   -7.0896   -2.1305    0.0227 H   0  0  0  0  0  0  0  0  0  0  0  0
   -7.0396   -1.8027   -1.7146 H   0  0  0  0  0  0  0  0  0  0  0  0
   -6.2061   -3.2877   -1.0092 H   0  0  0  0  0  0  0  0  0  0  0  0
   -7.5288   -0.1362   -0.2497 H   0  0  0  0  0  0  0  0  0  0  0  0
   -7.7266    2.1652    0.4784 H   0  0  0  0  0  0  0  0  0  0  0  0
   -5.6906    3.4952    0.9210 H   0  0  0  0  0  0  0  0  0  0  0  0
   -3.4183    2.4700    0.6171 H   0  0  0  0  0  0  0  0  0  0  0  0
   -3.0010    0.1250   -2.2206 H   0  0  0  0  0  0  0  0  0  0  0  0
   -2.9934   -1.5817   -1.6215 H   0  0  0  0  0  0  0  0  0  0  0  0
   -0.7770    0.4260   -2.0035 H   0  0  0  0  0  0  0  0  0  0  0  0
   -0.8425   -1.3140   -2.4409 H   0  0  0  0  0  0  0  0  0  0  0  0
    1.5423   -0.0267   -0.8560 H   0  0  0  0  0  0  0  0  0  0  0  0
    0.3771    1.0425   -0.0137 H   0  0  0  0  0  0  0  0  0  0  0  0
    0.4761   -0.1561    2.0433 H   0  0  0  0  0  0  0  0  0  0  0  0
    1.3656   -1.4840    1.3038 H   0  0  0  0  0  0  0  0  0  0  0  0
    2.7339    0.0954    2.7205 H   0  0  0  0  0  0  0  0  0  0  0  0
    2.0475    1.4478    1.7239 H   0  0  0  0  0  0  0  0  0  0  0  0
    3.2232   -1.7037    2.4908 H   0  0  0  0  0  0  0  0  0  0  0  0
    4.4285   -3.7543    2.6910 H   0  0  0  0  0  0  0  0  0  0  0  0
    6.3116   -4.2475    1.1963 H   0  0  0  0  0  0  0  0  0  0  0  0
    6.9082   -2.6274   -0.5004 H   0  0  0  0  0  0  0  0  0  0  0  0
    5.9470    2.3404   -2.6936 H   0  0  0  0  0  0  0  0  0  0  0  0
    4.6040    4.3529   -2.5952 H   0  0  0  0  0  0  0  0  0  0  0  0
    2.7645    4.5219   -0.9531 H   0  0  0  0  0  0  0  0  0  0  0  0
    2.2971    2.6969    0.5465 H   0  0  0  0  0  0  0  0  0  0  0  0
   -1.8883   -2.1013    0.2677 H   0  0  0  0  0  0  0  0  0  0  0  0
   -0.6509   -1.7116    1.5011 H   0  0  0  0  0  0  0  0  0  0  0  0
   -2.6390   -0.2791    1.9274 H   0  0  0  0  0  0  0  0  0  0  0  0
   -1.4579    0.7809    0.9826 H   0  0  0  0  0  0  0  0  0  0  0  0
  1  2  1  0
  2  3  1  0
  3  4  2  0
  4  5  1  0
  5  6  2  0
  6  7  1  0
  7  8  2  0
  8  9  1  0
  9 10  1  0
 10 11  1  0
 11 12  1  0
 12 13  1  0
 13 14  1  0
 14 15  1  0
 15 16  1  0
 16 17  1  0
 17 18  2  0
 18 19  1  0
 19 20  2  0
 20 21  1  0
 21 22  2  0
 22 23  1  0
 23 24  1  0
 24 25  2  0
 25 26  1  0
 26 27  2  0
 27 28  1  0
 28 29  2  0
 12 30  1  0
 30 31  1  0
  8  3  1  0
 31  9  1  0
 29 16  1  0
 22 17  1  0
 29 24  1  0
  1 32  1  0
  1 33  1  0
  1 34  1  0
  4 35  1  0
  5 36  1  0
  6 37  1  0
  7 38  1  0
 10 39  1  0
 10 40  1  0
 11 41  1  0
 11 42  1  0
 13 43  1  0
 13 44  1  0
 14 45  1  0
 14 46  1  0
 15 47  1  0
 15 48  1  0
 18 49  1  0
 19 50  1  0
 20 51  1  0
 21 52  1  0
 25 53  1  0
 26 54  1  0
 27 55  1  0
 28 56  1  0
 30 57  1  0
 30 58  1  0
 31 59  1  0
 31 60  1  0
M  END
$$$$
[H]c1nc(-c2c([H])c([H])c([H])c(C([H])([H])[H])c2[H])c([H])c([H])c1C#Cc1nc(C([H])([H])[H])sc1[H]
     RDKit          3D

 35 37  0  0  0  0  0  0  0  0999 V2000
    8.0091   -1.8583   -0.5272 C   0  0  0  0  0  0  0  0  0  0  0  0
    7.0462   -0.7031   -0.5705 C   0  0  0  0  0  0  0  0  0  0  0  0
    5.7329   -0.7383   -0.4550 N   0  0  0  0  0  0  0  0  0  0  0  0
    5.0479    0.3732   -0.5173 C   0  0  0  0  0  0  0  0  0  0  0  0
    5.7524    1.5343   -0.7032 C   0  0  0  0  0  0  0  0  0  0  0  0
    7.3609    0.9571   -0.7774 S   0  0  0  0  0  0  0  0  0  0  0  0
    3.5864    0.4018   -0.3961 C   0  0  0  0  0  0  0  0  0  0  0  0
    2.3840    0.4039   -0.2962 C   0  0  0  0  0  0  0  0  0  0  0  0
    0.9524    0.4201   -0.1983 C   0  0  0  0  0  0  0  0  0  0  0  0
    0.2298    1.4303   -0.7897 C   0  0  0  0  0  0  0  0  0  0  0  0
   -1.1551    1.4569   -0.7020 C   0  0  0  0  0  0  0  0  0  0  0  0
   -1.8270    0.4658   -0.0174 C   0  0  0  0  0  0  0  0  0  0  0  0
   -1.1079   -0.5159    0.5560 N   0  0  0  0  0  0  0  0  0  0  0  0
    0.2277   -0.5343    0.4668 C   0  0  0  0  0  0  0  0  0  0  0  0
   -3.2854    0.4509    0.1024 C   0  0  0  0  0  0  0  0  0  0  0  0
   -4.0943    1.4138   -0.4522 C   0  0  0  0  0  0  0  0  0  0  0  0
   -5.4797    1.3323   -0.2953 C   0  0  0  0  0  0  0  0  0  0  0  0
   -6.0741    0.3117    0.4024 C   0  0  0  0  0  0  0  0  0  0  0  0
   -5.2479   -0.6364    0.9462 C   0  0  0  0  0  0  0  0  0  0  0  0
   -5.8814   -1.7455    1.7035 C   0  0  0  0  0  0  0  0  0  0  0  0
   -3.8813   -0.5745    0.8033 C   0  0  0  0  0  0  0  0  0  0  0  0
    7.4411   -2.7823   -0.6448 H   0  0  0  0  0  0  0  0  0  0  0  0
    8.7251   -1.7353   -1.3605 H   0  0  0  0  0  0  0  0  0  0  0  0
    8.5404   -1.8545    0.4569 H   0  0  0  0  0  0  0  0  0  0  0  0
    5.3504    2.5624   -0.7805 H   0  0  0  0  0  0  0  0  0  0  0  0
    0.7948    2.1924   -1.3198 H   0  0  0  0  0  0  0  0  0  0  0  0
   -1.6863    2.2792   -1.1877 H   0  0  0  0  0  0  0  0  0  0  0  0
    0.8200   -1.3369    0.9352 H   0  0  0  0  0  0  0  0  0  0  0  0
   -3.6645    2.2421   -1.0144 H   0  0  0  0  0  0  0  0  0  0  0  0
   -6.0593    2.1170   -0.7532 H   0  0  0  0  0  0  0  0  0  0  0  0
   -7.1566    0.2691    0.5116 H   0  0  0  0  0  0  0  0  0  0  0  0
   -6.5485   -2.2815    0.9953 H   0  0  0  0  0  0  0  0  0  0  0  0
   -6.5271   -1.2947    2.5115 H   0  0  0  0  0  0  0  0  0  0  0  0
   -5.0936   -2.3867    2.1257 H   0  0  0  0  0  0  0  0  0  0  0  0
   -3.2314   -1.3376    1.2421 H   0  0  0  0  0  0  0  0  0  0  0  0
  1  2  1  0
  2  3  2  0
  3  4  1  0
  4  5  2  0
  5  6  1  0
  4  7  1  0
  7  8  3  0
  8  9  1  0
  9 10  2  0
 10 11  1  0
 11 12  2  0
 12 13  1  0
 13 14  2  0
 12 15  1  0
 15 16  2  0
 16 17  1  0
 17 18  2  0
 18 19  1  0
 19 20  1  0
 19 21  2  0
  6  2  1  0
 14  9  1  0
 21 15  1  0
  1 22  1  0
  1 23  1  0
  1 24  1  0
  5 25  1  0
 10 26  1  0
 11 27  1  0
 14 28  1  0
 16 29  1  0
 17 30  1  0
 18 31  1  0
 20 32  1  0
 20 33  1  0
 20 34  1  0
 21 35  1  0
M  END
$$$$
[H]c1nc(N([H])c2c([H])c([H])c(N3C([H])([H])C([H])([H])C([H])(N4C([H])([H])C([H])([H])C([H])([H])C4([H])[H])C([H])([H])C3([H])[H])c([H])c2OC([H])([H])[H])nc(N([H])c2c([H])c([H])c([H])c([H])c2S(=O)(=O)C([H])(C([H])([H])[H])C([H])([H])[H])c1Cl
     RDKit          3D

 77 81  0  0  0  0  0  0  0  0999 V2000
    0.8444    1.1735   -3.4882 C   0  0  0  0  0  0  0  0  0  0  0  0
    0.1439    0.9247   -2.3025 O   0  0  0  0  0  0  0  0  0  0  0  0
    0.7822    0.3868   -1.2119 C   0  0  0  0  0  0  0  0  0  0  0  0
    2.1247    0.0964   -1.3057 C   0  0  0  0  0  0  0  0  0  0  0  0
    2.8153   -0.4444   -0.2422 C   0  0  0  0  0  0  0  0  0  0  0  0
    2.1684   -0.7054    0.9431 C   0  0  0  0  0  0  0  0  0  0  0  0
    0.8041   -0.4045    1.0222 C   0  0  0  0  0  0  0  0  0  0  0  0
    0.0946    0.1289   -0.0087 C   0  0  0  0  0  0  0  0  0  0  0  0
   -1.2782    0.4436    0.0285 N   0  0  0  0  0  0  0  0  0  0  0  0
   -2.2158    0.2947    1.0523 C   0  0  0  0  0  0  0  0  0  0  0  0
   -1.9079   -0.2100    2.2386 N   0  0  0  0  0  0  0  0  0  0  0  0
   -2.7961   -0.3635    3.2240 C   0  0  0  0  0  0  0  0  0  0  0  0
   -4.0813    0.0263    2.9742 C   0  0  0  0  0  0  0  0  0  0  0  0
   -5.2951   -0.1412    4.2182 Cl  0  0  0  0  0  0  0  0  0  0  0  0
   -4.4529    0.5671    1.7291 C   0  0  0  0  0  0  0  0  0  0  0  0
   -5.7836    0.9344    1.4634 N   0  0  0  0  0  0  0  0  0  0  0  0
   -6.3139    1.5195    0.2955 C   0  0  0  0  0  0  0  0  0  0  0  0
   -5.5606    2.1541   -0.6571 C   0  0  0  0  0  0  0  0  0  0  0  0
   -6.0806    2.8280   -1.7613 C   0  0  0  0  0  0  0  0  0  0  0  0
   -7.4338    2.8623   -1.9097 C   0  0  0  0  0  0  0  0  0  0  0  0
   -8.2187    2.2364   -0.9751 C   0  0  0  0  0  0  0  0  0  0  0  0
   -7.6979    1.5567    0.1348 C   0  0  0  0  0  0  0  0  0  0  0  0
   -8.8110    0.7276    1.1504 S   0  0  0  0  0  0  0  0  0  0  0  0
   -8.7176    1.1212    2.6121 O   0  0  0  0  0  0  0  0  0  0  0  0
  -10.2307    1.2112    0.7746 O   0  0  0  0  0  0  0  0  0  0  0  0
   -8.8787   -1.0165    0.9527 C   0  0  0  0  0  0  0  0  0  0  0  0
   -7.6434   -1.7952    1.1622 C   0  0  0  0  0  0  0  0  0  0  0  0
   -9.4496   -1.2951   -0.4370 C   0  0  0  0  0  0  0  0  0  0  0  0
   -3.4913    0.6665    0.8456 N   0  0  0  0  0  0  0  0  0  0  0  0
    4.1960   -0.7607   -0.3178 N   0  0  0  0  0  0  0  0  0  0  0  0
    4.9336   -1.1733    0.8819 C   0  0  0  0  0  0  0  0  0  0  0  0
    6.4199   -1.1596    0.6163 C   0  0  0  0  0  0  0  0  0  0  0  0
    6.8115    0.1552   -0.0512 C   0  0  0  0  0  0  0  0  0  0  0  0
    6.0206    0.3973   -1.2880 C   0  0  0  0  0  0  0  0  0  0  0  0
    4.9953   -0.7223   -1.5248 C   0  0  0  0  0  0  0  0  0  0  0  0
    8.2232    0.2736   -0.2312 N   0  0  0  0  0  0  0  0  0  0  0  0
    8.8279   -0.6885   -1.0738 C   0  0  0  0  0  0  0  0  0  0  0  0
    9.5633   -1.6898   -0.2068 C   0  0  0  0  0  0  0  0  0  0  0  0
    9.6882   -0.9817    1.1154 C   0  0  0  0  0  0  0  0  0  0  0  0
    8.9705    0.3394    0.9746 C   0  0  0  0  0  0  0  0  0  0  0  0
    1.2786    0.2534   -3.9436 H   0  0  0  0  0  0  0  0  0  0  0  0
    0.2521    1.7597   -4.2252 H   0  0  0  0  0  0  0  0  0  0  0  0
    1.7405    1.8297   -3.2721 H   0  0  0  0  0  0  0  0  0  0  0  0
    2.6405    0.3088   -2.2572 H   0  0  0  0  0  0  0  0  0  0  0  0
    2.7020   -1.1359    1.8005 H   0  0  0  0  0  0  0  0  0  0  0  0
    0.3661   -0.6318    1.9705 H   0  0  0  0  0  0  0  0  0  0  0  0
   -1.7003    0.8770   -0.8818 H   0  0  0  0  0  0  0  0  0  0  0  0
   -2.5090   -0.7756    4.1686 H   0  0  0  0  0  0  0  0  0  0  0  0
   -6.4448    0.7483    2.2946 H   0  0  0  0  0  0  0  0  0  0  0  0
   -4.4875    2.1799   -0.5950 H   0  0  0  0  0  0  0  0  0  0  0  0
   -5.4582    3.3165   -2.4921 H   0  0  0  0  0  0  0  0  0  0  0  0
   -7.9369    3.3599   -2.7309 H   0  0  0  0  0  0  0  0  0  0  0  0
   -9.3145    2.2697   -1.1049 H   0  0  0  0  0  0  0  0  0  0  0  0
   -9.6419   -1.3897    1.6818 H   0  0  0  0  0  0  0  0  0  0  0  0
   -6.8736   -1.6188    0.3769 H   0  0  0  0  0  0  0  0  0  0  0  0
   -7.8590   -2.9107    1.0478 H   0  0  0  0  0  0  0  0  0  0  0  0
   -7.1554   -1.6284    2.1419 H   0  0  0  0  0  0  0  0  0  0  0  0
   -8.6222   -1.3689   -1.1571 H   0  0  0  0  0  0  0  0  0  0  0  0
  -10.1824   -0.5193   -0.6655 H   0  0  0  0  0  0  0  0  0  0  0  0
   -9.9573   -2.2694   -0.3724 H   0  0  0  0  0  0  0  0  0  0  0  0
    4.6355   -2.2205    1.0843 H   0  0  0  0  0  0  0  0  0  0  0  0
    4.6564   -0.5745    1.7660 H   0  0  0  0  0  0  0  0  0  0  0  0
    6.9138   -1.2598    1.6106 H   0  0  0  0  0  0  0  0  0  0  0  0
    6.7068   -2.0371    0.0389 H   0  0  0  0  0  0  0  0  0  0  0  0
    6.5190    0.9496    0.6967 H   0  0  0  0  0  0  0  0  0  0  0  0
    5.4138    1.3290   -1.2316 H   0  0  0  0  0  0  0  0  0  0  0  0
    6.6594    0.5251   -2.2015 H   0  0  0  0  0  0  0  0  0  0  0  0
    5.5071   -1.7091   -1.5693 H   0  0  0  0  0  0  0  0  0  0  0  0
    4.4546   -0.5000   -2.4387 H   0  0  0  0  0  0  0  0  0  0  0  0
    9.5960   -0.1824   -1.6990 H   0  0  0  0  0  0  0  0  0  0  0  0
    8.1431   -1.1934   -1.7799 H   0  0  0  0  0  0  0  0  0  0  0  0
    9.0162   -2.6556   -0.1333 H   0  0  0  0  0  0  0  0  0  0  0  0
   10.5501   -1.9363   -0.6537 H   0  0  0  0  0  0  0  0  0  0  0  0
    9.3099   -1.5809    1.9603 H   0  0  0  0  0  0  0  0  0  0  0  0
   10.7892   -0.8438    1.3002 H   0  0  0  0  0  0  0  0  0  0  0  0
    9.7787    1.1139    0.8224 H   0  0  0  0  0  0  0  0  0  0  0  0
    8.4248    0.6477    1.8661 H   0  0  0  0  0  0  0  0  0  0  0  0
  1  2  1  0
  2  3  1  0
  3  4  2  0
  4  5  1  0
  5  6  2  0
  6  7  1  0
  7  8  2  0
  8  9  1  0
  9 10  1  0
 10 11  2  0
 11 12  1  0
 12 13  2  0
 13 14  1  0
 13 15  1  0
 15 16  1  0
 16 17  1  0
 17 18  2  0
 18 19  1  0
 19 20  2  0
 20 21  1  0
 21 22  2  0
 22 23  1  0
 23 24  2  0
 23 25  2  0
 23 26  1  0
 26 27  1  0
 26 28  1  0
 15 29  2  0
  5 30  1  0
 30 31  1  0
 31 32  1  0
 32 33  1  0
 33 34  1  0
 34 35  1  0
 33 36  1  0
 36 37  1  0
 37 38  1  0
 38 39  1  0
 39 40  1  0
  8  3  1  0
 29 10  1  0
 35 30  1  0
 40 36  1  0
 22 17  1  0
  1 41  1  0
  1 42  1  0
  1 43  1  0
  4 44  1  0
  6 45  1  0
  7 46  1  0
  9 47  1  0
 12 48  1  0
 16 49  1  0
 18 50  1  0
 19 51  1  0
 20 52  1  0
 21 53  1  0
 26 54  1  0
 27 55  1  0
 27 56  1  0
 27 57  1  0
 28 58  1  0
 28 59  1  0
 28 60  1  0
 31 61  1  0
 31 62  1  0
 32 63  1  0
 32 64  1  0
 33 65  1  0
 34 66  1  0
 34 67  1  0
 35 68  1  0
 35 69  1  0
 37 70  1  0
 37 71  1  0
 38 72  1  0
 38 73  1  0
 39 74  1  0
 39 75  1  0
 40 76  1  0
 40 77  1  0
M  END
$$$$
[H]c1nc2c([H])c(OC([H])([H])C([H])([H])C([H])([H])N3C([H])([H])C([H])([H])N(C([H])([H])[H])C([H])([H])C3([H])[H])c(OC([H])([H])[H])c([H])c2c(N([H])c2c([H])c(OC([H])([H])[H])c(Cl)c([H])c2Cl)c1C#N
     RDKit          3D

 65 68  0  0  0  0  0  0  0  0999 V2000
   -5.2946    0.1799   -2.9709 C   0  0  0  0  0  0  0  0  0  0  0  0
   -6.0951   -0.9158   -2.5530 O   0  0  0  0  0  0  0  0  0  0  0  0
   -6.1608   -1.1576   -1.1778 C   0  0  0  0  0  0  0  0  0  0  0  0
   -5.4971   -0.3938   -0.2509 C   0  0  0  0  0  0  0  0  0  0  0  0
   -5.5371   -0.6002    1.1107 C   0  0  0  0  0  0  0  0  0  0  0  0
   -4.8166    0.2382    2.0340 N   0  0  0  0  0  0  0  0  0  0  0  0
   -4.0248    1.3195    1.6049 C   0  0  0  0  0  0  0  0  0  0  0  0
   -4.6352    2.5531    1.4917 C   0  0  0  0  0  0  0  0  0  0  0  0
   -3.8290    3.6094    1.0643 C   0  0  0  0  0  0  0  0  0  0  0  0
   -2.5270    3.4300    0.7791 N   0  0  0  0  0  0  0  0  0  0  0  0
   -1.9535    2.2186    0.8968 C   0  0  0  0  0  0  0  0  0  0  0  0
   -0.6053    1.9975    0.6091 C   0  0  0  0  0  0  0  0  0  0  0  0
   -0.0254    0.7512    0.7328 C   0  0  0  0  0  0  0  0  0  0  0  0
    1.3282    0.5594    0.4376 O   0  0  0  0  0  0  0  0  0  0  0  0
    2.1607    1.6065    0.0051 C   0  0  0  0  0  0  0  0  0  0  0  0
    3.5417    1.0243   -0.2125 C   0  0  0  0  0  0  0  0  0  0  0  0
    3.4226   -0.0554   -1.2622 C   0  0  0  0  0  0  0  0  0  0  0  0
    4.6627   -0.6900   -1.5641 N   0  0  0  0  0  0  0  0  0  0  0  0
    5.1982   -1.4923   -0.4904 C   0  0  0  0  0  0  0  0  0  0  0  0
    6.5388   -0.9813   -0.0123 C   0  0  0  0  0  0  0  0  0  0  0  0
    7.5161   -0.9508   -1.0794 N   0  0  0  0  0  0  0  0  0  0  0  0
    8.4297    0.1509   -0.7994 C   0  0  0  0  0  0  0  0  0  0  0  0
    6.9128   -0.6710   -2.3660 C   0  0  0  0  0  0  0  0  0  0  0  0
    5.6339    0.1418   -2.1961 C   0  0  0  0  0  0  0  0  0  0  0  0
   -0.7837   -0.3247    1.1524 C   0  0  0  0  0  0  0  0  0  0  0  0
   -0.1660   -1.5451    1.2609 O   0  0  0  0  0  0  0  0  0  0  0  0
   -0.8182   -2.7273    1.6769 C   0  0  0  0  0  0  0  0  0  0  0  0
   -2.1295   -0.1321    1.4455 C   0  0  0  0  0  0  0  0  0  0  0  0
   -2.6832    1.1246    1.3132 C   0  0  0  0  0  0  0  0  0  0  0  0
   -6.0331    2.7467    1.7978 C   0  0  0  0  0  0  0  0  0  0  0  0
   -7.1560    2.8867    2.0549 N   0  0  0  0  0  0  0  0  0  0  0  0
   -6.3055   -1.6561    1.5519 C   0  0  0  0  0  0  0  0  0  0  0  0
   -6.4410   -2.0259    3.2478 Cl  0  0  0  0  0  0  0  0  0  0  0  0
   -7.0004   -2.4646    0.6587 C   0  0  0  0  0  0  0  0  0  0  0  0
   -6.9278   -2.2166   -0.6919 C   0  0  0  0  0  0  0  0  0  0  0  0
   -7.7733   -3.1886   -1.8765 Cl  0  0  0  0  0  0  0  0  0  0  0  0
   -5.4136    0.3597   -4.0746 H   0  0  0  0  0  0  0  0  0  0  0  0
   -4.2180   -0.0377   -2.8166 H   0  0  0  0  0  0  0  0  0  0  0  0
   -5.5182    1.1093   -2.4102 H   0  0  0  0  0  0  0  0  0  0  0  0
   -4.8824    0.4495   -0.5886 H   0  0  0  0  0  0  0  0  0  0  0  0
   -4.9019    0.0142    3.0487 H   0  0  0  0  0  0  0  0  0  0  0  0
   -4.3295    4.5717    0.9823 H   0  0  0  0  0  0  0  0  0  0  0  0
   -0.0170    2.8280    0.2846 H   0  0  0  0  0  0  0  0  0  0  0  0
    1.7778    1.9385   -1.0008 H   0  0  0  0  0  0  0  0  0  0  0  0
    2.1821    2.4558    0.7154 H   0  0  0  0  0  0  0  0  0  0  0  0
    4.2210    1.8377   -0.5139 H   0  0  0  0  0  0  0  0  0  0  0  0
    3.9285    0.6049    0.7361 H   0  0  0  0  0  0  0  0  0  0  0  0
    2.9821    0.3266   -2.1992 H   0  0  0  0  0  0  0  0  0  0  0  0
    2.7315   -0.8214   -0.8541 H   0  0  0  0  0  0  0  0  0  0  0  0
    5.2338   -2.5366   -0.8312 H   0  0  0  0  0  0  0  0  0  0  0  0
    4.5037   -1.4099    0.3697 H   0  0  0  0  0  0  0  0  0  0  0  0
    6.3881   -0.0055    0.4627 H   0  0  0  0  0  0  0  0  0  0  0  0
    6.9097   -1.6815    0.7631 H   0  0  0  0  0  0  0  0  0  0  0  0
    7.9186    0.8915   -0.1786 H   0  0  0  0  0  0  0  0  0  0  0  0
    9.2446   -0.2873   -0.1540 H   0  0  0  0  0  0  0  0  0  0  0  0
    8.8635    0.5756   -1.7319 H   0  0  0  0  0  0  0  0  0  0  0  0
    7.6268   -0.0558   -2.9818 H   0  0  0  0  0  0  0  0  0  0  0  0
    6.6852   -1.5665   -2.9435 H   0  0  0  0  0  0  0  0  0  0  0  0
    5.9066    1.0433   -1.6186 H   0  0  0  0  0  0  0  0  0  0  0  0
    5.2600    0.4179   -3.1952 H   0  0  0  0  0  0  0  0  0  0  0  0
   -1.6281   -3.0342    0.9852 H   0  0  0  0  0  0  0  0  0  0  0  0
   -0.0534   -3.5288    1.7326 H   0  0  0  0  0  0  0  0  0  0  0  0
   -1.1857   -2.5572    2.7031 H   0  0  0  0  0  0  0  0  0  0  0  0
   -2.7370   -0.9576    1.7739 H   0  0  0  0  0  0  0  0  0  0  0  0
   -7.6050   -3.2933    0.9881 H   0  0  0  0  0  0  0  0  0  0  0  0
  1  2  1  0
  2  3  1  0
  3  4  2  0
  4  5  1  0
  5  6  1  0
  6  7  1  0
  7  8  2  0
  8  9  1  0
  9 10  2  0
 10 11  1  0
 11 12  2  0
 12 13  1  0
 13 14  1  0
 14 15  1  0
 15 16  1  0
 16 17  1  0
 17 18  1  0
 18 19  1  0
 19 20  1  0
 20 21  1  0
 21 22  1  0
 21 23  1  0
 23 24  1  0
 13 25  2  0
 25 26  1  0
 26 27  1  0
 25 28  1  0
 28 29  2  0
  8 30  1  0
 30 31  3  0
  5 32  2  0
 32 33  1  0
 32 34  1  0
 34 35  2  0
 35 36  1  0
 35  3  1  0
 29  7  1  0
 29 11  1  0
 24 18  1  0
  1 37  1  0
  1 38  1  0
  1 39  1  0
  4 40  1  0
  6 41  1  0
  9 42  1  0
 12 43  1  0
 15 44  1  0
 15 45  1  0
 16 46  1  0
 16 47  1  0
 17 48  1  0
 17 49  1  0
 19 50  1  0
 19 51  1  0
 20 52  1  0
 20 53  1  0
 22 54  1  0
 22 55  1  0
 22 56  1  0
 23 57  1  0
 23 58  1  0
 24 59  1  0
 24 60  1  0
 27 61  1  0
 27 62  1  0
 27 63  1  0
 28 64  1  0
 34 65  1  0
M  END
$$$$
[H]O[C@]1([H])[C@@]([H])(C([H])([H])OP(=O)(O[H])OP(=O)(O[H])OC([H])([H])[C@@]2([H])O[C@@]([H])(O[H])[C@]2([H])O[H])O[C@@]([H])(n2c([H])nc3c(N([H])[H])nc([H])nc32)[C@]1([H])O[H]
     RDKit          3D

 55 58  0  0  0  0  0  0  0  0999 V2000
    6.1918   -1.7299   -0.6539 O   0  0  0  0  0  0  0  0  0  0  0  0
    6.3383   -0.5537   -0.0054 C   0  0  2  0  0  0  0  0  0  0  0  0
    6.5122    0.6965   -0.9750 C   0  0  1  0  0  0  0  0  0  0  0  0
    5.4579    1.7060   -0.3933 C   0  0  0  0  0  0  0  0  0  0  0  0
    4.5264    1.6958   -1.4553 O   0  0  0  0  0  0  0  0  0  0  0  0
    3.0234    1.1779   -1.1169 P   0  0  0  0  0  0  0  0  0  0  0  0
    2.8706   -0.2826   -2.0890 O   0  0  0  0  0  0  0  0  0  0  0  0
    1.9274    2.0708   -1.5024 O   0  0  0  0  0  0  0  0  0  0  0  0
    2.8662    0.5826    0.4635 O   0  0  0  0  0  0  0  0  0  0  0  0
    1.2298    0.3512    0.7906 P   0  0  0  0  0  0  0  0  0  0  0  0
    0.2832    1.5693    0.2394 O   0  0  0  0  0  0  0  0  0  0  0  0
    1.1213    0.3335    2.3518 O   0  0  0  0  0  0  0  0  0  0  0  0
    0.7670   -1.2343    0.3974 O   0  0  0  0  0  0  0  0  0  0  0  0
   -0.6020   -1.2475    0.0941 C   0  0  0  0  0  0  0  0  0  0  0  0
   -1.2913   -1.8060    1.3483 C   0  0  1  0  0  0  0  0  0  0  0  0
   -2.0632   -0.6942    1.8042 O   0  0  0  0  0  0  0  0  0  0  0  0
   -3.2982   -0.8724    1.3130 C   0  0  2  0  0  0  0  0  0  0  0  0
   -3.3426   -2.0406    0.3566 C   0  0  2  0  0  0  0  0  0  0  0  0
   -4.5568   -2.6817    0.3965 O   0  0  0  0  0  0  0  0  0  0  0  0
   -2.2266   -2.8903    1.0370 C   0  0  2  0  0  0  0  0  0  0  0  0
   -2.7994   -3.4447    2.2057 O   0  0  0  0  0  0  0  0  0  0  0  0
   -4.0133    0.2853    0.8632 N   0  0  0  0  0  0  0  0  0  0  0  0
   -4.2601    1.3227    1.6647 C   0  0  0  0  0  0  0  0  0  0  0  0
   -5.0401    2.1894    1.0190 N   0  0  0  0  0  0  0  0  0  0  0  0
   -5.3130    1.7312   -0.2042 C   0  0  0  0  0  0  0  0  0  0  0  0
   -6.0445    2.1420   -1.2763 C   0  0  0  0  0  0  0  0  0  0  0  0
   -6.8226    3.3052   -1.1669 N   0  0  0  0  0  0  0  0  0  0  0  0
   -6.1053    1.3853   -2.4089 N   0  0  0  0  0  0  0  0  0  0  0  0
   -5.4500    0.2349   -2.4460 C   0  0  0  0  0  0  0  0  0  0  0  0
   -4.7440   -0.1921   -1.4133 N   0  0  0  0  0  0  0  0  0  0  0  0
   -4.6494    0.5237   -0.2785 C   0  0  0  0  0  0  0  0  0  0  0  0
    7.7673    0.7764   -0.6162 O   0  0  0  0  0  0  0  0  0  0  0  0
    7.6907   -0.1376    0.4059 C   0  0  1  0  0  0  0  0  0  0  0  0
    7.7260    0.5814    1.6213 O   0  0  0  0  0  0  0  0  0  0  0  0
    6.1019   -1.7011   -1.6180 H   0  0  0  0  0  0  0  0  0  0  0  0
    5.5436   -0.3918    0.7460 H   0  0  0  0  0  0  0  0  0  0  0  0
    6.2446    0.3378   -1.9535 H   0  0  0  0  0  0  0  0  0  0  0  0
    5.9805    2.6485   -0.3283 H   0  0  0  0  0  0  0  0  0  0  0  0
    5.0798    1.3746    0.5543 H   0  0  0  0  0  0  0  0  0  0  0  0
    2.4287   -0.0583   -2.9544 H   0  0  0  0  0  0  0  0  0  0  0  0
   -0.3158    1.4539   -0.4884 H   0  0  0  0  0  0  0  0  0  0  0  0
   -0.7539   -1.9547   -0.7516 H   0  0  0  0  0  0  0  0  0  0  0  0
   -1.0152   -0.2840   -0.1923 H   0  0  0  0  0  0  0  0  0  0  0  0
   -0.5176   -2.0335    2.1034 H   0  0  0  0  0  0  0  0  0  0  0  0
   -3.9141   -1.2733    2.2104 H   0  0  0  0  0  0  0  0  0  0  0  0
   -2.9190   -1.8143   -0.6225 H   0  0  0  0  0  0  0  0  0  0  0  0
   -4.3720   -3.6614    0.5229 H   0  0  0  0  0  0  0  0  0  0  0  0
   -1.8323   -3.6539    0.3568 H   0  0  0  0  0  0  0  0  0  0  0  0
   -2.6297   -2.7839    2.9542 H   0  0  0  0  0  0  0  0  0  0  0  0
   -3.8982    1.5253    2.6850 H   0  0  0  0  0  0  0  0  0  0  0  0
   -7.3951    3.3855   -0.2474 H   0  0  0  0  0  0  0  0  0  0  0  0
   -6.9312    4.0671   -1.8299 H   0  0  0  0  0  0  0  0  0  0  0  0
   -5.4906   -0.3826   -3.3577 H   0  0  0  0  0  0  0  0  0  0  0  0
    8.4646   -0.9241    0.3996 H   0  0  0  0  0  0  0  0  0  0  0  0
    8.4643    1.2706    1.4409 H   0  0  0  0  0  0  0  0  0  0  0  0
  1  2  1  0
  2  3  1  0
  3  4  1  0
  4  5  1  0
  5  6  1  0
  6  7  1  0
  6  8  2  0
  6  9  1  0
  9 10  1  0
 10 11  1  0
 10 12  2  0
 10 13  1  0
 13 14  1  0
 14 15  1  0
 15 16  1  0
 16 17  1  0
 17 18  1  0
 18 19  1  0
 18 20  1  0
 20 21  1  0
 17 22  1  0
 22 23  1  0
 23 24  2  0
 24 25  1  0
 25 26  2  0
 26 27  1  0
 26 28  1  0
 28 29  2  0
 29 30  1  0
 30 31  2  0
  3 32  1  0
 32 33  1  0
 33 34  1  0
 33  2  1  0
 20 15  1  0
 31 22  1  0
 31 25  1  0
  1 35  1  0
  2 36  1  1
  3 37  1  6
  4 38  1  0
  4 39  1  0
  7 40  1  0
 11 41  1  0
 14 42  1  0
 14 43  1  0
 15 44  1  1
 17 45  1  1
 18 46  1  6
 19 47  1  0
 20 48  1  6
 21 49  1  0
 23 50  1  0
 27 51  1  0
 27 52  1  0
 29 53  1  0
 33 54  1  1
 34 55  1  0
M  END
$$$$
[H]/C(C(=O)N([H])[C@]([H])(c1c([H])c([H])c(Cl)c([H])c1[H])C([H])([H])[H])=C(/[H])c1c([H])c([H])c([H])c([H])c1[H]
     RDKit          3D

 36 37  0  0  0  0  0  0  0  0999 V2000
   -2.6523   -0.4838    2.5719 C   0  0  0  0  0  0  0  0  0  0  0  0
   -2.2662   -0.6797    1.1208 C   0  0  2  0  0  0  0  0  0  0  0  0
   -0.9577   -0.1211    0.9409 N   0  0  0  0  0  0  0  0  0  0  0  0
    0.0868   -0.9217    0.4293 C   0  0  0  0  0  0  0  0  0  0  0  0
   -0.1459   -2.1130    0.1388 O   0  0  0  0  0  0  0  0  0  0  0  0
    1.4249   -0.3274    0.2521 C   0  0  0  0  0  0  0  0  0  0  0  0
    2.4351   -1.0267   -0.2206 C   0  0  0  0  0  0  0  0  0  0  0  0
    3.7850   -0.5230   -0.4276 C   0  0  0  0  0  0  0  0  0  0  0  0
    4.7733   -1.3665   -0.9369 C   0  0  0  0  0  0  0  0  0  0  0  0
    6.0562   -0.9119   -1.1408 C   0  0  0  0  0  0  0  0  0  0  0  0
    6.4343    0.3808   -0.8589 C   0  0  0  0  0  0  0  0  0  0  0  0
    5.4792    1.2274   -0.3574 C   0  0  0  0  0  0  0  0  0  0  0  0
    4.1759    0.7593   -0.1521 C   0  0  0  0  0  0  0  0  0  0  0  0
   -3.2898    0.0506    0.2935 C   0  0  0  0  0  0  0  0  0  0  0  0
   -3.3307    1.4274    0.2322 C   0  0  0  0  0  0  0  0  0  0  0  0
   -4.2875    2.0642   -0.5400 C   0  0  0  0  0  0  0  0  0  0  0  0
   -5.2240    1.3612   -1.2682 C   0  0  0  0  0  0  0  0  0  0  0  0
   -6.4413    2.1549   -2.2504 Cl  0  0  0  0  0  0  0  0  0  0  0  0
   -5.1844   -0.0119   -1.2080 C   0  0  0  0  0  0  0  0  0  0  0  0
   -4.2267   -0.6473   -0.4350 C   0  0  0  0  0  0  0  0  0  0  0  0
   -2.1723   -1.2619    3.2186 H   0  0  0  0  0  0  0  0  0  0  0  0
   -2.2988    0.5158    2.8916 H   0  0  0  0  0  0  0  0  0  0  0  0
   -3.7458   -0.5239    2.6438 H   0  0  0  0  0  0  0  0  0  0  0  0
   -2.2856   -1.7255    0.8169 H   0  0  0  0  0  0  0  0  0  0  0  0
   -0.7882    0.8647    1.1874 H   0  0  0  0  0  0  0  0  0  0  0  0
    1.6030    0.7046    0.5099 H   0  0  0  0  0  0  0  0  0  0  0  0
    2.2232   -2.0683   -0.4722 H   0  0  0  0  0  0  0  0  0  0  0  0
    4.4677   -2.3791   -1.1552 H   0  0  0  0  0  0  0  0  0  0  0  0
    6.7662   -1.6240   -1.5380 H   0  0  0  0  0  0  0  0  0  0  0  0
    7.4514    0.6614   -1.0441 H   0  0  0  0  0  0  0  0  0  0  0  0
    5.7454    2.2501   -0.1258 H   0  0  0  0  0  0  0  0  0  0  0  0
    3.4368    1.4550    0.2479 H   0  0  0  0  0  0  0  0  0  0  0  0
   -2.5904    1.9830    0.8078 H   0  0  0  0  0  0  0  0  0  0  0  0
   -4.3325    3.1414   -0.5983 H   0  0  0  0  0  0  0  0  0  0  0  0
   -5.9257   -0.5630   -1.7845 H   0  0  0  0  0  0  0  0  0  0  0  0
   -4.1982   -1.7221   -0.3899 H   0  0  0  0  0  0  0  0  0  0  0  0
  1  2  1  0
  2  3  1  0
  3  4  1  0
  4  5  2  0
  4  6  1  0
  6  7  2  0
  7  8  1  0
  8  9  2  0
  9 10  1  0
 10 11  2  0
 11 12  1  0
 12 13  2  0
  2 14  1  0
 14 15  2  0
 15 16  1  0
 16 17  2  0
 17 18  1  0
 17 19  1  0
 19 20  2  0
 13  8  1  0
 20 14  1  0
  1 21  1  0
  1 22  1  0
  1 23  1  0
  2 24  1  6
  3 25  1  0
  6 26  1  0
  7 27  1  0
  9 28  1  0
 10 29  1  0
 11 30  1  0
 12 31  1  0
 13 32  1  0
 15 33  1  0
 16 34  1  0
 19 35  1  0
 20 36  1  0
M  END
$$$$
[H]N=C(N([H])[H])N([H])C([H])([H])C([H])([H])C([H])([H])[C@@]([H])(C(=O)N([H])[C@]([H])(C(=O)N([H])[C@]([H])(C(=O)N([H])[C@]([H])(C(=O)N([H])[C@]([H])(C(=O)N([H])[C]([H])C([H])([H])C([H])([H])C(=O)N([H])[H])C([H])([H])C([H])([H])C(=O)N([H])[H])C([H])([H])C([H])([H])C(=O)N([H])[H])C([H])([H])C([H])([H])C(=O)N([H])[H])C([H])([H])C(=O)N([H])[H])N([H])C(=O)[C@@]([H])(N([H])C(=O)[C@@]([H])(N([H])[H])C([H])([H])C([H])([H])C(=O)N([H])[H])C([H])([H])C([H])([H])C(=O)N([H])[H]
     RDKit          3D

138137  0  0  0  0  0  0  0  0999 V2000
   -5.4140    0.5789   -4.0206 N   0  0  0  0  0  0  0  0  0  0  0  0
   -4.0991    0.5986   -3.4659 C   0  0  0  0  0  0  0  0  0  0  0  0
   -3.3001   -0.3731   -3.8247 N   0  0  0  0  0  0  0  0  0  0  0  0
   -3.7026    1.6163   -2.5970 N   0  0  0  0  0  0  0  0  0  0  0  0
   -2.9299    1.4226   -1.4449 C   0  0  0  0  0  0  0  0  0  0  0  0
   -3.5713    0.7477   -0.2770 C   0  0  0  0  0  0  0  0  0  0  0  0
   -4.0739   -0.6099   -0.5640 C   0  0  0  0  0  0  0  0  0  0  0  0
   -4.6584   -1.2409    0.7583 C   0  0  2  0  0  0  0  0  0  0  0  0
   -5.7217   -0.4289    1.2151 N   0  0  0  0  0  0  0  0  0  0  0  0
   -6.9743   -0.5076    0.5736 C   0  0  0  0  0  0  0  0  0  0  0  0
   -7.1304   -1.2916   -0.3872 O   0  0  0  0  0  0  0  0  0  0  0  0
   -8.1031    0.3269    1.0100 C   0  0  2  0  0  0  0  0  0  0  0  0
   -9.0433   -0.4824    1.8731 C   0  0  0  0  0  0  0  0  0  0  0  0
   -9.6409   -1.6674    1.1913 C   0  0  0  0  0  0  0  0  0  0  0  0
  -10.5634   -2.4011    2.0709 C   0  0  0  0  0  0  0  0  0  0  0  0
  -11.2918   -3.5110    1.5766 N   0  0  0  0  0  0  0  0  0  0  0  0
  -10.7136   -2.0552    3.2570 O   0  0  0  0  0  0  0  0  0  0  0  0
   -8.8127    0.8827   -0.1375 N   0  0  0  0  0  0  0  0  0  0  0  0
   -9.0405    2.2660   -0.2834 C   0  0  0  0  0  0  0  0  0  0  0  0
   -8.6223    3.0646    0.6297 O   0  0  0  0  0  0  0  0  0  0  0  0
   -9.7282    2.9243   -1.4063 C   0  0  1  0  0  0  0  0  0  0  0  0
   -9.8934    1.9067   -2.4621 N   0  0  0  0  0  0  0  0  0  0  0  0
  -11.1263    3.3839   -1.0276 C   0  0  0  0  0  0  0  0  0  0  0  0
  -11.9627    2.1756   -0.6037 C   0  0  0  0  0  0  0  0  0  0  0  0
  -13.3308    2.5641   -0.2262 C   0  0  0  0  0  0  0  0  0  0  0  0
  -14.2618    1.5730    0.1532 N   0  0  0  0  0  0  0  0  0  0  0  0
  -13.6200    3.7861   -0.2565 O   0  0  0  0  0  0  0  0  0  0  0  0
   -3.4665   -1.2594    1.6446 C   0  0  0  0  0  0  0  0  0  0  0  0
   -3.4657   -0.6103    2.7230 O   0  0  0  0  0  0  0  0  0  0  0  0
   -2.3247   -1.9943    1.2815 N   0  0  0  0  0  0  0  0  0  0  0  0
   -1.1325   -2.0006    2.1008 C   0  0  1  0  0  0  0  0  0  0  0  0
   -0.8031   -3.3705    2.5652 C   0  0  0  0  0  0  0  0  0  0  0  0
   -0.5459   -4.3703    1.5373 C   0  0  0  0  0  0  0  0  0  0  0  0
   -0.2344   -5.7029    2.0049 N   0  0  0  0  0  0  0  0  0  0  0  0
   -0.5579   -4.2375    0.3055 O   0  0  0  0  0  0  0  0  0  0  0  0
   -0.0503   -1.2855    1.4135 C   0  0  0  0  0  0  0  0  0  0  0  0
   -0.3051   -0.7640    0.2854 O   0  0  0  0  0  0  0  0  0  0  0  0
    1.2608   -1.1252    1.9064 N   0  0  0  0  0  0  0  0  0  0  0  0
    2.2490   -0.3868    1.1434 C   0  0  1  0  0  0  0  0  0  0  0  0
    2.8411    0.7790    1.8460 C   0  0  0  0  0  0  0  0  0  0  0  0
    3.5794    0.4569    3.1181 C   0  0  0  0  0  0  0  0  0  0  0  0
    4.1290    1.6990    3.7238 C   0  0  0  0  0  0  0  0  0  0  0  0
    4.9301    1.5704    4.8907 N   0  0  0  0  0  0  0  0  0  0  0  0
    3.8540    2.7892    3.1690 O   0  0  0  0  0  0  0  0  0  0  0  0
    3.3333   -1.2370    0.5865 C   0  0  0  0  0  0  0  0  0  0  0  0
    3.3380   -2.4502    0.8427 O   0  0  0  0  0  0  0  0  0  0  0  0
    4.3444   -0.6836   -0.2254 N   0  0  0  0  0  0  0  0  0  0  0  0
    5.4498   -1.3459   -0.8409 C   0  0  1  0  0  0  0  0  0  0  0  0
    5.4960   -1.0857   -2.3393 C   0  0  0  0  0  0  0  0  0  0  0  0
    4.2538   -1.5521   -3.0213 C   0  0  0  0  0  0  0  0  0  0  0  0
    3.9761   -2.9849   -2.9088 C   0  0  0  0  0  0  0  0  0  0  0  0
    2.6971   -3.5084   -3.3152 N   0  0  0  0  0  0  0  0  0  0  0  0
    4.7767   -3.8509   -2.4740 O   0  0  0  0  0  0  0  0  0  0  0  0
    6.6819   -0.6981   -0.2423 C   0  0  0  0  0  0  0  0  0  0  0  0
    6.6273   -0.4106    0.9971 O   0  0  0  0  0  0  0  0  0  0  0  0
    7.8331   -0.4082   -0.9702 N   0  0  0  0  0  0  0  0  0  0  0  0
    8.9641    0.2325   -0.2718 C   0  0  1  0  0  0  0  0  0  0  0  0
   10.2227   -0.2330   -0.8941 C   0  0  0  0  0  0  0  0  0  0  0  0
   10.3762   -1.7054   -0.8263 C   0  0  0  0  0  0  0  0  0  0  0  0
   10.4320   -2.2788    0.5172 C   0  0  0  0  0  0  0  0  0  0  0  0
   10.4215   -3.7090    0.7192 N   0  0  0  0  0  0  0  0  0  0  0  0
   10.4917   -1.5652    1.5421 O   0  0  0  0  0  0  0  0  0  0  0  0
    8.7844    1.7267   -0.4619 C   0  0  0  0  0  0  0  0  0  0  0  0
    7.8088    2.1792   -1.0939 O   0  0  0  0  0  0  0  0  0  0  0  0
    9.7287    2.6765    0.0764 N   0  0  0  0  0  0  0  0  0  0  0  0
    9.5579    4.0634   -0.1000 C   0  0  0  0  0  3  0  0  0  0  0  0
   10.6642    4.9939   -0.1751 C   0  0  0  0  0  0  0  0  0  0  0  0
   12.0156    4.4365    0.1804 C   0  0  0  0  0  0  0  0  0  0  0  0
   12.1307    4.0176    1.5889 C   0  0  0  0  0  0  0  0  0  0  0  0
   13.3233    3.3452    1.9697 N   0  0  0  0  0  0  0  0  0  0  0  0
   11.2347    4.2334    2.4406 O   0  0  0  0  0  0  0  0  0  0  0  0
   -6.2596    0.8902   -3.5023 H   0  0  0  0  0  0  0  0  0  0  0  0
   -5.5551    0.2388   -4.9931 H   0  0  0  0  0  0  0  0  0  0  0  0
   -3.6047   -1.1025   -4.4660 H   0  0  0  0  0  0  0  0  0  0  0  0
   -4.0096    2.6074   -2.8252 H   0  0  0  0  0  0  0  0  0  0  0  0
   -2.4391    2.3973   -1.0868 H   0  0  0  0  0  0  0  0  0  0  0  0
   -2.0079    0.8197   -1.7614 H   0  0  0  0  0  0  0  0  0  0  0  0
   -2.9081    0.7644    0.6290 H   0  0  0  0  0  0  0  0  0  0  0  0
   -4.4526    1.3886    0.0521 H   0  0  0  0  0  0  0  0  0  0  0  0
   -4.8775   -0.5918   -1.2942 H   0  0  0  0  0  0  0  0  0  0  0  0
   -3.2954   -1.3082   -0.8727 H   0  0  0  0  0  0  0  0  0  0  0  0
   -5.0117   -2.2081    0.4019 H   0  0  0  0  0  0  0  0  0  0  0  0
   -5.5996    0.2185    2.0084 H   0  0  0  0  0  0  0  0  0  0  0  0
   -7.7304    1.1676    1.6137 H   0  0  0  0  0  0  0  0  0  0  0  0
   -9.8393    0.1738    2.2486 H   0  0  0  0  0  0  0  0  0  0  0  0
   -8.4837   -0.8398    2.7679 H   0  0  0  0  0  0  0  0  0  0  0  0
  -10.1826   -1.4303    0.2582 H   0  0  0  0  0  0  0  0  0  0  0  0
   -8.8401   -2.4091    0.9154 H   0  0  0  0  0  0  0  0  0  0  0  0
  -11.4295   -4.3901    2.0857 H   0  0  0  0  0  0  0  0  0  0  0  0
  -11.7281   -3.4469    0.6213 H   0  0  0  0  0  0  0  0  0  0  0  0
   -9.1501    0.2300   -0.8576 H   0  0  0  0  0  0  0  0  0  0  0  0
   -9.1487    3.7847   -1.7868 H   0  0  0  0  0  0  0  0  0  0  0  0
   -8.8942    1.6348   -2.7137 H   0  0  0  0  0  0  0  0  0  0  0  0
  -10.3569    2.3397   -3.3012 H   0  0  0  0  0  0  0  0  0  0  0  0
  -11.5896    3.7666   -1.9601 H   0  0  0  0  0  0  0  0  0  0  0  0
  -11.1186    4.1917   -0.2994 H   0  0  0  0  0  0  0  0  0  0  0  0
  -11.4803    1.7565    0.3131 H   0  0  0  0  0  0  0  0  0  0  0  0
  -11.9227    1.4398   -1.4257 H   0  0  0  0  0  0  0  0  0  0  0  0
  -15.2631    1.8342    0.3288 H   0  0  0  0  0  0  0  0  0  0  0  0
  -13.9447    0.5912    0.2544 H   0  0  0  0  0  0  0  0  0  0  0  0
   -2.3208   -2.5442    0.4107 H   0  0  0  0  0  0  0  0  0  0  0  0
   -1.4089   -1.4152    3.0392 H   0  0  0  0  0  0  0  0  0  0  0  0
    0.0427   -3.3114    3.2831 H   0  0  0  0  0  0  0  0  0  0  0  0
   -1.6761   -3.7184    3.1943 H   0  0  0  0  0  0  0  0  0  0  0  0
    0.5448   -5.8108    2.6830 H   0  0  0  0  0  0  0  0  0  0  0  0
   -0.7411   -6.5511    1.7017 H   0  0  0  0  0  0  0  0  0  0  0  0
    1.5060   -1.5451    2.8221 H   0  0  0  0  0  0  0  0  0  0  0  0
    1.7328    0.0329    0.2266 H   0  0  0  0  0  0  0  0  0  0  0  0
    3.5604    1.3152    1.1880 H   0  0  0  0  0  0  0  0  0  0  0  0
    2.0432    1.5446    2.0513 H   0  0  0  0  0  0  0  0  0  0  0  0
    2.8507    0.0487    3.8454 H   0  0  0  0  0  0  0  0  0  0  0  0
    4.3786   -0.2698    2.9883 H   0  0  0  0  0  0  0  0  0  0  0  0
    5.9573    1.6700    4.7527 H   0  0  0  0  0  0  0  0  0  0  0  0
    4.4578    1.3851    5.7851 H   0  0  0  0  0  0  0  0  0  0  0  0
    4.2893    0.3622   -0.4146 H   0  0  0  0  0  0  0  0  0  0  0  0
    5.5425   -2.4089   -0.6704 H   0  0  0  0  0  0  0  0  0  0  0  0
    6.3794   -1.6351   -2.7618 H   0  0  0  0  0  0  0  0  0  0  0  0
    5.6346   -0.0233   -2.5303 H   0  0  0  0  0  0  0  0  0  0  0  0
    3.3878   -1.0044   -2.5659 H   0  0  0  0  0  0  0  0  0  0  0  0
    4.2704   -1.2190   -4.0830 H   0  0  0  0  0  0  0  0  0  0  0  0
    1.8667   -3.2173   -2.7907 H   0  0  0  0  0  0  0  0  0  0  0  0
    2.7327   -4.1532   -4.1259 H   0  0  0  0  0  0  0  0  0  0  0  0
    7.9387   -0.6150   -1.9777 H   0  0  0  0  0  0  0  0  0  0  0  0
    8.8922    0.0777    0.8025 H   0  0  0  0  0  0  0  0  0  0  0  0
   11.0868    0.2725   -0.3666 H   0  0  0  0  0  0  0  0  0  0  0  0
   10.2872    0.1320   -1.9479 H   0  0  0  0  0  0  0  0  0  0  0  0
    9.5072   -2.1554   -1.3777 H   0  0  0  0  0  0  0  0  0  0  0  0
   11.2632   -2.0328   -1.4451 H   0  0  0  0  0  0  0  0  0  0  0  0
   10.3903   -4.3749   -0.0990 H   0  0  0  0  0  0  0  0  0  0  0  0
   10.4431   -4.1209    1.6683 H   0  0  0  0  0  0  0  0  0  0  0  0
   10.5278    2.2603    0.5868 H   0  0  0  0  0  0  0  0  0  0  0  0
    8.5597    4.4750    0.0018 H   0  0  0  0  0  0  0  0  0  0  0  0
   10.7143    5.5195   -1.1711 H   0  0  0  0  0  0  0  0  0  0  0  0
   10.4374    5.8654    0.5425 H   0  0  0  0  0  0  0  0  0  0  0  0
   12.7607    5.2387   -0.0233 H   0  0  0  0  0  0  0  0  0  0  0  0
   12.2119    3.5436   -0.4632 H   0  0  0  0  0  0  0  0  0  0  0  0
   13.8268    2.7301    1.3030 H   0  0  0  0  0  0  0  0  0  0  0  0
   13.6546    3.5099    2.9667 H   0  0  0  0  0  0  0  0  0  0  0  0
  1  2  1  0
  2  3  2  3
  2  4  1  0
  4  5  1  0
  5  6  1  0
  6  7  1  0
  7  8  1  0
  8  9  1  0
  9 10  1  0
 10 11  2  0
 10 12  1  0
 12 13  1  0
 13 14  1  0
 14 15  1  0
 15 16  1  0
 15 17  2  0
 12 18  1  0
 18 19  1  0
 19 20  2  0
 19 21  1  0
 21 22  1  0
 21 23  1  0
 23 24  1  0
 24 25  1  0
 25 26  1  0
 25 27  2  0
  8 28  1  0
 28 29  2  0
 28 30  1  0
 30 31  1  0
 31 32  1  0
 32 33  1  0
 33 34  1  0
 33 35  2  0
 31 36  1  0
 36 37  2  0
 36 38  1  0
 38 39  1  0
 39 40  1  0
 40 41  1  0
 41 42  1  0
 42 43  1  0
 42 44  2  0
 39 45  1  0
 45 46  2  0
 45 47  1  0
 47 48  1  0
 48 49  1  0
 49 50  1  0
 50 51  1  0
 51 52  1  0
 51 53  2  0
 48 54  1  0
 54 55  2  0
 54 56  1  0
 56 57  1  0
 57 58  1  0
 58 59  1  0
 59 60  1  0
 60 61  1  0
 60 62  2  0
 57 63  1  0
 63 64  2  0
 63 65  1  0
 65 66  1  0
 66 67  1  0
 67 68  1  0
 68 69  1  0
 69 70  1  0
 69 71  2  0
  1 72  1  0
  1 73  1  0
  3 74  1  0
  4 75  1  0
  5 76  1  0
  5 77  1  0
  6 78  1  0
  6 79  1  0
  7 80  1  0
  7 81  1  0
  8 82  1  6
  9 83  1  0
 12 84  1  1
 13 85  1  0
 13 86  1  0
 14 87  1  0
 14 88  1  0
 16 89  1  0
 16 90  1  0
 18 91  1  0
 21 92  1  6
 22 93  1  0
 22 94  1  0
 23 95  1  0
 23 96  1  0
 24 97  1  0
 24 98  1  0
 26 99  1  0
 26100  1  0
 30101  1  0
 31102  1  1
 32103  1  0
 32104  1  0
 34105  1  0
 34106  1  0
 38107  1  0
 39108  1  6
 40109  1  0
 40110  1  0
 41111  1  0
 41112  1  0
 43113  1  0
 43114  1  0
 47115  1  0
 48116  1  6
 49117  1  0
 49118  1  0
 50119  1  0
 50120  1  0
 52121  1  0
 52122  1  0
 56123  1  0
 57124  1  1
 58125  1  0
 58126  1  0
 59127  1  0
 59128  1  0
 61129  1  0
 61130  1  0
 65131  1  0
 66132  1  0
 67133  1  0
 67134  1  0
 68135  1  0
 68136  1  0
 70137  1  0
 70138  1  0
M  RAD  1  66   2
M  END
$$$$
[H]c1nc(N([H])[H])c([H])c(-n2c(N([H])c3c([H])c(N([H])C(=O)c4c([H])c([H])c([H])c(C(F)(F)F)c4[H])c([H])c([H])c3C([H])([H])[H])nc3c([H])c([H])c([H])c([H])c32)n1
     RDKit          3D

 57 61  0  0  0  0  0  0  0  0999 V2000
   -1.6432   -2.0416    2.7169 C   0  0  0  0  0  0  0  0  0  0  0  0
   -0.4053   -1.4867    2.0633 C   0  0  0  0  0  0  0  0  0  0  0  0
    0.8342   -1.8560    2.4707 C   0  0  0  0  0  0  0  0  0  0  0  0
    1.9648   -1.3222    1.8953 C   0  0  0  0  0  0  0  0  0  0  0  0
    1.8822   -0.3874    0.8761 C   0  0  0  0  0  0  0  0  0  0  0  0
    3.1468    0.0395    0.2902 N   0  0  0  0  0  0  0  0  0  0  0  0
    4.1825   -0.8981    0.1319 C   0  0  0  0  0  0  0  0  0  0  0  0
    3.9574   -2.1254    0.4591 O   0  0  0  0  0  0  0  0  0  0  0  0
    5.5124   -0.6686   -0.3620 C   0  0  0  0  0  0  0  0  0  0  0  0
    6.2085   -1.7268   -0.9935 C   0  0  0  0  0  0  0  0  0  0  0  0
    7.5029   -1.5976   -1.4178 C   0  0  0  0  0  0  0  0  0  0  0  0
    8.1760   -0.4198   -1.2395 C   0  0  0  0  0  0  0  0  0  0  0  0
    7.5489    0.6476   -0.6304 C   0  0  0  0  0  0  0  0  0  0  0  0
    6.2433    0.5004   -0.2105 C   0  0  0  0  0  0  0  0  0  0  0  0
    8.3554    1.8848   -0.4631 C   0  0  0  0  0  0  0  0  0  0  0  0
    9.1827    1.7204    0.6569 F   0  0  0  0  0  0  0  0  0  0  0  0
    7.6253    3.0175   -0.2734 F   0  0  0  0  0  0  0  0  0  0  0  0
    9.1307    2.1006   -1.6059 F   0  0  0  0  0  0  0  0  0  0  0  0
    0.6387    0.0017    0.4544 C   0  0  0  0  0  0  0  0  0  0  0  0
   -0.5280   -0.5230    1.0190 C   0  0  0  0  0  0  0  0  0  0  0  0
   -1.8358   -0.3085    0.6216 N   0  0  0  0  0  0  0  0  0  0  0  0
   -2.4500    0.8405    0.1121 C   0  0  0  0  0  0  0  0  0  0  0  0
   -2.0584    2.0868   -0.1661 N   0  0  0  0  0  0  0  0  0  0  0  0
   -3.0946    2.8754   -0.5621 C   0  0  0  0  0  0  0  0  0  0  0  0
   -3.2513    4.1921   -0.9126 C   0  0  0  0  0  0  0  0  0  0  0  0
   -4.4890    4.7055   -1.2275 C   0  0  0  0  0  0  0  0  0  0  0  0
   -5.6142    3.9009   -1.2026 C   0  0  0  0  0  0  0  0  0  0  0  0
   -5.4598    2.5754   -0.8527 C   0  0  0  0  0  0  0  0  0  0  0  0
   -4.1912    2.0914   -0.5358 C   0  0  0  0  0  0  0  0  0  0  0  0
   -3.8198    0.8820   -0.1403 N   0  0  0  0  0  0  0  0  0  0  0  0
   -4.6993   -0.2178    0.0100 C   0  0  0  0  0  0  0  0  0  0  0  0
   -4.7485   -1.2047   -0.9499 C   0  0  0  0  0  0  0  0  0  0  0  0
   -5.5854   -2.2820   -0.8318 C   0  0  0  0  0  0  0  0  0  0  0  0
   -5.6390   -3.3228   -1.8083 N   0  0  0  0  0  0  0  0  0  0  0  0
   -6.3867   -2.3688    0.2666 N   0  0  0  0  0  0  0  0  0  0  0  0
   -6.3356   -1.3968    1.2079 C   0  0  0  0  0  0  0  0  0  0  0  0
   -5.5174   -0.3658    1.0689 N   0  0  0  0  0  0  0  0  0  0  0  0
   -2.1040   -2.7528    2.0101 H   0  0  0  0  0  0  0  0  0  0  0  0
   -2.3603   -1.2131    2.9698 H   0  0  0  0  0  0  0  0  0  0  0  0
   -1.3766   -2.5985    3.6355 H   0  0  0  0  0  0  0  0  0  0  0  0
    0.9458   -2.5873    3.2690 H   0  0  0  0  0  0  0  0  0  0  0  0
    2.9552   -1.6055    2.2730 H   0  0  0  0  0  0  0  0  0  0  0  0
    3.2243    1.0157    0.0065 H   0  0  0  0  0  0  0  0  0  0  0  0
    5.6386   -2.6562   -1.1109 H   0  0  0  0  0  0  0  0  0  0  0  0
    8.0121   -2.4455   -1.9029 H   0  0  0  0  0  0  0  0  0  0  0  0
    9.2259   -0.3527   -1.5914 H   0  0  0  0  0  0  0  0  0  0  0  0
    5.7761    1.3585    0.2692 H   0  0  0  0  0  0  0  0  0  0  0  0
    0.5548    0.7297   -0.3343 H   0  0  0  0  0  0  0  0  0  0  0  0
   -2.4657   -1.2163    0.6894 H   0  0  0  0  0  0  0  0  0  0  0  0
   -2.3778    4.8442   -0.9514 H   0  0  0  0  0  0  0  0  0  0  0  0
   -4.6482    5.7667   -1.5019 H   0  0  0  0  0  0  0  0  0  0  0  0
   -6.6089    4.2836   -1.4481 H   0  0  0  0  0  0  0  0  0  0  0  0
   -6.3267    1.9303   -0.8277 H   0  0  0  0  0  0  0  0  0  0  0  0
   -4.1093   -1.1586   -1.8510 H   0  0  0  0  0  0  0  0  0  0  0  0
   -6.4919   -3.9111   -1.8868 H   0  0  0  0  0  0  0  0  0  0  0  0
   -4.8081   -3.4688   -2.4320 H   0  0  0  0  0  0  0  0  0  0  0  0
   -6.9953   -1.5044    2.0761 H   0  0  0  0  0  0  0  0  0  0  0  0
  1  2  1  0
  2  3  2  0
  3  4  1  0
  4  5  2  0
  5  6  1  0
  6  7  1  0
  7  8  2  0
  7  9  1  0
  9 10  2  0
 10 11  1  0
 11 12  2  0
 12 13  1  0
 13 14  2  0
 13 15  1  0
 15 16  1  0
 15 17  1  0
 15 18  1  0
  5 19  1  0
 19 20  2  0
 20 21  1  0
 21 22  1  0
 22 23  2  0
 23 24  1  0
 24 25  2  0
 25 26  1  0
 26 27  2  0
 27 28  1  0
 28 29  2  0
 29 30  1  0
 30 31  1  0
 31 32  2  0
 32 33  1  0
 33 34  1  0
 33 35  2  0
 35 36  1  0
 36 37  2  0
 20  2  1  0
 30 22  1  0
 37 31  1  0
 14  9  1  0
 29 24  1  0
  1 38  1  0
  1 39  1  0
  1 40  1  0
  3 41  1  0
  4 42  1  0
  6 43  1  0
 10 44  1  0
 11 45  1  0
 12 46  1  0
 14 47  1  0
 19 48  1  0
 21 49  1  0
 25 50  1  0
 26 51  1  0
 27 52  1  0
 28 53  1  0
 32 54  1  0
 34 55  1  0
 34 56  1  0
 36 57  1  0
M  END
$$$$
[H]C(=O)[C@@]([H])(N([H])C(=O)[C@@]1([H])N(C(=O)[C@]([H])(c2c([H])c([H])c([H])c([H])c2[H])N([H])C(=O)OC(C([H])([H])[H])(C([H])([H])[H])C([H])([H])[H])C([H])([H])C([H])([H])C1([H])[H])C([H])([H])C([H])([H])C([H])([H])N=C(N([H])[H])N([H])[H]
     RDKit          3D

 71 72  0  0  0  0  0  0  0  0999 V2000
   -7.3776    2.3135   -1.5759 C   0  0  0  0  0  0  0  0  0  0  0  0
   -6.7238    1.8800   -0.2827 C   0  0  0  0  0  0  0  0  0  0  0  0
   -6.4305    3.1378    0.5063 C   0  0  0  0  0  0  0  0  0  0  0  0
   -7.7447    1.0780    0.4976 C   0  0  0  0  0  0  0  0  0  0  0  0
   -5.5763    1.1495   -0.5862 O   0  0  0  0  0  0  0  0  0  0  0  0
   -4.7205    0.5923    0.3307 C   0  0  0  0  0  0  0  0  0  0  0  0
   -5.0264    0.7747    1.5594 O   0  0  0  0  0  0  0  0  0  0  0  0
   -3.5604   -0.1453   -0.0307 N   0  0  0  0  0  0  0  0  0  0  0  0
   -2.6598   -0.7308    0.9846 C   0  0  2  0  0  0  0  0  0  0  0  0
   -1.2889   -0.2085    0.7865 C   0  0  0  0  0  0  0  0  0  0  0  0
   -1.1562    0.5842   -0.2198 O   0  0  0  0  0  0  0  0  0  0  0  0
   -0.1532   -0.4943    1.5814 N   0  0  0  0  0  0  0  0  0  0  0  0
   -0.1673   -1.3603    2.7366 C   0  0  0  0  0  0  0  0  0  0  0  0
    1.0638   -0.9556    3.5438 C   0  0  0  0  0  0  0  0  0  0  0  0
    2.0387   -0.6086    2.4530 C   0  0  0  0  0  0  0  0  0  0  0  0
    1.1834    0.0184    1.3982 C   0  0  1  0  0  0  0  0  0  0  0  0
    1.7704   -0.3174    0.0864 C   0  0  0  0  0  0  0  0  0  0  0  0
    1.1744   -0.9991   -0.7879 O   0  0  0  0  0  0  0  0  0  0  0  0
    3.0542    0.1376   -0.2178 N   0  0  0  0  0  0  0  0  0  0  0  0
    3.7708   -0.0983   -1.4516 C   0  0  1  0  0  0  0  0  0  0  0  0
    3.9303    1.1619   -2.2032 C   0  0  0  0  0  0  0  0  0  0  0  0
    4.6479    2.2898   -1.5861 C   0  0  0  0  0  0  0  0  0  0  0  0
    6.0875    2.0200   -1.2157 C   0  0  0  0  0  0  0  0  0  0  0  0
    6.8798    1.6492   -2.3589 N   0  0  0  0  0  0  0  0  0  0  0  0
    8.0884    1.2229   -2.2090 C   0  0  0  0  0  0  0  0  0  0  0  0
    8.7082    1.0917   -0.9410 N   0  0  0  0  0  0  0  0  0  0  0  0
    8.8706    0.8578   -3.3463 N   0  0  0  0  0  0  0  0  0  0  0  0
    4.9301   -0.9782   -1.3273 C   0  0  0  0  0  0  0  0  0  0  0  0
    5.2907   -1.5169   -0.2684 O   0  0  0  0  0  0  0  0  0  0  0  0
   -2.7318   -2.2143    0.8123 C   0  0  0  0  0  0  0  0  0  0  0  0
   -2.5323   -2.8349   -0.4051 C   0  0  0  0  0  0  0  0  0  0  0  0
   -2.6331   -4.1937   -0.5298 C   0  0  0  0  0  0  0  0  0  0  0  0
   -2.9399   -4.9992    0.5643 C   0  0  0  0  0  0  0  0  0  0  0  0
   -3.1367   -4.3812    1.7682 C   0  0  0  0  0  0  0  0  0  0  0  0
   -3.0342   -3.0009    1.8944 C   0  0  0  0  0  0  0  0  0  0  0  0
   -6.5940    2.3285   -2.3604 H   0  0  0  0  0  0  0  0  0  0  0  0
   -7.7987    3.3404   -1.4837 H   0  0  0  0  0  0  0  0  0  0  0  0
   -8.1569    1.5690   -1.8533 H   0  0  0  0  0  0  0  0  0  0  0  0
   -5.5984    3.7210    0.0496 H   0  0  0  0  0  0  0  0  0  0  0  0
   -6.2530    2.9301    1.5864 H   0  0  0  0  0  0  0  0  0  0  0  0
   -7.3296    3.7848    0.4556 H   0  0  0  0  0  0  0  0  0  0  0  0
   -7.5571    1.1174    1.5913 H   0  0  0  0  0  0  0  0  0  0  0  0
   -7.8385    0.0361    0.1246 H   0  0  0  0  0  0  0  0  0  0  0  0
   -8.7296    1.5629    0.3414 H   0  0  0  0  0  0  0  0  0  0  0  0
   -3.3650   -0.2588   -1.0466 H   0  0  0  0  0  0  0  0  0  0  0  0
   -3.0900   -0.4837    1.9505 H   0  0  0  0  0  0  0  0  0  0  0  0
   -0.0441   -2.4231    2.4185 H   0  0  0  0  0  0  0  0  0  0  0  0
   -1.0156   -1.1906    3.4249 H   0  0  0  0  0  0  0  0  0  0  0  0
    1.4684   -1.7725    4.1489 H   0  0  0  0  0  0  0  0  0  0  0  0
    0.8785   -0.0411    4.1402 H   0  0  0  0  0  0  0  0  0  0  0  0
    2.8267    0.0924    2.8255 H   0  0  0  0  0  0  0  0  0  0  0  0
    2.4959   -1.5350    2.0287 H   0  0  0  0  0  0  0  0  0  0  0  0
    1.1273    1.1368    1.5205 H   0  0  0  0  0  0  0  0  0  0  0  0
    3.5774    0.7067    0.4907 H   0  0  0  0  0  0  0  0  0  0  0  0
    3.0156   -0.7012   -2.0688 H   0  0  0  0  0  0  0  0  0  0  0  0
    2.8876    1.5146   -2.4698 H   0  0  0  0  0  0  0  0  0  0  0  0
    4.3874    0.9689   -3.2137 H   0  0  0  0  0  0  0  0  0  0  0  0
    4.7098    3.1000   -2.3767 H   0  0  0  0  0  0  0  0  0  0  0  0
    4.0976    2.7928   -0.7587 H   0  0  0  0  0  0  0  0  0  0  0  0
    6.5430    2.9136   -0.7152 H   0  0  0  0  0  0  0  0  0  0  0  0
    6.1110    1.2249   -0.4555 H   0  0  0  0  0  0  0  0  0  0  0  0
    8.9600    0.1501   -0.5834 H   0  0  0  0  0  0  0  0  0  0  0  0
    8.9182    1.9194   -0.3574 H   0  0  0  0  0  0  0  0  0  0  0  0
    9.5464    1.4814   -3.8133 H   0  0  0  0  0  0  0  0  0  0  0  0
    8.7398   -0.1056   -3.7196 H   0  0  0  0  0  0  0  0  0  0  0  0
    5.5636   -1.2212   -2.1748 H   0  0  0  0  0  0  0  0  0  0  0  0
   -2.2943   -2.1946   -1.2488 H   0  0  0  0  0  0  0  0  0  0  0  0
   -2.4792   -4.6954   -1.4789 H   0  0  0  0  0  0  0  0  0  0  0  0
   -3.0217   -6.0833    0.4686 H   0  0  0  0  0  0  0  0  0  0  0  0
   -3.3767   -4.9943    2.6301 H   0  0  0  0  0  0  0  0  0  0  0  0
   -3.2078   -2.6128    2.8880 H   0  0  0  0  0  0  0  0  0  0  0  0
  1  2  1  0
  2  3  1  0
  2  4  1  0
  2  5  1  0
  5  6  1  0
  6  7  2  0
  6  8  1  0
  8  9  1  0
  9 10  1  0
 10 11  2  0
 10 12  1  0
 12 13  1  0
 13 14  1  0
 14 15  1  0
 15 16  1  0
 16 17  1  0
 17 18  2  0
 17 19  1  0
 19 20  1  0
 20 21  1  0
 21 22  1  0
 22 23  1  0
 23 24  1  0
 24 25  2  3
 25 26  1  0
 25 27  1  0
 20 28  1  0
 28 29  2  0
  9 30  1  0
 30 31  2  0
 31 32  1  0
 32 33  2  0
 33 34  1  0
 34 35  2  0
 16 12  1  0
 35 30  1  0
  1 36  1  0
  1 37  1  0
  1 38  1  0
  3 39  1  0
  3 40  1  0
  3 41  1  0
  4 42  1  0
  4 43  1  0
  4 44  1  0
  8 45  1  0
  9 46  1  1
 13 47  1  0
 13 48  1  0
 14 49  1  0
 14 50  1  0
 15 51  1  0
 15 52  1  0
 16 53  1  1
 19 54  1  0
 20 55  1  6
 21 56  1  0
 21 57  1  0
 22 58  1  0
 22 59  1  0
 23 60  1  0
 23 61  1  0
 26 62  1  0
 26 63  1  0
 27 64  1  0
 27 65  1  0
 28 66  1  0
 31 67  1  0
 32 68  1  0
 33 69  1  0
 34 70  1  0
 35 71  1  0
M  END
$$$$
[H]C1=C([H])C2(c3c([H])c([H])c([H])c([H])c31)C([H])([H])C([H])([H])N(S(=O)(=O)C([H])([H])[C@@]13C(=O)O[C@@]([H])(C([H])([H])C1([H])[H])C3(C([H])([H])[H])C([H])([H])[H])C([H])([H])C2([H])[H]
     RDKit          3D

 55 59  0  0  0  0  0  0  0  0999 V2000
   -4.3656   -0.6360   -1.7835 C   0  0  0  0  0  0  0  0  0  0  0  0
   -3.7709    0.1701   -0.6597 C   0  0  0  0  0  0  0  0  0  0  0  0
   -3.1713    1.4213   -1.1558 C   0  0  0  0  0  0  0  0  0  0  0  0
   -4.9698    0.6321    0.2033 C   0  0  2  0  0  0  0  0  0  0  0  0
   -4.2602    1.1344    1.4197 C   0  0  0  0  0  0  0  0  0  0  0  0
   -2.9340    0.3450    1.5043 C   0  0  0  0  0  0  0  0  0  0  0  0
   -3.1144   -0.6145    0.3880 C   0  0  2  0  0  0  0  0  0  0  0  0
   -2.1845   -1.6535    0.0996 C   0  0  0  0  0  0  0  0  0  0  0  0
   -0.6971   -1.6040   -0.7262 S   0  0  0  0  0  0  0  0  0  0  0  0
   -0.9071   -1.3653   -2.2557 O   0  0  0  0  0  0  0  0  0  0  0  0
   -0.2196   -3.0900   -0.7797 O   0  0  0  0  0  0  0  0  0  0  0  0
    0.6153   -0.7402   -0.2213 N   0  0  0  0  0  0  0  0  0  0  0  0
    0.4783    0.6611   -0.1421 C   0  0  0  0  0  0  0  0  0  0  0  0
    1.8588    1.3484   -0.2720 C   0  0  0  0  0  0  0  0  0  0  0  0
    2.8749    0.7415    0.6712 C   0  0  0  0  0  0  0  0  0  0  0  0
    2.2002   -0.2396    1.5682 C   0  0  0  0  0  0  0  0  0  0  0  0
    1.4256   -1.2623    0.8288 C   0  0  0  0  0  0  0  0  0  0  0  0
    3.4899    1.8367    1.4688 C   0  0  0  0  0  0  0  0  0  0  0  0
    4.7641    1.8947    1.2765 C   0  0  0  0  0  0  0  0  0  0  0  0
    5.1303    0.8466    0.3266 C   0  0  0  0  0  0  0  0  0  0  0  0
    6.3556    0.4765   -0.2288 C   0  0  0  0  0  0  0  0  0  0  0  0
    6.5091   -0.5438   -1.1323 C   0  0  0  0  0  0  0  0  0  0  0  0
    5.3837   -1.2379   -1.5081 C   0  0  0  0  0  0  0  0  0  0  0  0
    4.1491   -0.8831   -0.9641 C   0  0  0  0  0  0  0  0  0  0  0  0
    4.0158    0.1488   -0.0533 C   0  0  0  0  0  0  0  0  0  0  0  0
   -4.3769   -1.3792    0.8936 C   0  0  0  0  0  0  0  0  0  0  0  0
   -4.3837   -2.4494    1.5157 O   0  0  0  0  0  0  0  0  0  0  0  0
   -5.4816   -0.6435    0.5199 O   0  0  0  0  0  0  0  0  0  0  0  0
   -5.4026   -0.9607   -1.5600 H   0  0  0  0  0  0  0  0  0  0  0  0
   -4.4336   -0.0487   -2.7310 H   0  0  0  0  0  0  0  0  0  0  0  0
   -3.7747   -1.5610   -1.9115 H   0  0  0  0  0  0  0  0  0  0  0  0
   -2.6051    1.9851   -0.4119 H   0  0  0  0  0  0  0  0  0  0  0  0
   -4.0211    2.1022   -1.4663 H   0  0  0  0  0  0  0  0  0  0  0  0
   -2.5891    1.2932   -2.1158 H   0  0  0  0  0  0  0  0  0  0  0  0
   -5.6230    1.3046   -0.3018 H   0  0  0  0  0  0  0  0  0  0  0  0
   -4.0606    2.2239    1.3848 H   0  0  0  0  0  0  0  0  0  0  0  0
   -4.8543    0.8852    2.3115 H   0  0  0  0  0  0  0  0  0  0  0  0
   -2.1318    1.0533    1.4748 H   0  0  0  0  0  0  0  0  0  0  0  0
   -2.9263   -0.2647    2.4570 H   0  0  0  0  0  0  0  0  0  0  0  0
   -2.7816   -2.5079   -0.4112 H   0  0  0  0  0  0  0  0  0  0  0  0
   -1.9802   -2.1879    1.1064 H   0  0  0  0  0  0  0  0  0  0  0  0
    0.0599    1.0322    0.8095 H   0  0  0  0  0  0  0  0  0  0  0  0
   -0.1057    1.0946   -0.9691 H   0  0  0  0  0  0  0  0  0  0  0  0
    2.2002    1.3526   -1.3061 H   0  0  0  0  0  0  0  0  0  0  0  0
    1.6733    2.3971    0.0332 H   0  0  0  0  0  0  0  0  0  0  0  0
    1.4580    0.3356    2.2077 H   0  0  0  0  0  0  0  0  0  0  0  0
    2.9133   -0.7597    2.2516 H   0  0  0  0  0  0  0  0  0  0  0  0
    2.0004   -2.1290    0.4431 H   0  0  0  0  0  0  0  0  0  0  0  0
    0.6662   -1.6679    1.5959 H   0  0  0  0  0  0  0  0  0  0  0  0
    2.9010    2.4762    2.1135 H   0  0  0  0  0  0  0  0  0  0  0  0
    5.5133    2.5722    1.7040 H   0  0  0  0  0  0  0  0  0  0  0  0
    7.2413    1.0257    0.0692 H   0  0  0  0  0  0  0  0  0  0  0  0
    7.4514   -0.8317   -1.5619 H   0  0  0  0  0  0  0  0  0  0  0  0
    5.4743   -2.0530   -2.2241 H   0  0  0  0  0  0  0  0  0  0  0  0
    3.3235   -1.4765   -1.3295 H   0  0  0  0  0  0  0  0  0  0  0  0
  1  2  1  0
  2  3  1  0
  2  4  1  0
  4  5  1  0
  5  6  1  0
  6  7  1  0
  7  8  1  6
  8  9  1  0
  9 10  2  0
  9 11  2  0
  9 12  1  0
 12 13  1  0
 13 14  1  0
 14 15  1  0
 15 16  1  0
 16 17  1  0
 15 18  1  0
 18 19  2  0
 19 20  1  0
 20 21  2  0
 21 22  1  0
 22 23  2  0
 23 24  1  0
 24 25  2  0
  7 26  1  0
 26 27  2  0
 26 28  1  0
  7  2  1  0
 17 12  1  0
 25 20  1  0
 28  4  1  0
 25 15  1  0
  1 29  1  0
  1 30  1  0
  1 31  1  0
  3 32  1  0
  3 33  1  0
  3 34  1  0
  4 35  1  6
  5 36  1  0
  5 37  1  0
  6 38  1  0
  6 39  1  0
  8 40  1  0
  8 41  1  0
 13 42  1  0
 13 43  1  0
 14 44  1  0
 14 45  1  0
 16 46  1  0
 16 47  1  0
 17 48  1  0
 17 49  1  0
 18 50  1  0
 19 51  1  0
 21 52  1  0
 22 53  1  0
 23 54  1  0
 24 55  1  0
M  END
$$$$
[H]c1c([H])c(C(=O)N([H])c2nc3c(C4([H])C([H])([H])C([H])([H])N(C([H])([H])[H])C([H])([H])C4([H])[H])c([H])n([H])c3c([H])c2[H])c([H])c([H])c1Cl
     RDKit          3D

 47 50  0  0  0  0  0  0  0  0999 V2000
   -5.8570   -0.5066    0.6270 C   0  0  0  0  0  0  0  0  0  0  0  0
   -4.7061   -1.3023    0.9868 N   0  0  0  0  0  0  0  0  0  0  0  0
   -4.3866   -2.3077    0.0336 C   0  0  0  0  0  0  0  0  0  0  0  0
   -3.4701   -1.8522   -1.0769 C   0  0  0  0  0  0  0  0  0  0  0  0
   -2.2077   -1.1977   -0.5621 C   0  0  0  0  0  0  0  0  0  0  0  0
   -2.2626   -1.0738    0.9569 C   0  0  0  0  0  0  0  0  0  0  0  0
   -3.5827   -0.5073    1.4120 C   0  0  0  0  0  0  0  0  0  0  0  0
   -1.9409    0.1161   -1.1879 C   0  0  0  0  0  0  0  0  0  0  0  0
   -2.7933    0.9325   -1.8589 C   0  0  0  0  0  0  0  0  0  0  0  0
   -2.1438    2.0648   -2.2379 N   0  0  0  0  0  0  0  0  0  0  0  0
   -0.8713    2.0125   -1.8295 C   0  0  0  0  0  0  0  0  0  0  0  0
    0.2192    2.8418   -1.9337 C   0  0  0  0  0  0  0  0  0  0  0  0
    1.4152    2.4142   -1.3713 C   0  0  0  0  0  0  0  0  0  0  0  0
    1.5524    1.2264   -0.7294 C   0  0  0  0  0  0  0  0  0  0  0  0
    2.7416    0.7476   -0.1463 N   0  0  0  0  0  0  0  0  0  0  0  0
    3.9993    1.3495   -0.0627 C   0  0  0  0  0  0  0  0  0  0  0  0
    4.2930    2.4841   -0.4950 O   0  0  0  0  0  0  0  0  0  0  0  0
    5.0706    0.5737    0.5952 C   0  0  0  0  0  0  0  0  0  0  0  0
    6.0781    1.1483    1.3261 C   0  0  0  0  0  0  0  0  0  0  0  0
    7.0635    0.4072    1.9407 C   0  0  0  0  0  0  0  0  0  0  0  0
    7.0635   -0.9865    1.8351 C   0  0  0  0  0  0  0  0  0  0  0  0
    8.2736   -1.9684    2.5983 Cl  0  0  0  0  0  0  0  0  0  0  0  0
    6.0464   -1.5601    1.0972 C   0  0  0  0  0  0  0  0  0  0  0  0
    5.0694   -0.8004    0.4888 C   0  0  0  0  0  0  0  0  0  0  0  0
    0.4451    0.4252   -0.6422 N   0  0  0  0  0  0  0  0  0  0  0  0
   -0.7145    0.8061   -1.1706 C   0  0  0  0  0  0  0  0  0  0  0  0
   -5.8359    0.4523    1.1770 H   0  0  0  0  0  0  0  0  0  0  0  0
   -5.9345   -0.2704   -0.4438 H   0  0  0  0  0  0  0  0  0  0  0  0
   -6.8258   -1.0155    0.9149 H   0  0  0  0  0  0  0  0  0  0  0  0
   -3.8959   -3.1601    0.5529 H   0  0  0  0  0  0  0  0  0  0  0  0
   -5.3397   -2.6282   -0.4541 H   0  0  0  0  0  0  0  0  0  0  0  0
   -4.0162   -1.2325   -1.7847 H   0  0  0  0  0  0  0  0  0  0  0  0
   -3.2227   -2.8046   -1.6404 H   0  0  0  0  0  0  0  0  0  0  0  0
   -1.3654   -1.8666   -0.7868 H   0  0  0  0  0  0  0  0  0  0  0  0
   -2.1608   -2.0845    1.3907 H   0  0  0  0  0  0  0  0  0  0  0  0
   -1.4390   -0.4062    1.2553 H   0  0  0  0  0  0  0  0  0  0  0  0
   -3.5843   -0.4906    2.5163 H   0  0  0  0  0  0  0  0  0  0  0  0
   -3.7189    0.5540    1.0794 H   0  0  0  0  0  0  0  0  0  0  0  0
   -3.8559    0.7503   -2.0819 H   0  0  0  0  0  0  0  0  0  0  0  0
   -2.5446    2.8670   -2.7622 H   0  0  0  0  0  0  0  0  0  0  0  0
    0.1902    3.7963   -2.4298 H   0  0  0  0  0  0  0  0  0  0  0  0
    2.2557    3.0892   -1.4751 H   0  0  0  0  0  0  0  0  0  0  0  0
    2.6809   -0.2324    0.2881 H   0  0  0  0  0  0  0  0  0  0  0  0
    6.0524    2.2476    1.3907 H   0  0  0  0  0  0  0  0  0  0  0  0
    7.8386    0.8698    2.5071 H   0  0  0  0  0  0  0  0  0  0  0  0
    6.0304   -2.6369    1.0067 H   0  0  0  0  0  0  0  0  0  0  0  0
    4.2970   -1.2850   -0.0877 H   0  0  0  0  0  0  0  0  0  0  0  0
  1  2  1  0
  2  3  1  0
  3  4  1  0
  4  5  1  0
  5  6  1  0
  6  7  1  0
  5  8  1  0
  8  9  2  0
  9 10  1  0
 10 11  1  0
 11 12  2  0
 12 13  1  0
 13 14  2  0
 14 15  1  0
 15 16  1  0
 16 17  2  0
 16 18  1  0
 18 19  2  0
 19 20  1  0
 20 21  2  0
 21 22  1  0
 21 23  1  0
 23 24  2  0
 14 25  1  0
 25 26  2  0
  7  2  1  0
 26  8  1  0
 26 11  1  0
 24 18  1  0
  1 27  1  0
  1 28  1  0
  1 29  1  0
  3 30  1  0
  3 31  1  0
  4 32  1  0
  4 33  1  0
  5 34  1  0
  6 35  1  0
  6 36  1  0
  7 37  1  0
  7 38  1  0
  9 39  1  0
 10 40  1  0
 12 41  1  0
 13 42  1  0
 15 43  1  0
 19 44  1  0
 20 45  1  0
 23 46  1  0
 24 47  1  0
M  END
$$$$
[H]ON(C([H])=O)C([H])([H])[C@]([H])(C(=O)N1C([H])([H])C([H])([H])C([H])([H])[C@@]1([H])C(=O)N1C([H])([H])C([H])([H])C([H])([H])[C@@]1([H])C(=O)N([H])C1([H])C([H])([H])C1([H])[H])C([H])([H])C1([H])C([H])([H])C([H])([H])C([H])([H])C1([H])[H]
     RDKit          3D

 68 71  0  0  0  0  0  0  0  0999 V2000
   -2.4841   -0.8255   -2.5554 O   0  0  0  0  0  0  0  0  0  0  0  0
   -2.4299    0.3789   -1.8543 N   0  0  0  0  0  0  0  0  0  0  0  0
   -1.4864    0.5186   -0.7972 C   0  0  0  0  0  0  0  0  0  0  0  0
   -1.8611    0.0917    0.5461 C   0  0  1  0  0  0  0  0  0  0  0  0
   -2.9211    0.7146    1.3434 C   0  0  0  0  0  0  0  0  0  0  0  0
   -2.7999    2.0958    1.8283 C   0  0  0  0  0  0  0  0  0  0  0  0
   -2.6467    3.2431    0.9187 C   0  0  0  0  0  0  0  0  0  0  0  0
   -2.8156    4.4147    1.9297 C   0  0  0  0  0  0  0  0  0  0  0  0
   -4.0096    3.9443    2.7339 C   0  0  0  0  0  0  0  0  0  0  0  0
   -4.1470    2.4555    2.5059 C   0  0  0  0  0  0  0  0  0  0  0  0
   -2.0018   -1.4022    0.5454 C   0  0  0  0  0  0  0  0  0  0  0  0
   -3.2189   -1.8035    0.4486 O   0  0  0  0  0  0  0  0  0  0  0  0
   -0.9325   -2.2874    0.6402 N   0  0  0  0  0  0  0  0  0  0  0  0
   -1.1238   -3.7247    0.6428 C   0  0  0  0  0  0  0  0  0  0  0  0
    0.1117   -4.2363    1.3568 C   0  0  0  0  0  0  0  0  0  0  0  0
    0.7593   -2.9890    1.9406 C   0  0  0  0  0  0  0  0  0  0  0  0
    0.4498   -2.0239    0.7808 C   0  0  1  0  0  0  0  0  0  0  0  0
    1.2095   -2.3990   -0.4223 C   0  0  0  0  0  0  0  0  0  0  0  0
    0.6182   -2.9946   -1.3526 O   0  0  0  0  0  0  0  0  0  0  0  0
    2.5956   -2.1237   -0.6033 N   0  0  0  0  0  0  0  0  0  0  0  0
    3.3313   -2.5257   -1.7973 C   0  0  0  0  0  0  0  0  0  0  0  0
    4.5730   -3.1384   -1.1305 C   0  0  0  0  0  0  0  0  0  0  0  0
    4.8155   -2.2026    0.0296 C   0  0  0  0  0  0  0  0  0  0  0  0
    3.5284   -1.4403    0.2309 C   0  0  1  0  0  0  0  0  0  0  0  0
    3.7913   -0.0267   -0.1944 C   0  0  0  0  0  0  0  0  0  0  0  0
    4.7101    0.5591    0.4633 O   0  0  0  0  0  0  0  0  0  0  0  0
    3.1166    0.6456   -1.2187 N   0  0  0  0  0  0  0  0  0  0  0  0
    3.4451    1.9986   -1.5492 C   0  0  0  0  0  0  0  0  0  0  0  0
    2.2086    2.9235   -1.6660 C   0  0  0  0  0  0  0  0  0  0  0  0
    3.0678    2.6105   -2.8362 C   0  0  0  0  0  0  0  0  0  0  0  0
   -3.3427    1.3354   -2.2669 C   0  0  0  0  0  0  0  0  0  0  0  0
   -4.1852    1.0880   -3.2212 O   0  0  0  0  0  0  0  0  0  0  0  0
   -3.4336   -1.1142   -2.6111 H   0  0  0  0  0  0  0  0  0  0  0  0
   -1.0987    1.5748   -0.8572 H   0  0  0  0  0  0  0  0  0  0  0  0
   -0.5835   -0.0838   -1.1177 H   0  0  0  0  0  0  0  0  0  0  0  0
   -0.9017    0.2284    1.1857 H   0  0  0  0  0  0  0  0  0  0  0  0
   -3.9483    0.5999    0.8842 H   0  0  0  0  0  0  0  0  0  0  0  0
   -3.0328    0.0668    2.2830 H   0  0  0  0  0  0  0  0  0  0  0  0
   -2.0468    2.1692    2.6835 H   0  0  0  0  0  0  0  0  0  0  0  0
   -1.6700    3.4160    0.4706 H   0  0  0  0  0  0  0  0  0  0  0  0
   -3.5105    3.2937    0.2153 H   0  0  0  0  0  0  0  0  0  0  0  0
   -1.9029    4.3831    2.5542 H   0  0  0  0  0  0  0  0  0  0  0  0
   -2.9624    5.3618    1.4157 H   0  0  0  0  0  0  0  0  0  0  0  0
   -4.8882    4.5176    2.4310 H   0  0  0  0  0  0  0  0  0  0  0  0
   -3.8137    4.1482    3.8173 H   0  0  0  0  0  0  0  0  0  0  0  0
   -4.2841    1.8771    3.4168 H   0  0  0  0  0  0  0  0  0  0  0  0
   -4.9331    2.3091    1.7422 H   0  0  0  0  0  0  0  0  0  0  0  0
   -1.2144   -4.1013   -0.3860 H   0  0  0  0  0  0  0  0  0  0  0  0
   -2.0472   -3.9903    1.2379 H   0  0  0  0  0  0  0  0  0  0  0  0
    0.7602   -4.7237    0.6328 H   0  0  0  0  0  0  0  0  0  0  0  0
   -0.2079   -4.9384    2.1353 H   0  0  0  0  0  0  0  0  0  0  0  0
    1.8028   -3.1056    2.1604 H   0  0  0  0  0  0  0  0  0  0  0  0
    0.2207   -2.5950    2.8146 H   0  0  0  0  0  0  0  0  0  0  0  0
    0.6835   -0.9794    1.1019 H   0  0  0  0  0  0  0  0  0  0  0  0
    3.7101   -1.6710   -2.3655 H   0  0  0  0  0  0  0  0  0  0  0  0
    2.7894   -3.2752   -2.3879 H   0  0  0  0  0  0  0  0  0  0  0  0
    5.4401   -3.0955   -1.7899 H   0  0  0  0  0  0  0  0  0  0  0  0
    4.3159   -4.1592   -0.8068 H   0  0  0  0  0  0  0  0  0  0  0  0
    4.9753   -2.8272    0.9484 H   0  0  0  0  0  0  0  0  0  0  0  0
    5.6840   -1.5340   -0.1224 H   0  0  0  0  0  0  0  0  0  0  0  0
    3.2242   -1.4463    1.3061 H   0  0  0  0  0  0  0  0  0  0  0  0
    2.3593    0.1765   -1.7566 H   0  0  0  0  0  0  0  0  0  0  0  0
    4.2639    2.4765   -0.9487 H   0  0  0  0  0  0  0  0  0  0  0  0
    2.2579    3.9145   -1.2163 H   0  0  0  0  0  0  0  0  0  0  0  0
    1.2076    2.4468   -1.5815 H   0  0  0  0  0  0  0  0  0  0  0  0
    2.5970    2.0304   -3.6308 H   0  0  0  0  0  0  0  0  0  0  0  0
    3.7389    3.4339   -3.1880 H   0  0  0  0  0  0  0  0  0  0  0  0
   -3.4767    2.3410   -1.8911 H   0  0  0  0  0  0  0  0  0  0  0  0
  1  2  1  0
  2  3  1  0
  3  4  1  0
  4  5  1  0
  5  6  1  0
  6  7  1  0
  7  8  1  0
  8  9  1  0
  9 10  1  0
  4 11  1  0
 11 12  2  0
 11 13  1  0
 13 14  1  0
 14 15  1  0
 15 16  1  0
 16 17  1  0
 17 18  1  0
 18 19  2  0
 18 20  1  0
 20 21  1  0
 21 22  1  0
 22 23  1  0
 23 24  1  0
 24 25  1  0
 25 26  2  0
 25 27  1  0
 27 28  1  0
 28 29  1  0
 29 30  1  0
  2 31  1  0
 31 32  2  0
 10  6  1  0
 17 13  1  0
 24 20  1  0
 30 28  1  0
  1 33  1  0
  3 34  1  0
  3 35  1  0
  4 36  1  1
  5 37  1  0
  5 38  1  0
  6 39  1  0
  7 40  1  0
  7 41  1  0
  8 42  1  0
  8 43  1  0
  9 44  1  0
  9 45  1  0
 10 46  1  0
 10 47  1  0
 14 48  1  0
 14 49  1  0
 15 50  1  0
 15 51  1  0
 16 52  1  0
 16 53  1  0
 17 54  1  1
 21 55  1  0
 21 56  1  0
 22 57  1  0
 22 58  1  0
 23 59  1  0
 23 60  1  0
 24 61  1  1
 27 62  1  0
 28 63  1  0
 29 64  1  0
 29 65  1  0
 30 66  1  0
 30 67  1  0
 31 68  1  0
M  END
$$$$
[H]c1c([H])c(O[C@]2([H])C([H])([H])[C@@]3([H])N([C@@]([H])(c4c([H])c([H])c(C#N)c([H])c4[H])C([H])([H])[H])[C@]([H])(C([H])([H])C3([H])[H])C2([H])[H])c([H])c(C(F)(F)F)c1[H]
     RDKit          3D

 52 55  0  0  0  0  0  0  0  0999 V2000
   -3.3227   -2.2593    1.0190 C   0  0  0  0  0  0  0  0  0  0  0  0
   -2.3797   -1.0090    1.0252 C   0  0  1  0  0  0  0  0  0  0  0  0
   -1.5098   -1.0650   -0.0282 N   0  0  0  0  0  0  0  0  0  0  0  0
   -0.6903   -2.1204   -0.3875 C   0  0  1  0  0  0  0  0  0  0  0  0
   -0.9829   -2.0640   -1.9445 C   0  0  0  0  0  0  0  0  0  0  0  0
   -0.5866   -0.5930   -2.1238 C   0  0  0  0  0  0  0  0  0  0  0  0
   -1.0619    0.0193   -0.7798 C   0  0  2  0  0  0  0  0  0  0  0  0
    0.1713    0.5670   -0.1210 C   0  0  0  0  0  0  0  0  0  0  0  0
    1.1663   -0.5565    0.2110 C   0  0  1  0  0  0  0  0  0  0  0  0
    0.7653   -1.8696   -0.3104 C   0  0  0  0  0  0  0  0  0  0  0  0
    2.3762   -0.1042   -0.2855 O   0  0  0  0  0  0  0  0  0  0  0  0
    3.5548    0.1449    0.3212 C   0  0  0  0  0  0  0  0  0  0  0  0
    3.7651   -0.2017    1.6229 C   0  0  0  0  0  0  0  0  0  0  0  0
    4.9922    0.0832    2.2288 C   0  0  0  0  0  0  0  0  0  0  0  0
    5.9977    0.7094    1.5321 C   0  0  0  0  0  0  0  0  0  0  0  0
    5.7700    1.0474    0.2284 C   0  0  0  0  0  0  0  0  0  0  0  0
    4.5897    0.7851   -0.3918 C   0  0  0  0  0  0  0  0  0  0  0  0
    6.8586    1.7756   -0.5025 C   0  0  0  0  0  0  0  0  0  0  0  0
    7.4309    1.0016   -1.4722 F   0  0  0  0  0  0  0  0  0  0  0  0
    7.8131    2.2283    0.3751 F   0  0  0  0  0  0  0  0  0  0  0  0
    6.2662    2.9317   -1.0497 F   0  0  0  0  0  0  0  0  0  0  0  0
   -3.3714    0.1462    0.8988 C   0  0  0  0  0  0  0  0  0  0  0  0
   -4.6470   -0.1048    0.4430 C   0  0  0  0  0  0  0  0  0  0  0  0
   -5.6048    0.8759    0.2346 C   0  0  0  0  0  0  0  0  0  0  0  0
   -5.2241    2.1818    0.5068 C   0  0  0  0  0  0  0  0  0  0  0  0
   -3.9672    2.4908    0.9664 C   0  0  0  0  0  0  0  0  0  0  0  0
   -3.0754    1.4453    1.1490 C   0  0  0  0  0  0  0  0  0  0  0  0
   -6.2112    3.1932    0.2479 C   0  0  0  0  0  0  0  0  0  0  0  0
   -6.9939    4.0110   -0.0075 N   0  0  0  0  0  0  0  0  0  0  0  0
   -2.6968   -3.1056    1.4726 H   0  0  0  0  0  0  0  0  0  0  0  0
   -3.6542   -2.5023    0.0145 H   0  0  0  0  0  0  0  0  0  0  0  0
   -4.0948   -2.0555    1.7698 H   0  0  0  0  0  0  0  0  0  0  0  0
   -1.9513   -0.9711    1.9882 H   0  0  0  0  0  0  0  0  0  0  0  0
   -1.0093   -3.1579   -0.1050 H   0  0  0  0  0  0  0  0  0  0  0  0
   -0.3356   -2.7508   -2.4758 H   0  0  0  0  0  0  0  0  0  0  0  0
   -2.0543   -2.1138   -2.1185 H   0  0  0  0  0  0  0  0  0  0  0  0
    0.4861   -0.5496   -2.2398 H   0  0  0  0  0  0  0  0  0  0  0  0
   -1.1447   -0.1472   -2.9840 H   0  0  0  0  0  0  0  0  0  0  0  0
   -1.7758    0.7744   -1.0670 H   0  0  0  0  0  0  0  0  0  0  0  0
    0.6234    1.3240   -0.8149 H   0  0  0  0  0  0  0  0  0  0  0  0
   -0.1006    1.0844    0.8031 H   0  0  0  0  0  0  0  0  0  0  0  0
    1.2802   -0.5816    1.3369 H   0  0  0  0  0  0  0  0  0  0  0  0
    1.2979   -2.1298   -1.2637 H   0  0  0  0  0  0  0  0  0  0  0  0
    1.1664   -2.6515    0.4092 H   0  0  0  0  0  0  0  0  0  0  0  0
    2.9974   -0.6913    2.2390 H   0  0  0  0  0  0  0  0  0  0  0  0
    5.1018   -0.2028    3.2508 H   0  0  0  0  0  0  0  0  0  0  0  0
    6.9581    0.9230    2.0235 H   0  0  0  0  0  0  0  0  0  0  0  0
    4.4242    1.0640   -1.4213 H   0  0  0  0  0  0  0  0  0  0  0  0
   -5.0055   -1.1042    0.2305 H   0  0  0  0  0  0  0  0  0  0  0  0
   -6.6220    0.6192   -0.1293 H   0  0  0  0  0  0  0  0  0  0  0  0
   -3.6708    3.5243    1.1784 H   0  0  0  0  0  0  0  0  0  0  0  0
   -2.1081    1.7118    1.5391 H   0  0  0  0  0  0  0  0  0  0  0  0
  1  2  1  0
  2  3  1  0
  3  4  1  0
  4  5  1  0
  5  6  1  0
  6  7  1  0
  7  8  1  0
  8  9  1  0
  9 10  1  0
  9 11  1  0
 11 12  1  0
 12 13  2  0
 13 14  1  0
 14 15  2  0
 15 16  1  0
 16 17  2  0
 16 18  1  0
 18 19  1  0
 18 20  1  0
 18 21  1  0
  2 22  1  0
 22 23  2  0
 23 24  1  0
 24 25  2  0
 25 26  1  0
 26 27  2  0
 25 28  1  0
 28 29  3  0
  7  3  1  0
 17 12  1  0
 27 22  1  0
 10  4  1  0
  1 30  1  0
  1 31  1  0
  1 32  1  0
  2 33  1  1
  4 34  1  1
  5 35  1  0
  5 36  1  0
  6 37  1  0
  6 38  1  0
  7 39  1  6
  8 40  1  0
  8 41  1  0
  9 42  1  1
 10 43  1  0
 10 44  1  0
 13 45  1  0
 14 46  1  0
 15 47  1  0
 17 48  1  0
 23 49  1  0
 24 50  1  0
 26 51  1  0
 27 52  1  0
M  END
$$$$
[H]OC(=O)c1c([H])c([H])c2c(nc(N([H])c3c([H])c([H])c([H])c(Cl)c3[H])c3nc([H])nc([H])c32)c1[H]
     RDKit          3D

 36 39  0  0  0  0  0  0  0  0999 V2000
   -3.2638    3.8426   -1.4192 O   0  0  0  0  0  0  0  0  0  0  0  0
   -4.0023    2.6717   -1.4205 C   0  0  0  0  0  0  0  0  0  0  0  0
   -5.2111    2.7219   -1.7274 O   0  0  0  0  0  0  0  0  0  0  0  0
   -3.3725    1.4141   -1.0697 C   0  0  0  0  0  0  0  0  0  0  0  0
   -4.0555    0.2173   -1.0533 C   0  0  0  0  0  0  0  0  0  0  0  0
   -3.4329   -0.9777   -0.7140 C   0  0  0  0  0  0  0  0  0  0  0  0
   -2.0998   -0.9523   -0.3880 C   0  0  0  0  0  0  0  0  0  0  0  0
   -1.3716    0.2339   -0.3917 C   0  0  0  0  0  0  0  0  0  0  0  0
   -2.0377    1.4115   -0.7390 C   0  0  0  0  0  0  0  0  0  0  0  0
   -0.0730    0.2391   -0.0711 N   0  0  0  0  0  0  0  0  0  0  0  0
    0.6423   -0.8297    0.2716 C   0  0  0  0  0  0  0  0  0  0  0  0
    2.0024   -0.8731    0.6267 N   0  0  0  0  0  0  0  0  0  0  0  0
    2.9352    0.1763    0.6855 C   0  0  0  0  0  0  0  0  0  0  0  0
    4.1732   -0.0511    1.2956 C   0  0  0  0  0  0  0  0  0  0  0  0
    5.0890    0.9666    1.3424 C   0  0  0  0  0  0  0  0  0  0  0  0
    4.8775    2.2228    0.8229 C   0  0  0  0  0  0  0  0  0  0  0  0
    3.6618    2.4565    0.2201 C   0  0  0  0  0  0  0  0  0  0  0  0
    3.3486    4.0399   -0.4548 Cl  0  0  0  0  0  0  0  0  0  0  0  0
    2.7174    1.4231    0.1661 C   0  0  0  0  0  0  0  0  0  0  0  0
   -0.0726   -2.0339    0.2813 C   0  0  0  0  0  0  0  0  0  0  0  0
    0.5252   -3.1900    0.6083 N   0  0  0  0  0  0  0  0  0  0  0  0
   -0.0986   -4.3758    0.6376 C   0  0  0  0  0  0  0  0  0  0  0  0
   -1.3968   -4.4024    0.3205 N   0  0  0  0  0  0  0  0  0  0  0  0
   -2.0940   -3.3054   -0.0220 C   0  0  0  0  0  0  0  0  0  0  0  0
   -1.4318   -2.0977   -0.0452 C   0  0  0  0  0  0  0  0  0  0  0  0
   -2.9539    4.3324   -0.6071 H   0  0  0  0  0  0  0  0  0  0  0  0
   -5.1059    0.2412   -1.3169 H   0  0  0  0  0  0  0  0  0  0  0  0
   -4.0475   -1.8356   -0.7331 H   0  0  0  0  0  0  0  0  0  0  0  0
   -1.4725    2.3358   -0.7424 H   0  0  0  0  0  0  0  0  0  0  0  0
    2.3954   -1.8449    0.8893 H   0  0  0  0  0  0  0  0  0  0  0  0
    4.4137   -1.0336    1.7344 H   0  0  0  0  0  0  0  0  0  0  0  0
    6.0485    0.7955    1.8135 H   0  0  0  0  0  0  0  0  0  0  0  0
    5.6457    2.9819    0.8945 H   0  0  0  0  0  0  0  0  0  0  0  0
    1.8085    1.7163   -0.3353 H   0  0  0  0  0  0  0  0  0  0  0  0
    0.4402   -5.3005    0.9142 H   0  0  0  0  0  0  0  0  0  0  0  0
   -3.1305   -3.3366   -0.2737 H   0  0  0  0  0  0  0  0  0  0  0  0
  1  2  1  0
  2  3  2  0
  2  4  1  0
  4  5  2  0
  5  6  1  0
  6  7  2  0
  7  8  1  0
  8  9  2  0
  8 10  1  0
 10 11  2  0
 11 12  1  0
 12 13  1  0
 13 14  2  0
 14 15  1  0
 15 16  2  0
 16 17  1  0
 17 18  1  0
 17 19  2  0
 11 20  1  0
 20 21  2  0
 21 22  1  0
 22 23  2  0
 23 24  1  0
 24 25  2  0
  9  4  1  0
 19 13  1  0
 25 20  1  0
 25  7  1  0
  1 26  1  0
  5 27  1  0
  6 28  1  0
  9 29  1  0
 12 30  1  0
 14 31  1  0
 15 32  1  0
 16 33  1  0
 19 34  1  0
 22 35  1  0
 24 36  1  0
M  END
$$$$
[H]OC(=O)c1oc2c([H])c(O[H])c(O[H])c([H])c2c(=O)c1[H]
     RDKit          3D

 22 23  0  0  0  0  0  0  0  0999 V2000
    4.2287   -0.5674   -0.4568 O   0  0  0  0  0  0  0  0  0  0  0  0
    3.6227    0.5477    0.0658 C   0  0  0  0  0  0  0  0  0  0  0  0
    4.3167    1.5085    0.4492 O   0  0  0  0  0  0  0  0  0  0  0  0
    2.1763    0.5989    0.1677 C   0  0  0  0  0  0  0  0  0  0  0  0
    1.5339    1.7250    0.6970 C   0  0  0  0  0  0  0  0  0  0  0  0
    0.1625    1.7993    0.8050 C   0  0  0  0  0  0  0  0  0  0  0  0
   -0.3872    2.8361    1.2900 O   0  0  0  0  0  0  0  0  0  0  0  0
   -0.5960    0.7207    0.3734 C   0  0  0  0  0  0  0  0  0  0  0  0
   -1.9686    0.7598    0.4659 C   0  0  0  0  0  0  0  0  0  0  0  0
   -2.6791   -0.3375    0.0235 C   0  0  0  0  0  0  0  0  0  0  0  0
   -4.0588   -0.2940    0.1183 O   0  0  0  0  0  0  0  0  0  0  0  0
   -2.0386   -1.4395   -0.4952 C   0  0  0  0  0  0  0  0  0  0  0  0
   -2.7766   -2.5247   -0.9309 O   0  0  0  0  0  0  0  0  0  0  0  0
   -0.6649   -1.4388   -0.5704 C   0  0  0  0  0  0  0  0  0  0  0  0
    0.0880   -0.3592   -0.1380 C   0  0  0  0  0  0  0  0  0  0  0  0
    1.3941   -0.3771   -0.2176 O   0  0  0  0  0  0  0  0  0  0  0  0
    5.0682   -0.6060   -0.9833 H   0  0  0  0  0  0  0  0  0  0  0  0
    2.1946    2.5368    1.0169 H   0  0  0  0  0  0  0  0  0  0  0  0
   -2.4654    1.6475    0.8826 H   0  0  0  0  0  0  0  0  0  0  0  0
   -4.6356   -1.0529   -0.1830 H   0  0  0  0  0  0  0  0  0  0  0  0
   -2.3288   -3.3464   -1.3160 H   0  0  0  0  0  0  0  0  0  0  0  0
   -0.1859   -2.3370   -0.9908 H   0  0  0  0  0  0  0  0  0  0  0  0
  1  2  1  0
  2  3  2  0
  2  4  1  0
  4  5  2  0
  5  6  1  0
  6  7  2  0
  6  8  1  0
  8  9  2  0
  9 10  1  0
 10 11  1  0
 10 12  2  0
 12 13  1  0
 12 14  1  0
 14 15  2  0
 15 16  1  0
 16  4  1  0
 15  8  1  0
  1 17  1  0
  5 18  1  0
  9 19  1  0
 11 20  1  0
 13 21  1  0
 14 22  1  0
M  END
$$$$
[H]ON(C([H])=O)C([H])([H])[C@]([H])(C(=O)N1C([H])([H])C([H])([H])C([H])([H])[C@@]1([H])C(=O)N([H])C1([H])C([H])([H])C([H])([H])C1([H])[H])C([H])([H])C1([H])C([H])([H])C([H])([H])C([H])([H])C1([H])[H]
     RDKit          3D

 57 59  0  0  0  0  0  0  0  0999 V2000
   -5.0165   -0.4269    1.2355 O   0  0  0  0  0  0  0  0  0  0  0  0
   -3.9663   -1.2274    0.9972 N   0  0  0  0  0  0  0  0  0  0  0  0
   -2.5893   -0.9112    1.1795 C   0  0  0  0  0  0  0  0  0  0  0  0
   -1.6961   -0.4962    0.1388 C   0  0  1  0  0  0  0  0  0  0  0  0
   -1.6931    0.6355   -0.7445 C   0  0  0  0  0  0  0  0  0  0  0  0
   -2.7054    1.0138   -1.7270 C   0  0  0  0  0  0  0  0  0  0  0  0
   -2.1032    2.2814   -2.4513 C   0  0  0  0  0  0  0  0  0  0  0  0
   -3.3549    2.9032   -3.0535 C   0  0  0  0  0  0  0  0  0  0  0  0
   -4.2569    2.9185   -1.8429 C   0  0  0  0  0  0  0  0  0  0  0  0
   -3.9433    1.6591   -1.1320 C   0  0  0  0  0  0  0  0  0  0  0  0
   -0.2779   -0.4961    0.7669 C   0  0  0  0  0  0  0  0  0  0  0  0
    0.0479    0.6480    1.1812 O   0  0  0  0  0  0  0  0  0  0  0  0
    0.5206   -1.6409    0.8514 N   0  0  0  0  0  0  0  0  0  0  0  0
    0.2341   -2.9755    0.4379 C   0  0  0  0  0  0  0  0  0  0  0  0
    1.4500   -3.8147    0.7229 C   0  0  0  0  0  0  0  0  0  0  0  0
    2.5026   -2.9251    1.2636 C   0  0  0  0  0  0  0  0  0  0  0  0
    1.8671   -1.5824    1.4054 C   0  0  1  0  0  0  0  0  0  0  0  0
    2.6168   -0.5728    0.5586 C   0  0  0  0  0  0  0  0  0  0  0  0
    2.1395   -0.1769   -0.5156 O   0  0  0  0  0  0  0  0  0  0  0  0
    3.8615   -0.0922    1.0152 N   0  0  0  0  0  0  0  0  0  0  0  0
    4.5898    0.8617    0.2262 C   0  0  0  0  0  0  0  0  0  0  0  0
    4.5796    2.2123    0.9684 C   0  0  0  0  0  0  0  0  0  0  0  0
    6.0922    2.1915    0.9095 C   0  0  0  0  0  0  0  0  0  0  0  0
    6.0736    0.8034    0.3569 C   0  0  0  0  0  0  0  0  0  0  0  0
   -4.2901   -2.5793    0.6094 C   0  0  0  0  0  0  0  0  0  0  0  0
   -3.4641   -3.4610    0.3423 O   0  0  0  0  0  0  0  0  0  0  0  0
   -5.7022   -0.4722    0.5208 H   0  0  0  0  0  0  0  0  0  0  0  0
   -2.1451   -1.8301    1.7135 H   0  0  0  0  0  0  0  0  0  0  0  0
   -2.6006   -0.1894    2.0786 H   0  0  0  0  0  0  0  0  0  0  0  0
   -1.5758   -1.4663   -0.5390 H   0  0  0  0  0  0  0  0  0  0  0  0
   -0.6847    0.5783   -1.3321 H   0  0  0  0  0  0  0  0  0  0  0  0
   -1.4683    1.6149   -0.1526 H   0  0  0  0  0  0  0  0  0  0  0  0
   -2.9058    0.3298   -2.5519 H   0  0  0  0  0  0  0  0  0  0  0  0
   -1.7430    2.9705   -1.6698 H   0  0  0  0  0  0  0  0  0  0  0  0
   -1.3577    1.9867   -3.1794 H   0  0  0  0  0  0  0  0  0  0  0  0
   -3.1498    3.9021   -3.4433 H   0  0  0  0  0  0  0  0  0  0  0  0
   -3.7826    2.1875   -3.7895 H   0  0  0  0  0  0  0  0  0  0  0  0
   -3.9835    3.7687   -1.1474 H   0  0  0  0  0  0  0  0  0  0  0  0
   -5.3384    2.9639   -2.1045 H   0  0  0  0  0  0  0  0  0  0  0  0
   -4.7840    0.9205   -1.2946 H   0  0  0  0  0  0  0  0  0  0  0  0
   -3.7659    1.8228   -0.0275 H   0  0  0  0  0  0  0  0  0  0  0  0
   -0.0021   -3.0140   -0.6513 H   0  0  0  0  0  0  0  0  0  0  0  0
   -0.6700   -3.4267    0.9356 H   0  0  0  0  0  0  0  0  0  0  0  0
    1.2243   -4.6561    1.4216 H   0  0  0  0  0  0  0  0  0  0  0  0
    1.8330   -4.2802   -0.2211 H   0  0  0  0  0  0  0  0  0  0  0  0
    2.9180   -3.2411    2.2572 H   0  0  0  0  0  0  0  0  0  0  0  0
    3.3955   -2.8353    0.5662 H   0  0  0  0  0  0  0  0  0  0  0  0
    1.7998   -1.2591    2.4508 H   0  0  0  0  0  0  0  0  0  0  0  0
    4.2675   -0.4190    1.9134 H   0  0  0  0  0  0  0  0  0  0  0  0
    4.1634    0.9453   -0.7934 H   0  0  0  0  0  0  0  0  0  0  0  0
    4.0955    2.9639    0.3345 H   0  0  0  0  0  0  0  0  0  0  0  0
    4.1266    2.1838    1.9664 H   0  0  0  0  0  0  0  0  0  0  0  0
    6.5123    2.3018    1.9370 H   0  0  0  0  0  0  0  0  0  0  0  0
    6.4455    2.9586    0.1806 H   0  0  0  0  0  0  0  0  0  0  0  0
    6.5395    0.7637   -0.6718 H   0  0  0  0  0  0  0  0  0  0  0  0
    6.4615    0.0015    1.0409 H   0  0  0  0  0  0  0  0  0  0  0  0
   -5.3416   -2.8246    0.5523 H   0  0  0  0  0  0  0  0  0  0  0  0
  1  2  1  0
  2  3  1  0
  3  4  1  0
  4  5  1  0
  5  6  1  0
  6  7  1  0
  7  8  1  0
  8  9  1  0
  9 10  1  0
  4 11  1  0
 11 12  2  0
 11 13  1  0
 13 14  1  0
 14 15  1  0
 15 16  1  0
 16 17  1  0
 17 18  1  0
 18 19  2  0
 18 20  1  0
 20 21  1  0
 21 22  1  0
 22 23  1  0
 23 24  1  0
  2 25  1  0
 25 26  2  0
 10  6  1  0
 17 13  1  0
 24 21  1  0
  1 27  1  0
  3 28  1  0
  3 29  1  0
  4 30  1  6
  5 31  1  0
  5 32  1  0
  6 33  1  0
  7 34  1  0
  7 35  1  0
  8 36  1  0
  8 37  1  0
  9 38  1  0
  9 39  1  0
 10 40  1  0
 10 41  1  0
 14 42  1  0
 14 43  1  0
 15 44  1  0
 15 45  1  0
 16 46  1  0
 16 47  1  0
 17 48  1  1
 20 49  1  0
 21 50  1  0
 22 51  1  0
 22 52  1  0
 23 53  1  0
 23 54  1  0
 24 55  1  0
 24 56  1  0
 25 57  1  0
M  END
$$$$
[H]c1nc2c([H])c([H])c([H])c([H])n2c1C(=O)N([H])c1c([H])c(-c2noc(C3([H])C([H])([H])C(F)(F)C3([H])[H])n2)c([H])c([H])c1C([H])([H])[H]
     RDKit          3D

 47 51  0  0  0  0  0  0  0  0999 V2000
   -2.2864   -2.8111    2.0773 C   0  0  0  0  0  0  0  0  0  0  0  0
   -0.8897   -2.5002    1.6229 C   0  0  0  0  0  0  0  0  0  0  0  0
    0.1340   -3.3878    1.8314 C   0  0  0  0  0  0  0  0  0  0  0  0
    1.4237   -3.1230    1.4222 C   0  0  0  0  0  0  0  0  0  0  0  0
    1.7481   -1.9524    0.7827 C   0  0  0  0  0  0  0  0  0  0  0  0
    0.6997   -1.0464    0.5706 C   0  0  0  0  0  0  0  0  0  0  0  0
   -0.5974   -1.2912    0.9718 C   0  0  0  0  0  0  0  0  0  0  0  0
   -1.6643   -0.3970    0.7695 N   0  0  0  0  0  0  0  0  0  0  0  0
   -1.7037    0.8560    0.1613 C   0  0  0  0  0  0  0  0  0  0  0  0
   -0.6023    1.3396   -0.2973 O   0  0  0  0  0  0  0  0  0  0  0  0
   -2.8896    1.6802    0.0013 C   0  0  0  0  0  0  0  0  0  0  0  0
   -2.8241    3.0829   -0.0522 C   0  0  0  0  0  0  0  0  0  0  0  0
   -4.0556    3.5476   -0.2369 N   0  0  0  0  0  0  0  0  0  0  0  0
   -4.9118    2.5015   -0.3060 C   0  0  0  0  0  0  0  0  0  0  0  0
   -6.2783    2.4648   -0.5018 C   0  0  0  0  0  0  0  0  0  0  0  0
   -6.9556    1.2780   -0.5590 C   0  0  0  0  0  0  0  0  0  0  0  0
   -6.2155    0.1370   -0.4141 C   0  0  0  0  0  0  0  0  0  0  0  0
   -4.8349    0.1962   -0.2165 C   0  0  0  0  0  0  0  0  0  0  0  0
   -4.1672    1.3634   -0.1575 N   0  0  0  0  0  0  0  0  0  0  0  0
    3.0955   -1.6345    0.3351 C   0  0  0  0  0  0  0  0  0  0  0  0
    4.1931   -2.3975    0.4671 N   0  0  0  0  0  0  0  0  0  0  0  0
    5.2038   -1.7630   -0.0612 O   0  0  0  0  0  0  0  0  0  0  0  0
    4.8283   -0.6027   -0.5433 C   0  0  0  0  0  0  0  0  0  0  0  0
    3.5150   -0.5245   -0.2956 N   0  0  0  0  0  0  0  0  0  0  0  0
    5.7024    0.3734   -1.2078 C   0  0  0  0  0  0  0  0  0  0  0  0
    5.4786    1.8253   -0.7696 C   0  0  0  0  0  0  0  0  0  0  0  0
    5.6845    2.2051   -2.2366 C   0  0  0  0  0  0  0  0  0  0  0  0
    7.0234    2.2822   -2.5025 F   0  0  0  0  0  0  0  0  0  0  0  0
    4.8967    3.2176   -2.6889 F   0  0  0  0  0  0  0  0  0  0  0  0
    5.1836    0.7954   -2.5766 C   0  0  0  0  0  0  0  0  0  0  0  0
   -2.6806   -2.0293    2.7567 H   0  0  0  0  0  0  0  0  0  0  0  0
   -2.9828   -2.9175    1.2218 H   0  0  0  0  0  0  0  0  0  0  0  0
   -2.3124   -3.7667    2.6370 H   0  0  0  0  0  0  0  0  0  0  0  0
   -0.1131   -4.3270    2.3416 H   0  0  0  0  0  0  0  0  0  0  0  0
    2.2282   -3.8355    1.5933 H   0  0  0  0  0  0  0  0  0  0  0  0
    0.9849   -0.1295    0.0630 H   0  0  0  0  0  0  0  0  0  0  0  0
   -2.5981   -0.7243    1.1928 H   0  0  0  0  0  0  0  0  0  0  0  0
   -1.9354    3.6842    0.0395 H   0  0  0  0  0  0  0  0  0  0  0  0
   -6.8443    3.3997   -0.6154 H   0  0  0  0  0  0  0  0  0  0  0  0
   -8.0172    1.1988   -0.7089 H   0  0  0  0  0  0  0  0  0  0  0  0
   -6.6462   -0.8561   -0.4434 H   0  0  0  0  0  0  0  0  0  0  0  0
   -4.2687   -0.7234   -0.1335 H   0  0  0  0  0  0  0  0  0  0  0  0
    6.7469    0.0793   -1.2918 H   0  0  0  0  0  0  0  0  0  0  0  0
    4.4156    1.9397   -0.4666 H   0  0  0  0  0  0  0  0  0  0  0  0
    6.2322    2.2091   -0.0829 H   0  0  0  0  0  0  0  0  0  0  0  0
    5.7643    0.3720   -3.4179 H   0  0  0  0  0  0  0  0  0  0  0  0
    4.0929    0.7117   -2.6618 H   0  0  0  0  0  0  0  0  0  0  0  0
  1  2  1  0
  2  3  2  0
  3  4  1  0
  4  5  2  0
  5  6  1  0
  6  7  2  0
  7  8  1  0
  8  9  1  0
  9 10  2  0
  9 11  1  0
 11 12  2  0
 12 13  1  0
 13 14  2  0
 14 15  1  0
 15 16  2  0
 16 17  1  0
 17 18  2  0
 18 19  1  0
  5 20  1  0
 20 21  2  0
 21 22  1  0
 22 23  1  0
 23 24  2  0
 23 25  1  0
 25 26  1  0
 26 27  1  0
 27 28  1  0
 27 29  1  0
 27 30  1  0
  7  2  1  0
 19 11  1  0
 24 20  1  0
 30 25  1  0
 19 14  1  0
  1 31  1  0
  1 32  1  0
  1 33  1  0
  3 34  1  0
  4 35  1  0
  6 36  1  0
  8 37  1  0
 12 38  1  0
 15 39  1  0
 16 40  1  0
 17 41  1  0
 18 42  1  0
 25 43  1  0
 26 44  1  0
 26 45  1  0
 30 46  1  0
 30 47  1  0
M  END
$$$$
[H]c1c([H])c(C(=O)N([H])c2c([H])c([H])c(C([H])([H])[H])c(-c3c([H])c(N4C([H])([H])C([H])([H])OC([H])([H])C4([H])[H])c(=O)n(C([H])([H])[H])c3[H])c2[H])c([H])c(C(F)(F)F)c1[H]
     RDKit          3D

 58 61  0  0  0  0  0  0  0  0999 V2000
   -1.7290    2.8138    0.9420 C   0  0  0  0  0  0  0  0  0  0  0  0
   -0.5141    2.1104    0.5485 C   0  0  0  0  0  0  0  0  0  0  0  0
    0.6321    2.8469    0.2071 C   0  0  0  0  0  0  0  0  0  0  0  0
    1.8088    2.2569   -0.1455 C   0  0  0  0  0  0  0  0  0  0  0  0
    1.9072    0.8865   -0.1866 C   0  0  0  0  0  0  0  0  0  0  0  0
    3.1243    0.2580   -0.5365 N   0  0  0  0  0  0  0  0  0  0  0  0
    4.3670    0.7760   -0.2052 C   0  0  0  0  0  0  0  0  0  0  0  0
    4.5105    1.8486    0.4708 O   0  0  0  0  0  0  0  0  0  0  0  0
    5.6191    0.1549   -0.5988 C   0  0  0  0  0  0  0  0  0  0  0  0
    6.0079    0.1005   -1.9049 C   0  0  0  0  0  0  0  0  0  0  0  0
    7.1945   -0.4847   -2.2921 C   0  0  0  0  0  0  0  0  0  0  0  0
    8.0169   -1.0414   -1.2817 C   0  0  0  0  0  0  0  0  0  0  0  0
    7.6237   -0.9939    0.0266 C   0  0  0  0  0  0  0  0  0  0  0  0
    6.4399   -0.4036    0.3714 C   0  0  0  0  0  0  0  0  0  0  0  0
    8.4830   -1.6010    1.0588 C   0  0  0  0  0  0  0  0  0  0  0  0
    9.4121   -2.4395    0.4943 F   0  0  0  0  0  0  0  0  0  0  0  0
    7.7219   -2.3569    1.9507 F   0  0  0  0  0  0  0  0  0  0  0  0
    9.1740   -0.6417    1.7850 F   0  0  0  0  0  0  0  0  0  0  0  0
    0.7603    0.1631    0.1589 C   0  0  0  0  0  0  0  0  0  0  0  0
   -0.4314    0.7309    0.5191 C   0  0  0  0  0  0  0  0  0  0  0  0
   -1.6360   -0.0435    0.8497 C   0  0  0  0  0  0  0  0  0  0  0  0
   -2.7958    0.1012    0.0863 C   0  0  0  0  0  0  0  0  0  0  0  0
   -3.9574   -0.5684    0.3950 C   0  0  0  0  0  0  0  0  0  0  0  0
   -5.0930   -0.4150   -0.4141 N   0  0  0  0  0  0  0  0  0  0  0  0
   -5.7700   -1.5872   -1.0074 C   0  0  0  0  0  0  0  0  0  0  0  0
   -6.1049   -1.3736   -2.4273 C   0  0  0  0  0  0  0  0  0  0  0  0
   -6.7164   -0.1487   -2.6215 O   0  0  0  0  0  0  0  0  0  0  0  0
   -5.9469    0.9360   -2.1671 C   0  0  0  0  0  0  0  0  0  0  0  0
   -5.6381    0.8692   -0.7123 C   0  0  0  0  0  0  0  0  0  0  0  0
   -3.9510   -1.3884    1.4815 C   0  0  0  0  0  0  0  0  0  0  0  0
   -4.9933   -2.0014    1.7836 O   0  0  0  0  0  0  0  0  0  0  0  0
   -2.8332   -1.5565    2.2478 N   0  0  0  0  0  0  0  0  0  0  0  0
   -2.9064   -2.5017    3.3786 C   0  0  0  0  0  0  0  0  0  0  0  0
   -1.7367   -0.8939    1.9135 C   0  0  0  0  0  0  0  0  0  0  0  0
   -1.4656    3.8571    1.2917 H   0  0  0  0  0  0  0  0  0  0  0  0
   -2.2791    2.3438    1.7803 H   0  0  0  0  0  0  0  0  0  0  0  0
   -2.4211    2.9780    0.0951 H   0  0  0  0  0  0  0  0  0  0  0  0
    0.6163    3.9215    0.2158 H   0  0  0  0  0  0  0  0  0  0  0  0
    2.6511    2.8820   -0.4016 H   0  0  0  0  0  0  0  0  0  0  0  0
    3.1200   -0.6313   -1.1073 H   0  0  0  0  0  0  0  0  0  0  0  0
    5.3380    0.4957   -2.6239 H   0  0  0  0  0  0  0  0  0  0  0  0
    7.4632   -0.5145   -3.3032 H   0  0  0  0  0  0  0  0  0  0  0  0
    8.9466   -1.4959   -1.5808 H   0  0  0  0  0  0  0  0  0  0  0  0
    6.1618   -0.3451    1.4293 H   0  0  0  0  0  0  0  0  0  0  0  0
    0.8317   -0.8945    0.1228 H   0  0  0  0  0  0  0  0  0  0  0  0
   -2.7372    0.7542   -0.7481 H   0  0  0  0  0  0  0  0  0  0  0  0
   -5.0768   -2.4474   -0.9018 H   0  0  0  0  0  0  0  0  0  0  0  0
   -6.6540   -1.8568   -0.4333 H   0  0  0  0  0  0  0  0  0  0  0  0
   -5.2205   -1.5072   -3.1156 H   0  0  0  0  0  0  0  0  0  0  0  0
   -6.8222   -2.1706   -2.7704 H   0  0  0  0  0  0  0  0  0  0  0  0
   -5.0194    1.0267   -2.7059 H   0  0  0  0  0  0  0  0  0  0  0  0
   -6.5618    1.8018   -2.3438 H   0  0  0  0  0  0  0  0  0  0  0  0
   -6.4892    1.1468   -0.0932 H   0  0  0  0  0  0  0  0  0  0  0  0
   -4.8777    1.6848   -0.5316 H   0  0  0  0  0  0  0  0  0  0  0  0
   -3.4879   -3.4006    3.1213 H   0  0  0  0  0  0  0  0  0  0  0  0
   -3.3508   -1.9597    4.2610 H   0  0  0  0  0  0  0  0  0  0  0  0
   -1.8879   -2.8420    3.6122 H   0  0  0  0  0  0  0  0  0  0  0  0
   -0.8269   -1.0257    2.5629 H   0  0  0  0  0  0  0  0  0  0  0  0
  1  2  1  0
  2  3  2  0
  3  4  1  0
  4  5  2  0
  5  6  1  0
  6  7  1  0
  7  8  2  0
  7  9  1  0
  9 10  2  0
 10 11  1  0
 11 12  2  0
 12 13  1  0
 13 14  2  0
 13 15  1  0
 15 16  1  0
 15 17  1  0
 15 18  1  0
  5 19  1  0
 19 20  2  0
 20 21  1  0
 21 22  1  0
 22 23  2  0
 23 24  1  0
 24 25  1  0
 25 26  1  0
 26 27  1  0
 27 28  1  0
 28 29  1  0
 23 30  1  0
 30 31  2  0
 30 32  1  0
 32 33  1  0
 32 34  1  0
 20  2  1  0
 34 21  2  0
 14  9  1  0
 29 24  1  0
  1 35  1  0
  1 36  1  0
  1 37  1  0
  3 38  1  0
  4 39  1  0
  6 40  1  0
 10 41  1  0
 11 42  1  0
 12 43  1  0
 14 44  1  0
 19 45  1  0
 22 46  1  0
 25 47  1  0
 25 48  1  0
 26 49  1  0
 26 50  1  0
 28 51  1  0
 28 52  1  0
 29 53  1  0
 29 54  1  0
 33 55  1  0
 33 56  1  0
 33 57  1  0
 34 58  1  0
M  END
$$$$
[H]OC(=O)C([H])([H])c1c([H])c([H])c(N([H])c2nc(-c3c([H])c([H])c([H])c([H])c3[H])nc3c2S(=O)(=O)C([H])([H])C([H])([H])C3([H])[H])c([H])c1[H]
     RDKit          3D

 48 51  0  0  0  0  0  0  0  0999 V2000
    7.0870    3.1648   -0.8839 O   0  0  0  0  0  0  0  0  0  0  0  0
    5.9427    2.3649   -0.7592 C   0  0  0  0  0  0  0  0  0  0  0  0
    5.1024    2.3750   -1.6882 O   0  0  0  0  0  0  0  0  0  0  0  0
    5.7049    1.5221    0.4226 C   0  0  0  0  0  0  0  0  0  0  0  0
    4.4243    0.8007    0.2656 C   0  0  0  0  0  0  0  0  0  0  0  0
    4.3986   -0.4272   -0.3296 C   0  0  0  0  0  0  0  0  0  0  0  0
    3.2205   -1.1260   -0.4916 C   0  0  0  0  0  0  0  0  0  0  0  0
    1.9923   -0.6043   -0.0506 C   0  0  0  0  0  0  0  0  0  0  0  0
    0.8622   -1.4181   -0.2578 N   0  0  0  0  0  0  0  0  0  0  0  0
   -0.4954   -1.0507   -0.1785 C   0  0  0  0  0  0  0  0  0  0  0  0
   -0.9181    0.1964    0.0721 N   0  0  0  0  0  0  0  0  0  0  0  0
   -2.2027    0.5775    0.1296 C   0  0  0  0  0  0  0  0  0  0  0  0
   -3.1160   -0.3586   -0.0788 N   0  0  0  0  0  0  0  0  0  0  0  0
   -2.8019   -1.6648   -0.3433 C   0  0  0  0  0  0  0  0  0  0  0  0
   -3.8928   -2.5957   -0.5595 C   0  0  0  0  0  0  0  0  0  0  0  0
   -3.6652   -3.9922   -0.0635 C   0  0  0  0  0  0  0  0  0  0  0  0
   -2.5095   -4.6483   -0.7744 C   0  0  0  0  0  0  0  0  0  0  0  0
   -1.0406   -3.6769   -0.7212 S   0  0  0  0  0  0  0  0  0  0  0  0
   -0.2056   -4.2284    0.4351 O   0  0  0  0  0  0  0  0  0  0  0  0
   -0.2769   -3.7583   -2.0173 O   0  0  0  0  0  0  0  0  0  0  0  0
   -1.4871   -2.0133   -0.3932 C   0  0  0  0  0  0  0  0  0  0  0  0
   -2.5142    1.9779    0.4106 C   0  0  0  0  0  0  0  0  0  0  0  0
   -3.8802    2.2806    0.4582 C   0  0  0  0  0  0  0  0  0  0  0  0
   -4.3095    3.5582    0.7119 C   0  0  0  0  0  0  0  0  0  0  0  0
   -3.3400    4.5209    0.9159 C   0  0  0  0  0  0  0  0  0  0  0  0
   -1.9975    4.2325    0.8709 C   0  0  0  0  0  0  0  0  0  0  0  0
   -1.5769    2.9362    0.6133 C   0  0  0  0  0  0  0  0  0  0  0  0
    2.0549    0.6152    0.5356 C   0  0  0  0  0  0  0  0  0  0  0  0
    3.2455    1.3329    0.7047 C   0  0  0  0  0  0  0  0  0  0  0  0
    7.4788    3.5584   -0.0455 H   0  0  0  0  0  0  0  0  0  0  0  0
    6.5659    0.7927    0.4694 H   0  0  0  0  0  0  0  0  0  0  0  0
    5.7263    2.0869    1.3776 H   0  0  0  0  0  0  0  0  0  0  0  0
    5.3520   -0.8378   -0.6748 H   0  0  0  0  0  0  0  0  0  0  0  0
    3.3016   -2.0885   -0.9737 H   0  0  0  0  0  0  0  0  0  0  0  0
    1.0371   -2.4478   -0.5078 H   0  0  0  0  0  0  0  0  0  0  0  0
   -4.7999   -2.2204   -0.0246 H   0  0  0  0  0  0  0  0  0  0  0  0
   -4.1786   -2.5901   -1.6392 H   0  0  0  0  0  0  0  0  0  0  0  0
   -4.5750   -4.5809   -0.2997 H   0  0  0  0  0  0  0  0  0  0  0  0
   -3.5500   -3.9980    1.0346 H   0  0  0  0  0  0  0  0  0  0  0  0
   -2.3097   -5.6119   -0.2677 H   0  0  0  0  0  0  0  0  0  0  0  0
   -2.7475   -4.8606   -1.8422 H   0  0  0  0  0  0  0  0  0  0  0  0
   -4.6355    1.5054    0.2942 H   0  0  0  0  0  0  0  0  0  0  0  0
   -5.3775    3.8004    0.7502 H   0  0  0  0  0  0  0  0  0  0  0  0
   -3.7047    5.5254    1.1151 H   0  0  0  0  0  0  0  0  0  0  0  0
   -1.2794    5.0079    1.0346 H   0  0  0  0  0  0  0  0  0  0  0  0
   -0.5438    2.6855    0.5721 H   0  0  0  0  0  0  0  0  0  0  0  0
    1.1834    1.0773    0.9068 H   0  0  0  0  0  0  0  0  0  0  0  0
    3.2509    2.3033    1.1774 H   0  0  0  0  0  0  0  0  0  0  0  0
  1  2  1  0
  2  3  2  0
  2  4  1  0
  4  5  1  0
  5  6  2  0
  6  7  1  0
  7  8  2  0
  8  9  1  0
  9 10  1  0
 10 11  2  0
 11 12  1  0
 12 13  2  0
 13 14  1  0
 14 15  1  0
 15 16  1  0
 16 17  1  0
 17 18  1  0
 18 19  2  0
 18 20  2  0
 18 21  1  0
 12 22  1  0
 22 23  2  0
 23 24  1  0
 24 25  2  0
 25 26  1  0
 26 27  2  0
  8 28  1  0
 28 29  2  0
 29  5  1  0
 21 10  1  0
 27 22  1  0
 21 14  2  0
  1 30  1  0
  4 31  1  0
  4 32  1  0
  6 33  1  0
  7 34  1  0
  9 35  1  0
 15 36  1  0
 15 37  1  0
 16 38  1  0
 16 39  1  0
 17 40  1  0
 17 41  1  0
 23 42  1  0
 24 43  1  0
 25 44  1  0
 26 45  1  0
 27 46  1  0
 28 47  1  0
 29 48  1  0
M  END
$$$$
[H]OC(=O)c1c([H])nc(/C([H])=C(\[H])c2c([H])c([H])c([H])c(/C([H])=C(\[H])c3c([H])c([H])c(OC([H])([H])C([H])([H])C([H])([H])C([H])([H])c4c([H])c([H])c([H])c([H])c4[H])c([H])c3[H])c2[H])c([H])c1[H]
     RDKit          3D

 65 68  0  0  0  0  0  0  0  0999 V2000
  -11.0418   -2.8809    3.6610 O   0  0  0  0  0  0  0  0  0  0  0  0
  -11.3190   -2.7200    2.3092 C   0  0  0  0  0  0  0  0  0  0  0  0
  -12.4311   -2.9987    1.8210 O   0  0  0  0  0  0  0  0  0  0  0  0
  -10.2646   -2.2083    1.4500 C   0  0  0  0  0  0  0  0  0  0  0  0
  -10.4792   -2.0244    0.0870 C   0  0  0  0  0  0  0  0  0  0  0  0
   -9.4535   -1.5351   -0.7030 C   0  0  0  0  0  0  0  0  0  0  0  0
   -8.2133   -1.2177   -0.1939 C   0  0  0  0  0  0  0  0  0  0  0  0
   -7.1482   -0.7041   -1.0426 C   0  0  0  0  0  0  0  0  0  0  0  0
   -5.9670   -0.4001   -0.5685 C   0  0  0  0  0  0  0  0  0  0  0  0
   -4.8481    0.1241   -1.3778 C   0  0  0  0  0  0  0  0  0  0  0  0
   -4.9379    0.3475   -2.7268 C   0  0  0  0  0  0  0  0  0  0  0  0
   -3.8886    0.8366   -3.4732 C   0  0  0  0  0  0  0  0  0  0  0  0
   -2.7150    1.1085   -2.8418 C   0  0  0  0  0  0  0  0  0  0  0  0
   -2.5976    0.8957   -1.5001 C   0  0  0  0  0  0  0  0  0  0  0  0
   -1.3436    1.1763   -0.7736 C   0  0  0  0  0  0  0  0  0  0  0  0
   -0.2564    1.6418   -1.3283 C   0  0  0  0  0  0  0  0  0  0  0  0
    0.9781    1.9254   -0.6522 C   0  0  0  0  0  0  0  0  0  0  0  0
    1.1344    1.7258    0.6880 C   0  0  0  0  0  0  0  0  0  0  0  0
    2.3302    2.0059    1.3112 C   0  0  0  0  0  0  0  0  0  0  0  0
    3.4370    2.5052    0.6098 C   0  0  0  0  0  0  0  0  0  0  0  0
    4.5600    2.7473    1.3163 O   0  0  0  0  0  0  0  0  0  0  0  0
    5.8143    3.2000    1.0384 C   0  0  0  0  0  0  0  0  0  0  0  0
    6.6689    2.3851    0.1199 C   0  0  0  0  0  0  0  0  0  0  0  0
    6.8975    0.9791    0.6694 C   0  0  0  0  0  0  0  0  0  0  0  0
    7.7731    0.1818   -0.2969 C   0  0  0  0  0  0  0  0  0  0  0  0
    7.9924   -1.1839    0.2415 C   0  0  0  0  0  0  0  0  0  0  0  0
    9.0400   -1.5105    1.0611 C   0  0  0  0  0  0  0  0  0  0  0  0
    9.2230   -2.7888    1.5497 C   0  0  0  0  0  0  0  0  0  0  0  0
    8.3196   -3.7959    1.2075 C   0  0  0  0  0  0  0  0  0  0  0  0
    7.2642   -3.4863    0.3874 C   0  0  0  0  0  0  0  0  0  0  0  0
    7.1041   -2.2083   -0.0852 C   0  0  0  0  0  0  0  0  0  0  0  0
    3.2783    2.7069   -0.7418 C   0  0  0  0  0  0  0  0  0  0  0  0
    2.0637    2.4157   -1.3414 C   0  0  0  0  0  0  0  0  0  0  0  0
   -3.6533    0.4026   -0.7441 C   0  0  0  0  0  0  0  0  0  0  0  0
   -8.0334   -1.4053    1.1264 N   0  0  0  0  0  0  0  0  0  0  0  0
   -9.0120   -1.8805    1.9249 C   0  0  0  0  0  0  0  0  0  0  0  0
  -11.5494   -2.3444    4.3466 H   0  0  0  0  0  0  0  0  0  0  0  0
  -11.4524   -2.2674   -0.3444 H   0  0  0  0  0  0  0  0  0  0  0  0
   -9.6585   -1.4073   -1.7488 H   0  0  0  0  0  0  0  0  0  0  0  0
   -7.3501   -0.5752   -2.0872 H   0  0  0  0  0  0  0  0  0  0  0  0
   -5.8357   -0.5582    0.5068 H   0  0  0  0  0  0  0  0  0  0  0  0
   -5.8695    0.1307   -3.2227 H   0  0  0  0  0  0  0  0  0  0  0  0
   -4.0247    0.9897   -4.5294 H   0  0  0  0  0  0  0  0  0  0  0  0
   -1.9064    1.4880   -3.4301 H   0  0  0  0  0  0  0  0  0  0  0  0
   -1.3072    0.9847    0.3125 H   0  0  0  0  0  0  0  0  0  0  0  0
   -0.2842    1.8356   -2.4105 H   0  0  0  0  0  0  0  0  0  0  0  0
    0.3064    1.3328    1.3163 H   0  0  0  0  0  0  0  0  0  0  0  0
    2.4041    1.8308    2.3751 H   0  0  0  0  0  0  0  0  0  0  0  0
    6.3895    3.2868    2.0157 H   0  0  0  0  0  0  0  0  0  0  0  0
    5.7527    4.2458    0.6236 H   0  0  0  0  0  0  0  0  0  0  0  0
    6.2263    2.3519   -0.8819 H   0  0  0  0  0  0  0  0  0  0  0  0
    7.6631    2.8963   -0.0243 H   0  0  0  0  0  0  0  0  0  0  0  0
    5.9359    0.4570    0.7737 H   0  0  0  0  0  0  0  0  0  0  0  0
    7.4334    1.0729    1.6349 H   0  0  0  0  0  0  0  0  0  0  0  0
    8.7740    0.6737   -0.3519 H   0  0  0  0  0  0  0  0  0  0  0  0
    7.3453    0.1866   -1.3127 H   0  0  0  0  0  0  0  0  0  0  0  0
    9.7411   -0.7516    1.3330 H   0  0  0  0  0  0  0  0  0  0  0  0
   10.0355   -3.0762    2.1950 H   0  0  0  0  0  0  0  0  0  0  0  0
    8.4363   -4.8062    1.5743 H   0  0  0  0  0  0  0  0  0  0  0  0
    6.5553   -4.2754    0.1186 H   0  0  0  0  0  0  0  0  0  0  0  0
    6.2718   -1.9666   -0.7313 H   0  0  0  0  0  0  0  0  0  0  0  0
    4.1075    3.1042   -1.3190 H   0  0  0  0  0  0  0  0  0  0  0  0
    1.9799    2.5870   -2.4024 H   0  0  0  0  0  0  0  0  0  0  0  0
   -3.5498    0.2346    0.3344 H   0  0  0  0  0  0  0  0  0  0  0  0
   -8.8453   -2.0231    2.9822 H   0  0  0  0  0  0  0  0  0  0  0  0
  1  2  1  0
  2  3  2  0
  2  4  1  0
  4  5  2  0
  5  6  1  0
  6  7  2  0
  7  8  1  0
  8  9  2  0
  9 10  1  0
 10 11  2  0
 11 12  1  0
 12 13  2  0
 13 14  1  0
 14 15  1  0
 15 16  2  0
 16 17  1  0
 17 18  2  0
 18 19  1  0
 19 20  2  0
 20 21  1  0
 21 22  1  0
 22 23  1  0
 23 24  1  0
 24 25  1  0
 25 26  1  0
 26 27  2  0
 27 28  1  0
 28 29  2  0
 29 30  1  0
 30 31  2  0
 20 32  1  0
 32 33  2  0
 14 34  2  0
  7 35  1  0
 35 36  2  0
 36  4  1  0
 34 10  1  0
 33 17  1  0
 31 26  1  0
  1 37  1  0
  5 38  1  0
  6 39  1  0
  8 40  1  0
  9 41  1  0
 11 42  1  0
 12 43  1  0
 13 44  1  0
 15 45  1  0
 16 46  1  0
 18 47  1  0
 19 48  1  0
 22 49  1  0
 22 50  1  0
 23 51  1  0
 23 52  1  0
 24 53  1  0
 24 54  1  0
 25 55  1  0
 25 56  1  0
 27 57  1  0
 28 58  1  0
 29 59  1  0
 30 60  1  0
 31 61  1  0
 32 62  1  0
 33 63  1  0
 34 64  1  0
 36 65  1  0
M  END
$$$$
[H]OC([H])([H])C([H])([H])N1C([H])([H])C([H])([H])N(C2([H])C([H])([H])C([H])([H])N(c3c([H])c([H])c(N([H])c4nc([H])c(Cl)c(N([H])c5c([H])c([H])c([H])c([H])c5S(=O)(=O)C([H])(C([H])([H])[H])C([H])([H])[H])n4)c(OC([H])([H])[H])c3[H])C([H])([H])C2([H])[H])C([H])([H])C1([H])[H]
     RDKit          3D

 86 90  0  0  0  0  0  0  0  0999 V2000
   -2.3459   -2.1504   -4.2563 C   0  0  0  0  0  0  0  0  0  0  0  0
   -0.9888   -2.0985   -3.8706 O   0  0  0  0  0  0  0  0  0  0  0  0
   -0.6176   -1.4203   -2.7103 C   0  0  0  0  0  0  0  0  0  0  0  0
   -1.5770   -0.8045   -1.9469 C   0  0  0  0  0  0  0  0  0  0  0  0
   -1.2657   -0.1240   -0.7955 C   0  0  0  0  0  0  0  0  0  0  0  0
    0.0673   -0.0988   -0.4576 C   0  0  0  0  0  0  0  0  0  0  0  0
    1.0667   -0.7112   -1.2053 C   0  0  0  0  0  0  0  0  0  0  0  0
    0.7274   -1.3800   -2.3455 C   0  0  0  0  0  0  0  0  0  0  0  0
    1.6716   -2.0273   -3.1764 N   0  0  0  0  0  0  0  0  0  0  0  0
    3.0441   -2.1878   -3.0782 C   0  0  0  0  0  0  0  0  0  0  0  0
    3.6362   -2.9294   -4.0905 N   0  0  0  0  0  0  0  0  0  0  0  0
    4.9418   -3.1767   -4.1246 C   0  0  0  0  0  0  0  0  0  0  0  0
    5.7750   -2.7010   -3.1448 C   0  0  0  0  0  0  0  0  0  0  0  0
    7.4819   -3.0613   -3.2530 Cl  0  0  0  0  0  0  0  0  0  0  0  0
    5.2171   -1.9456   -2.1044 C   0  0  0  0  0  0  0  0  0  0  0  0
    6.1120   -1.5387   -1.1019 N   0  0  0  0  0  0  0  0  0  0  0  0
    5.9386   -0.7127    0.0129 C   0  0  0  0  0  0  0  0  0  0  0  0
    4.8734    0.1680    0.1570 C   0  0  0  0  0  0  0  0  0  0  0  0
    4.8025    0.9774    1.2704 C   0  0  0  0  0  0  0  0  0  0  0  0
    5.7488    0.9565    2.2598 C   0  0  0  0  0  0  0  0  0  0  0  0
    6.8117    0.0568    2.0826 C   0  0  0  0  0  0  0  0  0  0  0  0
    6.9358   -0.7693    1.0028 C   0  0  0  0  0  0  0  0  0  0  0  0
    8.2849   -1.8304    0.9188 S   0  0  0  0  0  0  0  0  0  0  0  0
    7.7680   -3.2451    0.9584 O   0  0  0  0  0  0  0  0  0  0  0  0
    9.2142   -1.6411   -0.2205 O   0  0  0  0  0  0  0  0  0  0  0  0
    9.2964   -1.6299    2.3919 C   0  0  0  0  0  0  0  0  0  0  0  0
   10.3484   -2.7514    2.2975 C   0  0  0  0  0  0  0  0  0  0  0  0
   10.0624   -0.3513    2.4036 C   0  0  0  0  0  0  0  0  0  0  0  0
    3.8922   -1.7527   -2.1616 N   0  0  0  0  0  0  0  0  0  0  0  0
   -2.2004    0.5129    0.0575 N   0  0  0  0  0  0  0  0  0  0  0  0
   -3.4741   -0.1017    0.2961 C   0  0  0  0  0  0  0  0  0  0  0  0
   -4.6234    0.8650    0.3140 C   0  0  0  0  0  0  0  0  0  0  0  0
   -4.2638    2.0813    1.1438 C   0  0  0  0  0  0  0  0  0  0  0  0
   -3.0368    2.7638    0.6634 C   0  0  0  0  0  0  0  0  0  0  0  0
   -1.8725    1.7645    0.6600 C   0  0  0  0  0  0  0  0  0  0  0  0
   -5.4143    2.8795    1.3399 N   0  0  0  0  0  0  0  0  0  0  0  0
   -6.0506    3.4296    0.1996 C   0  0  0  0  0  0  0  0  0  0  0  0
   -7.3767    2.7117   -0.0831 C   0  0  0  0  0  0  0  0  0  0  0  0
   -8.2662    2.9710    0.9968 N   0  0  0  0  0  0  0  0  0  0  0  0
   -9.1442    1.8806    1.3222 C   0  0  0  0  0  0  0  0  0  0  0  0
  -10.1784    1.5547    0.3038 C   0  0  0  0  0  0  0  0  0  0  0  0
  -11.0582    2.5669    0.0040 O   0  0  0  0  0  0  0  0  0  0  0  0
   -7.5691    3.3588    2.2327 C   0  0  0  0  0  0  0  0  0  0  0  0
   -6.3495    2.4395    2.3242 C   0  0  0  0  0  0  0  0  0  0  0  0
   -2.3947   -2.6541   -5.2658 H   0  0  0  0  0  0  0  0  0  0  0  0
   -2.7423   -1.1215   -4.4086 H   0  0  0  0  0  0  0  0  0  0  0  0
   -2.9300   -2.7158   -3.4951 H   0  0  0  0  0  0  0  0  0  0  0  0
   -2.6335   -0.8300   -2.2347 H   0  0  0  0  0  0  0  0  0  0  0  0
    0.3606    0.4252    0.4401 H   0  0  0  0  0  0  0  0  0  0  0  0
    2.0845   -0.6710   -0.8889 H   0  0  0  0  0  0  0  0  0  0  0  0
    1.2420   -2.4924   -4.0785 H   0  0  0  0  0  0  0  0  0  0  0  0
    5.3802   -3.7709   -4.9451 H   0  0  0  0  0  0  0  0  0  0  0  0
    7.1069   -1.9337   -1.2145 H   0  0  0  0  0  0  0  0  0  0  0  0
    4.1308    0.2164   -0.6278 H   0  0  0  0  0  0  0  0  0  0  0  0
    3.9481    1.6413    1.3242 H   0  0  0  0  0  0  0  0  0  0  0  0
    5.6853    1.5988    3.1372 H   0  0  0  0  0  0  0  0  0  0  0  0
    7.5239    0.0882    2.9110 H   0  0  0  0  0  0  0  0  0  0  0  0
    8.7490   -1.8099    3.3137 H   0  0  0  0  0  0  0  0  0  0  0  0
    9.9208   -3.7202    2.6315 H   0  0  0  0  0  0  0  0  0  0  0  0
   11.2300   -2.5372    2.9322 H   0  0  0  0  0  0  0  0  0  0  0  0
   10.7052   -2.8725    1.2574 H   0  0  0  0  0  0  0  0  0  0  0  0
    9.9643    0.0795    3.4441 H   0  0  0  0  0  0  0  0  0  0  0  0
    9.5920    0.4054    1.7422 H   0  0  0  0  0  0  0  0  0  0  0  0
   11.1403   -0.4664    2.2251 H   0  0  0  0  0  0  0  0  0  0  0  0
   -3.4353   -0.7003    1.2444 H   0  0  0  0  0  0  0  0  0  0  0  0
   -3.6305   -0.8938   -0.4929 H   0  0  0  0  0  0  0  0  0  0  0  0
   -5.4526    0.3536    0.8617 H   0  0  0  0  0  0  0  0  0  0  0  0
   -4.8710    1.1234   -0.7259 H   0  0  0  0  0  0  0  0  0  0  0  0
   -4.0022    1.6515    2.1623 H   0  0  0  0  0  0  0  0  0  0  0  0
   -2.7693    3.5499    1.4150 H   0  0  0  0  0  0  0  0  0  0  0  0
   -3.0916    3.1653   -0.3529 H   0  0  0  0  0  0  0  0  0  0  0  0
   -1.4700    1.6535    1.6842 H   0  0  0  0  0  0  0  0  0  0  0  0
   -1.0228    2.2133    0.0552 H   0  0  0  0  0  0  0  0  0  0  0  0
   -6.3709    4.4843    0.4478 H   0  0  0  0  0  0  0  0  0  0  0  0
   -5.4250    3.5274   -0.6998 H   0  0  0  0  0  0  0  0  0  0  0  0
   -7.7573    3.1900   -1.0276 H   0  0  0  0  0  0  0  0  0  0  0  0
   -7.1458    1.6564   -0.2206 H   0  0  0  0  0  0  0  0  0  0  0  0
   -9.6772    2.1490    2.2662 H   0  0  0  0  0  0  0  0  0  0  0  0
   -8.5643    0.9578    1.5119 H   0  0  0  0  0  0  0  0  0  0  0  0
   -9.7443    1.0730   -0.6152 H   0  0  0  0  0  0  0  0  0  0  0  0
  -10.8044    0.7288    0.7567 H   0  0  0  0  0  0  0  0  0  0  0  0
  -10.7455    2.9876   -0.8374 H   0  0  0  0  0  0  0  0  0  0  0  0
   -8.2178    3.1438    3.1143 H   0  0  0  0  0  0  0  0  0  0  0  0
   -7.3087    4.4153    2.2504 H   0  0  0  0  0  0  0  0  0  0  0  0
   -6.7051    1.4146    2.1874 H   0  0  0  0  0  0  0  0  0  0  0  0
   -5.8972    2.6267    3.3285 H   0  0  0  0  0  0  0  0  0  0  0  0
  1  2  1  0
  2  3  1  0
  3  4  2  0
  4  5  1  0
  5  6  2  0
  6  7  1  0
  7  8  2  0
  8  9  1  0
  9 10  1  0
 10 11  2  0
 11 12  1  0
 12 13  2  0
 13 14  1  0
 13 15  1  0
 15 16  1  0
 16 17  1  0
 17 18  2  0
 18 19  1  0
 19 20  2  0
 20 21  1  0
 21 22  2  0
 22 23  1  0
 23 24  2  0
 23 25  2  0
 23 26  1  0
 26 27  1  0
 26 28  1  0
 15 29  2  0
  5 30  1  0
 30 31  1  0
 31 32  1  0
 32 33  1  0
 33 34  1  0
 34 35  1  0
 33 36  1  0
 36 37  1  0
 37 38  1  0
 38 39  1  0
 39 40  1  0
 40 41  1  0
 41 42  1  0
 39 43  1  0
 43 44  1  0
  8  3  1  0
 29 10  1  0
 35 30  1  0
 44 36  1  0
 22 17  1  0
  1 45  1  0
  1 46  1  0
  1 47  1  0
  4 48  1  0
  6 49  1  0
  7 50  1  0
  9 51  1  0
 12 52  1  0
 16 53  1  0
 18 54  1  0
 19 55  1  0
 20 56  1  0
 21 57  1  0
 26 58  1  0
 27 59  1  0
 27 60  1  0
 27 61  1  0
 28 62  1  0
 28 63  1  0
 28 64  1  0
 31 65  1  0
 31 66  1  0
 32 67  1  0
 32 68  1  0
 33 69  1  0
 34 70  1  0
 34 71  1  0
 35 72  1  0
 35 73  1  0
 37 74  1  0
 37 75  1  0
 38 76  1  0
 38 77  1  0
 40 78  1  0
 40 79  1  0
 41 80  1  0
 41 81  1  0
 42 82  1  0
 43 83  1  0
 43 84  1  0
 44 85  1  0
 44 86  1  0
M  END
$$$$
[H]ON([H])C(=O)[C@]([H])(N(C([H])([H])c1c([H])nc([H])c([H])c1[H])S(=O)(=O)c1c([H])c([H])c(OC([H])([H])[H])c([H])c1[H])C([H])(C([H])([H])[H])C([H])([H])[H]
     RDKit          3D

 50 51  0  0  0  0  0  0  0  0999 V2000
    5.6828    3.0361    0.3438 C   0  0  0  0  0  0  0  0  0  0  0  0
    5.2561    1.7980    0.8213 O   0  0  0  0  0  0  0  0  0  0  0  0
    4.0958    1.1588    0.3350 C   0  0  0  0  0  0  0  0  0  0  0  0
    3.3291    1.7445   -0.6461 C   0  0  0  0  0  0  0  0  0  0  0  0
    2.1826    1.1148   -1.1278 C   0  0  0  0  0  0  0  0  0  0  0  0
    1.7809   -0.1089   -0.6401 C   0  0  0  0  0  0  0  0  0  0  0  0
    2.5727   -0.6601    0.3380 C   0  0  0  0  0  0  0  0  0  0  0  0
    3.7052   -0.0611    0.8289 C   0  0  0  0  0  0  0  0  0  0  0  0
    0.3691   -0.9783   -1.1970 S   0  0  0  0  0  0  0  0  0  0  0  0
    0.7339   -2.4383   -1.2702 O   0  0  0  0  0  0  0  0  0  0  0  0
    0.2173   -0.5826   -2.6770 O   0  0  0  0  0  0  0  0  0  0  0  0
   -1.0441   -0.6005   -0.4116 N   0  0  0  0  0  0  0  0  0  0  0  0
   -1.4524    0.7493   -0.5409 C   0  0  0  0  0  0  0  0  0  0  0  0
   -0.9990    1.6822    0.5165 C   0  0  0  0  0  0  0  0  0  0  0  0
   -1.1536    3.0586    0.3057 C   0  0  0  0  0  0  0  0  0  0  0  0
   -0.7632    3.9754    1.2563 C   0  0  0  0  0  0  0  0  0  0  0  0
   -0.2079    3.5550    2.4446 C   0  0  0  0  0  0  0  0  0  0  0  0
   -0.0650    2.2353    2.6348 N   0  0  0  0  0  0  0  0  0  0  0  0
   -0.4449    1.3051    1.7055 C   0  0  0  0  0  0  0  0  0  0  0  0
   -2.1830   -1.4931   -0.5376 C   0  0  2  0  0  0  0  0  0  0  0  0
   -1.9930   -2.7696    0.2096 C   0  0  0  0  0  0  0  0  0  0  0  0
   -3.1725   -3.7035    0.1981 C   0  0  0  0  0  0  0  0  0  0  0  0
   -1.6447   -2.5000    1.6675 C   0  0  0  0  0  0  0  0  0  0  0  0
   -2.6854   -1.5579   -1.8884 C   0  0  0  0  0  0  0  0  0  0  0  0
   -2.5985   -0.4321   -2.5686 O   0  0  0  0  0  0  0  0  0  0  0  0
   -3.2486   -2.5999   -2.6205 N   0  0  0  0  0  0  0  0  0  0  0  0
   -3.6697   -2.4015   -3.9376 O   0  0  0  0  0  0  0  0  0  0  0  0
    5.1563    3.8246    0.9480 H   0  0  0  0  0  0  0  0  0  0  0  0
    5.5888    3.1934   -0.7311 H   0  0  0  0  0  0  0  0  0  0  0  0
    6.7642    3.1447    0.6498 H   0  0  0  0  0  0  0  0  0  0  0  0
    3.6335    2.7120   -1.0419 H   0  0  0  0  0  0  0  0  0  0  0  0
    1.5772    1.5787   -1.9036 H   0  0  0  0  0  0  0  0  0  0  0  0
    2.2984   -1.6229    0.7542 H   0  0  0  0  0  0  0  0  0  0  0  0
    4.3115   -0.5225    1.6037 H   0  0  0  0  0  0  0  0  0  0  0  0
   -1.1406    1.1995   -1.5389 H   0  0  0  0  0  0  0  0  0  0  0  0
   -2.5760    0.8616   -0.5712 H   0  0  0  0  0  0  0  0  0  0  0  0
   -1.5892    3.3834   -0.6269 H   0  0  0  0  0  0  0  0  0  0  0  0
   -0.8700    5.0507    1.1224 H   0  0  0  0  0  0  0  0  0  0  0  0
    0.1108    4.2625    3.2173 H   0  0  0  0  0  0  0  0  0  0  0  0
   -0.3047    0.2669    1.9036 H   0  0  0  0  0  0  0  0  0  0  0  0
   -2.9881   -0.9497    0.0841 H   0  0  0  0  0  0  0  0  0  0  0  0
   -1.1413   -3.3806   -0.1782 H   0  0  0  0  0  0  0  0  0  0  0  0
   -3.0129   -4.6488   -0.3448 H   0  0  0  0  0  0  0  0  0  0  0  0
   -3.3667   -4.0744    1.2718 H   0  0  0  0  0  0  0  0  0  0  0  0
   -4.0975   -3.2348   -0.1671 H   0  0  0  0  0  0  0  0  0  0  0  0
   -1.6762   -3.5026    2.1830 H   0  0  0  0  0  0  0  0  0  0  0  0
   -0.6352   -2.1104    1.8043 H   0  0  0  0  0  0  0  0  0  0  0  0
   -2.3618   -1.8396    2.1575 H   0  0  0  0  0  0  0  0  0  0  0  0
   -3.3972   -3.5662   -2.3248 H   0  0  0  0  0  0  0  0  0  0  0  0
   -2.8832   -2.5513   -4.5208 H   0  0  0  0  0  0  0  0  0  0  0  0
  1  2  1  0
  2  3  1  0
  3  4  2  0
  4  5  1  0
  5  6  2  0
  6  7  1  0
  7  8  2  0
  6  9  1  0
  9 10  2  0
  9 11  2  0
  9 12  1  0
 12 13  1  0
 13 14  1  0
 14 15  2  0
 15 16  1  0
 16 17  2  0
 17 18  1  0
 18 19  2  0
 12 20  1  0
 20 21  1  0
 21 22  1  0
 21 23  1  0
 20 24  1  0
 24 25  2  0
 24 26  1  0
 26 27  1  0
  8  3  1  0
 19 14  1  0
  1 28  1  0
  1 29  1  0
  1 30  1  0
  4 31  1  0
  5 32  1  0
  7 33  1  0
  8 34  1  0
 13 35  1  0
 13 36  1  0
 15 37  1  0
 16 38  1  0
 17 39  1  0
 19 40  1  0
 20 41  1  1
 21 42  1  0
 22 43  1  0
 22 44  1  0
 22 45  1  0
 23 46  1  0
 23 47  1  0
 23 48  1  0
 26 49  1  0
 27 50  1  0
M  END
$$$$
[H]c1nc(O[C@]2([H])C([H])([H])[C@]([H])(N([H])c3nc4c([H])c([H])c([H])c([H])c4s3)C2([H])[H])c(C2([H])C([H])([H])C([H])([H])N(C(=O)C([H])([H])[H])C([H])([H])C2([H])[H])nc1[H]
     RDKit          3D

 55 59  0  0  0  0  0  0  0  0999 V2000
   -7.7043   -0.3741    1.4199 C   0  0  0  0  0  0  0  0  0  0  0  0
   -7.1710    0.0242    0.0857 C   0  0  0  0  0  0  0  0  0  0  0  0
   -8.0681    0.4526   -0.7413 O   0  0  0  0  0  0  0  0  0  0  0  0
   -5.8234   -0.0574   -0.2639 N   0  0  0  0  0  0  0  0  0  0  0  0
   -4.9220   -0.5659    0.7910 C   0  0  0  0  0  0  0  0  0  0  0  0
   -4.0877   -1.5800    0.0560 C   0  0  0  0  0  0  0  0  0  0  0  0
   -3.1485   -0.9708   -0.8868 C   0  0  0  0  0  0  0  0  0  0  0  0
   -4.1272   -0.4741   -2.0506 C   0  0  0  0  0  0  0  0  0  0  0  0
   -5.3049    0.2646   -1.5494 C   0  0  0  0  0  0  0  0  0  0  0  0
   -2.4274    0.2649   -0.5573 C   0  0  0  0  0  0  0  0  0  0  0  0
   -3.0724    1.4364   -0.4088 N   0  0  0  0  0  0  0  0  0  0  0  0
   -2.3925    2.5984   -0.3630 C   0  0  0  0  0  0  0  0  0  0  0  0
   -1.0297    2.5756   -0.4667 C   0  0  0  0  0  0  0  0  0  0  0  0
   -0.3842    1.4078   -0.6119 N   0  0  0  0  0  0  0  0  0  0  0  0
   -1.0100    0.2328   -0.6598 C   0  0  0  0  0  0  0  0  0  0  0  0
   -0.3858   -0.9952   -0.7772 O   0  0  0  0  0  0  0  0  0  0  0  0
    0.9892   -1.1028   -0.8406 C   0  0  2  0  0  0  0  0  0  0  0  0
    1.6586   -2.1805    0.0255 C   0  0  0  0  0  0  0  0  0  0  0  0
    2.8171   -1.2595    0.1065 C   0  0  1  0  0  0  0  0  0  0  0  0
    1.6698   -0.1456    0.2364 C   0  0  0  0  0  0  0  0  0  0  0  0
    3.6572   -1.1196    1.2605 N   0  0  0  0  0  0  0  0  0  0  0  0
    4.9569   -0.5771    0.9467 C   0  0  0  0  0  0  0  0  0  0  0  0
    5.8906   -0.0885    1.7175 N   0  0  0  0  0  0  0  0  0  0  0  0
    7.0480    0.2707    1.2251 C   0  0  0  0  0  0  0  0  0  0  0  0
    8.1254    0.8285    1.9312 C   0  0  0  0  0  0  0  0  0  0  0  0
    9.2746    1.1703    1.2975 C   0  0  0  0  0  0  0  0  0  0  0  0
    9.4851    1.0074   -0.0744 C   0  0  0  0  0  0  0  0  0  0  0  0
    8.4313    0.4648   -0.7614 C   0  0  0  0  0  0  0  0  0  0  0  0
    7.2349    0.1051   -0.1297 C   0  0  0  0  0  0  0  0  0  0  0  0
    5.7340   -0.5457   -0.6009 S   0  0  0  0  0  0  0  0  0  0  0  0
   -8.7443   -0.0220    1.5584 H   0  0  0  0  0  0  0  0  0  0  0  0
   -7.0688    0.0026    2.2247 H   0  0  0  0  0  0  0  0  0  0  0  0
   -7.7484   -1.4967    1.4920 H   0  0  0  0  0  0  0  0  0  0  0  0
   -4.3550    0.2043    1.3025 H   0  0  0  0  0  0  0  0  0  0  0  0
   -5.5679   -1.1103    1.5491 H   0  0  0  0  0  0  0  0  0  0  0  0
   -3.6151   -2.3333    0.7427 H   0  0  0  0  0  0  0  0  0  0  0  0
   -4.8339   -2.1965   -0.5309 H   0  0  0  0  0  0  0  0  0  0  0  0
   -2.5577   -1.7208   -1.4335 H   0  0  0  0  0  0  0  0  0  0  0  0
   -3.4981    0.2185   -2.6318 H   0  0  0  0  0  0  0  0  0  0  0  0
   -4.3678   -1.3388   -2.6704 H   0  0  0  0  0  0  0  0  0  0  0  0
   -5.2523    1.3864   -1.6650 H   0  0  0  0  0  0  0  0  0  0  0  0
   -6.1565    0.0105   -2.2751 H   0  0  0  0  0  0  0  0  0  0  0  0
   -2.9769    3.5233   -0.2500 H   0  0  0  0  0  0  0  0  0  0  0  0
   -0.4536    3.4841   -0.4388 H   0  0  0  0  0  0  0  0  0  0  0  0
    1.5349   -0.8226   -1.7390 H   0  0  0  0  0  0  0  0  0  0  0  0
    1.1604   -2.2610    1.0257 H   0  0  0  0  0  0  0  0  0  0  0  0
    1.8269   -3.1409   -0.4802 H   0  0  0  0  0  0  0  0  0  0  0  0
    3.2793   -1.0420   -0.8697 H   0  0  0  0  0  0  0  0  0  0  0  0
    1.1296   -0.2482    1.1759 H   0  0  0  0  0  0  0  0  0  0  0  0
    1.9777    0.7924   -0.1483 H   0  0  0  0  0  0  0  0  0  0  0  0
    3.4267   -1.3525    2.2318 H   0  0  0  0  0  0  0  0  0  0  0  0
    8.0551    0.9952    3.0186 H   0  0  0  0  0  0  0  0  0  0  0  0
   10.0794    1.6000    1.8694 H   0  0  0  0  0  0  0  0  0  0  0  0
   10.3834    1.2736   -0.5942 H   0  0  0  0  0  0  0  0  0  0  0  0
    8.4292    0.2603   -1.8197 H   0  0  0  0  0  0  0  0  0  0  0  0
  1  2  1  0
  2  3  2  0
  2  4  1  0
  4  5  1  0
  5  6  1  0
  6  7  1  0
  7  8  1  0
  8  9  1  0
  7 10  1  0
 10 11  2  0
 11 12  1  0
 12 13  2  0
 13 14  1  0
 14 15  2  0
 15 16  1  0
 16 17  1  0
 17 18  1  0
 18 19  1  0
 19 20  1  0
 19 21  1  0
 21 22  1  0
 22 23  2  0
 23 24  1  0
 24 25  2  0
 25 26  1  0
 26 27  2  0
 27 28  1  0
 28 29  2  0
 29 30  1  0
  9  4  1  0
 15 10  1  0
 20 17  1  0
 30 22  1  0
 29 24  1  0
  1 31  1  0
  1 32  1  0
  1 33  1  0
  5 34  1  0
  5 35  1  0
  6 36  1  0
  6 37  1  0
  7 38  1  0
  8 39  1  0
  8 40  1  0
  9 41  1  0
  9 42  1  0
 12 43  1  0
 13 44  1  0
 17 45  1  6
 18 46  1  0
 18 47  1  0
 19 48  1  6
 20 49  1  0
 20 50  1  0
 21 51  1  0
 25 52  1  0
 26 53  1  0
 27 54  1  0
 28 55  1  0
M  END
$$$$
[H]ON([H])C(=O)C(N([H])C(=O)[C@@]1([H])N(C(=O)[C@]([H])(C([H])([H])N(O[H])C([H])=O)C([H])([H])C([H])([H])C([H])([H])C([H])([H])[H])C([H])([H])C([H])([H])C1([H])[H])(C([H])([H])[H])C([H])([H])[H]
     RDKit          3D

 57 57  0  0  0  0  0  0  0  0999 V2000
   -2.7395    3.8144    2.2460 C   0  0  0  0  0  0  0  0  0  0  0  0
   -1.4528    3.5632    1.4509 C   0  0  0  0  0  0  0  0  0  0  0  0
   -1.6966    2.2939    0.6373 C   0  0  0  0  0  0  0  0  0  0  0  0
   -1.9793    1.1989    1.6206 C   0  0  0  0  0  0  0  0  0  0  0  0
   -2.2448   -0.1410    0.9135 C   0  0  1  0  0  0  0  0  0  0  0  0
   -3.3801   -0.0876    0.0216 C   0  0  0  0  0  0  0  0  0  0  0  0
   -3.7005   -1.3177   -0.6534 N   0  0  0  0  0  0  0  0  0  0  0  0
   -4.5384   -2.1947    0.0150 O   0  0  0  0  0  0  0  0  0  0  0  0
   -3.2343   -1.7087   -1.9279 C   0  0  0  0  0  0  0  0  0  0  0  0
   -3.5893   -2.8575   -2.3693 O   0  0  0  0  0  0  0  0  0  0  0  0
   -0.9265   -0.6489    0.4807 C   0  0  0  0  0  0  0  0  0  0  0  0
   -0.7006   -0.4144   -0.7336 O   0  0  0  0  0  0  0  0  0  0  0  0
   -0.0181   -1.3079    1.2973 N   0  0  0  0  0  0  0  0  0  0  0  0
   -0.2147   -1.6794    2.7256 C   0  0  0  0  0  0  0  0  0  0  0  0
    0.5992   -2.9455    2.9040 C   0  0  0  0  0  0  0  0  0  0  0  0
    1.0627   -3.2537    1.4953 C   0  0  0  0  0  0  0  0  0  0  0  0
    1.2852   -1.8248    1.0510 C   0  0  1  0  0  0  0  0  0  0  0  0
    1.9901   -1.5942   -0.1597 C   0  0  0  0  0  0  0  0  0  0  0  0
    2.4521   -2.5543   -0.8509 O   0  0  0  0  0  0  0  0  0  0  0  0
    2.2233   -0.2858   -0.6603 N   0  0  0  0  0  0  0  0  0  0  0  0
    2.9320   -0.0239   -1.8830 C   0  0  0  0  0  0  0  0  0  0  0  0
    2.2453   -0.6667   -3.0672 C   0  0  0  0  0  0  0  0  0  0  0  0
    4.3580   -0.5213   -1.8563 C   0  0  0  0  0  0  0  0  0  0  0  0
    2.9707    1.4283   -2.1383 C   0  0  0  0  0  0  0  0  0  0  0  0
    2.4347    2.2397   -1.3505 O   0  0  0  0  0  0  0  0  0  0  0  0
    3.6208    1.9700   -3.2938 N   0  0  0  0  0  0  0  0  0  0  0  0
    3.6619    3.2943   -3.5357 O   0  0  0  0  0  0  0  0  0  0  0  0
   -3.6150    3.3914    1.6765 H   0  0  0  0  0  0  0  0  0  0  0  0
   -2.9419    4.9041    2.3352 H   0  0  0  0  0  0  0  0  0  0  0  0
   -2.6944    3.3421    3.2396 H   0  0  0  0  0  0  0  0  0  0  0  0
   -0.5779    3.4885    2.0959 H   0  0  0  0  0  0  0  0  0  0  0  0
   -1.3872    4.4231    0.7323 H   0  0  0  0  0  0  0  0  0  0  0  0
   -2.5543    2.5264   -0.0272 H   0  0  0  0  0  0  0  0  0  0  0  0
   -0.8285    2.0706   -0.0205 H   0  0  0  0  0  0  0  0  0  0  0  0
   -1.1090    1.1081    2.2967 H   0  0  0  0  0  0  0  0  0  0  0  0
   -2.8761    1.5025    2.1972 H   0  0  0  0  0  0  0  0  0  0  0  0
   -2.5202   -0.8162    1.7904 H   0  0  0  0  0  0  0  0  0  0  0  0
   -3.3876    0.7826   -0.6933 H   0  0  0  0  0  0  0  0  0  0  0  0
   -4.2983    0.1466    0.6538 H   0  0  0  0  0  0  0  0  0  0  0  0
   -5.3046   -2.3316   -0.5990 H   0  0  0  0  0  0  0  0  0  0  0  0
   -2.6021   -1.1235   -2.5742 H   0  0  0  0  0  0  0  0  0  0  0  0
    0.1326   -0.8897    3.3894 H   0  0  0  0  0  0  0  0  0  0  0  0
   -1.2659   -1.9963    2.8824 H   0  0  0  0  0  0  0  0  0  0  0  0
    0.0152   -3.7812    3.3403 H   0  0  0  0  0  0  0  0  0  0  0  0
    1.5320   -2.7562    3.4932 H   0  0  0  0  0  0  0  0  0  0  0  0
    0.2504   -3.6540    0.8543 H   0  0  0  0  0  0  0  0  0  0  0  0
    1.9528   -3.8795    1.4456 H   0  0  0  0  0  0  0  0  0  0  0  0
    1.8961   -1.3627    1.9408 H   0  0  0  0  0  0  0  0  0  0  0  0
    1.8735    0.5181   -0.0987 H   0  0  0  0  0  0  0  0  0  0  0  0
    2.6555   -1.7084   -3.1674 H   0  0  0  0  0  0  0  0  0  0  0  0
    1.1606   -0.7488   -2.9683 H   0  0  0  0  0  0  0  0  0  0  0  0
    2.5301   -0.1466   -4.0110 H   0  0  0  0  0  0  0  0  0  0  0  0
    4.8255   -0.4489   -0.8689 H   0  0  0  0  0  0  0  0  0  0  0  0
    4.9437    0.1194   -2.5479 H   0  0  0  0  0  0  0  0  0  0  0  0
    4.4406   -1.5684   -2.2603 H   0  0  0  0  0  0  0  0  0  0  0  0
    4.0950    1.3529   -4.0037 H   0  0  0  0  0  0  0  0  0  0  0  0
    4.2388    3.7608   -2.9024 H   0  0  0  0  0  0  0  0  0  0  0  0
  1  2  1  0
  2  3  1  0
  3  4  1  0
  4  5  1  0
  5  6  1  0
  6  7  1  0
  7  8  1  0
  7  9  1  0
  9 10  2  0
  5 11  1  0
 11 12  2  0
 11 13  1  0
 13 14  1  0
 14 15  1  0
 15 16  1  0
 16 17  1  0
 17 18  1  0
 18 19  2  0
 18 20  1  0
 20 21  1  0
 21 22  1  0
 21 23  1  0
 21 24  1  0
 24 25  2  0
 24 26  1  0
 26 27  1  0
 17 13  1  0
  1 28  1  0
  1 29  1  0
  1 30  1  0
  2 31  1  0
  2 32  1  0
  3 33  1  0
  3 34  1  0
  4 35  1  0
  4 36  1  0
  5 37  1  1
  6 38  1  0
  6 39  1  0
  8 40  1  0
  9 41  1  0
 14 42  1  0
 14 43  1  0
 15 44  1  0
 15 45  1  0
 16 46  1  0
 16 47  1  0
 17 48  1  1
 20 49  1  0
 22 50  1  0
 22 51  1  0
 22 52  1  0
 23 53  1  0
 23 54  1  0
 23 55  1  0
 26 56  1  0
 27 57  1  0
M  END
$$$$
[H]O[C@]1([H])[C@@]([H])(C([H])([H])OS(=O)(=O)N([H])C(=O)[C@@]([H])(N([H])[H])C([H])([H])C([H])(C([H])([H])[H])C([H])([H])[H])O[C@@]([H])(n2c([H])nc3c(N([H])[H])nc([H])nc32)[C@]1([H])O[H]
     RDKit          3D

 56 58  0  0  0  0  0  0  0  0999 V2000
   -7.6282    1.2650    1.5023 C   0  0  0  0  0  0  0  0  0  0  0  0
   -7.1072    0.3956    0.3697 C   0  0  0  0  0  0  0  0  0  0  0  0
   -7.8314    0.7583   -0.8779 C   0  0  0  0  0  0  0  0  0  0  0  0
   -5.6094    0.4616    0.2946 C   0  0  0  0  0  0  0  0  0  0  0  0
   -5.0199   -0.3450   -0.7972 C   0  0  2  0  0  0  0  0  0  0  0  0
   -5.2972   -1.7599   -0.7414 N   0  0  0  0  0  0  0  0  0  0  0  0
   -3.5413   -0.1884   -0.8015 C   0  0  0  0  0  0  0  0  0  0  0  0
   -2.9707    0.3462    0.1773 O   0  0  0  0  0  0  0  0  0  0  0  0
   -2.8011   -0.6481   -1.9173 N   0  0  0  0  0  0  0  0  0  0  0  0
   -1.0869   -0.5332   -2.0472 S   0  0  0  0  0  0  0  0  0  0  0  0
   -0.6821    0.3788   -3.1727 O   0  0  0  0  0  0  0  0  0  0  0  0
   -0.4884   -1.8934   -2.3857 O   0  0  0  0  0  0  0  0  0  0  0  0
   -0.4706   -0.0589   -0.5853 O   0  0  0  0  0  0  0  0  0  0  0  0
    0.8204   -0.5460   -0.3675 C   0  0  0  0  0  0  0  0  0  0  0  0
    1.3903   -0.1175    0.9655 C   0  0  1  0  0  0  0  0  0  0  0  0
    2.6573   -0.6600    1.0791 O   0  0  0  0  0  0  0  0  0  0  0  0
    3.6042    0.3343    0.9274 C   0  0  2  0  0  0  0  0  0  0  0  0
    2.8841    1.5149    0.2814 C   0  0  2  0  0  0  0  0  0  0  0  0
    3.5099    2.7168    0.4862 O   0  0  0  0  0  0  0  0  0  0  0  0
    1.5660    1.3904    1.0662 C   0  0  2  0  0  0  0  0  0  0  0  0
    1.7910    1.7486    2.3746 O   0  0  0  0  0  0  0  0  0  0  0  0
    4.7731   -0.0793    0.2182 N   0  0  0  0  0  0  0  0  0  0  0  0
    4.8612   -0.5380   -1.0273 C   0  0  0  0  0  0  0  0  0  0  0  0
    6.1604   -0.8229   -1.3209 N   0  0  0  0  0  0  0  0  0  0  0  0
    6.9259   -0.5392   -0.2361 C   0  0  0  0  0  0  0  0  0  0  0  0
    8.2755   -0.6319    0.0219 C   0  0  0  0  0  0  0  0  0  0  0  0
    9.1877   -1.1155   -0.9500 N   0  0  0  0  0  0  0  0  0  0  0  0
    8.7088   -0.2513    1.2458 N   0  0  0  0  0  0  0  0  0  0  0  0
    7.8648    0.2015    2.1809 C   0  0  0  0  0  0  0  0  0  0  0  0
    6.5532    0.2838    1.9110 N   0  0  0  0  0  0  0  0  0  0  0  0
    6.0355   -0.0727    0.7213 C   0  0  0  0  0  0  0  0  0  0  0  0
   -7.1132    2.2725    1.4659 H   0  0  0  0  0  0  0  0  0  0  0  0
   -8.7153    1.5302    1.3328 H   0  0  0  0  0  0  0  0  0  0  0  0
   -7.5670    0.7909    2.4830 H   0  0  0  0  0  0  0  0  0  0  0  0
   -7.3655   -0.6567    0.6834 H   0  0  0  0  0  0  0  0  0  0  0  0
   -7.3933    0.3540   -1.8089 H   0  0  0  0  0  0  0  0  0  0  0  0
   -7.9813    1.8612   -0.9165 H   0  0  0  0  0  0  0  0  0  0  0  0
   -8.8544    0.2844   -0.8090 H   0  0  0  0  0  0  0  0  0  0  0  0
   -5.3188    1.5277    0.1669 H   0  0  0  0  0  0  0  0  0  0  0  0
   -5.2102    0.1661    1.2839 H   0  0  0  0  0  0  0  0  0  0  0  0
   -5.3544    0.0928   -1.7732 H   0  0  0  0  0  0  0  0  0  0  0  0
   -5.0631   -2.2914   -1.5835 H   0  0  0  0  0  0  0  0  0  0  0  0
   -5.0668   -2.1950    0.1662 H   0  0  0  0  0  0  0  0  0  0  0  0
   -3.3120   -1.0765   -2.7150 H   0  0  0  0  0  0  0  0  0  0  0  0
    0.6986   -1.6649   -0.2978 H   0  0  0  0  0  0  0  0  0  0  0  0
    1.4989   -0.3645   -1.2175 H   0  0  0  0  0  0  0  0  0  0  0  0
    0.6865   -0.4215    1.7533 H   0  0  0  0  0  0  0  0  0  0  0  0
    3.8887    0.7166    1.9527 H   0  0  0  0  0  0  0  0  0  0  0  0
    2.7347    1.2346   -0.7829 H   0  0  0  0  0  0  0  0  0  0  0  0
    3.8480    3.0665   -0.3897 H   0  0  0  0  0  0  0  0  0  0  0  0
    0.7598    1.9658    0.6255 H   0  0  0  0  0  0  0  0  0  0  0  0
    1.8704    0.9316    2.9290 H   0  0  0  0  0  0  0  0  0  0  0  0
    4.0147   -0.6576   -1.6834 H   0  0  0  0  0  0  0  0  0  0  0  0
    9.8021   -0.4687   -1.4673 H   0  0  0  0  0  0  0  0  0  0  0  0
    9.2208   -2.1545   -1.1307 H   0  0  0  0  0  0  0  0  0  0  0  0
    8.2569    0.4889    3.1375 H   0  0  0  0  0  0  0  0  0  0  0  0
  1  2  1  0
  2  3  1  0
  2  4  1  0
  4  5  1  0
  5  6  1  0
  5  7  1  0
  7  8  2  0
  7  9  1  0
  9 10  1  0
 10 11  2  0
 10 12  2  0
 10 13  1  0
 13 14  1  0
 14 15  1  0
 15 16  1  0
 16 17  1  0
 17 18  1  0
 18 19  1  0
 18 20  1  0
 20 21  1  0
 17 22  1  0
 22 23  1  0
 23 24  2  0
 24 25  1  0
 25 26  2  0
 26 27  1  0
 26 28  1  0
 28 29  2  0
 29 30  1  0
 30 31  2  0
 20 15  1  0
 31 22  1  0
 31 25  1  0
  1 32  1  0
  1 33  1  0
  1 34  1  0
  2 35  1  0
  3 36  1  0
  3 37  1  0
  3 38  1  0
  4 39  1  0
  4 40  1  0
  5 41  1  6
  6 42  1  0
  6 43  1  0
  9 44  1  0
 14 45  1  0
 14 46  1  0
 15 47  1  1
 17 48  1  1
 18 49  1  6
 19 50  1  0
 20 51  1  6
 21 52  1  0
 23 53  1  0
 27 54  1  0
 27 55  1  0
 29 56  1  0
M  END
$$$$
[H]c1oc(C(=O)N2C([H])([H])C([H])([H])N(c3nc(N([H])[H])c4c([H])c(OC([H])([H])[H])c(OC([H])([H])[H])c([H])c4n3)C([H])([H])C2([H])[H])c([H])c1[H]
     RDKit          3D

 49 52  0  0  0  0  0  0  0  0999 V2000
   -4.4417    3.8483   -1.0782 C   0  0  0  0  0  0  0  0  0  0  0  0
   -5.1209    2.6915   -0.6539 O   0  0  0  0  0  0  0  0  0  0  0  0
   -4.4452    1.5500   -0.2596 C   0  0  0  0  0  0  0  0  0  0  0  0
   -3.0453    1.5755   -0.2941 C   0  0  0  0  0  0  0  0  0  0  0  0
   -2.3366    0.4596    0.0904 C   0  0  0  0  0  0  0  0  0  0  0  0
   -0.9845    0.4372    0.0738 N   0  0  0  0  0  0  0  0  0  0  0  0
   -0.2808   -0.6373    0.4437 C   0  0  0  0  0  0  0  0  0  0  0  0
   -0.9372   -1.7292    0.8445 N   0  0  0  0  0  0  0  0  0  0  0  0
   -2.2709   -1.7994    0.8937 C   0  0  0  0  0  0  0  0  0  0  0  0
   -2.8941   -2.9847    1.3271 N   0  0  0  0  0  0  0  0  0  0  0  0
   -2.9958   -0.6938    0.5131 C   0  0  0  0  0  0  0  0  0  0  0  0
   -4.3750   -0.6674    0.5287 C   0  0  0  0  0  0  0  0  0  0  0  0
   -5.1202    0.4214    0.1545 C   0  0  0  0  0  0  0  0  0  0  0  0
   -6.5107    0.4477    0.1704 O   0  0  0  0  0  0  0  0  0  0  0  0
   -7.3019   -0.6335    0.5698 C   0  0  0  0  0  0  0  0  0  0  0  0
    1.1254   -0.6357    0.4176 N   0  0  0  0  0  0  0  0  0  0  0  0
    1.8349    0.5537   -0.0191 C   0  0  0  0  0  0  0  0  0  0  0  0
    3.0063    0.1825   -0.9153 C   0  0  0  0  0  0  0  0  0  0  0  0
    3.7233   -0.9467   -0.4165 N   0  0  0  0  0  0  0  0  0  0  0  0
    2.8916   -2.1701   -0.2699 C   0  0  0  0  0  0  0  0  0  0  0  0
    1.8798   -1.8058    0.8208 C   0  0  0  0  0  0  0  0  0  0  0  0
    5.0715   -1.0353   -0.0575 C   0  0  0  0  0  0  0  0  0  0  0  0
    5.5118   -2.1579    0.3688 O   0  0  0  0  0  0  0  0  0  0  0  0
    6.0239    0.0526   -0.1288 C   0  0  0  0  0  0  0  0  0  0  0  0
    7.3830   -0.0149    0.2255 C   0  0  0  0  0  0  0  0  0  0  0  0
    7.9467    1.2181    0.0176 C   0  0  0  0  0  0  0  0  0  0  0  0
    6.9173    2.0009   -0.4565 C   0  0  0  0  0  0  0  0  0  0  0  0
    5.8421    1.2811   -0.5193 O   0  0  0  0  0  0  0  0  0  0  0  0
   -5.1758    4.6732   -1.1851 H   0  0  0  0  0  0  0  0  0  0  0  0
   -3.9330    3.7361   -2.0386 H   0  0  0  0  0  0  0  0  0  0  0  0
   -3.7004    4.1975   -0.3088 H   0  0  0  0  0  0  0  0  0  0  0  0
   -2.5238    2.4653   -0.6205 H   0  0  0  0  0  0  0  0  0  0  0  0
   -2.5313   -3.9286    1.0738 H   0  0  0  0  0  0  0  0  0  0  0  0
   -3.7488   -2.9519    1.9226 H   0  0  0  0  0  0  0  0  0  0  0  0
   -4.8759   -1.5575    0.8548 H   0  0  0  0  0  0  0  0  0  0  0  0
   -8.3096   -0.2886    0.8802 H   0  0  0  0  0  0  0  0  0  0  0  0
   -7.3609   -1.4191   -0.2162 H   0  0  0  0  0  0  0  0  0  0  0  0
   -6.8125   -1.0943    1.4689 H   0  0  0  0  0  0  0  0  0  0  0  0
    2.1513    1.1215    0.8731 H   0  0  0  0  0  0  0  0  0  0  0  0
    1.1764    1.2226   -0.6119 H   0  0  0  0  0  0  0  0  0  0  0  0
    2.5541   -0.1305   -1.9061 H   0  0  0  0  0  0  0  0  0  0  0  0
    3.5803    1.0808   -1.1110 H   0  0  0  0  0  0  0  0  0  0  0  0
    2.3585   -2.3940   -1.2035 H   0  0  0  0  0  0  0  0  0  0  0  0
    3.5039   -3.0082    0.0527 H   0  0  0  0  0  0  0  0  0  0  0  0
    1.2021   -2.6491    1.0415 H   0  0  0  0  0  0  0  0  0  0  0  0
    2.4498   -1.5618    1.7481 H   0  0  0  0  0  0  0  0  0  0  0  0
    7.8745   -0.8949    0.5944 H   0  0  0  0  0  0  0  0  0  0  0  0
    8.9877    1.5144    0.1911 H   0  0  0  0  0  0  0  0  0  0  0  0
    7.0366    3.0587   -0.7247 H   0  0  0  0  0  0  0  0  0  0  0  0
  1  2  1  0
  2  3  1  0
  3  4  2  0
  4  5  1  0
  5  6  2  0
  6  7  1  0
  7  8  2  0
  8  9  1  0
  9 10  1  0
  9 11  2  0
 11 12  1  0
 12 13  2  0
 13 14  1  0
 14 15  1  0
  7 16  1  0
 16 17  1  0
 17 18  1  0
 18 19  1  0
 19 20  1  0
 20 21  1  0
 19 22  1  0
 22 23  2  0
 22 24  1  0
 24 25  2  0
 25 26  1  0
 26 27  2  0
 27 28  1  0
 13  3  1  0
 21 16  1  0
 28 24  1  0
 11  5  1  0
  1 29  1  0
  1 30  1  0
  1 31  1  0
  4 32  1  0
 10 33  1  0
 10 34  1  0
 12 35  1  0
 15 36  1  0
 15 37  1  0
 15 38  1  0
 17 39  1  0
 17 40  1  0
 18 41  1  0
 18 42  1  0
 20 43  1  0
 20 44  1  0
 21 45  1  0
 21 46  1  0
 25 47  1  0
 26 48  1  0
 27 49  1  0
M  END
$$$$
[H]Oc1c([H])c([H])c2c(c1[H])C([H])([H])C([H])([H])N(S(=O)(=O)c1c([H])c([H])c(OC([H])([H])[H])c([H])c1[H])C2([H])C(=O)N([H])O[H]
     RDKit          3D

 44 46  0  0  0  0  0  0  0  0999 V2000
    6.7364    1.1346    0.5370 C   0  0  0  0  0  0  0  0  0  0  0  0
    5.9483    0.1367    1.1709 O   0  0  0  0  0  0  0  0  0  0  0  0
    4.7040   -0.2104    0.6346 C   0  0  0  0  0  0  0  0  0  0  0  0
    3.9485   -1.1825    1.2620 C   0  0  0  0  0  0  0  0  0  0  0  0
    2.7244   -1.5371    0.7509 C   0  0  0  0  0  0  0  0  0  0  0  0
    2.2059   -0.9509   -0.3873 C   0  0  0  0  0  0  0  0  0  0  0  0
    2.9776    0.0194   -0.9998 C   0  0  0  0  0  0  0  0  0  0  0  0
    4.2090    0.3896   -0.5025 C   0  0  0  0  0  0  0  0  0  0  0  0
    0.6496   -1.4399   -0.9893 S   0  0  0  0  0  0  0  0  0  0  0  0
    0.3929   -2.8698   -0.6117 O   0  0  0  0  0  0  0  0  0  0  0  0
    0.6562   -1.2996   -2.4889 O   0  0  0  0  0  0  0  0  0  0  0  0
   -0.5807   -0.4687   -0.2843 N   0  0  0  0  0  0  0  0  0  0  0  0
   -0.4608    0.9140   -0.5915 C   0  0  0  0  0  0  0  0  0  0  0  0
   -1.4087    1.6783    0.3469 C   0  0  0  0  0  0  0  0  0  0  0  0
   -2.7634    1.3319   -0.1479 C   0  0  0  0  0  0  0  0  0  0  0  0
   -3.8039    2.2248   -0.2307 C   0  0  0  0  0  0  0  0  0  0  0  0
   -5.0577    1.8297   -0.7126 C   0  0  0  0  0  0  0  0  0  0  0  0
   -6.0825    2.7612   -0.7805 O   0  0  0  0  0  0  0  0  0  0  0  0
   -5.2709    0.5351   -1.1133 C   0  0  0  0  0  0  0  0  0  0  0  0
   -4.2260   -0.3587   -1.0294 C   0  0  0  0  0  0  0  0  0  0  0  0
   -2.9687    0.0312   -0.5477 C   0  0  0  0  0  0  0  0  0  0  0  0
   -1.8888   -0.9819   -0.4799 C   0  0  0  0  0  0  0  0  0  0  0  0
   -2.2109   -1.8340    0.7216 C   0  0  0  0  0  0  0  0  0  0  0  0
   -3.3367   -2.3922    0.6934 O   0  0  0  0  0  0  0  0  0  0  0  0
   -1.3119   -1.9940    1.8029 N   0  0  0  0  0  0  0  0  0  0  0  0
   -1.6801   -2.7678    2.8258 O   0  0  0  0  0  0  0  0  0  0  0  0
    7.5570    1.4848    1.1745 H   0  0  0  0  0  0  0  0  0  0  0  0
    7.1602    0.7940   -0.4227 H   0  0  0  0  0  0  0  0  0  0  0  0
    6.1257    2.0459    0.2984 H   0  0  0  0  0  0  0  0  0  0  0  0
    4.3639   -1.6436    2.1632 H   0  0  0  0  0  0  0  0  0  0  0  0
    2.1519   -2.3098    1.2714 H   0  0  0  0  0  0  0  0  0  0  0  0
    2.5863    0.4832   -1.8855 H   0  0  0  0  0  0  0  0  0  0  0  0
    4.8151    1.1477   -0.9788 H   0  0  0  0  0  0  0  0  0  0  0  0
   -0.8591    1.1200   -1.6201 H   0  0  0  0  0  0  0  0  0  0  0  0
    0.5293    1.3289   -0.4246 H   0  0  0  0  0  0  0  0  0  0  0  0
   -1.1991    2.7482    0.3543 H   0  0  0  0  0  0  0  0  0  0  0  0
   -1.2309    1.2063    1.3579 H   0  0  0  0  0  0  0  0  0  0  0  0
   -3.6448    3.2446    0.0824 H   0  0  0  0  0  0  0  0  0  0  0  0
   -5.9251    3.7159   -0.4849 H   0  0  0  0  0  0  0  0  0  0  0  0
   -6.2593    0.2359   -1.4901 H   0  0  0  0  0  0  0  0  0  0  0  0
   -4.4183   -1.3784   -1.3524 H   0  0  0  0  0  0  0  0  0  0  0  0
   -1.9152   -1.6475   -1.3837 H   0  0  0  0  0  0  0  0  0  0  0  0
   -0.3853   -1.5375    1.8350 H   0  0  0  0  0  0  0  0  0  0  0  0
   -1.5531   -3.7375    2.6570 H   0  0  0  0  0  0  0  0  0  0  0  0
  1  2  1  0
  2  3  1  0
  3  4  2  0
  4  5  1  0
  5  6  2  0
  6  7  1  0
  7  8  2  0
  6  9  1  0
  9 10  2  0
  9 11  2  0
  9 12  1  0
 12 13  1  0
 13 14  1  0
 14 15  1  0
 15 16  2  0
 16 17  1  0
 17 18  1  0
 17 19  2  0
 19 20  1  0
 20 21  2  0
 21 22  1  0
 22 23  1  0
 23 24  2  0
 23 25  1  0
 25 26  1  0
  8  3  1  0
 22 12  1  0
 21 15  1  0
  1 27  1  0
  1 28  1  0
  1 29  1  0
  4 30  1  0
  5 31  1  0
  7 32  1  0
  8 33  1  0
 13 34  1  0
 13 35  1  0
 14 36  1  0
 14 37  1  0
 16 38  1  0
 18 39  1  0
 19 40  1  0
 20 41  1  0
 22 42  1  0
 25 43  1  0
 26 44  1  0
M  END
$$$$
[H]OC(=O)C([H])([H])C([H])([H])[C@@]([H])(C([H])([H])[H])[C@@]1([H])C([H])([H])C([H])([H])[C@@]2([H])[C@@]3([H])[C@@]([H])(O[H])C([H])([H])[C@]4([H])C([H])([H])[C@@]([H])(O[H])C([H])([H])C([H])([H])[C@]4(C([H])([H])[H])[C@@]3([H])C([H])([H])C([H])([H])[C@@]21C([H])([H])[H]
     RDKit          3D

 68 71  0  0  0  0  0  0  0  0999 V2000
   -3.7818    1.4561   -1.2782 C   0  0  0  0  0  0  0  0  0  0  0  0
   -3.7182    0.0298   -0.8621 C   0  0  2  0  0  0  0  0  0  0  0  0
   -5.0497   -0.2905   -0.2113 C   0  0  0  0  0  0  0  0  0  0  0  0
   -5.2769    0.6112    0.9993 C   0  0  0  0  0  0  0  0  0  0  0  0
   -6.5755    0.3102    1.6474 C   0  0  0  0  0  0  0  0  0  0  0  0
   -7.0538    0.9656    2.7664 O   0  0  0  0  0  0  0  0  0  0  0  0
   -7.2874   -0.5959    1.1513 O   0  0  0  0  0  0  0  0  0  0  0  0
   -2.5514   -0.2969   -0.0353 C   0  0  1  0  0  0  0  0  0  0  0  0
   -2.5845   -1.7877    0.3759 C   0  0  0  0  0  0  0  0  0  0  0  0
   -1.1588   -2.2723    0.4002 C   0  0  0  0  0  0  0  0  0  0  0  0
   -0.4375   -0.9842    0.4317 C   0  0  1  0  0  0  0  0  0  0  0  0
    0.9965   -0.9313    0.5551 C   0  0  1  0  0  0  0  0  0  0  0  0
    1.9212   -1.6060   -0.3728 C   0  0  1  0  0  0  0  0  0  0  0  0
    1.4114   -2.7050   -1.0304 O   0  0  0  0  0  0  0  0  0  0  0  0
    2.6083   -0.7346   -1.3868 C   0  0  0  0  0  0  0  0  0  0  0  0
    3.2885    0.4616   -0.7623 C   0  0  2  0  0  0  0  0  0  0  0  0
    4.7868    0.3808   -0.8623 C   0  0  0  0  0  0  0  0  0  0  0  0
    5.4220   -0.4528    0.1971 C   0  0  1  0  0  0  0  0  0  0  0  0
    6.8039   -0.3932    0.0197 O   0  0  0  0  0  0  0  0  0  0  0  0
    5.1096    0.1663    1.5261 C   0  0  0  0  0  0  0  0  0  0  0  0
    3.6348    0.2054    1.7400 C   0  0  0  0  0  0  0  0  0  0  0  0
    2.8372    0.7950    0.6114 C   0  0  1  0  0  0  0  0  0  0  0  0
    3.0033    2.3193    0.7682 C   0  0  0  0  0  0  0  0  0  0  0  0
    1.3710    0.5206    0.8611 C   0  0  1  0  0  0  0  0  0  0  0  0
    0.4284    1.5112    0.3089 C   0  0  0  0  0  0  0  0  0  0  0  0
   -0.5152    1.0720   -0.7666 C   0  0  0  0  0  0  0  0  0  0  0  0
   -1.1791   -0.2175   -0.6284 C   0  0  2  0  0  0  0  0  0  0  0  0
   -1.2837   -0.9567   -1.9480 C   0  0  0  0  0  0  0  0  0  0  0  0
   -3.4637    2.1387   -0.4462 H   0  0  0  0  0  0  0  0  0  0  0  0
   -4.8295    1.7471   -1.6014 H   0  0  0  0  0  0  0  0  0  0  0  0
   -3.1524    1.7052   -2.1542 H   0  0  0  0  0  0  0  0  0  0  0  0
   -3.7200   -0.5819   -1.8140 H   0  0  0  0  0  0  0  0  0  0  0  0
   -5.1817   -1.3420    0.0366 H   0  0  0  0  0  0  0  0  0  0  0  0
   -5.8286   -0.0214   -0.9556 H   0  0  0  0  0  0  0  0  0  0  0  0
   -5.2869    1.6677    0.7178 H   0  0  0  0  0  0  0  0  0  0  0  0
   -4.4598    0.4776    1.7516 H   0  0  0  0  0  0  0  0  0  0  0  0
   -8.0097    1.2995    2.7548 H   0  0  0  0  0  0  0  0  0  0  0  0
   -2.5397    0.2540    0.9246 H   0  0  0  0  0  0  0  0  0  0  0  0
   -3.2200   -2.3582   -0.3295 H   0  0  0  0  0  0  0  0  0  0  0  0
   -3.0405   -1.9016    1.3807 H   0  0  0  0  0  0  0  0  0  0  0  0
   -0.9295   -2.8163    1.3635 H   0  0  0  0  0  0  0  0  0  0  0  0
   -0.9506   -2.9614   -0.4000 H   0  0  0  0  0  0  0  0  0  0  0  0
   -0.8135   -0.5037    1.4043 H   0  0  0  0  0  0  0  0  0  0  0  0
    1.1854   -1.4848    1.5485 H   0  0  0  0  0  0  0  0  0  0  0  0
    2.8065   -2.0711    0.1809 H   0  0  0  0  0  0  0  0  0  0  0  0
    1.4177   -3.5343   -0.4729 H   0  0  0  0  0  0  0  0  0  0  0  0
    3.4350   -1.3589   -1.8431 H   0  0  0  0  0  0  0  0  0  0  0  0
    1.9792   -0.4718   -2.2616 H   0  0  0  0  0  0  0  0  0  0  0  0
    3.0048    1.3368   -1.4262 H   0  0  0  0  0  0  0  0  0  0  0  0
    5.1797    1.4201   -0.7554 H   0  0  0  0  0  0  0  0  0  0  0  0
    5.0623   -0.0080   -1.8592 H   0  0  0  0  0  0  0  0  0  0  0  0
    5.1395   -1.5102    0.1777 H   0  0  0  0  0  0  0  0  0  0  0  0
    7.0239    0.5386   -0.2466 H   0  0  0  0  0  0  0  0  0  0  0  0
    5.5818    1.1664    1.5992 H   0  0  0  0  0  0  0  0  0  0  0  0
    5.5589   -0.4573    2.3073 H   0  0  0  0  0  0  0  0  0  0  0  0
    3.4715    0.8858    2.6337 H   0  0  0  0  0  0  0  0  0  0  0  0
    3.2459   -0.7661    2.1187 H   0  0  0  0  0  0  0  0  0  0  0  0
    3.0106    2.8072   -0.2371 H   0  0  0  0  0  0  0  0  0  0  0  0
    4.0218    2.5408    1.1965 H   0  0  0  0  0  0  0  0  0  0  0  0
    2.2481    2.7305    1.4443 H   0  0  0  0  0  0  0  0  0  0  0  0
    1.2871    0.6570    1.9905 H   0  0  0  0  0  0  0  0  0  0  0  0
    1.0182    2.3611   -0.1516 H   0  0  0  0  0  0  0  0  0  0  0  0
   -0.2053    2.0464    1.0803 H   0  0  0  0  0  0  0  0  0  0  0  0
   -1.2248    1.8935   -0.9174 H   0  0  0  0  0  0  0  0  0  0  0  0
    0.0775    1.0669   -1.7397 H   0  0  0  0  0  0  0  0  0  0  0  0
   -0.3276   -0.9953   -2.5099 H   0  0  0  0  0  0  0  0  0  0  0  0
   -1.9104   -0.2840   -2.6137 H   0  0  0  0  0  0  0  0  0  0  0  0
   -1.8306   -1.8933   -1.8923 H   0  0  0  0  0  0  0  0  0  0  0  0
  1  2  1  0
  2  3  1  0
  3  4  1  0
  4  5  1  0
  5  6  1  0
  5  7  2  0
  2  8  1  0
  8  9  1  0
  9 10  1  0
 10 11  1  0
 11 12  1  0
 12 13  1  0
 13 14  1  0
 13 15  1  0
 15 16  1  0
 16 17  1  0
 17 18  1  0
 18 19  1  0
 18 20  1  0
 20 21  1  0
 21 22  1  0
 22 23  1  1
 22 24  1  0
 24 25  1  0
 25 26  1  0
 26 27  1  0
 27 28  1  6
 27  8  1  0
 27 11  1  0
 24 12  1  0
 22 16  1  0
  1 29  1  0
  1 30  1  0
  1 31  1  0
  2 32  1  6
  3 33  1  0
  3 34  1  0
  4 35  1  0
  4 36  1  0
  6 37  1  0
  8 38  1  1
  9 39  1  0
  9 40  1  0
 10 41  1  0
 10 42  1  0
 11 43  1  1
 12 44  1  1
 13 45  1  1
 14 46  1  0
 15 47  1  0
 15 48  1  0
 16 49  1  6
 17 50  1  0
 17 51  1  0
 18 52  1  1
 19 53  1  0
 20 54  1  0
 20 55  1  0
 21 56  1  0
 21 57  1  0
 23 58  1  0
 23 59  1  0
 23 60  1  0
 24 61  1  1
 25 62  1  0
 25 63  1  0
 26 64  1  0
 26 65  1  0
 28 66  1  0
 28 67  1  0
 28 68  1  0
M  END
$$$$
[H]c1nc(N([H])C(=O)c2c([H])c([H])c([H])c(C(F)(F)F)c2[H])c([H])c(-c2c(-c3c([H])c([H])c(N4C([H])([H])C([H])([H])OC([H])([H])C4([H])[H])c([H])c3[H])c([H])nn2[H])c1[H]
     RDKit          3D

 58 62  0  0  0  0  0  0  0  0999 V2000
    8.6016   -1.3945    2.7106 F   0  0  0  0  0  0  0  0  0  0  0  0
    8.8700   -0.3432    1.8137 C   0  0  0  0  0  0  0  0  0  0  0  0
    8.2112    0.8107    2.2508 F   0  0  0  0  0  0  0  0  0  0  0  0
   10.2128   -0.1906    1.7720 F   0  0  0  0  0  0  0  0  0  0  0  0
    8.3652   -0.7001    0.4725 C   0  0  0  0  0  0  0  0  0  0  0  0
    9.2339   -1.1858   -0.4720 C   0  0  0  0  0  0  0  0  0  0  0  0
    8.8366   -1.5384   -1.7433 C   0  0  0  0  0  0  0  0  0  0  0  0
    7.4804   -1.3809   -2.0529 C   0  0  0  0  0  0  0  0  0  0  0  0
    6.5890   -0.8924   -1.1163 C   0  0  0  0  0  0  0  0  0  0  0  0
    7.0332   -0.5586    0.1378 C   0  0  0  0  0  0  0  0  0  0  0  0
    5.1886   -0.6548   -1.4547 C   0  0  0  0  0  0  0  0  0  0  0  0
    4.8539   -0.7990   -2.6790 O   0  0  0  0  0  0  0  0  0  0  0  0
    4.2606   -0.2781   -0.4772 N   0  0  0  0  0  0  0  0  0  0  0  0
    2.9293    0.0764   -0.8432 C   0  0  0  0  0  0  0  0  0  0  0  0
    2.0435    0.5233    0.1248 C   0  0  0  0  0  0  0  0  0  0  0  0
    0.7652    0.9940   -0.2210 C   0  0  0  0  0  0  0  0  0  0  0  0
    0.4641    0.9754   -1.5262 C   0  0  0  0  0  0  0  0  0  0  0  0
    1.3428    0.5233   -2.5331 C   0  0  0  0  0  0  0  0  0  0  0  0
    2.5462    0.0916   -2.1157 N   0  0  0  0  0  0  0  0  0  0  0  0
   -0.0311    1.5265    0.8502 C   0  0  0  0  0  0  0  0  0  0  0  0
    0.6103    2.3702    1.7928 N   0  0  0  0  0  0  0  0  0  0  0  0
   -0.2283    2.7325    2.7100 N   0  0  0  0  0  0  0  0  0  0  0  0
   -1.3905    2.1916    2.4512 C   0  0  0  0  0  0  0  0  0  0  0  0
   -1.2985    1.4008    1.2441 C   0  0  0  0  0  0  0  0  0  0  0  0
   -2.4678    0.7112    0.7369 C   0  0  0  0  0  0  0  0  0  0  0  0
   -3.1078    0.9213   -0.4425 C   0  0  0  0  0  0  0  0  0  0  0  0
   -4.3504    0.3282   -0.7418 C   0  0  0  0  0  0  0  0  0  0  0  0
   -5.0067   -0.5038    0.1329 C   0  0  0  0  0  0  0  0  0  0  0  0
   -4.3540   -0.7245    1.3292 C   0  0  0  0  0  0  0  0  0  0  0  0
   -3.1432   -0.1512    1.6290 C   0  0  0  0  0  0  0  0  0  0  0  0
   -6.2996   -1.0215   -0.1208 N   0  0  0  0  0  0  0  0  0  0  0  0
   -7.1245   -1.7149    0.8687 C   0  0  0  0  0  0  0  0  0  0  0  0
   -8.2760   -0.7519    1.2362 C   0  0  0  0  0  0  0  0  0  0  0  0
   -8.4824    0.0978    0.1449 O   0  0  0  0  0  0  0  0  0  0  0  0
   -8.4411   -0.5742   -1.0718 C   0  0  0  0  0  0  0  0  0  0  0  0
   -6.9697   -0.8448   -1.3977 C   0  0  0  0  0  0  0  0  0  0  0  0
   10.3028   -1.3102   -0.2353 H   0  0  0  0  0  0  0  0  0  0  0  0
    9.5394   -1.9239   -2.4664 H   0  0  0  0  0  0  0  0  0  0  0  0
    7.1803   -1.6455   -3.0545 H   0  0  0  0  0  0  0  0  0  0  0  0
    6.3754   -0.1656    0.9153 H   0  0  0  0  0  0  0  0  0  0  0  0
    4.5395   -0.1790    0.5159 H   0  0  0  0  0  0  0  0  0  0  0  0
    2.3480    0.5024    1.1419 H   0  0  0  0  0  0  0  0  0  0  0  0
   -0.4822    1.3264   -1.8948 H   0  0  0  0  0  0  0  0  0  0  0  0
    1.0454    0.5336   -3.5786 H   0  0  0  0  0  0  0  0  0  0  0  0
    1.6002    2.6335    1.7283 H   0  0  0  0  0  0  0  0  0  0  0  0
   -2.3306    2.2613    2.9801 H   0  0  0  0  0  0  0  0  0  0  0  0
   -2.6714    1.5774   -1.1870 H   0  0  0  0  0  0  0  0  0  0  0  0
   -4.7859    0.5326   -1.7146 H   0  0  0  0  0  0  0  0  0  0  0  0
   -4.8227   -1.3852    2.0570 H   0  0  0  0  0  0  0  0  0  0  0  0
   -2.6564   -0.3444    2.5941 H   0  0  0  0  0  0  0  0  0  0  0  0
   -7.5366   -2.6087    0.3786 H   0  0  0  0  0  0  0  0  0  0  0  0
   -6.6049   -1.9483    1.7909 H   0  0  0  0  0  0  0  0  0  0  0  0
   -7.9998   -0.1869    2.1126 H   0  0  0  0  0  0  0  0  0  0  0  0
   -9.1707   -1.3568    1.3801 H   0  0  0  0  0  0  0  0  0  0  0  0
   -9.0394   -1.4893   -1.0734 H   0  0  0  0  0  0  0  0  0  0  0  0
   -8.8119    0.1373   -1.8467 H   0  0  0  0  0  0  0  0  0  0  0  0
   -6.6136    0.0611   -1.8877 H   0  0  0  0  0  0  0  0  0  0  0  0
   -6.8719   -1.7350   -2.0549 H   0  0  0  0  0  0  0  0  0  0  0  0
  1  2  1  0
  2  3  1  0
  2  4  1  0
  2  5  1  0
  5  6  2  0
  6  7  1  0
  7  8  2  0
  8  9  1  0
  9 10  2  0
  9 11  1  0
 11 12  2  0
 11 13  1  0
 13 14  1  0
 14 15  2  0
 15 16  1  0
 16 17  2  0
 17 18  1  0
 18 19  2  0
 16 20  1  0
 20 21  1  0
 21 22  1  0
 22 23  2  0
 23 24  1  0
 24 25  1  0
 25 26  2  0
 26 27  1  0
 27 28  2  0
 28 29  1  0
 29 30  2  0
 28 31  1  0
 31 32  1  0
 32 33  1  0
 33 34  1  0
 34 35  1  0
 35 36  1  0
 10  5  1  0
 19 14  1  0
 24 20  2  0
 30 25  1  0
 36 31  1  0
  6 37  1  0
  7 38  1  0
  8 39  1  0
 10 40  1  0
 13 41  1  0
 15 42  1  0
 17 43  1  0
 18 44  1  0
 21 45  1  0
 23 46  1  0
 26 47  1  0
 27 48  1  0
 29 49  1  0
 30 50  1  0
 32 51  1  0
 32 52  1  0
 33 53  1  0
 33 54  1  0
 35 55  1  0
 35 56  1  0
 36 57  1  0
 36 58  1  0
M  END
$$$$
