[H]c1nc(N([H])c2c([H])c([H])c(N3C([H])([H])C([H])([H])C([H])(N4C([H])([H])C([H])([H])N(C([H])([H])[H])C([H])([H])C4([H])[H])C([H])([H])C3([H])[H])c([H])c2OC([H])([H])[H])nc(N([H])c2c([H])c([H])c([H])c([H])c2S(=O)(=O)C([H])(C([H])([H])[H])C([H])([H])[H])c1Cl
     RDKit          3D

 82 86  0  0  0  0  0  0  0  0999 V2000
   -0.1870    3.7228   -1.2569 C   0  0  0  0  0  0  0  0  0  0  0  0
    0.4390    2.5297   -0.8437 O   0  0  0  0  0  0  0  0  0  0  0  0
   -0.3483    1.4775   -0.4024 C   0  0  0  0  0  0  0  0  0  0  0  0
   -1.7220    1.6350   -0.3827 C   0  0  0  0  0  0  0  0  0  0  0  0
   -2.5624    0.6308    0.0436 C   0  0  0  0  0  0  0  0  0  0  0  0
   -1.9599   -0.5357    0.4478 C   0  0  0  0  0  0  0  0  0  0  0  0
   -0.5748   -0.7280    0.4408 C   0  0  0  0  0  0  0  0  0  0  0  0
    0.2576    0.2764    0.0150 C   0  0  0  0  0  0  0  0  0  0  0  0
    1.6540    0.2011   -0.0367 N   0  0  0  0  0  0  0  0  0  0  0  0
    2.4984   -0.8842    0.3177 C   0  0  0  0  0  0  0  0  0  0  0  0
    2.1033   -2.0726    0.7812 N   0  0  0  0  0  0  0  0  0  0  0  0
    2.9559   -3.0558    1.0957 C   0  0  0  0  0  0  0  0  0  0  0  0
    4.3092   -2.8632    0.9451 C   0  0  0  0  0  0  0  0  0  0  0  0
    5.4455   -4.1449    1.3534 Cl  0  0  0  0  0  0  0  0  0  0  0  0
    4.7527   -1.6166    0.4572 C   0  0  0  0  0  0  0  0  0  0  0  0
    6.1380   -1.4466    0.3110 N   0  0  0  0  0  0  0  0  0  0  0  0
    6.9009   -0.3576   -0.1368 C   0  0  0  0  0  0  0  0  0  0  0  0
    6.2766    0.8084   -0.5266 C   0  0  0  0  0  0  0  0  0  0  0  0
    7.0240    1.9039   -0.9778 C   0  0  0  0  0  0  0  0  0  0  0  0
    8.3820    1.8034   -1.0274 C   0  0  0  0  0  0  0  0  0  0  0  0
    9.0024    0.6381   -0.6374 C   0  0  0  0  0  0  0  0  0  0  0  0
    8.2961   -0.4485   -0.1920 C   0  0  0  0  0  0  0  0  0  0  0  0
    9.0842   -1.8926    0.2913 S   0  0  0  0  0  0  0  0  0  0  0  0
    8.6633   -3.0312   -0.6035 O   0  0  0  0  0  0  0  0  0  0  0  0
    8.8235   -2.3045    1.7132 O   0  0  0  0  0  0  0  0  0  0  0  0
   10.8572   -1.7881    0.1370 C   0  0  0  0  0  0  0  0  0  0  0  0
   11.2609   -1.6791   -1.2975 C   0  0  0  0  0  0  0  0  0  0  0  0
   11.4760   -0.7869    1.0544 C   0  0  0  0  0  0  0  0  0  0  0  0
    3.8248   -0.7008    0.1721 N   0  0  0  0  0  0  0  0  0  0  0  0
   -3.9818    0.8060    0.0512 N   0  0  0  0  0  0  0  0  0  0  0  0
   -4.5241    1.9609   -0.5784 C   0  0  0  0  0  0  0  0  0  0  0  0
   -6.0011    1.9283   -0.8544 C   0  0  0  0  0  0  0  0  0  0  0  0
   -6.8245    1.3726    0.2584 C   0  0  0  0  0  0  0  0  0  0  0  0
   -6.0036    0.6088    1.2781 C   0  0  0  0  0  0  0  0  0  0  0  0
   -4.8657   -0.1463    0.6796 C   0  0  0  0  0  0  0  0  0  0  0  0
   -7.9560    0.6086   -0.0875 N   0  0  0  0  0  0  0  0  0  0  0  0
   -7.7905   -0.5856   -0.8057 C   0  0  0  0  0  0  0  0  0  0  0  0
   -9.1362   -1.0235   -1.3907 C   0  0  0  0  0  0  0  0  0  0  0  0
  -10.1390   -0.8718   -0.3544 N   0  0  0  0  0  0  0  0  0  0  0  0
  -10.0361   -1.8235    0.7053 C   0  0  0  0  0  0  0  0  0  0  0  0
  -10.3349    0.4834    0.0484 C   0  0  0  0  0  0  0  0  0  0  0  0
   -9.1475    1.3193   -0.4248 C   0  0  0  0  0  0  0  0  0  0  0  0
    0.5375    4.4499   -1.6799 H   0  0  0  0  0  0  0  0  0  0  0  0
   -0.9481    3.5330   -2.0530 H   0  0  0  0  0  0  0  0  0  0  0  0
   -0.6880    4.2523   -0.4156 H   0  0  0  0  0  0  0  0  0  0  0  0
   -2.1476    2.5764   -0.7105 H   0  0  0  0  0  0  0  0  0  0  0  0
   -2.6020   -1.3517    0.7883 H   0  0  0  0  0  0  0  0  0  0  0  0
   -0.2121   -1.6859    0.7807 H   0  0  0  0  0  0  0  0  0  0  0  0
    2.1500    1.0935   -0.3956 H   0  0  0  0  0  0  0  0  0  0  0  0
    2.6174   -4.0222    1.4737 H   0  0  0  0  0  0  0  0  0  0  0  0
    6.7215   -2.3022    0.5911 H   0  0  0  0  0  0  0  0  0  0  0  0
    5.2202    0.9989   -0.5296 H   0  0  0  0  0  0  0  0  0  0  0  0
    6.5603    2.8305   -1.2896 H   0  0  0  0  0  0  0  0  0  0  0  0
    9.0220    2.6252   -1.3712 H   0  0  0  0  0  0  0  0  0  0  0  0
   10.0936    0.6299   -0.7052 H   0  0  0  0  0  0  0  0  0  0  0  0
   11.2252   -2.8031    0.4806 H   0  0  0  0  0  0  0  0  0  0  0  0
   11.9033   -0.7785   -1.4926 H   0  0  0  0  0  0  0  0  0  0  0  0
   10.3307   -1.5514   -1.9199 H   0  0  0  0  0  0  0  0  0  0  0  0
   11.7765   -2.5763   -1.6995 H   0  0  0  0  0  0  0  0  0  0  0  0
   12.0225   -1.2557    1.8769 H   0  0  0  0  0  0  0  0  0  0  0  0
   12.1781   -0.1622    0.4319 H   0  0  0  0  0  0  0  0  0  0  0  0
   10.7434   -0.0899    1.5079 H   0  0  0  0  0  0  0  0  0  0  0  0
   -4.2803    2.8410    0.0525 H   0  0  0  0  0  0  0  0  0  0  0  0
   -3.9354    2.1199   -1.5269 H   0  0  0  0  0  0  0  0  0  0  0  0
   -6.3084    2.9635   -1.1164 H   0  0  0  0  0  0  0  0  0  0  0  0
   -6.1470    1.3325   -1.7818 H   0  0  0  0  0  0  0  0  0  0  0  0
   -7.2139    2.2642    0.8421 H   0  0  0  0  0  0  0  0  0  0  0  0
   -6.6586   -0.1075    1.8153 H   0  0  0  0  0  0  0  0  0  0  0  0
   -5.5929    1.2907    2.0626 H   0  0  0  0  0  0  0  0  0  0  0  0
   -5.1731   -0.8869   -0.0780 H   0  0  0  0  0  0  0  0  0  0  0  0
   -4.3121   -0.6097    1.5260 H   0  0  0  0  0  0  0  0  0  0  0  0
   -7.5080   -1.4012   -0.0997 H   0  0  0  0  0  0  0  0  0  0  0  0
   -7.0082   -0.5774   -1.5870 H   0  0  0  0  0  0  0  0  0  0  0  0
   -9.4445   -0.3742   -2.2343 H   0  0  0  0  0  0  0  0  0  0  0  0
   -9.0261   -2.0597   -1.7202 H   0  0  0  0  0  0  0  0  0  0  0  0
   -9.1822   -2.5377    0.5321 H   0  0  0  0  0  0  0  0  0  0  0  0
   -9.9814   -1.3564    1.7041 H   0  0  0  0  0  0  0  0  0  0  0  0
  -10.9456   -2.4645    0.6802 H   0  0  0  0  0  0  0  0  0  0  0  0
  -11.2261    0.8855   -0.4545 H   0  0  0  0  0  0  0  0  0  0  0  0
  -10.4517    0.5517    1.1515 H   0  0  0  0  0  0  0  0  0  0  0  0
   -9.2778    1.5186   -1.4917 H   0  0  0  0  0  0  0  0  0  0  0  0
   -9.1611    2.2698    0.1783 H   0  0  0  0  0  0  0  0  0  0  0  0
  1  2  1  0
  2  3  1  0
  3  4  2  0
  4  5  1  0
  5  6  2  0
  6  7  1  0
  7  8  2  0
  8  9  1  0
  9 10  1  0
 10 11  2  0
 11 12  1  0
 12 13  2  0
 13 14  1  0
 13 15  1  0
 15 16  1  0
 16 17  1  0
 17 18  2  0
 18 19  1  0
 19 20  2  0
 20 21  1  0
 21 22  2  0
 22 23  1  0
 23 24  2  0
 23 25  2  0
 23 26  1  0
 26 27  1  0
 26 28  1  0
 15 29  2  0
  5 30  1  0
 30 31  1  0
 31 32  1  0
 32 33  1  0
 33 34  1  0
 34 35  1  0
 33 36  1  0
 36 37  1  0
 37 38  1  0
 38 39  1  0
 39 40  1  0
 39 41  1  0
 41 42  1  0
  8  3  1  0
 29 10  1  0
 35 30  1  0
 42 36  1  0
 22 17  1  0
  1 43  1  0
  1 44  1  0
  1 45  1  0
  4 46  1  0
  6 47  1  0
  7 48  1  0
  9 49  1  0
 12 50  1  0
 16 51  1  0
 18 52  1  0
 19 53  1  0
 20 54  1  0
 21 55  1  0
 26 56  1  0
 27 57  1  0
 27 58  1  0
 27 59  1  0
 28 60  1  0
 28 61  1  0
 28 62  1  0
 31 63  1  0
 31 64  1  0
 32 65  1  0
 32 66  1  0
 33 67  1  0
 34 68  1  0
 34 69  1  0
 35 70  1  0
 35 71  1  0
 37 72  1  0
 37 73  1  0
 38 74  1  0
 38 75  1  0
 40 76  1  0
 40 77  1  0
 40 78  1  0
 41 79  1  0
 41 80  1  0
 42 81  1  0
 42 82  1  0
M  END
$$$$
[H]c1nc(Oc2c([H])c([H])c(N([H])C(=O)N([H])c3c([H])c([H])c(C([H])([H])N4C([H])([H])C([H])([H])N(C([H])([H])C([H])([H])[H])C([H])([H])C4([H])[H])c(C(F)(F)F)c3[H])c([H])c2[H])c([H])c(N([H])C([H])([H])[H])n1
     RDKit          3D

 68 71  0  0  0  0  0  0  0  0999 V2000
  -10.2990   -0.3201   -0.2443 C   0  0  0  0  0  0  0  0  0  0  0  0
   -9.0487    0.5002   -0.4280 C   0  0  0  0  0  0  0  0  0  0  0  0
   -8.1793   -0.0359   -1.4572 N   0  0  0  0  0  0  0  0  0  0  0  0
   -7.0305    0.8062   -1.5517 C   0  0  0  0  0  0  0  0  0  0  0  0
   -5.7154    0.1130   -1.2911 C   0  0  0  0  0  0  0  0  0  0  0  0
   -5.7379   -0.8228   -0.2229 N   0  0  0  0  0  0  0  0  0  0  0  0
   -5.1553   -0.4373    1.0060 C   0  0  0  0  0  0  0  0  0  0  0  0
   -3.7153   -0.2169    1.0542 C   0  0  0  0  0  0  0  0  0  0  0  0
   -2.9459   -0.4458   -0.0457 C   0  0  0  0  0  0  0  0  0  0  0  0
   -1.5554   -0.2549    0.0222 C   0  0  0  0  0  0  0  0  0  0  0  0
   -0.9188    0.1543    1.1522 C   0  0  0  0  0  0  0  0  0  0  0  0
    0.4451    0.3547    1.3623 N   0  0  0  0  0  0  0  0  0  0  0  0
    1.4499   -0.2261    0.5465 C   0  0  0  0  0  0  0  0  0  0  0  0
    1.1958   -0.9699   -0.4220 O   0  0  0  0  0  0  0  0  0  0  0  0
    2.8063    0.0526    0.8476 N   0  0  0  0  0  0  0  0  0  0  0  0
    3.8841   -0.4730    0.1219 C   0  0  0  0  0  0  0  0  0  0  0  0
    5.0696    0.2695    0.1595 C   0  0  0  0  0  0  0  0  0  0  0  0
    6.1724   -0.1959   -0.5017 C   0  0  0  0  0  0  0  0  0  0  0  0
    6.1984   -1.3743   -1.2203 C   0  0  0  0  0  0  0  0  0  0  0  0
    7.3559   -1.8175   -1.8874 O   0  0  0  0  0  0  0  0  0  0  0  0
    8.4788   -0.9936   -1.7796 C   0  0  0  0  0  0  0  0  0  0  0  0
    9.3306   -1.0781   -0.6992 C   0  0  0  0  0  0  0  0  0  0  0  0
   10.4383   -0.2312   -0.6411 C   0  0  0  0  0  0  0  0  0  0  0  0
   11.3426   -0.2777    0.4449 N   0  0  0  0  0  0  0  0  0  0  0  0
   12.4721    0.6190    0.4560 C   0  0  0  0  0  0  0  0  0  0  0  0
   10.6148    0.6290   -1.6528 N   0  0  0  0  0  0  0  0  0  0  0  0
    9.7904    0.7181   -2.7086 C   0  0  0  0  0  0  0  0  0  0  0  0
    8.7293   -0.1014   -2.7527 N   0  0  0  0  0  0  0  0  0  0  0  0
    5.0337   -2.0940   -1.2508 C   0  0  0  0  0  0  0  0  0  0  0  0
    3.8935   -1.6380   -0.5818 C   0  0  0  0  0  0  0  0  0  0  0  0
   -1.7503    0.3770    2.2572 C   0  0  0  0  0  0  0  0  0  0  0  0
   -3.1090    0.2069    2.2445 C   0  0  0  0  0  0  0  0  0  0  0  0
   -3.9076    0.4692    3.4596 C   0  0  0  0  0  0  0  0  0  0  0  0
   -3.0267    0.8724    4.4765 F   0  0  0  0  0  0  0  0  0  0  0  0
   -4.5531   -0.6222    3.9660 F   0  0  0  0  0  0  0  0  0  0  0  0
   -4.7451    1.5847    3.3219 F   0  0  0  0  0  0  0  0  0  0  0  0
   -6.9874   -1.4884    0.0062 C   0  0  0  0  0  0  0  0  0  0  0  0
   -7.8513   -1.4181   -1.2341 C   0  0  0  0  0  0  0  0  0  0  0  0
  -10.0056   -1.2236    0.3376 H   0  0  0  0  0  0  0  0  0  0  0  0
  -11.0156    0.2828    0.3494 H   0  0  0  0  0  0  0  0  0  0  0  0
  -10.7451   -0.5533   -1.2099 H   0  0  0  0  0  0  0  0  0  0  0  0
   -9.3902    1.5064   -0.7967 H   0  0  0  0  0  0  0  0  0  0  0  0
   -8.5282    0.6942    0.5188 H   0  0  0  0  0  0  0  0  0  0  0  0
   -6.9427    1.2787   -2.5729 H   0  0  0  0  0  0  0  0  0  0  0  0
   -7.0852    1.6803   -0.8419 H   0  0  0  0  0  0  0  0  0  0  0  0
   -5.3787   -0.3639   -2.2424 H   0  0  0  0  0  0  0  0  0  0  0  0
   -4.9782    0.9378   -1.0987 H   0  0  0  0  0  0  0  0  0  0  0  0
   -5.3596   -1.2873    1.7313 H   0  0  0  0  0  0  0  0  0  0  0  0
   -5.7610    0.3966    1.4141 H   0  0  0  0  0  0  0  0  0  0  0  0
   -3.3300   -0.7898   -1.0118 H   0  0  0  0  0  0  0  0  0  0  0  0
   -0.9627   -0.4277   -0.8741 H   0  0  0  0  0  0  0  0  0  0  0  0
    0.7597    0.9698    2.1611 H   0  0  0  0  0  0  0  0  0  0  0  0
    3.0013    0.6928    1.6707 H   0  0  0  0  0  0  0  0  0  0  0  0
    5.0877    1.2125    0.7209 H   0  0  0  0  0  0  0  0  0  0  0  0
    7.0847    0.3965   -0.4601 H   0  0  0  0  0  0  0  0  0  0  0  0
    9.1416   -1.7902    0.0899 H   0  0  0  0  0  0  0  0  0  0  0  0
   11.2010   -0.9471    1.2284 H   0  0  0  0  0  0  0  0  0  0  0  0
   12.6067    1.1140   -0.5277 H   0  0  0  0  0  0  0  0  0  0  0  0
   13.4237    0.0623    0.6491 H   0  0  0  0  0  0  0  0  0  0  0  0
   12.3043    1.3858    1.2464 H   0  0  0  0  0  0  0  0  0  0  0  0
    9.9776    1.4417   -3.5159 H   0  0  0  0  0  0  0  0  0  0  0  0
    5.0003   -3.0327   -1.8043 H   0  0  0  0  0  0  0  0  0  0  0  0
    3.0130   -2.2945   -0.6480 H   0  0  0  0  0  0  0  0  0  0  0  0
   -1.3081    0.7006    3.1773 H   0  0  0  0  0  0  0  0  0  0  0  0
   -7.5417   -1.0573    0.8567 H   0  0  0  0  0  0  0  0  0  0  0  0
   -6.7530   -2.5420    0.2777 H   0  0  0  0  0  0  0  0  0  0  0  0
   -7.2335   -1.7544   -2.0856 H   0  0  0  0  0  0  0  0  0  0  0  0
   -8.7522   -2.0077   -1.0717 H   0  0  0  0  0  0  0  0  0  0  0  0
  1  2  1  0
  2  3  1  0
  3  4  1  0
  4  5  1  0
  5  6  1  0
  6  7  1  0
  7  8  1  0
  8  9  2  0
  9 10  1  0
 10 11  2  0
 11 12  1  0
 12 13  1  0
 13 14  2  0
 13 15  1  0
 15 16  1  0
 16 17  2  0
 17 18  1  0
 18 19  2  0
 19 20  1  0
 20 21  1  0
 21 22  2  0
 22 23  1  0
 23 24  1  0
 24 25  1  0
 23 26  2  0
 26 27  1  0
 27 28  2  0
 19 29  1  0
 29 30  2  0
 11 31  1  0
 31 32  2  0
 32 33  1  0
 33 34  1  0
 33 35  1  0
 33 36  1  0
  6 37  1  0
 37 38  1  0
 38  3  1  0
 32  8  1  0
 30 16  1  0
 28 21  1  0
  1 39  1  0
  1 40  1  0
  1 41  1  0
  2 42  1  0
  2 43  1  0
  4 44  1  0
  4 45  1  0
  5 46  1  0
  5 47  1  0
  7 48  1  0
  7 49  1  0
  9 50  1  0
 10 51  1  0
 12 52  1  0
 15 53  1  0
 17 54  1  0
 18 55  1  0
 22 56  1  0
 24 57  1  0
 25 58  1  0
 25 59  1  0
 25 60  1  0
 27 61  1  0
 29 62  1  0
 30 63  1  0
 31 64  1  0
 37 65  1  0
 37 66  1  0
 38 67  1  0
 38 68  1  0
M  END
$$$$
[H]c1nc(N([H])c2c([H])c(OC([H])([H])[H])c(OC([H])([H])[H])c(OC([H])([H])[H])c2[H])nc(N([H])c2nc3c(c([H])c2[H])OC(C([H])([H])[H])(C([H])([H])[H])C(=O)N3[H])c1F
     RDKit          3D

 57 60  0  0  0  0  0  0  0  0999 V2000
   -5.6364    2.1181   -1.8630 C   0  0  0  0  0  0  0  0  0  0  0  0
   -5.8443    0.7587   -1.5880 O   0  0  0  0  0  0  0  0  0  0  0  0
   -4.8072    0.0010   -1.0783 C   0  0  0  0  0  0  0  0  0  0  0  0
   -3.5618    0.6012   -0.8432 C   0  0  0  0  0  0  0  0  0  0  0  0
   -2.5031   -0.0703   -0.3477 C   0  0  0  0  0  0  0  0  0  0  0  0
   -1.2316    0.4626   -0.0655 N   0  0  0  0  0  0  0  0  0  0  0  0
   -0.9067    1.8244    0.0656 C   0  0  0  0  0  0  0  0  0  0  0  0
   -1.7494    2.8585   -0.0431 N   0  0  0  0  0  0  0  0  0  0  0  0
   -1.4116    4.1432    0.0863 C   0  0  0  0  0  0  0  0  0  0  0  0
   -0.1125    4.4539    0.3502 C   0  0  0  0  0  0  0  0  0  0  0  0
    0.3587    5.6995    0.5032 F   0  0  0  0  0  0  0  0  0  0  0  0
    0.8217    3.4140    0.4762 C   0  0  0  0  0  0  0  0  0  0  0  0
    2.1801    3.7060    0.7505 N   0  0  0  0  0  0  0  0  0  0  0  0
    3.1050    2.6399    0.8733 C   0  0  0  0  0  0  0  0  0  0  0  0
    4.4571    2.8965    1.1446 C   0  0  0  0  0  0  0  0  0  0  0  0
    5.3443    1.8517    1.2613 C   0  0  0  0  0  0  0  0  0  0  0  0
    4.9285    0.5481    1.1161 C   0  0  0  0  0  0  0  0  0  0  0  0
    5.7961   -0.5293    1.2273 O   0  0  0  0  0  0  0  0  0  0  0  0
    5.5066   -1.7939    0.6515 C   0  0  0  0  0  0  0  0  0  0  0  0
    6.2846   -2.8749    1.3459 C   0  0  0  0  0  0  0  0  0  0  0  0
    5.8127   -1.7705   -0.8228 C   0  0  0  0  0  0  0  0  0  0  0  0
    4.0556   -2.1122    0.8177 C   0  0  0  0  0  0  0  0  0  0  0  0
    3.6763   -3.3008    1.0572 O   0  0  0  0  0  0  0  0  0  0  0  0
    3.1427   -1.0383    0.6962 N   0  0  0  0  0  0  0  0  0  0  0  0
    3.5828    0.3027    0.8467 C   0  0  0  0  0  0  0  0  0  0  0  0
    2.7547    1.3550    0.7416 N   0  0  0  0  0  0  0  0  0  0  0  0
    0.3826    2.1601    0.3289 N   0  0  0  0  0  0  0  0  0  0  0  0
   -2.7045   -1.4372   -0.0691 C   0  0  0  0  0  0  0  0  0  0  0  0
   -3.9082   -2.0549   -0.2874 C   0  0  0  0  0  0  0  0  0  0  0  0
   -4.0666   -3.3859   -0.0045 O   0  0  0  0  0  0  0  0  0  0  0  0
   -2.9762   -4.1177    0.5153 C   0  0  0  0  0  0  0  0  0  0  0  0
   -4.9761   -1.3425   -0.7952 C   0  0  0  0  0  0  0  0  0  0  0  0
   -6.2188   -1.9257   -1.0338 O   0  0  0  0  0  0  0  0  0  0  0  0
   -7.1743   -1.9137    0.0186 C   0  0  0  0  0  0  0  0  0  0  0  0
   -4.7813    2.3111   -2.5387 H   0  0  0  0  0  0  0  0  0  0  0  0
   -5.4850    2.7232   -0.9417 H   0  0  0  0  0  0  0  0  0  0  0  0
   -6.5386    2.5082   -2.4098 H   0  0  0  0  0  0  0  0  0  0  0  0
   -3.4970    1.6360   -1.0973 H   0  0  0  0  0  0  0  0  0  0  0  0
   -0.4103   -0.2136    0.0641 H   0  0  0  0  0  0  0  0  0  0  0  0
   -2.1604    4.9024   -0.0184 H   0  0  0  0  0  0  0  0  0  0  0  0
    2.4712    4.6872    0.8556 H   0  0  0  0  0  0  0  0  0  0  0  0
    4.7318    3.9285    1.2492 H   0  0  0  0  0  0  0  0  0  0  0  0
    6.3943    2.0780    1.4734 H   0  0  0  0  0  0  0  0  0  0  0  0
    5.7812   -3.1588    2.2953 H   0  0  0  0  0  0  0  0  0  0  0  0
    7.3278   -2.5920    1.5737 H   0  0  0  0  0  0  0  0  0  0  0  0
    6.3119   -3.7970    0.7168 H   0  0  0  0  0  0  0  0  0  0  0  0
    5.5475   -2.7321   -1.2838 H   0  0  0  0  0  0  0  0  0  0  0  0
    5.2428   -0.9509   -1.3072 H   0  0  0  0  0  0  0  0  0  0  0  0
    6.8942   -1.5474   -0.9277 H   0  0  0  0  0  0  0  0  0  0  0  0
    2.1474   -1.2464    0.4955 H   0  0  0  0  0  0  0  0  0  0  0  0
   -1.8577   -2.0119    0.3366 H   0  0  0  0  0  0  0  0  0  0  0  0
   -2.2185   -4.1935   -0.2936 H   0  0  0  0  0  0  0  0  0  0  0  0
   -3.3828   -5.1246    0.7905 H   0  0  0  0  0  0  0  0  0  0  0  0
   -2.5554   -3.6060    1.4036 H   0  0  0  0  0  0  0  0  0  0  0  0
   -7.4919   -2.9486    0.2973 H   0  0  0  0  0  0  0  0  0  0  0  0
   -8.0902   -1.3564   -0.3279 H   0  0  0  0  0  0  0  0  0  0  0  0
   -6.7818   -1.4227    0.9319 H   0  0  0  0  0  0  0  0  0  0  0  0
  1  2  1  0
  2  3  1  0
  3  4  2  0
  4  5  1  0
  5  6  1  0
  6  7  1  0
  7  8  2  0
  8  9  1  0
  9 10  2  0
 10 11  1  0
 10 12  1  0
 12 13  1  0
 13 14  1  0
 14 15  2  0
 15 16  1  0
 16 17  2  0
 17 18  1  0
 18 19  1  0
 19 20  1  0
 19 21  1  0
 19 22  1  0
 22 23  2  0
 22 24  1  0
 24 25  1  0
 25 26  2  0
 12 27  2  0
  5 28  2  0
 28 29  1  0
 29 30  1  0
 30 31  1  0
 29 32  2  0
 32 33  1  0
 33 34  1  0
 32  3  1  0
 27  7  1  0
 26 14  1  0
 25 17  1  0
  1 35  1  0
  1 36  1  0
  1 37  1  0
  4 38  1  0
  6 39  1  0
  9 40  1  0
 13 41  1  0
 15 42  1  0
 16 43  1  0
 20 44  1  0
 20 45  1  0
 20 46  1  0
 21 47  1  0
 21 48  1  0
 21 49  1  0
 24 50  1  0
 28 51  1  0
 31 52  1  0
 31 53  1  0
 31 54  1  0
 34 55  1  0
 34 56  1  0
 34 57  1  0
M  END
$$$$
[H]c1nc(Oc2c([H])c([H])c(N([H])C(=O)N([H])c3c([H])c([H])c(C([H])([H])N4C([H])([H])C([H])([H])N(C([H])([H])[H])C([H])([H])C4([H])[H])c(C(F)(F)F)c3[H])c([H])c2[H])c([H])c(N([H])C([H])([H])[H])n1
     RDKit          3D

 65 68  0  0  0  0  0  0  0  0999 V2000
   -9.5124    0.7925    1.0221 C   0  0  0  0  0  0  0  0  0  0  0  0
   -8.2189    0.8348    0.4257 N   0  0  0  0  0  0  0  0  0  0  0  0
   -7.1579    0.4976    1.3201 C   0  0  0  0  0  0  0  0  0  0  0  0
   -5.9144    0.3815    0.3826 C   0  0  0  0  0  0  0  0  0  0  0  0
   -5.9865   -0.9158   -0.1766 N   0  0  0  0  0  0  0  0  0  0  0  0
   -4.8862   -1.3578   -0.9298 C   0  0  0  0  0  0  0  0  0  0  0  0
   -3.6087   -0.8387   -0.3326 C   0  0  0  0  0  0  0  0  0  0  0  0
   -3.1777    0.4551   -0.4204 C   0  0  0  0  0  0  0  0  0  0  0  0
   -1.9708    0.8884    0.1359 C   0  0  0  0  0  0  0  0  0  0  0  0
   -1.1991    0.0060    0.7847 C   0  0  0  0  0  0  0  0  0  0  0  0
    0.0320    0.3748    1.4325 N   0  0  0  0  0  0  0  0  0  0  0  0
    1.1662    0.3796    0.6489 C   0  0  0  0  0  0  0  0  0  0  0  0
    1.1872    0.0982   -0.5497 O   0  0  0  0  0  0  0  0  0  0  0  0
    2.4437    0.7440    1.2776 N   0  0  0  0  0  0  0  0  0  0  0  0
    3.5265    0.6587    0.3310 C   0  0  0  0  0  0  0  0  0  0  0  0
    4.3279    1.7079    0.0261 C   0  0  0  0  0  0  0  0  0  0  0  0
    5.3008    1.5235   -0.9530 C   0  0  0  0  0  0  0  0  0  0  0  0
    5.4710    0.3403   -1.6048 C   0  0  0  0  0  0  0  0  0  0  0  0
    6.4275    0.1048   -2.5986 O   0  0  0  0  0  0  0  0  0  0  0  0
    7.7314   -0.1527   -2.2482 C   0  0  0  0  0  0  0  0  0  0  0  0
    8.0989   -0.1476   -0.8760 C   0  0  0  0  0  0  0  0  0  0  0  0
    9.4021   -0.3926   -0.5114 C   0  0  0  0  0  0  0  0  0  0  0  0
    9.8333   -0.3257    0.8477 N   0  0  0  0  0  0  0  0  0  0  0  0
    9.0208    0.0527    1.9575 C   0  0  0  0  0  0  0  0  0  0  0  0
   10.3001   -0.6385   -1.4952 N   0  0  0  0  0  0  0  0  0  0  0  0
    9.9595   -0.6489   -2.7953 C   0  0  0  0  0  0  0  0  0  0  0  0
    8.6877   -0.4069   -3.1337 N   0  0  0  0  0  0  0  0  0  0  0  0
    4.6281   -0.7284   -1.2650 C   0  0  0  0  0  0  0  0  0  0  0  0
    3.6743   -0.5767   -0.3180 C   0  0  0  0  0  0  0  0  0  0  0  0
   -1.6216   -1.3320    0.8757 C   0  0  0  0  0  0  0  0  0  0  0  0
   -2.8092   -1.7511    0.3236 C   0  0  0  0  0  0  0  0  0  0  0  0
   -3.2349   -3.1394    0.5019 C   0  0  0  0  0  0  0  0  0  0  0  0
   -2.2580   -3.7651    1.3100 F   0  0  0  0  0  0  0  0  0  0  0  0
   -4.4018   -3.2183    1.2775 F   0  0  0  0  0  0  0  0  0  0  0  0
   -3.2838   -3.9272   -0.6009 F   0  0  0  0  0  0  0  0  0  0  0  0
   -7.2661   -1.1378   -0.7291 C   0  0  0  0  0  0  0  0  0  0  0  0
   -8.0488    0.1942   -0.8284 C   0  0  0  0  0  0  0  0  0  0  0  0
  -10.2438    1.1371    0.2956 H   0  0  0  0  0  0  0  0  0  0  0  0
   -9.4554    1.4899    1.9178 H   0  0  0  0  0  0  0  0  0  0  0  0
   -9.6659   -0.2359    1.4130 H   0  0  0  0  0  0  0  0  0  0  0  0
   -6.9468    1.1731    2.1418 H   0  0  0  0  0  0  0  0  0  0  0  0
   -7.2536   -0.5290    1.7605 H   0  0  0  0  0  0  0  0  0  0  0  0
   -5.0890    0.3444    1.1597 H   0  0  0  0  0  0  0  0  0  0  0  0
   -5.8581    1.2385   -0.2540 H   0  0  0  0  0  0  0  0  0  0  0  0
   -4.8620   -2.3583   -1.3115 H   0  0  0  0  0  0  0  0  0  0  0  0
   -4.9449   -0.7318   -1.9059 H   0  0  0  0  0  0  0  0  0  0  0  0
   -3.7731    1.1707   -0.9609 H   0  0  0  0  0  0  0  0  0  0  0  0
   -1.7100    1.9154    0.0264 H   0  0  0  0  0  0  0  0  0  0  0  0
    0.0462    0.6268    2.4557 H   0  0  0  0  0  0  0  0  0  0  0  0
    2.5855    1.0017    2.2321 H   0  0  0  0  0  0  0  0  0  0  0  0
    4.2184    2.6654    0.5239 H   0  0  0  0  0  0  0  0  0  0  0  0
    5.9195    2.3771   -1.1866 H   0  0  0  0  0  0  0  0  0  0  0  0
    7.3267    0.0410   -0.1505 H   0  0  0  0  0  0  0  0  0  0  0  0
   10.8488   -0.5620    1.0496 H   0  0  0  0  0  0  0  0  0  0  0  0
    8.9614   -0.7765    2.7228 H   0  0  0  0  0  0  0  0  0  0  0  0
    9.4624    0.9229    2.5259 H   0  0  0  0  0  0  0  0  0  0  0  0
    7.9943    0.3077    1.6886 H   0  0  0  0  0  0  0  0  0  0  0  0
   10.6531   -0.8404   -3.5827 H   0  0  0  0  0  0  0  0  0  0  0  0
    4.7613   -1.6821   -1.7874 H   0  0  0  0  0  0  0  0  0  0  0  0
    3.0157   -1.3821   -0.0250 H   0  0  0  0  0  0  0  0  0  0  0  0
   -0.9599   -2.0053    1.3897 H   0  0  0  0  0  0  0  0  0  0  0  0
   -7.3263   -1.5920   -1.7220 H   0  0  0  0  0  0  0  0  0  0  0  0
   -7.9219   -1.7732   -0.0711 H   0  0  0  0  0  0  0  0  0  0  0  0
   -8.9743   -0.0519   -1.3761 H   0  0  0  0  0  0  0  0  0  0  0  0
   -7.4705    0.8973   -1.4840 H   0  0  0  0  0  0  0  0  0  0  0  0
  1  2  1  0
  2  3  1  0
  3  4  1  0
  4  5  1  0
  5  6  1  0
  6  7  1  0
  7  8  2  0
  8  9  1  0
  9 10  2  0
 10 11  1  0
 11 12  1  0
 12 13  2  0
 12 14  1  0
 14 15  1  0
 15 16  2  0
 16 17  1  0
 17 18  2  0
 18 19  1  0
 19 20  1  0
 20 21  2  0
 21 22  1  0
 22 23  1  0
 23 24  1  0
 22 25  2  0
 25 26  1  0
 26 27  2  0
 18 28  1  0
 28 29  2  0
 10 30  1  0
 30 31  2  0
 31 32  1  0
 32 33  1  0
 32 34  1  0
 32 35  1  0
  5 36  1  0
 36 37  1  0
 37  2  1  0
 31  7  1  0
 29 15  1  0
 27 20  1  0
  1 38  1  0
  1 39  1  0
  1 40  1  0
  3 41  1  0
  3 42  1  0
  4 43  1  0
  4 44  1  0
  6 45  1  0
  6 46  1  0
  8 47  1  0
  9 48  1  0
 11 49  1  0
 14 50  1  0
 16 51  1  0
 17 52  1  0
 21 53  1  0
 23 54  1  0
 24 55  1  0
 24 56  1  0
 24 57  1  0
 26 58  1  0
 28 59  1  0
 29 60  1  0
 30 61  1  0
 36 62  1  0
 36 63  1  0
 37 64  1  0
 37 65  1  0
M  END
$$$$
[H]c1nc(Oc2c([H])c([H])c(N([H])C(=O)N([H])c3c([H])c([H])c(C([H])([H])N4C([H])([H])C([H])([H])N(C([H])([H])[H])C([H])([H])C4([H])[H])c(C(F)(F)F)c3[H])c([H])c2[H])c([H])c(N([H])C2([H])C([H])([H])C2([H])[H])n1
     RDKit          3D

 69 73  0  0  0  0  0  0  0  0999 V2000
   -9.6402   -2.4616    0.9524 C   0  0  0  0  0  0  0  0  0  0  0  0
   -9.6351   -1.1693    0.2948 N   0  0  0  0  0  0  0  0  0  0  0  0
   -8.5415   -1.1340   -0.6270 C   0  0  0  0  0  0  0  0  0  0  0  0
   -7.2386   -1.0932    0.1500 C   0  0  0  0  0  0  0  0  0  0  0  0
   -7.1698    0.1765    0.8098 N   0  0  0  0  0  0  0  0  0  0  0  0
   -6.3406    1.0741    0.0458 C   0  0  0  0  0  0  0  0  0  0  0  0
   -4.9218    0.7082    0.1563 C   0  0  0  0  0  0  0  0  0  0  0  0
   -4.4604   -0.2910    0.9931 C   0  0  0  0  0  0  0  0  0  0  0  0
   -3.1435   -0.6203    1.1566 C   0  0  0  0  0  0  0  0  0  0  0  0
   -2.1477    0.0768    0.4479 C   0  0  0  0  0  0  0  0  0  0  0  0
   -0.8026   -0.2791    0.6450 N   0  0  0  0  0  0  0  0  0  0  0  0
    0.3412    0.1716   -0.0580 C   0  0  0  0  0  0  0  0  0  0  0  0
    0.2903    0.9909   -1.0016 O   0  0  0  0  0  0  0  0  0  0  0  0
    1.6010   -0.3479    0.3477 N   0  0  0  0  0  0  0  0  0  0  0  0
    2.8151    0.0231   -0.2563 C   0  0  0  0  0  0  0  0  0  0  0  0
    3.0783    1.1954   -0.9128 C   0  0  0  0  0  0  0  0  0  0  0  0
    4.2995    1.4499   -1.4990 C   0  0  0  0  0  0  0  0  0  0  0  0
    5.2850    0.5039   -1.4249 C   0  0  0  0  0  0  0  0  0  0  0  0
    6.5442    0.6717   -1.9844 O   0  0  0  0  0  0  0  0  0  0  0  0
    7.6085    1.2322   -1.2977 C   0  0  0  0  0  0  0  0  0  0  0  0
    8.3922    0.4263   -0.4697 C   0  0  0  0  0  0  0  0  0  0  0  0
    9.4547    0.8940    0.2399 C   0  0  0  0  0  0  0  0  0  0  0  0
   10.2894    0.1276    1.0922 N   0  0  0  0  0  0  0  0  0  0  0  0
   10.0460   -1.2815    1.2470 C   0  0  0  0  0  0  0  0  0  0  0  0
   10.1281   -2.2571    0.1603 C   0  0  0  0  0  0  0  0  0  0  0  0
   11.3201   -2.1733    1.0976 C   0  0  0  0  0  0  0  0  0  0  0  0
    9.7335    2.2223    0.1073 N   0  0  0  0  0  0  0  0  0  0  0  0
    9.0040    3.0297   -0.6787 C   0  0  0  0  0  0  0  0  0  0  0  0
    7.9491    2.5274   -1.3734 N   0  0  0  0  0  0  0  0  0  0  0  0
    5.0447   -0.6900   -0.7659 C   0  0  0  0  0  0  0  0  0  0  0  0
    3.8356   -0.9370   -0.1883 C   0  0  0  0  0  0  0  0  0  0  0  0
   -2.5836    1.0642   -0.3791 C   0  0  0  0  0  0  0  0  0  0  0  0
   -3.9376    1.3921   -0.5392 C   0  0  0  0  0  0  0  0  0  0  0  0
   -4.2986    2.4803   -1.4796 C   0  0  0  0  0  0  0  0  0  0  0  0
   -5.0599    1.9633   -2.5019 F   0  0  0  0  0  0  0  0  0  0  0  0
   -3.1311    3.0277   -2.0332 F   0  0  0  0  0  0  0  0  0  0  0  0
   -4.9373    3.5396   -0.8518 F   0  0  0  0  0  0  0  0  0  0  0  0
   -8.4151    0.8064    1.0899 C   0  0  0  0  0  0  0  0  0  0  0  0
   -9.5483   -0.1579    1.3235 C   0  0  0  0  0  0  0  0  0  0  0  0
   -9.4940   -3.3003    0.2408 H   0  0  0  0  0  0  0  0  0  0  0  0
  -10.6632   -2.5664    1.4075 H   0  0  0  0  0  0  0  0  0  0  0  0
   -8.8937   -2.5563    1.7539 H   0  0  0  0  0  0  0  0  0  0  0  0
   -8.5289   -2.0908   -1.2028 H   0  0  0  0  0  0  0  0  0  0  0  0
   -8.6017   -0.2556   -1.2842 H   0  0  0  0  0  0  0  0  0  0  0  0
   -7.1794   -1.9703    0.8260 H   0  0  0  0  0  0  0  0  0  0  0  0
   -6.4112   -1.1668   -0.5752 H   0  0  0  0  0  0  0  0  0  0  0  0
   -6.5178    2.1339    0.4100 H   0  0  0  0  0  0  0  0  0  0  0  0
   -6.6567    1.0522   -1.0330 H   0  0  0  0  0  0  0  0  0  0  0  0
   -5.2281   -0.8273    1.5759 H   0  0  0  0  0  0  0  0  0  0  0  0
   -2.8650   -1.4163    1.8298 H   0  0  0  0  0  0  0  0  0  0  0  0
   -0.6296   -0.9823    1.4343 H   0  0  0  0  0  0  0  0  0  0  0  0
    1.6315   -1.0568    1.1595 H   0  0  0  0  0  0  0  0  0  0  0  0
    2.3242    1.9797   -0.9735 H   0  0  0  0  0  0  0  0  0  0  0  0
    4.5236    2.3699   -2.0217 H   0  0  0  0  0  0  0  0  0  0  0  0
    8.1328   -0.6150   -0.3938 H   0  0  0  0  0  0  0  0  0  0  0  0
   11.0908    0.5613    1.6214 H   0  0  0  0  0  0  0  0  0  0  0  0
    9.3908   -1.5797    2.1130 H   0  0  0  0  0  0  0  0  0  0  0  0
    9.4875   -3.1643    0.2038 H   0  0  0  0  0  0  0  0  0  0  0  0
   10.3733   -1.9744   -0.8867 H   0  0  0  0  0  0  0  0  0  0  0  0
   11.4125   -3.0000    1.8174 H   0  0  0  0  0  0  0  0  0  0  0  0
   12.2350   -1.6443    0.7558 H   0  0  0  0  0  0  0  0  0  0  0  0
    9.2909    4.0706   -0.7288 H   0  0  0  0  0  0  0  0  0  0  0  0
    5.8306   -1.4584   -0.6995 H   0  0  0  0  0  0  0  0  0  0  0  0
    3.6863   -1.8850    0.3191 H   0  0  0  0  0  0  0  0  0  0  0  0
   -1.8784    1.6537   -0.9565 H   0  0  0  0  0  0  0  0  0  0  0  0
   -8.7096    1.5698    0.3251 H   0  0  0  0  0  0  0  0  0  0  0  0
   -8.2931    1.3915    2.0468 H   0  0  0  0  0  0  0  0  0  0  0  0
  -10.4918    0.4251    1.2842 H   0  0  0  0  0  0  0  0  0  0  0  0
   -9.4747   -0.5794    2.3459 H   0  0  0  0  0  0  0  0  0  0  0  0
  1  2  1  0
  2  3  1  0
  3  4  1  0
  4  5  1  0
  5  6  1  0
  6  7  1  0
  7  8  2  0
  8  9  1  0
  9 10  2  0
 10 11  1  0
 11 12  1  0
 12 13  2  0
 12 14  1  0
 14 15  1  0
 15 16  2  0
 16 17  1  0
 17 18  2  0
 18 19  1  0
 19 20  1  0
 20 21  2  0
 21 22  1  0
 22 23  1  0
 23 24  1  0
 24 25  1  0
 25 26  1  0
 22 27  2  0
 27 28  1  0
 28 29  2  0
 18 30  1  0
 30 31  2  0
 10 32  1  0
 32 33  2  0
 33 34  1  0
 34 35  1  0
 34 36  1  0
 34 37  1  0
  5 38  1  0
 38 39  1  0
 39  2  1  0
 33  7  1  0
 31 15  1  0
 29 20  1  0
 26 24  1  0
  1 40  1  0
  1 41  1  0
  1 42  1  0
  3 43  1  0
  3 44  1  0
  4 45  1  0
  4 46  1  0
  6 47  1  0
  6 48  1  0
  8 49  1  0
  9 50  1  0
 11 51  1  0
 14 52  1  0
 16 53  1  0
 17 54  1  0
 21 55  1  0
 23 56  1  0
 24 57  1  0
 25 58  1  0
 25 59  1  0
 26 60  1  0
 26 61  1  0
 28 62  1  0
 30 63  1  0
 31 64  1  0
 32 65  1  0
 38 66  1  0
 38 67  1  0
 39 68  1  0
 39 69  1  0
M  END
$$$$
[H]OC([H])([H])C([H])([H])N1C([H])([H])C([H])([H])N(C2([H])C([H])([H])C([H])([H])N(c3c([H])c([H])c(N([H])c4nc([H])c(Cl)c(N([H])c5c([H])c([H])c([H])c([H])c5S(=O)(=O)C([H])(C([H])([H])[H])C([H])([H])[H])n4)c(OC([H])([H])[H])c3[H])C([H])([H])C2([H])[H])C([H])([H])C1([H])[H]
     RDKit          3D

 86 90  0  0  0  0  0  0  0  0999 V2000
   -2.3459   -2.1504   -4.2563 C   0  0  0  0  0  0  0  0  0  0  0  0
   -0.9888   -2.0985   -3.8706 O   0  0  0  0  0  0  0  0  0  0  0  0
   -0.6176   -1.4203   -2.7103 C   0  0  0  0  0  0  0  0  0  0  0  0
   -1.5770   -0.8045   -1.9469 C   0  0  0  0  0  0  0  0  0  0  0  0
   -1.2657   -0.1240   -0.7955 C   0  0  0  0  0  0  0  0  0  0  0  0
    0.0673   -0.0988   -0.4576 C   0  0  0  0  0  0  0  0  0  0  0  0
    1.0667   -0.7112   -1.2053 C   0  0  0  0  0  0  0  0  0  0  0  0
    0.7274   -1.3800   -2.3455 C   0  0  0  0  0  0  0  0  0  0  0  0
    1.6716   -2.0273   -3.1764 N   0  0  0  0  0  0  0  0  0  0  0  0
    3.0441   -2.1878   -3.0782 C   0  0  0  0  0  0  0  0  0  0  0  0
    3.6362   -2.9294   -4.0905 N   0  0  0  0  0  0  0  0  0  0  0  0
    4.9418   -3.1767   -4.1246 C   0  0  0  0  0  0  0  0  0  0  0  0
    5.7750   -2.7010   -3.1448 C   0  0  0  0  0  0  0  0  0  0  0  0
    7.4819   -3.0613   -3.2530 Cl  0  0  0  0  0  0  0  0  0  0  0  0
    5.2171   -1.9456   -2.1044 C   0  0  0  0  0  0  0  0  0  0  0  0
    6.1120   -1.5387   -1.1019 N   0  0  0  0  0  0  0  0  0  0  0  0
    5.9386   -0.7127    0.0129 C   0  0  0  0  0  0  0  0  0  0  0  0
    4.8734    0.1680    0.1570 C   0  0  0  0  0  0  0  0  0  0  0  0
    4.8025    0.9774    1.2704 C   0  0  0  0  0  0  0  0  0  0  0  0
    5.7488    0.9565    2.2598 C   0  0  0  0  0  0  0  0  0  0  0  0
    6.8117    0.0568    2.0826 C   0  0  0  0  0  0  0  0  0  0  0  0
    6.9358   -0.7693    1.0028 C   0  0  0  0  0  0  0  0  0  0  0  0
    8.2849   -1.8304    0.9188 S   0  0  0  0  0  0  0  0  0  0  0  0
    7.7680   -3.2451    0.9584 O   0  0  0  0  0  0  0  0  0  0  0  0
    9.2142   -1.6411   -0.2205 O   0  0  0  0  0  0  0  0  0  0  0  0
    9.2964   -1.6299    2.3919 C   0  0  0  0  0  0  0  0  0  0  0  0
   10.3484   -2.7514    2.2975 C   0  0  0  0  0  0  0  0  0  0  0  0
   10.0624   -0.3513    2.4036 C   0  0  0  0  0  0  0  0  0  0  0  0
    3.8922   -1.7527   -2.1616 N   0  0  0  0  0  0  0  0  0  0  0  0
   -2.2004    0.5129    0.0575 N   0  0  0  0  0  0  0  0  0  0  0  0
   -3.4741   -0.1017    0.2961 C   0  0  0  0  0  0  0  0  0  0  0  0
   -4.6234    0.8650    0.3140 C   0  0  0  0  0  0  0  0  0  0  0  0
   -4.2638    2.0813    1.1438 C   0  0  0  0  0  0  0  0  0  0  0  0
   -3.0368    2.7638    0.6634 C   0  0  0  0  0  0  0  0  0  0  0  0
   -1.8725    1.7645    0.6600 C   0  0  0  0  0  0  0  0  0  0  0  0
   -5.4143    2.8795    1.3399 N   0  0  0  0  0  0  0  0  0  0  0  0
   -6.0506    3.4296    0.1996 C   0  0  0  0  0  0  0  0  0  0  0  0
   -7.3767    2.7117   -0.0831 C   0  0  0  0  0  0  0  0  0  0  0  0
   -8.2662    2.9710    0.9968 N   0  0  0  0  0  0  0  0  0  0  0  0
   -9.1442    1.8806    1.3222 C   0  0  0  0  0  0  0  0  0  0  0  0
  -10.1784    1.5547    0.3038 C   0  0  0  0  0  0  0  0  0  0  0  0
  -11.0582    2.5669    0.0040 O   0  0  0  0  0  0  0  0  0  0  0  0
   -7.5691    3.3588    2.2327 C   0  0  0  0  0  0  0  0  0  0  0  0
   -6.3495    2.4395    2.3242 C   0  0  0  0  0  0  0  0  0  0  0  0
   -2.3947   -2.6541   -5.2658 H   0  0  0  0  0  0  0  0  0  0  0  0
   -2.7423   -1.1215   -4.4086 H   0  0  0  0  0  0  0  0  0  0  0  0
   -2.9300   -2.7158   -3.4951 H   0  0  0  0  0  0  0  0  0  0  0  0
   -2.6335   -0.8300   -2.2347 H   0  0  0  0  0  0  0  0  0  0  0  0
    0.3606    0.4252    0.4401 H   0  0  0  0  0  0  0  0  0  0  0  0
    2.0845   -0.6710   -0.8889 H   0  0  0  0  0  0  0  0  0  0  0  0
    1.2420   -2.4924   -4.0785 H   0  0  0  0  0  0  0  0  0  0  0  0
    5.3802   -3.7709   -4.9451 H   0  0  0  0  0  0  0  0  0  0  0  0
    7.1069   -1.9337   -1.2145 H   0  0  0  0  0  0  0  0  0  0  0  0
    4.1308    0.2164   -0.6278 H   0  0  0  0  0  0  0  0  0  0  0  0
    3.9481    1.6413    1.3242 H   0  0  0  0  0  0  0  0  0  0  0  0
    5.6853    1.5988    3.1372 H   0  0  0  0  0  0  0  0  0  0  0  0
    7.5239    0.0882    2.9110 H   0  0  0  0  0  0  0  0  0  0  0  0
    8.7490   -1.8099    3.3137 H   0  0  0  0  0  0  0  0  0  0  0  0
    9.9208   -3.7202    2.6315 H   0  0  0  0  0  0  0  0  0  0  0  0
   11.2300   -2.5372    2.9322 H   0  0  0  0  0  0  0  0  0  0  0  0
   10.7052   -2.8725    1.2574 H   0  0  0  0  0  0  0  0  0  0  0  0
    9.9643    0.0795    3.4441 H   0  0  0  0  0  0  0  0  0  0  0  0
    9.5920    0.4054    1.7422 H   0  0  0  0  0  0  0  0  0  0  0  0
   11.1403   -0.4664    2.2251 H   0  0  0  0  0  0  0  0  0  0  0  0
   -3.4353   -0.7003    1.2444 H   0  0  0  0  0  0  0  0  0  0  0  0
   -3.6305   -0.8938   -0.4929 H   0  0  0  0  0  0  0  0  0  0  0  0
   -5.4526    0.3536    0.8617 H   0  0  0  0  0  0  0  0  0  0  0  0
   -4.8710    1.1234   -0.7259 H   0  0  0  0  0  0  0  0  0  0  0  0
   -4.0022    1.6515    2.1623 H   0  0  0  0  0  0  0  0  0  0  0  0
   -2.7693    3.5499    1.4150 H   0  0  0  0  0  0  0  0  0  0  0  0
   -3.0916    3.1653   -0.3529 H   0  0  0  0  0  0  0  0  0  0  0  0
   -1.4700    1.6535    1.6842 H   0  0  0  0  0  0  0  0  0  0  0  0
   -1.0228    2.2133    0.0552 H   0  0  0  0  0  0  0  0  0  0  0  0
   -6.3709    4.4843    0.4478 H   0  0  0  0  0  0  0  0  0  0  0  0
   -5.4250    3.5274   -0.6998 H   0  0  0  0  0  0  0  0  0  0  0  0
   -7.7573    3.1900   -1.0276 H   0  0  0  0  0  0  0  0  0  0  0  0
   -7.1458    1.6564   -0.2206 H   0  0  0  0  0  0  0  0  0  0  0  0
   -9.6772    2.1490    2.2662 H   0  0  0  0  0  0  0  0  0  0  0  0
   -8.5643    0.9578    1.5119 H   0  0  0  0  0  0  0  0  0  0  0  0
   -9.7443    1.0730   -0.6152 H   0  0  0  0  0  0  0  0  0  0  0  0
  -10.8044    0.7288    0.7567 H   0  0  0  0  0  0  0  0  0  0  0  0
  -10.7455    2.9876   -0.8374 H   0  0  0  0  0  0  0  0  0  0  0  0
   -8.2178    3.1438    3.1143 H   0  0  0  0  0  0  0  0  0  0  0  0
   -7.3087    4.4153    2.2504 H   0  0  0  0  0  0  0  0  0  0  0  0
   -6.7051    1.4146    2.1874 H   0  0  0  0  0  0  0  0  0  0  0  0
   -5.8972    2.6267    3.3285 H   0  0  0  0  0  0  0  0  0  0  0  0
  1  2  1  0
  2  3  1  0
  3  4  2  0
  4  5  1  0
  5  6  2  0
  6  7  1  0
  7  8  2  0
  8  9  1  0
  9 10  1  0
 10 11  2  0
 11 12  1  0
 12 13  2  0
 13 14  1  0
 13 15  1  0
 15 16  1  0
 16 17  1  0
 17 18  2  0
 18 19  1  0
 19 20  2  0
 20 21  1  0
 21 22  2  0
 22 23  1  0
 23 24  2  0
 23 25  2  0
 23 26  1  0
 26 27  1  0
 26 28  1  0
 15 29  2  0
  5 30  1  0
 30 31  1  0
 31 32  1  0
 32 33  1  0
 33 34  1  0
 34 35  1  0
 33 36  1  0
 36 37  1  0
 37 38  1  0
 38 39  1  0
 39 40  1  0
 40 41  1  0
 41 42  1  0
 39 43  1  0
 43 44  1  0
  8  3  1  0
 29 10  1  0
 35 30  1  0
 44 36  1  0
 22 17  1  0
  1 45  1  0
  1 46  1  0
  1 47  1  0
  4 48  1  0
  6 49  1  0
  7 50  1  0
  9 51  1  0
 12 52  1  0
 16 53  1  0
 18 54  1  0
 19 55  1  0
 20 56  1  0
 21 57  1  0
 26 58  1  0
 27 59  1  0
 27 60  1  0
 27 61  1  0
 28 62  1  0
 28 63  1  0
 28 64  1  0
 31 65  1  0
 31 66  1  0
 32 67  1  0
 32 68  1  0
 33 69  1  0
 34 70  1  0
 34 71  1  0
 35 72  1  0
 35 73  1  0
 37 74  1  0
 37 75  1  0
 38 76  1  0
 38 77  1  0
 40 78  1  0
 40 79  1  0
 41 80  1  0
 41 81  1  0
 42 82  1  0
 43 83  1  0
 43 84  1  0
 44 85  1  0
 44 86  1  0
M  END
$$$$
[H]c1nc(N([H])c2c([H])c([H])c(N3C([H])([H])C([H])([H])C([H])(N(C([H])([H])[H])C([H])([H])[H])C([H])([H])C3([H])[H])c([H])c2OC([H])([H])[H])nc(N([H])c2c([H])c([H])c([H])c([H])c2S(=O)(=O)C([H])(C([H])([H])[H])C([H])([H])[H])c1Cl
     RDKit          3D

 73 76  0  0  0  0  0  0  0  0999 V2000
   -1.4887   -3.5880    1.2680 C   0  0  0  0  0  0  0  0  0  0  0  0
   -0.7608   -2.5452    0.6863 O   0  0  0  0  0  0  0  0  0  0  0  0
   -1.4161   -1.4468    0.1649 C   0  0  0  0  0  0  0  0  0  0  0  0
   -2.7697   -1.3138    0.1835 C   0  0  0  0  0  0  0  0  0  0  0  0
   -3.4310   -0.2298   -0.3300 C   0  0  0  0  0  0  0  0  0  0  0  0
   -2.6699    0.7643   -0.8887 C   0  0  0  0  0  0  0  0  0  0  0  0
   -1.2837    0.6857   -0.9374 C   0  0  0  0  0  0  0  0  0  0  0  0
   -0.6456   -0.4090   -0.4169 C   0  0  0  0  0  0  0  0  0  0  0  0
    0.7306   -0.5530   -0.4331 N   0  0  0  0  0  0  0  0  0  0  0  0
    1.7028    0.3458   -0.9492 C   0  0  0  0  0  0  0  0  0  0  0  0
    1.4800    1.5214   -1.5269 N   0  0  0  0  0  0  0  0  0  0  0  0
    2.4593    2.3096   -1.9876 C   0  0  0  0  0  0  0  0  0  0  0  0
    3.7698    1.9304   -1.8818 C   0  0  0  0  0  0  0  0  0  0  0  0
    5.0878    2.9156   -2.4745 Cl  0  0  0  0  0  0  0  0  0  0  0  0
    4.0678    0.6884   -1.2753 C   0  0  0  0  0  0  0  0  0  0  0  0
    5.4172    0.3014   -1.1217 N   0  0  0  0  0  0  0  0  0  0  0  0
    5.8705   -0.9049   -0.5954 C   0  0  0  0  0  0  0  0  0  0  0  0
    5.0906   -2.0601   -0.5353 C   0  0  0  0  0  0  0  0  0  0  0  0
    5.6105   -3.2759   -0.1172 C   0  0  0  0  0  0  0  0  0  0  0  0
    6.9209   -3.3878    0.2545 C   0  0  0  0  0  0  0  0  0  0  0  0
    7.6858   -2.2549    0.1966 C   0  0  0  0  0  0  0  0  0  0  0  0
    7.2100   -1.0030   -0.2158 C   0  0  0  0  0  0  0  0  0  0  0  0
    8.2797    0.3289   -0.1092 S   0  0  0  0  0  0  0  0  0  0  0  0
    9.7039   -0.2341    0.1061 O   0  0  0  0  0  0  0  0  0  0  0  0
    8.4312    1.1263   -1.3815 O   0  0  0  0  0  0  0  0  0  0  0  0
    8.0255    1.4139    1.2573 C   0  0  0  0  0  0  0  0  0  0  0  0
    9.1794    2.4149    1.3719 C   0  0  0  0  0  0  0  0  0  0  0  0
    6.7769    2.1937    1.2396 C   0  0  0  0  0  0  0  0  0  0  0  0
    3.0226    0.0056   -0.8635 N   0  0  0  0  0  0  0  0  0  0  0  0
   -4.8624   -0.0923   -0.3072 N   0  0  0  0  0  0  0  0  0  0  0  0
   -5.5849   -1.1673    0.3276 C   0  0  0  0  0  0  0  0  0  0  0  0
   -7.0407   -0.9434    0.5155 C   0  0  0  0  0  0  0  0  0  0  0  0
   -7.4356    0.4949    0.3818 C   0  0  0  0  0  0  0  0  0  0  0  0
   -6.9640    0.9951   -0.9680 C   0  0  0  0  0  0  0  0  0  0  0  0
   -5.4597    1.0612   -0.8960 C   0  0  0  0  0  0  0  0  0  0  0  0
   -8.8564    0.6589    0.5708 N   0  0  0  0  0  0  0  0  0  0  0  0
   -9.2782    2.0230    0.4605 C   0  0  0  0  0  0  0  0  0  0  0  0
   -9.6390   -0.2430   -0.2416 C   0  0  0  0  0  0  0  0  0  0  0  0
   -0.7931   -4.1921    1.9054 H   0  0  0  0  0  0  0  0  0  0  0  0
   -1.9544   -4.2113    0.4616 H   0  0  0  0  0  0  0  0  0  0  0  0
   -2.2604   -3.2007    1.9817 H   0  0  0  0  0  0  0  0  0  0  0  0
   -3.3514   -2.1246    0.6360 H   0  0  0  0  0  0  0  0  0  0  0  0
   -3.1295    1.6488   -1.3125 H   0  0  0  0  0  0  0  0  0  0  0  0
   -0.7832    1.5103   -1.3929 H   0  0  0  0  0  0  0  0  0  0  0  0
    1.1068   -1.4691    0.0044 H   0  0  0  0  0  0  0  0  0  0  0  0
    2.2213    3.2667   -2.4541 H   0  0  0  0  0  0  0  0  0  0  0  0
    6.1140    0.9939   -1.4647 H   0  0  0  0  0  0  0  0  0  0  0  0
    4.0603   -2.0188   -0.8381 H   0  0  0  0  0  0  0  0  0  0  0  0
    4.9515   -4.1295   -0.0940 H   0  0  0  0  0  0  0  0  0  0  0  0
    7.3564   -4.3431    0.5885 H   0  0  0  0  0  0  0  0  0  0  0  0
    8.7315   -2.3610    0.4975 H   0  0  0  0  0  0  0  0  0  0  0  0
    8.1309    0.7711    2.1790 H   0  0  0  0  0  0  0  0  0  0  0  0
    9.2341    2.9999    0.4280 H   0  0  0  0  0  0  0  0  0  0  0  0
    8.8903    3.1190    2.1704 H   0  0  0  0  0  0  0  0  0  0  0  0
   10.1385    1.9091    1.5465 H   0  0  0  0  0  0  0  0  0  0  0  0
    6.6586    2.6546    0.2401 H   0  0  0  0  0  0  0  0  0  0  0  0
    5.9200    1.5461    1.5414 H   0  0  0  0  0  0  0  0  0  0  0  0
    6.8570    3.0425    1.9945 H   0  0  0  0  0  0  0  0  0  0  0  0
   -5.4057   -2.0834   -0.2985 H   0  0  0  0  0  0  0  0  0  0  0  0
   -5.1129   -1.3839    1.3330 H   0  0  0  0  0  0  0  0  0  0  0  0
   -7.3369   -1.2598    1.5530 H   0  0  0  0  0  0  0  0  0  0  0  0
   -7.5857   -1.5404   -0.2484 H   0  0  0  0  0  0  0  0  0  0  0  0
   -6.9204    1.0822    1.1579 H   0  0  0  0  0  0  0  0  0  0  0  0
   -7.3716    2.0047   -1.1693 H   0  0  0  0  0  0  0  0  0  0  0  0
   -7.2424    0.3151   -1.7855 H   0  0  0  0  0  0  0  0  0  0  0  0
   -5.0229    1.2094   -1.9181 H   0  0  0  0  0  0  0  0  0  0  0  0
   -5.2243    1.9555   -0.2465 H   0  0  0  0  0  0  0  0  0  0  0  0
   -9.3583    2.3936   -0.5797 H   0  0  0  0  0  0  0  0  0  0  0  0
   -8.5425    2.6556    1.0032 H   0  0  0  0  0  0  0  0  0  0  0  0
  -10.3018    2.1167    0.9062 H   0  0  0  0  0  0  0  0  0  0  0  0
  -10.5738    0.3178   -0.5167 H   0  0  0  0  0  0  0  0  0  0  0  0
   -9.1485   -0.5590   -1.1630 H   0  0  0  0  0  0  0  0  0  0  0  0
   -9.8879   -1.1629    0.3397 H   0  0  0  0  0  0  0  0  0  0  0  0
  1  2  1  0
  2  3  1  0
  3  4  2  0
  4  5  1  0
  5  6  2  0
  6  7  1  0
  7  8  2  0
  8  9  1  0
  9 10  1  0
 10 11  2  0
 11 12  1  0
 12 13  2  0
 13 14  1  0
 13 15  1  0
 15 16  1  0
 16 17  1  0
 17 18  2  0
 18 19  1  0
 19 20  2  0
 20 21  1  0
 21 22  2  0
 22 23  1  0
 23 24  2  0
 23 25  2  0
 23 26  1  0
 26 27  1  0
 26 28  1  0
 15 29  2  0
  5 30  1  0
 30 31  1  0
 31 32  1  0
 32 33  1  0
 33 34  1  0
 34 35  1  0
 33 36  1  0
 36 37  1  0
 36 38  1  0
  8  3  1  0
 29 10  1  0
 35 30  1  0
 22 17  1  0
  1 39  1  0
  1 40  1  0
  1 41  1  0
  4 42  1  0
  6 43  1  0
  7 44  1  0
  9 45  1  0
 12 46  1  0
 16 47  1  0
 18 48  1  0
 19 49  1  0
 20 50  1  0
 21 51  1  0
 26 52  1  0
 27 53  1  0
 27 54  1  0
 27 55  1  0
 28 56  1  0
 28 57  1  0
 28 58  1  0
 31 59  1  0
 31 60  1  0
 32 61  1  0
 32 62  1  0
 33 63  1  0
 34 64  1  0
 34 65  1  0
 35 66  1  0
 35 67  1  0
 37 68  1  0
 37 69  1  0
 37 70  1  0
 38 71  1  0
 38 72  1  0
 38 73  1  0
M  END
$$$$
[H]c1nn2c(N([H])C3([H])C([H])([H])C3([H])[H])c([H])c(N([H])c3c([H])c([H])c(N4C([H])([H])C([H])([H])N(C([H])([H])[H])C([H])([H])C4([H])[H])c(N([H])C(=O)C([H])([H])[H])c3[H])nc2c1C#N
     RDKit          3D

 60 64  0  0  0  0  0  0  0  0999 V2000
   -7.9824    0.1067    0.4726 C   0  0  0  0  0  0  0  0  0  0  0  0
   -6.7348   -0.1676    1.1366 N   0  0  0  0  0  0  0  0  0  0  0  0
   -5.8203    0.9377    0.9519 C   0  0  0  0  0  0  0  0  0  0  0  0
   -4.4072    0.5435    1.3944 C   0  0  0  0  0  0  0  0  0  0  0  0
   -3.9754   -0.5076    0.4981 N   0  0  0  0  0  0  0  0  0  0  0  0
   -4.9940   -1.2411   -0.2199 C   0  0  0  0  0  0  0  0  0  0  0  0
   -6.1595   -1.4284    0.7241 C   0  0  0  0  0  0  0  0  0  0  0  0
   -2.5921   -0.7670    0.3670 C   0  0  0  0  0  0  0  0  0  0  0  0
   -2.0965   -1.9086    0.9514 C   0  0  0  0  0  0  0  0  0  0  0  0
   -0.7668   -2.2428    0.9187 C   0  0  0  0  0  0  0  0  0  0  0  0
    0.1510   -1.3962    0.2645 C   0  0  0  0  0  0  0  0  0  0  0  0
    1.5051   -1.8039    0.2348 N   0  0  0  0  0  0  0  0  0  0  0  0
    2.6254   -0.9587    0.0750 C   0  0  0  0  0  0  0  0  0  0  0  0
    3.8930   -1.5652    0.0081 C   0  0  0  0  0  0  0  0  0  0  0  0
    5.0390   -0.7904   -0.1201 C   0  0  0  0  0  0  0  0  0  0  0  0
    6.3039   -1.4454   -0.1759 N   0  0  0  0  0  0  0  0  0  0  0  0
    7.5726   -0.7874   -0.3336 C   0  0  0  0  0  0  0  0  0  0  0  0
    8.8265   -1.6142   -0.2805 C   0  0  0  0  0  0  0  0  0  0  0  0
    8.5357   -0.5924    0.7618 C   0  0  0  0  0  0  0  0  0  0  0  0
    4.8790    0.5391   -0.1753 N   0  0  0  0  0  0  0  0  0  0  0  0
    5.7587    1.5024   -0.2870 N   0  0  0  0  0  0  0  0  0  0  0  0
    5.1817    2.7144   -0.3005 C   0  0  0  0  0  0  0  0  0  0  0  0
    3.8106    2.5202   -0.1879 C   0  0  0  0  0  0  0  0  0  0  0  0
    2.8053    3.5428   -0.1560 C   0  0  0  0  0  0  0  0  0  0  0  0
    2.0078    4.3807   -0.1185 N   0  0  0  0  0  0  0  0  0  0  0  0
    3.6639    1.1401   -0.1121 C   0  0  0  0  0  0  0  0  0  0  0  0
    2.5885    0.3830    0.0093 N   0  0  0  0  0  0  0  0  0  0  0  0
   -0.3614   -0.2654   -0.3122 C   0  0  0  0  0  0  0  0  0  0  0  0
   -1.7033    0.0835   -0.2867 C   0  0  0  0  0  0  0  0  0  0  0  0
   -2.2462    1.2216   -0.9106 N   0  0  0  0  0  0  0  0  0  0  0  0
   -1.6107    2.2671   -1.5801 C   0  0  0  0  0  0  0  0  0  0  0  0
   -2.4445    3.3756   -2.1622 C   0  0  0  0  0  0  0  0  0  0  0  0
   -0.3915    2.3478   -1.7307 O   0  0  0  0  0  0  0  0  0  0  0  0
   -8.8558   -0.2595    1.0131 H   0  0  0  0  0  0  0  0  0  0  0  0
   -7.9337   -0.2285   -0.5907 H   0  0  0  0  0  0  0  0  0  0  0  0
   -8.0819    1.2297    0.4212 H   0  0  0  0  0  0  0  0  0  0  0  0
   -6.1457    1.8275    1.4896 H   0  0  0  0  0  0  0  0  0  0  0  0
   -5.7549    1.1940   -0.1255 H   0  0  0  0  0  0  0  0  0  0  0  0
   -4.4723    0.0957    2.4283 H   0  0  0  0  0  0  0  0  0  0  0  0
   -3.7561    1.4198    1.4258 H   0  0  0  0  0  0  0  0  0  0  0  0
   -4.5724   -2.2410   -0.4465 H   0  0  0  0  0  0  0  0  0  0  0  0
   -5.3029   -0.7097   -1.1310 H   0  0  0  0  0  0  0  0  0  0  0  0
   -6.9540   -1.9812    0.1780 H   0  0  0  0  0  0  0  0  0  0  0  0
   -5.8504   -2.0150    1.5912 H   0  0  0  0  0  0  0  0  0  0  0  0
   -2.8101   -2.5734    1.4639 H   0  0  0  0  0  0  0  0  0  0  0  0
   -0.3885   -3.1444    1.3823 H   0  0  0  0  0  0  0  0  0  0  0  0
    1.7136   -2.8581    0.3430 H   0  0  0  0  0  0  0  0  0  0  0  0
    3.9919   -2.6444    0.0552 H   0  0  0  0  0  0  0  0  0  0  0  0
    6.3344   -2.4924   -0.0975 H   0  0  0  0  0  0  0  0  0  0  0  0
    7.5972    0.0061   -1.1436 H   0  0  0  0  0  0  0  0  0  0  0  0
    9.6309   -1.4425   -1.0100 H   0  0  0  0  0  0  0  0  0  0  0  0
    8.6476   -2.6856   -0.0518 H   0  0  0  0  0  0  0  0  0  0  0  0
    8.2183   -0.9128    1.7759 H   0  0  0  0  0  0  0  0  0  0  0  0
    9.1984    0.2888    0.7750 H   0  0  0  0  0  0  0  0  0  0  0  0
    5.6780    3.6658   -0.3828 H   0  0  0  0  0  0  0  0  0  0  0  0
    0.3025    0.3894   -0.8303 H   0  0  0  0  0  0  0  0  0  0  0  0
   -3.3196    1.3020   -0.8874 H   0  0  0  0  0  0  0  0  0  0  0  0
   -1.9031    3.9095   -2.9502 H   0  0  0  0  0  0  0  0  0  0  0  0
   -2.7215    4.1063   -1.3895 H   0  0  0  0  0  0  0  0  0  0  0  0
   -3.3513    2.9302   -2.6238 H   0  0  0  0  0  0  0  0  0  0  0  0
  1  2  1  0
  2  3  1  0
  3  4  1  0
  4  5  1  0
  5  6  1  0
  6  7  1  0
  5  8  1  0
  8  9  2  0
  9 10  1  0
 10 11  2  0
 11 12  1  0
 12 13  1  0
 13 14  1  0
 14 15  2  0
 15 16  1  0
 16 17  1  0
 17 18  1  0
 18 19  1  0
 15 20  1  0
 20 21  1  0
 21 22  2  0
 22 23  1  0
 23 24  1  0
 24 25  3  0
 23 26  2  0
 26 27  1  0
 11 28  1  0
 28 29  2  0
 29 30  1  0
 30 31  1  0
 31 32  1  0
 31 33  2  0
  7  2  1  0
 29  8  1  0
 27 13  2  0
 19 17  1  0
 26 20  1  0
  1 34  1  0
  1 35  1  0
  1 36  1  0
  3 37  1  0
  3 38  1  0
  4 39  1  0
  4 40  1  0
  6 41  1  0
  6 42  1  0
  7 43  1  0
  7 44  1  0
  9 45  1  0
 10 46  1  0
 12 47  1  0
 14 48  1  0
 16 49  1  0
 17 50  1  0
 18 51  1  0
 18 52  1  0
 19 53  1  0
 19 54  1  0
 22 55  1  0
 28 56  1  0
 30 57  1  0
 32 58  1  0
 32 59  1  0
 32 60  1  0
M  END
$$$$
[H]Oc1c([H])c(C([H])([H])[H])c2c(oc(=O)c3c(O[H])c([H])c(OC([H])([H])[H])c([H])c32)c1[H]
     RDKit          3D

 32 34  0  0  0  0  0  0  0  0999 V2000
    3.6241    1.6630   -0.7343 C   0  0  0  0  0  0  0  0  0  0  0  0
    3.4459    0.4521   -1.4358 O   0  0  0  0  0  0  0  0  0  0  0  0
    2.2544   -0.2832   -1.3068 C   0  0  0  0  0  0  0  0  0  0  0  0
    2.1294   -1.4347   -1.9966 C   0  0  0  0  0  0  0  0  0  0  0  0
    0.9428   -2.2017   -1.8913 C   0  0  0  0  0  0  0  0  0  0  0  0
    0.8906   -3.3449   -2.6133 O   0  0  0  0  0  0  0  0  0  0  0  0
   -0.0704   -1.7479   -1.0752 C   0  0  0  0  0  0  0  0  0  0  0  0
    0.0924   -0.5535   -0.3757 C   0  0  0  0  0  0  0  0  0  0  0  0
    1.2260    0.1889   -0.4711 C   0  0  0  0  0  0  0  0  0  0  0  0
   -0.9605   -0.1208    0.4387 C   0  0  0  0  0  0  0  0  0  0  0  0
   -0.8599    1.0411    1.1523 C   0  0  0  0  0  0  0  0  0  0  0  0
    0.2814    1.9227    1.1923 C   0  0  0  0  0  0  0  0  0  0  0  0
   -1.9961    1.3831    1.9456 C   0  0  0  0  0  0  0  0  0  0  0  0
   -3.1163    0.6093    1.9992 C   0  0  0  0  0  0  0  0  0  0  0  0
   -4.1647    1.0084    2.7859 O   0  0  0  0  0  0  0  0  0  0  0  0
   -3.1914   -0.5397    1.2831 C   0  0  0  0  0  0  0  0  0  0  0  0
   -2.1174   -0.9107    0.5010 C   0  0  0  0  0  0  0  0  0  0  0  0
   -2.2033   -2.0186   -0.1815 O   0  0  0  0  0  0  0  0  0  0  0  0
   -1.2490   -2.4613   -0.9502 C   0  0  0  0  0  0  0  0  0  0  0  0
   -1.3940   -3.5413   -1.5839 O   0  0  0  0  0  0  0  0  0  0  0  0
    4.6541    2.0313   -0.8333 H   0  0  0  0  0  0  0  0  0  0  0  0
    2.9371    2.4633   -1.1041 H   0  0  0  0  0  0  0  0  0  0  0  0
    3.4320    1.4726    0.3590 H   0  0  0  0  0  0  0  0  0  0  0  0
    2.9117   -1.8146   -2.6452 H   0  0  0  0  0  0  0  0  0  0  0  0
    0.3096   -4.0551   -2.7805 H   0  0  0  0  0  0  0  0  0  0  0  0
    1.4710    1.0750   -0.0327 H   0  0  0  0  0  0  0  0  0  0  0  0
   -0.0076    2.7339    1.9769 H   0  0  0  0  0  0  0  0  0  0  0  0
    1.1781    1.6057    1.7800 H   0  0  0  0  0  0  0  0  0  0  0  0
    0.4221    2.6520    0.3692 H   0  0  0  0  0  0  0  0  0  0  0  0
   -1.9061    2.3089    2.5050 H   0  0  0  0  0  0  0  0  0  0  0  0
   -4.9063    1.6002    2.4269 H   0  0  0  0  0  0  0  0  0  0  0  0
   -4.0597   -1.1837    1.2962 H   0  0  0  0  0  0  0  0  0  0  0  0
  1  2  1  0
  2  3  1  0
  3  4  2  0
  4  5  1  0
  5  6  1  0
  5  7  2  0
  7  8  1  0
  8  9  2  0
  8 10  1  0
 10 11  2  0
 11 12  1  0
 11 13  1  0
 13 14  2  0
 14 15  1  0
 14 16  1  0
 16 17  2  0
 17 18  1  0
 18 19  1  0
 19 20  2  0
  9  3  1  0
 17 10  1  0
 19  7  1  0
  1 21  1  0
  1 22  1  0
  1 23  1  0
  4 24  1  0
  6 25  1  0
  9 26  1  0
 12 27  1  0
 12 28  1  0
 12 29  1  0
 13 30  1  0
 15 31  1  0
 16 32  1  0
M  END
$$$$
[H]c1c([H])c([H])c(/C(=C2/C(=O)N([H])c3c([H])c(C(=O)OC([H])([H])[H])c([H])c([H])c32)N([H])c2c([H])c([H])c(N(C(=O)C([H])([H])[H])C([H])([H])[H])c([H])c2[H])c([H])c1[H]
     RDKit          3D

 56 59  0  0  0  0  0  0  0  0999 V2000
    8.7442    1.6636   -0.9141 C   0  0  0  0  0  0  0  0  0  0  0  0
    7.4320    1.2432   -0.6195 O   0  0  0  0  0  0  0  0  0  0  0  0
    6.4801    2.1245   -0.1366 C   0  0  0  0  0  0  0  0  0  0  0  0
    6.8199    3.3232    0.0339 O   0  0  0  0  0  0  0  0  0  0  0  0
    5.1481    1.6299    0.1483 C   0  0  0  0  0  0  0  0  0  0  0  0
    4.8389    0.2999   -0.0569 C   0  0  0  0  0  0  0  0  0  0  0  0
    3.5917   -0.2146    0.1951 C   0  0  0  0  0  0  0  0  0  0  0  0
    2.6335    0.6382    0.6629 C   0  0  0  0  0  0  0  0  0  0  0  0
    1.2299    0.4501    1.0530 C   0  0  0  0  0  0  0  0  0  0  0  0
    0.4756   -0.6164    0.9324 C   0  0  0  0  0  0  0  0  0  0  0  0
   -0.8621   -0.6256    1.3808 N   0  0  0  0  0  0  0  0  0  0  0  0
   -2.0960   -0.4511    0.8653 C   0  0  0  0  0  0  0  0  0  0  0  0
   -2.2784   -0.1593   -0.4654 C   0  0  0  0  0  0  0  0  0  0  0  0
   -3.5152    0.0222   -1.0116 C   0  0  0  0  0  0  0  0  0  0  0  0
   -4.6310   -0.0876   -0.2117 C   0  0  0  0  0  0  0  0  0  0  0  0
   -4.5046   -0.3784    1.1290 C   0  0  0  0  0  0  0  0  0  0  0  0
   -3.2319   -0.5509    1.6217 C   0  0  0  0  0  0  0  0  0  0  0  0
   -5.9127    0.1116   -0.8087 N   0  0  0  0  0  0  0  0  0  0  0  0
   -6.5145   -0.8027   -1.7413 C   0  0  0  0  0  0  0  0  0  0  0  0
   -6.6119    1.3034   -0.4330 C   0  0  0  0  0  0  0  0  0  0  0  0
   -7.9757    1.6286   -0.9724 C   0  0  0  0  0  0  0  0  0  0  0  0
   -6.1289    2.1541    0.3720 O   0  0  0  0  0  0  0  0  0  0  0  0
    0.8985   -1.7897    0.2146 C   0  0  0  0  0  0  0  0  0  0  0  0
    1.0722   -1.7810   -1.1460 C   0  0  0  0  0  0  0  0  0  0  0  0
    1.4425   -2.8961   -1.8549 C   0  0  0  0  0  0  0  0  0  0  0  0
    1.6442   -4.0650   -1.1526 C   0  0  0  0  0  0  0  0  0  0  0  0
    1.4851   -4.1294    0.2074 C   0  0  0  0  0  0  0  0  0  0  0  0
    1.1069   -2.9706    0.8929 C   0  0  0  0  0  0  0  0  0  0  0  0
    0.6880    1.7254    1.5186 C   0  0  0  0  0  0  0  0  0  0  0  0
   -0.4754    1.9015    1.9254 O   0  0  0  0  0  0  0  0  0  0  0  0
    1.7585    2.6493    1.3969 N   0  0  0  0  0  0  0  0  0  0  0  0
    2.9122    1.9950    0.8860 C   0  0  0  0  0  0  0  0  0  0  0  0
    4.1776    2.4771    0.6226 C   0  0  0  0  0  0  0  0  0  0  0  0
    8.7304    2.7551   -1.1896 H   0  0  0  0  0  0  0  0  0  0  0  0
    9.4176    1.5584   -0.0322 H   0  0  0  0  0  0  0  0  0  0  0  0
    9.1635    1.0633   -1.7203 H   0  0  0  0  0  0  0  0  0  0  0  0
    5.6274   -0.3359   -0.4290 H   0  0  0  0  0  0  0  0  0  0  0  0
    3.4334   -1.2428    0.0598 H   0  0  0  0  0  0  0  0  0  0  0  0
   -0.8984   -0.8256    2.4044 H   0  0  0  0  0  0  0  0  0  0  0  0
   -1.4393   -0.0546   -1.1199 H   0  0  0  0  0  0  0  0  0  0  0  0
   -3.6307    0.2478   -2.0611 H   0  0  0  0  0  0  0  0  0  0  0  0
   -5.3825   -0.4627    1.7641 H   0  0  0  0  0  0  0  0  0  0  0  0
   -3.1840   -0.7782    2.6896 H   0  0  0  0  0  0  0  0  0  0  0  0
   -7.5933   -0.9804   -1.5399 H   0  0  0  0  0  0  0  0  0  0  0  0
   -6.0067   -1.7905   -1.5844 H   0  0  0  0  0  0  0  0  0  0  0  0
   -6.3290   -0.5526   -2.8034 H   0  0  0  0  0  0  0  0  0  0  0  0
   -8.2560    0.9956   -1.8140 H   0  0  0  0  0  0  0  0  0  0  0  0
   -7.9718    2.7143   -1.2764 H   0  0  0  0  0  0  0  0  0  0  0  0
   -8.6800    1.5749   -0.1180 H   0  0  0  0  0  0  0  0  0  0  0  0
    0.9157   -0.8620   -1.7286 H   0  0  0  0  0  0  0  0  0  0  0  0
    1.5823   -2.9110   -2.9239 H   0  0  0  0  0  0  0  0  0  0  0  0
    1.9427   -4.9774   -1.6888 H   0  0  0  0  0  0  0  0  0  0  0  0
    1.6532   -5.0585    0.7106 H   0  0  0  0  0  0  0  0  0  0  0  0
    0.9934   -3.0715    1.9702 H   0  0  0  0  0  0  0  0  0  0  0  0
    1.6421    3.6620    1.6640 H   0  0  0  0  0  0  0  0  0  0  0  0
    4.4286    3.5099    0.7794 H   0  0  0  0  0  0  0  0  0  0  0  0
  1  2  1  0
  2  3  1  0
  3  4  2  0
  3  5  1  0
  5  6  2  0
  6  7  1  0
  7  8  2  0
  8  9  1  0
  9 10  2  0
 10 11  1  0
 11 12  1  0
 12 13  2  0
 13 14  1  0
 14 15  2  0
 15 16  1  0
 16 17  2  0
 15 18  1  0
 18 19  1  0
 18 20  1  0
 20 21  1  0
 20 22  2  0
 10 23  1  0
 23 24  2  0
 24 25  1  0
 25 26  2  0
 26 27  1  0
 27 28  2  0
  9 29  1  0
 29 30  2  0
 29 31  1  0
 31 32  1  0
 32 33  2  0
 33  5  1  0
 32  8  1  0
 17 12  1  0
 28 23  1  0
  1 34  1  0
  1 35  1  0
  1 36  1  0
  6 37  1  0
  7 38  1  0
 11 39  1  0
 13 40  1  0
 14 41  1  0
 16 42  1  0
 17 43  1  0
 19 44  1  0
 19 45  1  0
 19 46  1  0
 21 47  1  0
 21 48  1  0
 21 49  1  0
 24 50  1  0
 25 51  1  0
 26 52  1  0
 27 53  1  0
 28 54  1  0
 31 55  1  0
 33 56  1  0
M  END
$$$$
[H]c1nc(N([H])c2c([H])c(OC([H])([H])[H])c([H])c(C(F)(F)F)c2[H])nc(N([H])c2nc3c(c([H])c2[H])OC(C([H])([H])[H])(C([H])([H])[H])C(=O)N3[H])c1F
     RDKit          3D

 52 55  0  0  0  0  0  0  0  0999 V2000
   -7.5036    2.0766   -0.9199 C   0  0  0  0  0  0  0  0  0  0  0  0
   -6.7298    0.9649   -0.9987 O   0  0  0  0  0  0  0  0  0  0  0  0
   -5.4983    0.6051   -0.5416 C   0  0  0  0  0  0  0  0  0  0  0  0
   -5.0218   -0.6607   -0.8156 C   0  0  0  0  0  0  0  0  0  0  0  0
   -3.7853   -1.1460   -0.4039 C   0  0  0  0  0  0  0  0  0  0  0  0
   -3.4359   -2.4767   -0.6829 N   0  0  0  0  0  0  0  0  0  0  0  0
   -2.2084   -3.1365   -0.7645 C   0  0  0  0  0  0  0  0  0  0  0  0
   -2.2836   -4.5052   -1.0499 N   0  0  0  0  0  0  0  0  0  0  0  0
   -1.2150   -5.2643   -1.1777 C   0  0  0  0  0  0  0  0  0  0  0  0
    0.0365   -4.7427   -1.0348 C   0  0  0  0  0  0  0  0  0  0  0  0
    1.1525   -5.5243   -1.1575 F   0  0  0  0  0  0  0  0  0  0  0  0
    0.1762   -3.3571   -0.7427 C   0  0  0  0  0  0  0  0  0  0  0  0
    1.4893   -2.9198   -0.6375 N   0  0  0  0  0  0  0  0  0  0  0  0
    2.0438   -1.6540   -0.3888 C   0  0  0  0  0  0  0  0  0  0  0  0
    1.3124   -0.5554   -0.0819 C   0  0  0  0  0  0  0  0  0  0  0  0
    1.8707    0.7056    0.1050 C   0  0  0  0  0  0  0  0  0  0  0  0
    3.2576    0.8196   -0.0361 C   0  0  0  0  0  0  0  0  0  0  0  0
    3.8565    2.0485    0.1421 O   0  0  0  0  0  0  0  0  0  0  0  0
    5.2614    2.1641    0.3836 C   0  0  0  0  0  0  0  0  0  0  0  0
    5.7910    3.5358   -0.0236 C   0  0  0  0  0  0  0  0  0  0  0  0
    5.5191    1.8806    1.8321 C   0  0  0  0  0  0  0  0  0  0  0  0
    5.9679    1.1675   -0.4878 C   0  0  0  0  0  0  0  0  0  0  0  0
    7.0258    1.5117   -1.0988 O   0  0  0  0  0  0  0  0  0  0  0  0
    5.4009   -0.1282   -0.5791 N   0  0  0  0  0  0  0  0  0  0  0  0
    4.0108   -0.2925   -0.3497 C   0  0  0  0  0  0  0  0  0  0  0  0
    3.4088   -1.4654   -0.5123 N   0  0  0  0  0  0  0  0  0  0  0  0
   -0.9658   -2.6658   -0.6325 N   0  0  0  0  0  0  0  0  0  0  0  0
   -3.0248   -0.2524    0.3237 C   0  0  0  0  0  0  0  0  0  0  0  0
   -3.4844    1.0133    0.6081 C   0  0  0  0  0  0  0  0  0  0  0  0
   -4.7285    1.4722    0.1822 C   0  0  0  0  0  0  0  0  0  0  0  0
   -2.7071    1.9959    1.4244 C   0  0  0  0  0  0  0  0  0  0  0  0
   -2.9457    1.6851    2.7515 F   0  0  0  0  0  0  0  0  0  0  0  0
   -1.3934    1.9104    1.0830 F   0  0  0  0  0  0  0  0  0  0  0  0
   -3.1642    3.3010    1.2328 F   0  0  0  0  0  0  0  0  0  0  0  0
   -8.1387    2.2234   -1.8429 H   0  0  0  0  0  0  0  0  0  0  0  0
   -7.0176    3.0446   -0.7266 H   0  0  0  0  0  0  0  0  0  0  0  0
   -8.2942    1.9517   -0.1049 H   0  0  0  0  0  0  0  0  0  0  0  0
   -5.6524   -1.3358   -1.3934 H   0  0  0  0  0  0  0  0  0  0  0  0
   -4.3052   -3.1190   -0.8706 H   0  0  0  0  0  0  0  0  0  0  0  0
   -1.3043   -6.3121   -1.3956 H   0  0  0  0  0  0  0  0  0  0  0  0
    2.2696   -3.6683   -0.7593 H   0  0  0  0  0  0  0  0  0  0  0  0
    0.2406   -0.5948    0.0364 H   0  0  0  0  0  0  0  0  0  0  0  0
    1.3022    1.5890    0.3473 H   0  0  0  0  0  0  0  0  0  0  0  0
    6.1601    4.0808    0.8812 H   0  0  0  0  0  0  0  0  0  0  0  0
    6.6731    3.4628   -0.6834 H   0  0  0  0  0  0  0  0  0  0  0  0
    4.9945    4.1164   -0.5501 H   0  0  0  0  0  0  0  0  0  0  0  0
    6.4220    1.2467    1.9230 H   0  0  0  0  0  0  0  0  0  0  0  0
    5.6307    2.8375    2.3652 H   0  0  0  0  0  0  0  0  0  0  0  0
    4.6404    1.3873    2.2675 H   0  0  0  0  0  0  0  0  0  0  0  0
    6.0323   -0.9228   -0.8079 H   0  0  0  0  0  0  0  0  0  0  0  0
   -2.0641   -0.5595    0.6732 H   0  0  0  0  0  0  0  0  0  0  0  0
   -5.0747    2.4611    0.3948 H   0  0  0  0  0  0  0  0  0  0  0  0
  1  2  1  0
  2  3  1  0
  3  4  2  0
  4  5  1  0
  5  6  1  0
  6  7  1  0
  7  8  2  0
  8  9  1  0
  9 10  2  0
 10 11  1  0
 10 12  1  0
 12 13  1  0
 13 14  1  0
 14 15  2  0
 15 16  1  0
 16 17  2  0
 17 18  1  0
 18 19  1  0
 19 20  1  0
 19 21  1  0
 19 22  1  0
 22 23  2  0
 22 24  1  0
 24 25  1  0
 25 26  2  0
 12 27  2  0
  5 28  2  0
 28 29  1  0
 29 30  2  0
 29 31  1  0
 31 32  1  0
 31 33  1  0
 31 34  1  0
 30  3  1  0
 27  7  1  0
 26 14  1  0
 25 17  1  0
  1 35  1  0
  1 36  1  0
  1 37  1  0
  4 38  1  0
  6 39  1  0
  9 40  1  0
 13 41  1  0
 15 42  1  0
 16 43  1  0
 20 44  1  0
 20 45  1  0
 20 46  1  0
 21 47  1  0
 21 48  1  0
 21 49  1  0
 24 50  1  0
 28 51  1  0
 30 52  1  0
M  END
$$$$
[H]c1nc(N([H])c2c([H])c([H])c(P(=O)(C([H])([H])[H])C([H])([H])[H])c([H])c2OC([H])([H])[H])nc(N([H])c2c([H])c([H])c([H])c([H])c2S(=O)(=O)C([H])(C([H])([H])[H])C([H])([H])[H])c1Cl
     RDKit          3D

 59 61  0  0  0  0  0  0  0  0999 V2000
    4.1084   -1.3116   -3.0746 C   0  0  0  0  0  0  0  0  0  0  0  0
    3.2965   -0.9131   -1.9888 O   0  0  0  0  0  0  0  0  0  0  0  0
    3.9046   -0.6068   -0.7593 C   0  0  0  0  0  0  0  0  0  0  0  0
    5.2649   -0.6971   -0.6283 C   0  0  0  0  0  0  0  0  0  0  0  0
    5.9394   -0.4180    0.5304 C   0  0  0  0  0  0  0  0  0  0  0  0
    5.1776   -0.0276    1.6052 C   0  0  0  0  0  0  0  0  0  0  0  0
    3.7830    0.0799    1.5215 C   0  0  0  0  0  0  0  0  0  0  0  0
    3.1269   -0.2050    0.3489 C   0  0  0  0  0  0  0  0  0  0  0  0
    1.7381   -0.1277    0.1651 N   0  0  0  0  0  0  0  0  0  0  0  0
    0.7189    0.2340    1.0608 C   0  0  0  0  0  0  0  0  0  0  0  0
    0.9690    0.5833    2.3213 N   0  0  0  0  0  0  0  0  0  0  0  0
    0.0097    0.9293    3.1831 C   0  0  0  0  0  0  0  0  0  0  0  0
   -1.3048    0.9352    2.7820 C   0  0  0  0  0  0  0  0  0  0  0  0
   -2.5615    1.3894    3.9140 Cl  0  0  0  0  0  0  0  0  0  0  0  0
   -1.5842    0.5685    1.4532 C   0  0  0  0  0  0  0  0  0  0  0  0
   -2.9447    0.5820    1.0831 N   0  0  0  0  0  0  0  0  0  0  0  0
   -3.4983    0.2681   -0.1722 C   0  0  0  0  0  0  0  0  0  0  0  0
   -2.7936   -0.0445   -1.3109 C   0  0  0  0  0  0  0  0  0  0  0  0
   -3.4149   -0.3300   -2.5325 C   0  0  0  0  0  0  0  0  0  0  0  0
   -4.7683   -0.3085   -2.6433 C   0  0  0  0  0  0  0  0  0  0  0  0
   -5.4866    0.0069   -1.4958 C   0  0  0  0  0  0  0  0  0  0  0  0
   -4.9135    0.2925   -0.2787 C   0  0  0  0  0  0  0  0  0  0  0  0
   -5.8960    0.6710    1.1153 S   0  0  0  0  0  0  0  0  0  0  0  0
   -5.6279   -0.2779    2.2720 O   0  0  0  0  0  0  0  0  0  0  0  0
   -5.6308    2.1124    1.5441 O   0  0  0  0  0  0  0  0  0  0  0  0
   -7.6225    0.6267    0.7050 C   0  0  0  0  0  0  0  0  0  0  0  0
   -7.9249    1.7433   -0.2522 C   0  0  0  0  0  0  0  0  0  0  0  0
   -8.0923   -0.7301    0.2534 C   0  0  0  0  0  0  0  0  0  0  0  0
   -0.5743    0.2451    0.6840 N   0  0  0  0  0  0  0  0  0  0  0  0
    7.7138   -0.5484    0.6584 P   0  0  0  0  0  0  0  0  0  0  0  0
    8.3069   -1.8884   -0.4374 C   0  0  0  0  0  0  0  0  0  0  0  0
    8.5270    0.9979    0.1788 C   0  0  0  0  0  0  0  0  0  0  0  0
    8.1220   -0.8827    2.0920 O   0  0  0  0  0  0  0  0  0  0  0  0
    3.4714   -1.3565   -3.9902 H   0  0  0  0  0  0  0  0  0  0  0  0
    4.9443   -0.5922   -3.2656 H   0  0  0  0  0  0  0  0  0  0  0  0
    4.5754   -2.2801   -2.8449 H   0  0  0  0  0  0  0  0  0  0  0  0
    5.8665   -1.0049   -1.4756 H   0  0  0  0  0  0  0  0  0  0  0  0
    5.6813    0.2011    2.5391 H   0  0  0  0  0  0  0  0  0  0  0  0
    3.2807    0.3937    2.4204 H   0  0  0  0  0  0  0  0  0  0  0  0
    1.3752   -0.3841   -0.8178 H   0  0  0  0  0  0  0  0  0  0  0  0
    0.2691    1.2112    4.2189 H   0  0  0  0  0  0  0  0  0  0  0  0
   -3.6167    0.8674    1.8364 H   0  0  0  0  0  0  0  0  0  0  0  0
   -1.7099   -0.0725   -1.2813 H   0  0  0  0  0  0  0  0  0  0  0  0
   -2.7845   -0.5653   -3.3741 H   0  0  0  0  0  0  0  0  0  0  0  0
   -5.2492   -0.5268   -3.5789 H   0  0  0  0  0  0  0  0  0  0  0  0
   -6.5626    0.0130   -1.6447 H   0  0  0  0  0  0  0  0  0  0  0  0
   -8.1913    0.9125    1.6627 H   0  0  0  0  0  0  0  0  0  0  0  0
   -8.5135    2.5718    0.2286 H   0  0  0  0  0  0  0  0  0  0  0  0
   -6.9712    2.1432   -0.6417 H   0  0  0  0  0  0  0  0  0  0  0  0
   -8.4952    1.3247   -1.1105 H   0  0  0  0  0  0  0  0  0  0  0  0
   -8.7502   -1.1577    1.0358 H   0  0  0  0  0  0  0  0  0  0  0  0
   -8.6897   -0.6344   -0.6800 H   0  0  0  0  0  0  0  0  0  0  0  0
   -7.2421   -1.4432    0.1357 H   0  0  0  0  0  0  0  0  0  0  0  0
    9.3797   -2.0666   -0.2382 H   0  0  0  0  0  0  0  0  0  0  0  0
    7.6771   -2.7763   -0.2241 H   0  0  0  0  0  0  0  0  0  0  0  0
    8.1320   -1.5264   -1.4800 H   0  0  0  0  0  0  0  0  0  0  0  0
    8.6529    0.9675   -0.9272 H   0  0  0  0  0  0  0  0  0  0  0  0
    9.5182    1.0067    0.7066 H   0  0  0  0  0  0  0  0  0  0  0  0
    7.8847    1.8262    0.5051 H   0  0  0  0  0  0  0  0  0  0  0  0
  1  2  1  0
  2  3  1  0
  3  4  2  0
  4  5  1  0
  5  6  2  0
  6  7  1  0
  7  8  2  0
  8  9  1  0
  9 10  1  0
 10 11  2  0
 11 12  1  0
 12 13  2  0
 13 14  1  0
 13 15  1  0
 15 16  1  0
 16 17  1  0
 17 18  2  0
 18 19  1  0
 19 20  2  0
 20 21  1  0
 21 22  2  0
 22 23  1  0
 23 24  2  0
 23 25  2  0
 23 26  1  0
 26 27  1  0
 26 28  1  0
 15 29  2  0
  5 30  1  0
 30 31  1  0
 30 32  1  0
 30 33  2  0
  8  3  1  0
 29 10  1  0
 22 17  1  0
  1 34  1  0
  1 35  1  0
  1 36  1  0
  4 37  1  0
  6 38  1  0
  7 39  1  0
  9 40  1  0
 12 41  1  0
 16 42  1  0
 18 43  1  0
 19 44  1  0
 20 45  1  0
 21 46  1  0
 26 47  1  0
 27 48  1  0
 27 49  1  0
 27 50  1  0
 28 51  1  0
 28 52  1  0
 28 53  1  0
 31 54  1  0
 31 55  1  0
 31 56  1  0
 32 57  1  0
 32 58  1  0
 32 59  1  0
M  END
$$$$
[H]Oc1c([H])c(C([H])([H])[H])c2c(oc(=O)c3c(O[H])c([H])c(OC([H])([H])[H])c([H])c32)c1O[H]
     RDKit          3D

 33 35  0  0  0  0  0  0  0  0999 V2000
    3.9081   -1.4397   -0.4085 C   0  0  0  0  0  0  0  0  0  0  0  0
    3.8448   -0.0424   -0.2785 O   0  0  0  0  0  0  0  0  0  0  0  0
    2.6523    0.6233   -0.1303 C   0  0  0  0  0  0  0  0  0  0  0  0
    2.6105    1.9874   -0.0049 C   0  0  0  0  0  0  0  0  0  0  0  0
    1.4370    2.6660    0.1428 C   0  0  0  0  0  0  0  0  0  0  0  0
    1.3731    4.0551    0.2718 O   0  0  0  0  0  0  0  0  0  0  0  0
    0.2682    1.9415    0.1647 C   0  0  0  0  0  0  0  0  0  0  0  0
    0.2805    0.5484    0.0395 C   0  0  0  0  0  0  0  0  0  0  0  0
    1.4558   -0.1263   -0.1089 C   0  0  0  0  0  0  0  0  0  0  0  0
   -0.9249   -0.1348    0.0620 C   0  0  0  0  0  0  0  0  0  0  0  0
   -0.9599   -1.4952   -0.0541 C   0  0  0  0  0  0  0  0  0  0  0  0
    0.1738   -2.3777   -0.1851 C   0  0  0  0  0  0  0  0  0  0  0  0
   -2.2594   -2.0742   -0.0181 C   0  0  0  0  0  0  0  0  0  0  0  0
   -3.4034   -1.3403    0.1230 C   0  0  0  0  0  0  0  0  0  0  0  0
   -4.6452   -1.9473    0.1526 O   0  0  0  0  0  0  0  0  0  0  0  0
   -3.3156    0.0109    0.2360 C   0  0  0  0  0  0  0  0  0  0  0  0
   -4.4509    0.7932    0.3813 O   0  0  0  0  0  0  0  0  0  0  0  0
   -2.0864    0.6288    0.2076 C   0  0  0  0  0  0  0  0  0  0  0  0
   -2.0471    1.9427    0.3214 O   0  0  0  0  0  0  0  0  0  0  0  0
   -0.9422    2.6147    0.3066 C   0  0  0  0  0  0  0  0  0  0  0  0
   -0.9260    3.8544    0.4160 O   0  0  0  0  0  0  0  0  0  0  0  0
    3.3644   -1.9641    0.4174 H   0  0  0  0  0  0  0  0  0  0  0  0
    4.9476   -1.8210   -0.3623 H   0  0  0  0  0  0  0  0  0  0  0  0
    3.4139   -1.7501   -1.3534 H   0  0  0  0  0  0  0  0  0  0  0  0
    3.5185    2.5673   -0.0196 H   0  0  0  0  0  0  0  0  0  0  0  0
    2.1633    4.6553    0.2669 H   0  0  0  0  0  0  0  0  0  0  0  0
    1.6154   -1.1341   -0.2232 H   0  0  0  0  0  0  0  0  0  0  0  0
    0.6370   -2.5039   -1.1871 H   0  0  0  0  0  0  0  0  0  0  0  0
    0.7987   -2.5834    0.7157 H   0  0  0  0  0  0  0  0  0  0  0  0
   -0.2937   -3.4423   -0.1810 H   0  0  0  0  0  0  0  0  0  0  0  0
   -2.3326   -3.1543   -0.1094 H   0  0  0  0  0  0  0  0  0  0  0  0
   -5.4554   -1.3586    0.2585 H   0  0  0  0  0  0  0  0  0  0  0  0
   -4.4204    1.8005    0.4679 H   0  0  0  0  0  0  0  0  0  0  0  0
  1  2  1  0
  2  3  1  0
  3  4  2  0
  4  5  1  0
  5  6  1  0
  5  7  2  0
  7  8  1  0
  8  9  2  0
  8 10  1  0
 10 11  2  0
 11 12  1  0
 11 13  1  0
 13 14  2  0
 14 15  1  0
 14 16  1  0
 16 17  1  0
 16 18  2  0
 18 19  1  0
 19 20  1  0
 20 21  2  0
  9  3  1  0
 18 10  1  0
 20  7  1  0
  1 22  1  0
  1 23  1  0
  1 24  1  0
  4 25  1  0
  6 26  1  0
  9 27  1  0
 12 28  1  0
 12 29  1  0
 12 30  1  0
 13 31  1  0
 15 32  1  0
 17 33  1  0
M  END
$$$$
[H]c1nc(N([H])c2c([H])c([H])c([N+](=O)[O-])c([H])c2OC([H])([H])[H])nc(N([H])c2c([H])c([H])c([H])c([H])c2S(=O)(=O)C([H])(C([H])([H])[H])C([H])([H])[H])c1Cl
     RDKit          3D

 52 54  0  0  0  0  0  0  0  0999 V2000
    5.3729    2.6168   -2.1854 C   0  0  0  0  0  0  0  0  0  0  0  0
    4.5964    1.6737   -1.4959 O   0  0  0  0  0  0  0  0  0  0  0  0
    5.1794    0.6551   -0.7614 C   0  0  0  0  0  0  0  0  0  0  0  0
    6.5496    0.5376   -0.6861 C   0  0  0  0  0  0  0  0  0  0  0  0
    7.1629   -0.4517    0.0269 C   0  0  0  0  0  0  0  0  0  0  0  0
    6.3554   -1.3390    0.6762 C   0  0  0  0  0  0  0  0  0  0  0  0
    4.9635   -1.2241    0.6029 C   0  0  0  0  0  0  0  0  0  0  0  0
    4.3253   -0.2461   -0.1018 C   0  0  0  0  0  0  0  0  0  0  0  0
    2.9482   -0.0410   -0.2406 N   0  0  0  0  0  0  0  0  0  0  0  0
    1.9284   -0.8433    0.3485 C   0  0  0  0  0  0  0  0  0  0  0  0
    2.1080   -1.9066    1.1183 N   0  0  0  0  0  0  0  0  0  0  0  0
    1.1158   -2.6314    1.6510 C   0  0  0  0  0  0  0  0  0  0  0  0
   -0.1767   -2.2655    1.3949 C   0  0  0  0  0  0  0  0  0  0  0  0
   -1.4700   -3.2135    2.0917 Cl  0  0  0  0  0  0  0  0  0  0  0  0
   -0.4307   -1.1509    0.5886 C   0  0  0  0  0  0  0  0  0  0  0  0
   -1.7766   -0.7912    0.3410 N   0  0  0  0  0  0  0  0  0  0  0  0
   -2.3174    0.2451   -0.4093 C   0  0  0  0  0  0  0  0  0  0  0  0
   -1.5773    1.1426   -1.1337 C   0  0  0  0  0  0  0  0  0  0  0  0
   -2.1600    2.1744   -1.8952 C   0  0  0  0  0  0  0  0  0  0  0  0
   -3.5231    2.3068   -1.9290 C   0  0  0  0  0  0  0  0  0  0  0  0
   -4.2858    1.4160   -1.2084 C   0  0  0  0  0  0  0  0  0  0  0  0
   -3.6992    0.4121   -0.4680 C   0  0  0  0  0  0  0  0  0  0  0  0
   -4.7259   -0.6528    0.4100 S   0  0  0  0  0  0  0  0  0  0  0  0
   -4.6439   -2.0806   -0.0455 O   0  0  0  0  0  0  0  0  0  0  0  0
   -4.4492   -0.6544    1.9061 O   0  0  0  0  0  0  0  0  0  0  0  0
   -6.4655   -0.2305    0.1669 C   0  0  0  0  0  0  0  0  0  0  0  0
   -7.2192   -1.4064    0.8152 C   0  0  0  0  0  0  0  0  0  0  0  0
   -6.8503    1.0305    0.8529 C   0  0  0  0  0  0  0  0  0  0  0  0
    0.6226   -0.5118    0.1176 N   0  0  0  0  0  0  0  0  0  0  0  0
    8.5762   -0.5059    0.0560 N   0  0  0  0  0  0  0  0  0  0  0  0
    9.3245    0.4161   -0.6180 O   0  0  0  0  0  0  0  0  0  0  0  0
    9.1713   -1.3930    0.6950 O   0  0  0  0  0  0  0  0  0  0  0  0
    6.1662    3.0499   -1.5482 H   0  0  0  0  0  0  0  0  0  0  0  0
    5.8913    2.1004   -3.0429 H   0  0  0  0  0  0  0  0  0  0  0  0
    4.6841    3.4015   -2.5851 H   0  0  0  0  0  0  0  0  0  0  0  0
    7.1349    1.2795   -1.2283 H   0  0  0  0  0  0  0  0  0  0  0  0
    6.8066   -2.1371    1.2517 H   0  0  0  0  0  0  0  0  0  0  0  0
    4.4096   -1.9645    1.1438 H   0  0  0  0  0  0  0  0  0  0  0  0
    2.6352    0.7871   -0.8388 H   0  0  0  0  0  0  0  0  0  0  0  0
    1.3552   -3.5082    2.2850 H   0  0  0  0  0  0  0  0  0  0  0  0
   -2.4824   -1.4436    0.8170 H   0  0  0  0  0  0  0  0  0  0  0  0
   -0.5054    1.1047   -1.1602 H   0  0  0  0  0  0  0  0  0  0  0  0
   -1.5486    2.8672   -2.4564 H   0  0  0  0  0  0  0  0  0  0  0  0
   -3.9527    3.1071   -2.5210 H   0  0  0  0  0  0  0  0  0  0  0  0
   -5.3537    1.5549   -1.2658 H   0  0  0  0  0  0  0  0  0  0  0  0
   -6.6819   -0.2892   -0.8947 H   0  0  0  0  0  0  0  0  0  0  0  0
   -8.2598   -1.4516    0.4951 H   0  0  0  0  0  0  0  0  0  0  0  0
   -6.6516   -2.3440    0.5937 H   0  0  0  0  0  0  0  0  0  0  0  0
   -7.2109   -1.2909    1.9249 H   0  0  0  0  0  0  0  0  0  0  0  0
   -7.3712    1.6831    0.0927 H   0  0  0  0  0  0  0  0  0  0  0  0
   -6.0004    1.5665    1.3258 H   0  0  0  0  0  0  0  0  0  0  0  0
   -7.5942    0.8398    1.6352 H   0  0  0  0  0  0  0  0  0  0  0  0
  1  2  1  0
  2  3  1  0
  3  4  2  0
  4  5  1  0
  5  6  2  0
  6  7  1  0
  7  8  2  0
  8  9  1  0
  9 10  1  0
 10 11  2  0
 11 12  1  0
 12 13  2  0
 13 14  1  0
 13 15  1  0
 15 16  1  0
 16 17  1  0
 17 18  2  0
 18 19  1  0
 19 20  2  0
 20 21  1  0
 21 22  2  0
 22 23  1  0
 23 24  2  0
 23 25  2  0
 23 26  1  0
 26 27  1  0
 26 28  1  0
 15 29  2  0
  5 30  1  0
 30 31  1  0
 30 32  2  0
  8  3  1  0
 29 10  1  0
 22 17  1  0
  1 33  1  0
  1 34  1  0
  1 35  1  0
  4 36  1  0
  6 37  1  0
  7 38  1  0
  9 39  1  0
 12 40  1  0
 16 41  1  0
 18 42  1  0
 19 43  1  0
 20 44  1  0
 21 45  1  0
 26 46  1  0
 27 47  1  0
 27 48  1  0
 27 49  1  0
 28 50  1  0
 28 51  1  0
 28 52  1  0
M  CHG  2  30   1  31  -1
M  END
$$$$
[H]c1nc(N([H])c2c([H])c(OC([H])([H])[H])c([H])c(N3C([H])([H])C([H])([H])N(C([H])([H])[H])C([H])([H])C3([H])[H])c2[H])nc(N([H])c2nc3c(c([H])c2[H])OC(C([H])([H])[H])(C([H])([H])[H])C(=O)N3[H])c1F
     RDKit          3D

 66 70  0  0  0  0  0  0  0  0999 V2000
    6.2588   -3.2012    2.3290 C   0  0  0  0  0  0  0  0  0  0  0  0
    4.8526   -3.2020    2.1908 O   0  0  0  0  0  0  0  0  0  0  0  0
    4.1976   -2.1407    1.5777 C   0  0  0  0  0  0  0  0  0  0  0  0
    2.8020   -2.1573    1.4481 C   0  0  0  0  0  0  0  0  0  0  0  0
    2.1474   -1.1139    0.8433 C   0  0  0  0  0  0  0  0  0  0  0  0
    0.7697   -1.0150    0.6233 N   0  0  0  0  0  0  0  0  0  0  0  0
   -0.0957   -2.1170    0.4719 C   0  0  0  0  0  0  0  0  0  0  0  0
    0.3721   -3.3648    0.5118 N   0  0  0  0  0  0  0  0  0  0  0  0
   -0.4901   -4.3728    0.3662 C   0  0  0  0  0  0  0  0  0  0  0  0
   -1.8346   -4.1968    0.1771 C   0  0  0  0  0  0  0  0  0  0  0  0
   -2.6520   -5.2606    0.0375 F   0  0  0  0  0  0  0  0  0  0  0  0
   -2.3337   -2.8670    0.1343 C   0  0  0  0  0  0  0  0  0  0  0  0
   -3.7163   -2.7094   -0.0572 N   0  0  0  0  0  0  0  0  0  0  0  0
   -4.4544   -1.5073   -0.1395 C   0  0  0  0  0  0  0  0  0  0  0  0
   -3.9026   -0.2615   -0.0494 C   0  0  0  0  0  0  0  0  0  0  0  0
   -4.7401    0.8573   -0.1437 C   0  0  0  0  0  0  0  0  0  0  0  0
   -6.0852    0.6653   -0.3233 C   0  0  0  0  0  0  0  0  0  0  0  0
   -6.9313    1.7582   -0.4194 O   0  0  0  0  0  0  0  0  0  0  0  0
   -8.3190    1.7408   -0.2954 C   0  0  0  0  0  0  0  0  0  0  0  0
   -8.9408    2.7952   -1.1913 C   0  0  0  0  0  0  0  0  0  0  0  0
   -8.6636    2.0645    1.1390 C   0  0  0  0  0  0  0  0  0  0  0  0
   -8.8985    0.4134   -0.6947 C   0  0  0  0  0  0  0  0  0  0  0  0
  -10.0982    0.3147   -1.0976 O   0  0  0  0  0  0  0  0  0  0  0  0
   -8.0444   -0.7139   -0.5992 N   0  0  0  0  0  0  0  0  0  0  0  0
   -6.6346   -0.5945   -0.4133 C   0  0  0  0  0  0  0  0  0  0  0  0
   -5.8213   -1.6241   -0.3209 N   0  0  0  0  0  0  0  0  0  0  0  0
   -1.4249   -1.9257    0.2852 N   0  0  0  0  0  0  0  0  0  0  0  0
    2.9091   -0.0293    0.3594 C   0  0  0  0  0  0  0  0  0  0  0  0
    4.2842    0.0083    0.4769 C   0  0  0  0  0  0  0  0  0  0  0  0
    4.8871   -1.0688    1.0925 C   0  0  0  0  0  0  0  0  0  0  0  0
    5.0323    1.1157   -0.0376 N   0  0  0  0  0  0  0  0  0  0  0  0
    6.3654    1.3590    0.4215 C   0  0  0  0  0  0  0  0  0  0  0  0
    7.2656    1.3662   -0.8005 C   0  0  0  0  0  0  0  0  0  0  0  0
    6.8582    2.3657   -1.7364 N   0  0  0  0  0  0  0  0  0  0  0  0
    7.4908    3.6370   -1.6040 C   0  0  0  0  0  0  0  0  0  0  0  0
    5.4890    2.3817   -2.1019 C   0  0  0  0  0  0  0  0  0  0  0  0
    4.5041    2.0253   -1.0383 C   0  0  0  0  0  0  0  0  0  0  0  0
    6.6076   -4.2189    2.6067 H   0  0  0  0  0  0  0  0  0  0  0  0
    6.5696   -2.4198    3.0243 H   0  0  0  0  0  0  0  0  0  0  0  0
    6.7552   -2.9762    1.3424 H   0  0  0  0  0  0  0  0  0  0  0  0
    2.2917   -3.0027    1.8591 H   0  0  0  0  0  0  0  0  0  0  0  0
    0.3010   -0.0535    0.5627 H   0  0  0  0  0  0  0  0  0  0  0  0
   -0.1057   -5.3829    0.3998 H   0  0  0  0  0  0  0  0  0  0  0  0
   -4.2969   -3.6153   -0.1551 H   0  0  0  0  0  0  0  0  0  0  0  0
   -2.8459   -0.1107    0.0905 H   0  0  0  0  0  0  0  0  0  0  0  0
   -4.2753    1.8411   -0.0690 H   0  0  0  0  0  0  0  0  0  0  0  0
   -9.2444    3.7035   -0.6102 H   0  0  0  0  0  0  0  0  0  0  0  0
   -8.1834    3.1817   -1.9309 H   0  0  0  0  0  0  0  0  0  0  0  0
   -9.8395    2.4015   -1.7147 H   0  0  0  0  0  0  0  0  0  0  0  0
   -8.9742    3.1246    1.1822 H   0  0  0  0  0  0  0  0  0  0  0  0
   -7.7737    1.9596    1.7997 H   0  0  0  0  0  0  0  0  0  0  0  0
   -9.5215    1.4490    1.4795 H   0  0  0  0  0  0  0  0  0  0  0  0
   -8.4610   -1.6618   -0.6671 H   0  0  0  0  0  0  0  0  0  0  0  0
    2.4263    0.8095   -0.1175 H   0  0  0  0  0  0  0  0  0  0  0  0
    5.9746   -1.0905    1.2033 H   0  0  0  0  0  0  0  0  0  0  0  0
    6.3835    2.4213    0.7906 H   0  0  0  0  0  0  0  0  0  0  0  0
    6.7567    0.6991    1.1815 H   0  0  0  0  0  0  0  0  0  0  0  0
    8.2993    1.6114   -0.4742 H   0  0  0  0  0  0  0  0  0  0  0  0
    7.3033    0.3935   -1.3038 H   0  0  0  0  0  0  0  0  0  0  0  0
    7.9472    3.7694   -0.5879 H   0  0  0  0  0  0  0  0  0  0  0  0
    6.8225    4.5025   -1.8167 H   0  0  0  0  0  0  0  0  0  0  0  0
    8.3650    3.6566   -2.3184 H   0  0  0  0  0  0  0  0  0  0  0  0
    5.2436    3.4327   -2.4362 H   0  0  0  0  0  0  0  0  0  0  0  0
    5.3606    1.7041   -2.9822 H   0  0  0  0  0  0  0  0  0  0  0  0
    4.0476    2.9410   -0.5592 H   0  0  0  0  0  0  0  0  0  0  0  0
    3.6617    1.5055   -1.5392 H   0  0  0  0  0  0  0  0  0  0  0  0
  1  2  1  0
  2  3  1  0
  3  4  2  0
  4  5  1  0
  5  6  1  0
  6  7  1  0
  7  8  2  0
  8  9  1  0
  9 10  2  0
 10 11  1  0
 10 12  1  0
 12 13  1  0
 13 14  1  0
 14 15  2  0
 15 16  1  0
 16 17  2  0
 17 18  1  0
 18 19  1  0
 19 20  1  0
 19 21  1  0
 19 22  1  0
 22 23  2  0
 22 24  1  0
 24 25  1  0
 25 26  2  0
 12 27  2  0
  5 28  2  0
 28 29  1  0
 29 30  2  0
 29 31  1  0
 31 32  1  0
 32 33  1  0
 33 34  1  0
 34 35  1  0
 34 36  1  0
 36 37  1  0
 30  3  1  0
 37 31  1  0
 27  7  1  0
 26 14  1  0
 25 17  1  0
  1 38  1  0
  1 39  1  0
  1 40  1  0
  4 41  1  0
  6 42  1  0
  9 43  1  0
 13 44  1  0
 15 45  1  0
 16 46  1  0
 20 47  1  0
 20 48  1  0
 20 49  1  0
 21 50  1  0
 21 51  1  0
 21 52  1  0
 24 53  1  0
 28 54  1  0
 30 55  1  0
 32 56  1  0
 32 57  1  0
 33 58  1  0
 33 59  1  0
 35 60  1  0
 35 61  1  0
 35 62  1  0
 36 63  1  0
 36 64  1  0
 37 65  1  0
 37 66  1  0
M  END
$$$$
[H]Oc1c([H])c([H])c(N([H])c2nc([H])c(F)c(N([H])c3c([H])c([H])c4c(c3[H])OC(F)(F)O4)n2)c([H])c1[H]
     RDKit          3D

 38 41  0  0  0  0  0  0  0  0999 V2000
    7.0627    2.2436    0.7346 O   0  0  0  0  0  0  0  0  0  0  0  0
    5.7609    1.7631    0.5899 C   0  0  0  0  0  0  0  0  0  0  0  0
    5.4868    0.5692   -0.0273 C   0  0  0  0  0  0  0  0  0  0  0  0
    4.1663    0.0983   -0.1651 C   0  0  0  0  0  0  0  0  0  0  0  0
    3.0955    0.8029    0.3073 C   0  0  0  0  0  0  0  0  0  0  0  0
    1.7472    0.3880    0.2283 N   0  0  0  0  0  0  0  0  0  0  0  0
    1.2368   -0.8850   -0.0414 C   0  0  0  0  0  0  0  0  0  0  0  0
    1.9538   -1.9751   -0.2708 N   0  0  0  0  0  0  0  0  0  0  0  0
    1.4390   -3.1717   -0.5245 C   0  0  0  0  0  0  0  0  0  0  0  0
    0.0897   -3.3101   -0.5556 C   0  0  0  0  0  0  0  0  0  0  0  0
   -0.4706   -4.4952   -0.8066 F   0  0  0  0  0  0  0  0  0  0  0  0
   -0.7220   -2.1880   -0.3195 C   0  0  0  0  0  0  0  0  0  0  0  0
   -2.1187   -2.3812   -0.3861 N   0  0  0  0  0  0  0  0  0  0  0  0
   -3.0590   -1.3597   -0.1479 C   0  0  0  0  0  0  0  0  0  0  0  0
   -4.3246   -1.5449   -0.7361 C   0  0  0  0  0  0  0  0  0  0  0  0
   -5.2928   -0.6016   -0.5225 C   0  0  0  0  0  0  0  0  0  0  0  0
   -5.1033    0.5376    0.2455 C   0  0  0  0  0  0  0  0  0  0  0  0
   -5.9342    1.6023    0.5847 O   0  0  0  0  0  0  0  0  0  0  0  0
   -5.0959    2.6500    1.0326 C   0  0  0  0  0  0  0  0  0  0  0  0
   -4.7280    3.4864   -0.0056 F   0  0  0  0  0  0  0  0  0  0  0  0
   -5.6835    3.3217    2.0697 F   0  0  0  0  0  0  0  0  0  0  0  0
   -3.9620    1.9099    1.5135 O   0  0  0  0  0  0  0  0  0  0  0  0
   -3.8697    0.7204    0.8208 C   0  0  0  0  0  0  0  0  0  0  0  0
   -2.8633   -0.2340    0.6152 C   0  0  0  0  0  0  0  0  0  0  0  0
   -0.1040   -1.0370   -0.0754 N   0  0  0  0  0  0  0  0  0  0  0  0
    3.4072    2.0214    0.9341 C   0  0  0  0  0  0  0  0  0  0  0  0
    4.6930    2.4848    1.0706 C   0  0  0  0  0  0  0  0  0  0  0  0
    7.4637    2.8384    0.0016 H   0  0  0  0  0  0  0  0  0  0  0  0
    6.3073   -0.0270   -0.4190 H   0  0  0  0  0  0  0  0  0  0  0  0
    4.0261   -0.8426   -0.6724 H   0  0  0  0  0  0  0  0  0  0  0  0
    1.0270    1.1640    0.3955 H   0  0  0  0  0  0  0  0  0  0  0  0
    2.1042   -4.0053   -0.6998 H   0  0  0  0  0  0  0  0  0  0  0  0
   -2.4912   -3.3602   -0.6266 H   0  0  0  0  0  0  0  0  0  0  0  0
   -4.5074   -2.4187   -1.3397 H   0  0  0  0  0  0  0  0  0  0  0  0
   -6.2759   -0.7600   -0.9883 H   0  0  0  0  0  0  0  0  0  0  0  0
   -1.9380   -0.0388    1.1042 H   0  0  0  0  0  0  0  0  0  0  0  0
    2.5698    2.5945    1.3162 H   0  0  0  0  0  0  0  0  0  0  0  0
    4.9072    3.4397    1.5644 H   0  0  0  0  0  0  0  0  0  0  0  0
  1  2  1  0
  2  3  2  0
  3  4  1  0
  4  5  2  0
  5  6  1  0
  6  7  1  0
  7  8  2  0
  8  9  1  0
  9 10  2  0
 10 11  1  0
 10 12  1  0
 12 13  1  0
 13 14  1  0
 14 15  2  0
 15 16  1  0
 16 17  2  0
 17 18  1  0
 18 19  1  0
 19 20  1  0
 19 21  1  0
 19 22  1  0
 22 23  1  0
 23 24  2  0
 12 25  2  0
  5 26  1  0
 26 27  2  0
 27  2  1  0
 25  7  1  0
 24 14  1  0
 23 17  1  0
  1 28  1  0
  3 29  1  0
  4 30  1  0
  6 31  1  0
  9 32  1  0
 13 33  1  0
 15 34  1  0
 16 35  1  0
 24 36  1  0
 26 37  1  0
 27 38  1  0
M  END
$$$$
[H]c1nc(N([H])c2c([H])c([H])c(N3C([H])([H])C([H])([H])C([H])(N4C([H])([H])C([H])([H])OC([H])([H])C4([H])[H])C([H])([H])C3([H])[H])c([H])c2OC([H])([H])[H])nc(N([H])c2c([H])c([H])c([H])c([H])c2S(=O)(=O)C([H])(C([H])([H])[H])C([H])([H])[H])c1Cl
     RDKit          3D

 78 82  0  0  0  0  0  0  0  0999 V2000
   -2.7990   -4.7366   -1.3510 C   0  0  0  0  0  0  0  0  0  0  0  0
   -1.4818   -4.2815   -1.0963 O   0  0  0  0  0  0  0  0  0  0  0  0
   -1.2626   -2.9268   -0.9115 C   0  0  0  0  0  0  0  0  0  0  0  0
   -2.2756   -1.9993   -0.9649 C   0  0  0  0  0  0  0  0  0  0  0  0
   -2.0617   -0.6368   -0.7804 C   0  0  0  0  0  0  0  0  0  0  0  0
   -0.7814   -0.2202   -0.5369 C   0  0  0  0  0  0  0  0  0  0  0  0
    0.2811   -1.1355   -0.4738 C   0  0  0  0  0  0  0  0  0  0  0  0
    0.0363   -2.4736   -0.6602 C   0  0  0  0  0  0  0  0  0  0  0  0
    1.0486   -3.4282   -0.5632 N   0  0  0  0  0  0  0  0  0  0  0  0
    2.4501   -3.2971   -0.5441 C   0  0  0  0  0  0  0  0  0  0  0  0
    3.1806   -4.4584   -0.3853 N   0  0  0  0  0  0  0  0  0  0  0  0
    4.4963   -4.5095   -0.3751 C   0  0  0  0  0  0  0  0  0  0  0  0
    5.2173   -3.3469   -0.5311 C   0  0  0  0  0  0  0  0  0  0  0  0
    6.9576   -3.3296   -0.5341 Cl  0  0  0  0  0  0  0  0  0  0  0  0
    4.5356   -2.1282   -0.6989 C   0  0  0  0  0  0  0  0  0  0  0  0
    5.3043   -0.9689   -0.8278 N   0  0  0  0  0  0  0  0  0  0  0  0
    4.9428    0.3708   -1.0715 C   0  0  0  0  0  0  0  0  0  0  0  0
    3.7071    0.7399   -1.5352 C   0  0  0  0  0  0  0  0  0  0  0  0
    3.4274    2.0598   -1.8188 C   0  0  0  0  0  0  0  0  0  0  0  0
    4.3635    3.0489   -1.6512 C   0  0  0  0  0  0  0  0  0  0  0  0
    5.6208    2.6944   -1.1820 C   0  0  0  0  0  0  0  0  0  0  0  0
    5.9101    1.3798   -0.8961 C   0  0  0  0  0  0  0  0  0  0  0  0
    7.5019    1.0371   -0.2945 S   0  0  0  0  0  0  0  0  0  0  0  0
    8.2978    0.1131   -1.1647 O   0  0  0  0  0  0  0  0  0  0  0  0
    8.2966    2.3490   -0.2987 O   0  0  0  0  0  0  0  0  0  0  0  0
    7.4681    0.4327    1.3549 C   0  0  0  0  0  0  0  0  0  0  0  0
    8.8634   -0.1388    1.7159 C   0  0  0  0  0  0  0  0  0  0  0  0
    7.0596    1.4683    2.3670 C   0  0  0  0  0  0  0  0  0  0  0  0
    3.1822   -2.2006   -0.6916 N   0  0  0  0  0  0  0  0  0  0  0  0
   -3.1115    0.3177   -0.8518 N   0  0  0  0  0  0  0  0  0  0  0  0
   -4.3569    0.0033   -1.5564 C   0  0  0  0  0  0  0  0  0  0  0  0
   -5.4456    0.9770   -1.1084 C   0  0  0  0  0  0  0  0  0  0  0  0
   -5.4163    1.0960    0.3875 C   0  0  0  0  0  0  0  0  0  0  0  0
   -4.1724    1.8834    0.7406 C   0  0  0  0  0  0  0  0  0  0  0  0
   -3.0537    1.6221   -0.2518 C   0  0  0  0  0  0  0  0  0  0  0  0
   -6.5566    1.8175    0.8825 N   0  0  0  0  0  0  0  0  0  0  0  0
   -6.4174    2.0469    2.3263 C   0  0  0  0  0  0  0  0  0  0  0  0
   -7.6213    2.8766    2.7374 C   0  0  0  0  0  0  0  0  0  0  0  0
   -8.8104    2.1862    2.5319 O   0  0  0  0  0  0  0  0  0  0  0  0
   -8.9221    1.9916    1.1601 C   0  0  0  0  0  0  0  0  0  0  0  0
   -7.7951    1.0731    0.7374 C   0  0  0  0  0  0  0  0  0  0  0  0
   -2.8361   -5.8616   -1.3099 H   0  0  0  0  0  0  0  0  0  0  0  0
   -3.1900   -4.3824   -2.3292 H   0  0  0  0  0  0  0  0  0  0  0  0
   -3.5377   -4.4041   -0.5867 H   0  0  0  0  0  0  0  0  0  0  0  0
   -3.2912   -2.3704   -1.1607 H   0  0  0  0  0  0  0  0  0  0  0  0
   -0.5304    0.8148   -0.3940 H   0  0  0  0  0  0  0  0  0  0  0  0
    1.2667   -0.7437   -0.2556 H   0  0  0  0  0  0  0  0  0  0  0  0
    0.7052   -4.4618   -0.4798 H   0  0  0  0  0  0  0  0  0  0  0  0
    5.0715   -5.4367   -0.2489 H   0  0  0  0  0  0  0  0  0  0  0  0
    6.3584   -1.1165   -0.7423 H   0  0  0  0  0  0  0  0  0  0  0  0
    2.9114   -0.0041   -1.7193 H   0  0  0  0  0  0  0  0  0  0  0  0
    2.4405    2.3544   -2.1905 H   0  0  0  0  0  0  0  0  0  0  0  0
    4.1803    4.0991   -1.8612 H   0  0  0  0  0  0  0  0  0  0  0  0
    6.3509    3.4879   -1.0554 H   0  0  0  0  0  0  0  0  0  0  0  0
    6.8109   -0.4447    1.4204 H   0  0  0  0  0  0  0  0  0  0  0  0
    8.9078   -1.1290    1.2165 H   0  0  0  0  0  0  0  0  0  0  0  0
    8.8703   -0.2948    2.7926 H   0  0  0  0  0  0  0  0  0  0  0  0
    9.6590    0.5303    1.3215 H   0  0  0  0  0  0  0  0  0  0  0  0
    6.3760    2.2282    1.9706 H   0  0  0  0  0  0  0  0  0  0  0  0
    8.0149    1.9242    2.7543 H   0  0  0  0  0  0  0  0  0  0  0  0
    6.5683    1.0168    3.2596 H   0  0  0  0  0  0  0  0  0  0  0  0
   -4.2295    0.1961   -2.6622 H   0  0  0  0  0  0  0  0  0  0  0  0
   -4.6789   -1.0320   -1.4555 H   0  0  0  0  0  0  0  0  0  0  0  0
   -6.3764    0.6017   -1.5329 H   0  0  0  0  0  0  0  0  0  0  0  0
   -5.2359    1.9773   -1.5346 H   0  0  0  0  0  0  0  0  0  0  0  0
   -5.4040    0.1109    0.8986 H   0  0  0  0  0  0  0  0  0  0  0  0
   -4.4001    2.9747    0.6779 H   0  0  0  0  0  0  0  0  0  0  0  0
   -3.8424    1.6927    1.7865 H   0  0  0  0  0  0  0  0  0  0  0  0
   -3.1634    2.3692   -1.0913 H   0  0  0  0  0  0  0  0  0  0  0  0
   -2.0806    1.8030    0.1914 H   0  0  0  0  0  0  0  0  0  0  0  0
   -6.4486    1.0642    2.8141 H   0  0  0  0  0  0  0  0  0  0  0  0
   -5.5199    2.6190    2.5767 H   0  0  0  0  0  0  0  0  0  0  0  0
   -7.6190    3.7806    2.0982 H   0  0  0  0  0  0  0  0  0  0  0  0
   -7.5723    3.1645    3.7921 H   0  0  0  0  0  0  0  0  0  0  0  0
   -8.6856    2.9938    0.6972 H   0  0  0  0  0  0  0  0  0  0  0  0
   -9.9176    1.6194    0.8580 H   0  0  0  0  0  0  0  0  0  0  0  0
   -7.9512    0.6460   -0.2539 H   0  0  0  0  0  0  0  0  0  0  0  0
   -7.7886    0.2449    1.4991 H   0  0  0  0  0  0  0  0  0  0  0  0
  1  2  1  0
  2  3  1  0
  3  4  2  0
  4  5  1  0
  5  6  2  0
  6  7  1  0
  7  8  2  0
  8  9  1  0
  9 10  1  0
 10 11  2  0
 11 12  1  0
 12 13  2  0
 13 14  1  0
 13 15  1  0
 15 16  1  0
 16 17  1  0
 17 18  2  0
 18 19  1  0
 19 20  2  0
 20 21  1  0
 21 22  2  0
 22 23  1  0
 23 24  2  0
 23 25  2  0
 23 26  1  0
 26 27  1  0
 26 28  1  0
 15 29  2  0
  5 30  1  0
 30 31  1  0
 31 32  1  0
 32 33  1  0
 33 34  1  0
 34 35  1  0
 33 36  1  0
 36 37  1  0
 37 38  1  0
 38 39  1  0
 39 40  1  0
 40 41  1  0
  8  3  1  0
 29 10  1  0
 35 30  1  0
 41 36  1  0
 22 17  1  0
  1 42  1  0
  1 43  1  0
  1 44  1  0
  4 45  1  0
  6 46  1  0
  7 47  1  0
  9 48  1  0
 12 49  1  0
 16 50  1  0
 18 51  1  0
 19 52  1  0
 20 53  1  0
 21 54  1  0
 26 55  1  0
 27 56  1  0
 27 57  1  0
 27 58  1  0
 28 59  1  0
 28 60  1  0
 28 61  1  0
 31 62  1  0
 31 63  1  0
 32 64  1  0
 32 65  1  0
 33 66  1  0
 34 67  1  0
 34 68  1  0
 35 69  1  0
 35 70  1  0
 37 71  1  0
 37 72  1  0
 38 73  1  0
 38 74  1  0
 40 75  1  0
 40 76  1  0
 41 77  1  0
 41 78  1  0
M  END
$$$$
[H]c1nc(N([H])c2c([H])c(C#N)c([H])c(OC([H])([H])[H])c2[H])nc(N([H])c2nc3c(c([H])c2[H])OC(C([H])([H])[H])(C([H])([H])[H])C(=O)N3[H])c1F
     RDKit          3D

 50 53  0  0  0  0  0  0  0  0999 V2000
   -8.8245    0.1405    1.2791 C   0  0  0  0  0  0  0  0  0  0  0  0
   -7.4360    0.3637    1.4148 O   0  0  0  0  0  0  0  0  0  0  0  0
   -6.5523   -0.2491    0.5430 C   0  0  0  0  0  0  0  0  0  0  0  0
   -5.1710   -0.0144    0.6942 C   0  0  0  0  0  0  0  0  0  0  0  0
   -4.2491   -0.5830   -0.1270 C   0  0  0  0  0  0  0  0  0  0  0  0
   -2.8745   -0.3550   -0.0337 N   0  0  0  0  0  0  0  0  0  0  0  0
   -2.1861    0.7507    0.5074 C   0  0  0  0  0  0  0  0  0  0  0  0
   -2.8469    1.7912    1.0156 N   0  0  0  0  0  0  0  0  0  0  0  0
   -2.2352    2.8640    1.5409 C   0  0  0  0  0  0  0  0  0  0  0  0
   -0.8593    2.8649    1.5427 C   0  0  0  0  0  0  0  0  0  0  0  0
   -0.1961    3.9373    2.0678 F   0  0  0  0  0  0  0  0  0  0  0  0
   -0.1029    1.7957    1.0206 C   0  0  0  0  0  0  0  0  0  0  0  0
    1.2827    1.8902    1.0685 N   0  0  0  0  0  0  0  0  0  0  0  0
    2.2604    0.9640    0.6165 C   0  0  0  0  0  0  0  0  0  0  0  0
    2.0165   -0.2430    0.0253 C   0  0  0  0  0  0  0  0  0  0  0  0
    3.0468   -1.0976   -0.3915 C   0  0  0  0  0  0  0  0  0  0  0  0
    4.3467   -0.7249   -0.2071 C   0  0  0  0  0  0  0  0  0  0  0  0
    5.3828   -1.5647   -0.6166 O   0  0  0  0  0  0  0  0  0  0  0  0
    6.7015   -1.0916   -0.8121 C   0  0  0  0  0  0  0  0  0  0  0  0
    7.7149   -2.2011   -0.5578 C   0  0  0  0  0  0  0  0  0  0  0  0
    6.9054   -0.5828   -2.2190 C   0  0  0  0  0  0  0  0  0  0  0  0
    7.0265   -0.0029    0.1506 C   0  0  0  0  0  0  0  0  0  0  0  0
    8.2129    0.1534    0.5796 O   0  0  0  0  0  0  0  0  0  0  0  0
    5.9634    0.8429    0.5629 N   0  0  0  0  0  0  0  0  0  0  0  0
    4.5947    0.4915    0.3887 C   0  0  0  0  0  0  0  0  0  0  0  0
    3.5884    1.2710    0.7687 N   0  0  0  0  0  0  0  0  0  0  0  0
   -0.8392    0.7983    0.5321 N   0  0  0  0  0  0  0  0  0  0  0  0
   -4.7668   -1.4216   -1.1356 C   0  0  0  0  0  0  0  0  0  0  0  0
   -6.1095   -1.6584   -1.2928 C   0  0  0  0  0  0  0  0  0  0  0  0
   -7.0235   -1.0681   -0.4464 C   0  0  0  0  0  0  0  0  0  0  0  0
   -6.6131   -2.5168   -2.3278 C   0  0  0  0  0  0  0  0  0  0  0  0
   -7.0142   -3.2159   -3.1606 N   0  0  0  0  0  0  0  0  0  0  0  0
   -9.2275    0.5394    0.3267 H   0  0  0  0  0  0  0  0  0  0  0  0
   -8.9538   -0.9792    1.2820 H   0  0  0  0  0  0  0  0  0  0  0  0
   -9.3223    0.5926    2.1656 H   0  0  0  0  0  0  0  0  0  0  0  0
   -4.8703    0.6342    1.5186 H   0  0  0  0  0  0  0  0  0  0  0  0
   -2.2680   -1.1645   -0.4430 H   0  0  0  0  0  0  0  0  0  0  0  0
   -2.7500    3.7050    1.9516 H   0  0  0  0  0  0  0  0  0  0  0  0
    1.7069    2.7814    1.5050 H   0  0  0  0  0  0  0  0  0  0  0  0
    0.9966   -0.5699   -0.1363 H   0  0  0  0  0  0  0  0  0  0  0  0
    2.7719   -2.0433   -0.8548 H   0  0  0  0  0  0  0  0  0  0  0  0
    8.7248   -1.7520   -0.6303 H   0  0  0  0  0  0  0  0  0  0  0  0
    7.5389   -2.5319    0.5057 H   0  0  0  0  0  0  0  0  0  0  0  0
    7.5672   -3.0653   -1.2220 H   0  0  0  0  0  0  0  0  0  0  0  0
    6.0671    0.1275   -2.4338 H   0  0  0  0  0  0  0  0  0  0  0  0
    7.8361    0.0421   -2.2350 H   0  0  0  0  0  0  0  0  0  0  0  0
    6.9556   -1.4119   -2.9542 H   0  0  0  0  0  0  0  0  0  0  0  0
    6.2198    1.7492    1.0069 H   0  0  0  0  0  0  0  0  0  0  0  0
   -4.0438   -1.8730   -1.7858 H   0  0  0  0  0  0  0  0  0  0  0  0
   -8.0923   -1.2451   -0.5579 H   0  0  0  0  0  0  0  0  0  0  0  0
  1  2  1  0
  2  3  1  0
  3  4  2  0
  4  5  1  0
  5  6  1  0
  6  7  1  0
  7  8  2  0
  8  9  1  0
  9 10  2  0
 10 11  1  0
 10 12  1  0
 12 13  1  0
 13 14  1  0
 14 15  2  0
 15 16  1  0
 16 17  2  0
 17 18  1  0
 18 19  1  0
 19 20  1  0
 19 21  1  0
 19 22  1  0
 22 23  2  0
 22 24  1  0
 24 25  1  0
 25 26  2  0
 12 27  2  0
  5 28  2  0
 28 29  1  0
 29 30  2  0
 29 31  1  0
 31 32  3  0
 30  3  1  0
 27  7  1  0
 26 14  1  0
 25 17  1  0
  1 33  1  0
  1 34  1  0
  1 35  1  0
  4 36  1  0
  6 37  1  0
  9 38  1  0
 13 39  1  0
 15 40  1  0
 16 41  1  0
 20 42  1  0
 20 43  1  0
 20 44  1  0
 21 45  1  0
 21 46  1  0
 21 47  1  0
 24 48  1  0
 28 49  1  0
 30 50  1  0
M  END
$$$$
[H]Oc1c([H])c([H])c(N([H])c2nc([H])c(F)c(N([H])c3c([H])c([H])c4c(c3[H])OC(F)(F)O4)n2)c([H])c1Cl
     RDKit          3D

 38 41  0  0  0  0  0  0  0  0999 V2000
   -7.4449    1.6158    0.4427 O   0  0  0  0  0  0  0  0  0  0  0  0
   -6.1006    1.3127    0.3135 C   0  0  0  0  0  0  0  0  0  0  0  0
   -5.6814    0.0790   -0.1369 C   0  0  0  0  0  0  0  0  0  0  0  0
   -4.3136   -0.1980   -0.2569 C   0  0  0  0  0  0  0  0  0  0  0  0
   -3.3610    0.7341    0.0656 C   0  0  0  0  0  0  0  0  0  0  0  0
   -1.9676    0.5641    0.0183 N   0  0  0  0  0  0  0  0  0  0  0  0
   -1.3349   -0.6881    0.1664 C   0  0  0  0  0  0  0  0  0  0  0  0
   -1.9791   -1.8333    0.3829 N   0  0  0  0  0  0  0  0  0  0  0  0
   -1.3757   -3.0092    0.5214 C   0  0  0  0  0  0  0  0  0  0  0  0
   -0.0063   -3.0908    0.4429 C   0  0  0  0  0  0  0  0  0  0  0  0
    0.6539   -4.2434    0.5739 F   0  0  0  0  0  0  0  0  0  0  0  0
    0.7283   -1.9036    0.2140 C   0  0  0  0  0  0  0  0  0  0  0  0
    2.1342   -1.9706    0.1537 N   0  0  0  0  0  0  0  0  0  0  0  0
    3.0181   -0.9086   -0.0873 C   0  0  0  0  0  0  0  0  0  0  0  0
    2.6808    0.2696   -0.7244 C   0  0  0  0  0  0  0  0  0  0  0  0
    3.5897    1.3008   -0.9143 C   0  0  0  0  0  0  0  0  0  0  0  0
    4.8783    1.1429   -0.4500 C   0  0  0  0  0  0  0  0  0  0  0  0
    6.0068    1.9748   -0.4826 O   0  0  0  0  0  0  0  0  0  0  0  0
    6.8186    1.5320    0.6044 C   0  0  0  0  0  0  0  0  0  0  0  0
    8.1342    1.8448    0.4444 F   0  0  0  0  0  0  0  0  0  0  0  0
    6.2721    1.9578    1.7835 F   0  0  0  0  0  0  0  0  0  0  0  0
    6.5823    0.1173    0.5332 O   0  0  0  0  0  0  0  0  0  0  0  0
    5.2387   -0.0275    0.1897 C   0  0  0  0  0  0  0  0  0  0  0  0
    4.3444   -1.0401    0.3761 C   0  0  0  0  0  0  0  0  0  0  0  0
    0.0266   -0.7758    0.0894 N   0  0  0  0  0  0  0  0  0  0  0  0
   -3.8006    1.9952    0.5257 C   0  0  0  0  0  0  0  0  0  0  0  0
   -5.1365    2.2471    0.6357 C   0  0  0  0  0  0  0  0  0  0  0  0
   -5.7196    3.8178    1.2093 Cl  0  0  0  0  0  0  0  0  0  0  0  0
   -8.1799    0.9707    0.2213 H   0  0  0  0  0  0  0  0  0  0  0  0
   -6.3907   -0.6816   -0.4003 H   0  0  0  0  0  0  0  0  0  0  0  0
   -4.0366   -1.1646   -0.6316 H   0  0  0  0  0  0  0  0  0  0  0  0
   -1.3743    1.4456   -0.1440 H   0  0  0  0  0  0  0  0  0  0  0  0
   -1.9641   -3.9061    0.6965 H   0  0  0  0  0  0  0  0  0  0  0  0
    2.5669   -2.9343    0.3033 H   0  0  0  0  0  0  0  0  0  0  0  0
    1.6965    0.4420   -1.1228 H   0  0  0  0  0  0  0  0  0  0  0  0
    3.2861    2.2166   -1.4214 H   0  0  0  0  0  0  0  0  0  0  0  0
    4.5828   -1.9704    0.8712 H   0  0  0  0  0  0  0  0  0  0  0  0
   -3.0720    2.7651    0.7921 H   0  0  0  0  0  0  0  0  0  0  0  0
  1  2  1  0
  2  3  2  0
  3  4  1  0
  4  5  2  0
  5  6  1  0
  6  7  1  0
  7  8  2  0
  8  9  1  0
  9 10  2  0
 10 11  1  0
 10 12  1  0
 12 13  1  0
 13 14  1  0
 14 15  2  0
 15 16  1  0
 16 17  2  0
 17 18  1  0
 18 19  1  0
 19 20  1  0
 19 21  1  0
 19 22  1  0
 22 23  1  0
 23 24  2  0
 12 25  2  0
  5 26  1  0
 26 27  2  0
 27 28  1  0
 27  2  1  0
 25  7  1  0
 24 14  1  0
 23 17  1  0
  1 29  1  0
  3 30  1  0
  4 31  1  0
  6 32  1  0
  9 33  1  0
 13 34  1  0
 15 35  1  0
 16 36  1  0
 24 37  1  0
 26 38  1  0
M  END
$$$$
[H]Oc1c([H])nc([H])c(-c2c([H])nc3c(c2[H])c(-c2c([H])c([H])c(O[H])c([H])c2[H])c([H])n3[H])c1[H]
     RDKit          3D

 36 39  0  0  0  0  0  0  0  0999 V2000
   -5.2285    2.4118    0.6939 O   0  0  0  0  0  0  0  0  0  0  0  0
   -4.2906    1.4494    0.3585 C   0  0  0  0  0  0  0  0  0  0  0  0
   -4.5149    0.1424    0.7831 C   0  0  0  0  0  0  0  0  0  0  0  0
   -3.5795   -0.8205    0.4494 C   0  0  0  0  0  0  0  0  0  0  0  0
   -2.4409   -0.5522   -0.2795 C   0  0  0  0  0  0  0  0  0  0  0  0
   -2.2445    0.7505   -0.6867 C   0  0  0  0  0  0  0  0  0  0  0  0
   -3.1575    1.7307   -0.3700 C   0  0  0  0  0  0  0  0  0  0  0  0
   -1.5179   -1.6370   -0.5844 C   0  0  0  0  0  0  0  0  0  0  0  0
   -1.8466   -2.9067   -1.0773 C   0  0  0  0  0  0  0  0  0  0  0  0
   -0.7189   -3.6125   -1.2309 N   0  0  0  0  0  0  0  0  0  0  0  0
    0.3322   -2.8548   -0.8580 C   0  0  0  0  0  0  0  0  0  0  0  0
    1.6672   -3.0603   -0.8096 N   0  0  0  0  0  0  0  0  0  0  0  0
    2.5396   -2.1375   -0.3923 C   0  0  0  0  0  0  0  0  0  0  0  0
    2.0537   -0.9050    0.0126 C   0  0  0  0  0  0  0  0  0  0  0  0
    0.7091   -0.6293   -0.0111 C   0  0  0  0  0  0  0  0  0  0  0  0
   -0.1484   -1.6160   -0.4507 C   0  0  0  0  0  0  0  0  0  0  0  0
    2.9465    0.1398    0.4756 C   0  0  0  0  0  0  0  0  0  0  0  0
    4.1257   -0.1043    1.1395 C   0  0  0  0  0  0  0  0  0  0  0  0
    4.9270    0.9188    1.5530 N   0  0  0  0  0  0  0  0  0  0  0  0
    4.6244    2.2135    1.3439 C   0  0  0  0  0  0  0  0  0  0  0  0
    3.4497    2.4948    0.6814 C   0  0  0  0  0  0  0  0  0  0  0  0
    3.0826    3.8234    0.4356 O   0  0  0  0  0  0  0  0  0  0  0  0
    2.6201    1.4576    0.2525 C   0  0  0  0  0  0  0  0  0  0  0  0
   -5.0428    3.3639    0.3717 H   0  0  0  0  0  0  0  0  0  0  0  0
   -5.4092   -0.0843    1.3589 H   0  0  0  0  0  0  0  0  0  0  0  0
   -3.7880   -1.8403    0.8003 H   0  0  0  0  0  0  0  0  0  0  0  0
   -1.3533    1.0140   -1.2720 H   0  0  0  0  0  0  0  0  0  0  0  0
   -2.9807    2.7479   -0.7017 H   0  0  0  0  0  0  0  0  0  0  0  0
   -2.8656   -3.2075   -1.2803 H   0  0  0  0  0  0  0  0  0  0  0  0
   -0.6563   -4.6057   -1.5873 H   0  0  0  0  0  0  0  0  0  0  0  0
    3.6105   -2.2801   -0.3453 H   0  0  0  0  0  0  0  0  0  0  0  0
    0.3010    0.3272    0.3022 H   0  0  0  0  0  0  0  0  0  0  0  0
    4.4338   -1.1152    1.3428 H   0  0  0  0  0  0  0  0  0  0  0  0
    5.2645    3.0225    1.6748 H   0  0  0  0  0  0  0  0  0  0  0  0
    3.3880    4.2636   -0.4308 H   0  0  0  0  0  0  0  0  0  0  0  0
    1.7084    1.6977   -0.2623 H   0  0  0  0  0  0  0  0  0  0  0  0
  1  2  1  0
  2  3  2  0
  3  4  1  0
  4  5  2  0
  5  6  1  0
  6  7  2  0
  5  8  1  0
  8  9  2  0
  9 10  1  0
 10 11  1  0
 11 12  2  0
 12 13  1  0
 13 14  2  0
 14 15  1  0
 15 16  2  0
 14 17  1  0
 17 18  2  0
 18 19  1  0
 19 20  2  0
 20 21  1  0
 21 22  1  0
 21 23  2  0
  7  2  1  0
 16  8  1  0
 23 17  1  0
 16 11  1  0
  1 24  1  0
  3 25  1  0
  4 26  1  0
  6 27  1  0
  7 28  1  0
  9 29  1  0
 10 30  1  0
 13 31  1  0
 15 32  1  0
 18 33  1  0
 20 34  1  0
 22 35  1  0
 23 36  1  0
M  END
$$$$
