[H]O[C@@]([H])(C([H])([H])N([H])[H])C([H])([H])N([H])C(=O)c1nc(-c2c([H])c([H])c3c([H])c(-c4c([H])c([H])c([H])c(N5C([H])([H])C([H])([H])N(c6c([H])c([H])c([H])c([H])c6OC([H])(C([H])([H])[H])C([H])([H])[H])C([H])([H])C5([H])[H])c4[H])c([H])nc3c2[H])c([H])s1
     RDKit          3D

 83 88  0  0  0  0  0  0  0  0999 V2000
   -7.9508    3.6184    0.8395 C   0  0  0  0  0  0  0  0  0  0  0  0
   -6.9013    3.0157   -0.1214 C   0  0  0  0  0  0  0  0  0  0  0  0
   -5.9943    4.2348   -0.4709 C   0  0  0  0  0  0  0  0  0  0  0  0
   -7.3888    2.4821   -1.2061 O   0  0  0  0  0  0  0  0  0  0  0  0
   -7.4788    1.4445   -2.0221 C   0  0  0  0  0  0  0  0  0  0  0  0
   -8.3535    1.5942   -3.1524 C   0  0  0  0  0  0  0  0  0  0  0  0
   -8.5293    0.6097   -4.0443 C   0  0  0  0  0  0  0  0  0  0  0  0
   -7.8732   -0.5708   -3.8956 C   0  0  0  0  0  0  0  0  0  0  0  0
   -7.0309   -0.7436   -2.8279 C   0  0  0  0  0  0  0  0  0  0  0  0
   -6.8130    0.2573   -1.8685 C   0  0  0  0  0  0  0  0  0  0  0  0
   -5.8760    0.0021   -0.8383 N   0  0  0  0  0  0  0  0  0  0  0  0
   -4.4854    0.3970   -0.8999 C   0  0  0  0  0  0  0  0  0  0  0  0
   -3.5549   -0.7195   -0.4944 C   0  0  0  0  0  0  0  0  0  0  0  0
   -4.1432   -1.6066    0.4768 N   0  0  0  0  0  0  0  0  0  0  0  0
   -5.5268   -1.9980    0.3903 C   0  0  0  0  0  0  0  0  0  0  0  0
   -6.3411   -0.7068    0.3413 C   0  0  0  0  0  0  0  0  0  0  0  0
   -3.3240   -2.1089    1.5187 C   0  0  0  0  0  0  0  0  0  0  0  0
   -3.8826   -2.5991    2.6715 C   0  0  0  0  0  0  0  0  0  0  0  0
   -3.1049   -3.1113    3.7002 C   0  0  0  0  0  0  0  0  0  0  0  0
   -1.7527   -3.1225    3.5506 C   0  0  0  0  0  0  0  0  0  0  0  0
   -1.1629   -2.6365    2.4032 C   0  0  0  0  0  0  0  0  0  0  0  0
   -1.9460   -2.1411    1.4125 C   0  0  0  0  0  0  0  0  0  0  0  0
    0.3093   -2.6790    2.2967 C   0  0  0  0  0  0  0  0  0  0  0  0
    1.0022   -3.6970    2.9074 C   0  0  0  0  0  0  0  0  0  0  0  0
    2.3642   -3.7732    2.8344 N   0  0  0  0  0  0  0  0  0  0  0  0
    3.0925   -2.8625    2.1659 C   0  0  0  0  0  0  0  0  0  0  0  0
    4.4865   -2.9761    2.1154 C   0  0  0  0  0  0  0  0  0  0  0  0
    5.2197   -2.0442    1.4328 C   0  0  0  0  0  0  0  0  0  0  0  0
    4.5732   -1.0106    0.8074 C   0  0  0  0  0  0  0  0  0  0  0  0
    3.1911   -0.9086    0.8643 C   0  0  0  0  0  0  0  0  0  0  0  0
    2.4250   -1.8315    1.5440 C   0  0  0  0  0  0  0  0  0  0  0  0
    1.0289   -1.7323    1.6048 C   0  0  0  0  0  0  0  0  0  0  0  0
    6.7000   -2.1225    1.3501 C   0  0  0  0  0  0  0  0  0  0  0  0
    7.3805   -3.1501    1.9623 C   0  0  0  0  0  0  0  0  0  0  0  0
    8.9989   -2.7771    1.5695 S   0  0  0  0  0  0  0  0  0  0  0  0
    8.7185   -1.3569    0.6633 C   0  0  0  0  0  0  0  0  0  0  0  0
    9.6880   -0.4683   -0.0076 C   0  0  0  0  0  0  0  0  0  0  0  0
   10.8938   -0.7561    0.0723 O   0  0  0  0  0  0  0  0  0  0  0  0
    9.2055    0.6509   -0.6985 N   0  0  0  0  0  0  0  0  0  0  0  0
   10.1158    1.5521   -1.3717 C   0  0  0  0  0  0  0  0  0  0  0  0
    9.3484    2.6788   -2.0416 C   0  0  1  0  0  0  0  0  0  0  0  0
    8.6137    3.4278   -1.1268 O   0  0  0  0  0  0  0  0  0  0  0  0
   10.2704    3.6141   -2.7741 C   0  0  0  0  0  0  0  0  0  0  0  0
    9.5015    4.6147   -3.4623 N   0  0  0  0  0  0  0  0  0  0  0  0
    7.4050   -1.2452    0.7100 N   0  0  0  0  0  0  0  0  0  0  0  0
   -8.8619    3.9280    0.2949 H   0  0  0  0  0  0  0  0  0  0  0  0
   -8.2224    2.8644    1.6106 H   0  0  0  0  0  0  0  0  0  0  0  0
   -7.5292    4.4951    1.3690 H   0  0  0  0  0  0  0  0  0  0  0  0
   -6.2707    2.3817    0.5657 H   0  0  0  0  0  0  0  0  0  0  0  0
   -6.7139    5.0166   -0.8449 H   0  0  0  0  0  0  0  0  0  0  0  0
   -5.2752    3.9390   -1.2334 H   0  0  0  0  0  0  0  0  0  0  0  0
   -5.5669    4.5575    0.4933 H   0  0  0  0  0  0  0  0  0  0  0  0
   -8.8523    2.5482   -3.2280 H   0  0  0  0  0  0  0  0  0  0  0  0
   -9.2020    0.7452   -4.9029 H   0  0  0  0  0  0  0  0  0  0  0  0
   -8.0072   -1.3704   -4.6071 H   0  0  0  0  0  0  0  0  0  0  0  0
   -6.5083   -1.6709   -2.7027 H   0  0  0  0  0  0  0  0  0  0  0  0
   -4.2740    0.7149   -1.9383 H   0  0  0  0  0  0  0  0  0  0  0  0
   -4.3474    1.2750   -0.2483 H   0  0  0  0  0  0  0  0  0  0  0  0
   -3.2784   -1.3208   -1.3801 H   0  0  0  0  0  0  0  0  0  0  0  0
   -2.6327   -0.2366   -0.1234 H   0  0  0  0  0  0  0  0  0  0  0  0
   -5.8742   -2.6818    1.1530 H   0  0  0  0  0  0  0  0  0  0  0  0
   -5.6329   -2.4618   -0.6436 H   0  0  0  0  0  0  0  0  0  0  0  0
   -6.0162   -0.0978    1.2230 H   0  0  0  0  0  0  0  0  0  0  0  0
   -7.4139   -0.8959    0.3340 H   0  0  0  0  0  0  0  0  0  0  0  0
   -4.9569   -2.6215    2.8768 H   0  0  0  0  0  0  0  0  0  0  0  0
   -3.5904   -3.4936    4.6096 H   0  0  0  0  0  0  0  0  0  0  0  0
   -1.1345   -3.5113    4.3287 H   0  0  0  0  0  0  0  0  0  0  0  0
   -1.4783   -1.7624    0.5144 H   0  0  0  0  0  0  0  0  0  0  0  0
    0.4482   -4.4515    3.4580 H   0  0  0  0  0  0  0  0  0  0  0  0
    4.9647   -3.8062    2.6208 H   0  0  0  0  0  0  0  0  0  0  0  0
    5.1149   -0.2354    0.2451 H   0  0  0  0  0  0  0  0  0  0  0  0
    2.6709   -0.1008    0.3765 H   0  0  0  0  0  0  0  0  0  0  0  0
    0.5179   -0.9167    1.1108 H   0  0  0  0  0  0  0  0  0  0  0  0
    6.9604   -3.9878    2.5512 H   0  0  0  0  0  0  0  0  0  0  0  0
    8.1875    0.8529   -0.7396 H   0  0  0  0  0  0  0  0  0  0  0  0
   10.6037    0.9838   -2.2082 H   0  0  0  0  0  0  0  0  0  0  0  0
   10.9284    1.9179   -0.7225 H   0  0  0  0  0  0  0  0  0  0  0  0
    8.6305    2.2075   -2.7547 H   0  0  0  0  0  0  0  0  0  0  0  0
    7.6411    3.4047   -1.3012 H   0  0  0  0  0  0  0  0  0  0  0  0
   10.8967    4.1556   -2.0153 H   0  0  0  0  0  0  0  0  0  0  0  0
   10.9309    3.0991   -3.4933 H   0  0  0  0  0  0  0  0  0  0  0  0
    8.5620    4.2757   -3.7315 H   0  0  0  0  0  0  0  0  0  0  0  0
    9.4641    5.5225   -2.9139 H   0  0  0  0  0  0  0  0  0  0  0  0
  1  2  1  0
  2  3  1  0
  2  4  1  0
  4  5  1  0
  5  6  2  0
  6  7  1  0
  7  8  2  0
  8  9  1  0
  9 10  2  0
 10 11  1  0
 11 12  1  0
 12 13  1  0
 13 14  1  0
 14 15  1  0
 15 16  1  0
 14 17  1  0
 17 18  2  0
 18 19  1  0
 19 20  2  0
 20 21  1  0
 21 22  2  0
 21 23  1  0
 23 24  2  0
 24 25  1  0
 25 26  2  0
 26 27  1  0
 27 28  2  0
 28 29  1  0
 29 30  2  0
 30 31  1  0
 31 32  2  0
 28 33  1  0
 33 34  2  0
 34 35  1  0
 35 36  1  0
 36 37  1  0
 37 38  2  0
 37 39  1  0
 39 40  1  0
 40 41  1  0
 41 42  1  0
 41 43  1  0
 43 44  1  0
 36 45  2  0
 10  5  1  0
 16 11  1  0
 22 17  1  0
 32 23  1  0
 45 33  1  0
 31 26  1  0
  1 46  1  0
  1 47  1  0
  1 48  1  0
  2 49  1  0
  3 50  1  0
  3 51  1  0
  3 52  1  0
  6 53  1  0
  7 54  1  0
  8 55  1  0
  9 56  1  0
 12 57  1  0
 12 58  1  0
 13 59  1  0
 13 60  1  0
 15 61  1  0
 15 62  1  0
 16 63  1  0
 16 64  1  0
 18 65  1  0
 19 66  1  0
 20 67  1  0
 22 68  1  0
 24 69  1  0
 27 70  1  0
 29 71  1  0
 30 72  1  0
 32 73  1  0
 34 74  1  0
 39 75  1  0
 40 76  1  0
 40 77  1  0
 41 78  1  6
 42 79  1  0
 43 80  1  0
 43 81  1  0
 44 82  1  0
 44 83  1  0
M  END
$$$$
[H]c1c(C([H])([H])N2C([H])([H])C([H])([H])[C@@]([H])(C([H])([H])C([H])([H])[H])N(C(=O)c3oc(C([H])([H])[H])c([H])c3[H])[C@@]([H])(C([H])([H])[H])C2([H])[H])nc2c(c1[H])N([H])C(=O)C([H])([H])C2([H])[H]
     RDKit          3D

 60 63  0  0  0  0  0  0  0  0999 V2000
    1.3939   -4.1490   -0.4783 C   0  0  0  0  0  0  0  0  0  0  0  0
    1.8820   -2.7007   -0.4973 C   0  0  0  0  0  0  0  0  0  0  0  0
    1.9301   -2.1288    0.8833 C   0  0  2  0  0  0  0  0  0  0  0  0
    0.6031   -2.1311    1.5629 C   0  0  0  0  0  0  0  0  0  0  0  0
   -0.4648   -1.2656    1.0331 C   0  0  0  0  0  0  0  0  0  0  0  0
   -0.2519   -0.4880   -0.1181 N   0  0  0  0  0  0  0  0  0  0  0  0
   -1.3285   -0.4002   -1.0323 C   0  0  0  0  0  0  0  0  0  0  0  0
   -2.5844    0.1922   -0.5237 C   0  0  0  0  0  0  0  0  0  0  0  0
   -2.6498    1.0708    0.5249 C   0  0  0  0  0  0  0  0  0  0  0  0
   -3.8744    1.5496    0.9104 C   0  0  0  0  0  0  0  0  0  0  0  0
   -5.0279    1.1575    0.2574 C   0  0  0  0  0  0  0  0  0  0  0  0
   -6.3083    1.6684    0.6930 N   0  0  0  0  0  0  0  0  0  0  0  0
   -7.4706    1.2315    0.0059 C   0  0  0  0  0  0  0  0  0  0  0  0
   -8.5136    1.9225   -0.0505 O   0  0  0  0  0  0  0  0  0  0  0  0
   -7.3764   -0.1004   -0.6452 C   0  0  0  0  0  0  0  0  0  0  0  0
   -6.1624   -0.1662   -1.5364 C   0  0  0  0  0  0  0  0  0  0  0  0
   -4.9481    0.2756   -0.7938 C   0  0  0  0  0  0  0  0  0  0  0  0
   -3.7222   -0.1626   -1.1298 N   0  0  0  0  0  0  0  0  0  0  0  0
    0.6756    0.5683   -0.1235 C   0  0  0  0  0  0  0  0  0  0  0  0
    1.6383    0.3987    1.0339 C   0  0  2  0  0  0  0  0  0  0  0  0
    2.0989    1.6698    1.5629 C   0  0  0  0  0  0  0  0  0  0  0  0
    2.4495   -0.7185    0.7615 N   0  0  0  0  0  0  0  0  0  0  0  0
    3.7938   -0.7464    0.4491 C   0  0  0  0  0  0  0  0  0  0  0  0
    4.4028   -1.9295    0.4760 O   0  0  0  0  0  0  0  0  0  0  0  0
    4.6630    0.3564    0.0756 C   0  0  0  0  0  0  0  0  0  0  0  0
    6.0530    0.2105   -0.1449 C   0  0  0  0  0  0  0  0  0  0  0  0
    6.5457    1.4406   -0.4847 C   0  0  0  0  0  0  0  0  0  0  0  0
    5.4928    2.3025   -0.4710 C   0  0  0  0  0  0  0  0  0  0  0  0
    5.6131    3.7568   -0.7896 C   0  0  0  0  0  0  0  0  0  0  0  0
    4.4580    1.6148   -0.1444 O   0  0  0  0  0  0  0  0  0  0  0  0
    1.7877   -4.7093    0.3730 H   0  0  0  0  0  0  0  0  0  0  0  0
    1.7495   -4.6322   -1.4232 H   0  0  0  0  0  0  0  0  0  0  0  0
    0.2962   -4.1301   -0.5411 H   0  0  0  0  0  0  0  0  0  0  0  0
    2.8832   -2.7402   -0.9542 H   0  0  0  0  0  0  0  0  0  0  0  0
    1.2476   -2.1479   -1.2188 H   0  0  0  0  0  0  0  0  0  0  0  0
    2.6677   -2.6520    1.4855 H   0  0  0  0  0  0  0  0  0  0  0  0
    0.2735   -3.2137    1.5822 H   0  0  0  0  0  0  0  0  0  0  0  0
    0.7521   -1.9158    2.6674 H   0  0  0  0  0  0  0  0  0  0  0  0
   -1.3392   -1.9593    0.7714 H   0  0  0  0  0  0  0  0  0  0  0  0
   -0.9312   -0.6794    1.8890 H   0  0  0  0  0  0  0  0  0  0  0  0
   -1.5092   -1.4277   -1.4590 H   0  0  0  0  0  0  0  0  0  0  0  0
   -1.0003    0.2097   -1.9102 H   0  0  0  0  0  0  0  0  0  0  0  0
   -1.7382    1.3783    1.0322 H   0  0  0  0  0  0  0  0  0  0  0  0
   -3.9582    2.2484    1.7396 H   0  0  0  0  0  0  0  0  0  0  0  0
   -6.3443    2.3298    1.4798 H   0  0  0  0  0  0  0  0  0  0  0  0
   -8.2979   -0.3528   -1.1807 H   0  0  0  0  0  0  0  0  0  0  0  0
   -7.2329   -0.8407    0.1957 H   0  0  0  0  0  0  0  0  0  0  0  0
   -6.3655    0.5318   -2.3928 H   0  0  0  0  0  0  0  0  0  0  0  0
   -6.0701   -1.2081   -1.8998 H   0  0  0  0  0  0  0  0  0  0  0  0
    1.3206    0.4446   -1.0460 H   0  0  0  0  0  0  0  0  0  0  0  0
    0.3091    1.5899   -0.1746 H   0  0  0  0  0  0  0  0  0  0  0  0
    0.9707   -0.0078    1.9392 H   0  0  0  0  0  0  0  0  0  0  0  0
    1.3119    2.0336    2.3348 H   0  0  0  0  0  0  0  0  0  0  0  0
    2.1219    2.5478    0.8766 H   0  0  0  0  0  0  0  0  0  0  0  0
    3.0109    1.6433    2.2010 H   0  0  0  0  0  0  0  0  0  0  0  0
    6.5736   -0.7169   -0.0483 H   0  0  0  0  0  0  0  0  0  0  0  0
    7.6039    1.6390   -0.7158 H   0  0  0  0  0  0  0  0  0  0  0  0
    4.6490    4.2875   -0.5651 H   0  0  0  0  0  0  0  0  0  0  0  0
    5.8435    3.9357   -1.8545 H   0  0  0  0  0  0  0  0  0  0  0  0
    6.4037    4.2150   -0.1492 H   0  0  0  0  0  0  0  0  0  0  0  0
  1  2  1  0
  2  3  1  0
  3  4  1  0
  4  5  1  0
  5  6  1  0
  6  7  1  0
  7  8  1  0
  8  9  2  0
  9 10  1  0
 10 11  2  0
 11 12  1  0
 12 13  1  0
 13 14  2  0
 13 15  1  0
 15 16  1  0
 16 17  1  0
 17 18  2  0
  6 19  1  0
 19 20  1  0
 20 21  1  0
 20 22  1  0
 22 23  1  0
 23 24  2  0
 23 25  1  0
 25 26  2  0
 26 27  1  0
 27 28  2  0
 28 29  1  0
 28 30  1  0
 22  3  1  0
 30 25  1  0
 18  8  1  0
 17 11  1  0
  1 31  1  0
  1 32  1  0
  1 33  1  0
  2 34  1  0
  2 35  1  0
  3 36  1  1
  4 37  1  0
  4 38  1  0
  5 39  1  0
  5 40  1  0
  7 41  1  0
  7 42  1  0
  9 43  1  0
 10 44  1  0
 12 45  1  0
 15 46  1  0
 15 47  1  0
 16 48  1  0
 16 49  1  0
 19 50  1  0
 19 51  1  0
 20 52  1  1
 21 53  1  0
 21 54  1  0
 21 55  1  0
 26 56  1  0
 27 57  1  0
 29 58  1  0
 29 59  1  0
 29 60  1  0
M  END
$$$$
[H]c1nc(C(=O)N([H])c2c([H])c([H])c(Cl)c(OC([H])([H])[H])c2[H])oc1C(=O)N1C([H])([H])C([H])([H])C([H])([H])C([H])([H])[C@]1([H])C([H])([H])[H]
     RDKit          3D

 46 48  0  0  0  0  0  0  0  0999 V2000
   -5.3720   -1.5592    1.3377 C   0  0  0  0  0  0  0  0  0  0  0  0
   -5.2400   -0.5285    0.2819 C   0  0  1  0  0  0  0  0  0  0  0  0
   -5.9246    0.7781    0.6566 C   0  0  0  0  0  0  0  0  0  0  0  0
   -6.1751    1.5100   -0.6437 C   0  0  0  0  0  0  0  0  0  0  0  0
   -5.2654    1.0778   -1.7416 C   0  0  0  0  0  0  0  0  0  0  0  0
   -3.8564    0.7654   -1.2410 C   0  0  0  0  0  0  0  0  0  0  0  0
   -3.9022   -0.1645   -0.1319 N   0  0  0  0  0  0  0  0  0  0  0  0
   -2.7372   -0.6386    0.4713 C   0  0  0  0  0  0  0  0  0  0  0  0
   -2.8534   -1.4512    1.4781 O   0  0  0  0  0  0  0  0  0  0  0  0
   -1.3571   -0.3493    0.1296 C   0  0  0  0  0  0  0  0  0  0  0  0
   -0.8142    0.4276   -0.8466 C   0  0  0  0  0  0  0  0  0  0  0  0
    0.5449    0.3293   -0.6953 N   0  0  0  0  0  0  0  0  0  0  0  0
    0.7968   -0.4806    0.3382 C   0  0  0  0  0  0  0  0  0  0  0  0
   -0.3358   -0.8720    0.8132 O   0  0  0  0  0  0  0  0  0  0  0  0
    2.1162   -0.8703    0.8589 C   0  0  0  0  0  0  0  0  0  0  0  0
    2.1252   -1.6389    1.8337 O   0  0  0  0  0  0  0  0  0  0  0  0
    3.2625   -0.3624    0.2380 N   0  0  0  0  0  0  0  0  0  0  0  0
    4.6015   -0.6124    0.5778 C   0  0  0  0  0  0  0  0  0  0  0  0
    5.0357   -1.5409    1.4964 C   0  0  0  0  0  0  0  0  0  0  0  0
    6.3972   -1.7082    1.7764 C   0  0  0  0  0  0  0  0  0  0  0  0
    7.3263   -0.9346    1.1258 C   0  0  0  0  0  0  0  0  0  0  0  0
    9.0373   -1.0924    1.4283 Cl  0  0  0  0  0  0  0  0  0  0  0  0
    6.9283   -0.0038    0.2078 C   0  0  0  0  0  0  0  0  0  0  0  0
    7.8433    0.8049   -0.4775 O   0  0  0  0  0  0  0  0  0  0  0  0
    7.4027    1.7551   -1.4176 C   0  0  0  0  0  0  0  0  0  0  0  0
    5.5993    0.1463   -0.0527 C   0  0  0  0  0  0  0  0  0  0  0  0
   -4.9408   -2.5106    1.0192 H   0  0  0  0  0  0  0  0  0  0  0  0
   -6.4907   -1.7866    1.4141 H   0  0  0  0  0  0  0  0  0  0  0  0
   -5.0652   -1.2016    2.3442 H   0  0  0  0  0  0  0  0  0  0  0  0
   -5.7620   -0.8615   -0.6525 H   0  0  0  0  0  0  0  0  0  0  0  0
   -6.8781    0.5980    1.1918 H   0  0  0  0  0  0  0  0  0  0  0  0
   -5.2114    1.3803    1.2540 H   0  0  0  0  0  0  0  0  0  0  0  0
   -7.2222    1.2395   -0.9488 H   0  0  0  0  0  0  0  0  0  0  0  0
   -6.1812    2.6129   -0.4929 H   0  0  0  0  0  0  0  0  0  0  0  0
   -5.1423    1.9483   -2.4478 H   0  0  0  0  0  0  0  0  0  0  0  0
   -5.6214    0.2327   -2.3553 H   0  0  0  0  0  0  0  0  0  0  0  0
   -3.3209    1.6943   -0.9912 H   0  0  0  0  0  0  0  0  0  0  0  0
   -3.3623    0.2724   -2.0894 H   0  0  0  0  0  0  0  0  0  0  0  0
   -1.2583    1.0176   -1.6087 H   0  0  0  0  0  0  0  0  0  0  0  0
    3.0813    0.2918   -0.5991 H   0  0  0  0  0  0  0  0  0  0  0  0
    4.3431   -2.1608    2.0138 H   0  0  0  0  0  0  0  0  0  0  0  0
    6.7402   -2.4338    2.4949 H   0  0  0  0  0  0  0  0  0  0  0  0
    6.9047    1.2144   -2.2733 H   0  0  0  0  0  0  0  0  0  0  0  0
    8.2651    2.2913   -1.8533 H   0  0  0  0  0  0  0  0  0  0  0  0
    6.6781    2.4797   -0.9826 H   0  0  0  0  0  0  0  0  0  0  0  0
    5.2604    0.8949   -0.7913 H   0  0  0  0  0  0  0  0  0  0  0  0
  1  2  1  0
  2  3  1  0
  3  4  1  0
  4  5  1  0
  5  6  1  0
  6  7  1  0
  7  8  1  0
  8  9  2  0
  8 10  1  0
 10 11  2  0
 11 12  1  0
 12 13  2  0
 13 14  1  0
 13 15  1  0
 15 16  2  0
 15 17  1  0
 17 18  1  0
 18 19  2  0
 19 20  1  0
 20 21  2  0
 21 22  1  0
 21 23  1  0
 23 24  1  0
 24 25  1  0
 23 26  2  0
  7  2  1  0
 14 10  1  0
 26 18  1  0
  1 27  1  0
  1 28  1  0
  1 29  1  0
  2 30  1  6
  3 31  1  0
  3 32  1  0
  4 33  1  0
  4 34  1  0
  5 35  1  0
  5 36  1  0
  6 37  1  0
  6 38  1  0
 11 39  1  0
 17 40  1  0
 19 41  1  0
 20 42  1  0
 25 43  1  0
 25 44  1  0
 25 45  1  0
 26 46  1  0
M  END
$$$$
[H]O[C@@]([H])(C(=O)N1C([H])([H])C([H])([H])N(c2c([H])c([H])c([H])c(N([H])c3nc4c(F)c([H])c(Cl)c([H])c4n3-c3c([H])c([H])c([H])c(Cl)c3[H])c2[H])C([H])([H])C1([H])[H])C([H])([H])[H]
     RDKit          3D

 60 64  0  0  0  0  0  0  0  0999 V2000
    7.9862   -0.3452   -1.6617 C   0  0  0  0  0  0  0  0  0  0  0  0
    6.6247   -0.8156   -1.1376 C   0  0  1  0  0  0  0  0  0  0  0  0
    6.6846   -1.1740    0.1720 O   0  0  0  0  0  0  0  0  0  0  0  0
    5.6778    0.2670   -1.4438 C   0  0  0  0  0  0  0  0  0  0  0  0
    5.5600    0.6655   -2.6628 O   0  0  0  0  0  0  0  0  0  0  0  0
    4.8770    0.9110   -0.4870 N   0  0  0  0  0  0  0  0  0  0  0  0
    3.9812    1.9767   -0.9630 C   0  0  0  0  0  0  0  0  0  0  0  0
    2.5720    1.7468   -0.4544 C   0  0  0  0  0  0  0  0  0  0  0  0
    2.6769    1.2351    0.9082 N   0  0  0  0  0  0  0  0  0  0  0  0
    3.8984    1.4160    1.6374 C   0  0  0  0  0  0  0  0  0  0  0  0
    4.9344    0.5391    0.9031 C   0  0  0  0  0  0  0  0  0  0  0  0
    1.5535    0.5773    1.4663 C   0  0  0  0  0  0  0  0  0  0  0  0
    1.6399   -0.1175    2.6545 C   0  0  0  0  0  0  0  0  0  0  0  0
    0.5225   -0.7207    3.1438 C   0  0  0  0  0  0  0  0  0  0  0  0
   -0.6966   -0.6454    2.4647 C   0  0  0  0  0  0  0  0  0  0  0  0
   -0.8276    0.0329    1.2818 C   0  0  0  0  0  0  0  0  0  0  0  0
   -2.0217    0.1381    0.5242 N   0  0  0  0  0  0  0  0  0  0  0  0
   -3.1121   -0.7309    0.7069 C   0  0  0  0  0  0  0  0  0  0  0  0
   -3.3228   -1.7847    1.5076 N   0  0  0  0  0  0  0  0  0  0  0  0
   -4.5378   -2.3186    1.3366 C   0  0  0  0  0  0  0  0  0  0  0  0
   -5.2293   -3.3807    1.8941 C   0  0  0  0  0  0  0  0  0  0  0  0
   -4.6385   -4.1260    2.8449 F   0  0  0  0  0  0  0  0  0  0  0  0
   -6.5086   -3.6670    1.4757 C   0  0  0  0  0  0  0  0  0  0  0  0
   -7.1242   -2.8950    0.4886 C   0  0  0  0  0  0  0  0  0  0  0  0
   -8.7537   -3.2390   -0.0622 Cl  0  0  0  0  0  0  0  0  0  0  0  0
   -6.4248   -1.8424   -0.0565 C   0  0  0  0  0  0  0  0  0  0  0  0
   -5.1273   -1.5446    0.3614 C   0  0  0  0  0  0  0  0  0  0  0  0
   -4.2707   -0.5862   -0.0208 N   0  0  0  0  0  0  0  0  0  0  0  0
   -4.5049    0.4114   -1.0042 C   0  0  0  0  0  0  0  0  0  0  0  0
   -4.3963    0.0512   -2.3434 C   0  0  0  0  0  0  0  0  0  0  0  0
   -4.6068    0.9557   -3.3568 C   0  0  0  0  0  0  0  0  0  0  0  0
   -4.9315    2.2418   -3.0174 C   0  0  0  0  0  0  0  0  0  0  0  0
   -5.0448    2.6217   -1.6922 C   0  0  0  0  0  0  0  0  0  0  0  0
   -5.4646    4.2887   -1.3218 Cl  0  0  0  0  0  0  0  0  0  0  0  0
   -4.8299    1.7008   -0.6945 C   0  0  0  0  0  0  0  0  0  0  0  0
    0.3468    0.6413    0.8107 C   0  0  0  0  0  0  0  0  0  0  0  0
    7.9434   -0.5267   -2.7734 H   0  0  0  0  0  0  0  0  0  0  0  0
    8.8100   -0.8983   -1.2072 H   0  0  0  0  0  0  0  0  0  0  0  0
    8.0492    0.7573   -1.5187 H   0  0  0  0  0  0  0  0  0  0  0  0
    6.3050   -1.7058   -1.7317 H   0  0  0  0  0  0  0  0  0  0  0  0
    7.6120   -1.2945    0.5036 H   0  0  0  0  0  0  0  0  0  0  0  0
    4.3217    2.9489   -0.5623 H   0  0  0  0  0  0  0  0  0  0  0  0
    3.9458    2.0144   -2.0516 H   0  0  0  0  0  0  0  0  0  0  0  0
    2.0773    2.7330   -0.3975 H   0  0  0  0  0  0  0  0  0  0  0  0
    2.0136    1.1028   -1.1289 H   0  0  0  0  0  0  0  0  0  0  0  0
    4.2211    2.4827    1.4387 H   0  0  0  0  0  0  0  0  0  0  0  0
    3.8410    1.2188    2.6968 H   0  0  0  0  0  0  0  0  0  0  0  0
    4.5638   -0.5019    1.1014 H   0  0  0  0  0  0  0  0  0  0  0  0
    5.9046    0.7495    1.3949 H   0  0  0  0  0  0  0  0  0  0  0  0
    2.5762   -0.2000    3.2075 H   0  0  0  0  0  0  0  0  0  0  0  0
    0.5773   -1.2651    4.0693 H   0  0  0  0  0  0  0  0  0  0  0  0
   -1.5180   -1.1370    2.9340 H   0  0  0  0  0  0  0  0  0  0  0  0
   -2.0549    0.9191   -0.1978 H   0  0  0  0  0  0  0  0  0  0  0  0
   -7.0884   -4.4958    1.8897 H   0  0  0  0  0  0  0  0  0  0  0  0
   -6.8380   -1.1988   -0.8274 H   0  0  0  0  0  0  0  0  0  0  0  0
   -4.1399   -0.9644   -2.6105 H   0  0  0  0  0  0  0  0  0  0  0  0
   -4.5097    0.6237   -4.3822 H   0  0  0  0  0  0  0  0  0  0  0  0
   -5.0977    2.9568   -3.8304 H   0  0  0  0  0  0  0  0  0  0  0  0
   -4.9218    2.0117    0.3309 H   0  0  0  0  0  0  0  0  0  0  0  0
    0.2447    1.1849   -0.1346 H   0  0  0  0  0  0  0  0  0  0  0  0
  1  2  1  0
  2  3  1  0
  2  4  1  0
  4  5  2  0
  4  6  1  0
  6  7  1  0
  7  8  1  0
  8  9  1  0
  9 10  1  0
 10 11  1  0
  9 12  1  0
 12 13  2  0
 13 14  1  0
 14 15  2  0
 15 16  1  0
 16 17  1  0
 17 18  1  0
 18 19  2  0
 19 20  1  0
 20 21  2  0
 21 22  1  0
 21 23  1  0
 23 24  2  0
 24 25  1  0
 24 26  1  0
 26 27  2  0
 27 28  1  0
 28 29  1  0
 29 30  2  0
 30 31  1  0
 31 32  2  0
 32 33  1  0
 33 34  1  0
 33 35  2  0
 16 36  2  0
 11  6  1  0
 36 12  1  0
 28 18  1  0
 35 29  1  0
 27 20  1  0
  1 37  1  0
  1 38  1  0
  1 39  1  0
  2 40  1  6
  3 41  1  0
  7 42  1  0
  7 43  1  0
  8 44  1  0
  8 45  1  0
 10 46  1  0
 10 47  1  0
 11 48  1  0
 11 49  1  0
 13 50  1  0
 14 51  1  0
 15 52  1  0
 17 53  1  0
 23 54  1  0
 26 55  1  0
 30 56  1  0
 31 57  1  0
 32 58  1  0
 35 59  1  0
 36 60  1  0
M  END
$$$$
[H]c1c([H])c([H])c(N2C([H])([H])C([H])([H])C([H])(C([H])([H])N([H])C(=O)Oc3c([H])c([H])c([H])c([H])c3-c3c([H])c([H])c(OC([H])([H])[H])c([H])c3[H])C([H])([H])C2([H])[H])c(F)c1[H]
     RDKit          3D

 59 62  0  0  0  0  0  0  0  0999 V2000
   -4.6878    3.0885   -2.9819 C   0  0  0  0  0  0  0  0  0  0  0  0
   -4.9005    1.7259   -2.6396 O   0  0  0  0  0  0  0  0  0  0  0  0
   -4.5573    1.3093   -1.3516 C   0  0  0  0  0  0  0  0  0  0  0  0
   -4.0283    2.1859   -0.4315 C   0  0  0  0  0  0  0  0  0  0  0  0
   -3.6809    1.7822    0.8598 C   0  0  0  0  0  0  0  0  0  0  0  0
   -3.8633    0.4651    1.2540 C   0  0  0  0  0  0  0  0  0  0  0  0
   -4.3920   -0.4146    0.3370 C   0  0  0  0  0  0  0  0  0  0  0  0
   -4.7380    0.0002   -0.9581 C   0  0  0  0  0  0  0  0  0  0  0  0
   -3.5081    0.0380    2.6000 C   0  0  0  0  0  0  0  0  0  0  0  0
   -3.9347    0.7976    3.6969 C   0  0  0  0  0  0  0  0  0  0  0  0
   -3.6228    0.4210    4.9861 C   0  0  0  0  0  0  0  0  0  0  0  0
   -2.8818   -0.7195    5.1743 C   0  0  0  0  0  0  0  0  0  0  0  0
   -2.4647   -1.4618    4.0963 C   0  0  0  0  0  0  0  0  0  0  0  0
   -2.7658   -1.1031    2.7928 C   0  0  0  0  0  0  0  0  0  0  0  0
   -2.3696   -1.8143    1.6751 O   0  0  0  0  0  0  0  0  0  0  0  0
   -1.1480   -1.5427    1.0063 C   0  0  0  0  0  0  0  0  0  0  0  0
   -0.4966   -0.6286    1.5181 O   0  0  0  0  0  0  0  0  0  0  0  0
   -0.7740   -2.2804   -0.1254 N   0  0  0  0  0  0  0  0  0  0  0  0
    0.3692   -2.1954   -0.9030 C   0  0  0  0  0  0  0  0  0  0  0  0
    1.7201   -2.5691   -0.4747 C   0  0  0  0  0  0  0  0  0  0  0  0
    2.3668   -1.8945    0.6620 C   0  0  0  0  0  0  0  0  0  0  0  0
    2.8474   -0.4933    0.3429 C   0  0  0  0  0  0  0  0  0  0  0  0
    3.8154   -0.5311   -0.7534 N   0  0  0  0  0  0  0  0  0  0  0  0
    3.9565   -1.8406   -1.4023 C   0  0  0  0  0  0  0  0  0  0  0  0
    2.6144   -2.4109   -1.7388 C   0  0  0  0  0  0  0  0  0  0  0  0
    4.5632    0.6032   -1.1611 C   0  0  0  0  0  0  0  0  0  0  0  0
    5.9614    0.5897   -1.1287 C   0  0  0  0  0  0  0  0  0  0  0  0
    6.6949    1.6849   -1.5239 C   0  0  0  0  0  0  0  0  0  0  0  0
    6.0643    2.8438   -1.9699 C   0  0  0  0  0  0  0  0  0  0  0  0
    4.6798    2.8777   -2.0097 C   0  0  0  0  0  0  0  0  0  0  0  0
    3.9608    1.7721   -1.6104 C   0  0  0  0  0  0  0  0  0  0  0  0
    2.6039    1.8475   -1.6653 F   0  0  0  0  0  0  0  0  0  0  0  0
   -3.5866    3.2877   -3.0028 H   0  0  0  0  0  0  0  0  0  0  0  0
   -5.1805    3.3571   -3.9319 H   0  0  0  0  0  0  0  0  0  0  0  0
   -5.1109    3.7722   -2.2150 H   0  0  0  0  0  0  0  0  0  0  0  0
   -3.8689    3.2172   -0.6924 H   0  0  0  0  0  0  0  0  0  0  0  0
   -3.2669    2.4636    1.5800 H   0  0  0  0  0  0  0  0  0  0  0  0
   -4.5453   -1.4491    0.6298 H   0  0  0  0  0  0  0  0  0  0  0  0
   -5.1503   -0.7106   -1.6521 H   0  0  0  0  0  0  0  0  0  0  0  0
   -4.5161    1.6925    3.5554 H   0  0  0  0  0  0  0  0  0  0  0  0
   -3.9771    1.0438    5.7916 H   0  0  0  0  0  0  0  0  0  0  0  0
   -2.6379   -1.0142    6.1759 H   0  0  0  0  0  0  0  0  0  0  0  0
   -1.8819   -2.3607    4.2195 H   0  0  0  0  0  0  0  0  0  0  0  0
   -1.4964   -3.0572   -0.4550 H   0  0  0  0  0  0  0  0  0  0  0  0
    0.4873   -1.0963   -1.2824 H   0  0  0  0  0  0  0  0  0  0  0  0
    0.1331   -2.7027   -1.9186 H   0  0  0  0  0  0  0  0  0  0  0  0
    1.7586   -3.7124   -0.3095 H   0  0  0  0  0  0  0  0  0  0  0  0
    3.3561   -2.4583    0.8500 H   0  0  0  0  0  0  0  0  0  0  0  0
    1.8063   -1.9031    1.5715 H   0  0  0  0  0  0  0  0  0  0  0  0
    2.0150    0.1866    0.0987 H   0  0  0  0  0  0  0  0  0  0  0  0
    3.3704   -0.1097    1.2285 H   0  0  0  0  0  0  0  0  0  0  0  0
    4.5146   -2.5611   -0.7910 H   0  0  0  0  0  0  0  0  0  0  0  0
    4.5035   -1.7255   -2.3643 H   0  0  0  0  0  0  0  0  0  0  0  0
    2.0734   -1.8032   -2.5051 H   0  0  0  0  0  0  0  0  0  0  0  0
    2.7519   -3.4024   -2.1986 H   0  0  0  0  0  0  0  0  0  0  0  0
    6.4758   -0.3109   -0.7820 H   0  0  0  0  0  0  0  0  0  0  0  0
    7.7831    1.7202   -1.5156 H   0  0  0  0  0  0  0  0  0  0  0  0
    6.6120    3.7165   -2.2849 H   0  0  0  0  0  0  0  0  0  0  0  0
    4.1740    3.7874   -2.3601 H   0  0  0  0  0  0  0  0  0  0  0  0
  1  2  1  0
  2  3  1  0
  3  4  2  0
  4  5  1  0
  5  6  2  0
  6  7  1  0
  7  8  2  0
  6  9  1  0
  9 10  2  0
 10 11  1  0
 11 12  2  0
 12 13  1  0
 13 14  2  0
 14 15  1  0
 15 16  1  0
 16 17  2  0
 16 18  1  0
 18 19  1  0
 19 20  1  0
 20 21  1  0
 21 22  1  0
 22 23  1  0
 23 24  1  0
 24 25  1  0
 23 26  1  0
 26 27  2  0
 27 28  1  0
 28 29  2  0
 29 30  1  0
 30 31  2  0
 31 32  1  0
  8  3  1  0
 14  9  1  0
 25 20  1  0
 31 26  1  0
  1 33  1  0
  1 34  1  0
  1 35  1  0
  4 36  1  0
  5 37  1  0
  7 38  1  0
  8 39  1  0
 10 40  1  0
 11 41  1  0
 12 42  1  0
 13 43  1  0
 18 44  1  0
 19 45  1  0
 19 46  1  0
 20 47  1  0
 21 48  1  0
 21 49  1  0
 22 50  1  0
 22 51  1  0
 24 52  1  0
 24 53  1  0
 25 54  1  0
 25 55  1  0
 27 56  1  0
 28 57  1  0
 29 58  1  0
 30 59  1  0
M  END
$$$$
[H]c1nc(-c2c([H])c([H])c([H])c(C(=O)N3C([H])([H])C([H])([H])N(C4([H])C([H])([H])C4([H])[H])C([H])([H])C3([H])[H])c2[H])c([H])c(N([H])[H])c1[H]
     RDKit          3D

 46 49  0  0  0  0  0  0  0  0999 V2000
    6.6089   -2.5490   -0.9911 N   0  0  0  0  0  0  0  0  0  0  0  0
    6.2794   -1.2471   -0.5199 C   0  0  0  0  0  0  0  0  0  0  0  0
    7.2717   -0.3521   -0.2104 C   0  0  0  0  0  0  0  0  0  0  0  0
    6.9311    0.9093    0.2447 C   0  0  0  0  0  0  0  0  0  0  0  0
    5.6479    1.2182    0.3688 N   0  0  0  0  0  0  0  0  0  0  0  0
    4.6234    0.4021    0.0879 C   0  0  0  0  0  0  0  0  0  0  0  0
    4.9532   -0.8597   -0.3672 C   0  0  0  0  0  0  0  0  0  0  0  0
    3.2550    0.8745    0.2736 C   0  0  0  0  0  0  0  0  0  0  0  0
    3.0899    2.1566    0.7488 C   0  0  0  0  0  0  0  0  0  0  0  0
    1.8415    2.6731    0.9457 C   0  0  0  0  0  0  0  0  0  0  0  0
    0.7244    1.8582    0.6492 C   0  0  0  0  0  0  0  0  0  0  0  0
    0.8324    0.5817    0.1764 C   0  0  0  0  0  0  0  0  0  0  0  0
    2.1474    0.1084   -0.0047 C   0  0  0  0  0  0  0  0  0  0  0  0
   -0.2557   -0.2843   -0.1475 C   0  0  0  0  0  0  0  0  0  0  0  0
    0.1215   -1.4890   -0.5732 O   0  0  0  0  0  0  0  0  0  0  0  0
   -1.6275   -0.1601   -0.1207 N   0  0  0  0  0  0  0  0  0  0  0  0
   -2.3984    0.9580    0.2666 C   0  0  0  0  0  0  0  0  0  0  0  0
   -3.8933    0.7562    0.0520 C   0  0  0  0  0  0  0  0  0  0  0  0
   -4.3633   -0.4449    0.6796 N   0  0  0  0  0  0  0  0  0  0  0  0
   -3.4595   -1.5559    0.5249 C   0  0  0  0  0  0  0  0  0  0  0  0
   -2.4385   -1.3290   -0.5487 C   0  0  0  0  0  0  0  0  0  0  0  0
   -5.7186   -0.7468    0.3720 C   0  0  0  0  0  0  0  0  0  0  0  0
   -6.8277    0.1378    0.7557 C   0  0  0  0  0  0  0  0  0  0  0  0
   -6.4712   -0.0660   -0.7053 C   0  0  0  0  0  0  0  0  0  0  0  0
    6.0689   -3.3491   -0.6446 H   0  0  0  0  0  0  0  0  0  0  0  0
    7.3741   -2.6726   -1.6635 H   0  0  0  0  0  0  0  0  0  0  0  0
    8.3325   -0.6160   -0.3169 H   0  0  0  0  0  0  0  0  0  0  0  0
    7.7421    1.5832    0.4764 H   0  0  0  0  0  0  0  0  0  0  0  0
    4.1748   -1.5534   -0.6061 H   0  0  0  0  0  0  0  0  0  0  0  0
    3.9327    2.7852    0.9779 H   0  0  0  0  0  0  0  0  0  0  0  0
    1.6564    3.6766    1.3185 H   0  0  0  0  0  0  0  0  0  0  0  0
   -0.2503    2.2786    0.8125 H   0  0  0  0  0  0  0  0  0  0  0  0
    2.3130   -0.8996   -0.3789 H   0  0  0  0  0  0  0  0  0  0  0  0
   -2.1350    1.8313   -0.3879 H   0  0  0  0  0  0  0  0  0  0  0  0
   -2.2582    1.3080    1.3190 H   0  0  0  0  0  0  0  0  0  0  0  0
   -4.3902    1.6140    0.5437 H   0  0  0  0  0  0  0  0  0  0  0  0
   -4.0800    0.8166   -1.0204 H   0  0  0  0  0  0  0  0  0  0  0  0
   -3.9824   -2.5164    0.2939 H   0  0  0  0  0  0  0  0  0  0  0  0
   -2.9271   -1.7116    1.4820 H   0  0  0  0  0  0  0  0  0  0  0  0
   -2.8387   -1.0784   -1.5299 H   0  0  0  0  0  0  0  0  0  0  0  0
   -1.8101   -2.2216   -0.6106 H   0  0  0  0  0  0  0  0  0  0  0  0
   -5.9498   -1.8515    0.4629 H   0  0  0  0  0  0  0  0  0  0  0  0
   -6.6905    1.1683    1.1377 H   0  0  0  0  0  0  0  0  0  0  0  0
   -7.8151   -0.2850    1.1062 H   0  0  0  0  0  0  0  0  0  0  0  0
   -6.0972    0.7922   -1.2792 H   0  0  0  0  0  0  0  0  0  0  0  0
   -7.2439   -0.6492   -1.2808 H   0  0  0  0  0  0  0  0  0  0  0  0
  1  2  1  0
  2  3  2  0
  3  4  1  0
  4  5  2  0
  5  6  1  0
  6  7  2  0
  6  8  1  0
  8  9  2  0
  9 10  1  0
 10 11  2  0
 11 12  1  0
 12 13  2  0
 12 14  1  0
 14 15  2  0
 14 16  1  0
 16 17  1  0
 17 18  1  0
 18 19  1  0
 19 20  1  0
 20 21  1  0
 19 22  1  0
 22 23  1  0
 23 24  1  0
  7  2  1  0
 13  8  1  0
 21 16  1  0
 24 22  1  0
  1 25  1  0
  1 26  1  0
  3 27  1  0
  4 28  1  0
  7 29  1  0
  9 30  1  0
 10 31  1  0
 11 32  1  0
 13 33  1  0
 17 34  1  0
 17 35  1  0
 18 36  1  0
 18 37  1  0
 20 38  1  0
 20 39  1  0
 21 40  1  0
 21 41  1  0
 22 42  1  0
 23 43  1  0
 23 44  1  0
 24 45  1  0
 24 46  1  0
M  END
$$$$
[H]c1c([H])c([H])c(OC([H])([H])C([H])([H])N([H])C(=O)[C@@]([H])(N([H])C(=O)N([H])c2c([H])c([H])c([H])c(-c3c([H])c([H])c([H])c([H])c3[H])c2[H])C([H])([H])C([H])(C([H])([H])[H])C([H])([H])[H])c([H])c1[H]
     RDKit          3D

 64 66  0  0  0  0  0  0  0  0999 V2000
   -1.9498   -5.2293    1.4907 C   0  0  0  0  0  0  0  0  0  0  0  0
   -2.2224   -3.8436    0.8513 C   0  0  0  0  0  0  0  0  0  0  0  0
   -3.5428   -3.4134    1.3636 C   0  0  0  0  0  0  0  0  0  0  0  0
   -1.0405   -3.0316    1.1671 C   0  0  0  0  0  0  0  0  0  0  0  0
   -0.9306   -1.6343    0.7003 C   0  0  2  0  0  0  0  0  0  0  0  0
    0.3889   -1.1844    1.2194 N   0  0  0  0  0  0  0  0  0  0  0  0
    1.4141   -0.7789    0.2817 C   0  0  0  0  0  0  0  0  0  0  0  0
    1.1147   -0.8386   -0.9245 O   0  0  0  0  0  0  0  0  0  0  0  0
    2.6587   -0.3505    0.7595 N   0  0  0  0  0  0  0  0  0  0  0  0
    3.7433    0.0545   -0.0060 C   0  0  0  0  0  0  0  0  0  0  0  0
    3.8916   -0.1829   -1.3432 C   0  0  0  0  0  0  0  0  0  0  0  0
    5.0069    0.2778   -2.0511 C   0  0  0  0  0  0  0  0  0  0  0  0
    6.0002    0.9893   -1.4273 C   0  0  0  0  0  0  0  0  0  0  0  0
    5.8736    1.2454   -0.0620 C   0  0  0  0  0  0  0  0  0  0  0  0
    4.7701    0.7801    0.5989 C   0  0  0  0  0  0  0  0  0  0  0  0
    6.9272    2.0063    0.6101 C   0  0  0  0  0  0  0  0  0  0  0  0
    6.5944    2.8031    1.6751 C   0  0  0  0  0  0  0  0  0  0  0  0
    7.5313    3.5621    2.3744 C   0  0  0  0  0  0  0  0  0  0  0  0
    8.8612    3.5136    1.9799 C   0  0  0  0  0  0  0  0  0  0  0  0
    9.2025    2.7233    0.9206 C   0  0  0  0  0  0  0  0  0  0  0  0
    8.2512    1.9697    0.2319 C   0  0  0  0  0  0  0  0  0  0  0  0
   -1.8786   -0.6643    1.2344 C   0  0  0  0  0  0  0  0  0  0  0  0
   -1.6596   -0.1042    2.3344 O   0  0  0  0  0  0  0  0  0  0  0  0
   -3.0557   -0.3304    0.5311 N   0  0  0  0  0  0  0  0  0  0  0  0
   -4.0251    0.6275    1.0258 C   0  0  0  0  0  0  0  0  0  0  0  0
   -5.1767    0.8041    0.0677 C   0  0  0  0  0  0  0  0  0  0  0  0
   -4.7418    1.2727   -1.1955 O   0  0  0  0  0  0  0  0  0  0  0  0
   -5.6246    1.5055   -2.2232 C   0  0  0  0  0  0  0  0  0  0  0  0
   -6.9788    1.3156   -2.1512 C   0  0  0  0  0  0  0  0  0  0  0  0
   -7.7667    1.5890   -3.2647 C   0  0  0  0  0  0  0  0  0  0  0  0
   -7.2419    2.0459   -4.4469 C   0  0  0  0  0  0  0  0  0  0  0  0
   -5.8664    2.2366   -4.5141 C   0  0  0  0  0  0  0  0  0  0  0  0
   -5.0894    1.9656   -3.4111 C   0  0  0  0  0  0  0  0  0  0  0  0
   -1.9280   -5.0608    2.5749 H   0  0  0  0  0  0  0  0  0  0  0  0
   -0.8973   -5.4607    1.1763 H   0  0  0  0  0  0  0  0  0  0  0  0
   -2.6515   -5.9805    1.1354 H   0  0  0  0  0  0  0  0  0  0  0  0
   -2.3273   -4.0709   -0.2310 H   0  0  0  0  0  0  0  0  0  0  0  0
   -3.5249   -2.7485    2.2488 H   0  0  0  0  0  0  0  0  0  0  0  0
   -4.0783   -4.3355    1.7584 H   0  0  0  0  0  0  0  0  0  0  0  0
   -4.2455   -3.0715    0.5592 H   0  0  0  0  0  0  0  0  0  0  0  0
   -0.7812   -3.0489    2.2696 H   0  0  0  0  0  0  0  0  0  0  0  0
   -0.1496   -3.5758    0.7168 H   0  0  0  0  0  0  0  0  0  0  0  0
   -0.8865   -1.5756   -0.4099 H   0  0  0  0  0  0  0  0  0  0  0  0
    0.6083   -1.1480    2.2203 H   0  0  0  0  0  0  0  0  0  0  0  0
    2.8050   -0.3310    1.8211 H   0  0  0  0  0  0  0  0  0  0  0  0
    3.1895   -0.7303   -1.9207 H   0  0  0  0  0  0  0  0  0  0  0  0
    5.1042    0.0782   -3.1108 H   0  0  0  0  0  0  0  0  0  0  0  0
    6.8766    1.3601   -1.9465 H   0  0  0  0  0  0  0  0  0  0  0  0
    4.7108    1.0018    1.6621 H   0  0  0  0  0  0  0  0  0  0  0  0
    5.5522    2.8735    2.0229 H   0  0  0  0  0  0  0  0  0  0  0  0
    7.2374    4.1803    3.2098 H   0  0  0  0  0  0  0  0  0  0  0  0
    9.5685    4.1061    2.5313 H   0  0  0  0  0  0  0  0  0  0  0  0
   10.2387    2.6618    0.5836 H   0  0  0  0  0  0  0  0  0  0  0  0
    8.5775    1.3725   -0.5856 H   0  0  0  0  0  0  0  0  0  0  0  0
   -3.2454   -0.7847   -0.3828 H   0  0  0  0  0  0  0  0  0  0  0  0
   -3.5686    1.6018    1.2862 H   0  0  0  0  0  0  0  0  0  0  0  0
   -4.4455    0.2089    1.9671 H   0  0  0  0  0  0  0  0  0  0  0  0
   -5.7072   -0.1468   -0.1078 H   0  0  0  0  0  0  0  0  0  0  0  0
   -5.9226    1.5318    0.4447 H   0  0  0  0  0  0  0  0  0  0  0  0
   -7.4143    0.9618   -1.2467 H   0  0  0  0  0  0  0  0  0  0  0  0
   -8.8519    1.4339   -3.1980 H   0  0  0  0  0  0  0  0  0  0  0  0
   -7.8361    2.2661   -5.3271 H   0  0  0  0  0  0  0  0  0  0  0  0
   -5.4196    2.5966   -5.4325 H   0  0  0  0  0  0  0  0  0  0  0  0
   -4.0258    2.1332   -3.5224 H   0  0  0  0  0  0  0  0  0  0  0  0
  1  2  1  0
  2  3  1  0
  2  4  1  0
  4  5  1  0
  5  6  1  0
  6  7  1  0
  7  8  2  0
  7  9  1  0
  9 10  1  0
 10 11  2  0
 11 12  1  0
 12 13  2  0
 13 14  1  0
 14 15  2  0
 14 16  1  0
 16 17  2  0
 17 18  1  0
 18 19  2  0
 19 20  1  0
 20 21  2  0
  5 22  1  0
 22 23  2  0
 22 24  1  0
 24 25  1  0
 25 26  1  0
 26 27  1  0
 27 28  1  0
 28 29  2  0
 29 30  1  0
 30 31  2  0
 31 32  1  0
 32 33  2  0
 15 10  1  0
 21 16  1  0
 33 28  1  0
  1 34  1  0
  1 35  1  0
  1 36  1  0
  2 37  1  0
  3 38  1  0
  3 39  1  0
  3 40  1  0
  4 41  1  0
  4 42  1  0
  5 43  1  6
  6 44  1  0
  9 45  1  0
 11 46  1  0
 12 47  1  0
 13 48  1  0
 15 49  1  0
 17 50  1  0
 18 51  1  0
 19 52  1  0
 20 53  1  0
 21 54  1  0
 24 55  1  0
 25 56  1  0
 25 57  1  0
 26 58  1  0
 26 59  1  0
 29 60  1  0
 30 61  1  0
 31 62  1  0
 32 63  1  0
 33 64  1  0
M  END
$$$$
[H]C1=C(c2c([H])c3c([H])c([H])c([H])c([H])c3n2[H])C([H])([H])C([H])([H])C([H])([H])[C@@]1([H])O[C@@]1([H])c2c([H])c([H])c([H])c([H])c2O[C@@]([H])(C([H])([H])[H])C1([H])[H]
     RDKit          3D

 52 56  0  0  0  0  0  0  0  0999 V2000
   -1.7875    2.3311   -2.0034 C   0  0  0  0  0  0  0  0  0  0  0  0
   -2.9047    1.3193   -1.8065 C   0  0  1  0  0  0  0  0  0  0  0  0
   -2.4522   -0.0589   -2.1612 C   0  0  0  0  0  0  0  0  0  0  0  0
   -2.4276   -1.0123   -1.0115 C   0  0  1  0  0  0  0  0  0  0  0  0
   -1.4113   -0.6656   -0.1299 O   0  0  0  0  0  0  0  0  0  0  0  0
   -0.4934   -1.6932    0.0394 C   0  0  2  0  0  0  0  0  0  0  0  0
   -0.4119   -2.1524    1.4999 C   0  0  0  0  0  0  0  0  0  0  0  0
   -0.1889   -0.9197    2.3153 C   0  0  0  0  0  0  0  0  0  0  0  0
    0.8753   -0.0141    1.8113 C   0  0  0  0  0  0  0  0  0  0  0  0
    1.4835   -0.4002    0.5221 C   0  0  0  0  0  0  0  0  0  0  0  0
    0.8454   -1.1865   -0.3111 C   0  0  0  0  0  0  0  0  0  0  0  0
    2.8351    0.1204    0.1874 C   0  0  0  0  0  0  0  0  0  0  0  0
    3.5521   -0.1326   -0.9621 C   0  0  0  0  0  0  0  0  0  0  0  0
    4.7619    0.5413   -0.8810 C   0  0  0  0  0  0  0  0  0  0  0  0
    5.8506    0.6395   -1.7431 C   0  0  0  0  0  0  0  0  0  0  0  0
    6.9262    1.4033   -1.3698 C   0  0  0  0  0  0  0  0  0  0  0  0
    6.9231    2.0633   -0.1544 C   0  0  0  0  0  0  0  0  0  0  0  0
    5.8462    1.9649    0.6959 C   0  0  0  0  0  0  0  0  0  0  0  0
    4.7537    1.2051    0.3461 C   0  0  0  0  0  0  0  0  0  0  0  0
    3.5919    0.9230    0.9380 N   0  0  0  0  0  0  0  0  0  0  0  0
   -3.4277    1.3791   -0.5028 O   0  0  0  0  0  0  0  0  0  0  0  0
   -4.1911    0.3467   -0.0127 C   0  0  0  0  0  0  0  0  0  0  0  0
   -5.3672    0.4404    0.6814 C   0  0  0  0  0  0  0  0  0  0  0  0
   -6.0565   -0.6800    1.1318 C   0  0  0  0  0  0  0  0  0  0  0  0
   -5.5769   -1.9477    0.8940 C   0  0  0  0  0  0  0  0  0  0  0  0
   -4.3882   -2.0635    0.1932 C   0  0  0  0  0  0  0  0  0  0  0  0
   -3.7135   -0.9530   -0.2481 C   0  0  0  0  0  0  0  0  0  0  0  0
   -2.2749    3.3352   -2.0383 H   0  0  0  0  0  0  0  0  0  0  0  0
   -1.3418    2.1468   -2.9927 H   0  0  0  0  0  0  0  0  0  0  0  0
   -1.0708    2.2767   -1.1644 H   0  0  0  0  0  0  0  0  0  0  0  0
   -3.7316    1.5894   -2.5313 H   0  0  0  0  0  0  0  0  0  0  0  0
   -3.0594   -0.4688   -3.0240 H   0  0  0  0  0  0  0  0  0  0  0  0
   -1.4121    0.0452   -2.6040 H   0  0  0  0  0  0  0  0  0  0  0  0
   -2.2269   -2.0425   -1.3524 H   0  0  0  0  0  0  0  0  0  0  0  0
   -0.7833   -2.5822   -0.5784 H   0  0  0  0  0  0  0  0  0  0  0  0
   -1.3325   -2.6592    1.8096 H   0  0  0  0  0  0  0  0  0  0  0  0
    0.4783   -2.7990    1.5927 H   0  0  0  0  0  0  0  0  0  0  0  0
   -1.1520   -0.3262    2.2910 H   0  0  0  0  0  0  0  0  0  0  0  0
   -0.0428   -1.1659    3.4090 H   0  0  0  0  0  0  0  0  0  0  0  0
    1.6833    0.0239    2.5986 H   0  0  0  0  0  0  0  0  0  0  0  0
    0.5378    1.0467    1.7071 H   0  0  0  0  0  0  0  0  0  0  0  0
    1.2999   -1.4564   -1.2410 H   0  0  0  0  0  0  0  0  0  0  0  0
    3.2125   -0.7626   -1.7945 H   0  0  0  0  0  0  0  0  0  0  0  0
    5.8170    0.1035   -2.6954 H   0  0  0  0  0  0  0  0  0  0  0  0
    7.7857    1.4823   -2.0471 H   0  0  0  0  0  0  0  0  0  0  0  0
    7.7836    2.6606    0.1189 H   0  0  0  0  0  0  0  0  0  0  0  0
    5.8849    2.4945    1.6319 H   0  0  0  0  0  0  0  0  0  0  0  0
    3.2959    1.2845    1.8852 H   0  0  0  0  0  0  0  0  0  0  0  0
   -5.7544    1.4490    0.8759 H   0  0  0  0  0  0  0  0  0  0  0  0
   -6.9724   -0.5619    1.6707 H   0  0  0  0  0  0  0  0  0  0  0  0
   -6.0867   -2.8445    1.2292 H   0  0  0  0  0  0  0  0  0  0  0  0
   -3.9839   -3.0668   -0.0093 H   0  0  0  0  0  0  0  0  0  0  0  0
  1  2  1  0
  2  3  1  0
  3  4  1  0
  4  5  1  0
  5  6  1  0
  6  7  1  0
  7  8  1  0
  8  9  1  0
  9 10  1  0
 10 11  2  0
 10 12  1  0
 12 13  2  0
 13 14  1  0
 14 15  2  0
 15 16  1  0
 16 17  2  0
 17 18  1  0
 18 19  2  0
 19 20  1  0
  2 21  1  0
 21 22  1  0
 22 23  2  0
 23 24  1  0
 24 25  2  0
 25 26  1  0
 26 27  2  0
 27  4  1  0
 11  6  1  0
 20 12  1  0
 27 22  1  0
 19 14  1  0
  1 28  1  0
  1 29  1  0
  1 30  1  0
  2 31  1  6
  3 32  1  0
  3 33  1  0
  4 34  1  6
  6 35  1  6
  7 36  1  0
  7 37  1  0
  8 38  1  0
  8 39  1  0
  9 40  1  0
  9 41  1  0
 11 42  1  0
 13 43  1  0
 15 44  1  0
 16 45  1  0
 17 46  1  0
 18 47  1  0
 20 48  1  0
 23 49  1  0
 24 50  1  0
 25 51  1  0
 26 52  1  0
M  END
$$$$
[H]c1nc([H])c([H])c(N2C([H])([H])C([H])([H])N(S(=O)(=O)c3c([H])c([H])c(Cl)c(Cl)c3[H])C([H])([H])C2([H])[H])c1[H]
     RDKit          3D

 38 40  0  0  0  0  0  0  0  0999 V2000
    6.6646    1.1592    2.8570 Cl  0  0  0  0  0  0  0  0  0  0  0  0
    5.4028    0.7390    1.6954 C   0  0  0  0  0  0  0  0  0  0  0  0
    4.9736    1.6517    0.7576 C   0  0  0  0  0  0  0  0  0  0  0  0
    3.9830    1.3107   -0.1486 C   0  0  0  0  0  0  0  0  0  0  0  0
    3.3946    0.0741   -0.1552 C   0  0  0  0  0  0  0  0  0  0  0  0
    3.8145   -0.8476    0.7772 C   0  0  0  0  0  0  0  0  0  0  0  0
    4.8137   -0.5065    1.6927 C   0  0  0  0  0  0  0  0  0  0  0  0
    5.3417   -1.6928    2.8789 Cl  0  0  0  0  0  0  0  0  0  0  0  0
    2.1537   -0.3807   -1.2764 S   0  0  0  0  0  0  0  0  0  0  0  0
    2.3182   -1.8238   -1.6545 O   0  0  0  0  0  0  0  0  0  0  0  0
    2.3609    0.4283   -2.5387 O   0  0  0  0  0  0  0  0  0  0  0  0
    0.5741   -0.0403   -0.7043 N   0  0  0  0  0  0  0  0  0  0  0  0
    0.2505   -0.7537    0.5033 C   0  0  0  0  0  0  0  0  0  0  0  0
   -1.2005   -0.9369    0.7708 C   0  0  0  0  0  0  0  0  0  0  0  0
   -2.0878   -0.2099   -0.1104 N   0  0  0  0  0  0  0  0  0  0  0  0
   -1.6519    0.2107   -1.4512 C   0  0  0  0  0  0  0  0  0  0  0  0
   -0.3605   -0.5342   -1.7235 C   0  0  0  0  0  0  0  0  0  0  0  0
   -3.4121    0.1191    0.2869 C   0  0  0  0  0  0  0  0  0  0  0  0
   -4.2197    0.8698   -0.5367 C   0  0  0  0  0  0  0  0  0  0  0  0
   -5.5274    1.2074   -0.1757 C   0  0  0  0  0  0  0  0  0  0  0  0
   -6.0252    0.8042    0.9884 N   0  0  0  0  0  0  0  0  0  0  0  0
   -5.2628    0.0731    1.8090 C   0  0  0  0  0  0  0  0  0  0  0  0
   -3.9555   -0.2821    1.4821 C   0  0  0  0  0  0  0  0  0  0  0  0
    5.4213    2.6281    0.7444 H   0  0  0  0  0  0  0  0  0  0  0  0
    3.6562    2.0424   -0.8816 H   0  0  0  0  0  0  0  0  0  0  0  0
    3.4184   -1.8490    0.8595 H   0  0  0  0  0  0  0  0  0  0  0  0
    0.6919   -1.7865    0.3765 H   0  0  0  0  0  0  0  0  0  0  0  0
    0.7966   -0.3376    1.3890 H   0  0  0  0  0  0  0  0  0  0  0  0
   -1.4078   -0.5310    1.8057 H   0  0  0  0  0  0  0  0  0  0  0  0
   -1.5064   -2.0145    0.8348 H   0  0  0  0  0  0  0  0  0  0  0  0
   -1.4039    1.2938   -1.4295 H   0  0  0  0  0  0  0  0  0  0  0  0
   -2.4253   -0.0379   -2.2059 H   0  0  0  0  0  0  0  0  0  0  0  0
    0.0311   -0.3558   -2.7390 H   0  0  0  0  0  0  0  0  0  0  0  0
   -0.5700   -1.6108   -1.5180 H   0  0  0  0  0  0  0  0  0  0  0  0
   -3.8556    1.2186   -1.4908 H   0  0  0  0  0  0  0  0  0  0  0  0
   -6.1031    1.8010   -0.8756 H   0  0  0  0  0  0  0  0  0  0  0  0
   -5.7120   -0.2351    2.7520 H   0  0  0  0  0  0  0  0  0  0  0  0
   -3.3735   -0.8647    2.1534 H   0  0  0  0  0  0  0  0  0  0  0  0
  1  2  1  0
  2  3  2  0
  3  4  1  0
  4  5  2  0
  5  6  1  0
  6  7  2  0
  7  8  1  0
  5  9  1  0
  9 10  2  0
  9 11  2  0
  9 12  1  0
 12 13  1  0
 13 14  1  0
 14 15  1  0
 15 16  1  0
 16 17  1  0
 15 18  1  0
 18 19  2  0
 19 20  1  0
 20 21  2  0
 21 22  1  0
 22 23  2  0
  7  2  1  0
 17 12  1  0
 23 18  1  0
  3 24  1  0
  4 25  1  0
  6 26  1  0
 13 27  1  0
 13 28  1  0
 14 29  1  0
 14 30  1  0
 16 31  1  0
 16 32  1  0
 17 33  1  0
 17 34  1  0
 19 35  1  0
 20 36  1  0
 22 37  1  0
 23 38  1  0
M  END
$$$$
[H]c1c([H])c([H])c(C([H])([H])C([H])([H])[H])c(N([H])c2nc(N([H])c3c([H])c([H])c(C(=O)N([H])c4c([H])c([H])c([H])c(C([H])([H])N([H])C([H])([H])C(F)(F)F)c4[H])c([H])c3[H])nc(N3C([H])([H])C([H])([H])N(C(=O)OC(C([H])([H])[H])(C([H])([H])[H])C([H])([H])[H])C([H])([H])C3([H])[H])n2)c1[H]
     RDKit          3D

 93 97  0  0  0  0  0  0  0  0999 V2000
    0.7636    5.6219   -0.0634 C   0  0  0  0  0  0  0  0  0  0  0  0
   -0.0905    5.5063   -1.2853 C   0  0  0  0  0  0  0  0  0  0  0  0
   -1.5296    5.4598   -1.0276 C   0  0  0  0  0  0  0  0  0  0  0  0
   -2.3006    6.5675   -1.2412 C   0  0  0  0  0  0  0  0  0  0  0  0
   -3.6578    6.5876   -1.0199 C   0  0  0  0  0  0  0  0  0  0  0  0
   -4.2725    5.4600   -0.5678 C   0  0  0  0  0  0  0  0  0  0  0  0
   -3.4980    4.3177   -0.3442 C   0  0  0  0  0  0  0  0  0  0  0  0
   -2.1440    4.2965   -0.5646 C   0  0  0  0  0  0  0  0  0  0  0  0
   -1.3779    3.1499   -0.3326 N   0  0  0  0  0  0  0  0  0  0  0  0
   -1.7627    1.8594    0.0923 C   0  0  0  0  0  0  0  0  0  0  0  0
   -0.7581    0.9405    0.2362 N   0  0  0  0  0  0  0  0  0  0  0  0
   -0.9943   -0.2939    0.6188 C   0  0  0  0  0  0  0  0  0  0  0  0
   -0.0281   -1.2677    0.7882 N   0  0  0  0  0  0  0  0  0  0  0  0
    1.3649   -1.0900    0.5645 C   0  0  0  0  0  0  0  0  0  0  0  0
    2.2570   -1.9403    1.2405 C   0  0  0  0  0  0  0  0  0  0  0  0
    3.5899   -1.8224    1.0427 C   0  0  0  0  0  0  0  0  0  0  0  0
    4.1393   -0.8822    0.1858 C   0  0  0  0  0  0  0  0  0  0  0  0
    3.2501   -0.0701   -0.4583 C   0  0  0  0  0  0  0  0  0  0  0  0
    1.8626   -0.1495   -0.2911 C   0  0  0  0  0  0  0  0  0  0  0  0
    5.6096   -0.7916   -0.0028 C   0  0  0  0  0  0  0  0  0  0  0  0
    6.2308   -1.8315    0.2105 O   0  0  0  0  0  0  0  0  0  0  0  0
    6.1208    0.4360   -0.3926 N   0  0  0  0  0  0  0  0  0  0  0  0
    7.4812    0.7290   -0.6190 C   0  0  0  0  0  0  0  0  0  0  0  0
    7.8390    1.9442   -1.2309 C   0  0  0  0  0  0  0  0  0  0  0  0
    9.1515    2.2319   -1.4323 C   0  0  0  0  0  0  0  0  0  0  0  0
   10.1469    1.3733   -1.0578 C   0  0  0  0  0  0  0  0  0  0  0  0
    9.8239    0.1839   -0.4601 C   0  0  0  0  0  0  0  0  0  0  0  0
   10.8602   -0.7990   -0.0348 C   0  0  0  0  0  0  0  0  0  0  0  0
   10.2459   -1.7876    0.7906 N   0  0  0  0  0  0  0  0  0  0  0  0
   11.0226   -2.8647    1.2581 C   0  0  0  0  0  0  0  0  0  0  0  0
   12.0663   -2.5322    2.2610 C   0  0  0  0  0  0  0  0  0  0  0  0
   12.7466   -3.7127    2.6511 F   0  0  0  0  0  0  0  0  0  0  0  0
   11.5451   -1.9946    3.4168 F   0  0  0  0  0  0  0  0  0  0  0  0
   12.9903   -1.6685    1.6966 F   0  0  0  0  0  0  0  0  0  0  0  0
    8.4853   -0.1291   -0.2448 C   0  0  0  0  0  0  0  0  0  0  0  0
   -2.2858   -0.6417    0.8731 N   0  0  0  0  0  0  0  0  0  0  0  0
   -3.3166    0.2036    0.7537 C   0  0  0  0  0  0  0  0  0  0  0  0
   -4.6610   -0.1870    1.0370 N   0  0  0  0  0  0  0  0  0  0  0  0
   -5.7817    0.6677    0.7504 C   0  0  0  0  0  0  0  0  0  0  0  0
   -7.0324   -0.0538    0.4666 C   0  0  0  0  0  0  0  0  0  0  0  0
   -6.9915   -1.4790    0.3884 N   0  0  0  0  0  0  0  0  0  0  0  0
   -5.8808   -2.2918    0.8413 C   0  0  0  0  0  0  0  0  0  0  0  0
   -4.8915   -1.4731    1.6381 C   0  0  0  0  0  0  0  0  0  0  0  0
   -8.1060   -2.1678   -0.1639 C   0  0  0  0  0  0  0  0  0  0  0  0
   -9.0923   -1.5297   -0.5721 O   0  0  0  0  0  0  0  0  0  0  0  0
   -8.1287   -3.5445   -0.2624 O   0  0  0  0  0  0  0  0  0  0  0  0
   -9.1734   -4.3120   -0.7861 C   0  0  0  0  0  0  0  0  0  0  0  0
   -9.5102   -4.0248   -2.2119 C   0  0  0  0  0  0  0  0  0  0  0  0
   -8.7863   -5.7816   -0.5784 C   0  0  0  0  0  0  0  0  0  0  0  0
  -10.4276   -4.0987    0.0621 C   0  0  0  0  0  0  0  0  0  0  0  0
   -3.0081    1.4508    0.3585 N   0  0  0  0  0  0  0  0  0  0  0  0
    0.3531    5.1384    0.8371 H   0  0  0  0  0  0  0  0  0  0  0  0
    1.7507    5.1306   -0.3013 H   0  0  0  0  0  0  0  0  0  0  0  0
    1.0291    6.6888    0.1170 H   0  0  0  0  0  0  0  0  0  0  0  0
    0.1418    6.4308   -1.9061 H   0  0  0  0  0  0  0  0  0  0  0  0
    0.2119    4.6031   -1.8889 H   0  0  0  0  0  0  0  0  0  0  0  0
   -1.8260    7.4754   -1.6021 H   0  0  0  0  0  0  0  0  0  0  0  0
   -4.2487    7.4893   -1.1997 H   0  0  0  0  0  0  0  0  0  0  0  0
   -5.3555    5.4556   -0.3846 H   0  0  0  0  0  0  0  0  0  0  0  0
   -4.0729    3.4754    0.0150 H   0  0  0  0  0  0  0  0  0  0  0  0
   -0.3242    3.2803   -0.5099 H   0  0  0  0  0  0  0  0  0  0  0  0
   -0.3365   -2.2313    1.1083 H   0  0  0  0  0  0  0  0  0  0  0  0
    1.8031   -2.6718    1.9110 H   0  0  0  0  0  0  0  0  0  0  0  0
    4.2722   -2.4873    1.5731 H   0  0  0  0  0  0  0  0  0  0  0  0
    3.6509    0.6874   -1.1509 H   0  0  0  0  0  0  0  0  0  0  0  0
    1.2714    0.5313   -0.8693 H   0  0  0  0  0  0  0  0  0  0  0  0
    5.4696    1.2762   -0.5436 H   0  0  0  0  0  0  0  0  0  0  0  0
    7.0718    2.6177   -1.5254 H   0  0  0  0  0  0  0  0  0  0  0  0
    9.4799    3.1654   -1.9034 H   0  0  0  0  0  0  0  0  0  0  0  0
   11.2079    1.5910   -1.2130 H   0  0  0  0  0  0  0  0  0  0  0  0
   11.6117   -0.1581    0.5204 H   0  0  0  0  0  0  0  0  0  0  0  0
   11.3641   -1.2378   -0.9276 H   0  0  0  0  0  0  0  0  0  0  0  0
    9.7386   -1.3761    1.6133 H   0  0  0  0  0  0  0  0  0  0  0  0
   10.3023   -3.5818    1.7697 H   0  0  0  0  0  0  0  0  0  0  0  0
   11.4285   -3.4792    0.4107 H   0  0  0  0  0  0  0  0  0  0  0  0
    8.3004   -1.0765    0.2360 H   0  0  0  0  0  0  0  0  0  0  0  0
   -5.9570    1.4053    1.5798 H   0  0  0  0  0  0  0  0  0  0  0  0
   -5.4598    1.2580   -0.1695 H   0  0  0  0  0  0  0  0  0  0  0  0
   -7.4208    0.2872   -0.5472 H   0  0  0  0  0  0  0  0  0  0  0  0
   -7.8419    0.3031    1.1721 H   0  0  0  0  0  0  0  0  0  0  0  0
   -6.2009   -3.1825    1.4158 H   0  0  0  0  0  0  0  0  0  0  0  0
   -5.3537   -2.6578   -0.0628 H   0  0  0  0  0  0  0  0  0  0  0  0
   -3.9323   -2.0152    1.7345 H   0  0  0  0  0  0  0  0  0  0  0  0
   -5.3192   -1.3434    2.6660 H   0  0  0  0  0  0  0  0  0  0  0  0
  -10.4601   -3.4699   -2.3401 H   0  0  0  0  0  0  0  0  0  0  0  0
   -8.7176   -3.4447   -2.7332 H   0  0  0  0  0  0  0  0  0  0  0  0
   -9.6623   -5.0050   -2.7264 H   0  0  0  0  0  0  0  0  0  0  0  0
   -8.4444   -5.9066    0.4713 H   0  0  0  0  0  0  0  0  0  0  0  0
   -9.5953   -6.4608   -0.8669 H   0  0  0  0  0  0  0  0  0  0  0  0
   -7.8966   -6.0076   -1.2221 H   0  0  0  0  0  0  0  0  0  0  0  0
  -10.0909   -3.9795    1.1137 H   0  0  0  0  0  0  0  0  0  0  0  0
  -11.0160   -5.0439    0.0084 H   0  0  0  0  0  0  0  0  0  0  0  0
  -11.0318   -3.2482   -0.3041 H   0  0  0  0  0  0  0  0  0  0  0  0
  1  2  1  0
  2  3  1  0
  3  4  2  0
  4  5  1  0
  5  6  2  0
  6  7  1  0
  7  8  2  0
  8  9  1  0
  9 10  1  0
 10 11  2  0
 11 12  1  0
 12 13  1  0
 13 14  1  0
 14 15  2  0
 15 16  1  0
 16 17  2  0
 17 18  1  0
 18 19  2  0
 17 20  1  0
 20 21  2  0
 20 22  1  0
 22 23  1  0
 23 24  2  0
 24 25  1  0
 25 26  2  0
 26 27  1  0
 27 28  1  0
 28 29  1  0
 29 30  1  0
 30 31  1  0
 31 32  1  0
 31 33  1  0
 31 34  1  0
 27 35  2  0
 12 36  2  0
 36 37  1  0
 37 38  1  0
 38 39  1  0
 39 40  1  0
 40 41  1  0
 41 42  1  0
 42 43  1  0
 41 44  1  0
 44 45  2  0
 44 46  1  0
 46 47  1  0
 47 48  1  0
 47 49  1  0
 47 50  1  0
 37 51  2  0
  8  3  1  0
 51 10  1  0
 19 14  1  0
 35 23  1  0
 43 38  1  0
  1 52  1  0
  1 53  1  0
  1 54  1  0
  2 55  1  0
  2 56  1  0
  4 57  1  0
  5 58  1  0
  6 59  1  0
  7 60  1  0
  9 61  1  0
 13 62  1  0
 15 63  1  0
 16 64  1  0
 18 65  1  0
 19 66  1  0
 22 67  1  0
 24 68  1  0
 25 69  1  0
 26 70  1  0
 28 71  1  0
 28 72  1  0
 29 73  1  0
 30 74  1  0
 30 75  1  0
 35 76  1  0
 39 77  1  0
 39 78  1  0
 40 79  1  0
 40 80  1  0
 42 81  1  0
 42 82  1  0
 43 83  1  0
 43 84  1  0
 48 85  1  0
 48 86  1  0
 48 87  1  0
 49 88  1  0
 49 89  1  0
 49 90  1  0
 50 91  1  0
 50 92  1  0
 50 93  1  0
M  END
$$$$
[H]c1sc([H])c(N([H])C(=O)N2C([H])([H])C([H])([H])N(C3([H])C([H])([H])C([H])([H])N(C(=O)c4sc5c([H])c([H])c([H])c([H])c5c4C([H])([H])[H])C([H])([H])C3([H])[H])C([H])([H])C2([H])[H])c1[H]
     RDKit          3D

 60 64  0  0  0  0  0  0  0  0999 V2000
   -6.3663    1.0534   -1.4445 C   0  0  0  0  0  0  0  0  0  0  0  0
   -5.8196    0.5729   -0.1049 C   0  0  0  0  0  0  0  0  0  0  0  0
   -4.5867   -0.0141   -0.0708 C   0  0  0  0  0  0  0  0  0  0  0  0
   -4.3869   -0.3851    1.5906 S   0  0  0  0  0  0  0  0  0  0  0  0
   -5.8606    0.2099    2.1903 C   0  0  0  0  0  0  0  0  0  0  0  0
   -6.4488    0.2741    3.4686 C   0  0  0  0  0  0  0  0  0  0  0  0
   -7.6901    0.8296    3.6459 C   0  0  0  0  0  0  0  0  0  0  0  0
   -8.3098    1.3103    2.5140 C   0  0  0  0  0  0  0  0  0  0  0  0
   -7.7578    1.2554    1.2822 C   0  0  0  0  0  0  0  0  0  0  0  0
   -6.4794    0.6877    1.0733 C   0  0  0  0  0  0  0  0  0  0  0  0
   -3.6611   -0.2666   -1.1850 C   0  0  0  0  0  0  0  0  0  0  0  0
   -4.0242    0.0940   -2.3324 O   0  0  0  0  0  0  0  0  0  0  0  0
   -2.4010   -0.8873   -1.0249 N   0  0  0  0  0  0  0  0  0  0  0  0
   -1.5901   -1.0753   -2.2195 C   0  0  0  0  0  0  0  0  0  0  0  0
   -0.1401   -0.6967   -2.0146 C   0  0  0  0  0  0  0  0  0  0  0  0
    0.2289   -0.6660   -0.5654 C   0  0  0  0  0  0  0  0  0  0  0  0
   -0.5134   -1.8240    0.0903 C   0  0  0  0  0  0  0  0  0  0  0  0
   -1.9594   -1.3098    0.2731 C   0  0  0  0  0  0  0  0  0  0  0  0
    1.6343   -0.6855   -0.3301 N   0  0  0  0  0  0  0  0  0  0  0  0
    2.3353   -1.8472   -0.7675 C   0  0  0  0  0  0  0  0  0  0  0  0
    3.7649   -1.5919   -1.1966 C   0  0  0  0  0  0  0  0  0  0  0  0
    4.3636   -0.4555   -0.5872 N   0  0  0  0  0  0  0  0  0  0  0  0
    3.5820    0.6980   -0.2487 C   0  0  0  0  0  0  0  0  0  0  0  0
    2.2189    0.4963   -0.9228 C   0  0  0  0  0  0  0  0  0  0  0  0
    5.7786   -0.4509   -0.3012 C   0  0  0  0  0  0  0  0  0  0  0  0
    6.4677   -1.4508   -0.5931 O   0  0  0  0  0  0  0  0  0  0  0  0
    6.3694    0.6718    0.3003 N   0  0  0  0  0  0  0  0  0  0  0  0
    7.7922    0.6802    0.5761 C   0  0  0  0  0  0  0  0  0  0  0  0
    8.2916    1.4077    1.6014 C   0  0  0  0  0  0  0  0  0  0  0  0
    9.6398    1.4002    1.7878 C   0  0  0  0  0  0  0  0  0  0  0  0
   10.1977    0.3873    0.5424 S   0  0  0  0  0  0  0  0  0  0  0  0
    8.6941   -0.0010   -0.1860 C   0  0  0  0  0  0  0  0  0  0  0  0
   -7.3354    1.5747   -1.3055 H   0  0  0  0  0  0  0  0  0  0  0  0
   -6.4335    0.2531   -2.1750 H   0  0  0  0  0  0  0  0  0  0  0  0
   -5.6433    1.8142   -1.7927 H   0  0  0  0  0  0  0  0  0  0  0  0
   -5.8540   -0.1388    4.2637 H   0  0  0  0  0  0  0  0  0  0  0  0
   -8.1349    0.8771    4.6186 H   0  0  0  0  0  0  0  0  0  0  0  0
   -9.3060    1.7666    2.5939 H   0  0  0  0  0  0  0  0  0  0  0  0
   -8.3383    1.6667    0.4563 H   0  0  0  0  0  0  0  0  0  0  0  0
   -1.6990   -2.1069   -2.5932 H   0  0  0  0  0  0  0  0  0  0  0  0
   -1.9827   -0.3960   -2.9993 H   0  0  0  0  0  0  0  0  0  0  0  0
    0.0854    0.3151   -2.4635 H   0  0  0  0  0  0  0  0  0  0  0  0
    0.4519   -1.4078   -2.6248 H   0  0  0  0  0  0  0  0  0  0  0  0
   -0.1773    0.2704   -0.1232 H   0  0  0  0  0  0  0  0  0  0  0  0
   -0.5167   -2.6505   -0.6356 H   0  0  0  0  0  0  0  0  0  0  0  0
   -0.0529   -2.0808    1.0545 H   0  0  0  0  0  0  0  0  0  0  0  0
   -2.5757   -2.1045    0.7283 H   0  0  0  0  0  0  0  0  0  0  0  0
   -1.8337   -0.4105    0.9070 H   0  0  0  0  0  0  0  0  0  0  0  0
    1.8100   -2.4408   -1.5376 H   0  0  0  0  0  0  0  0  0  0  0  0
    2.4117   -2.5254    0.1354 H   0  0  0  0  0  0  0  0  0  0  0  0
    3.8016   -1.5298   -2.3239 H   0  0  0  0  0  0  0  0  0  0  0  0
    4.3734   -2.4955   -0.9508 H   0  0  0  0  0  0  0  0  0  0  0  0
    4.0295    1.6541   -0.5842 H   0  0  0  0  0  0  0  0  0  0  0  0
    3.3793    0.6695    0.8451 H   0  0  0  0  0  0  0  0  0  0  0  0
    2.3922    0.3187   -1.9904 H   0  0  0  0  0  0  0  0  0  0  0  0
    1.6168    1.3773   -0.6923 H   0  0  0  0  0  0  0  0  0  0  0  0
    5.7773    1.5071    0.5472 H   0  0  0  0  0  0  0  0  0  0  0  0
    7.6544    2.0069    2.2950 H   0  0  0  0  0  0  0  0  0  0  0  0
   10.1993    1.9420    2.5787 H   0  0  0  0  0  0  0  0  0  0  0  0
    8.5369   -0.6418   -1.0727 H   0  0  0  0  0  0  0  0  0  0  0  0
  1  2  1  0
  2  3  2  0
  3  4  1  0
  4  5  1  0
  5  6  2  0
  6  7  1  0
  7  8  2  0
  8  9  1  0
  9 10  2  0
  3 11  1  0
 11 12  2  0
 11 13  1  0
 13 14  1  0
 14 15  1  0
 15 16  1  0
 16 17  1  0
 17 18  1  0
 16 19  1  0
 19 20  1  0
 20 21  1  0
 21 22  1  0
 22 23  1  0
 23 24  1  0
 22 25  1  0
 25 26  2  0
 25 27  1  0
 27 28  1  0
 28 29  1  0
 29 30  2  0
 30 31  1  0
 31 32  1  0
 10  2  1  0
 18 13  1  0
 24 19  1  0
 32 28  2  0
 10  5  1  0
  1 33  1  0
  1 34  1  0
  1 35  1  0
  6 36  1  0
  7 37  1  0
  8 38  1  0
  9 39  1  0
 14 40  1  0
 14 41  1  0
 15 42  1  0
 15 43  1  0
 16 44  1  0
 17 45  1  0
 17 46  1  0
 18 47  1  0
 18 48  1  0
 20 49  1  0
 20 50  1  0
 21 51  1  0
 21 52  1  0
 23 53  1  0
 23 54  1  0
 24 55  1  0
 24 56  1  0
 27 57  1  0
 29 58  1  0
 30 59  1  0
 32 60  1  0
M  END
$$$$
[H]c1c([H])c(Cl)c([H])c(N2C([H])([H])C([H])([H])N(C([H])([H])c3c([H])c([H])c4c(c3[H])C(C([H])([H])OC([H])([H])C([H])([H])OC([H])([H])[H])=NC(=O)C([H])(N([H])[H])OC([H])([H])C([H])([H])C4([H])[H])C([H])([H])C2([H])[H])c1[H]
     RDKit          3D

 71 74  0  0  0  0  0  0  0  0999 V2000
   -5.0142    4.9022    1.1455 C   0  0  0  0  0  0  0  0  0  0  0  0
   -4.8370    4.7545   -0.2021 O   0  0  0  0  0  0  0  0  0  0  0  0
   -4.3361    3.5170   -0.5953 C   0  0  0  0  0  0  0  0  0  0  0  0
   -5.2336    2.3718   -0.2054 C   0  0  0  0  0  0  0  0  0  0  0  0
   -4.7895    1.1269   -0.5855 O   0  0  0  0  0  0  0  0  0  0  0  0
   -3.5867    0.8546   -0.0229 C   0  0  0  0  0  0  0  0  0  0  0  0
   -3.0585   -0.5449   -0.3693 C   0  0  0  0  0  0  0  0  0  0  0  0
   -3.8087   -1.1957   -1.1388 N   0  0  0  0  0  0  0  0  0  0  0  0
   -3.9417   -2.3803   -1.7876 C   0  0  0  0  0  0  0  0  0  0  0  0
   -3.3452   -2.8214   -2.8362 O   0  0  0  0  0  0  0  0  0  0  0  0
   -4.9332   -3.3591   -1.2233 C   0  0  0  0  0  0  0  0  0  0  0  0
   -6.2262   -2.7185   -1.0272 N   0  0  0  0  0  0  0  0  0  0  0  0
   -4.4736   -3.8908   -0.0247 O   0  0  0  0  0  0  0  0  0  0  0  0
   -4.8191   -3.1523    1.0775 C   0  0  0  0  0  0  0  0  0  0  0  0
   -3.5591   -2.7660    1.7977 C   0  0  0  0  0  0  0  0  0  0  0  0
   -2.2982   -3.2576    1.1428 C   0  0  0  0  0  0  0  0  0  0  0  0
   -1.4193   -2.0865    0.8578 C   0  0  0  0  0  0  0  0  0  0  0  0
   -0.1113   -2.2468    1.3455 C   0  0  0  0  0  0  0  0  0  0  0  0
    0.8624   -1.2753    1.2141 C   0  0  0  0  0  0  0  0  0  0  0  0
    0.5160   -0.1144    0.5781 C   0  0  0  0  0  0  0  0  0  0  0  0
    1.5580    0.9294    0.4357 C   0  0  0  0  0  0  0  0  0  0  0  0
    2.8738    0.4132    0.5341 N   0  0  0  0  0  0  0  0  0  0  0  0
    3.2643   -0.5430   -0.4533 C   0  0  0  0  0  0  0  0  0  0  0  0
    4.2033    0.0345   -1.4886 C   0  0  0  0  0  0  0  0  0  0  0  0
    5.2338    0.8392   -0.8997 N   0  0  0  0  0  0  0  0  0  0  0  0
    4.7912    1.8918   -0.0074 C   0  0  0  0  0  0  0  0  0  0  0  0
    3.8875    1.2568    1.0268 C   0  0  0  0  0  0  0  0  0  0  0  0
    6.6003    0.6060   -1.1655 C   0  0  0  0  0  0  0  0  0  0  0  0
    7.4942    1.6637   -0.9806 C   0  0  0  0  0  0  0  0  0  0  0  0
    8.8455    1.4844   -1.2105 C   0  0  0  0  0  0  0  0  0  0  0  0
    9.2920    0.2502   -1.6236 C   0  0  0  0  0  0  0  0  0  0  0  0
    8.4293   -0.8049   -1.8121 C   0  0  0  0  0  0  0  0  0  0  0  0
    8.9463   -2.3807   -2.3333 Cl  0  0  0  0  0  0  0  0  0  0  0  0
    7.0733   -0.6156   -1.5783 C   0  0  0  0  0  0  0  0  0  0  0  0
   -0.7676    0.0385    0.1010 C   0  0  0  0  0  0  0  0  0  0  0  0
   -1.7698   -0.9354    0.2234 C   0  0  0  0  0  0  0  0  0  0  0  0
   -5.7249    4.1815    1.5612 H   0  0  0  0  0  0  0  0  0  0  0  0
   -4.0462    4.8356    1.6874 H   0  0  0  0  0  0  0  0  0  0  0  0
   -5.4440    5.9176    1.3373 H   0  0  0  0  0  0  0  0  0  0  0  0
   -4.1335    3.5356   -1.6775 H   0  0  0  0  0  0  0  0  0  0  0  0
   -3.3344    3.4452   -0.0899 H   0  0  0  0  0  0  0  0  0  0  0  0
   -5.2116    2.3598    0.9307 H   0  0  0  0  0  0  0  0  0  0  0  0
   -6.2865    2.5548   -0.5234 H   0  0  0  0  0  0  0  0  0  0  0  0
   -3.6319    1.0439    1.0400 H   0  0  0  0  0  0  0  0  0  0  0  0
   -2.8439    1.5975   -0.4491 H   0  0  0  0  0  0  0  0  0  0  0  0
   -5.1304   -4.2208   -1.8873 H   0  0  0  0  0  0  0  0  0  0  0  0
   -6.1785   -1.7008   -0.9331 H   0  0  0  0  0  0  0  0  0  0  0  0
   -6.7316   -3.2335   -0.2973 H   0  0  0  0  0  0  0  0  0  0  0  0
   -5.3954   -2.2319    0.8726 H   0  0  0  0  0  0  0  0  0  0  0  0
   -5.5011   -3.8030    1.6891 H   0  0  0  0  0  0  0  0  0  0  0  0
   -3.6944   -3.1688    2.8513 H   0  0  0  0  0  0  0  0  0  0  0  0
   -3.5183   -1.6562    1.9774 H   0  0  0  0  0  0  0  0  0  0  0  0
   -2.4096   -3.9627    0.3272 H   0  0  0  0  0  0  0  0  0  0  0  0
   -1.8350   -3.9290    1.9425 H   0  0  0  0  0  0  0  0  0  0  0  0
    0.1707   -3.1645    1.8487 H   0  0  0  0  0  0  0  0  0  0  0  0
    1.8736   -1.4458    1.6164 H   0  0  0  0  0  0  0  0  0  0  0  0
    1.3836    1.5133   -0.5145 H   0  0  0  0  0  0  0  0  0  0  0  0
    1.3857    1.6442    1.2883 H   0  0  0  0  0  0  0  0  0  0  0  0
    3.6888   -1.4224    0.0506 H   0  0  0  0  0  0  0  0  0  0  0  0
    2.3565   -0.8818   -0.9944 H   0  0  0  0  0  0  0  0  0  0  0  0
    3.6166    0.7259   -2.1537 H   0  0  0  0  0  0  0  0  0  0  0  0
    4.5703   -0.7770   -2.1191 H   0  0  0  0  0  0  0  0  0  0  0  0
    5.6813    2.2683    0.5725 H   0  0  0  0  0  0  0  0  0  0  0  0
    4.3295    2.7364   -0.5309 H   0  0  0  0  0  0  0  0  0  0  0  0
    4.5463    0.6617    1.7145 H   0  0  0  0  0  0  0  0  0  0  0  0
    3.4009    2.1038    1.5826 H   0  0  0  0  0  0  0  0  0  0  0  0
    7.1810    2.6320   -0.6684 H   0  0  0  0  0  0  0  0  0  0  0  0
    9.5281    2.3178   -1.0616 H   0  0  0  0  0  0  0  0  0  0  0  0
   10.3570    0.0903   -1.8104 H   0  0  0  0  0  0  0  0  0  0  0  0
    6.3813   -1.4226   -1.7122 H   0  0  0  0  0  0  0  0  0  0  0  0
   -0.9424    1.0104   -0.3815 H   0  0  0  0  0  0  0  0  0  0  0  0
  1  2  1  0
  2  3  1  0
  3  4  1  0
  4  5  1  0
  5  6  1  0
  6  7  1  0
  7  8  2  0
  8  9  1  0
  9 10  2  0
  9 11  1  0
 11 12  1  0
 11 13  1  0
 13 14  1  0
 14 15  1  0
 15 16  1  0
 16 17  1  0
 17 18  2  0
 18 19  1  0
 19 20  2  0
 20 21  1  0
 21 22  1  0
 22 23  1  0
 23 24  1  0
 24 25  1  0
 25 26  1  0
 26 27  1  0
 25 28  1  0
 28 29  2  0
 29 30  1  0
 30 31  2  0
 31 32  1  0
 32 33  1  0
 32 34  2  0
 20 35  1  0
 35 36  2  0
 36  7  1  0
 36 17  1  0
 27 22  1  0
 34 28  1  0
  1 37  1  0
  1 38  1  0
  1 39  1  0
  3 40  1  0
  3 41  1  0
  4 42  1  0
  4 43  1  0
  6 44  1  0
  6 45  1  0
 11 46  1  0
 12 47  1  0
 12 48  1  0
 14 49  1  0
 14 50  1  0
 15 51  1  0
 15 52  1  0
 16 53  1  0
 16 54  1  0
 18 55  1  0
 19 56  1  0
 21 57  1  0
 21 58  1  0
 23 59  1  0
 23 60  1  0
 24 61  1  0
 24 62  1  0
 26 63  1  0
 26 64  1  0
 27 65  1  0
 27 66  1  0
 29 67  1  0
 30 68  1  0
 31 69  1  0
 34 70  1  0
 35 71  1  0
M  END
$$$$
[H]c1c([H])c([H])c(C(F)(F)F)c(-c2c([H])c([H])c(N3C([H])([H])C([H])([H])N(C(=O)N([H])c4c([H])c(F)c([H])c(-c5c([H])c([H])c([H])c(N6C(=O)C([H])([H])C([H])([H])C6([H])[H])c5[H])c4[H])C([H])([H])C3([H])[H])c([H])c2[H])c1[H]
     RDKit          3D

 74 79  0  0  0  0  0  0  0  0999 V2000
    4.5304   -1.6574   -4.2997 F   0  0  0  0  0  0  0  0  0  0  0  0
    4.1556   -1.2032   -3.0754 C   0  0  0  0  0  0  0  0  0  0  0  0
    2.8731   -1.2785   -2.6072 C   0  0  0  0  0  0  0  0  0  0  0  0
    2.5098   -0.8028   -1.3382 C   0  0  0  0  0  0  0  0  0  0  0  0
    1.1480   -0.9436   -0.9703 N   0  0  0  0  0  0  0  0  0  0  0  0
    0.4839   -0.4755    0.1491 C   0  0  0  0  0  0  0  0  0  0  0  0
    1.1186    0.1930    1.0344 O   0  0  0  0  0  0  0  0  0  0  0  0
   -0.8963   -0.7058    0.3680 N   0  0  0  0  0  0  0  0  0  0  0  0
   -1.5248   -0.1899    1.5863 C   0  0  0  0  0  0  0  0  0  0  0  0
   -2.9725   -0.5730    1.6415 C   0  0  0  0  0  0  0  0  0  0  0  0
   -3.6616   -0.3356    0.3909 N   0  0  0  0  0  0  0  0  0  0  0  0
   -2.9093   -0.4539   -0.8447 C   0  0  0  0  0  0  0  0  0  0  0  0
   -1.7326   -1.4133   -0.5443 C   0  0  0  0  0  0  0  0  0  0  0  0
   -5.0376   -0.0053    0.3911 C   0  0  0  0  0  0  0  0  0  0  0  0
   -5.6695    0.3654   -0.7949 C   0  0  0  0  0  0  0  0  0  0  0  0
   -6.9952    0.6847   -0.8425 C   0  0  0  0  0  0  0  0  0  0  0  0
   -7.7723    0.6548    0.2833 C   0  0  0  0  0  0  0  0  0  0  0  0
   -7.1668    0.2908    1.4657 C   0  0  0  0  0  0  0  0  0  0  0  0
   -5.8116   -0.0383    1.5311 C   0  0  0  0  0  0  0  0  0  0  0  0
   -9.1876    0.9936    0.2530 C   0  0  0  0  0  0  0  0  0  0  0  0
   -9.5324    2.3200    0.5849 C   0  0  0  0  0  0  0  0  0  0  0  0
  -10.8550    2.6819    0.5637 C   0  0  0  0  0  0  0  0  0  0  0  0
  -11.8578    1.7761    0.2243 C   0  0  0  0  0  0  0  0  0  0  0  0
  -11.5144    0.4989   -0.0941 C   0  0  0  0  0  0  0  0  0  0  0  0
  -10.1696    0.0967   -0.0817 C   0  0  0  0  0  0  0  0  0  0  0  0
   -9.8405   -1.2857   -0.4272 C   0  0  0  0  0  0  0  0  0  0  0  0
   -9.0404   -1.4394   -1.5302 F   0  0  0  0  0  0  0  0  0  0  0  0
  -11.0114   -1.9886   -0.7070 F   0  0  0  0  0  0  0  0  0  0  0  0
   -9.2198   -1.9557    0.6203 F   0  0  0  0  0  0  0  0  0  0  0  0
    3.5069   -0.2570   -0.5874 C   0  0  0  0  0  0  0  0  0  0  0  0
    4.8267   -0.1541   -1.0113 C   0  0  0  0  0  0  0  0  0  0  0  0
    5.1312   -0.6338   -2.2604 C   0  0  0  0  0  0  0  0  0  0  0  0
    5.8949    0.4287   -0.2171 C   0  0  0  0  0  0  0  0  0  0  0  0
    5.6442    1.4560    0.6690 C   0  0  0  0  0  0  0  0  0  0  0  0
    6.6356    2.0341    1.4314 C   0  0  0  0  0  0  0  0  0  0  0  0
    7.9261    1.5770    1.3115 C   0  0  0  0  0  0  0  0  0  0  0  0
    8.2289    0.5442    0.4325 C   0  0  0  0  0  0  0  0  0  0  0  0
    7.2069   -0.0048   -0.3099 C   0  0  0  0  0  0  0  0  0  0  0  0
    9.5739    0.0680    0.3037 N   0  0  0  0  0  0  0  0  0  0  0  0
   10.2424   -0.3653   -0.8691 C   0  0  0  0  0  0  0  0  0  0  0  0
    9.8645   -0.1655   -2.0667 O   0  0  0  0  0  0  0  0  0  0  0  0
   11.4746   -1.1033   -0.5299 C   0  0  0  0  0  0  0  0  0  0  0  0
   11.6603   -0.8701    0.9263 C   0  0  0  0  0  0  0  0  0  0  0  0
   10.5075   -0.0528    1.3885 C   0  0  0  0  0  0  0  0  0  0  0  0
    2.1475   -1.7318   -3.2851 H   0  0  0  0  0  0  0  0  0  0  0  0
    0.5482   -1.5003   -1.6607 H   0  0  0  0  0  0  0  0  0  0  0  0
   -1.0337   -0.6180    2.4836 H   0  0  0  0  0  0  0  0  0  0  0  0
   -1.4076    0.9161    1.6022 H   0  0  0  0  0  0  0  0  0  0  0  0
   -3.1191   -1.6268    1.9521 H   0  0  0  0  0  0  0  0  0  0  0  0
   -3.4173    0.0373    2.4665 H   0  0  0  0  0  0  0  0  0  0  0  0
   -3.4863   -0.8812   -1.6750 H   0  0  0  0  0  0  0  0  0  0  0  0
   -2.4198    0.4978   -1.1236 H   0  0  0  0  0  0  0  0  0  0  0  0
   -1.3046   -1.7910   -1.4502 H   0  0  0  0  0  0  0  0  0  0  0  0
   -2.2053   -2.2903   -0.0203 H   0  0  0  0  0  0  0  0  0  0  0  0
   -5.0654    0.3913   -1.6832 H   0  0  0  0  0  0  0  0  0  0  0  0
   -7.4081    0.9658   -1.8171 H   0  0  0  0  0  0  0  0  0  0  0  0
   -7.7297    0.2531    2.3683 H   0  0  0  0  0  0  0  0  0  0  0  0
   -5.4046   -0.3146    2.4845 H   0  0  0  0  0  0  0  0  0  0  0  0
   -8.7305    3.0214    0.8506 H   0  0  0  0  0  0  0  0  0  0  0  0
  -11.1458    3.7067    0.8183 H   0  0  0  0  0  0  0  0  0  0  0  0
  -12.8906    2.0963    0.2174 H   0  0  0  0  0  0  0  0  0  0  0  0
  -12.2599   -0.2508   -0.3671 H   0  0  0  0  0  0  0  0  0  0  0  0
    3.3059    0.1220    0.3911 H   0  0  0  0  0  0  0  0  0  0  0  0
    6.1431   -0.5786   -2.6398 H   0  0  0  0  0  0  0  0  0  0  0  0
    4.6095    1.8208    0.7641 H   0  0  0  0  0  0  0  0  0  0  0  0
    6.4382    2.8388    2.1254 H   0  0  0  0  0  0  0  0  0  0  0  0
    8.7613    1.9914    1.8865 H   0  0  0  0  0  0  0  0  0  0  0  0
    7.3913   -0.8091   -1.0064 H   0  0  0  0  0  0  0  0  0  0  0  0
   12.3474   -0.6709   -1.0827 H   0  0  0  0  0  0  0  0  0  0  0  0
   11.3715   -2.1956   -0.6981 H   0  0  0  0  0  0  0  0  0  0  0  0
   11.6778   -1.8215    1.5242 H   0  0  0  0  0  0  0  0  0  0  0  0
   12.6340   -0.3587    1.1449 H   0  0  0  0  0  0  0  0  0  0  0  0
   10.8875    0.9897    1.6015 H   0  0  0  0  0  0  0  0  0  0  0  0
   10.0000   -0.4579    2.2873 H   0  0  0  0  0  0  0  0  0  0  0  0
  1  2  1  0
  2  3  2  0
  3  4  1  0
  4  5  1  0
  5  6  1  0
  6  7  2  0
  6  8  1  0
  8  9  1  0
  9 10  1  0
 10 11  1  0
 11 12  1  0
 12 13  1  0
 11 14  1  0
 14 15  2  0
 15 16  1  0
 16 17  2  0
 17 18  1  0
 18 19  2  0
 17 20  1  0
 20 21  2  0
 21 22  1  0
 22 23  2  0
 23 24  1  0
 24 25  2  0
 25 26  1  0
 26 27  1  0
 26 28  1  0
 26 29  1  0
  4 30  2  0
 30 31  1  0
 31 32  2  0
 31 33  1  0
 33 34  2  0
 34 35  1  0
 35 36  2  0
 36 37  1  0
 37 38  2  0
 37 39  1  0
 39 40  1  0
 40 41  2  0
 40 42  1  0
 42 43  1  0
 43 44  1  0
 32  2  1  0
 38 33  1  0
 44 39  1  0
 13  8  1  0
 19 14  1  0
 25 20  1  0
  3 45  1  0
  5 46  1  0
  9 47  1  0
  9 48  1  0
 10 49  1  0
 10 50  1  0
 12 51  1  0
 12 52  1  0
 13 53  1  0
 13 54  1  0
 15 55  1  0
 16 56  1  0
 18 57  1  0
 19 58  1  0
 21 59  1  0
 22 60  1  0
 23 61  1  0
 24 62  1  0
 30 63  1  0
 32 64  1  0
 34 65  1  0
 35 66  1  0
 36 67  1  0
 38 68  1  0
 42 69  1  0
 42 70  1  0
 43 71  1  0
 43 72  1  0
 44 73  1  0
 44 74  1  0
M  END
$$$$
